data_functionalizedCrystal
_audit_creation_method	'MofGen! by Chris Wilmer'
_symmetry_space_group_name_H-M	'P1'
_symmetry_Int_Tables_number	1
_symmetry_cell_setting	triclinic
loop_
_symmetry_equiv_pos_as_xyz
  x,y,z
_cell_length_a	16.109301
_cell_length_b	16.109301
_cell_length_c	15.186229
_cell_angle_alpha	89.994833
_cell_angle_beta	89.999006
_cell_angle_gamma	83.461532
loop_
_atom_site_label
_atom_site_type_symbol
_atom_site_fract_x
_atom_site_fract_y
_atom_site_fract_z
O1	O	1.103130	0.106867	-0.073183
O2	O	1.353130	0.356867	0.176817
O3	O	1.603130	0.606867	0.426817
O4	O	1.853130	0.856867	0.676817
O5	O	0.861069	0.120166	-0.073196
O6	O	1.111069	0.370166	0.176804
O7	O	1.361069	0.620166	0.426804
O8	O	1.611069	0.870166	0.676804
O9	O	0.988749	-0.007514	-0.073180
O10	O	1.238749	0.242486	0.176820
O11	O	1.488749	0.492486	0.426820
O12	O	1.738749	0.742486	0.676820
O13	O	0.975450	0.234548	-0.073199
O14	O	1.225450	0.484548	0.176801
O15	O	1.475450	0.734548	0.426801
O16	O	1.725450	0.984548	0.676801
O17	O	0.988741	-0.007516	0.073277
O18	O	1.238741	0.242484	0.323277
O19	O	1.488741	0.492484	0.573277
O20	O	1.738741	0.742484	0.823277
O21	O	0.861060	0.120164	0.073262
O22	O	1.111060	0.370164	0.323262
O23	O	1.361060	0.620164	0.573262
O24	O	1.611060	0.870164	0.823262
O25	O	1.103122	0.106865	0.073274
O26	O	1.353122	0.356865	0.323274
O27	O	1.603122	0.606865	0.573274
O28	O	1.853122	0.856865	0.823274
Zn29	Zn	0.982090	0.113515	0.096521
Zn30	Zn	1.232090	0.363515	0.346521
Zn31	Zn	1.482090	0.613515	0.596521
Zn32	Zn	1.732090	0.863515	0.846521
Zn33	Zn	0.982101	0.113517	-0.096443
Zn34	Zn	1.232101	0.363517	0.153557
Zn35	Zn	1.482101	0.613517	0.403557
Zn36	Zn	1.732101	0.863517	0.653557
O37	O	0.975441	0.234546	0.073259
O38	O	1.225441	0.484546	0.323259
O39	O	1.475441	0.734546	0.573259
O40	O	1.725441	0.984546	0.823259
C41	C	0.830089	0.119627	0.000031
C42	C	1.080089	0.369627	0.250031
C43	C	1.330089	0.619627	0.500031
C44	C	1.580089	0.869627	0.750031
C45	C	0.737794	0.118011	0.000027
C46	C	0.987794	0.368011	0.250027
C47	C	1.237794	0.618011	0.500027
C48	C	1.487794	0.868011	0.750027
C49	C	0.428796	0.188494	0.000037
C50	C	0.678796	0.438494	0.250037
C51	C	0.928796	0.688494	0.500037
C52	C	1.178796	0.938494	0.750037
C53	C	0.515516	0.190020	0.000032
C54	C	0.765516	0.440020	0.250032
C55	C	1.015516	0.690020	0.500032
C56	C	1.265516	0.940020	0.750032
C57	C	0.535389	0.038531	0.000031
C58	C	0.785389	0.288531	0.250031
C59	C	1.035389	0.538531	0.500031
C60	C	1.285389	0.788531	0.750031
C61	C	0.448671	0.037007	0.000030
C62	C	0.698671	0.287007	0.250030
C63	C	0.948671	0.537007	0.500030
C64	C	1.198671	0.787007	0.750030
C65	C	0.395376	0.111991	0.000037
C66	C	0.645376	0.361991	0.250037
C67	C	0.895376	0.611991	0.500037
C68	C	1.145376	0.861991	0.750037
C69	C	0.568815	0.115041	0.000033
C70	C	0.818815	0.365041	0.250033
C71	C	1.068815	0.615041	0.500033
C72	C	1.318815	0.865041	0.750033
C73	C	0.662841	0.116694	0.000028
C74	C	0.912841	0.366694	0.250028
C75	C	1.162841	0.616694	0.500028
C76	C	1.412841	0.866694	0.750028
C77	C	0.301344	0.110338	0.000041
C78	C	0.551344	0.360338	0.250041
C79	C	0.801344	0.610338	0.500041
C80	C	1.051344	0.860338	0.750041
C81	C	0.988206	-0.038490	0.000049
C82	C	1.238206	0.211510	0.250049
C83	C	1.488206	0.461510	0.500049
C84	C	1.738206	0.711510	0.750049
C85	C	0.986591	-0.130785	0.000050
C86	C	1.236591	0.119215	0.250050
C87	C	1.486591	0.369215	0.500050
C88	C	1.736591	0.619215	0.750050
C89	C	1.058599	-0.353058	0.000040
C90	C	1.308599	-0.103058	0.250040
C91	C	1.558599	0.146942	0.500040
C92	C	1.808599	0.396942	0.750040
C93	C	1.057075	-0.439778	0.000033
C94	C	1.307075	-0.189778	0.250033
C95	C	1.557075	0.060222	0.500033
C96	C	1.807075	0.310222	0.750033
C97	C	0.905586	-0.419904	0.000028
C98	C	1.155586	-0.169904	0.250028
C99	C	1.405586	0.080096	0.500028
C100	C	1.655586	0.330096	0.750028
C101	C	0.907111	-0.333185	0.000029
C102	C	1.157111	-0.083185	0.250029
C103	C	1.407111	0.166815	0.500029
C104	C	1.657111	0.416815	0.750029
C105	C	0.983620	-0.299765	0.000040
C106	C	1.233620	-0.049765	0.250040
C107	C	1.483620	0.200235	0.500040
C108	C	1.733620	0.450235	0.750040
C109	C	0.980571	-0.473204	0.000031
C110	C	1.230571	-0.223204	0.250031
C111	C	1.480571	0.026796	0.500031
C112	C	1.730571	0.276796	0.750031
C113	C	0.978918	-0.567230	0.000023
C114	C	1.228918	-0.317230	0.250023
C115	C	1.478918	-0.067230	0.500023
C116	C	1.728918	0.182770	0.750023
C117	C	0.985273	-0.205733	0.000046
C118	C	1.235273	0.044267	0.250046
C119	C	1.485273	0.294267	0.500046
C120	C	1.735273	0.544267	0.750046
C121	C	1.134101	0.107405	0.000045
C122	C	1.384101	0.357405	0.250045
C123	C	1.634101	0.607405	0.500045
C124	C	1.884101	0.857405	0.750045
C125	C	1.226396	0.109020	0.000044
C126	C	1.476396	0.359020	0.250044
C127	C	1.726396	0.609020	0.500044
C128	C	1.976396	0.859020	0.750044
C129	C	0.975984	0.265522	0.000028
C130	C	1.225984	0.515522	0.250028
C131	C	1.475984	0.765522	0.500028
C132	C	1.725984	1.015522	0.750028
C133	C	0.977599	0.357817	0.000021
C134	C	1.227599	0.607817	0.250021
C135	C	1.477599	0.857817	0.500021
C136	C	1.727599	1.107817	0.750021
N137	N	0.982088	0.113512	0.228214
N138	N	1.232088	0.363512	0.478214
N139	N	1.482088	0.613512	0.728214
N140	N	1.732088	0.863512	0.978214
N141	N	0.982109	0.113512	-0.228135
N142	N	1.232109	0.363512	0.021865
N143	N	1.482109	0.613512	0.271865
N144	N	1.732109	0.863512	0.521865
C145	C	1.038644	0.056994	0.453944
C146	C	1.288644	0.306994	0.703944
C147	C	1.538644	0.556994	0.953944
C148	C	1.788644	0.806994	1.203944
C149	C	1.038647	0.056992	0.546133
C150	C	1.288647	0.306992	0.796133
C151	C	1.538647	0.556992	1.046133
C152	C	1.788647	0.806992	1.296133
C153	C	0.925547	0.170033	0.546128
C154	C	1.175547	0.420033	0.796128
C155	C	1.425547	0.670033	1.046128
C156	C	1.675547	0.920033	1.296128
C157	C	0.925541	0.170030	0.453940
C158	C	1.175541	0.420030	0.703940
C159	C	1.425541	0.670030	0.953940
C160	C	1.675541	0.920030	1.203940
C161	C	0.982094	0.113512	0.407850
C162	C	1.232094	0.363512	0.657850
C163	C	1.482094	0.613512	0.907850
C164	C	1.732094	0.863512	1.157850
C165	C	0.982103	0.113513	0.592228
C166	C	1.232103	0.363513	0.842228
C167	C	1.482103	0.613513	1.092228
C168	C	1.732103	0.863513	1.342228
C169	C	0.982105	0.113511	0.692184
C170	C	1.232105	0.363511	0.942184
C171	C	1.482105	0.613511	1.192184
C172	C	1.732105	0.863511	1.442184
C173	C	0.982091	0.113512	0.307888
C174	C	1.232091	0.363512	0.557888
C175	C	1.482091	0.613512	0.807888
C176	C	1.732091	0.863512	1.057888
H177	H	0.578792	-0.022518	0.000028
H178	H	0.828792	0.227482	0.250028
H179	H	1.078792	0.477482	0.500028
H180	H	1.328792	0.727482	0.750028
Br181	Br	0.801758	-0.465266	0.000011
Br182	Br	1.051758	-0.215266	0.250011
Br183	Br	1.301758	0.034734	0.500011
Br184	Br	1.551758	0.284734	0.750011
Br185	Br	1.158837	-0.512102	0.000028
Br186	Br	1.408837	-0.262102	0.250028
Br187	Br	1.658837	-0.012102	0.500028
Br188	Br	1.908837	0.237898	0.750028
Br189	Br	1.162431	-0.307704	0.000055
Br190	Br	1.412431	-0.057704	0.250055
Br191	Br	1.662431	0.192296	0.500055
Br192	Br	1.912431	0.442296	0.750055
Br193	Br	0.805346	-0.260852	0.000017
Br194	Br	1.055346	-0.010852	0.250017
Br195	Br	1.305346	0.239148	0.500017
Br196	Br	1.555346	0.489148	0.750017
H197	H	0.421461	-0.025296	0.000028
H198	H	0.671461	0.224704	0.250028
H199	H	0.921461	0.474704	0.500028
H200	H	1.171461	0.724704	0.750028
Br201	Br	0.560868	0.293851	0.000023
Br202	Br	0.810868	0.543851	0.250023
Br203	Br	1.060868	0.793851	0.500023
Br204	Br	1.310868	1.043851	0.750023
Br205	Br	0.848800	0.246735	0.608682
Br206	Br	1.098800	0.496735	0.858682
Br207	Br	1.348800	0.746735	1.108682
Br208	Br	1.598800	0.996735	1.358682
H209	H	1.084692	0.010973	0.416419
H210	H	1.334692	0.260973	0.666419
H211	H	1.584692	0.510973	0.916419
H212	H	1.834692	0.760973	1.166419
Br213	Br	0.848783	0.246732	0.391378
Br214	Br	1.098783	0.496732	0.641378
Br215	Br	1.348783	0.746732	0.891378
Br216	Br	1.598783	0.996732	1.141378
Br217	Br	0.356470	0.290258	0.000045
Br218	Br	0.606470	0.540258	0.250045
Br219	Br	0.856470	0.790258	0.500045
Br220	Br	1.106470	1.040258	0.750045
Br221	Br	1.115392	-0.019717	0.608687
Br222	Br	1.365392	0.230283	0.858687
Br223	Br	1.615392	0.480283	1.108687
Br224	Br	1.865392	0.730283	1.358687
