data_functionalizedCrystal
_audit_creation_method	'MofGen! by Chris Wilmer'
_symmetry_space_group_name_H-M	'P1'
_symmetry_Int_Tables_number	1
_symmetry_cell_setting	triclinic
loop_
_symmetry_equiv_pos_as_xyz
  x,y,z
_cell_length_a	14.519731
_cell_length_b	13.596369
_cell_length_c	10.654550
_cell_angle_alpha	89.998281
_cell_angle_beta	84.086892
_cell_angle_gamma	89.993567
loop_
_atom_site_label
_atom_site_type_symbol
_atom_site_fract_x
_atom_site_fract_y
_atom_site_fract_z
O1	O	-1.224711	0.081807	-0.164753
O2	O	-0.724711	0.581807	0.335247
O3	O	-0.956337	0.081803	-0.184111
O4	O	-0.456337	0.581803	0.315889
O5	O	-1.096694	0.081809	0.008366
O6	O	-0.596694	0.581809	0.508366
O7	O	-1.084353	0.081801	-0.357230
O8	O	-0.584353	0.581801	0.142770
O9	O	-1.096680	-0.081774	0.008376
O10	O	-0.596680	0.418226	0.508376
O11	O	-0.956323	-0.081780	-0.184101
O12	O	-0.456323	0.418220	0.315899
O13	O	-1.224696	-0.081776	-0.164742
O14	O	-0.724696	0.418224	0.335258
Zn15	Zn	-1.090507	-0.107750	-0.174420
Zn16	Zn	-0.590507	0.392250	0.325580
Zn17	Zn	-1.090526	0.107777	-0.174434
Zn18	Zn	-0.590526	0.607777	0.325566
O19	O	-1.084339	-0.081782	-0.357220
O20	O	-0.584339	0.418218	0.142780
C21	C	-0.921965	0.000011	-0.183199
C22	C	-0.421965	0.500011	0.316801
C23	C	-0.819571	0.000009	-0.180481
C24	C	-0.319571	0.500009	0.319519
N25	N	-1.090501	-0.254842	-0.174410
N26	N	-0.590501	0.245158	0.325590
C27	C	-0.736416	0.000012	-0.178272
C28	C	-0.236416	0.500012	0.321728
C29	C	-0.632093	0.000010	-0.175513
C30	C	-0.132093	0.500010	0.324487
C31	C	-0.548942	0.000009	-0.173322
C32	C	-0.048942	0.500009	0.326678
C33	C	-0.444612	0.000009	-0.170563
C34	C	0.055388	0.500009	0.329437
C35	C	-1.090525	-0.656133	-0.174435
C36	C	-0.590525	-0.156133	0.325565
C37	C	-1.090515	-0.544482	-0.174432
C38	C	-0.590515	-0.044482	0.325568
C39	C	-1.090513	-0.455491	-0.174423
C40	C	-0.590513	0.044509	0.325577
C41	C	-1.090503	-0.343833	-0.174419
C42	C	-0.590503	0.156167	0.325581
C43	C	-0.259068	0.000014	-0.165655
C44	C	0.240932	0.500014	0.334345
C45	C	-0.361462	0.000007	-0.168373
C46	C	0.138538	0.500007	0.331627
C47	C	-1.085252	0.000008	-0.404014
C48	C	-0.585252	0.500008	0.095986
C49	C	-1.087963	0.000005	-0.543432
C50	C	-0.587963	0.500005	-0.043432
N51	N	-1.090539	0.254869	-0.174434
N52	N	-0.590539	0.754869	0.325566
C53	C	-1.005323	0.000006	-0.623703
C54	C	-0.505323	0.500006	-0.123703
C55	C	-1.007876	0.000022	-0.754700
C56	C	-0.507876	0.500022	-0.254700
C57	C	-1.175716	0.000032	-0.725140
C58	C	-0.675716	0.500032	-0.225140
C59	C	-1.173163	0.000023	-0.594146
C60	C	-0.673163	0.500023	-0.094146
C61	C	-1.095781	0.000021	0.055160
C62	C	-0.595781	0.500021	0.555160
C63	C	-1.093070	0.000030	0.194578
C64	C	-0.593070	0.500030	0.694578
H65	H	-0.935948	-0.000012	-0.582416
H66	H	-0.435948	0.499988	-0.082416
Br67	Br	-1.285325	0.000032	-0.485196
Br68	Br	-0.785325	0.500032	0.014804
Br69	Br	-0.895716	0.000032	-0.863636
Br70	Br	-0.395716	0.500032	-0.363636
Br71	Br	-1.291338	0.000054	-0.793976
Br72	Br	-0.791338	0.500054	-0.293976
