data_functionalizedCrystal
_audit_creation_method	'MofGen! by Chris Wilmer'
_symmetry_space_group_name_H-M	'P1'
_symmetry_Int_Tables_number	1
_symmetry_cell_setting	triclinic
loop_
_symmetry_equiv_pos_as_xyz
  x,y,z
_cell_length_a	12.759401
_cell_length_b	16.959454
_cell_length_c	12.759393
_cell_angle_alpha	89.970360
_cell_angle_beta	89.979062
_cell_angle_gamma	90.021600
loop_
_atom_site_label
_atom_site_type_symbol
_atom_site_fract_x
_atom_site_fract_y
_atom_site_fract_z
Zn1	Zn	1.606227	-0.314611	-0.594026
Zn2	Zn	2.106227	0.185389	-0.094026
Zn3	Zn	1.606102	-0.446810	-0.418349
Zn4	Zn	2.106102	0.053190	0.081651
Zn5	Zn	1.430526	-0.314653	-0.418362
Zn6	Zn	1.930526	0.185347	0.081638
Zn7	Zn	1.430501	-0.446755	-0.593986
Zn8	Zn	1.930501	0.053245	-0.093986
O9	O	1.518339	-0.380707	-0.506181
O10	O	2.018339	0.119293	-0.006181
O11	O	1.753232	-0.332153	-0.570734
O12	O	2.253232	0.167847	-0.070734
O13	O	1.582769	-0.429320	-0.271330
O14	O	2.082769	0.070680	0.228670
O15	O	1.453896	-0.204037	-0.441686
O16	O	1.953896	0.295963	0.058314
O17	O	1.753139	-0.429279	-0.441665
O18	O	2.253139	0.070721	0.058335
O19	O	1.582983	-0.204006	-0.570746
O20	O	2.082983	0.295994	-0.070746
O21	O	1.453774	-0.332225	-0.271339
O22	O	1.953774	0.167775	0.228661
O23	O	1.283502	-0.332171	-0.441647
O24	O	1.783502	0.167829	0.058353
O25	O	1.453854	-0.429185	-0.741013
O26	O	1.953854	0.070815	-0.241013
O27	O	1.283484	-0.429226	-0.570678
O28	O	1.783484	0.070774	-0.070678
O29	O	1.582959	-0.332100	-0.741042
O30	O	2.082959	0.167900	-0.241042
O31	O	1.582745	-0.557414	-0.441626
O32	O	2.082745	-0.057414	0.058374
O33	O	1.453732	-0.557373	-0.570666
O34	O	1.953732	-0.057373	-0.070666
C35	C	1.245372	-0.380698	-0.506160
C36	C	1.745372	0.119302	-0.006160
C37	C	1.128595	-0.380713	-0.506176
C38	C	1.628595	0.119287	-0.006176
C39	C	1.073751	-0.431326	-0.573257
C40	C	1.573751	0.068674	-0.073257
C41	C	0.964027	-0.431329	-0.573277
C42	C	1.464027	0.068671	-0.073277
C43	C	0.964000	-0.330103	-0.439128
C44	C	1.464000	0.169897	0.060872
C45	C	1.073722	-0.330097	-0.439113
C46	C	1.573722	0.169903	0.060887
C47	C	1.518251	-0.586074	-0.506163
C48	C	2.018251	-0.086074	-0.006163
C49	C	1.518309	-0.673930	-0.506190
C50	C	2.018309	-0.173930	-0.006190
C51	C	1.451259	-1.045415	-0.573365
C52	C	1.951259	-0.545415	-0.073365
C53	C	1.585711	-1.045397	-0.439104
C54	C	2.085711	-0.545397	0.060896
C55	C	1.585675	-0.962851	-0.439094
C56	C	2.085675	-0.462851	0.060906
C57	C	1.518428	-0.921583	-0.506220
C58	C	2.018428	-0.421583	-0.006220
C59	C	1.451218	-0.962861	-0.573355
C60	C	1.951218	-0.462861	-0.073355
C61	C	1.652875	-0.921567	-0.371953
C62	C	2.152875	-0.421567	0.128047
C63	C	1.652841	-0.839016	-0.371940
C64	C	2.152841	-0.339016	0.128060
C65	C	1.585599	-0.797747	-0.439071
C66	C	2.085599	-0.297747	0.060929
C67	C	1.518387	-0.839030	-0.506210
C68	C	2.018387	-0.339030	-0.006210
C69	C	1.451141	-0.797762	-0.573335
C70	C	1.951141	-0.297762	-0.073335
C71	C	1.383934	-0.839043	-0.640480
C72	C	1.883934	-0.339043	-0.140480
C73	C	1.383977	-0.921592	-0.640486
C74	C	1.883977	-0.421592	-0.140486
C75	C	1.585556	-0.715198	-0.439065
C76	C	2.085556	-0.215198	0.060935
C77	C	1.451100	-0.715208	-0.573326
C78	C	1.951100	-0.215208	-0.073326
C79	C	1.792372	-0.380718	-0.506202
C80	C	2.292372	0.119282	-0.006202
C81	C	1.909149	-0.380722	-0.506212
C82	C	2.409149	0.119278	-0.006212
C83	C	1.518418	-0.380632	-0.780214
C84	C	2.018418	0.119368	-0.280214
C85	C	1.518451	-0.380599	-0.896991
C86	C	2.018451	0.119401	-0.396991
C87	C	1.518456	-0.174539	-0.506222
C88	C	2.018456	0.325461	-0.006222
C89	C	1.518506	-0.086683	-0.506239
C90	C	2.018506	0.413317	-0.006239
C91	C	1.585681	-0.330039	-0.951870
C92	C	2.085681	0.169961	-0.451870
C93	C	1.585699	-0.330005	-1.061594
C94	C	2.085699	0.169995	-0.561594
C95	C	1.451254	-0.431098	-1.061551
C96	C	1.951254	0.068902	-0.561551
C97	C	1.451232	-0.431128	-0.951829
C98	C	1.951232	0.068872	-0.451829
C99	C	1.518321	-0.380726	-0.233213
C100	C	2.018321	0.119274	0.266787
C101	C	1.518491	-0.380536	-0.116437
C102	C	2.018491	0.119464	0.383563
H103	H	1.396343	-0.681613	-0.627992
H104	H	1.896343	-0.181613	-0.127992
H105	H	1.640443	-0.288832	-1.106272
H106	H	2.140443	0.211168	-0.606272
C107	C	1.310044	-0.967007	-0.714327
C108	C	1.810044	-0.467007	-0.214327
N109	N	1.254353	-1.001218	-0.769938
N110	N	1.754353	-0.501218	-0.269938
C111	C	1.309964	-0.793638	-0.714315
C112	C	1.809964	-0.293638	-0.214315
N113	N	1.254253	-0.759435	-0.769927
N114	N	1.754253	-0.259435	-0.269927
H115	H	1.396544	-1.079030	-0.628035
H116	H	1.896544	-0.579030	-0.128035
C117	C	1.659667	-1.090794	-0.365260
C118	C	2.159667	-0.590794	0.134740
N119	N	1.715373	-1.124991	-0.309636
N120	N	2.215373	-0.624991	0.190364
C121	C	1.377314	-0.486675	-1.121882
C122	C	1.877314	0.013325	-0.621882
N123	N	1.321621	-0.528537	-1.167323
N124	N	1.821621	-0.028537	-0.667323
C125	C	1.726826	-0.966966	-0.298105
C126	C	2.226826	-0.466966	0.201895
N127	N	1.782525	-1.001165	-0.242477
N128	N	2.282525	-0.501165	0.257523
C129	C	1.726763	-0.793614	-0.298073
C130	C	2.226763	-0.293614	0.201927
N131	N	1.782440	-0.759416	-0.242435
N132	N	2.282440	-0.259416	0.257565
H133	H	1.396477	-0.472300	-0.907145
H134	H	1.896477	0.027700	-0.407145
H135	H	1.118425	-0.472539	-0.627866
H136	H	1.618425	0.027461	-0.127866
H137	H	0.919378	-0.472542	-0.627903
H138	H	1.419378	0.027458	-0.127903
C139	C	1.659615	-0.274449	-0.891553
C140	C	2.159615	0.225551	-0.391553
N141	N	1.715301	-0.232574	-0.846125
N142	N	2.215301	0.267426	-0.346125
C143	C	0.903630	-0.274433	-0.365357
C144	C	1.403630	0.225567	0.134643
N145	N	0.858161	-0.232503	-0.309789
N146	N	1.358161	0.267497	0.190211
C147	C	1.659480	-0.669792	-0.365212
C148	C	2.159480	-0.169792	0.134788
N149	N	1.715167	-0.635594	-0.309585
N150	N	2.215167	-0.135594	0.190415
C151	C	1.134054	-0.274416	-0.365315
C152	C	1.634054	0.225584	0.134685
N153	N	1.179496	-0.232477	-0.309734
N154	N	1.679496	0.267523	0.190266
