data_functionalizedCrystal
_audit_creation_method	'MofGen! by Chris Wilmer'
_symmetry_space_group_name_H-M	'P1'
_symmetry_Int_Tables_number	1
_symmetry_cell_setting	triclinic
loop_
_symmetry_equiv_pos_as_xyz
  x,y,z
_cell_length_a	13.032831
_cell_length_b	19.121063
_cell_length_c	13.032268
_cell_angle_alpha	99.247498
_cell_angle_beta	90.886977
_cell_angle_gamma	85.565596
loop_
_atom_site_label
_atom_site_type_symbol
_atom_site_fract_x
_atom_site_fract_y
_atom_site_fract_z
Zn1	Zn	1.465022	-0.473659	-0.806576
Zn2	Zn	1.965022	0.026341	-0.306576
Zn3	Zn	1.479383	-0.578156	-0.640274
Zn4	Zn	1.979383	-0.078156	-0.140274
Zn5	Zn	1.316950	-0.444360	-0.611224
Zn6	Zn	1.816950	0.055640	-0.111224
Zn7	Zn	1.285899	-0.574364	-0.790193
Zn8	Zn	1.785899	-0.074364	-0.290193
O9	O	1.386814	-0.517635	-0.712067
O10	O	1.886814	-0.017635	-0.212067
O11	O	1.609870	-0.501370	-0.803529
O12	O	2.109870	-0.001370	-0.303529
O13	O	1.476841	-0.549733	-0.491924
O14	O	1.976841	-0.049733	0.008076
O15	O	1.343577	-0.350107	-0.631836
O16	O	1.843577	0.149893	-0.131836
O17	O	1.620421	-0.578143	-0.681348
O18	O	2.120421	-0.078143	-0.181348
O19	O	1.452365	-0.371633	-0.775360
O20	O	1.952365	0.128367	-0.275360
O21	O	1.357502	-0.451434	-0.470581
O22	O	1.857502	0.048566	0.029419
O23	O	1.169889	-0.447756	-0.615951
O24	O	1.669889	0.052244	-0.115951
O25	O	1.290655	-0.571680	-0.936863
O26	O	1.790655	-0.071680	-0.436863
O27	O	1.147076	-0.543270	-0.747439
O28	O	1.647076	-0.043270	-0.247439
O29	O	1.422256	-0.497693	-0.948899
O30	O	1.922256	0.002307	-0.448899
O31	O	1.446733	-0.675793	-0.665463
O32	O	1.946733	-0.175793	-0.165463
O33	O	1.304581	-0.673007	-0.775608
O34	O	1.804581	-0.173007	-0.275608
C35	C	1.121419	-0.491923	-0.676766
C36	C	1.621419	0.008077	-0.176766
C37	C	1.007877	-0.480942	-0.661690
C38	C	1.507877	0.019058	-0.161690
C39	C	0.946005	-0.523366	-0.719935
C40	C	1.446005	-0.023366	-0.219935
C41	C	0.828653	-0.512018	-0.704355
C42	C	1.328653	-0.012018	-0.204355
C43	C	1.373870	-0.699851	-0.721936
C44	C	1.873870	-0.199851	-0.221936
C45	C	1.368422	-0.777815	-0.726206
C46	C	1.868422	-0.277815	-0.226206
C47	C	1.439917	-0.815879	-0.670926
C48	C	1.939917	-0.315879	-0.170926
C49	C	1.434798	-0.889136	-0.674948
C50	C	1.934798	-0.389136	-0.174948
C51	C	1.358179	-0.924327	-0.734244
C52	C	1.858179	-0.424327	-0.234244
C53	C	1.286681	-0.886258	-0.789530
C54	C	1.786681	-0.386258	-0.289530
C55	C	1.291805	-0.813003	-0.785514
C56	C	1.791805	-0.313003	-0.285514
C57	C	1.339006	-1.145437	-0.749244
C58	C	1.839006	-0.645437	-0.249244
C59	C	1.333886	-1.218697	-0.753254
C60	C	1.833886	-0.718697	-0.253254
C61	C	1.482005	-1.221570	-0.638672
C62	C	1.982005	-0.721570	-0.138672
C63	C	1.487118	-1.148313	-0.634656
C64	C	1.987118	-0.648313	-0.134656
C65	C	1.415624	-1.110251	-0.689946
C66	C	1.915624	-0.610251	-0.189946
C67	C	1.352943	-0.999207	-0.738354
C68	C	1.852943	-0.499207	-0.238354
C69	C	1.420865	-1.035374	-0.685842
C70	C	1.920865	-0.535374	-0.185842
C71	C	1.653245	-0.543448	-0.747506
C72	C	2.153245	-0.043448	-0.247506
C73	C	1.766782	-0.554448	-0.762608
C74	C	2.266782	-0.054448	-0.262608
C75	C	1.351390	-0.537532	-0.981395
C76	C	1.851390	-0.037532	-0.481395
C77	C	1.336295	-0.546011	-1.096167
C78	C	1.836295	-0.046011	-0.596167
C79	C	1.399833	-0.334712	-0.702185
C80	C	1.899833	0.165288	-0.202185
C81	C	1.405381	-0.256761	-0.697974
C82	C	1.905381	0.243239	-0.197974
C83	C	1.394678	-0.513183	-1.153291
C84	C	1.894678	-0.013183	-0.653291
C85	C	1.379078	-0.521945	-1.271914
C86	C	1.879078	-0.021945	-0.771914
C87	C	1.422162	-0.497771	-0.443791
C88	C	1.922162	0.002229	0.056209
C89	C	1.437469	-0.489113	-0.329036
C90	C	1.937469	0.010887	0.170964
H91	H	0.800683	-0.599170	-0.824020
H92	H	1.300683	-0.099170	-0.324020
H93	H	0.979912	-0.568086	-0.781340
H94	H	1.479912	-0.068086	-0.281340
C95	C	1.431443	-0.411323	-1.028648
C96	C	1.931443	0.088677	-0.528648
C97	C	1.477752	-0.466487	-1.100766
C98	C	1.977752	0.033513	-0.600766
H99	H	1.482734	-0.382499	-0.996220
H100	H	1.982734	0.117501	-0.496220
H101	H	1.383368	-0.383271	-1.063359
H102	H	1.883368	0.116729	-0.563359
H103	H	1.396834	-0.430792	-0.977446
H104	H	1.896834	0.069208	-0.477446
H105	H	1.512355	-0.447018	-1.151973
H106	H	2.012355	0.052982	-0.651973
H107	H	1.525845	-0.494544	-1.066054
H108	H	2.025845	0.005456	-0.566054
H109	H	0.973970	-0.436217	-0.600292
H110	H	1.473970	0.063783	-0.100292
H111	H	1.271503	-1.247349	-0.801559
H112	H	1.771503	-0.747349	-0.301559
H113	H	1.274755	-0.580597	-1.135080
H114	H	1.774755	-0.080597	-0.635080
H115	H	1.317533	-0.556535	-1.310822
H116	H	1.817533	-0.056535	-0.810822
C117	C	0.675503	-0.452096	-0.622046
C118	C	1.175503	0.047904	-0.122046
C119	C	0.782897	-0.451648	-0.621443
C120	C	1.282897	0.048352	-0.121443
H121	H	0.647257	-0.414832	-0.570852
H122	H	1.147257	0.085168	-0.070852
H123	H	0.649677	-0.445348	-0.688587
H124	H	1.149677	0.054652	-0.188587
H125	H	0.656742	-0.496412	-0.607090
H126	H	1.156742	0.003588	-0.107090
H127	H	0.801659	-0.407334	-0.636406
H128	H	1.301659	0.092666	-0.136406
H129	H	0.808733	-0.458391	-0.554886
H130	H	1.308733	0.041609	-0.054886
C131	C	1.158278	-0.718437	-0.776965
C132	C	1.658278	-0.218437	-0.276965
C133	C	1.213216	-0.771160	-0.846278
C134	C	1.713216	-0.271160	-0.346278
H135	H	1.109766	-0.692605	-0.814486
H136	H	1.609766	-0.192605	-0.314486
H137	H	1.123159	-0.739943	-0.728331
H138	H	1.623159	-0.239943	-0.228331
H139	H	1.204652	-0.687000	-0.741082
H140	H	1.704652	-0.187000	-0.241082
H141	H	1.166841	-0.802601	-0.882156
H142	H	1.666841	-0.302601	-0.382156
H143	H	1.248336	-0.749653	-0.894931
H144	H	1.748336	-0.249653	-0.394931
H145	H	1.499002	-0.454514	-1.290127
H146	H	1.999002	0.045486	-0.790127
H147	H	1.502304	-0.787232	-0.622636
H148	H	2.002304	-0.287232	-0.122636
H149	H	1.493016	-0.920125	-0.629933
H150	H	1.993016	-0.420125	-0.129933
C151	C	1.561602	-1.117710	-0.465257
C152	C	2.061602	-0.617710	0.034743
C153	C	1.571351	-1.109641	-0.569483
C154	C	2.071351	-0.609641	-0.069483
H155	H	1.613610	-1.093839	-0.425023
H156	H	2.113610	-0.593839	0.074977
H157	H	1.495825	-1.097977	-0.440309
H158	H	1.995825	-0.597977	0.059691
H159	H	1.568779	-1.166789	-0.459754
H160	H	2.068779	-0.666789	0.040246
H161	H	1.564167	-1.060562	-0.574987
H162	H	2.064167	-0.560562	-0.074987
H163	H	1.637144	-1.129371	-0.594438
H164	H	2.137144	-0.629371	-0.094438
C165	C	1.615545	-1.316121	-0.647243
C166	C	2.115545	-0.816121	-0.147243
C167	C	1.560605	-1.263408	-0.577915
C168	C	2.060605	-0.763408	-0.077915
H169	H	1.664079	-1.341945	-0.609734
H170	H	2.164079	-0.841945	-0.109734
H171	H	1.569182	-1.347562	-0.683114
H172	H	2.069182	-0.847562	-0.183114
H173	H	1.650646	-1.294603	-0.695888
H174	H	2.150646	-0.794603	-0.195888
H175	H	1.525498	-1.284926	-0.529274
H176	H	2.025498	-0.784926	-0.029274
H177	H	1.606975	-1.231963	-0.542027
H178	H	2.106975	-0.731963	-0.042027
C179	C	1.192063	-1.149961	-0.862874
C180	C	1.692063	-0.649961	-0.362874
C181	C	1.260402	-1.103602	-0.809995
C182	C	1.760402	-0.603602	-0.309995
H183	H	1.143528	-1.124129	-0.900370
H184	H	1.643528	-0.624129	-0.400370
H185	H	1.229336	-1.185718	-0.909895
H186	H	1.729336	-0.685718	-0.409895
H187	H	1.156965	-1.171467	-0.814211
H188	H	1.656965	-0.671467	-0.314211
H189	H	1.295506	-1.082100	-0.858658
H190	H	1.795506	-0.582100	-0.358658
H191	H	1.223125	-1.067832	-0.762970
H192	H	1.723125	-0.567832	-0.262970
H193	H	1.224300	-0.914917	-0.837816
H194	H	1.724300	-0.414917	-0.337816
H195	H	1.483252	-1.006720	-0.637567
H196	H	1.983252	-0.506720	-0.137567
H197	H	1.290558	-1.027867	-0.786631
H198	H	1.790558	-0.527867	-0.286631
