data_functionalizedCrystal
_audit_creation_method	'MofGen! by Chris Wilmer'
_symmetry_space_group_name_H-M	'P1'
_symmetry_Int_Tables_number	1
_symmetry_cell_setting	triclinic
loop_
_symmetry_equiv_pos_as_xyz
  x,y,z
_cell_length_a	16.959455
_cell_length_b	17.637651
_cell_length_c	16.959447
_cell_angle_alpha	78.752498
_cell_angle_beta	89.985299
_cell_angle_gamma	101.218339
loop_
_atom_site_label
_atom_site_type_symbol
_atom_site_fract_x
_atom_site_fract_y
_atom_site_fract_z
Zn1	Zn	1.144790	-0.314761	-0.383218
Zn2	Zn	1.644790	0.185239	0.116782
Zn3	Zn	1.117997	-0.446988	-0.224281
Zn4	Zn	1.617997	0.053012	0.275719
Zn5	Zn	1.012612	-0.314791	-0.251049
Zn6	Zn	1.512612	0.185209	0.248951
Zn7	Zn	0.985878	-0.446935	-0.356430
Zn8	Zn	1.485878	0.053065	0.143570
O9	O	1.065319	-0.380869	-0.303744
O10	O	1.565319	0.119131	0.196256
O11	O	1.251844	-0.332311	-0.362144
O12	O	1.751844	0.167689	0.137856
O13	O	1.103993	-0.429487	-0.117214
O14	O	1.603993	0.070513	0.382786
O15	O	1.052546	-0.204147	-0.290995
O16	O	1.552546	0.295853	0.209005
O17	O	1.232160	-0.429457	-0.245373
O18	O	1.732160	0.070543	0.254627
O19	O	1.149657	-0.204125	-0.388100
O20	O	1.649657	0.295875	0.111900
O21	O	1.026567	-0.332363	-0.136880
O22	O	1.526567	0.167637	0.363120
O23	O	0.898457	-0.332311	-0.265019
O24	O	1.398457	0.167689	0.234981
O25	O	1.006983	-0.429367	-0.470601
O26	O	1.506983	0.070633	0.029399
O27	O	0.878816	-0.429396	-0.342442
O28	O	1.378816	0.070604	0.157558
O29	O	1.123734	-0.332259	-0.490283
O30	O	1.623734	0.167741	0.009717
O31	O	1.078070	-0.557621	-0.219397
O32	O	1.578070	-0.057621	0.280603
O33	O	0.981003	-0.557582	-0.316486
O34	O	1.481003	-0.057582	0.183514
C35	C	0.859956	-0.380852	-0.303728
C36	C	1.359956	0.119148	0.196272
C37	C	0.772097	-0.380863	-0.303737
C38	C	1.272097	0.119137	0.196263
C39	C	0.720587	-0.431371	-0.242882
C40	C	1.220587	0.068629	0.257118
C41	C	0.741053	-0.330362	-0.364596
C42	C	1.241053	0.169638	0.135404
C43	C	0.658506	-0.330368	-0.364604
C44	C	1.158506	0.169632	0.135396
C45	C	0.606995	-0.380876	-0.303750
C46	C	1.106995	0.119124	0.196250
C47	C	0.638033	-0.431377	-0.242887
C48	C	1.138033	0.068623	0.257113
C49	C	0.627463	-0.279862	-0.425461
C50	C	1.127463	0.220138	0.074539
C51	C	0.544912	-0.279865	-0.425471
C52	C	1.044912	0.220135	0.074529
C53	C	0.493399	-0.330378	-0.364619
C54	C	0.993399	0.169622	0.135381
C55	C	0.524441	-0.380882	-0.303755
C56	C	1.024441	0.119118	0.196245
C57	C	0.472931	-0.431390	-0.242900
C58	C	0.972931	0.068610	0.257100
C59	C	0.503970	-0.481898	-0.182038
C60	C	1.003970	0.018102	0.317962
C61	C	0.586520	-0.481890	-0.182035
C62	C	1.086520	0.018110	0.317965
C63	C	0.410849	-0.330386	-0.364622
C64	C	0.910849	0.169614	0.135378
C65	C	0.390376	-0.431396	-0.242905
C66	C	0.890376	0.068604	0.257095
C67	C	1.023750	-0.586289	-0.262147
C68	C	1.523750	-0.086289	0.237853
C69	C	1.006039	-0.674169	-0.244378
C70	C	1.506039	-0.174169	0.255622
C71	C	1.200383	-0.962841	-0.438983
C72	C	1.700383	-0.462841	0.061017
C73	C	1.183715	-1.045418	-0.422273
C74	C	1.683715	-0.545418	0.077727
C75	C	1.082662	-1.045548	-0.321060
C76	C	1.582662	-0.545548	0.178940
C77	C	1.099323	-0.962970	-0.337759
C78	C	1.599323	-0.462970	0.162241
C79	C	1.158184	-0.921623	-0.396722
C80	C	1.658184	-0.421623	0.103278
C81	C	1.057125	-0.921752	-0.295499
C82	C	1.557125	-0.421752	0.204501
C83	C	1.073783	-0.839182	-0.312200
C84	C	1.573783	-0.339182	0.187800
C85	C	1.132639	-0.797829	-0.371162
C86	C	1.632639	-0.297829	0.128838
C87	C	1.174842	-0.839053	-0.413423
C88	C	1.674842	-0.339053	0.086577
C89	C	0.998260	-0.963101	-0.236540
C90	C	1.498260	-0.463101	0.263460
C91	C	0.956062	-0.921883	-0.194279
C92	C	1.456062	-0.421883	0.305721
C93	C	0.972723	-0.839311	-0.210976
C94	C	1.472723	-0.339311	0.289024
C95	C	1.031579	-0.797958	-0.269938
C96	C	1.531579	-0.297958	0.230062
C97	C	0.930520	-0.798087	-0.168714
C98	C	1.430520	-0.298087	0.331286
C99	C	0.947178	-0.715516	-0.185415
C100	C	1.447178	-0.215516	0.314585
C101	C	1.048237	-0.715387	-0.286639
C102	C	1.548237	-0.215387	0.213361
C103	C	1.271484	-0.380887	-0.303761
C104	C	1.771484	0.119113	0.196239
C105	C	1.359339	-0.380894	-0.303768
C106	C	1.859339	0.119106	0.196232
C107	C	1.065365	-0.380803	-0.509926
C108	C	1.565365	0.119197	-0.009926
C109	C	1.065385	-0.380775	-0.597788
C110	C	1.565385	0.119225	-0.097788
C111	C	1.107072	-0.174646	-0.345521
C112	C	1.607072	0.325354	0.154479
C113	C	1.124865	-0.086767	-0.363324
C114	C	1.624865	0.413233	0.136676
C115	C	1.004709	-0.431252	-0.959036
C116	C	1.504709	0.068748	-0.459036
C117	C	1.126283	-0.330133	-0.979526
C118	C	1.626283	0.169867	-0.479526
C119	C	1.126259	-0.330149	-0.896977
C120	C	1.626259	0.169851	-0.396977
C121	C	1.065459	-0.380719	-0.845453
C122	C	1.565459	0.119281	-0.345453
C123	C	1.004684	-0.431271	-0.876479
C124	C	1.504684	0.068729	-0.376479
C125	C	1.187038	-0.279603	-0.865943
C126	C	1.687038	0.220397	-0.365943
C127	C	1.187016	-0.279619	-0.783389
C128	C	1.687016	0.220381	-0.283389
C129	C	1.126212	-0.330185	-0.731865
C130	C	1.626212	0.169815	-0.231865
C131	C	1.065434	-0.380739	-0.762895
C132	C	1.565434	0.119261	-0.262895
C133	C	1.004635	-0.431308	-0.711372
C134	C	1.504635	0.068692	-0.211372
C135	C	0.943853	-0.481859	-0.742401
C136	C	1.443853	0.018141	-0.242401
C137	C	0.943880	-0.481838	-0.824954
C138	C	1.443880	0.018162	-0.324954
C139	C	1.126185	-0.330206	-0.649312
C140	C	1.626185	0.169794	-0.149312
C141	C	1.004610	-0.431328	-0.628814
C142	C	1.504610	0.068672	-0.128814
C143	C	1.065330	-0.380877	-0.098377
C144	C	1.565330	0.119123	0.401623
C145	C	1.065509	-0.380682	-0.010560
C146	C	1.565509	0.119318	0.489440
H147	H	0.745863	-0.472496	-0.193331
H148	H	1.245863	0.027504	0.306669
H149	H	1.248319	-0.929175	-0.486991
H150	H	1.748319	-0.429175	0.013009
H151	H	1.218072	-1.078974	-0.456702
H152	H	1.718072	-0.578974	0.043298
C153	C	0.333721	-0.486955	-0.175963
C154	C	0.833721	0.013045	0.324037
H155	H	0.364032	-0.517028	-0.139716
H156	H	0.864032	-0.017028	0.360284
H157	H	0.294548	-0.521439	-0.199163
H158	H	0.794548	-0.021439	0.300837
H159	H	0.307639	-0.456667	-0.147701
H160	H	0.807639	0.043333	0.352299
C161	C	1.193035	-0.274612	-0.615177
C162	C	1.693035	0.225388	-0.115177
H163	H	1.184316	-0.281868	-0.558632
H164	H	1.684316	0.218132	-0.058632
H165	H	1.192235	-0.221484	-0.639473
H166	H	1.692235	0.278516	-0.139473
H167	H	1.243804	-0.286196	-0.626357
H168	H	1.743804	0.213804	-0.126357
H169	H	1.034735	-1.079224	-0.273054
H170	H	1.534735	-0.579224	0.226946
C171	C	0.979933	-1.053927	-0.218166
C172	C	1.479933	-0.553927	0.281834
H173	H	0.938827	-1.072649	-0.177006
H174	H	1.438827	-0.572649	0.322994
H175	H	1.027183	-1.072585	-0.200768
H176	H	1.527183	-0.572585	0.299232
H177	H	0.962465	-1.072581	-0.265393
H178	H	1.462465	-0.572581	0.234607
H179	H	0.782997	-0.289237	-0.414138
H180	H	1.282997	0.210763	0.085862
H181	H	1.096174	-0.681721	-0.334647
H182	H	1.596174	-0.181721	0.165353
H183	H	0.955220	-0.472406	-0.984305
H184	H	1.455220	0.027594	-0.484305
H185	H	0.669409	-0.238738	-0.475003
H186	H	1.169409	0.261262	0.024997
H187	H	1.175787	-0.288966	-1.021480
H188	H	1.675787	0.211034	-0.521480
C189	C	0.376704	-0.274834	-0.431558
C190	C	0.876704	0.225166	0.068442
H191	H	0.320164	-0.282068	-0.422844
H192	H	0.820164	0.217932	0.077156
H193	H	0.387900	-0.286458	-0.482294
H194	H	0.887900	0.213542	0.017706
H195	H	0.400978	-0.221695	-0.430821
H196	H	0.900978	0.278305	0.069179
C197	C	0.891323	-0.967369	-0.129421
C198	C	1.391323	-0.467369	0.370579
H199	H	0.887449	-1.022449	-0.125522
H200	H	1.387449	-0.522449	0.374478
H201	H	0.840930	-0.953863	-0.143663
H202	H	1.340930	-0.453863	0.356337
H203	H	0.905663	-0.953863	-0.079053
H204	H	1.405663	-0.453863	0.420947
H205	H	0.912814	-0.681956	-0.151003
H206	H	1.412814	-0.181956	0.348997
C207	C	1.253902	-0.223972	-0.922620
C208	C	1.753902	0.276028	-0.422620
H209	H	1.245202	-0.231192	-0.976231
H210	H	1.745202	0.268808	-0.476231
H211	H	1.304670	-0.235541	-0.906758
H212	H	1.804670	0.264459	-0.406758
H213	H	1.253072	-0.170853	-0.919850
H214	H	1.753072	0.329147	-0.419850
C215	C	1.239573	-0.793566	-0.478298
C216	C	1.739573	-0.293566	0.021702
H217	H	1.262315	-0.829938	-0.501084
H218	H	1.762315	-0.329938	-0.001084
H219	H	1.280536	-0.761340	-0.454627
H220	H	1.780536	-0.261340	0.045373
H221	H	1.215786	-0.761364	-0.519220
H222	H	1.715786	-0.261364	-0.019220
H223	H	1.236508	-0.238457	-0.758133
H224	H	1.736508	0.261543	-0.258133
H225	H	0.462020	-0.523019	-0.132488
H226	H	0.962020	-0.023019	0.367512
H227	H	0.611800	-0.523009	-0.132483
H228	H	1.111800	-0.023009	0.367517
C229	C	0.865776	-0.843574	-0.103862
C230	C	1.365776	-0.343574	0.396138
H231	H	0.861901	-0.898654	-0.099967
H232	H	1.361901	-0.398654	0.400033
H233	H	0.815385	-0.830066	-0.118110
H234	H	1.315385	-0.330066	0.381890
H235	H	0.880110	-0.830073	-0.053491
H236	H	1.380110	-0.330073	0.446509
H237	H	1.146201	-0.730594	-0.384758
H238	H	1.646201	-0.230594	0.115242
C239	C	0.510774	-0.224316	-0.492421
C240	C	1.010774	0.275684	0.007579
H241	H	0.553274	-0.194239	-0.528665
H242	H	1.053274	0.305761	-0.028665
H243	H	0.485532	-0.189834	-0.469229
H244	H	0.985532	0.310166	0.030771
H245	H	0.472459	-0.254612	-0.520685
H246	H	0.972459	0.245388	-0.020685
C247	C	0.937738	-0.486967	-0.572142
C248	C	1.437738	0.013033	-0.072142
H249	H	0.901551	-0.517074	-0.602446
H250	H	1.401551	-0.017074	-0.102446
H251	H	0.909408	-0.456739	-0.546055
H252	H	1.409408	0.043261	-0.046055
H253	H	0.961004	-0.521429	-0.532966
H254	H	1.461004	-0.021429	-0.032966
C255	C	0.876990	-0.537502	-0.685720
C256	C	1.376990	-0.037502	-0.185720
H257	H	0.840800	-0.567614	-0.716017
H258	H	1.340800	-0.067614	-0.216017
H259	H	0.848661	-0.507278	-0.659628
H260	H	1.348661	-0.007278	-0.159628
H261	H	0.900268	-0.571958	-0.646549
H262	H	1.400268	-0.071958	-0.146549
H263	H	0.894397	-0.522996	-0.850226
H264	H	1.394397	-0.022996	-0.350226
