data_functionalizedCrystal
_audit_creation_method	'MofGen! by Chris Wilmer'
_symmetry_space_group_name_H-M	'P1'
_symmetry_Int_Tables_number	1
_symmetry_cell_setting	triclinic
loop_
_symmetry_equiv_pos_as_xyz
  x,y,z
_cell_length_a	12.594517
_cell_length_b	25.639234
_cell_length_c	12.594516
_cell_angle_alpha	90.016977
_cell_angle_beta	89.988061
_cell_angle_gamma	89.988952
loop_
_atom_site_label
_atom_site_type_symbol
_atom_site_fract_x
_atom_site_fract_y
_atom_site_fract_z
Zn1	Zn	1.627262	-0.295516	0.423924
Zn2	Zn	1.627155	-0.208092	0.601905
Zn3	Zn	1.449268	-0.208108	0.423929
Zn4	Zn	1.449248	-0.295510	0.601848
O5	O	1.538233	-0.251806	0.512901
O6	O	1.776194	-0.283915	0.447556
O7	O	1.603520	-0.134929	0.578322
O8	O	1.472932	-0.219712	0.274982
O9	O	1.776115	-0.219685	0.578318
O10	O	1.603704	-0.283930	0.274979
O11	O	1.472828	-0.134940	0.447564
O12	O	1.300319	-0.219706	0.447508
O13	O	1.472899	-0.368676	0.578220
O14	O	1.300305	-0.283920	0.578224
O15	O	1.603686	-0.368680	0.447500
O16	O	1.603502	-0.219679	0.750844
O17	O	1.472795	-0.283905	0.750801
C18	C	1.261692	-0.251814	0.512861
C19	C	1.143387	-0.251830	0.512870
C20	C	1.074157	-0.286689	0.584105
C21	C	1.003348	-0.299546	0.487064
C22	C	1.003397	-0.238961	0.609992
C23	C	1.074136	-0.264713	0.415776
C24	C	1.074191	-0.204105	0.538769
C25	C	1.003414	-0.216945	0.441661
C26	C	1.538302	-0.388179	0.512853
C27	C	1.538332	-0.446294	0.512832
C28	C	1.470310	-0.806668	0.444619
C29	C	1.470316	-0.861273	0.444600
O30	O	1.412427	-0.889519	0.386720
N31	N	1.538367	-0.888576	0.512665
C32	C	1.606410	-0.861273	0.580762
O33	O	1.664293	-0.889511	0.638656
C34	C	1.606398	-0.806669	0.580786
C35	C	1.538350	-0.779369	0.512708
C36	C	1.402266	-0.779367	0.376548
C37	C	1.402262	-0.724767	0.376566
C38	C	1.470302	-0.697467	0.444656
C39	C	1.538345	-0.724768	0.512727
C40	C	1.674434	-0.779367	0.648887
C41	C	1.674416	-0.724760	0.648905
C42	C	1.606368	-0.697459	0.580828
C43	C	1.606381	-0.642868	0.580834
N44	N	1.538329	-0.615564	0.512769
C45	C	1.470290	-0.642864	0.444679
C46	C	1.606428	-0.975943	0.580708
C47	C	1.606446	-1.030546	0.580679
C48	C	1.470351	-1.030542	0.444519
C49	C	1.470339	-0.975938	0.444543
C50	C	1.538377	-0.948640	0.512643
C51	C	1.470287	-0.528199	0.444722
C52	C	1.470292	-0.473593	0.444743
C53	C	1.606384	-0.473602	0.580907
C54	C	1.606383	-0.528203	0.580883
C55	C	1.538326	-0.555500	0.512787
O56	O	1.664237	-0.614587	0.638687
O57	O	1.412407	-0.614619	0.386805
C58	C	1.815854	-0.251799	0.512943
C59	C	1.934159	-0.251795	0.512960
C60	C	1.538163	-0.251801	0.789442
C61	C	1.538231	-0.251817	0.907748
C62	C	1.538226	-0.115964	0.512873
C63	C	1.538402	-0.057850	0.512594
C64	C	1.538332	-0.251823	0.235281
C65	C	1.538374	-0.251830	0.116975
C66	C	1.467133	-0.286724	0.977017
C67	C	1.441200	-0.239018	1.047864
C68	C	1.564261	-0.299531	1.047699
C69	C	1.512247	-0.204085	0.977037
C70	C	1.635353	-0.264631	0.976866
C71	C	1.609457	-0.216891	1.047682
H72	H	1.105080	-0.275628	0.333655
H73	H	0.972318	-0.228092	0.692088
O74	O	1.672413	-1.057122	0.646847
C75	C	1.611804	-1.088690	0.715597
H76	H	1.531154	-1.096870	0.678052
H77	H	1.655165	-1.127088	0.729851
H78	H	1.600084	-1.067641	0.794481
H79	H	1.661846	-0.953720	0.636157
H80	H	1.729829	-0.702536	0.704355
O81	O	1.343361	-0.226003	1.085127
C82	C	1.350813	-0.180227	1.146739
H83	H	1.424708	-0.157476	1.122528
H84	H	1.277357	-0.155113	1.133171
H85	H	1.356401	-0.191076	1.234337
H86	H	1.661805	-0.550432	0.636305
O87	O	1.681140	-0.181572	1.084425
C88	C	1.653393	-0.131359	1.048204
H89	H	1.565073	-0.130330	1.028522
H90	H	1.671335	-0.101481	1.112803
H91	H	1.701331	-0.121661	0.974002
H92	H	1.717402	-0.275481	0.945659
H93	H	1.729846	-0.801586	0.704324
O94	O	0.966631	-0.181818	0.369617
C95	C	1.002893	-0.195554	0.267445
H96	H	1.022643	-0.238938	0.265534
H97	H	0.938293	-0.186819	0.206602
H98	H	1.077064	-0.172015	0.247578
H99	H	1.105222	-0.316205	0.644231
O100	O	1.111300	-0.156003	0.565079
C101	C	1.073670	-0.142185	0.666710
H102	H	1.052646	-0.178999	0.712884
H103	H	1.137934	-0.119713	0.711087
H104	H	1.000004	-0.116670	0.658340
H105	H	1.414928	-0.953714	0.389107
H106	H	1.414879	-0.451367	0.389302
H107	H	0.972231	-0.339891	0.465189
H108	H	1.414870	-0.550417	0.389271
H109	H	1.346846	-0.702543	0.321135
H110	H	1.490194	-0.163727	0.946127
H111	H	1.346855	-0.801589	0.321101
H112	H	1.586219	-0.339878	1.078738
O113	O	1.395348	-0.321956	0.940119
C114	C	1.421887	-0.372095	0.977646
H115	H	1.471993	-0.368394	1.052641
H116	H	1.346154	-0.394621	0.996446
H117	H	1.468974	-0.393813	0.914199
O118	O	1.404127	-1.057087	0.378537
C119	C	1.335391	-1.088671	0.439131
H120	H	1.328799	-1.072206	0.522964
H121	H	1.253486	-1.089289	0.400637
H122	H	1.368305	-1.130056	0.442790
H123	H	1.661783	-0.451365	0.636341
