data_functionalizedCrystal
_audit_creation_method	'MofGen! by Chris Wilmer'
_symmetry_space_group_name_H-M	'P1'
_symmetry_Int_Tables_number	1
_symmetry_cell_setting	triclinic
loop_
_symmetry_equiv_pos_as_xyz
  x,y,z
_cell_length_a	13.262397
_cell_length_b	18.266242
_cell_length_c	13.339070
_cell_angle_alpha	90.000085
_cell_angle_beta	99.431569
_cell_angle_gamma	105.909198
loop_
_atom_site_label
_atom_site_type_symbol
_atom_site_fract_x
_atom_site_fract_y
_atom_site_fract_z
O1	O	-1.432355	-0.224355	-0.136459
O2	O	-1.131103	-0.164365	-0.151286
O3	O	-1.247155	-0.187473	0.003538
O4	O	-1.316303	-0.201247	-0.291282
O5	O	-1.247125	-0.309229	0.003546
O6	O	-1.131073	-0.286121	-0.151278
O7	O	-1.432326	-0.346111	-0.136451
Zn8	Zn	-1.281695	-0.335447	-0.143863
Zn9	Zn	-1.281734	-0.175029	-0.143874
O10	O	-1.316274	-0.323003	-0.291274
C11	C	-1.091744	-0.217408	-0.150450
C12	C	-0.974505	-0.194061	-0.147958
N13	N	-1.281676	-0.444931	-0.143855
C14	C	-0.919442	-0.116722	-0.146790
C15	C	-0.809292	-0.094788	-0.144459
C16	C	-0.754194	-0.150191	-0.143287
C17	C	-0.809257	-0.227532	-0.144447
C18	C	-0.919418	-0.249469	-0.146787
C19	C	-0.754171	-0.282938	-0.143284
C20	C	-0.809234	-0.360279	-0.144444
C21	C	-0.919384	-0.382212	-0.146783
C22	C	-0.974482	-0.326808	-0.147955
C23	C	-0.644009	-0.261002	-0.140944
C24	C	-0.643986	-0.393749	-0.140941
C25	C	-0.754136	-0.415683	-0.143272
C26	C	-1.333097	-0.493478	-0.075333
C27	C	-1.333102	-0.570124	-0.075328
C28	C	-1.281701	-0.598223	-0.143863
C29	C	-1.230268	-0.549663	-0.212390
C30	C	-1.230255	-0.473017	-0.212386
N31	N	-1.294425	-0.721090	-0.233430
N32	N	-1.294443	-0.793902	-0.233431
C33	C	-1.281735	-0.829152	-0.143878
N34	N	-1.269029	-0.788843	-0.054322
N35	N	-1.269017	-0.716026	-0.054322
C36	C	-1.281709	-0.681331	-0.143875
C37	C	-1.333164	-0.960808	-0.075345
C38	C	-1.333162	-1.037454	-0.075339
C39	C	-1.230336	-1.016993	-0.212410
C40	C	-1.230330	-0.940347	-0.212407
C41	C	-1.281751	-0.912260	-0.143876
C42	C	-0.471685	-0.293067	-0.137285
C43	C	-0.588922	-0.316409	-0.139773
C44	C	-1.327969	-0.264452	-0.329017
C45	C	-1.362786	-0.271387	-0.441466
N46	N	-1.281759	-0.065547	-0.143874
C47	C	-1.092069	-0.217467	-0.805113
C48	C	-1.059354	-0.210963	-0.699462
C49	C	-1.135209	-0.226068	-0.634958
C50	C	-1.243785	-0.247679	-0.676115
C51	C	-1.276504	-0.254190	-0.781777
C52	C	-1.319644	-0.262791	-0.611621
C53	C	-1.428219	-0.284402	-0.652779
C54	C	-1.460932	-0.290911	-0.758430
C55	C	-1.385077	-0.275806	-0.822934
C56	C	-1.286925	-0.256280	-0.505960
C57	C	-1.471359	-0.293002	-0.482623
C58	C	-1.504074	-0.299507	-0.588275
C59	C	-1.235460	-0.246023	0.041280
C60	C	-1.200643	-0.239083	0.153729
H61	H	-0.664505	-0.132328	-0.141389
O62	O	-1.174896	-1.047287	-0.286336
H63	H	-1.183548	-1.108741	-0.274832
O64	O	-0.978786	-0.465629	-0.148077
H65	H	-0.921972	-0.500471	-0.146873
H66	H	-0.798983	-0.478655	-0.144218
H67	H	-1.592479	-0.317097	-0.621800
H68	H	-1.374963	-0.470612	-0.019529
H69	H	-1.188415	-0.572544	-0.268191
O70	O	-1.174787	-0.420657	-0.286300
H71	H	-1.111284	-0.373110	-0.243411
H72	H	-1.064174	-0.344663	-0.149846
H73	H	-1.198522	-0.238688	-0.472460
O74	O	-1.388604	-0.930501	-0.001422
H75	H	-1.424346	-0.977137	0.046241
O76	O	-0.584622	-0.453524	-0.139972
H77	H	-0.498789	-0.425281	-0.138248
H78	H	-0.970952	-0.193364	-0.665960
O79	O	-1.388640	-1.089825	-0.001441
H80	H	-1.424404	-1.057417	0.046200
H81	H	-1.108566	-0.220769	-0.548933
O82	O	-0.749926	-0.011371	-0.143190
H83	H	-0.710472	-0.000321	-0.211078
O84	O	-1.420353	-0.282823	-0.936892
H85	H	-1.468789	-0.242835	-0.959714
O86	O	-1.174884	-0.887980	-0.286325
H87	H	-1.139150	-0.920394	-0.333989
O88	O	-1.388579	-0.622504	-0.001431
H89	H	-1.424339	-0.590098	0.046217
H90	H	-1.030320	-0.205176	-0.857641
H91	H	-1.549342	-0.308516	-0.791936
H92	H	-1.533127	-0.305303	-0.430104
O93	O	-0.584639	-0.177586	-0.139678
H94	H	-0.545185	-0.166541	-0.207567
O95	O	-0.978861	-0.056969	-0.148039
H96	H	-1.064707	-0.085218	-0.149850
