data_functionalizedCrystal
_audit_creation_method	'MofGen! by Chris Wilmer'
_symmetry_space_group_name_H-M	'P1'
_symmetry_Int_Tables_number	1
_symmetry_cell_setting	triclinic
loop_
_symmetry_equiv_pos_as_xyz
  x,y,z
_cell_length_a	27.731994
_cell_length_b	27.732048
_cell_length_c	26.809956
_cell_angle_alpha	89.988846
_cell_angle_beta	90.017800
_cell_angle_gamma	97.368405
loop_
_atom_site_label
_atom_site_type_symbol
_atom_site_fract_x
_atom_site_fract_y
_atom_site_fract_z
O1	O	0.640958	-0.057391	0.041414
O2	O	0.500161	-0.066164	0.041431
O3	O	0.574932	0.008620	0.041412
O4	O	0.566187	-0.132176	0.041432
O5	O	0.574899	0.008620	-0.041547
O6	O	0.500127	-0.066164	-0.041528
O7	O	0.640924	-0.057391	-0.041545
Zn8	Zn	0.570520	-0.061777	-0.054708
Zn9	Zn	0.570565	-0.061778	0.054594
O10	O	0.566153	-0.132175	-0.041527
C11	C	0.482137	-0.065984	-0.000046
C12	C	0.428480	-0.065442	-0.000040
C13	C	0.095743	-0.062025	-0.045281
C14	C	-0.105915	-0.059964	-0.045287
O15	O	-0.132003	-0.059676	-0.083746
N16	N	-0.131111	-0.059708	-0.000066
C17	C	-0.105890	-0.059965	0.045160
O18	O	-0.131947	-0.059695	0.083623
C19	C	0.095768	-0.062023	0.045165
C20	C	0.120961	-0.062283	-0.000059
C21	C	0.120937	-0.062285	-0.090501
C22	C	0.171348	-0.062803	-0.090499
C23	C	0.196566	-0.063061	-0.045277
C24	C	0.171372	-0.062801	-0.000057
C25	C	0.120989	-0.062276	0.090390
C26	C	0.171407	-0.062789	0.090388
C27	C	0.196600	-0.063050	0.045164
C28	C	0.247001	-0.063578	0.045167
N29	N	0.272198	-0.063833	-0.000054
C30	C	0.246980	-0.063575	-0.045276
C31	C	-0.211763	-0.058885	0.045154
C32	C	-0.262177	-0.058372	0.045152
C33	C	-0.262199	-0.058370	-0.045294
C34	C	-0.211784	-0.058887	-0.045293
C35	C	-0.186567	-0.059141	-0.000067
C36	C	0.352847	-0.064663	-0.045268
C37	C	0.403262	-0.065184	-0.045262
C38	C	0.403280	-0.065183	0.045184
C39	C	0.352869	-0.064665	0.045179
C40	C	0.327654	-0.064404	-0.000052
O41	O	0.273121	-0.063860	0.083606
O42	O	0.273048	-0.063834	-0.083733
C43	C	0.045332	-0.061507	-0.045283
C44	C	0.020139	-0.061247	-0.000063
C45	C	0.045357	-0.061505	0.045160
C46	C	-0.030275	-0.060734	-0.000064
C47	C	-0.055493	-0.060476	-0.045286
C48	C	-0.030297	-0.060731	-0.090507
C49	C	0.020114	-0.061249	-0.090505
C50	C	0.020160	-0.061250	0.090381
C51	C	-0.030251	-0.060732	0.090375
C52	C	-0.055469	-0.060474	0.045153
C53	C	0.574732	0.026627	-0.000069
C54	C	0.574179	0.080282	-0.000073
C55	C	0.658949	-0.057571	-0.000067
C56	C	0.712605	-0.058114	-0.000070
N57	N	0.570494	-0.061776	-0.129304
C58	C	0.566353	-0.150182	-0.000045
C59	C	0.566906	-0.203837	-0.000037
C60	C	0.614884	0.419105	-0.000052
C61	C	0.612833	0.620764	-0.000045
O62	O	0.650055	0.652027	-0.000028
N63	N	0.568496	0.639879	-0.000040
C64	C	0.524670	0.608576	-0.000033
O65	O	0.486912	0.629462	-0.000024
C66	C	0.526721	0.406918	-0.000037
C67	C	0.571060	0.387805	-0.000047
C68	C	0.659220	0.399992	-0.000061
C69	C	0.659732	0.349580	-0.000066
C70	C	0.615908	0.318281	-0.000061
C71	C	0.571573	0.337394	-0.000052
C72	C	0.482895	0.375615	-0.000027
C73	C	0.483412	0.325198	-0.000027
C74	C	0.527751	0.306086	-0.000037
C75	C	0.528262	0.255683	-0.000051
N76	N	0.572598	0.236567	-0.000056
C77	C	0.616421	0.267867	-0.000061
C78	C	0.523596	0.714450	-0.000032
C79	C	0.523083	0.764864	-0.000032
C80	C	0.611246	0.777049	-0.000043
C81	C	0.611759	0.726633	-0.000047
C82	C	0.567932	0.695335	-0.000037
C83	C	0.617494	0.161998	-0.000071
C84	C	0.618002	0.111581	-0.000078
C85	C	0.529839	0.099401	-0.000064
C86	C	0.529331	0.149813	-0.000060
C87	C	0.573162	0.181111	-0.000062
O88	O	0.491060	0.224391	-0.000063
O89	O	0.654174	0.246971	-0.000060
C90	C	0.614372	0.469517	-0.000047
C91	C	0.570036	0.488629	-0.000038
C92	C	0.526213	0.457330	-0.000033
C93	C	0.569523	0.539043	-0.000038
C94	C	0.613346	0.570343	-0.000043
C95	C	0.657683	0.551228	-0.000048
C96	C	0.658195	0.500816	-0.000052
C97	C	0.481876	0.476445	-0.000028
C98	C	0.481367	0.526857	-0.000024
C99	C	0.525191	0.558157	-0.000029
C100	C	0.537423	-0.094877	-0.526179
C101	C	0.537398	-0.094877	-0.317302
O102	O	0.509219	-0.123016	-0.290294
N103	N	0.570510	-0.061774	-0.291183
C104	C	0.603630	-0.028667	-0.317287
O105	O	0.631790	-0.000508	-0.290278
C106	C	0.603652	-0.028665	-0.526163
C107	C	0.570541	-0.061773	-0.552280
C108	C	0.504313	-0.127982	-0.552296
C109	C	0.504322	-0.127983	-0.604512
C110	C	0.537440	-0.094880	-0.630612
C111	C	0.570549	-0.061775	-0.604496
C112	C	0.636769	0.004444	-0.552266
C113	C	0.636771	0.004442	-0.604489
C114	C	0.603659	-0.028666	-0.630605
C115	C	0.603675	-0.028672	-0.682812
N116	N	0.570562	-0.061775	-0.708931
C117	C	0.537445	-0.094879	-0.682831
C118	C	0.603616	-0.028671	-0.207623
C119	C	0.603611	-0.028672	-0.155405
C120	C	0.537378	-0.094882	-0.155423
C121	C	0.537386	-0.094883	-0.207643
C122	C	0.570503	-0.061774	-0.233742
C123	C	0.537465	-0.094879	-0.792489
C124	C	0.537478	-0.094879	-0.844710
C125	C	0.603709	-0.028668	-0.844687
C126	C	0.603698	-0.028670	-0.792470
C127	C	0.570572	-0.061777	-0.766373
O128	O	0.631836	-0.000545	-0.709852
O129	O	0.509281	-0.123026	-0.709848
C130	C	0.537414	-0.094875	-0.473963
C131	C	0.570524	-0.061770	-0.447847
C132	C	0.603642	-0.028667	-0.473947
C133	C	0.570519	-0.061771	-0.395628
C134	C	0.537401	-0.094875	-0.369528
C135	C	0.504288	-0.127978	-0.395647
C136	C	0.504297	-0.127979	-0.447863
C137	C	0.636755	0.004436	-0.447828
C138	C	0.636744	0.004434	-0.395612
C139	C	0.603626	-0.028669	-0.369512
N140	N	0.570595	-0.061775	0.129190
H141	H	0.332322	-0.064455	-0.082099
H142	H	0.693365	0.576720	-0.000054
H143	H	0.477358	-0.154941	-0.625773
H144	H	0.654110	0.096023	-0.000087
H145	H	0.694301	0.485260	-0.000060
H146	H	-0.191235	-0.059092	0.081984
H147	H	0.630579	-0.001718	-0.134144
H148	H	0.100486	-0.062063	0.127217
H149	H	0.494160	0.073908	-0.000062
H150	H	0.446789	0.391167	-0.000016
H151	H	0.191937	-0.062997	0.127217
H152	H	0.663723	0.031394	-0.469075
H153	H	-0.050838	-0.060524	-0.127329
H154	H	0.477343	-0.154939	-0.531049
H155	H	0.630665	-0.001715	-0.771206
H156	H	0.630586	-0.001710	-0.228870
H157	H	0.663731	0.031404	-0.531010
H158	H	0.510423	-0.121842	-0.228904
H159	H	0.510413	-0.121837	-0.134164
H160	H	0.630674	-0.001717	-0.865946
H161	H	0.510490	-0.121838	-0.771246
H162	H	0.663739	0.031405	-0.625736
H163	H	0.647863	0.711076	-0.000054
H164	H	0.332354	-0.064461	0.082004
H165	H	0.040688	-0.061459	0.127207
H166	H	0.445258	0.542413	-0.000020
H167	H	0.493226	0.165375	-0.000066
H168	H	0.447722	0.299716	-0.000018
H169	H	0.446189	0.450966	-0.000023
H170	H	0.510514	-0.121841	-0.865972
H171	H	0.477334	-0.154939	-0.469123
H172	H	0.477324	-0.154934	-0.374387
H173	H	0.663712	0.031394	-0.374352
H174	H	0.423772	-0.065397	-0.082091
H175	H	0.191856	-0.063013	-0.127325
H176	H	0.646929	0.802541	-0.000047
H177	H	-0.191275	-0.059099	-0.082118
H178	H	0.100410	-0.062074	-0.127329
H179	H	-0.282740	-0.058161	-0.082116
H180	H	-0.282686	-0.058167	0.081978
H181	H	0.486977	0.780420	-0.000033
H182	H	0.423821	-0.065395	0.082003
H183	H	0.653186	0.187475	-0.000070
H184	H	0.040622	-0.061461	-0.127331
H185	H	-0.050759	-0.060524	0.127205
H186	H	0.694908	0.425472	-0.000064
H187	H	0.487905	0.688970	-0.000025
H188	H	0.695837	0.334024	-0.000072
