data_functionalizedCrystal
_audit_creation_method	'MofGen! by Chris Wilmer'
_symmetry_space_group_name_H-M	'P1'
_symmetry_Int_Tables_number	1
_symmetry_cell_setting	triclinic
loop_
_symmetry_equiv_pos_as_xyz
  x,y,z
_cell_length_a	15.944551
_cell_length_b	10.654541
_cell_length_c	9.730217
_cell_angle_alpha	89.999932
_cell_angle_beta	89.998360
_cell_angle_gamma	96.008667
loop_
_atom_site_label
_atom_site_type_symbol
_atom_site_fract_x
_atom_site_fract_y
_atom_site_fract_z
O1	O	-0.117965	1.666312	-0.114231
O2	O	-0.129208	1.300688	-0.114242
O3	O	-0.001369	1.493484	-0.114244
O4	O	-0.245804	1.473516	-0.114229
O5	O	-0.001368	1.493478	0.114336
O6	O	-0.129206	1.300682	0.114338
O7	O	-0.117964	1.666306	0.114349
Zn8	Zn	-0.123585	1.483493	0.150635
Zn9	Zn	-0.123587	1.483501	-0.150529
O10	O	-0.245802	1.473510	0.114351
C11	C	-0.128382	1.253897	0.000047
C12	C	-0.125914	1.114486	0.000042
C13	C	-0.278779	1.084537	0.000034
C14	C	-0.354048	1.004069	0.000025
C15	C	-0.351724	0.873081	0.000023
C16	C	-0.274122	0.822560	0.000036
C17	C	-0.198852	0.903028	0.000045
C18	C	-0.201185	1.034017	0.000042
C19	C	-0.045989	0.932976	0.000062
C20	C	-0.048311	1.063965	0.000054
C21	C	0.031613	0.882455	0.000074
C22	C	0.106885	0.962924	0.000074
C23	C	0.104557	1.093919	0.000074
C24	C	0.026958	1.144433	0.000063
C25	C	-0.277102	1.474342	0.000063
C26	C	-0.370362	1.476827	0.000069
C27	C	-0.585944	1.602272	0.000052
C28	C	-0.646623	1.544016	0.112753
C29	C	-0.541114	1.481323	0.000057
C30	C	-0.646610	1.543994	-0.112609
C31	C	-0.706052	1.485675	0.000039
C32	C	-0.600564	1.423034	0.112852
C33	C	-0.600545	1.423029	-0.112612
C34	C	-0.661205	1.364685	0.000117
C35	C	-0.446097	1.478819	0.000068
C36	C	-0.801067	1.488169	0.000038
C37	C	0.029930	1.492652	0.000041
C38	C	0.123190	1.490167	0.000026
C39	C	-0.118790	1.713097	0.000057
C40	C	-0.121258	1.852508	0.000053
N41	N	-0.123584	1.483497	0.356172
N42	N	-0.123582	1.483507	-0.356065
C43	C	-0.010416	1.654288	0.356160
C44	C	0.046165	1.739691	0.428095
C45	C	0.046166	1.739704	0.571974
C46	C	-0.010420	1.654302	0.643923
C47	C	-0.067001	1.568898	0.571989
C48	C	-0.066997	1.568897	0.428106
C49	C	-0.180163	1.398103	0.572001
C50	C	-0.180169	1.398094	0.428121
C51	C	-0.236748	1.312700	0.643950
C52	C	-0.293335	1.227301	0.572016
C53	C	-0.293334	1.227292	0.428127
C54	C	-0.236750	1.312691	0.356187
H55	H	0.170062	0.921778	0.000083
H56	H	0.025055	1.251088	0.000047
O57	O	-0.348208	1.144174	0.641845
C58	C	-0.333788	1.019867	0.606662
H59	H	-0.266535	1.019263	0.567092
H60	H	-0.380121	0.982972	0.523160
C61	C	-0.428895	0.935479	0.783084
C62	C	-0.346292	0.934736	0.734494
H63	H	-0.436611	0.882963	0.861933
H64	H	-0.438613	1.019226	0.806784
H65	H	-0.467497	0.904736	0.713486
H66	H	-0.307692	0.965493	0.804084
H67	H	-0.336567	0.850991	0.710807
H68	H	-0.553219	1.702666	0.000166
O69	O	-0.700108	1.244836	-0.000069
C70	C	-0.750343	1.225674	-0.118986
H71	H	-0.725714	1.295807	-0.201745
H72	H	-0.818374	1.240341	-0.093147
C73	C	-0.776841	1.004053	-0.070351
C74	C	-0.746586	1.090185	-0.172000
H75	H	-0.774528	0.920476	-0.103050
H76	H	-0.743000	1.016963	0.009769
H77	H	-0.833531	1.016291	-0.048828
H78	H	-0.689895	1.077957	-0.193509
H79	H	-0.780419	1.077270	-0.252125
H80	H	-0.580121	1.371918	-0.207900
O81	O	-0.670817	1.605213	-0.226236
C82	C	-0.632147	1.730432	-0.225780
H83	H	-0.572781	1.736449	-0.159802
H84	H	-0.677774	1.795561	-0.181788
C85	C	-0.681379	1.763715	-0.454869
C86	C	-0.608461	1.771104	-0.373843
H87	H	-0.666772	1.788808	-0.546201
H88	H	-0.707435	1.679355	-0.455176
H89	H	-0.719395	1.817990	-0.418193
H90	H	-0.570451	1.716818	-0.410510
H91	H	-0.582398	1.855457	-0.373546
O92	O	-0.429356	1.053355	-0.000044
C93	C	-0.415273	1.186222	-0.000006
H94	H	-0.349902	1.216984	-0.043278
H95	H	-0.419561	1.222681	0.109657
C96	C	-0.562694	1.202776	-0.036501
C97	C	-0.482407	1.240557	-0.089659
H98	H	-0.604107	1.236294	-0.091797
H99	H	-0.572183	1.113260	-0.036522
H100	H	-0.566255	1.233160	0.054884
H101	H	-0.478844	1.210159	-0.181034
H102	H	-0.472919	1.330069	-0.089655
H103	H	-0.010418	1.654296	0.239006
H104	H	0.092238	1.809224	0.369501
H105	H	0.092242	1.809243	0.630543
H106	H	-0.667025	1.595170	0.208037
O107	O	-0.576222	1.362131	0.226603
C108	C	-0.487916	1.360542	0.225247
H109	H	-0.458185	1.441164	0.158464
H110	H	-0.471623	1.266778	0.181663
C111	C	-0.490141	1.277540	0.454880
C112	C	-0.453625	1.376568	0.372864
H113	H	-0.468987	1.287419	0.545936
H114	H	-0.549635	1.278605	0.455792
H115	H	-0.476560	1.199413	0.418543
H116	H	-0.467214	1.454691	0.409191
H117	H	-0.394132	1.375516	0.371962
H118	H	-0.010409	1.654307	0.761078
O119	O	-0.348182	1.144206	0.358193
C120	C	-0.302713	1.066759	0.274940
H121	H	-0.236454	1.064652	0.318290
H122	H	-0.298562	1.106053	0.165892
C123	C	-0.429540	0.934511	0.219500
C124	C	-0.348161	0.931915	0.272751
H125	H	-0.457575	0.851334	0.218144
H126	H	-0.460174	0.986691	0.275585
H127	H	-0.426069	0.967262	0.128632
H128	H	-0.351633	0.899179	0.363623
H129	H	-0.317528	0.879726	0.216682
H130	H	-0.236742	1.312709	0.761104
H131	H	-0.236747	1.312696	0.239032
H132	H	-0.280679	1.191193	0.000005
H133	H	0.165851	1.159430	0.000087
H134	H	-0.413015	0.807563	0.000026
H135	H	0.033501	0.775797	0.000081
H136	H	-0.272236	0.715901	0.000051
