data_functionalizedCrystal
_audit_creation_method	'MofGen! by Chris Wilmer'
_symmetry_space_group_name_H-M	'P1'
_symmetry_Int_Tables_number	1
_symmetry_cell_setting	triclinic
loop_
_symmetry_equiv_pos_as_xyz
  x,y,z
_cell_length_a	18.050591
_cell_length_b	18.050589
_cell_length_c	18.050582
_cell_angle_alpha	89.981795
_cell_angle_beta	89.979078
_cell_angle_gamma	90.024227
loop_
_atom_site_label
_atom_site_type_symbol
_atom_site_fract_x
_atom_site_fract_y
_atom_site_fract_z
Zn1	Zn	1.135293	-0.295786	-0.420054
Zn2	Zn	1.135203	-0.419969	-0.295873
Zn3	Zn	1.011112	-0.295789	-0.295865
Zn4	Zn	1.011060	-0.419930	-0.420009
O5	O	1.073167	-0.357868	-0.357950
O6	O	1.239205	-0.312274	-0.403603
O7	O	1.118727	-0.403514	-0.191948
O8	O	1.027644	-0.191864	-0.312354
O9	O	1.239140	-0.403511	-0.312369
O10	O	1.118879	-0.191862	-0.403595
O11	O	1.027557	-0.312279	-0.191942
O12	O	0.907180	-0.312241	-0.312311
O13	O	1.027555	-0.403444	-0.523940
O14	O	0.907142	-0.403447	-0.403519
O15	O	1.118828	-0.312236	-0.523973
O16	O	1.118676	-0.523888	-0.312325
O17	O	1.027468	-0.523860	-0.403527
C18	C	0.880215	-0.357841	-0.357909
C19	C	0.797669	-0.357847	-0.357909
C20	C	0.598217	-0.308191	-0.308425
C21	C	0.548798	-0.375927	-0.290154
C22	C	0.646539	-0.357869	-0.357943
C23	C	0.548877	-0.290157	-0.376212
C24	C	0.500553	-0.357885	-0.357974
C25	C	0.598206	-0.425641	-0.339637
C26	C	0.598289	-0.339825	-0.425726
C27	C	0.548892	-0.407607	-0.407481
C28	C	0.730637	-0.357859	-0.357923
C29	C	0.416457	-0.357903	-0.357994
C30	C	1.073077	-0.550820	-0.357938
C31	C	1.073107	-0.633366	-0.357958
C32	C	1.023557	-0.832828	-0.407536
C33	C	1.005459	-0.882261	-0.339767
C34	C	1.073180	-0.784497	-0.357967
C35	C	1.091314	-0.882146	-0.425744
C36	C	1.073249	-0.930482	-0.357983
C37	C	1.055046	-0.832842	-0.290162
C38	C	1.140933	-0.832722	-0.376186
C39	C	1.122861	-0.882133	-0.308370
C40	C	1.073138	-0.700398	-0.357959
C41	C	1.073291	-1.014578	-0.357983
C42	C	1.266872	-0.357897	-0.357992
C43	C	1.349418	-0.357909	-0.358010
C44	C	1.073196	-0.357835	-0.551656
C45	C	1.073208	-0.357821	-0.634202
C46	C	1.073277	-0.164163	-0.357979
C47	C	1.073324	-0.081617	-0.357991
C48	C	1.023612	-0.407353	-0.833635
C49	C	1.091367	-0.425511	-0.883034
C50	C	1.073245	-0.357765	-0.785332
C51	C	1.005527	-0.339586	-0.883014
C52	C	1.073274	-0.357711	-0.931317
C53	C	1.141036	-0.375958	-0.833645
C54	C	1.055150	-0.290002	-0.833620
C55	C	1.122952	-0.308134	-0.882998
C56	C	1.073227	-0.357797	-0.701234
C57	C	1.073300	-0.357679	-1.015414
C58	C	1.073181	-0.357848	-0.164998
C59	C	1.073312	-0.357652	-0.082453
H60	H	0.619785	-0.482928	-0.324134
O61	O	1.173195	-0.258163	-0.908665
C62	C	1.244484	-0.277566	-0.883357
H63	H	1.245858	-0.339187	-0.869571
H64	H	1.258286	-0.244111	-0.831608
C65	C	1.300168	-0.185032	-0.961172
C66	C	1.301857	-0.260717	-0.944246
H67	H	1.335560	-0.174636	-0.998729
H68	H	1.252140	-0.171957	-0.978220
H69	H	1.311668	-0.157161	-0.918043
H70	H	1.290349	-0.288585	-0.987372
H71	H	1.349886	-0.273795	-0.927206
O72	O	0.522936	-0.221894	-0.394724
C73	C	0.480037	-0.227097	-0.459776
H74	H	0.458730	-0.286200	-0.466261
H75	H	0.515603	-0.211903	-0.509731
C76	C	0.440085	-0.100873	-0.446630
C77	C	0.413910	-0.173463	-0.454592
H78	H	0.399297	-0.067787	-0.443435
H79	H	0.468989	-0.097366	-0.402805
H80	H	0.469723	-0.088222	-0.488261
H81	H	0.384281	-0.186116	-0.412958
H82	H	0.385000	-0.176971	-0.498411
H83	H	0.620045	-0.324530	-0.483019
H84	H	0.527370	-0.449673	-0.449370
H85	H	0.981678	-0.449342	-0.811961
O86	O	0.623938	-0.258117	-0.258363
C87	C	0.563613	-0.223469	-0.222857
H88	H	0.512736	-0.260717	-0.226609
H89	H	0.551465	-0.168288	-0.251081
C90	C	0.645342	-0.164098	-0.136269
C91	C	0.582856	-0.209850	-0.140871
H92	H	0.657212	-0.155694	-0.085697
H93	H	0.685985	-0.187439	-0.160191
H94	H	0.635211	-0.118119	-0.159793
H95	H	0.592991	-0.255830	-0.117355
H96	H	0.542215	-0.186516	-0.116943
H97	H	1.039807	-0.232736	-0.811899
H98	H	0.948246	-0.324232	-0.904701
O99	O	0.973323	-0.807028	-0.457390
C100	C	0.902002	-0.832290	-0.437917
H101	H	0.900649	-0.846171	-0.376316
H102	H	0.888079	-0.883971	-0.471432
C103	C	0.846393	-0.754270	-0.530243
C104	C	0.844729	-0.771313	-0.454583
H105	H	0.811064	-0.716659	-0.540526
H106	H	0.894444	-0.737253	-0.543365
H107	H	0.834792	-0.797343	-0.558164
H108	H	0.856339	-0.728243	-0.426664
H109	H	0.796679	-0.788322	-0.441457
H110	H	0.948195	-0.904037	-0.324371
O111	O	0.522893	-0.394028	-0.221741
C112	C	0.548034	-0.341518	-0.169681
H113	H	0.561928	-0.287481	-0.199304
H114	H	0.599683	-0.363559	-0.140803
C115	C	0.469893	-0.393748	-0.075424
C116	C	0.486953	-0.327377	-0.111806
H117	H	0.432218	-0.385027	-0.039721
H118	H	0.452957	-0.429127	-0.110496
H119	H	0.512939	-0.412109	-0.051365
H120	H	0.443910	-0.309023	-0.135871
H121	H	0.503881	-0.291995	-0.076735
H122	H	1.039669	-0.811275	-0.232834
H123	H	1.198184	-0.810948	-0.391613
O124	O	1.172876	-0.907770	-0.258214
C125	C	1.153528	-0.882497	-0.186887
H126	H	1.091907	-0.868764	-0.185410
H127	H	1.186989	-0.830723	-0.173123
C128	C	1.246116	-0.960247	-0.131374
C129	C	1.170431	-0.943386	-0.129559
H130	H	1.256546	-0.997804	-0.096010
H131	H	1.259154	-0.977272	-0.179429
H132	H	1.273991	-0.917097	-0.119906
H133	H	1.142558	-0.986533	-0.141035
H134	H	1.157389	-0.926369	-0.081504
O135	O	1.109498	-0.907895	-0.494171
C136	C	1.056985	-0.882789	-0.546238
H137	H	1.028685	-0.830823	-0.524199
H138	H	1.013748	-0.927812	-0.555912
C139	C	1.131013	-0.928568	-0.646887
C140	C	1.096260	-0.864739	-0.619820
H141	H	1.155239	-0.917437	-0.692277
H142	H	1.166391	-0.945486	-0.611808
H143	H	1.094977	-0.966081	-0.654942
H144	H	1.132297	-0.827231	-0.611756
H145	H	1.060889	-0.847815	-0.654899
O146	O	1.209443	-0.394339	-0.808013
C147	C	1.257305	-0.407180	-0.868401
H148	H	1.235395	-0.377087	-0.919416
H149	H	1.260190	-0.469166	-0.880136
C150	C	1.362195	-0.415085	-0.786943
C151	C	1.335289	-0.378118	-0.849599
H152	H	1.410300	-0.397162	-0.775345
H153	H	1.329950	-0.406436	-0.746258
H154	H	1.364593	-0.466738	-0.796731
H155	H	1.332882	-0.326468	-0.839808
H156	H	1.367535	-0.386757	-0.890282
H157	H	1.106690	-0.482794	-0.904739
