data_functionalizedCrystal
_audit_creation_method	'MofGen! by Chris Wilmer'
_symmetry_space_group_name_H-M	'P1'
_symmetry_Int_Tables_number	1
_symmetry_cell_setting	triclinic
loop_
_symmetry_equiv_pos_as_xyz
  x,y,z
_cell_length_a	10.540539
_cell_length_b	12.811457
_cell_length_c	11.295501
_cell_angle_alpha	89.163056
_cell_angle_beta	94.559263
_cell_angle_gamma	84.283253
loop_
_atom_site_label
_atom_site_type_symbol
_atom_site_fract_x
_atom_site_fract_y
_atom_site_fract_z
O1	O	0.167008	1.390652	-0.051161
O2	O	0.188137	1.087316	-0.018401
O3	O	-0.007232	1.245904	-0.035530
O4	O	0.362376	1.232063	-0.034032
O5	O	-0.022452	1.233250	-0.232214
O6	O	0.172916	1.074661	-0.215085
O7	O	0.151788	1.377997	-0.247845
Cu8	Cu	0.160962	1.225174	-0.249424
Cu9	Cu	0.178962	1.240139	-0.016822
O10	O	0.347156	1.219409	-0.230717
C11	C	0.179810	1.042147	-0.112548
C12	C	0.177658	0.926410	-0.100049
C13	C	0.156996	0.695132	-0.291010
C14	C	0.154973	0.586387	-0.279271
C15	C	0.171581	0.600174	-0.064835
C16	C	0.173604	0.708919	-0.076573
C17	C	0.166312	0.756394	-0.189664
C18	C	0.168344	0.865140	-0.201402
C19	C	0.184943	0.878926	0.013034
C20	C	0.182920	0.770180	0.024772
C21	C	-0.062130	1.238539	-0.133758
C22	C	-0.203034	1.235434	-0.133416
C23	C	-0.384750	1.116467	-0.120123
C24	C	-0.238211	1.119586	-0.120906
C25	C	-0.274168	1.283959	-0.251754
C26	C	-0.420665	1.279999	-0.251421
C27	C	-0.403908	1.296746	-0.028009
C28	C	-0.256826	1.297908	-0.026639
C29	C	0.402055	1.226774	-0.132486
C30	C	0.542959	1.229880	-0.132820
C31	C	0.160115	1.423167	-0.153696
C32	C	0.162267	1.538904	-0.166187
N33	N	0.148301	1.214656	-0.413025
C34	C	0.282815	1.326371	-0.674379
C35	C	0.273237	1.318430	-0.798185
C36	C	0.119560	1.190840	-0.784446
C37	C	0.129138	1.198780	-0.660640
C38	C	0.210770	1.266547	-0.605611
C39	C	0.220355	1.274482	-0.481802
C40	C	0.066672	1.146897	-0.468065
C41	C	0.057093	1.138956	-0.591871
N42	N	0.191613	1.250666	0.146777
H43	H	-0.188759	1.080899	-0.035656
F44	F	0.349914	1.382106	-0.871370
H45	H	-0.406473	1.075886	-0.034637
H46	H	0.349295	1.381540	-0.629573
F47	F	0.149252	0.745660	-0.411368
F48	F	0.190645	0.719646	0.145125
F49	F	-0.465260	1.219080	-0.355341
F50	F	0.194877	0.944131	0.120900
F51	F	0.179242	0.549639	0.055514
H52	H	0.162415	0.903792	-0.293487
H53	H	-0.202073	1.070222	-0.196782
F54	F	0.032685	1.118726	-0.843032
H55	H	0.147393	0.536511	-0.361798
H56	H	-0.009373	1.083786	-0.636693
F57	F	-0.431899	1.050021	-0.218072
H58	H	-0.470201	1.362987	-0.265515
H59	H	0.008014	1.098179	-0.412060
F60	F	-0.246942	1.394808	-0.269226
F61	F	-0.226233	1.226311	-0.355537
H62	H	-0.428345	1.264729	0.061169
H63	H	-0.208963	1.262461	0.060855
H64	H	-0.233269	1.382806	-0.028979
F65	F	-0.467100	1.406179	-0.038831
F66	F	0.307233	1.346604	-0.423238
