data_functionalizedCrystal
_audit_creation_method	'MofGen! by Chris Wilmer'
_symmetry_space_group_name_H-M	'P1'
_symmetry_Int_Tables_number	1
_symmetry_cell_setting	triclinic
loop_
_symmetry_equiv_pos_as_xyz
  x,y,z
_cell_length_a	17.038272
_cell_length_b	10.489741
_cell_length_c	9.565339
_cell_angle_alpha	89.999484
_cell_angle_beta	89.998186
_cell_angle_gamma	87.825365
loop_
_atom_site_label
_atom_site_type_symbol
_atom_site_fract_x
_atom_site_fract_y
_atom_site_fract_z
O1	O	-1.038971	-0.277138	-0.116084
O2	O	-0.811315	-0.272737	-0.116125
O3	O	-0.930323	-0.089824	-0.116095
O4	O	-0.919963	-0.460051	-0.116114
O5	O	-0.930314	-0.089835	0.116425
O6	O	-0.811306	-0.272748	0.116395
O7	O	-1.038962	-0.277149	0.116436
Zn8	Zn	-0.925132	-0.274950	0.153333
Zn9	Zn	-0.925145	-0.274936	-0.153022
O10	O	-0.919954	-0.460062	0.116406
C11	C	-0.782159	-0.268740	0.000130
C12	C	-0.695297	-0.256798	0.000114
C13	C	-1.068118	-0.281146	0.000178
C14	C	-1.154980	-0.293088	0.000185
C15	C	-0.929536	-0.042225	0.000164
C16	C	-0.927195	0.099624	0.000161
C17	C	-0.645818	-0.366437	0.000110
C18	C	-0.564202	-0.355208	0.000130
C19	C	-0.532067	-0.234341	0.000144
C20	C	-0.581553	-0.124695	0.000153
C21	C	-0.663167	-0.135924	0.000143
C22	C	-0.286080	-0.194670	0.000183
C23	C	-0.204459	-0.183449	0.000189
C24	C	-0.187114	-0.413964	0.000169
C25	C	-0.268730	-0.425183	0.000150
C26	C	-0.318209	-0.315536	0.000166
C27	C	-0.448643	-0.222861	0.000160
C28	C	-0.401631	-0.327017	0.000161
C29	C	-0.920741	-0.507661	0.000144
C30	C	-0.923082	-0.649510	0.000138
N31	N	-0.925129	-0.274960	0.362413
C32	C	-0.851474	0.174846	0.000137
C33	C	-0.887239	0.263618	0.114788
C34	C	-0.887266	0.263602	-0.114459
C35	C	-0.962992	0.186527	0.114906
C36	C	-0.963008	0.186502	-0.114443
C37	C	-0.998829	0.275241	0.000236
N38	N	-0.925154	-0.274916	-0.362101
C39	C	-0.870075	-0.359520	0.453602
C40	C	-0.940910	-0.391955	0.546792
C41	C	-0.854325	-0.242537	0.546777
C42	C	-0.996000	-0.307457	0.453551
C43	C	-0.909369	-0.157984	0.453528
C44	C	-0.980254	-0.190377	0.546677
H45	H	-0.671975	-0.464860	0.000097
H46	H	-0.855196	0.297621	0.211706
C47	C	-0.807241	-0.456225	0.398375
N48	N	-0.759919	-0.529066	0.356774
C49	C	-0.304072	-0.558146	0.000157
N50	N	-0.330691	-0.658296	0.000165
C51	C	-0.169114	-0.050480	0.000203
N52	N	-0.142491	0.049667	0.000211
H53	H	-1.055902	-0.334979	0.412773
C54	C	-0.958937	-0.525569	0.602151
N55	N	-0.972508	-0.626208	0.643846
C56	C	-0.843971	0.309507	-0.245405
N57	N	-0.811357	0.344077	-0.344029
C58	C	-1.006230	0.140827	0.246004
N59	N	-1.038793	0.106402	0.344749
H60	H	-0.789216	0.131018	0.000241
C61	C	-0.413287	-0.089910	0.000166
N62	N	-0.386653	0.010229	0.000171
C63	C	-0.436982	-0.459968	0.000145
N64	N	-0.463616	-0.560107	0.000126
C65	C	-1.043235	-0.093758	0.601564
N66	N	-1.090674	-0.020995	0.642914
H67	H	-1.061143	0.318836	0.000311
H68	H	-0.896000	-0.059107	0.412530
H69	H	-0.523919	-0.444488	0.000125
C70	C	-1.006260	0.140518	-0.245383
N71	N	-1.038832	0.105879	-0.344019
H72	H	-0.794437	-0.215134	0.587732
H73	H	-0.146820	-0.503232	0.000159
H74	H	-0.326356	-0.105388	0.000197
H75	H	-0.555383	-0.026282	0.000184
H76	H	-0.703453	-0.046645	0.000145
