data_functionalizedCrystal
_audit_creation_method	'MofGen! by Chris Wilmer'
_symmetry_space_group_name_H-M	'P1'
_symmetry_Int_Tables_number	1
_symmetry_cell_setting	triclinic
loop_
_symmetry_equiv_pos_as_xyz
  x,y,z
_cell_length_a	15.944493
_cell_length_b	15.944551
_cell_length_c	9.730223
_cell_angle_alpha	89.997716
_cell_angle_beta	90.000362
_cell_angle_gamma	83.486891
loop_
_atom_site_label
_atom_site_type_symbol
_atom_site_fract_x
_atom_site_fract_y
_atom_site_fract_z
O1	O	1.114550	0.108096	-0.114275
O2	O	0.869993	0.121504	-0.114282
O3	O	0.998950	-0.007476	-0.114266
O4	O	0.985593	0.237076	-0.114291
O5	O	0.998948	-0.007473	0.114314
O6	O	0.869992	0.121507	0.114298
O7	O	1.114548	0.108100	0.114305
Zn8	Zn	0.992270	0.114804	0.150594
Zn9	Zn	0.992272	0.114800	-0.150570
O10	O	0.985592	0.237080	0.114289
C11	C	0.838698	0.120957	0.000007
C12	C	0.745449	0.119314	0.000005
C13	C	0.509689	0.195235	-0.000004
C14	C	0.459130	0.154296	0.112708
C15	C	0.574728	0.116270	0.000008
C16	C	0.459136	0.154274	-0.112654
C17	C	0.409819	0.113336	0.000005
C18	C	0.525397	0.075352	0.112813
C19	C	0.525407	0.075342	-0.112650
C20	C	0.474880	0.034345	0.000089
C21	C	0.669728	0.117963	0.000011
C22	C	0.314821	0.111637	0.000012
C23	C	0.998395	-0.038768	0.000025
C24	C	0.996732	-0.132014	0.000025
C25	C	0.912826	-0.346853	0.000004
C26	C	0.951788	-0.407877	0.112709
C27	C	0.993725	-0.302739	0.000015
C28	C	0.951809	-0.407864	-0.112653
C29	C	0.990814	-0.467651	-0.000002
C30	C	1.032710	-0.362535	0.112813
C31	C	1.032719	-0.362515	-0.112651
C32	C	1.071741	-0.423521	0.000082
C33	C	0.995399	-0.207737	0.000025
C34	C	0.989146	-0.562652	-0.000002
C35	C	1.145844	0.108646	0.000013
C36	C	1.239092	0.110289	0.000006
C37	C	0.986147	0.268372	-0.000004
C38	C	0.987809	0.361617	-0.000014
N39	N	0.992275	0.114806	0.356130
N40	N	0.992274	0.114790	-0.356107
C41	C	1.049391	0.057713	0.428063
C42	C	1.049389	0.057703	0.571946
C43	C	0.935151	0.171886	0.571950
C44	C	0.935150	0.171892	0.428070
C45	C	1.115348	-0.008207	0.428062
C46	C	1.115346	-0.008218	0.571945
H47	H	0.430198	0.187636	-0.207929
H48	H	1.176161	0.011711	0.383435
O49	O	0.528302	0.276389	0.000356
C50	C	0.494367	0.317729	0.119392
H51	H	0.485067	0.268956	0.202039
H52	H	0.430979	0.354916	0.093679
C53	C	0.566913	0.438443	0.071005
C54	C	0.555497	0.378539	0.172517
H55	H	0.604617	0.475956	0.103772
H56	H	0.589773	0.410593	-0.009195
H57	H	0.514085	0.469423	0.049586
H58	H	0.608322	0.347553	0.193921
H59	H	0.532647	0.406385	0.252722
O60	O	0.424489	0.194157	0.226228
C61	C	0.365683	0.262439	0.185758
H62	H	0.342663	0.251002	0.077169
H63	H	0.397079	0.323202	0.187905
C64	C	0.318405	0.284443	0.418709
C65	C	0.290126	0.270392	0.285342
H66	H	0.271799	0.289352	0.480139
H67	H	0.358026	0.238442	0.445976
H68	H	0.344568	0.335078	0.420478
H69	H	0.263973	0.219753	0.283570
H70	H	0.250499	0.316385	0.258077
O71	O	1.073629	-0.338477	-0.226177
C72	C	1.144540	-0.299108	-0.185777
H73	H	1.164639	-0.320854	-0.077896
H74	H	1.127665	-0.227688	-0.186185
C75	C	1.192958	-0.296498	-0.419326
C76	C	1.217648	-0.323212	-0.286828
H77	H	1.238053	-0.311362	-0.481661
H78	H	1.145182	-0.323018	-0.446546
H79	H	1.178895	-0.236982	-0.419646
H80	H	1.231700	-0.382728	-0.286506
H81	H	1.265428	-0.296702	-0.259610
H82	H	0.917582	-0.427935	-0.207943
H83	H	1.179775	0.005603	0.610996
H84	H	0.845675	-0.313532	0.000114
O85	O	0.879699	0.227271	0.357980
C86	C	0.891960	0.215053	0.215561
H87	H	0.923355	0.148287	0.195903
H88	H	0.934087	0.262620	0.174739
C89	C	0.767479	0.309647	0.165831
C90	C	0.806032	0.227641	0.141686
H91	H	0.714476	0.317416	0.120259
H92	H	0.759220	0.317881	0.261781
H93	H	0.802594	0.349277	0.131812
H94	H	0.770923	0.188014	0.175720
H95	H	0.814284	0.219401	0.045740
H96	H	1.101564	-0.072647	0.389014
O97	O	0.559913	0.035660	0.226571
C98	C	0.648078	0.037726	0.225209
H99	H	0.664059	0.092466	0.158411
H100	H	0.680123	-0.024146	0.181639
C101	C	0.659884	-0.017614	0.454855
C102	C	0.679511	0.049623	0.372821
H103	H	0.679275	-0.010279	0.545908
H104	H	0.600486	-0.019009	0.455771
H105	H	0.686589	-0.069167	0.418530
H106	H	0.652797	0.101174	0.409136
H107	H	0.738906	0.051028	0.371914
H108	H	0.459415	-0.033726	0.000161
O109	O	0.879549	0.227254	0.641776
C110	C	0.796405	0.213573	0.606584
H111	H	0.795999	0.146324	0.567021
H112	H	0.771732	0.260126	0.523073
C113	C	0.739956	0.309184	0.782986
C114	C	0.739457	0.226585	0.734406
H115	H	0.704826	0.317213	0.861830
H116	H	0.795972	0.318403	0.806693
H117	H	0.719397	0.347968	0.713381
H118	H	0.760025	0.187803	0.804004
H119	H	0.683443	0.217359	0.710714
H120	H	0.554353	0.042018	-0.207936
H121	H	0.917570	-0.427977	0.207990
H122	H	1.066898	-0.342550	0.208200
O123	O	1.151975	-0.462959	0.000228
C124	C	1.209547	-0.402057	0.001380
H125	H	1.177365	-0.340316	0.045190
H126	H	1.231550	-0.391135	-0.107986
C127	C	1.325711	-0.509519	0.037388
C128	C	1.286187	-0.433690	0.091207
H129	H	1.372988	-0.529032	0.092791
H130	H	1.286925	-0.550551	0.036606
H131	H	1.344040	-0.500407	-0.053750
H132	H	1.267850	-0.442805	0.182335
H133	H	1.324972	-0.392660	0.092005
O134	O	1.091530	-0.080794	0.625011
C135	C	1.009199	-0.090928	0.580160
H136	H	0.995030	-0.053609	0.481316
H137	H	0.961782	-0.066734	0.662724
C138	C	1.019864	-0.230927	0.674558
C139	C	1.002463	-0.185097	0.553150
H140	H	1.015707	-0.289015	0.657903
H141	H	1.075331	-0.224099	0.704780
H142	H	0.980347	-0.210756	0.743350
H143	H	1.041987	-0.205261	0.484367
H144	H	0.947003	-0.191931	0.522915
