data_functionalizedCrystal
_audit_creation_method	'MofGen! by Chris Wilmer'
_symmetry_space_group_name_H-M	'P1'
_symmetry_Int_Tables_number	1
_symmetry_cell_setting	triclinic
loop_
_symmetry_equiv_pos_as_xyz
  x,y,z
_cell_length_a	19.077105
_cell_length_b	10.686285
_cell_length_c	19.076919
_cell_angle_alpha	88.081200
_cell_angle_beta	90.076224
_cell_angle_gamma	83.162422
loop_
_atom_site_label
_atom_site_type_symbol
_atom_site_fract_x
_atom_site_fract_y
_atom_site_fract_z
Zn1	Zn	1.085506	-0.610610	-0.415453
Zn2	Zn	1.585506	-0.110610	0.084547
Zn3	Zn	1.099198	-0.813548	-0.289649
Zn4	Zn	1.599198	-0.313548	0.210351
Zn5	Zn	0.971970	-0.593702	-0.293938
Zn6	Zn	1.471970	-0.093702	0.206062
Zn7	Zn	0.976985	-0.812786	-0.402433
Zn8	Zn	1.476985	-0.312786	0.097567
O9	O	1.033415	-0.707661	-0.350368
O10	O	1.533415	-0.207661	0.149632
O11	O	1.185984	-0.644924	-0.402419
O12	O	1.685984	-0.144924	0.097581
O13	O	1.085952	-0.777627	-0.192163
O14	O	1.585952	-0.277627	0.307837
O15	O	0.979201	-0.419327	-0.317301
O16	O	1.479201	0.080673	0.182699
O17	O	1.196043	-0.794022	-0.309992
O18	O	1.696043	-0.294022	0.190008
O19	O	1.062616	-0.431749	-0.406578
O20	O	1.562616	0.068251	0.093422
O21	O	0.992478	-0.616107	-0.195314
O22	O	1.492478	-0.116107	0.304686
O23	O	0.873973	-0.615369	-0.304676
O24	O	1.373973	-0.115369	0.195324
O25	O	0.987750	-0.792725	-0.502215
O26	O	1.487750	-0.292725	-0.002215
O27	O	0.877659	-0.776330	-0.384387
O28	O	1.377659	-0.276330	0.115613
O29	O	1.067480	-0.644186	-0.511781
O30	O	1.567480	-0.144186	-0.011781
O31	O	1.090815	-0.990065	-0.297367
O32	O	1.590815	-0.490065	0.202633
O33	O	1.001026	-0.989505	-0.380228
O34	O	1.501026	-0.489505	0.119772
C35	C	0.850234	-0.693933	-0.343584
C36	C	1.350234	-0.193933	0.156416
C37	C	0.771869	-0.688092	-0.340697
C38	C	1.271869	-0.188092	0.159303
C39	C	0.736999	-0.769268	-0.380767
C40	C	1.236999	-0.269268	0.119233
C41	C	0.663366	-0.763763	-0.378058
C42	C	1.163366	-0.263763	0.121942
C43	C	0.624605	-0.677087	-0.335276
C44	C	1.124605	-0.177087	0.164724
C45	C	0.659481	-0.595902	-0.295205
C46	C	1.159481	-0.095902	0.204795
C47	C	0.733112	-0.601402	-0.297918
C48	C	1.233112	-0.101402	0.202082
C49	C	0.404183	-0.651633	-0.322724
C50	C	0.904183	-0.151633	0.177276
C51	C	0.330547	-0.646142	-0.320013
C52	C	0.830547	-0.146142	0.179987
C53	C	0.334437	-0.814001	-0.402867
C54	C	0.834437	-0.314001	0.097133
C55	C	0.408069	-0.819499	-0.405573
C56	C	0.908069	-0.319499	0.094427
C57	C	0.442938	-0.738310	-0.365505
C58	C	0.942938	-0.238310	0.134495
N59	N	0.549341	-0.671460	-0.332505
N60	N	1.049341	-0.171460	0.167495
N61	N	0.518201	-0.743931	-0.368280
N62	N	1.018201	-0.243931	0.131720
C63	C	1.047969	-1.035583	-0.336935
C64	C	1.547969	-0.535583	0.163065
C65	C	1.054260	-1.175875	-0.331214
C66	C	1.554260	-0.675875	0.168786
C67	C	1.217311	-0.721444	-0.357180
C68	C	1.717311	-0.221444	0.142820
C69	C	1.295676	-0.727318	-0.360082
C70	C	1.795676	-0.227318	0.139918
C71	C	1.026647	-0.720257	-0.533134
C72	C	1.526647	-0.220257	-0.033134
C73	C	1.023763	-0.725624	-0.611017
C74	C	1.523763	-0.225624	-0.111017
C75	C	1.018822	-0.378462	-0.363870
C76	C	1.518822	0.121538	0.136130
C77	C	1.012603	-0.238177	-0.369624
C78	C	1.512603	0.261823	0.130376
C79	C	1.063917	-0.650813	-0.652589
C80	C	1.563917	-0.150813	-0.152589
C81	C	1.061198	-0.655851	-0.725768
C82	C	1.561198	-0.155851	-0.225768
C83	C	1.018329	-0.735707	-0.757375
C84	C	1.518329	-0.235707	-0.257375
C85	C	0.978171	-0.810521	-0.715799
C86	C	1.478171	-0.310521	-0.215799
C87	C	0.980886	-0.805476	-0.642621
C88	C	1.480886	-0.305476	-0.142621
C89	C	1.005754	-0.759083	-0.975701
C90	C	1.505754	-0.259083	-0.475701
C91	C	1.003043	-0.764125	-1.048885
C92	C	1.503043	-0.264125	-0.548885
C93	C	1.086070	-0.609453	-1.058849
C94	C	1.586070	-0.109453	-0.558849
C95	C	1.088785	-0.604420	-0.985669
C96	C	1.588785	-0.104420	-0.485669
C97	C	1.048624	-0.679229	-0.944099
C98	C	1.548624	-0.179229	-0.444099
N99	N	1.015551	-0.740861	-0.832177
N100	N	1.515551	-0.240861	-0.332177
N101	N	1.051398	-0.674067	-0.869299
N102	N	1.551398	-0.174067	-0.369299
C103	C	1.040193	-0.695027	-0.168319
C104	C	1.540193	-0.195027	0.331681
C105	C	1.043197	-0.689314	-0.090456
C106	C	1.543197	-0.189314	0.409544
H107	H	0.634977	-0.829866	-0.410686
H108	H	1.134977	-0.329866	0.089314
O109	O	0.962441	-0.839775	-0.930874
O110	O	1.462441	-0.339775	-0.430874
H111	H	0.971520	-0.822847	-0.874677
H112	H	1.471520	-0.322847	-0.374677
O113	O	0.931927	-0.896647	-0.749884
O114	O	1.431927	-0.396647	-0.249884
H115	H	0.936788	-0.887596	-0.807754
H116	H	1.436788	-0.387596	-0.307754
H117	H	0.761502	-0.535293	-0.265293
H118	H	1.261502	-0.035293	0.234707
H119	H	1.094733	-1.229869	-0.293946
H120	H	1.594733	-0.729869	0.206054
H121	H	0.627916	-0.525323	-0.260374
H122	H	1.127916	-0.025323	0.239626
O123	O	0.958985	-1.166685	-0.418986
O124	O	1.458985	-0.666685	0.081014
H125	H	0.986524	-1.111380	-0.458260
H126	H	1.486524	-0.611380	0.041740
O127	O	1.110155	-0.564682	-0.618499
O128	O	1.610155	-0.064682	-0.118499
H129	H	1.137614	-0.513500	-0.659703
H130	H	1.637614	-0.013500	-0.159703
H131	H	1.123696	-0.539397	-0.959940
H132	H	1.623696	-0.039397	-0.459940
O133	O	1.104511	-0.575171	-0.770609
O134	O	1.604511	-0.075171	-0.270609
H135	H	1.134785	-0.518809	-0.736336
H136	H	1.634785	-0.018809	-0.236336
H137	H	1.118766	-0.548546	-1.092703
H138	H	1.618766	-0.048546	-0.592703
H139	H	0.306038	-0.880099	-0.435489
H140	H	0.806038	-0.380099	0.064511
O141	O	0.956799	-0.850250	-1.082980
O142	O	1.456799	-0.350250	-0.582980
H143	H	0.929322	-0.901413	-1.041780
H144	H	1.429322	-0.401413	-0.541780
H145	H	0.432565	-0.585532	-0.290092
H146	H	0.932565	-0.085532	0.209908
H147	H	0.768552	-0.839853	-0.415602
H148	H	1.268552	-0.339853	0.084398
O149	O	0.449875	-0.912973	-0.451723
O150	O	0.949875	-0.412973	0.048277
H151	H	0.413255	-0.968488	-0.479138
H152	H	0.913255	-0.468488	0.020862
O153	O	0.937568	-0.886145	-0.597778
O154	O	1.437568	-0.386145	-0.097778
H155	H	0.907302	-0.942524	-0.632049
H156	H	1.407302	-0.442524	-0.132049
H157	H	0.298989	-0.575545	-0.285179
H158	H	0.798989	-0.075545	0.214821
