data_functionalizedCrystal
_audit_creation_method	'MofGen! by Chris Wilmer'
_symmetry_space_group_name_H-M	'P1'
_symmetry_Int_Tables_number	1
_symmetry_cell_setting	triclinic
loop_
_symmetry_equiv_pos_as_xyz
  x,y,z
_cell_length_a	14.044220
_cell_length_b	10.723024
_cell_length_c	9.198806
_cell_angle_alpha	90.001685
_cell_angle_beta	90.000267
_cell_angle_gamma	91.171626
loop_
_atom_site_label
_atom_site_type_symbol
_atom_site_fract_x
_atom_site_fract_y
_atom_site_fract_z
O1	O	1.259665	-0.301049	-0.120731
O2	O	0.983625	-0.290185	-0.120768
O3	O	1.128012	-0.114678	-0.120743
O4	O	1.115277	-0.476556	-0.120756
O5	O	1.127999	-0.114678	0.121042
O6	O	0.983611	-0.290185	0.121017
O7	O	1.259651	-0.301049	0.121054
Cu8	Cu	1.121630	-0.295617	0.143112
Cu9	Cu	1.121646	-0.295617	-0.142826
O10	O	1.115264	-0.476556	0.121029
C11	C	0.948273	-0.285430	0.000120
C12	C	0.842955	-0.271245	0.000106
C13	C	1.127079	-0.068086	0.000147
C14	C	1.124306	0.070746	0.000142
N15	N	1.121626	-0.295616	0.344226
C16	C	0.650125	-0.245313	0.000135
C17	C	0.593146	-0.345915	0.000138
C18	C	0.485848	-0.331486	0.000155
C19	C	0.757432	-0.259740	0.000119
C20	C	1.295003	-0.305804	0.000163
C21	C	1.400321	-0.319989	0.000168
C22	C	1.116197	-0.523149	0.000135
C23	C	1.118970	-0.661980	0.000131
C24	C	1.205097	0.137646	0.000151
C25	C	1.202234	0.281136	0.000145
C26	C	1.176936	-0.373512	0.416429
C27	C	1.176949	-0.373513	0.583842
N28	N	1.121650	-0.295618	0.656060
H29	H	0.624947	-0.442880	0.000128
O30	O	1.284814	0.349604	-0.000041
C31	C	1.431504	0.398809	-0.125334
C32	C	1.338025	0.321170	-0.125286
H33	H	1.474542	0.375868	-0.226598
H34	H	1.474668	0.375814	-0.024211
H35	H	1.414470	0.502302	-0.125268
H36	H	1.354973	0.217656	-0.125402
H37	H	1.294888	0.344271	-0.226400
H38	H	1.049803	0.280515	0.000134
H39	H	0.618325	-0.148357	0.000147
H40	H	1.276386	0.088691	0.000169
H41	H	1.053017	0.119700	0.000123
H42	H	1.074286	-0.228925	0.406351
H43	H	1.224296	-0.440209	0.645935
O44	O	1.233364	-0.453247	0.342488
C45	C	1.272151	-0.667378	0.295541
C46	C	1.208195	-0.577214	0.379391
H47	H	1.251811	-0.767625	0.325322
H48	H	1.349852	-0.648114	0.325397
H49	H	1.262095	-0.653135	0.173733
H50	H	1.218168	-0.591406	0.501217
H51	H	1.130518	-0.596501	0.349414
H52	H	1.074291	-0.228931	0.593976
