data_functionalizedCrystal
_audit_creation_method	'MofGen! by Chris Wilmer'
_symmetry_space_group_name_H-M	'P1'
_symmetry_Int_Tables_number	1
_symmetry_cell_setting	triclinic
loop_
_symmetry_equiv_pos_as_xyz
  x,y,z
_cell_length_a	6.817900
_cell_length_b	14.858572
_cell_length_c	11.168129
_cell_angle_alpha	93.498200
_cell_angle_beta	108.508637
_cell_angle_gamma	104.524003
loop_
_atom_site_label
_atom_site_type_symbol
_atom_site_fract_x
_atom_site_fract_y
_atom_site_fract_z
V1	V	-4.064039	-0.289968	-0.175499
O2	O	-4.024496	-0.284440	0.007616
O3	O	-4.040640	-0.287993	-0.347199
O4	O	-4.020336	-0.416430	-0.173159
O5	O	-4.044941	-0.155114	-0.167630
V6	V	-4.543819	-0.273838	-0.153554
O7	O	-4.333508	-0.325352	-0.223638
O8	O	-4.724546	-0.238454	-0.105416
O9	O	-4.344011	-0.275813	0.018146
O10	O	-4.700758	-0.279366	-0.336669
O11	O	-4.680314	-0.408692	-0.161424
O12	O	-4.364315	-0.147376	-0.155895
C13	C	-3.891571	-0.283421	-0.389045
C14	C	-3.953757	-0.282649	-0.529414
C15	C	-3.937465	-0.201368	-0.574637
C16	C	-4.001737	-0.200568	-0.719716
C17	C	-3.865670	-0.447253	-0.167037
C18	C	-3.911387	-0.550636	-0.166259
C19	C	-4.078712	-0.929204	-0.163417
C20	C	-4.032149	-0.823875	-0.164208
C21	C	-3.995051	-0.739924	-0.164839
C22	C	-3.948484	-0.634588	-0.165628
C23	C	-4.156423	-0.280383	0.059985
C24	C	-4.073475	-0.281161	0.200353
C25	C	-4.182324	-0.116548	-0.162021
C26	C	-4.115845	-0.013164	-0.162792
H27	H	-3.875945	-0.132373	-0.505949
H28	H	-4.015295	-0.351644	-0.598103
H29	H	-4.087313	-0.350753	-0.760699
H30	H	-3.987881	-0.130979	-0.758673
