data_functionalizedCrystal
_audit_creation_method	'MofGen! by Chris Wilmer'
_symmetry_space_group_name_H-M	'P1'
_symmetry_Int_Tables_number	1
_symmetry_cell_setting	triclinic
loop_
_symmetry_equiv_pos_as_xyz
  x,y,z
_cell_length_a	16.109295
_cell_length_b	10.065875
_cell_length_c	16.109301
_cell_angle_alpha	81.214708
_cell_angle_beta	96.539666
_cell_angle_gamma	81.258551
loop_
_atom_site_label
_atom_site_type_symbol
_atom_site_fract_x
_atom_site_fract_y
_atom_site_fract_z
O1	O	-1.115293	0.113403	0.094630
O2	O	-0.865293	0.363403	0.344630
O3	O	-0.615293	0.613403	0.594630
O4	O	-0.365293	0.863403	0.844630
O5	O	-0.873233	0.113427	0.107932
O6	O	-0.623233	0.363427	0.357932
O7	O	-0.373233	0.613427	0.607932
O8	O	-0.123233	0.863427	0.857932
O9	O	-1.000911	0.113400	-0.019749
O10	O	-0.750911	0.363400	0.230251
O11	O	-0.500911	0.613400	0.480251
O12	O	-0.250911	0.863400	0.730251
O13	O	-0.987615	0.113430	0.222311
O14	O	-0.737615	0.363430	0.472311
O15	O	-0.487615	0.613430	0.722311
O16	O	-0.237615	0.863430	0.972311
O17	O	-0.976565	-0.113583	0.004696
O18	O	-0.726565	0.136417	0.254696
O19	O	-0.476565	0.386417	0.504696
O20	O	-0.226565	0.636417	0.754696
O21	O	-0.848886	-0.113557	0.132376
O22	O	-0.598886	0.136443	0.382376
O23	O	-0.348886	0.386443	0.632376
O24	O	-0.098886	0.636443	0.882376
O25	O	-1.090947	-0.113581	0.119075
O26	O	-0.840947	0.136419	0.369075
O27	O	-0.590947	0.386419	0.619075
O28	O	-0.340947	0.636419	0.869075
Zn29	Zn	-0.966051	-0.149607	0.129607
Zn30	Zn	-0.716051	0.100393	0.379607
Zn31	Zn	-0.466051	0.350393	0.629607
Zn32	Zn	-0.216051	0.600393	0.879607
Zn33	Zn	-0.998129	0.149454	0.097400
Zn34	Zn	-0.748129	0.399454	0.347400
Zn35	Zn	-0.498129	0.649454	0.597400
Zn36	Zn	-0.248129	0.899454	0.847400
O37	O	-0.963268	-0.113554	0.246755
O38	O	-0.713268	0.136446	0.496755
O39	O	-0.463268	0.386446	0.746755
O40	O	-0.213268	0.636446	0.996755
C41	C	-0.830085	-0.000062	0.119616
C42	C	-0.580085	0.249938	0.369616
C43	C	-0.330085	0.499938	0.619616
C44	C	-0.080085	0.749938	0.869616
C45	C	-0.737790	-0.000054	0.118002
C46	C	-0.487790	0.249946	0.368002
C47	C	-0.237790	0.499946	0.618002
C48	C	0.012210	0.749946	0.868002
N49	N	-0.944165	-0.353708	0.151586
N50	N	-0.694165	-0.103708	0.401586
N51	N	-0.444165	0.146292	0.651586
N52	N	-0.194165	0.396292	0.901586
C53	C	-0.515517	-0.000059	0.190014
C54	C	-0.265517	0.249941	0.440014
C55	C	-0.015517	0.499941	0.690014
C56	C	0.234483	0.749941	0.940014
C57	C	-0.428795	-0.000068	0.188493
C58	C	-0.178795	0.249932	0.438493
C59	C	0.071205	0.499932	0.688493
C60	C	0.321205	0.749932	0.938493
C61	C	-0.448668	-0.000080	0.037005
C62	C	-0.198668	0.249920	0.287005
C63	C	0.051332	0.499920	0.537005
C64	C	0.301332	0.749920	0.787005
C65	C	-0.535387	-0.000082	0.038528
C66	C	-0.285387	0.249918	0.288528
C67	C	-0.035387	0.499918	0.538528
C68	C	0.214613	0.749918	0.788528
C69	C	-0.568810	-0.000064	0.115035
C70	C	-0.318810	0.249936	0.365035
C71	C	-0.068810	0.499936	0.615035
C72	C	0.181190	0.749936	0.865035
C73	C	-0.395369	-0.000071	0.111990
C74	C	-0.145369	0.249929	0.361990
C75	C	0.104631	0.499929	0.611990
C76	C	0.354631	0.749929	0.861990
C77	C	-0.301342	-0.000080	0.110340
C78	C	-0.051342	0.249920	0.360340
C79	C	0.198658	0.499920	0.610340
C80	C	0.448658	0.749920	0.860340
C81	C	-0.662842	-0.000058	0.116686
C82	C	-0.412842	0.249942	0.366686
C83	C	-0.162842	0.499942	0.616686
C84	C	0.087158	0.749942	0.866686
C85	C	-0.990508	-0.421497	0.105042
C86	C	-0.740508	-0.171497	0.355042
C87	C	-0.490508	0.078503	0.605042
C88	C	-0.240508	0.328503	0.855042
C89	C	-0.973671	-0.578660	0.121965
C90	C	-0.723671	-0.328660	0.371965
C91	C	-0.473671	-0.078660	0.621965
C92	C	-0.223671	0.171340	0.871965
C93	C	-0.134094	-0.000087	0.107395
C94	C	0.115906	0.249913	0.357395
C95	C	0.365906	0.499913	0.607395
C96	C	0.615906	0.749913	0.857395
C97	C	-0.226388	-0.000082	0.109023
C98	C	0.023612	0.249918	0.359023
C99	C	0.273612	0.499918	0.609023
C100	C	0.523612	0.749918	0.859023
C101	C	-0.988199	-0.000092	-0.038501
C102	C	-0.738199	0.249908	0.211499
C103	C	-0.488199	0.499908	0.461499
C104	C	-0.238199	0.749908	0.711499
C105	C	-0.986584	-0.000094	-0.130796
C106	C	-0.736584	0.249906	0.119204
C107	C	-0.486584	0.499906	0.369204
C108	C	-0.236584	0.749906	0.619204
N109	N	-1.020021	0.353555	0.075414
N110	N	-0.770021	0.603555	0.325414
N111	N	-0.520021	0.853555	0.575414
N112	N	-0.270021	1.103555	0.825414
C113	C	-1.058593	-0.000079	-0.353072
C114	C	-0.808593	0.249921	-0.103072
C115	C	-0.558593	0.499921	0.146928
C116	C	-0.308593	0.749921	0.396928
C117	C	-1.057070	-0.000068	-0.439793
C118	C	-0.807070	0.249932	-0.189793
C119	C	-0.557070	0.499932	0.060207
C120	C	-0.307070	0.749932	0.310207
C121	C	-0.905582	-0.000058	-0.419917
C122	C	-0.655582	0.249942	-0.169917
C123	C	-0.405582	0.499942	0.080083
C124	C	-0.155582	0.749942	0.330083
C125	C	-0.907107	-0.000060	-0.333198
C126	C	-0.657107	0.249940	-0.083198
C127	C	-0.407107	0.499940	0.166802
C128	C	-0.157107	0.749940	0.416802
C129	C	-0.983614	-0.000077	-0.299777
C130	C	-0.733614	0.249923	-0.049777
C131	C	-0.483614	0.499923	0.200223
C132	C	-0.233614	0.749923	0.450223
C133	C	-0.980567	-0.000064	-0.473218
C134	C	-0.730567	0.249936	-0.223218
C135	C	-0.480567	0.499936	0.026782
C136	C	-0.230567	0.749936	0.276782
C137	C	-0.978915	-0.000052	-0.567245
C138	C	-0.728915	0.249948	-0.317245
C139	C	-0.478915	0.499948	-0.067245
C140	C	-0.228915	0.749948	0.182755
C141	C	-0.985267	-0.000087	-0.205744
C142	C	-0.735267	0.249913	0.044256
C143	C	-0.485267	0.499913	0.294256
C144	C	-0.235267	0.749913	0.544256
C145	C	-0.975981	-0.000059	0.265507
C146	C	-0.725981	0.249941	0.515507
C147	C	-0.475981	0.499941	0.765507
C148	C	-0.225981	0.749941	1.015507
C149	C	-0.977597	-0.000048	0.357801
C150	C	-0.727597	0.249952	0.607801
C151	C	-0.477597	0.499952	0.857801
C152	C	-0.227597	0.749952	1.107801
H153	H	-0.385407	-0.000067	0.249549
H154	H	-0.135407	0.249933	0.499549
H155	H	0.114593	0.499933	0.749549
H156	H	0.364593	0.749933	0.999549
H157	H	-0.542725	-0.000055	0.252312
H158	H	-0.292725	0.249945	0.502312
H159	H	-0.042725	0.499945	0.752312
H160	H	0.207275	0.749945	1.002312
H161	H	-0.421444	-0.000103	-0.025283
H162	H	-0.171444	0.249897	0.224717
H163	H	0.078556	0.499897	0.474717
H164	H	0.328556	0.749897	0.724717
H165	H	-1.118126	-0.000066	-0.483183
H166	H	-0.868126	0.249934	-0.233183
H167	H	-0.618126	0.499934	0.016817
H168	H	-0.368126	0.749934	0.266817
H169	H	-1.120891	-0.000090	-0.325864
H170	H	-0.870891	0.249910	-0.075864
H171	H	-0.620891	0.499910	0.174136
H172	H	-0.370891	0.749910	0.424136
H173	H	-0.846047	-0.000054	-0.289803
H174	H	-0.596047	0.249946	-0.039803
H175	H	-0.346047	0.499946	0.210197
H176	H	-0.096047	0.749946	0.460197
N177	N	-0.592874	-0.000103	-0.042344
N178	N	-0.342874	0.249897	0.207656
N179	N	-0.092874	0.499897	0.457656
N180	N	0.157126	0.749897	0.707656
H181	H	-0.558544	-0.000106	-0.091043
H182	H	-0.308544	0.249894	0.158957
H183	H	-0.058544	0.499894	0.408957
H184	H	0.191456	0.749894	0.658957
H185	H	-0.638313	0.084038	-0.054074
H186	H	-0.388313	0.334038	0.195926
H187	H	-0.138313	0.584038	0.445926
H188	H	0.111687	0.834038	0.695926
N189	N	-1.059558	-0.344268	0.035640
N190	N	-0.809558	-0.094268	0.285640
N191	N	-0.559558	0.155732	0.535640
N192	N	-0.309558	0.405732	0.785640
H193	H	-1.061790	-0.242942	0.033380
H194	H	-0.811790	0.007058	0.283380
H195	H	-0.561790	0.257058	0.533380
H196	H	-0.311790	0.507058	0.783380
H197	H	-1.115935	-0.369138	0.047739
H198	H	-0.865935	-0.119138	0.297739
H199	H	-0.615935	0.130862	0.547739
H200	H	-0.365935	0.380862	0.797739
H201	H	-0.843292	-0.000047	-0.447139
H202	H	-0.593292	0.249953	-0.197139
H203	H	-0.343292	0.499953	0.052861
H204	H	-0.093292	0.749953	0.302861
H205	H	-0.921522	-0.636971	0.174342
H206	H	-0.671522	-0.386971	0.424342
H207	H	-0.421522	-0.136971	0.674342
H208	H	-0.171522	0.113029	0.924342
H209	H	-1.072164	-0.588135	0.023030
H210	H	-0.822164	-0.338135	0.273030
H211	H	-0.572164	-0.088135	0.523030
H212	H	-0.322164	0.161865	0.773030
H213	H	-0.892020	-0.412024	0.203960
H214	H	-0.642020	-0.162024	0.453960
H215	H	-0.392020	0.087976	0.703960
H216	H	-0.142020	0.337976	0.953960
