data_functionalizedCrystal
_audit_creation_method	'MofGen! by Chris Wilmer'
_symmetry_space_group_name_H-M	'P1'
_symmetry_Int_Tables_number	1
_symmetry_cell_setting	triclinic
loop_
_symmetry_equiv_pos_as_xyz
  x,y,z
_cell_length_a	42.784840
_cell_length_b	42.784980
_cell_length_c	42.779869
_cell_angle_alpha	90.003328
_cell_angle_beta	120.004969
_cell_angle_gamma	119.999999
loop_
_atom_site_label
_atom_site_type_symbol
_atom_site_fract_x
_atom_site_fract_y
_atom_site_fract_z
O1	O	0.275782	0.266484	0.490206
O2	O	0.211760	0.221014	0.380730
O3	O	0.275771	0.221024	0.444743
O4	O	0.211770	0.266475	0.426192
O5	O	0.223787	0.169040	0.444743
O6	O	0.159775	0.169031	0.380730
O7	O	0.223797	0.214501	0.490206
Zn8	Zn	0.183532	0.183512	0.435468
Zn9	Zn	0.252024	0.252003	0.435468
O10	O	0.159785	0.214491	0.426192
C11	C	0.051259	0.079383	0.130421
C12	C	0.069885	0.098272	0.111431
C13	C	-0.005352	0.022770	0.073815
C14	C	0.013360	0.041746	0.054911
C15	C	0.051243	0.079365	0.073808
C16	C	0.013375	0.041764	0.111438
C17	C	0.096103	0.113985	0.266938
C18	C	0.116824	0.131810	0.305598
C19	C	0.155557	0.169089	0.324988
C20	C	0.178031	0.188416	0.366907
C21	C	0.173565	0.188542	0.305715
C22	C	0.152840	0.170718	0.267057
C23	C	0.114107	0.133438	0.247669
C24	C	0.153153	0.171025	0.039226
C25	C	0.173984	0.188958	0.021405
C26	C	0.156093	0.169610	-0.015875
C27	C	0.178679	0.189048	-0.035199
C28	C	0.117364	0.132326	-0.035336
C29	C	0.096529	0.114396	-0.017518
C30	C	0.114430	0.133750	0.019767
C31	C	-0.131594	-0.113719	0.039262
C32	C	-0.167348	-0.152375	0.021450
C33	C	-0.185293	-0.171775	-0.015833
C34	C	-0.224058	-0.213690	-0.035147
C35	C	-0.167480	-0.152519	-0.035299
C36	C	-0.131726	-0.113864	-0.017485
C37	C	-0.113788	-0.094466	0.019796
C38	C	0.091640	0.114112	0.205751
C39	C	0.073729	0.098708	0.172338
C40	C	-0.044118	-0.019143	0.054502
C41	C	-0.075019	-0.052551	0.039107
C42	C	0.073832	0.098806	0.054487
C43	C	0.091838	0.114304	0.039086
C44	C	0.384472	0.022867	0.463624
C45	C	0.422352	0.041850	0.463889
C46	C	0.384472	0.079466	0.463624
C47	C	0.422352	0.098363	0.463889
C48	C	0.441071	0.079465	0.463624
C49	C	0.365840	0.041850	0.463889
C50	C	0.282544	-0.113621	0.453375
C51	C	0.261706	-0.152273	0.450478
C52	C	0.279591	-0.171663	0.449023
C53	C	0.256994	-0.213574	0.445874
C54	C	0.318318	-0.152397	0.450469
C55	C	0.339156	-0.113747	0.453372
C56	C	0.321267	-0.094358	0.454825
C57	C	0.567309	0.114025	0.453376
C58	C	0.603063	0.131838	0.450478
C59	C	0.620998	0.169111	0.449021
C60	C	0.659760	0.188428	0.445874
C61	C	0.603179	0.188572	0.450468
C62	C	0.567431	0.170762	0.453372
C63	C	0.549496	0.133484	0.454824
C64	C	0.282545	0.114026	0.453375
C65	C	0.261704	0.131838	0.450473
C66	C	0.279590	0.169113	0.449018
C67	C	0.256993	0.188428	0.445869
C68	C	0.318313	0.188572	0.450463
C69	C	0.339150	0.170758	0.453364
C70	C	0.321265	0.133485	0.454824
C71	C	0.343864	-0.052449	0.457969
C72	C	0.361876	-0.019042	0.460477
C73	C	0.361876	0.098779	0.460477
C74	C	0.343865	0.114173	0.457969
C75	C	0.479833	0.098778	0.460477
C76	C	0.510731	0.114173	0.457969
C77	C	-0.005272	0.356292	0.407311
C78	C	0.013447	0.393907	0.407047
C79	C	0.051327	0.356292	0.407311
C80	C	0.069959	0.393907	0.407047
C81	C	0.051327	0.412890	0.407311
C82	C	0.013447	0.337395	0.407047
C83	C	-0.131510	0.264614	0.417560
C84	C	-0.167264	0.246675	0.420458
C85	C	-0.185199	0.266015	0.421913
C86	C	-0.223960	0.246568	0.425062
C87	C	-0.167380	0.303294	0.420466
C88	C	-0.131632	0.321229	0.417563
C89	C	-0.113697	0.301887	0.416110
C90	C	0.096136	0.549378	0.417560
C91	C	0.116848	0.588030	0.420458
C92	C	0.155578	0.607422	0.421914
C93	C	0.178042	0.649331	0.425062
C94	C	0.173592	0.588156	0.420468
C95	C	0.152877	0.549504	0.417563
C96	C	0.114147	0.530117	0.416112
C97	C	0.096138	0.264616	0.417560
C98	C	0.116853	0.246678	0.420463
C99	C	0.155583	0.266018	0.421918
C100	C	0.178048	0.246571	0.425067
C101	C	0.173597	0.303296	0.420473
C102	C	0.152881	0.321232	0.417572
C103	C	0.114148	0.301887	0.416112
C104	C	-0.074932	0.321339	0.412966
C105	C	-0.044034	0.336843	0.410459
C106	C	0.073788	0.336844	0.410459
C107	C	0.091691	0.321340	0.412966
C108	C	0.073787	0.454800	0.410458
C109	C	0.091690	0.488206	0.412966
O110	O	0.763350	0.266473	0.426193
O111	O	0.672448	0.221022	0.444743
O112	O	0.672435	0.221012	0.380730
O113	O	0.763363	0.266482	0.490206
O114	O	0.672436	0.169028	0.380730
O115	O	0.672449	0.169038	0.444743
O116	O	0.763351	0.214489	0.426192
Zn117	Zn	0.717900	0.183510	0.435468
Zn118	Zn	0.717899	0.252001	0.435468
O119	O	0.763364	0.214499	0.490206
O120	O	-0.327657	-0.336960	-0.061202
O121	O	-0.236745	-0.227501	-0.015753
O122	O	-0.236742	-0.291498	-0.015743
O123	O	-0.327660	-0.272963	-0.061212
O124	O	-0.236757	-0.291515	-0.067741
O125	O	-0.236760	-0.227518	-0.067750
O126	O	-0.327671	-0.336977	-0.113200
Zn127	Zn	-0.282218	-0.282250	-0.098731
Zn128	Zn	-0.282198	-0.282228	-0.030222
O129	O	-0.327674	-0.272980	-0.113210
O130	O	0.275769	0.772607	0.444743
O131	O	0.211768	0.663152	0.426192
O132	O	0.275780	0.727161	0.490206
O133	O	0.211757	0.708597	0.380730
O134	O	0.223795	0.727160	0.490206
O135	O	0.159783	0.663151	0.426192
O136	O	0.223784	0.772605	0.444743
Zn137	Zn	0.183530	0.717878	0.435468
Zn138	Zn	0.252022	0.717879	0.435468
O139	O	0.159773	0.708596	0.380730
O140	O	0.275890	0.221127	-0.015809
O141	O	0.211877	0.266567	-0.061281
O142	O	0.275875	0.266564	-0.061280
O143	O	0.211892	0.221131	-0.015809
O144	O	0.223878	0.214566	-0.113271
O145	O	0.159881	0.214570	-0.113271
O146	O	0.223894	0.169130	-0.067799
Zn147	Zn	0.183632	0.183594	-0.098790
Zn148	Zn	0.252139	0.252103	-0.030290
O149	O	0.159896	0.169133	-0.067800
C150	C	0.384533	0.356347	0.740520
C151	C	0.422417	0.393965	0.759507
C152	C	0.384544	0.356356	0.797131
C153	C	0.422429	0.393975	0.816032
C154	C	0.441143	0.412954	0.797131
C155	C	0.365904	0.337453	0.759507
C156	C	0.282578	0.264646	0.604003
C157	C	0.261732	0.246700	0.565343
C158	C	0.279614	0.266036	0.545949
C159	C	0.257010	0.246582	0.504029
C160	C	0.318345	0.303319	0.565219
C161	C	0.339190	0.321260	0.603877
C162	C	0.321305	0.301922	0.623270
C163	C	0.567392	0.549445	0.831700
C164	C	0.603151	0.588100	0.849519
C165	C	0.621094	0.607497	0.886800
C166	C	0.659861	0.649409	0.906122
C167	C	0.603279	0.588235	0.906265
C168	C	0.567526	0.549581	0.888450
C169	C	0.549583	0.530188	0.851163
C170	C	0.282625	0.264685	0.831700
C171	C	0.261788	0.246750	0.849516
C172	C	0.279681	0.266096	0.886800
C173	C	0.257089	0.246652	0.906119
C174	C	0.318409	0.303377	0.906263
C175	C	0.339242	0.321311	0.888445
C176	C	0.321349	0.301960	0.851163
C177	C	0.343910	0.321381	0.665188
C178	C	0.361928	0.336891	0.698602
C179	C	0.361952	0.336911	0.816449
C180	C	0.343944	0.321410	0.831847
C181	C	0.479910	0.454866	0.816449
C182	C	0.510813	0.488275	0.831847
C183	C	0.384391	0.022807	0.073804
C184	C	0.365755	0.041787	0.054903
C185	C	0.441002	0.079414	0.130416
C186	C	0.422279	0.098308	0.111429
C187	C	0.384391	0.079405	0.073805
C188	C	0.422279	0.041795	0.111428
C189	C	0.339577	-0.113685	0.039233
C190	C	0.318861	-0.152339	0.021414
C191	C	0.280124	-0.171734	-0.015869
C192	C	0.257657	-0.213648	-0.035189
C193	C	0.262105	-0.152472	-0.035334
C194	C	0.282824	-0.113819	-0.017516
C195	C	0.321561	-0.094426	0.019769
C196	C	0.282446	0.113952	-0.017892
C197	C	0.261605	0.131763	-0.035836
C198	C	0.279491	0.169040	-0.016493
C199	C	0.256895	0.188353	-0.035942
C200	C	0.318225	0.188506	0.020796
C201	C	0.339070	0.170698	0.038736
C202	C	0.321173	0.133416	0.019388
C203	C	0.567270	0.113996	0.266932
C204	C	0.603030	0.131815	0.305594
C205	C	0.620969	0.169092	0.324988
C206	C	0.659740	0.188414	0.366909
C207	C	0.603145	0.188548	0.305721
C208	C	0.567386	0.170728	0.267060
C209	C	0.549453	0.133452	0.247668
C210	C	0.344022	-0.052514	0.039087
C211	C	0.361927	-0.019105	0.054486
C212	C	0.479773	0.098734	0.172334
C213	C	0.510679	0.114134	0.205748
C214	C	0.361791	0.098715	0.054352
C215	C	0.343777	0.114108	0.038845
C216	C	1.051409	0.356360	0.797132
C217	C	1.070044	0.393979	0.816032
C218	C	0.994798	0.356349	0.740520
C219	C	1.013519	0.393968	0.759507
C220	C	1.051407	0.412957	0.797130
C221	C	1.013521	0.337456	0.759508
C222	C	1.096229	0.264691	0.831704
C223	C	1.116946	0.246755	0.849523
C224	C	1.155683	0.266102	0.886806
C225	C	1.178152	0.246659	0.906126
C226	C	1.173700	0.303384	0.906270
C227	C	1.152980	0.321316	0.888453
C228	C	1.114243	0.301967	0.851168
C229	C	1.153348	0.549459	0.888827
C230	C	1.174187	0.588114	0.906771
C231	C	1.156300	0.607501	0.887428
C232	C	1.178895	0.649413	0.906877
C233	C	1.117566	0.588228	0.850139
C234	C	1.096723	0.549574	0.832199
C235	C	1.114620	0.530192	0.851547
C236	C	0.868530	0.264646	0.604004
C237	C	0.832771	0.246701	0.565342
C238	C	0.814831	0.266037	0.545947
C239	C	0.776059	0.246582	0.504027
C240	C	0.832653	0.303318	0.565215
C241	C	0.868412	0.321262	0.603875
C242	C	0.886346	0.301921	0.623268
C243	C	1.091781	0.321415	0.831849
C244	C	1.073875	0.336916	0.816450
C245	C	0.956026	0.336893	0.698602
C246	C	0.925120	0.321383	0.665188
C247	C	1.074005	0.454870	0.816583
C248	C	1.092018	0.488278	0.832090
C249	C	0.051260	-0.310359	0.074105
C250	C	0.069904	-0.310612	0.111731
C251	C	-0.005337	-0.310357	0.074105
C252	C	0.013392	-0.310610	0.111731
C253	C	0.051277	-0.310341	0.130719
C254	C	0.013375	-0.310628	0.055203
C255	C	0.096039	-0.300144	-0.017599
C256	C	0.116745	-0.297254	-0.035545
C257	C	0.155479	-0.295795	-0.016200
C258	C	0.177937	-0.292654	-0.035653
C259	C	0.173505	-0.297230	0.021091
C260	C	0.152796	-0.300125	0.039031
C261	C	0.114061	-0.301583	0.019684
C262	C	0.153241	-0.300055	0.267241
C263	C	0.174089	-0.297146	0.305902
C264	C	0.156213	-0.295683	0.325298
C265	C	0.178817	-0.292524	0.367218
C266	C	0.117482	-0.297134	0.306028
C267	C	0.096630	-0.300049	0.267366
C268	C	0.114516	-0.301507	0.247975
C269	C	-0.131602	-0.300134	-0.017600
C270	C	-0.167358	-0.297236	-0.035543
C271	C	-0.185287	-0.295775	-0.016199
C272	C	-0.224055	-0.292631	-0.035652
C273	C	-0.167457	-0.297208	0.021090
C274	C	-0.131701	-0.300104	0.039032
C275	C	-0.113779	-0.301570	0.019682
C276	C	0.091611	-0.304719	0.039142
C277	C	0.073714	-0.307220	0.054651
C278	C	-0.044105	-0.307214	0.054650
C279	C	-0.075008	-0.304711	0.039142
C280	C	0.073885	-0.307182	0.172639
C281	C	0.091905	-0.304665	0.206053
O282	O	0.159909	-0.336934	-0.113250
O283	O	0.223925	-0.227473	-0.067791
O284	O	0.159926	-0.291468	-0.067787
O285	O	0.223908	-0.272939	-0.113255
O286	O	0.211921	-0.291460	-0.015792
O287	O	0.275920	-0.227465	-0.015796
O288	O	0.211905	-0.336926	-0.061255
Zn289	Zn	0.252168	-0.282194	-0.030270
Zn290	Zn	0.183662	-0.282205	-0.098776
O291	O	0.275904	-0.272931	-0.061260
C292	C	-0.615694	-0.254137	-0.259425
C293	C	-0.634320	-0.253865	-0.240436
C294	C	-0.559079	-0.254121	-0.202811
C295	C	-0.577791	-0.253850	-0.183909
C296	C	-0.615676	-0.254118	-0.202811
C297	C	-0.577809	-0.253868	-0.240437
C298	C	-0.660542	-0.264425	-0.395947
C299	C	-0.681265	-0.267334	-0.434608
C300	C	-0.719999	-0.268793	-0.454003
C301	C	-0.742475	-0.271953	-0.495924
C302	C	-0.738007	-0.267340	-0.434732
C303	C	-0.717281	-0.264426	-0.396072
C304	C	-0.678547	-0.262969	-0.376679
C305	C	-0.717588	-0.264349	-0.168238
C306	C	-0.738419	-0.267240	-0.150418
C307	C	-0.720526	-0.268684	-0.113135
C308	C	-0.743111	-0.271824	-0.093812
C309	C	-0.681795	-0.267234	-0.093669
C310	C	-0.660960	-0.264337	-0.111486
C311	C	-0.678863	-0.262897	-0.148774
C312	C	-0.432831	-0.264362	-0.168240
C313	C	-0.397075	-0.267260	-0.150422
C314	C	-0.379129	-0.268703	-0.113137
C315	C	-0.340362	-0.271847	-0.093817
C316	C	-0.396942	-0.267252	-0.093673
C317	C	-0.432698	-0.264355	-0.111493
C318	C	-0.450638	-0.262907	-0.148776
C319	C	-0.656078	-0.259813	-0.334759
C320	C	-0.638166	-0.257296	-0.301345
C321	C	-0.520312	-0.257263	-0.183492
C322	C	-0.489409	-0.259767	-0.168093
C323	C	-0.638265	-0.257258	-0.183492
C324	C	-0.656271	-0.259759	-0.168092
H325	H	0.102160	0.115969	0.321287
O326	O	0.550164	0.189712	0.454756
C327	C	0.554066	0.247871	0.454463
C328	C	0.573659	0.226451	0.452885
H329	H	0.573059	0.277582	0.452959
H330	H	0.517797	0.231201	0.429232
H331	H	0.556856	0.250696	0.482395
H332	H	0.570900	0.223621	0.424969
H333	H	0.609919	0.243130	0.478135
O334	O	0.224214	0.210510	0.830621
C335	C	0.190259	0.144539	0.799656
C336	C	0.232842	0.185562	0.821057
H337	H	0.197217	0.124358	0.791910
H338	H	0.178439	0.135017	0.818789
H339	H	0.163585	0.143878	0.772401
H340	H	0.259545	0.186254	0.848312
H341	H	0.244625	0.195067	0.801897
O342	O	-0.775588	-0.268688	-0.453537
C343	C	-0.809629	-0.236698	-0.456751
C344	C	-0.767033	-0.235116	-0.435424
H345	H	-0.802729	-0.209563	-0.442110
H346	H	-0.821354	-0.239006	-0.487691
H347	H	-0.836349	-0.262715	-0.456226
H348	H	-0.740284	-0.209101	-0.435919
H349	H	-0.755345	-0.232829	-0.404494
H350	H	-0.562115	-0.253415	-0.152994
O351	O	1.100245	0.607090	0.831336
C352	C	1.111729	0.659522	0.806646
C353	C	1.131392	0.638190	0.827939
H354	H	1.136905	0.684676	0.803900
H355	H	1.080480	0.639130	0.776902
H356	H	1.103251	0.670565	0.823397
H357	H	1.139897	0.627145	0.811220
H358	H	1.162624	0.658596	0.857685
H359	H	0.100441	0.409147	0.406622
H360	H	-0.447199	-0.263173	-0.095641
H361	H	-0.002226	0.409143	0.406614
O362	O	0.620387	0.606811	0.830570
C363	C	0.607018	0.627218	0.775415
C364	C	0.587447	0.606025	0.796841
H365	H	0.580393	0.626582	0.748138
H366	H	0.635640	0.658187	0.794528
H367	H	0.619506	0.612549	0.767706
H368	H	0.574934	0.620661	0.804553
H369	H	0.558844	0.575055	0.777716
O370	O	1.059115	0.530916	0.795973
C371	C	1.005138	0.535101	0.741703
C372	C	1.047736	0.556278	0.782725
H373	H	0.995921	0.555594	0.730982
H374	H	1.010763	0.524059	0.722101
H375	H	0.977176	0.509958	0.741666
H376	H	1.075719	0.581436	0.782798
H377	H	1.042075	0.567292	0.802309
H378	H	0.882915	0.351614	0.619562
H379	H	-0.382328	-0.268427	-0.063313
H380	H	0.332977	0.319130	0.936621
O381	O	0.440959	0.135196	0.129555
C382	C	0.474819	0.200255	0.129680
C383	C	0.453669	0.158496	0.109111
H384	H	0.485108	0.219105	0.113164
H385	H	0.449883	0.202025	0.131227
H386	H	0.505152	0.210552	0.159896
H387	H	0.423339	0.148172	0.078886
H388	H	0.478633	0.156750	0.107595
H389	H	0.102923	-0.295948	0.321820
H390	H	0.267976	-0.097838	0.454560
O391	O	0.620742	0.607039	0.942507
C392	C	0.655953	0.610253	1.008549
C393	C	0.636200	0.588927	0.967526
H394	H	0.668447	0.595614	1.028788
H395	H	0.684589	0.641187	1.017971
H396	H	0.629413	0.609732	1.009253
H397	H	0.662708	0.589419	0.966791
H398	H	0.607554	0.558004	0.958122
O399	O	0.550014	0.189591	0.248347
C400	C	0.485529	0.190307	0.213470
C401	C	0.505146	0.168907	0.234658
H402	H	0.449247	0.173589	0.202389
H403	H	0.504463	0.220006	0.233963
H404	H	0.488350	0.193156	0.188346
H405	H	0.502328	0.166029	0.259781
H406	H	0.486208	0.139221	0.214139
O407	O	0.265158	0.245799	0.622787
C408	C	0.206796	0.187756	0.618826
C409	C	0.226481	0.209051	0.597508
H410	H	0.175517	0.158045	0.598395
H411	H	0.231927	0.184948	0.643962
H412	H	0.198357	0.204527	0.629897
H413	H	0.234919	0.192298	0.586412
H414	H	0.201339	0.211864	0.572390
O415	O	0.550256	0.530837	0.907365
C416	C	0.534118	0.478544	0.932251
C417	C	0.553700	0.499740	0.910834
H418	H	0.536887	0.453394	0.935055
H419	H	0.553085	0.499022	0.961972
H420	H	0.497852	0.467510	0.915557
H421	H	0.589964	0.510776	0.927496
H422	H	0.534700	0.479248	0.881111
O423	O	0.058420	-0.301552	-0.036334
C424	C	0.001347	-0.306044	-0.033801
C425	C	0.043953	-0.304446	-0.012540
H426	H	-0.010367	-0.308393	-0.014576
H427	H	0.008216	-0.278902	-0.041517
H428	H	-0.025368	-0.332052	-0.061066
H429	H	0.070688	-0.278456	0.014737
H430	H	0.037049	-0.331606	-0.004853
O431	O	-0.184725	0.322137	0.421927
C432	C	-0.171580	0.377126	0.455740
C433	C	-0.151879	0.355827	0.454126
H434	H	-0.145035	0.404364	0.481775
H435	H	-0.184100	0.384871	0.428609
H436	H	-0.200203	0.357891	0.458045
H437	H	-0.123241	0.375041	0.451835
H438	H	-0.139389	0.348076	0.481258
O439	O	-0.379732	-0.268691	-0.169281
C440	C	-0.324688	-0.273130	-0.166970
C441	C	-0.344294	-0.271525	-0.145572
H442	H	-0.296027	-0.275414	-0.147808
H443	H	-0.351264	-0.299146	-0.194227
H444	H	-0.312239	-0.245990	-0.174709
H445	H	-0.356741	-0.298647	-0.137807
H446	H	-0.317704	-0.245492	-0.118331
O447	O	0.170658	-0.301489	0.248456
C448	C	0.229017	-0.301174	0.252417
C449	C	0.209336	-0.299556	0.273735
H450	H	0.260297	-0.299604	0.272848
H451	H	0.203886	-0.329119	0.227283
H452	H	0.237455	-0.275969	0.241341
H453	H	0.200900	-0.324742	0.284836
H454	H	0.234479	-0.271596	0.298850
O455	O	-0.114283	0.357432	0.416138
C456	C	-0.059239	0.410164	0.411700
C457	C	-0.078851	0.369160	0.413300
H458	H	-0.030582	0.419662	0.409413
H459	H	-0.085814	0.410842	0.385683
H460	H	-0.046782	0.430356	0.438849
H461	H	-0.091305	0.348944	0.386170
H462	H	-0.052262	0.368512	0.439334
H463	H	1.205724	0.603802	0.937130
O464	O	0.329349	0.023622	0.018041
C465	C	0.253223	0.001092	-0.025842
C466	C	0.294421	0.021676	0.015916
H467	H	0.224971	-0.000495	-0.027573
H468	H	0.261114	0.017609	-0.044719
H469	H	0.243078	-0.029105	-0.036145
H470	H	0.304588	0.051873	0.026254
H471	H	0.286508	0.005130	0.034767
O472	O	0.170381	0.530817	0.416109
C473	C	0.191695	0.510350	0.382307
C474	C	0.171875	0.531532	0.383914
H475	H	0.192901	0.510915	0.356276
H476	H	0.226587	0.525026	0.409442
H477	H	0.170240	0.479402	0.380003
H478	H	0.193296	0.562482	0.386205
H479	H	0.136978	0.516826	0.356779
O480	O	0.058868	0.078207	-0.036430
C481	C	-0.018314	0.037178	-0.061313
C482	C	0.024302	0.078182	-0.039900
H483	H	-0.046269	0.037143	-0.064118
H484	H	-0.027562	0.026416	-0.091033
H485	H	-0.012648	0.017613	-0.044614
H486	H	0.018669	0.097777	-0.056566
H487	H	0.033538	0.088913	-0.010178
H488	H	0.437947	0.026556	0.126670
H489	H	-0.182059	-0.296021	0.036840
O490	O	0.549881	0.077810	0.248060
C491	C	0.533595	0.036851	0.195607
C492	C	0.553315	0.077850	0.216951
H493	H	0.536356	0.036868	0.170446
H494	H	0.552474	0.025992	0.215994
H495	H	0.497323	0.017333	0.184564
H496	H	0.589584	0.097397	0.227995
H497	H	0.534402	0.088677	0.196548
O498	O	0.377200	-0.094794	0.075452
C499	C	0.434289	-0.035178	0.128041
C500	C	0.391678	-0.056530	0.087027
H501	H	0.446012	-0.004236	0.137408
H502	H	0.427424	-0.049756	0.148321
H503	H	0.460997	-0.035730	0.128747
H504	H	0.364950	-0.055985	0.086283
H505	H	0.398579	-0.041945	0.066765
O506	O	-0.114127	-0.094814	0.075469
C507	C	-0.058973	-0.035205	0.128068
C508	C	-0.078721	-0.056568	0.087061
H509	H	-0.030338	-0.004282	0.137456
H510	H	-0.085488	-0.035705	0.128802
H511	H	-0.046455	-0.049826	0.148318
H512	H	-0.091237	-0.041963	0.066788
H513	H	-0.052192	-0.056072	0.086358
H514	H	0.818042	0.319061	0.549422
H515	H	-0.117186	-0.301271	0.069393
H516	H	0.230170	0.115989	0.449289
H517	H	1.100531	0.409223	0.846946
O518	O	0.376770	0.189719	0.454776
C519	C	0.430695	0.247857	0.454423
C520	C	0.388099	0.226432	0.452835
H521	H	0.439863	0.277540	0.452846
H522	H	0.458704	0.250737	0.482364
H523	H	0.425036	0.231139	0.429204
H524	H	0.393715	0.243131	0.478035
H525	H	0.360105	0.223548	0.424878
O526	O	0.335644	0.322052	0.546319
C527	C	0.328634	0.319494	0.486712
C528	C	0.308987	0.298235	0.508067
H529	H	0.307096	0.300244	0.455783
H530	H	0.329868	0.346742	0.487212
H531	H	0.363506	0.327226	0.501344
H532	H	0.274107	0.290476	0.493451
H533	H	0.307787	0.271003	0.507570
H534	H	0.883132	0.248897	0.619791
H535	H	0.267875	0.083598	-0.033649
O536	O	-0.734834	-0.263085	-0.377390
C537	C	-0.797808	-0.295091	-0.374397
C538	C	-0.777977	-0.296661	-0.395583
H539	H	-0.832696	-0.322231	-0.389103
H540	H	-0.776375	-0.292785	-0.343436
H541	H	-0.799043	-0.269078	-0.374982
H542	H	-0.776741	-0.322673	-0.395028
H543	H	-0.799418	-0.298947	-0.426534
O544	O	0.620635	0.224766	0.324611
C545	C	0.675759	0.277357	0.384228
C546	C	0.656002	0.236345	0.362881
H547	H	0.704351	0.286728	0.415175
H548	H	0.688319	0.297625	0.369641
H549	H	0.649208	0.278067	0.383676
H550	H	0.682529	0.235597	0.363426
H551	H	0.643431	0.216094	0.377475
H552	H	-0.117227	-0.098187	-0.033338
H553	H	0.205625	-0.295962	0.321590
O554	O	0.335614	0.224755	0.448979
C555	C	0.324129	0.265665	0.412745
C556	C	0.304481	0.224678	0.414391
H557	H	0.298971	0.265615	0.384779
H558	H	0.332593	0.285227	0.437939
H559	H	0.355388	0.276495	0.414288
H560	H	0.273211	0.213814	0.412836
H561	H	0.296049	0.205142	0.389200
O562	O	-0.184966	-0.171355	-0.071539
C563	C	-0.249587	-0.206379	-0.136685
C564	C	-0.229844	-0.185054	-0.095665
H565	H	-0.285876	-0.217467	-0.156200
H566	H	-0.230739	-0.185979	-0.147556
H567	H	-0.246764	-0.231502	-0.136657
H568	H	-0.232663	-0.159932	-0.095660
H569	H	-0.248695	-0.205480	-0.084810
O570	O	0.620302	0.112868	0.324248
C571	C	0.616403	0.054710	0.320047
C572	C	0.596804	0.076126	0.298875
H573	H	0.597407	0.024997	0.299544
H574	H	0.652670	0.071380	0.331089
H575	H	0.613623	0.051890	0.345194
H576	H	0.599553	0.078951	0.273713
H577	H	0.560546	0.059447	0.287860
H578	H	0.997845	0.409202	0.744262
H579	H	-0.002274	-0.311035	0.126972
O580	O	0.265314	0.245936	0.795493
C581	C	0.272310	0.248473	0.742891
C582	C	0.291964	0.269744	0.783897
H583	H	0.293843	0.267715	0.733500
H584	H	0.271078	0.221225	0.742161
H585	H	0.237437	0.240738	0.722642
H586	H	0.326845	0.277506	0.804170
H587	H	0.293162	0.296975	0.784596
O588	O	-0.005223	0.300511	0.406498
C589	C	-0.039078	0.235447	0.372767
C590	C	-0.017943	0.277199	0.373339
H591	H	-0.049376	0.216586	0.345958
H592	H	-0.014130	0.233689	0.399258
H593	H	-0.069404	0.225151	0.372653
H594	H	0.012379	0.287522	0.373441
H595	H	-0.042920	0.278933	0.346851
O596	O	0.329466	0.023721	0.464380
C597	C	0.275772	0.027976	0.465160
C598	C	0.316957	0.048547	0.464594
H599	H	0.265652	0.048041	0.465342
H600	H	0.247488	0.001296	0.438646
H601	H	0.283707	0.019368	0.491942
H602	H	0.309065	0.057180	0.437830
H603	H	0.345229	0.075210	0.491127
H604	H	0.100392	-0.311029	0.126976
O605	O	-0.005372	-0.311132	0.018327
C606	C	-0.064116	-0.311929	-0.036161
C607	C	-0.042924	-0.311349	0.005601
H608	H	-0.094486	-0.312112	-0.046466
H609	H	-0.039214	-0.285423	-0.037937
H610	H	-0.074354	-0.338710	-0.055008
H611	H	-0.032686	-0.284585	0.024473
H612	H	-0.067840	-0.337872	0.007346
H613	H	0.370724	0.351615	0.619564
O614	O	0.224153	0.210464	0.546627
C615	C	0.188556	0.145261	0.511745
C616	C	0.231147	0.186279	0.532938
H617	H	0.194194	0.125697	0.500665
H618	H	0.179349	0.134494	0.532236
H619	H	0.160581	0.145231	0.486621
H620	H	0.259150	0.186341	0.558061
H621	H	0.240316	0.197029	0.512422
O622	O	0.058980	-0.301507	0.248678
C623	C	-0.016595	-0.335301	0.228225
C624	C	0.026017	-0.333691	0.249406
H625	H	-0.043260	-0.361324	0.228800
H626	H	-0.009674	-0.308168	0.242900
H627	H	-0.028407	-0.337614	0.197268
H628	H	0.037851	-0.331391	0.280364
H629	H	0.019072	-0.360824	0.234701
O630	O	1.211314	0.322225	0.942492
C631	C	1.265435	0.380294	0.996886
C632	C	1.222828	0.358994	0.955869
H633	H	1.274762	0.410028	1.007711
H634	H	1.259763	0.363572	1.016436
H635	H	1.293343	0.383056	0.996865
H636	H	1.194899	0.356227	0.955853
H637	H	1.228537	0.375725	0.936336
H638	H	-0.664804	-0.253443	-0.255682
H639	H	0.552787	0.533658	0.801342
O640	O	-0.735022	-0.262933	-0.204451
C641	C	-0.793397	-0.263265	-0.258865
C642	C	-0.773697	-0.264863	-0.217853
H643	H	-0.824674	-0.264833	-0.269716
H644	H	-0.768274	-0.235329	-0.258875
H645	H	-0.801844	-0.288481	-0.278378
H646	H	-0.765251	-0.239667	-0.198316
H647	H	-0.798832	-0.292815	-0.217874
H648	H	0.102184	0.216325	0.421641
H649	H	0.438098	0.409220	0.846945
H650	H	0.167551	0.351584	0.416394
O651	O	0.994874	0.300578	0.741382
C652	C	0.998384	0.246122	0.745607
C653	C	1.019540	0.287880	0.766182
H654	H	1.018322	0.235845	0.765646
H655	H	0.963008	0.227238	0.737022
H656	H	0.998176	0.244377	0.718905
H657	H	1.019779	0.289662	0.792897
H658	H	1.054905	0.306745	0.774739
H659	H	0.333534	-0.168020	0.037264
O660	O	0.440987	0.135233	0.464396
C661	C	0.437458	0.189681	0.465077
C662	C	0.416323	0.147934	0.464523
H663	H	0.417521	0.199959	0.465171
H664	H	0.472842	0.208580	0.491868
H665	H	0.437642	0.191399	0.438571
H666	H	0.416107	0.146179	0.491011
H667	H	0.380951	0.129054	0.437714
H668	H	0.438017	0.026608	0.464316
O669	O	0.058505	0.530598	0.416132
C670	C	0.004423	0.534558	0.416450
C671	C	0.047034	0.555871	0.418060
H672	H	-0.004860	0.554984	0.418016
H673	H	-0.023526	0.509422	0.388505
H674	H	0.010127	0.523492	0.441665
H675	H	0.041373	0.566961	0.392864
H676	H	0.074969	0.580988	0.446020
O677	O	0.224080	-0.170934	0.449056
C678	C	0.170140	-0.166727	0.449385
C679	C	0.212748	-0.145550	0.450991
H680	H	0.160970	-0.146212	0.450957
H681	H	0.142139	-0.191854	0.421440
H682	H	0.175786	-0.177789	0.474600
H683	H	0.207146	-0.134464	0.425796
H684	H	0.240734	-0.120442	0.478952
O685	O	0.099429	0.606799	0.421922
C686	C	0.110701	0.659074	0.458117
C687	C	0.130485	0.637859	0.456502
H688	H	0.135798	0.684186	0.486076
H689	H	0.102188	0.670155	0.432916
H690	H	0.079454	0.638568	0.456562
H691	H	0.161745	0.658343	0.458068
H692	H	0.138967	0.626773	0.481701
H693	H	-0.002284	0.026530	0.126686
H694	H	-0.181872	-0.296067	-0.065904
H695	H	0.370775	0.351666	0.904295
O696	O	0.170375	-0.301495	0.075259
C697	C	0.228845	-0.301182	0.129533
C698	C	0.208988	-0.299621	0.088508
H699	H	0.260062	-0.299675	0.140254
H700	H	0.237408	-0.275950	0.149131
H701	H	0.203743	-0.329105	0.129576
H702	H	0.234069	-0.271715	0.088428
H703	H	0.200415	-0.324872	0.068928
H704	H	-0.002318	0.026496	0.023997
H705	H	0.438077	0.409202	0.744261
O706	O	0.224466	-0.171373	-0.071540
C707	C	0.167410	-0.230974	-0.124149
C708	C	0.210030	-0.209619	-0.083139
H709	H	0.155731	-0.261898	-0.133542
H710	H	0.140661	-0.230475	-0.124883
H711	H	0.174304	-0.216348	-0.144393
H712	H	0.203179	-0.224229	-0.062871
H713	H	0.236766	-0.210115	-0.082436
H714	H	0.167730	0.186787	0.069584
H715	H	0.205518	0.219314	0.037253
H716	H	-0.117019	-0.301338	-0.033362
H717	H	-0.562169	-0.253478	-0.255694
H718	H	0.230068	0.115911	-0.066194
O719	O	0.099192	-0.295843	-0.071758
C720	C	0.040702	-0.296186	-0.126042
C721	C	0.060539	-0.297780	-0.085029
H722	H	0.009442	-0.297760	-0.136787
H723	H	0.065767	-0.268249	-0.126101
H724	H	0.032195	-0.321400	-0.145612
H725	H	0.069045	-0.272586	-0.065435
H726	H	0.035461	-0.325733	-0.085000
H727	H	-0.769954	-0.268422	-0.166270
H728	H	-0.629003	-0.263238	-0.380160
H729	H	0.818264	0.216346	0.549656
O730	O	0.211242	0.606962	0.421926
C731	C	0.286900	0.627637	0.455738
C732	C	0.244287	0.606320	0.454125
H733	H	0.313631	0.627132	0.481772
H734	H	0.280033	0.613022	0.428606
H735	H	0.298591	0.658564	0.458042
H736	H	0.232573	0.575392	0.451834
H737	H	0.251178	0.620965	0.481257
O738	O	1.058591	0.245833	0.795492
C739	C	1.004498	0.187781	0.741082
C740	C	1.047118	0.209087	0.782091
H741	H	0.995214	0.158071	0.730232
H742	H	0.976554	0.184968	0.741077
H743	H	1.010192	0.204546	0.721565
H744	H	1.041467	0.192341	0.801631
H745	H	1.075047	0.211904	0.782066
O746	O	0.329553	0.300572	0.741276
C747	C	0.275814	0.246096	0.683306
C748	C	0.316981	0.287861	0.703907
H749	H	0.265631	0.235809	0.653087
H750	H	0.283740	0.227227	0.699809
H751	H	0.247572	0.244344	0.681763
H752	H	0.345240	0.289649	0.705454
H753	H	0.309018	0.306711	0.687395
O754	O	0.265253	-0.095171	-0.036470
C755	C	0.206789	-0.099375	-0.094642
C756	C	0.226636	-0.120542	-0.073218
H757	H	0.175569	-0.119876	-0.124359
H758	H	0.198233	-0.088334	-0.077972
H759	H	0.231894	-0.074233	-0.097462
H760	H	0.201552	-0.145699	-0.070392
H761	H	0.235202	-0.131555	-0.089897
O762	O	0.335536	0.224709	0.039538
C763	C	0.328538	0.277305	0.036990
C764	C	0.308882	0.236301	0.015723
H765	H	0.307003	0.286692	0.017741
H766	H	0.329778	0.278044	0.064244
H767	H	0.363409	0.297546	0.044722
H768	H	0.274004	0.216036	0.007964
H769	H	0.307676	0.235593	-0.011515
O770	O	0.265100	0.077810	0.454768
C771	C	0.206765	0.023424	0.454489
C772	C	0.226467	0.064433	0.452902
H773	H	0.175532	0.012599	0.452989
H774	H	0.198264	0.003877	0.429260
H775	H	0.231936	0.023447	0.482423
H776	H	0.201317	0.064447	0.424984
H777	H	0.234978	0.083963	0.478150
O778	O	0.211142	-0.295792	0.039832
C779	C	0.268186	-0.291345	0.037283
C780	C	0.225568	-0.292962	0.016015
H781	H	0.279857	-0.289065	0.018033
H782	H	0.294940	-0.265323	0.064535
H783	H	0.261292	-0.318480	0.045020
H784	H	0.232419	-0.265846	0.008252
H785	H	0.198827	-0.319001	-0.011220
H786	H	-0.447437	-0.263185	-0.198599
H787	H	0.064596	0.248859	0.416366
O788	O	-0.663728	-0.268761	-0.453274
C789	C	-0.605251	-0.268432	-0.449067
C790	C	-0.625070	-0.266820	-0.427885
H791	H	-0.573988	-0.266855	-0.428547
H792	H	-0.630324	-0.296377	-0.474193
H793	H	-0.596753	-0.243228	-0.460139
H794	H	-0.633567	-0.292005	-0.416788
H795	H	-0.599986	-0.238859	-0.402777
O796	O	0.335620	-0.171293	0.449036
C797	C	0.328621	-0.230887	0.444585
C798	C	0.308971	-0.209537	0.446197
H799	H	0.307089	-0.261810	0.442298
H800	H	0.329849	-0.230392	0.418565
H801	H	0.363496	-0.216254	0.471730
H802	H	0.274088	-0.224154	0.419071
H803	H	0.307776	-0.210030	0.472235
H804	H	0.370608	0.186550	0.069094
O805	O	1.099496	0.210539	0.830675
C806	C	1.106285	0.157828	0.832966
C807	C	1.126087	0.198840	0.854359
H808	H	1.127780	0.148360	0.852102
H809	H	1.071418	0.137603	0.825248
H810	H	1.105011	0.157171	0.805696
H811	H	1.127391	0.199534	0.881642
H812	H	1.160943	0.219048	0.862048
O813	O	0.106261	0.135142	0.129672
C814	C	0.159978	0.189634	0.187625
C815	C	0.118791	0.147879	0.167018
H816	H	0.170115	0.199947	0.217820
H817	H	0.188252	0.191403	0.189220
H818	H	0.152036	0.208472	0.171077
H819	H	0.126689	0.129015	0.183549
H820	H	0.090528	0.146139	0.165419
H821	H	1.167651	0.351670	0.904303
O822	O	1.170776	0.530683	0.907683
C823	C	1.229148	0.534654	0.965740
C824	C	1.209455	0.555963	0.944436
H825	H	1.260428	0.555086	0.995455
H826	H	1.204023	0.509524	0.968553
H827	H	1.237587	0.523582	0.948968
H828	H	1.201017	0.567060	0.961189
H829	H	1.234591	0.581075	0.941618
O830	O	0.620299	0.112891	0.449001
C831	C	0.606928	0.057741	0.415218
C832	C	0.587357	0.079165	0.416842
H833	H	0.580301	0.030465	0.389224
H834	H	0.635546	0.076847	0.412869
H835	H	0.619422	0.050037	0.442381
H836	H	0.574837	0.086872	0.389686
H837	H	0.558759	0.060047	0.419211
H838	H	0.617786	0.218924	0.449287
O839	O	-0.114157	0.245764	0.416133
C840	C	-0.117800	0.187721	0.416450
C841	C	-0.137502	0.209020	0.418060
H842	H	-0.136660	0.158013	0.418016
H843	H	-0.120613	0.184904	0.388505
H844	H	-0.081515	0.204494	0.441665
H845	H	-0.173793	0.192266	0.392864
H846	H	-0.134655	0.211841	0.446020
O847	O	-0.664477	-0.268655	-0.057459
C848	C	-0.671459	-0.273087	-0.004848
C849	C	-0.691122	-0.271488	-0.045860
H850	H	-0.692987	-0.275369	0.004545
H851	H	-0.670223	-0.299100	-0.004110
H852	H	-0.636585	-0.245944	0.015394
H853	H	-0.726003	-0.298612	-0.066126
H854	H	-0.692323	-0.245456	-0.046567
H855	H	0.370687	-0.098063	0.454551
H856	H	-0.629425	-0.263154	-0.095634
H857	H	0.552710	0.083673	0.454560
H858	H	-0.181848	-0.168052	0.037303
H859	H	0.064565	0.083630	0.251156
O860	O	0.211156	0.224769	0.324577
C861	C	0.246665	0.289911	0.359554
C862	C	0.204065	0.248897	0.338212
H863	H	0.240944	0.309431	0.370577
H864	H	0.274602	0.289932	0.384720
H865	H	0.255978	0.300738	0.339138
H866	H	0.194712	0.238046	0.358597
H867	H	0.176153	0.248900	0.313041
H868	H	0.167503	0.186560	0.251367
H869	H	0.102792	0.116573	-0.065694
O870	O	0.211211	0.322025	0.421872
C871	C	0.268287	0.319496	0.426366
C872	C	0.225688	0.298240	0.424776
H873	H	0.280010	0.300279	0.428722
H874	H	0.261405	0.327200	0.399212
H875	H	0.295002	0.346763	0.452370
H876	H	0.198953	0.270961	0.398789
H877	H	0.232606	0.290566	0.451947
O878	O	-0.184638	0.210441	0.421799
C879	C	-0.249135	0.145243	0.392180
C880	C	-0.229511	0.186259	0.390611
H881	H	-0.285420	0.125683	0.366972
H882	H	-0.230214	0.134468	0.390620
H883	H	-0.246306	0.145223	0.420130
H884	H	-0.232337	0.186312	0.362666
H885	H	-0.248436	0.197018	0.392192
