data_functionalizedCrystal
_audit_creation_method	'MofGen! by Chris Wilmer'
_symmetry_space_group_name_H-M	'P1'
_symmetry_Int_Tables_number	1
_symmetry_cell_setting	triclinic
loop_
_symmetry_equiv_pos_as_xyz
  x,y,z
_cell_length_a	9.065218
_cell_length_b	10.654562
_cell_length_c	8.140239
_cell_angle_alpha	90.004288
_cell_angle_beta	89.998329
_cell_angle_gamma	95.247005
loop_
_atom_site_label
_atom_site_type_symbol
_atom_site_fract_x
_atom_site_fract_y
_atom_site_fract_z
O1	O	-0.207321	1.668648	0.136716
O2	O	-0.227046	1.303249	0.136695
O3	O	-0.002500	1.493501	0.136701
O4	O	-0.431867	1.478396	0.136710
O5	O	-0.002499	1.493495	-0.136526
O6	O	-0.227044	1.303243	-0.136532
O7	O	-0.207320	1.668642	-0.136511
Zn8	Zn	-0.217182	1.485941	-0.179902
Zn9	Zn	-0.217184	1.485950	0.180086
O10	O	-0.431865	1.478390	-0.136517
C11	C	-0.225593	1.256443	0.000079
C12	C	-0.221248	1.116983	0.000071
C13	C	-0.219221	1.051441	-0.148853
C14	C	-0.215150	0.920403	-0.148825
C15	C	-0.215141	0.920460	0.149062
C16	C	-0.219201	1.051497	0.149033
C17	C	-0.219232	1.051407	-0.320836
C18	C	-0.215162	0.920368	-0.320808
C19	C	-0.486845	1.479845	0.000098
C20	C	-0.650664	1.484185	0.000102
C21	C	0.052479	1.492047	0.000090
C22	C	0.216299	1.487706	0.000096
C23	C	-0.208773	1.715448	0.000109
C24	C	-0.213117	1.854908	0.000127
N25	N	-0.217179	1.485945	-0.425585
N26	N	-0.217174	1.485956	0.425769
H27	H	-0.220829	1.104858	0.270301
H28	H	-0.213474	0.867124	0.270342
H29	H	-0.117265	1.097261	-0.386882
H30	H	-0.326839	1.081406	-0.374197
O31	O	-0.086741	0.884760	-0.384596
C32	C	0.150498	0.952089	-0.504264
C33	C	0.005122	0.992591	-0.432106
H34	H	0.224822	1.039248	-0.542664
H35	H	0.124755	0.889294	-0.615929
H36	H	0.209585	0.897729	-0.407499
H37	H	-0.054037	1.047000	-0.528750
H38	H	0.030963	1.055323	-0.320406
H39	H	-0.317131	0.874485	-0.386831
