data_functionalizedCrystal
_audit_creation_method	'MofGen! by Chris Wilmer'
_symmetry_space_group_name_H-M	'P1'
_symmetry_Int_Tables_number	1
_symmetry_cell_setting	triclinic
loop_
_symmetry_equiv_pos_as_xyz
  x,y,z
_cell_length_a	33.428889
_cell_length_b	33.428139
_cell_length_c	33.424847
_cell_angle_alpha	60.004234
_cell_angle_beta	60.008465
_cell_angle_gamma	59.994972
loop_
_atom_site_label
_atom_site_type_symbol
_atom_site_fract_x
_atom_site_fract_y
_atom_site_fract_z
O1	O	0.055565	-0.584504	0.488714
O2	O	0.020982	-0.455083	0.393778
O3	O	0.102943	-0.536959	0.393689
O4	O	-0.026396	-0.502628	0.488803
O5	O	0.130140	-0.509767	0.420792
O6	O	0.048179	-0.427891	0.420881
O7	O	0.082762	-0.557312	0.515817
Cu8	Cu	0.067954	-0.490119	0.470823
Cu9	Cu	0.035790	-0.522276	0.438771
O10	O	0.000801	-0.475436	0.515906
N11	N	0.090577	-0.467504	0.493370
N12	N	0.013171	-0.544895	0.416225
C13	C	0.143377	-0.280390	0.546067
C14	C	0.143515	-0.414755	0.680369
C15	C	0.143392	-0.414735	0.546069
C16	C	0.277766	-0.414702	0.545966
C17	C	0.158177	-0.324719	0.560828
C18	C	0.158255	-0.399967	0.636038
C19	C	0.233434	-0.399936	0.560773
C20	C	0.158186	-0.399955	0.560829
C21	C	0.124540	-0.223964	0.527278
C22	C	0.124565	-0.433545	0.527281
C23	C	0.177014	-0.381145	0.579617
C24	C	0.359814	-0.400540	0.502735
C25	C	0.411105	-0.417624	0.485606
C26	C	0.411136	-0.500620	0.517255
C27	C	0.359845	-0.483534	0.534385
C28	C	0.136887	-0.198305	0.476855
C29	C	0.119761	-0.147011	0.459777
C30	C	0.077945	-0.147038	0.543547
C31	C	0.095072	-0.198332	0.560625
C32	C	0.074134	-0.421169	0.539710
C33	C	0.057023	-0.438269	0.522625
C34	C	0.140770	-0.480120	0.480694
C35	C	0.157883	-0.463020	0.497773
C36	C	0.074339	-0.421208	0.762475
C37	C	0.057288	-0.438323	0.813768
C38	C	0.141075	-0.480183	0.813699
C39	C	0.158125	-0.463069	0.762404
C40	C	0.124756	-0.433580	0.736794
C41	C	0.334186	-0.433494	0.527123
C42	C	-0.173769	-0.597444	0.363037
C43	C	-0.039302	-0.597595	0.228856
C44	C	-0.039496	-0.597587	0.363300
C45	C	-0.039512	-0.731889	0.363237
C46	C	-0.129442	-0.612265	0.348329
C47	C	-0.054138	-0.612351	0.273187
C48	C	-0.054257	-0.687554	0.348440
C49	C	-0.054247	-0.612346	0.348477
C50	C	-0.230191	-0.578579	0.381758
C51	C	-0.020722	-0.578803	0.382168
C52	C	-0.073020	-0.631130	0.329609
C53	C	-0.053713	-0.813916	0.406386
C54	C	-0.036654	-0.865210	0.423504
C55	C	0.046338	-0.865293	0.391984
C56	C	0.029278	-0.813999	0.374865
C57	C	-0.255900	-0.590938	0.432169
C58	C	-0.307191	-0.573786	0.449185
C59	C	-0.307060	-0.531922	0.365377
C60	C	-0.255769	-0.549074	0.348360
C61	C	-0.033081	-0.528377	0.369764
C62	C	-0.016014	-0.511306	0.386922
C63	C	0.025770	-0.595083	0.428877
C64	C	0.008703	-0.612156	0.411725
C65	C	-0.032755	-0.528393	0.146761
C66	C	-0.015585	-0.511324	0.095468
C67	C	0.026262	-0.595106	0.095516
C68	C	0.009094	-0.612174	0.146811
C69	C	-0.020417	-0.578816	0.172432
C70	C	-0.020748	-0.788312	0.382068
N71	N	0.436037	-0.467415	0.493101
O72	O	0.592642	-0.471896	0.376066
O73	O	0.592838	-0.567146	0.505347
O74	O	0.592754	-0.566928	0.423360
O75	O	0.592727	-0.472113	0.458053
O76	O	0.511269	-0.539835	0.450606
O77	O	0.511353	-0.540052	0.532594
O78	O	0.511157	-0.444802	0.403312
Cu79	Cu	0.503815	-0.489954	0.470441
Cu80	Cu	0.600180	-0.521995	0.438219
O81	O	0.511242	-0.445020	0.485300
N82	N	0.667959	-0.544533	0.415554
N83	N	0.090544	-0.122107	0.493359
O84	O	-0.026406	0.034587	0.488773
O85	O	0.102877	0.034627	0.393499
O86	O	0.020848	0.034591	0.393771
O87	O	0.055623	0.034623	0.488500
O88	O	0.048051	-0.046899	0.420925
O89	O	0.130080	-0.046864	0.420653
O90	O	0.000796	-0.046903	0.515927
Cu91	Cu	0.067922	-0.054324	0.470769
Cu92	Cu	0.035752	0.042048	0.438656
O93	O	0.082825	-0.046867	0.515655
N94	N	0.013123	0.109830	0.416068
N95	N	0.090892	-0.467554	0.838649
O96	O	0.086330	-0.584488	0.995334
O97	O	-0.008902	-0.455160	0.995379
O98	O	-0.008679	-0.537172	0.995355
O99	O	0.086107	-0.502475	0.995358
O100	O	0.018452	-0.509990	0.913868
O101	O	0.018230	-0.427978	0.913891
O102	O	0.113461	-0.557306	0.913847
Cu103	Cu	0.068323	-0.490160	0.906429
Cu104	Cu	0.036237	-0.522306	1.002797
O105	O	0.113239	-0.475293	0.913870
N106	N	0.013667	-0.544916	1.070577
C107	C	0.031339	-0.425179	0.394250
C108	C	0.132837	-0.526572	0.394139
C109	C	0.072405	-0.587216	0.515344
C110	C	-0.029093	-0.485823	0.515455
C111	C	0.552119	-0.566716	0.535258
C112	C	0.552016	-0.566447	0.433726
C113	C	0.551873	-0.445232	0.373402
C114	C	0.551980	-0.445502	0.474933
C115	C	0.132731	-0.006013	0.393923
C116	C	0.031182	-0.006158	0.394293
C117	C	-0.029092	-0.006163	0.515469
C118	C	0.072491	-0.006119	0.515133
C119	C	-0.008451	-0.425276	0.954641
C120	C	-0.008170	-0.526833	0.954596
C121	C	0.113010	-0.587190	0.954585
C122	C	0.112735	-0.485627	0.954611
H123	H	0.016234	-0.428240	0.834672
O124	O	0.081137	-0.631571	0.550935
C125	C	0.057516	-0.703623	0.604441
C126	C	0.047567	-0.653397	0.564144
H127	H	0.030387	-0.721289	0.615125
H128	H	0.053106	-0.698554	0.637884
H129	H	0.096448	-0.728227	0.590119
H130	H	0.008637	-0.628767	0.578420
H131	H	0.052009	-0.658504	0.530709
H132	H	-0.066242	-0.478508	0.545321
H133	H	0.198948	-0.473094	0.487648
O134	O	-0.073350	-0.006196	0.551213
C135	C	-0.123511	-0.006170	0.633811
C136	C	-0.073364	-0.006144	0.593378
H137	H	-0.123543	-0.006117	0.667907
H138	H	-0.130691	-0.040290	0.643117
H139	H	-0.153440	0.027917	0.620325
H140	H	-0.043404	-0.040208	0.606831
H141	H	-0.066227	0.027999	0.584079
H142	H	0.552170	-0.596617	0.572390
H143	H	0.169984	-0.533889	0.364272
O144	O	-0.043743	-0.535598	0.954576
C145	C	-0.126273	-0.503512	0.954500
C146	C	-0.086034	-0.493525	0.954533
H147	H	-0.160471	-0.469500	0.954455
H148	H	-0.135466	-0.535571	0.988593
H149	H	-0.112655	-0.512854	0.920389
H150	H	-0.099618	-0.484162	0.988622
H151	H	-0.076846	-0.461480	0.920418
O152	O	0.148620	-0.631533	0.954588
C153	C	0.171416	-0.712236	0.954527
C154	C	0.131040	-0.662045	0.954536
H155	H	0.157220	-0.736915	0.954474
H156	H	0.182112	-0.729872	0.988632
H157	H	0.204822	-0.707063	0.920428
H158	H	0.097607	-0.667175	0.988611
H159	H	0.120385	-0.644426	0.920407
H160	H	0.160882	-0.219171	0.449698
H161	H	0.018765	-0.653217	0.421828
O162	O	0.334963	-0.351917	0.495660
C163	C	0.340349	-0.271397	0.462432
C164	C	0.368551	-0.326450	0.470424
H165	H	0.367493	-0.250790	0.442019
H166	H	0.316374	-0.265661	0.499410
H167	H	0.316298	-0.256979	0.439919
H168	H	0.392629	-0.340905	0.492919
H169	H	0.392496	-0.332154	0.433429
H170	H	0.169783	-0.005775	0.363939
H171	H	0.023733	-0.006162	0.364531
H172	H	0.023949	-0.388000	0.364433
H173	H	0.079939	-0.006110	0.544893
H174	H	0.142514	-0.478200	0.954606
O175	O	0.041856	-0.392582	0.737675
C176	C	-0.043050	-0.352842	0.743161
C177	C	-0.006318	-0.385270	0.771308
H178	H	-0.082007	-0.346911	0.770342
H179	H	-0.037199	-0.371623	0.719163
H180	H	-0.037134	-0.315952	0.719136
H181	H	-0.012212	-0.422165	0.795360
H182	H	-0.012178	-0.366451	0.795276
O183	O	0.173507	-0.508894	0.838558
C184	C	0.239922	-0.584369	0.854174
C185	C	0.203215	-0.551901	0.825998
H186	H	0.263956	-0.619143	0.844022
H187	H	0.219098	-0.594517	0.895250
H188	H	0.263909	-0.563462	0.844083
H189	H	0.179217	-0.572779	0.836048
H190	H	0.224069	-0.541751	0.784928
O191	O	0.207098	-0.475147	0.737438
C192	C	0.274977	-0.514566	0.679468
C193	C	0.219513	-0.500930	0.707718
H194	H	0.285030	-0.535405	0.655425
H195	H	0.295921	-0.538606	0.706564
H196	H	0.285038	-0.479746	0.655474
H197	H	0.209406	-0.535723	0.731713
H198	H	0.198600	-0.476871	0.680596
O199	O	0.551992	-0.409920	0.483696
C200	C	0.551883	-0.327332	0.451664
C201	C	0.551879	-0.367587	0.441672
H202	H	0.551781	-0.293093	0.417698
H203	H	0.586017	-0.340856	0.460929
H204	H	0.517814	-0.318235	0.483780
H205	H	0.585924	-0.376702	0.409549
H206	H	0.517722	-0.354041	0.432435
H207	H	0.551811	-0.415327	0.336274
O208	O	0.041703	-0.392521	0.568347
C209	C	-0.043171	-0.352834	0.608154
C210	C	-0.006496	-0.385272	0.575708
H211	H	-0.082147	-0.346971	0.614124
H212	H	-0.037315	-0.315913	0.589366
H213	H	-0.037197	-0.371634	0.645023
H214	H	-0.012447	-0.366515	0.538834
H215	H	-0.012361	-0.422191	0.594534
H216	H	0.015959	-0.428182	0.532734
H217	H	0.167905	-0.504126	0.456671
O218	O	-0.044181	-0.381008	0.954721
C219	C	-0.125879	-0.337255	0.996971
C220	C	-0.085461	-0.387421	0.996937
H221	H	-0.159260	-0.342422	1.031105
H222	H	-0.136617	-0.319651	0.962896
H223	H	-0.111665	-0.312547	0.996952
H224	H	-0.099641	-0.412167	0.996973
H225	H	-0.074729	-0.404986	1.031010
O226	O	0.334978	-0.515559	0.557995
C227	C	0.319319	-0.575889	0.553444
C228	C	0.347500	-0.539628	0.526648
H229	H	0.329440	-0.595366	0.528115
H230	H	0.278245	-0.555112	0.564429
H231	H	0.329436	-0.604060	0.587646
H232	H	0.337424	-0.511448	0.492428
H233	H	0.388567	-0.560439	0.515700
O234	O	0.131814	-0.122157	0.410778
C235	C	0.175066	-0.127542	0.329490
C236	C	0.161464	-0.155746	0.384967
H237	H	0.199032	-0.154687	0.308605
H238	H	0.195969	-0.103528	0.319348
H239	H	0.140230	-0.103524	0.319445
H240	H	0.196274	-0.179791	0.395051
H241	H	0.140542	-0.179729	0.395079
O242	O	-0.230721	-0.537099	0.299407
C243	C	-0.151648	-0.544989	0.236046
C244	C	-0.179955	-0.558580	0.291500
H245	H	-0.110598	-0.562358	0.229635
H246	H	-0.161658	-0.503462	0.218723
H247	H	-0.161736	-0.559113	0.218724
H248	H	-0.169881	-0.544488	0.308864
H249	H	-0.169942	-0.600108	0.308787
H250	H	0.431972	-0.390789	0.465748
O251	O	0.049311	-0.122213	0.576006
C252	C	0.009679	-0.127654	0.660899
C253	C	0.042103	-0.155827	0.624193
H254	H	0.003850	-0.154819	0.699866
H255	H	-0.027254	-0.103664	0.655060
H256	H	0.028470	-0.103617	0.654941
H257	H	0.023355	-0.179892	0.630129
H258	H	0.079035	-0.179787	0.630041
H259	H	0.085016	-0.219221	0.601683
O260	O	-0.027644	-0.462325	0.070611
C261	C	-0.070951	-0.381028	0.075983
C262	C	-0.057343	-0.436507	0.104194
H263	H	-0.094956	-0.360138	0.103123
H264	H	-0.091816	-0.370889	0.051927
H265	H	-0.036121	-0.370987	0.052010
H266	H	-0.092148	-0.446588	0.128194
H267	H	-0.036459	-0.446616	0.128219
O268	O	0.552007	-0.601922	0.424800
C269	C	0.551990	-0.624346	0.366596
C270	C	0.551989	-0.584125	0.376643
H271	H	0.551986	-0.609976	0.327658
H272	H	0.517911	-0.635086	0.393716
H273	H	0.586114	-0.657771	0.370969
H274	H	0.517889	-0.550674	0.372264
H275	H	0.586091	-0.573427	0.349524
H276	H	-0.327887	-0.507903	0.338181
H277	H	0.432025	-0.541365	0.523165
H278	H	-0.056788	-0.501226	0.167618
H279	H	0.050281	-0.622271	0.074658
H280	H	-0.057039	-0.501216	0.345698
O281	O	0.021107	-0.661174	0.171670
C282	C	0.064444	-0.742472	0.166302
C283	C	0.050868	-0.686994	0.138090
H284	H	0.088516	-0.763364	0.139165
H285	H	0.029633	-0.752553	0.190248
H286	H	0.085260	-0.752570	0.190387
H287	H	0.030064	-0.676857	0.113979
H288	H	0.085697	-0.676944	0.114175
H289	H	0.049734	-0.622248	0.452940
O290	O	-0.028033	-0.462306	0.374800
C291	C	-0.071269	-0.381008	0.331366
C292	C	-0.057692	-0.436486	0.345055
H293	H	-0.095258	-0.360117	0.307324
H294	H	-0.036454	-0.370943	0.310513
H295	H	-0.092173	-0.370895	0.366162
H296	H	-0.036800	-0.446639	0.310284
H297	H	-0.092525	-0.446521	0.365927
H298	H	0.087072	-0.886205	0.386121
O299	O	0.061365	-0.789206	0.351272
C300	C	0.145488	-0.794709	0.321796
C301	C	0.109199	-0.822848	0.348531
H302	H	0.184171	-0.821897	0.319562
H303	H	0.135209	-0.770705	0.342777
H304	H	0.143949	-0.770688	0.283221
H305	H	0.110719	-0.846896	0.387106
H306	H	0.119490	-0.846821	0.327513
O307	O	-0.068713	-0.890032	0.447063
C308	C	-0.128953	-0.905695	0.442369
C309	C	-0.092675	-0.877544	0.415631
H310	H	-0.148329	-0.895616	0.416964
H311	H	-0.157203	-0.895575	0.476548
H312	H	-0.108156	-0.946765	0.453382
H313	H	-0.113430	-0.836467	0.404585
H314	H	-0.064426	-0.887705	0.381474
O315	O	-0.102288	-0.788902	0.413287
C316	C	-0.164256	-0.730962	0.375366
C317	C	-0.109232	-0.759252	0.367484
H318	H	-0.169888	-0.706991	0.338341
H319	H	-0.178735	-0.706905	0.397894
H320	H	-0.184884	-0.758078	0.395706
H321	H	-0.088563	-0.732171	0.347132
H322	H	-0.094790	-0.783316	0.344977
H323	H	-0.328125	-0.583847	0.490235
O324	O	-0.231130	-0.619575	0.464677
C325	C	-0.236673	-0.659306	0.549601
C326	C	-0.264788	-0.626861	0.512840
H327	H	-0.263873	-0.665216	0.588549
H328	H	-0.212670	-0.640551	0.543776
H329	H	-0.212656	-0.696204	0.543689
H330	H	-0.288831	-0.589958	0.518730
H331	H	-0.288760	-0.645655	0.518675
