data_functionalizedCrystal
_audit_creation_method	'MofGen! by Chris Wilmer'
_symmetry_space_group_name_H-M	'P1'
_symmetry_Int_Tables_number	1
_symmetry_cell_setting	triclinic
loop_
_symmetry_equiv_pos_as_xyz
  x,y,z
_cell_length_a	14.044220
_cell_length_b	13.448316
_cell_length_c	14.971486
_cell_angle_alpha	90.006811
_cell_angle_beta	91.598497
_cell_angle_gamma	89.998357
loop_
_atom_site_label
_atom_site_type_symbol
_atom_site_fract_x
_atom_site_fract_y
_atom_site_fract_z
O1	O	1.257954	-0.082587	-0.215664
O2	O	0.981976	-0.082612	-0.207882
O3	O	1.127362	-0.082592	-0.082155
O4	O	1.112568	-0.082608	-0.341390
O5	O	1.127344	0.082792	-0.082146
O6	O	0.981958	0.082771	-0.207872
O7	O	1.257936	0.082797	-0.215654
Cu8	Cu	1.119945	0.097885	-0.211762
Cu9	Cu	1.119967	-0.097701	-0.211774
O10	O	1.112550	0.082776	-0.341380
C11	C	0.946648	0.000076	-0.204470
C12	C	0.841411	0.000067	-0.194309
C13	C	1.126691	0.000100	-0.048774
C14	C	1.124708	0.000098	0.050680
N15	N	1.119937	0.235449	-0.211754
C16	C	0.648729	0.000088	-0.175732
C17	C	0.591177	0.000088	-0.247799
C18	C	0.483962	0.000099	-0.237463
C19	C	0.755954	0.000076	-0.186067
C20	C	1.293263	0.000106	-0.219065
C21	C	1.398500	0.000109	-0.229227
N22	N	1.119982	-0.235265	-0.211775
C23	C	1.184334	0.287499	-0.156109
C24	C	1.184340	0.391602	-0.156108
C25	C	1.119952	0.443654	-0.211759
C26	C	1.055549	0.391597	-0.267406
C27	C	1.055539	0.287496	-0.267401
C28	C	1.055575	0.608577	-0.267414
C29	C	1.055586	0.712686	-0.267420
C30	C	1.184376	0.712683	-0.156122
C31	C	1.184366	0.608582	-0.156117
C32	C	1.119963	0.556532	-0.211765
C33	C	1.113220	0.000083	-0.374762
C34	C	1.115203	0.000077	-0.474215
C35	C	1.210119	0.000107	0.101176
C36	C	1.208250	0.000097	0.194623
C37	C	1.120970	0.000085	0.237571
C38	C	1.035554	0.000074	0.187067
C39	C	1.037423	0.000077	0.093623
C40	C	1.031663	0.000070	0.381836
C41	C	1.029793	0.000069	0.475288
C42	C	1.202490	0.000090	0.482837
C43	C	1.204360	0.000093	0.389392
C44	C	1.118942	0.000083	0.338895
H45	H	0.617481	0.000097	-0.106277
O46	O	0.950709	0.000192	0.228682
C47	C	0.898634	0.085851	0.203575
H48	H	0.924542	0.114412	0.136806
H49	H	0.909541	0.145830	0.256698
C50	C	0.760201	0.024738	0.276590
C51	C	0.792015	0.059813	0.194579
H52	H	0.694432	0.008679	0.271044
H53	H	0.795285	-0.032970	0.293508
H54	H	0.769298	0.074727	0.320850
H55	H	0.782929	0.009821	0.150323
H56	H	0.756927	0.117513	0.177653
H57	H	1.281192	0.000122	0.066215
H58	H	0.622427	0.000079	-0.317261
H59	H	1.277800	0.000106	0.235734
H60	H	1.003119	0.433984	-0.312714
H61	H	1.236769	0.245125	-0.110796
O62	O	0.954481	-0.000105	0.044527
C63	C	0.950420	-0.085747	-0.009776
H64	H	0.998864	-0.145608	0.020523
H65	H	0.975033	-0.066379	-0.079579
C66	C	0.787794	-0.051077	-0.052944
C67	C	0.847288	-0.124602	-0.015726
H68	H	0.724178	-0.075043	-0.056619
H69	H	0.790531	0.006624	-0.016362
H70	H	0.808317	-0.034943	-0.111110
H71	H	0.826772	-0.140725	0.042442
H72	H	0.844545	-0.182307	-0.052299
H73	H	1.003099	0.245118	-0.312711
O74	O	1.246997	0.442008	-0.102039
C75	C	1.303817	0.373743	-0.052914
H76	H	1.304906	0.299527	-0.089671
H77	H	1.272983	0.362693	0.016020
C78	C	1.404726	0.505506	0.002428
C79	C	1.406070	0.414356	-0.042722
H80	H	1.467800	0.530559	0.008719
H81	H	1.366444	0.551499	-0.030666
H82	H	1.379027	0.496286	0.059868
H83	H	1.431758	0.423580	-0.100165
H84	H	1.444360	0.368366	-0.009637
O85	O	1.289224	0.000064	0.347813
C86	C	1.364215	0.000096	0.412418
H87	H	1.337580	-0.031221	0.477919
H88	H	1.390555	0.079443	0.423526
C89	C	1.479244	-0.026284	0.299052
C90	C	1.446532	-0.064756	0.379500
H91	H	1.530023	-0.066284	0.278746
H92	H	1.428722	-0.026302	0.255525
H93	H	1.501187	0.039837	0.308320
H94	H	1.424579	-0.130871	0.370228
H95	H	1.497052	-0.064751	0.423024
O96	O	1.246899	0.763126	-0.101936
C97	C	1.231388	0.737721	-0.012142
H98	H	1.194839	0.662144	-0.009313
H99	H	1.184187	0.796324	0.019318
C100	C	1.372467	0.825725	0.036151
C101	C	1.327584	0.732896	0.039626
H102	H	1.431804	0.822752	0.068086
H103	H	1.382916	0.842844	-0.024345
H104	H	1.333123	0.874551	0.062366
H105	H	1.366922	0.684074	0.013401
H106	H	1.317144	0.715768	0.100119
O107	O	0.992936	0.763097	-0.321490
C108	C	0.936095	0.694837	-0.370612
H109	H	0.934989	0.620632	-0.333854
H110	H	0.966922	0.683756	-0.439548
C111	C	0.835217	0.826619	-0.425949
C112	C	0.833852	0.735482	-0.380798
H113	H	0.772149	0.851691	-0.432237
H114	H	0.873513	0.872608	-0.392858
H115	H	0.860910	0.817373	-0.483391
H116	H	0.808171	0.744731	-0.323354
H117	H	0.795549	0.689495	-0.413880
O118	O	1.285378	0.000044	0.532020
C119	C	1.265017	0.000054	0.623706
H120	H	1.190557	-0.031264	0.633217
H121	H	1.268573	0.079394	0.650420
C122	C	1.430009	-0.026338	0.663243
C123	C	1.338559	-0.064812	0.674926
H124	H	1.475375	-0.066347	0.694839
H125	H	1.443728	-0.026342	0.601472
H126	H	1.432958	0.039777	0.685504
H127	H	1.335608	-0.130921	0.652655
H128	H	1.324841	-0.064821	0.736694
O129	O	0.993145	0.557904	-0.321519
C130	C	1.043968	0.497689	-0.380795
H131	H	1.118103	0.482092	-0.351123
H132	H	1.050484	0.537795	-0.447428
C133	C	0.899484	0.417963	-0.432059
C134	C	0.990535	0.398799	-0.395612
H135	H	0.866524	0.356964	-0.441204
H136	H	0.865243	0.458533	-0.392127
H137	H	0.904927	0.451387	-0.487583
H138	H	0.985091	0.365387	-0.340085
H139	H	1.024775	0.358221	-0.435536
H140	H	1.236799	0.566201	-0.110807
O141	O	0.944929	-0.000002	0.516867
C142	C	0.869937	0.000001	0.452262
H143	H	0.896588	-0.031296	0.386752
H144	H	0.843559	0.079336	0.441177
C145	C	0.754921	-0.026448	0.565621
C146	C	0.787652	-0.064895	0.485162
H147	H	0.704162	-0.066474	0.585915
H148	H	0.805443	-0.026446	0.609147
H149	H	0.732946	0.039664	0.556372
H150	H	0.809638	-0.131000	0.494414
H151	H	0.737132	-0.064909	0.441637
H152	H	0.962107	0.000059	0.340724
