data_functionalizedCrystal
_audit_creation_method	'MofGen! by Chris Wilmer'
_symmetry_space_group_name_H-M	'P1'
_symmetry_Int_Tables_number	1
_symmetry_cell_setting	triclinic
loop_
_symmetry_equiv_pos_as_xyz
  x,y,z
_cell_length_a	10.654541
_cell_length_b	19.288859
_cell_length_c	18.366186
_cell_angle_alpha	89.990083
_cell_angle_beta	89.994034
_cell_angle_gamma	83.808827
loop_
_atom_site_label
_atom_site_type_symbol
_atom_site_fract_x
_atom_site_fract_y
_atom_site_fract_z
O1	O	0.156620	0.922380	-0.060564
O2	O	0.177761	0.720257	-0.060562
O3	O	-0.015649	0.825967	-0.060558
O4	O	0.350029	0.816671	-0.060567
O5	O	-0.015658	0.825949	0.060541
O6	O	0.177751	0.720239	0.060537
O7	O	0.156610	0.922362	0.060536
Zn8	Zn	0.167179	0.821298	0.079764
Zn9	Zn	0.167192	0.821322	-0.079790
O10	O	0.350020	0.816652	0.060532
C11	C	0.177077	0.694367	-0.000012
C12	C	0.175039	0.617250	-0.000011
C13	C	-0.062437	0.825276	-0.000009
C14	C	-0.201837	0.823234	-0.000010
C15	C	0.274735	0.053862	-0.000015
C16	C	0.276662	0.126321	-0.000019
C17	C	0.163178	0.170285	-0.000015
C18	C	0.047759	0.141785	-0.000025
C19	C	0.045836	0.069327	-0.000029
C20	C	0.078538	0.290995	0.042417
C21	C	0.080466	0.363451	0.042425
C22	C	0.169103	0.393770	-0.000007
C23	C	0.255834	0.351621	-0.042438
C24	C	0.253911	0.279163	-0.042441
C25	C	0.165250	0.248854	-0.000011
C26	C	0.286603	0.500830	-0.000006
C27	C	0.288524	0.573291	-0.000014
C28	C	0.059618	0.588754	-0.000013
C29	C	0.057700	0.516294	-0.000012
C30	C	0.171196	0.472336	-0.000005
C31	C	-0.232519	0.949639	-0.000002
C32	C	-0.313348	1.011879	0.000003
C33	C	-0.444324	1.009957	0.000001
C34	C	-0.494473	0.945788	-0.000009
C35	C	-0.413644	0.883547	-0.000014
C36	C	-0.282666	0.885476	-0.000010
C37	C	-0.382963	0.757144	-0.000028
C38	C	-0.251986	0.759065	-0.000020
C39	C	-0.433112	0.692975	-0.000038
C40	C	-0.352283	0.630733	-0.000038
C41	C	-0.221299	0.632658	-0.000035
C42	C	-0.171157	0.696825	-0.000026
C43	C	0.396808	0.817344	-0.000019
C44	C	0.536208	0.819385	-0.000022
C45	C	0.157294	0.948252	-0.000016
C46	C	0.159332	1.025369	-0.000021
N47	N	0.167170	0.821286	0.188655
N48	N	0.167191	0.821338	-0.188681
C49	C	0.081570	0.868110	0.226757
C50	C	0.081565	0.868115	0.302985
C51	C	0.167180	0.821302	0.341108
C52	C	0.252787	0.774469	0.302996
C53	C	0.252782	0.774461	0.226770
C54	C	0.281602	0.812752	0.461865
C55	C	0.281609	0.812765	0.538090
C56	C	0.167196	0.821322	0.576215
C57	C	0.052771	0.829881	0.538106
C58	C	0.052766	0.829873	0.461879
C59	C	0.167195	0.821305	0.423762
C60	C	0.081583	0.868153	0.696972
C61	C	0.081576	0.868152	0.773201
C62	C	0.252809	0.774510	0.773212
C63	C	0.252805	0.774507	0.696984
C64	C	0.167194	0.821332	0.658869
H65	H	0.367153	0.018075	-0.000012
F66	F	0.343920	0.724684	0.813781
H67	H	-0.601123	0.944228	-0.000020
F68	F	-0.011831	0.408302	0.087588
H69	H	-0.044640	0.177585	-0.000024
H70	H	-0.048142	0.046130	-0.000034
F71	F	-0.405663	0.562447	-0.000057
F72	F	-0.009542	0.917987	0.813754
F73	F	-0.572510	0.690931	-0.000078
H74	H	-0.510137	1.060639	-0.000000
F75	F	-0.259966	1.080170	0.000010
H76	H	0.322488	0.736331	0.195747
H77	H	-0.155493	0.581974	-0.000043
F78	F	-0.093122	0.951690	0.000014
F79	F	-0.065130	0.485969	-0.000021
H80	H	0.324528	0.244849	-0.076990
F81	F	-0.031761	0.698878	-0.000018
F82	F	-0.009547	0.917954	0.343542
F83	F	-0.069005	0.838993	0.578675
F84	F	-0.009548	0.917942	0.186193
H85	H	-0.040402	0.836840	0.430854
F86	F	-0.009537	0.917985	0.656406
H87	H	0.328014	0.376304	-0.076988
H88	H	0.322514	0.736382	0.665959
F89	F	0.411359	0.603613	-0.000014
F90	F	0.403389	0.803661	0.578642
H91	H	0.374777	0.805772	0.430830
F92	F	0.407393	0.454045	-0.000000
F93	F	0.343901	0.724645	0.343570
H94	H	0.370640	0.149524	-0.000006
F95	F	-0.061161	0.635539	-0.000018
F96	F	-0.015857	0.258739	0.087547
