data_functionalizedCrystal
_audit_creation_method	'MofGen! by Chris Wilmer'
_symmetry_space_group_name_H-M	'P1'
_symmetry_Int_Tables_number	1
_symmetry_cell_setting	triclinic
loop_
_symmetry_equiv_pos_as_xyz
  x,y,z
_cell_length_a	27.732048
_cell_length_b	19.288865
_cell_length_c	17.766277
_cell_angle_alpha	90.005144
_cell_angle_beta	90.006475
_cell_angle_gamma	82.889451
loop_
_atom_site_label
_atom_site_type_symbol
_atom_site_fract_x
_atom_site_fract_y
_atom_site_fract_z
O1	O	0.060297	0.920975	0.062577
O2	O	0.393630	1.254308	0.395910
O3	O	0.726963	1.587641	0.729243
O4	O	0.068431	0.718663	0.062585
O5	O	0.401764	1.051997	0.395918
O6	O	0.735098	1.385330	0.729252
O7	O	-0.006014	0.826102	0.062566
O8	O	0.327319	1.159436	0.395900
O9	O	0.660653	1.492769	0.729233
O10	O	0.134742	0.813536	0.062595
O11	O	0.468075	1.146869	0.395929
O12	O	0.801408	1.480202	0.729262
O13	O	-0.006011	0.826088	-0.062622
O14	O	0.327322	1.159421	0.270711
O15	O	0.660655	1.492755	0.604044
O16	O	0.068434	0.718649	-0.062604
O17	O	0.401767	1.051982	0.270730
O18	O	0.735100	1.385316	0.604063
O19	O	0.060299	0.920960	-0.062612
O20	O	0.393633	1.254294	0.270721
O21	O	0.726966	1.587627	0.604055
Cu22	Cu	0.064367	0.819803	-0.074038
Cu23	Cu	0.397700	1.153137	0.259295
Cu24	Cu	0.731033	1.486470	0.592628
Cu25	Cu	0.064364	0.819820	0.074011
Cu26	Cu	0.397697	1.153154	0.407345
Cu27	Cu	0.731030	1.486487	0.740678
O28	O	0.134744	0.813521	-0.062593
O29	O	0.468078	1.146855	0.270740
O30	O	0.801411	1.480188	0.604074
C31	C	-0.024020	0.825831	-0.000030
C32	C	0.309313	1.159165	0.333303
C33	C	0.642646	1.492498	0.666637
C34	C	-0.077678	0.825037	-0.000036
C35	C	0.255656	1.158370	0.333297
C36	C	0.588989	1.491704	0.666630
C37	C	0.068171	0.692781	-0.000009
C38	C	0.401504	1.026115	0.333325
C39	C	0.734837	1.359448	0.666658
C40	C	0.067385	0.615683	-0.000006
C41	C	0.400718	0.949016	0.333327
C42	C	0.734052	1.282349	0.666661
C43	C	0.060560	0.946842	-0.000017
C44	C	0.393893	1.280176	0.333317
C45	C	0.727226	1.613509	0.666650
C46	C	0.061345	1.023941	-0.000014
C47	C	0.394679	1.357274	0.333319
C48	C	0.728012	1.690608	0.666652
C49	C	-0.416316	0.883526	-0.000000
C50	C	-0.082983	1.216859	0.333333
C51	C	0.250351	1.550193	0.666667
C52	C	-0.617985	0.880579	0.000011
C53	C	-0.284651	1.213912	0.333344
C54	C	0.048682	1.547245	0.666677
O55	O	-0.649079	0.934063	0.000041
O56	O	-0.315745	1.267396	0.333375
O57	O	0.017588	1.600729	0.666708
N58	N	-0.637301	0.816872	0.000012
N59	N	-0.303967	1.150205	0.333346
N60	N	0.029366	1.483538	0.666679
C61	C	-0.606196	0.753897	0.000017
C62	C	-0.272863	1.087231	0.333350
C63	C	0.060470	1.420564	0.666683
O64	O	-0.627253	0.699643	0.000026
O65	O	-0.293920	1.032976	0.333360
O66	O	0.039413	1.366310	0.666693
C67	C	-0.404529	0.756845	0.000011
C68	C	-0.071195	1.090178	0.333345
C69	C	0.262138	1.423512	0.666678
C70	C	-0.385216	0.820556	0.000002
C71	C	-0.051882	1.153889	0.333335
C72	C	0.281451	1.487223	0.666669
C73	C	-0.397002	0.947232	-0.000009
C74	C	-0.063669	1.280565	0.333325
C75	C	0.269664	1.613898	0.666658
C76	C	-0.346588	0.947968	-0.000015
C77	C	-0.013255	1.281301	0.333318
C78	C	0.320079	1.614634	0.666651
C79	C	-0.315488	0.884998	-0.000014
C80	C	0.017846	1.218331	0.333320
C81	C	0.351179	1.551665	0.666653
C82	C	-0.334801	0.821292	-0.000005
C83	C	-0.001468	1.154626	0.333328
C84	C	0.331865	1.487959	0.666662
C85	C	-0.373425	0.693871	0.000021
C86	C	-0.040092	1.027205	0.333354
C87	C	0.293241	1.360538	0.666688
C88	C	-0.323006	0.694614	0.000022
C89	C	0.010328	1.027947	0.333355
C90	C	0.343661	1.361281	0.666688
C91	C	-0.303693	0.758325	0.000012
C92	C	0.029641	1.091658	0.333345
C93	C	0.362974	1.424992	0.666679
C94	C	-0.253287	0.759059	-0.000010
C95	C	0.080047	1.092392	0.333324
C96	C	0.413380	1.425725	0.666657
N97	N	-0.233971	0.822765	-0.000012
N98	N	0.099363	1.156099	0.333322
N99	N	0.432696	1.489432	0.666655
C100	C	-0.265071	0.885735	-0.000014
C101	C	0.068262	1.219069	0.333320
C102	C	0.401596	1.552402	0.666653
C103	C	-0.712075	0.752354	0.000018
C104	C	-0.378742	1.085687	0.333351
C105	C	-0.045408	1.419021	0.666685
C106	C	-0.762492	0.751617	0.000018
C107	C	-0.429158	1.084950	0.333351
C108	C	-0.095825	1.418283	0.666685
C109	C	-0.774276	0.878299	0.000013
C110	C	-0.440943	1.211632	0.333347
C111	C	-0.107610	1.544965	0.666680
C112	C	-0.723859	0.879035	0.000008
C113	C	-0.390526	1.212368	0.333341
C114	C	-0.057192	1.545702	0.666675
C115	C	-0.692759	0.816061	0.000016
C116	C	-0.359426	1.149394	0.333349
C117	C	-0.026092	1.482728	0.666683
C118	C	-0.159197	0.887276	-0.000028
C119	C	0.174136	1.220610	0.333305
C120	C	0.507469	1.553943	0.666638
C121	C	-0.108778	0.888007	-0.000038
C122	C	0.224555	1.221340	0.333295
C123	C	0.557889	1.554674	0.666628
C124	C	-0.096998	0.761325	-0.000030
C125	C	0.236336	1.094659	0.333304
C126	C	0.569669	1.427992	0.666637
C127	C	-0.147412	0.760594	-0.000024
C128	C	0.185921	1.093928	0.333310
C129	C	0.519254	1.427261	0.666643
C130	C	-0.178511	0.823576	-0.000021
C131	C	0.154822	1.156909	0.333313
C132	C	0.488155	1.490242	0.666646
O133	O	-0.222164	0.705603	-0.000032
O134	O	0.111169	1.038937	0.333301
O135	O	0.444502	1.372270	0.666635
O136	O	-0.244005	0.939982	-0.000006
O137	O	0.089329	1.273315	0.333327
O138	O	0.422662	1.606648	0.666660
C139	C	-0.466730	0.882790	0.000007
C140	C	-0.133397	1.216123	0.333340
C141	C	0.199936	1.549456	0.666673
C142	C	-0.486044	0.819084	0.000015
C143	C	-0.152711	1.152417	0.333349
C144	C	0.180623	1.485751	0.666682
C145	C	-0.454943	0.756114	0.000017
C146	C	-0.121610	1.089447	0.333351
C147	C	0.211723	1.422781	0.666684
C148	C	-0.536461	0.818347	0.000015
C149	C	-0.203127	1.151680	0.333349
C150	C	0.130206	1.485013	0.666682
C151	C	-0.567561	0.881316	0.000013
C152	C	-0.234228	1.214650	0.333347
C153	C	0.099106	1.547983	0.666680
C154	C	-0.548245	0.945023	0.000012
C155	C	-0.214911	1.278357	0.333345
C156	C	0.118422	1.611690	0.666678
C157	C	-0.497831	0.945759	0.000005
C158	C	-0.164497	1.279093	0.333338
C159	C	0.168836	1.612426	0.666671
C160	C	-0.474260	0.692407	0.000019
C161	C	-0.140926	1.025741	0.333353
C162	C	0.192407	1.359074	0.666686
C163	C	-0.524674	0.691676	0.000025
C164	C	-0.191341	1.025010	0.333358
C165	C	0.141992	1.358343	0.666692
C166	C	-0.555775	0.754646	0.000023
C167	C	-0.222441	1.087979	0.333357
C168	C	0.110892	1.421313	0.666690
C169	C	0.152751	0.813792	0.000005
C170	C	0.486084	1.147126	0.333338
C171	C	0.819417	1.480459	0.666671
C172	C	0.206408	0.814587	0.000016
C173	C	0.539741	1.147920	0.333349
C174	C	0.873075	1.481253	0.666683
N175	N	0.064369	0.819797	-0.178169
N176	N	0.397702	1.153130	0.155165
N177	N	0.731035	1.486463	0.488498
C178	C	0.017664	1.068910	-0.000017
C179	C	0.350998	1.402243	0.333316
C180	C	0.684331	1.735576	0.666650
C181	C	0.018403	1.141352	-0.000021
C182	C	0.351736	1.474686	0.333312
C183	C	0.685069	1.808019	0.666646
C184	C	0.062824	1.168823	-0.000008
C185	C	0.396158	1.502156	0.333326
C186	C	0.729491	1.835489	0.666659
C187	C	0.106511	1.123844	-0.000010
C188	C	0.439844	1.457177	0.333324
C189	C	0.773177	1.790511	0.666657
C190	C	0.105771	1.051403	-0.000013
C191	C	0.439105	1.384737	0.333321
C192	C	0.772438	1.718070	0.666654
C193	C	0.097744	1.276887	0.043863
C194	C	0.431077	1.610220	0.377196
C195	C	0.764410	1.943553	0.710530
C196	C	0.098481	1.349327	0.043871
C197	C	0.431815	1.682660	0.377204
C198	C	0.765148	2.015993	0.710537
C199	C	0.065107	1.392254	-0.000001
C200	C	0.398440	1.725587	0.333332
C201	C	0.731773	2.058921	0.666666
C202	C	0.030986	1.362734	-0.043871
C203	C	0.364319	1.696068	0.289462
C204	C	0.697653	2.029401	0.622796
C205	C	0.030247	1.290293	-0.043874
C206	C	0.363580	1.623627	0.289459
C207	C	0.696913	1.956960	0.622792
C208	C	0.063631	1.247372	-0.000005
C209	C	0.396964	1.580705	0.333329
C210	C	0.730297	1.914038	0.666662
C211	C	0.022223	1.515774	-0.000009
C212	C	0.355556	1.849107	0.333324
C213	C	0.688890	2.182440	0.666657
C214	C	0.022963	1.588217	-0.000018
C215	C	0.356296	1.921551	0.333315
C216	C	0.689630	2.254884	0.666649
C217	C	0.111072	1.570707	0.000001
C218	C	0.444406	1.904041	0.333334
C219	C	0.777739	2.237374	0.666668
C220	C	0.110331	1.498266	0.000002
C221	C	0.443664	1.831599	0.333336
C222	C	0.776998	2.164932	0.666669
C223	C	0.065905	1.470803	0.000001
C224	C	0.399238	1.804137	0.333334
C225	C	0.732572	2.137470	0.666668
C226	C	0.093596	0.861643	-0.782452
C227	C	0.426929	1.194976	-0.449119
C228	C	0.760262	1.528310	-0.115785
C229	C	0.093600	0.861636	-0.703650
C230	C	0.426934	1.194969	-0.370317
C231	C	0.760267	1.528303	-0.036984
C232	C	0.064358	0.819827	-0.664258
C233	C	0.397692	1.153160	-0.330924
C234	C	0.731025	1.486494	0.002409
C235	C	0.035118	0.778008	-0.703673
C236	C	0.368452	1.111341	-0.370340
C237	C	0.701785	1.444675	-0.037007
C238	C	0.035118	0.778011	-0.782473
C239	C	0.368452	1.111344	-0.449140
C240	C	0.701785	1.444678	-0.115807
C241	C	0.020777	0.818372	-0.539422
C242	C	0.354110	1.151706	-0.206089
C243	C	0.687444	1.485039	0.127244
C244	C	0.020776	0.818374	-0.460624
C245	C	0.354110	1.151708	-0.127290
C246	C	0.687443	1.485041	0.206043
C247	C	0.064359	0.819814	-0.421211
C248	C	0.397693	1.153147	-0.087878
C249	C	0.731026	1.486481	0.245455
C250	C	0.107944	0.821266	-0.460608
C251	C	0.441277	1.154599	-0.127274
C252	C	0.774611	1.487933	0.206059
C253	C	0.107944	0.821269	-0.539408
C254	C	0.441277	1.154602	-0.206074
C255	C	0.774610	1.487935	0.127259
C256	C	0.064355	0.819819	-0.578812
C257	C	0.397689	1.153152	-0.245479
C258	C	0.731022	1.486485	0.087855
C259	C	0.093605	0.861619	-0.296359
C260	C	0.426938	1.194952	0.036974
C261	C	0.760272	1.528286	0.370307
C262	C	0.093611	0.861607	-0.217556
C263	C	0.426944	1.194940	0.115777
C264	C	0.760277	1.528274	0.449111
C265	C	0.035124	0.777983	-0.217580
C266	C	0.368457	1.111316	0.115753
C267	C	0.701791	1.444650	0.449086
C268	C	0.035123	0.777991	-0.296382
C269	C	0.368456	1.111324	0.036951
C270	C	0.701789	1.444658	0.370285
C271	C	0.064362	0.819813	-0.335767
C272	C	0.397696	1.153146	-0.002434
C273	C	0.731029	1.486479	0.330900
N274	N	0.064358	0.819833	0.178142
N275	N	0.397691	1.153166	0.511475
N276	N	0.731024	1.486499	0.844808
H277	H	-0.093056	0.939890	-0.000048
H278	H	0.240277	1.273224	0.333285
H279	H	0.573610	1.606557	0.666619
H280	H	-0.014715	0.817194	-0.571505
H281	H	0.318618	1.150527	-0.238172
H282	H	0.651951	1.483860	0.095161
N283	N	0.152880	1.002883	-0.000008
N284	N	0.486214	1.336216	0.333326
N285	N	0.819547	1.669549	0.666659
H286	H	0.154529	0.972436	-0.046417
H287	H	0.487862	1.305769	0.286917
H288	H	0.821195	1.639103	0.620250
H289	H	0.181114	1.031310	0.000024
H290	H	0.514447	1.364643	0.333358
H291	H	0.847781	1.697976	0.666691
H292	H	-0.014713	0.817197	-0.428553
H293	H	0.318620	1.150530	-0.095220
H294	H	0.651953	1.483864	0.238114
N295	N	0.125130	0.906744	-0.661138
N296	N	0.458464	1.240078	-0.327805
N297	N	0.791797	1.573411	0.005529
H298	H	0.120691	0.900398	-0.605242
H299	H	0.454025	1.233731	-0.271909
H300	H	0.787358	1.567064	0.061425
H301	H	0.160313	0.892653	-0.674902
H302	H	0.493646	1.225987	-0.341568
H303	H	0.826980	1.559320	-0.008235
H304	H	0.011310	0.743965	-0.671595
H305	H	0.344644	1.077298	-0.338261
H306	H	0.677977	1.410632	-0.004928
H307	H	-0.018511	1.046555	-0.000021
H308	H	0.314823	1.379889	0.333313
H309	H	0.648156	1.713222	0.666646
N310	N	0.125140	0.906738	-0.824928
N311	N	0.458473	1.240071	-0.491595
N312	N	0.791807	1.573405	-0.158262
H313	H	0.120705	0.900396	-0.880829
H314	H	0.454039	1.233729	-0.547495
H315	H	0.787372	1.567063	-0.214162
H316	H	0.115499	0.957356	-0.811151
H317	H	0.448833	1.290689	-0.477817
H318	H	0.782166	1.624022	-0.144484
N319	N	0.154956	0.822823	-0.418112
N320	N	0.488289	1.156156	-0.084778
N321	N	0.821622	1.489490	0.248555
H322	H	0.148345	0.822598	-0.362214
H323	H	0.481678	1.155931	-0.028881
H324	H	0.815011	1.489264	0.304452
H325	H	0.178374	0.780390	-0.431891
H326	H	0.511707	1.113723	-0.098558
H327	H	0.845040	1.447057	0.234775
H328	H	-0.389141	0.641991	0.000033
H329	H	-0.055808	0.975324	0.333367
H330	H	0.277526	1.308658	0.666700
H331	H	0.011309	0.743962	-0.814557
H332	H	0.344642	1.077296	-0.481224
H333	H	0.677975	1.410629	-0.147891
H334	H	0.002466	1.266261	-0.079596
H335	H	0.335799	1.599595	0.253737
H336	H	0.669132	1.932928	0.587070
N337	N	-0.028712	1.189867	-0.000025
N338	N	0.304622	1.523200	0.333308
N339	N	0.637955	1.856533	0.666642
H340	H	-0.056967	1.161477	-0.000028
H341	H	0.276366	1.494810	0.333306
H342	H	0.609700	1.828143	0.666639
H343	H	-0.030320	1.220304	0.046386
H344	H	0.303013	1.553638	0.379720
H345	H	0.636347	1.886971	0.713053
N346	N	-0.005017	1.409024	-0.091190
N347	N	0.328316	1.742357	0.242143
N348	N	0.661649	2.075690	0.575477
H349	H	0.000628	1.459394	-0.084536
H350	H	0.333962	1.792727	0.248798
H351	H	0.667295	2.126060	0.582131
H352	H	-0.000628	1.395458	-0.145896
H353	H	0.332706	1.728791	0.187437
H354	H	0.666039	2.062125	0.520771
H355	H	-0.799607	0.929571	0.000011
H356	H	-0.466274	1.262904	0.333345
H357	H	-0.132941	1.596238	0.666678
H358	H	0.126261	1.373356	0.079598
H359	H	0.459594	1.706690	0.412932
H360	H	0.792927	2.040023	0.746265
N361	N	-0.289462	0.626690	0.000034
N362	N	0.043871	0.960023	0.333367
N363	N	0.377204	1.293357	0.666701
H364	H	-0.309351	0.586223	0.000040
H365	H	0.023982	0.919556	0.333374
H366	H	0.357316	1.252889	0.666707
H367	H	-0.268292	0.624226	-0.046377
H368	H	0.065042	0.957559	0.286957
H369	H	0.398375	1.290892	0.620290
N370	N	-0.025690	1.486147	-0.000014
N371	N	0.307643	1.819480	0.333320
N372	N	0.640976	2.152813	0.666653
H373	H	-0.053251	1.525630	-0.000022
H374	H	0.280082	1.858963	0.333311
H375	H	0.613415	2.192297	0.666645
H376	H	-0.027915	1.456466	-0.046422
H377	H	0.305418	1.789799	0.286911
H378	H	0.638752	2.123133	0.620245
H379	H	-0.482111	0.997640	-0.000003
H380	H	-0.148778	1.330973	0.333331
H381	H	0.184556	1.664306	0.666664
H382	H	-0.184513	0.938562	-0.000023
H383	H	0.148821	1.271895	0.333310
H384	H	0.482154	1.605228	0.666644
H385	H	-0.163138	0.708716	-0.000037
H386	H	0.170196	1.042049	0.333296
H387	H	0.503529	1.375382	0.666630
H388	H	0.143432	0.822449	-0.571481
H389	H	0.476765	1.155782	-0.238148
H390	H	0.810098	1.489116	0.095186
H391	H	-0.330868	0.999848	-0.000020
H392	H	0.002465	1.333181	0.333313
H393	H	0.335798	1.666515	0.666647
N394	N	-0.063442	0.693417	-0.000042
N395	N	0.269891	1.026750	0.333292
N396	N	0.603225	1.360084	0.666625
H397	H	-0.042255	0.690910	0.046362
H398	H	0.291079	1.024243	0.379695
H399	H	0.624412	1.357576	0.713028
H400	H	-0.083352	0.652976	-0.000068
H401	H	0.249981	0.986309	0.333265
H402	H	0.583314	1.319643	0.666599
N403	N	-0.581794	1.012942	0.000003
N404	N	-0.248460	1.346275	0.333336
N405	N	0.084873	1.679609	0.666669
H406	H	-0.616662	1.002801	0.000007
H407	H	-0.283328	1.336134	0.333340
H408	H	0.050005	1.669467	0.666674
H409	H	-0.575554	1.040737	0.046410
H410	H	-0.242220	1.374071	0.379743
H411	H	0.091113	1.707404	0.713076
H412	H	-0.448942	0.641128	0.000022
H413	H	-0.115609	0.974462	0.333356
H414	H	0.217725	1.307795	0.666689
H415	H	0.145901	1.461651	0.000009
H416	H	0.479234	1.794984	0.333343
H417	H	0.812568	2.128317	0.666676
N418	N	-0.703030	0.947751	-0.000003
N419	N	-0.369696	1.281084	0.333330
N420	N	-0.036363	1.614417	0.666664
H421	H	-0.730386	0.987526	-0.000006
H422	H	-0.397053	1.320860	0.333327
H423	H	-0.063720	1.654193	0.666660
H424	H	-0.682367	0.950826	0.046407
H425	H	-0.349033	1.284159	0.379740
H426	H	-0.015700	1.617493	0.713073
N427	N	-0.678538	0.684424	0.000018
N428	N	-0.345205	1.017757	0.333351
N429	N	-0.011872	1.351091	0.666685
H430	H	-0.657361	0.681899	-0.046390
H431	H	-0.324028	1.015232	0.286943
H432	H	0.009306	1.348565	0.620277
H433	H	-0.657385	0.681942	0.046456
H434	H	-0.324052	1.015276	0.379789
H435	H	0.009281	1.348609	0.713122
N436	N	-0.430542	1.015155	-0.000012
N437	N	-0.097209	1.348488	0.333322
N438	N	0.236125	1.681822	0.666655
H439	H	-0.410649	1.055617	-0.000018
H440	H	-0.077315	1.388951	0.333316
H441	H	0.256018	1.722284	0.666649
H442	H	-0.451718	1.017604	-0.046423
H443	H	-0.118384	1.350938	0.286910
H444	H	0.214949	1.684271	0.620243
N445	N	0.125143	0.906719	-0.338846
N446	N	0.458476	1.240053	-0.005512
N447	N	0.791809	1.573386	0.327821
H448	H	0.143670	0.933201	-0.301921
H449	H	0.477003	1.266534	0.031412
H450	H	0.810336	1.599868	0.364745
H451	H	0.148825	0.876182	-0.371543
H452	H	0.482159	1.209515	-0.038209
H453	H	0.815492	1.542848	0.295124
N454	N	0.133747	1.230588	0.091177
N455	N	0.467081	1.563922	0.424510
N456	N	0.800414	1.897255	0.757843
H457	H	0.155472	1.260280	0.118971
H458	H	0.488805	1.593613	0.452304
H459	H	0.822138	1.926946	0.785637
H460	H	0.115655	1.204065	0.128634
H461	H	0.448988	1.537399	0.461968
H462	H	0.782322	1.870732	0.795301
N463	N	0.158988	1.600319	0.000013
N464	N	0.492321	1.933652	0.333347
N465	N	0.825655	2.266985	0.666680
H466	H	0.161261	1.629981	-0.046393
H467	H	0.494594	1.963314	0.286940
H468	H	0.827928	2.296647	0.620274
H469	H	0.161231	1.629952	0.046453
H470	H	0.494564	1.963286	0.379786
H471	H	0.827898	2.296619	0.713119
N472	N	-0.783315	0.682897	0.000011
N473	N	-0.449981	1.016230	0.333344
N474	N	-0.116648	1.349563	0.666677
H475	H	-0.771958	0.655340	0.046419
H476	H	-0.438625	0.988673	0.379752
H477	H	-0.105292	1.322006	0.713086
H478	H	-0.819970	0.692031	-0.000020
H479	H	-0.486636	1.025365	0.333313
H480	H	-0.153303	1.358698	0.666647
N481	N	-0.545502	0.622955	0.000023
N482	N	-0.212169	0.956288	0.333356
N483	N	0.121165	1.289622	0.666690
H484	H	-0.518145	0.583179	0.000023
H485	H	-0.184812	0.916513	0.333356
H486	H	0.148521	1.249846	0.666690
H487	H	-0.566157	0.619892	0.046435
H488	H	-0.232824	0.953225	0.379768
H489	H	0.100509	1.286558	0.713101
H490	H	0.117423	0.895653	-0.185473
H491	H	0.450756	1.228986	0.147860
H492	H	0.784089	1.562319	0.481194
N493	N	-0.024153	1.636721	-0.000014
N494	N	0.309180	1.970055	0.333319
N495	N	0.642513	2.303388	0.666652
H496	H	-0.016945	1.686780	-0.000015
H497	H	0.316388	2.020114	0.333318
H498	H	0.649722	2.353447	0.666652
H499	H	-0.043523	1.627878	-0.046423
H500	H	0.289810	1.961212	0.286910
H501	H	0.623144	2.294545	0.620244
N502	N	0.154423	1.153468	0.000001
N503	N	0.487757	1.486801	0.333334
N504	N	0.821090	1.820134	0.666668
H505	H	0.148264	1.206183	0.000005
H506	H	0.481597	1.539516	0.333339
H507	H	0.814931	1.872849	0.666672
H508	H	0.173531	1.136983	0.046412
H509	H	0.506865	1.470317	0.379746
H510	H	0.840198	1.803650	0.713079
N511	N	0.003587	0.732882	-0.175104
N512	N	0.336921	1.066215	0.158229
N513	N	0.670254	1.399548	0.491562
H514	H	0.008025	0.739222	-0.119204
H515	H	0.341358	1.072555	0.214129
H516	H	0.674691	1.405888	0.547462
H517	H	-0.031594	0.746982	-0.188881
H518	H	0.301740	1.080315	0.144453
H519	H	0.635073	1.413649	0.477786
H520	H	0.011312	0.743948	-0.328467
H521	H	0.344645	1.077281	0.004866
H522	H	0.677978	1.410614	0.338200
