data_functionalizedCrystal
_audit_creation_method	'MofGen! by Chris Wilmer'
_symmetry_space_group_name_H-M	'P1'
_symmetry_Int_Tables_number	1
_symmetry_cell_setting	triclinic
loop_
_symmetry_equiv_pos_as_xyz
  x,y,z
_cell_length_a	27.731993
_cell_length_b	27.732048
_cell_length_c	13.930277
_cell_angle_alpha	89.990485
_cell_angle_beta	90.004327
_cell_angle_gamma	82.631525
loop_
_atom_site_label
_atom_site_type_symbol
_atom_site_fract_x
_atom_site_fract_y
_atom_site_fract_z
O1	O	0.640946	0.057391	-0.079583
O2	O	1.140946	0.557391	0.420417
O3	O	0.500149	0.066164	-0.079643
O4	O	1.000149	0.566164	0.420357
O5	O	0.574921	-0.008620	-0.079593
O6	O	1.074921	0.491380	0.420407
O7	O	0.566175	0.132175	-0.079633
O8	O	1.066175	0.632175	0.420367
O9	O	0.574910	-0.008622	0.080069
O10	O	1.074910	0.491378	0.580069
O11	O	0.500139	0.066163	0.080019
O12	O	1.000139	0.566163	0.580019
O13	O	0.640936	0.057390	0.080079
O14	O	1.140936	0.557390	0.580079
Zn15	Zn	0.570536	0.061776	0.105399
Zn16	Zn	1.070536	0.561776	0.605399
Zn17	Zn	0.570549	0.061778	-0.104963
Zn18	Zn	1.070549	0.561778	0.395037
O19	O	0.566165	0.132174	0.080029
O20	O	1.066165	0.632174	0.580029
C21	C	0.482137	0.065983	0.000181
C22	C	0.982137	0.565983	0.500181
C23	C	0.428480	0.065441	0.000159
C24	C	0.928480	0.565441	0.500159
C25	C	0.045326	0.061511	-0.086825
C26	C	0.545326	0.561511	0.413175
C27	C	0.246983	0.063578	-0.086852
C28	C	0.746983	0.563578	0.413148
O29	O	0.273061	0.063827	-0.160871
O30	O	0.773061	0.563827	0.339129
N31	N	0.272198	0.063836	0.000178
N32	N	0.772198	0.563836	0.500178
C33	C	0.246995	0.063574	0.087220
C34	C	0.746995	0.563574	0.587220
O35	O	0.273070	0.063836	0.161243
O36	O	0.773070	0.563836	0.661243
C37	C	0.045339	0.061503	0.087246
C38	C	0.545339	0.561503	0.587246
C39	C	0.020127	0.061251	0.000210
C40	C	0.520127	0.561251	0.500210
C41	C	0.020113	0.061258	-0.173854
C42	C	0.520113	0.561258	0.326146
C43	C	-0.030299	0.060744	-0.173846
C44	C	0.469701	0.560744	0.326154
C45	C	-0.055498	0.060483	-0.086810
C46	C	0.444502	0.560483	0.413190
C47	C	-0.030285	0.060736	0.000218
C48	C	0.469715	0.560736	0.500218
C49	C	0.020139	0.061238	0.174287
C50	C	0.520139	0.561238	0.674287
C51	C	-0.030278	0.060719	0.174286
C52	C	0.469722	0.560719	0.674286
C53	C	-0.055491	0.060466	0.087250
C54	C	0.444509	0.560466	0.587250
C55	C	-0.105896	0.059962	0.087261
C56	C	0.394104	0.559962	0.587261
N57	N	-0.131110	0.059704	0.000232
N58	N	0.368890	0.559704	0.500232
C59	C	-0.105911	0.059965	-0.086804
C60	C	0.394089	0.559965	0.413196
C61	C	0.352868	0.064662	0.087200
C62	C	0.852868	0.564662	0.587200
C63	C	0.403281	0.065180	0.087194
C64	C	0.903281	0.565180	0.587194
C65	C	0.403266	0.065184	-0.086878
C66	C	0.903266	0.565184	0.413122
C67	C	0.352851	0.064669	-0.086871
C68	C	0.852851	0.564669	0.413129
C69	C	0.327653	0.064404	0.000171
C70	C	0.827653	0.564404	0.500171
C71	C	-0.211780	0.058885	-0.086782
C72	C	0.288220	0.558885	0.413218
C73	C	-0.262196	0.058373	-0.086767
C74	C	0.237804	0.558373	0.413233
C75	C	-0.262176	0.058367	0.087305
C76	C	0.237824	0.558367	0.587305
C77	C	-0.211764	0.058882	0.087291
C78	C	0.288236	0.558882	0.587291
C79	C	-0.186567	0.059139	0.000239
C80	C	0.313433	0.559139	0.500239
O81	O	-0.132004	0.059707	0.161241
O82	O	0.367996	0.559707	0.661241
O83	O	-0.131993	0.059692	-0.160817
O84	O	0.368007	0.559692	0.339183
C85	C	0.095737	0.062025	-0.086833
C86	C	0.595737	0.562025	0.413167
C87	C	0.120950	0.062279	0.000195
C88	C	0.620950	0.562279	0.500195
C89	C	0.095751	0.062018	0.087231
C90	C	0.595751	0.562018	0.587231
C91	C	0.171364	0.062797	0.000189
C92	C	0.671364	0.562797	0.500189
C93	C	0.196563	0.063058	-0.086847
C94	C	0.696563	0.563058	0.413153
C95	C	0.171348	0.062800	-0.173876
C96	C	0.671348	0.562800	0.326124
C97	C	0.120936	0.062286	-0.173869
C98	C	0.620936	0.562286	0.326131
C99	C	0.120966	0.062276	0.174261
C100	C	0.620966	0.562276	0.674261
C101	C	0.171377	0.062790	0.174246
C102	C	0.671377	0.562790	0.674246
C103	C	0.196576	0.063051	0.087210
C104	C	0.696576	0.563051	0.587210
C105	C	0.574732	-0.026628	0.000241
C106	C	1.074732	0.473372	0.500241
C107	C	0.574179	-0.080282	0.000248
C108	C	1.074179	0.419718	0.500248
C109	C	0.614884	-0.419105	0.000217
C110	C	1.114884	0.080895	0.500217
C111	C	0.612833	-0.620765	0.000202
C112	C	1.112833	-0.120765	0.500202
O113	O	0.650055	-0.652028	0.000176
O114	O	1.150055	-0.152028	0.500176
N115	N	0.568497	-0.639880	0.000184
N116	N	1.068497	-0.139880	0.500184
C117	C	0.524670	-0.608576	0.000164
C118	C	1.024670	-0.108576	0.500164
O119	O	0.486912	-0.629462	0.000138
O120	O	0.986912	-0.129462	0.500138
C121	C	0.526721	-0.406918	0.000171
C122	C	1.026721	0.093082	0.500171
C123	C	0.571061	-0.387806	0.000199
C124	C	1.071061	0.112194	0.500199
C125	C	0.659220	-0.399993	0.000243
C126	C	1.159220	0.100007	0.500243
C127	C	0.659732	-0.349581	0.000252
C128	C	1.159732	0.150419	0.500252
C129	C	0.615909	-0.318282	0.000234
C130	C	1.115909	0.181718	0.500234
C131	C	0.571573	-0.337394	0.000207
C132	C	1.071573	0.162606	0.500207
C133	C	0.482895	-0.375616	0.000143
C134	C	0.982895	0.124384	0.500143
C135	C	0.483412	-0.325199	0.000143
C136	C	0.983412	0.174801	0.500143
C137	C	0.527751	-0.306087	0.000170
C138	C	1.027751	0.193913	0.500170
C139	C	0.528262	-0.255683	0.000198
C140	C	1.028262	0.244317	0.500198
N141	N	0.572598	-0.236568	0.000216
N142	N	1.072598	0.263432	0.500216
C143	C	0.616422	-0.267867	0.000234
C144	C	1.116422	0.232133	0.500234
C145	C	0.523596	-0.714450	0.000162
C146	C	1.023596	-0.214450	0.500162
C147	C	0.523083	-0.764865	0.000161
C148	C	1.023083	-0.264865	0.500161
C149	C	0.611246	-0.777049	0.000198
C150	C	1.111246	-0.277049	0.500198
C151	C	0.611759	-0.726634	0.000205
C152	C	1.111759	-0.226634	0.500205
C153	C	0.567932	-0.695335	0.000180
C154	C	1.067932	-0.195335	0.500180
C155	C	0.617494	-0.161998	0.000254
C156	C	1.117494	0.338002	0.500254
C157	C	0.618003	-0.111582	0.000266
C158	C	1.118003	0.388418	0.500266
C159	C	0.529839	-0.099401	0.000224
C160	C	1.029839	0.400599	0.500224
C161	C	0.529331	-0.149814	0.000217
C162	C	1.029331	0.350186	0.500217
C163	C	0.573162	-0.181112	0.000228
C164	C	1.073162	0.318888	0.500228
O165	O	0.491060	-0.224392	0.000214
O166	O	0.991060	0.275608	0.500214
O167	O	0.654174	-0.246972	0.000238
O168	O	1.154174	0.253028	0.500238
C169	C	0.614372	-0.469517	0.000208
C170	C	1.114372	0.030483	0.500208
C171	C	0.570036	-0.488630	0.000181
C172	C	1.070036	0.011370	0.500181
C173	C	0.526213	-0.457331	0.000163
C174	C	1.026213	0.042669	0.500163
C175	C	0.569523	-0.539044	0.000181
C176	C	1.069523	-0.039044	0.500181
C177	C	0.613346	-0.570343	0.000199
C178	C	1.113346	-0.070343	0.500199
C179	C	0.657683	-0.551228	0.000217
C180	C	1.157683	-0.051228	0.500217
C181	C	0.658195	-0.500817	0.000226
C182	C	1.158195	-0.000817	0.500226
C183	C	0.481876	-0.476446	0.000145
C184	C	0.981876	0.023554	0.500145
C185	C	0.481368	-0.526858	0.000137
C186	C	0.981368	-0.026858	0.500137
C187	C	0.525191	-0.558157	0.000155
C188	C	1.025191	-0.058157	0.500155
C189	C	0.658949	0.057570	0.000253
C190	C	1.158949	0.557570	0.500253
C191	C	0.712605	0.058113	0.000269
C192	C	1.212605	0.558113	0.500269
C193	C	0.566353	0.150181	0.000193
C194	C	1.066353	0.650181	0.500193
C195	C	0.566906	0.203836	0.000179
C196	C	1.066906	0.703836	0.500179
N197	N	0.570530	0.061774	0.248965
N198	N	1.070530	0.561774	0.748965
N199	N	0.570559	0.061776	-0.248529
N200	N	1.070559	0.561776	0.251471
C201	C	0.537439	0.094879	0.701212
C202	C	1.037439	0.594879	1.201212
C203	C	0.603673	0.028672	0.701226
C204	C	1.103673	0.528672	1.201226
C205	C	0.603667	0.028671	0.600730
C206	C	1.103667	0.528671	1.100730
C207	C	0.570547	0.061775	0.550471
C208	C	1.070547	0.561775	1.050471
C209	C	0.537434	0.094880	0.600707
C210	C	1.037434	0.594880	1.100707
C211	C	0.636783	-0.004430	0.550486
C212	C	1.136783	0.495570	1.050486
C213	C	0.636779	-0.004433	0.449984
C214	C	1.136779	0.495567	0.949984
C215	C	0.603657	0.028669	0.399723
C216	C	1.103657	0.528669	0.899723
C217	C	0.570542	0.061775	0.449966
C218	C	1.070542	0.561775	0.949966
C219	C	0.537422	0.094879	0.399706
C220	C	1.037422	0.594879	0.899706
C221	C	0.504304	0.127983	0.449947
C222	C	1.004304	0.627983	0.949947
C223	C	0.504311	0.127982	0.550446
C224	C	1.004311	0.627982	1.050446
C225	C	0.603650	0.028670	0.299224
C226	C	1.103650	0.528670	0.799224
C227	C	0.537416	0.094879	0.299201
C228	C	1.037416	0.594879	0.799201
H229	H	-0.050822	0.060536	-0.244719
H230	H	0.449178	0.560536	0.255281
F231	F	0.435702	-0.395945	0.000110
F232	F	0.935702	0.104055	0.500110
H233	H	0.630616	0.001720	0.258323
H234	H	1.130616	0.501720	0.758323
H235	H	0.100454	0.062061	0.245137
H236	H	0.600454	0.562061	0.745137
F237	F	-0.184970	0.059159	-0.179432
F238	F	0.315030	0.559159	0.320568
F239	F	0.434172	-0.547192	0.000114
F240	F	0.934172	-0.047192	0.500114
H241	H	-0.050792	0.060508	0.245167
H242	H	0.449208	0.560508	0.745167
F243	F	-0.289027	0.058106	-0.179405
F244	F	0.210973	0.558106	0.320595
F245	F	0.435231	-0.443141	0.000123
F246	F	0.935231	0.056859	0.500123
F247	F	0.665196	-0.091245	0.000295
F248	F	1.165196	0.408755	0.500295
F249	F	0.672025	-0.039665	0.396521
F250	F	1.172025	0.460335	0.896521
H251	H	0.040625	0.061468	-0.244733
H252	H	0.540625	0.561468	0.255267
F253	F	0.326022	0.064399	-0.179505
F254	F	0.826022	0.564399	0.320495
F255	F	0.430108	0.065459	0.179829
F256	F	0.930108	0.565459	0.679829
H257	H	0.040658	0.061442	0.245161
H258	H	0.540658	0.561442	0.745161
H259	H	-0.191236	0.059097	0.158162
H260	H	0.308764	0.559097	0.658162
H261	H	0.646929	-0.802542	0.000213
H262	H	1.146929	-0.302542	0.500213
F263	F	0.705387	-0.480483	0.000249
F264	F	1.205387	0.019517	0.500249
F265	F	0.430092	0.065463	-0.179509
F266	F	0.930092	0.565463	0.320491
H267	H	0.487905	-0.688970	0.000141
H268	H	0.987905	-0.188970	0.500141
F269	F	0.326056	0.064385	0.179849
F270	F	0.826056	0.564385	0.679849
H271	H	0.510444	0.121835	0.258286
H272	H	1.010444	0.621835	0.758286
F273	F	-0.289003	0.058092	0.179930
F274	F	0.210997	0.558092	0.679930
F275	F	0.672033	-0.039657	0.603975
F276	F	1.172033	0.460343	1.103975
F277	F	0.094109	0.062016	-0.266505
F278	F	0.594109	0.562016	0.233495
H279	H	0.494160	-0.073909	0.000213
H280	H	0.994160	0.426091	0.500213
F281	F	0.469068	0.163212	0.603919
F282	F	0.969068	0.663212	1.103919
H283	H	0.477340	0.154939	0.409014
H284	H	0.977340	0.654939	0.909014
F285	F	0.198175	0.063080	-0.266506
F286	F	0.698175	0.563080	0.233494
F287	F	0.502192	0.130108	0.754679
F288	F	1.002192	0.630108	1.254679
F289	F	0.198205	0.063063	0.266888
F290	F	0.698205	0.563063	0.766888
F291	F	0.664144	-0.195301	0.000265
F292	F	1.164144	0.304699	0.500265
H293	H	0.630640	0.001723	0.742150
H294	H	1.130640	0.501723	1.242150
H295	H	0.695838	-0.334025	0.000271
H296	H	1.195838	0.165975	0.500271
H297	H	0.694908	-0.425472	0.000254
H298	H	1.194908	0.074528	0.500254
H299	H	0.647864	-0.711077	0.000227
H300	H	1.147864	-0.211077	0.500227
H301	H	0.486977	-0.780421	0.000155
H302	H	0.986977	-0.280421	0.500155
H303	H	0.447722	-0.299717	0.000120
H304	H	0.947722	0.200283	0.500120
H305	H	0.493226	-0.165375	0.000221
H306	H	0.993226	0.334625	0.500221
F307	F	0.704323	-0.584548	0.000241
F308	F	1.204323	-0.084548	0.500241
