data_functionalizedCrystal
_audit_creation_method	'MofGen! by Chris Wilmer'
_symmetry_space_group_name_H-M	'P1'
_symmetry_Int_Tables_number	1
_symmetry_cell_setting	triclinic
loop_
_symmetry_equiv_pos_as_xyz
  x,y,z
_cell_length_a	9.065218
_cell_length_b	11.792254
_cell_length_c	8.140239
_cell_angle_alpha	90.001420
_cell_angle_beta	90.001330
_cell_angle_gamma	84.607241
loop_
_atom_site_label
_atom_site_type_symbol
_atom_site_fract_x
_atom_site_fract_y
_atom_site_fract_z
O1	O	0.202310	1.508017	0.136605
O2	O	0.535643	1.841351	0.469938
O3	O	0.868977	2.174684	0.803272
O4	O	0.223132	1.177794	0.136608
O5	O	0.556465	1.511127	0.469941
O6	O	0.889799	1.844460	0.803275
O7	O	-0.001985	1.349731	0.136603
O8	O	0.331348	1.683065	0.469936
O9	O	0.664682	2.016398	0.803270
O10	O	0.427427	1.336080	0.136610
O11	O	0.760760	1.669413	0.469943
O12	O	1.094094	2.002747	0.803277
O13	O	-0.001987	1.349726	-0.136624
O14	O	0.331347	1.683059	0.196709
O15	O	0.664680	2.016392	0.530043
O16	O	0.223130	1.177788	-0.136619
O17	O	0.556464	1.511121	0.196714
O18	O	0.889797	1.844455	0.530047
O19	O	0.202309	1.508012	-0.136622
O20	O	0.535642	1.841345	0.196711
O21	O	0.868975	2.174679	0.530045
Zn22	Zn	0.212719	1.342899	-0.180001
Zn23	Zn	0.546052	1.676232	0.153332
Zn24	Zn	0.879386	2.009566	0.486665
Zn25	Zn	0.212721	1.342906	0.179987
Zn26	Zn	0.546055	1.676240	0.513320
Zn27	Zn	0.879388	2.009573	0.846654
O28	O	0.427425	1.336074	-0.136617
O29	O	0.760759	1.669408	0.196716
O30	O	1.094092	2.002741	0.530049
C31	C	0.221819	1.135493	-0.000005
C32	C	0.555153	1.468826	0.333328
C33	C	0.888486	1.802160	0.666661
C34	C	0.217894	1.009458	-0.000004
C35	C	0.551227	1.342792	0.333329
C36	C	0.884560	1.676125	0.666663
C37	C	0.214704	0.907104	0.000003
C38	C	0.548037	1.240437	0.333336
C39	C	0.881370	1.573771	0.666670
C40	C	0.210715	0.778695	0.000004
C41	C	0.544048	1.112029	0.333337
C42	C	0.877382	1.445362	0.666671
C43	C	-0.056960	1.348416	-0.000008
C44	C	0.276373	1.681750	0.333325
C45	C	0.609706	2.015083	0.666659
C46	C	-0.220767	1.344494	0.000000
C47	C	0.112567	1.677827	0.333333
C48	C	0.445900	2.011160	0.666667
C49	C	0.482401	1.337389	-0.000003
C50	C	0.815734	1.670722	0.333331
C51	C	1.149067	2.004056	0.666664
C52	C	0.646207	1.341312	0.000000
C53	C	0.979540	1.674645	0.333333
C54	C	1.312874	2.007979	0.666667
C55	C	0.203621	1.550313	-0.000005
C56	C	0.536954	1.883646	0.333328
C57	C	0.870288	2.216979	0.666661
C58	C	0.207547	1.676347	0.000004
C59	C	0.540880	2.009681	0.333338
C60	C	0.874214	2.343014	0.666671
N61	N	0.212717	1.342902	-0.425684
N62	N	0.546050	1.676236	-0.092351
N63	N	0.879384	2.009569	0.240983
N64	N	0.212712	1.342912	0.425670
N65	N	0.546045	1.676245	0.759003
N66	N	0.879379	2.009579	1.092336
