data_functionalizedCrystal
_audit_creation_method	'MofGen! by Chris Wilmer'
_symmetry_space_group_name_H-M	'P1'
_symmetry_Int_Tables_number	1
_symmetry_cell_setting	triclinic
loop_
_symmetry_equiv_pos_as_xyz
  x,y,z
_cell_length_a	21.295420
_cell_length_b	25.639233
_cell_length_c	21.295417
_cell_angle_alpha	89.980184
_cell_angle_beta	90.025484
_cell_angle_gamma	89.986550
loop_
_atom_site_label
_atom_site_type_symbol
_atom_site_fract_x
_atom_site_fract_y
_atom_site_fract_z
Zn1	Zn	0.962290	-0.295617	-0.250757
Zn2	Zn	1.295623	0.037717	0.082577
Zn3	Zn	1.628956	0.371050	0.415910
Zn4	Zn	0.962214	-0.208179	-0.356007
Zn5	Zn	1.295547	0.125154	-0.022674
Zn6	Zn	1.628881	0.458487	0.310660
Zn7	Zn	0.857033	-0.208194	-0.250748
Zn8	Zn	1.190367	0.125139	0.082585
Zn9	Zn	1.523700	0.458473	0.415919
Zn10	Zn	0.856984	-0.295583	-0.355984
Zn11	Zn	1.190317	0.037751	-0.022651
Zn12	Zn	1.523650	0.371084	0.310682
O13	O	0.909630	-0.251893	-0.303374
O14	O	1.242963	0.081440	0.029959
O15	O	1.576297	0.414773	0.363293
O16	O	1.050369	-0.284026	-0.264732
O17	O	1.383702	0.049307	0.068602
O18	O	1.717036	0.382641	0.401935
O19	O	0.948251	-0.135016	-0.342050
O20	O	1.281584	0.198317	-0.008717
O21	O	1.614917	0.531650	0.324617
O22	O	0.871048	-0.219811	-0.162660
O23	O	1.204382	0.113522	0.170674
O24	O	1.537715	0.446855	0.504007
O25	O	1.050313	-0.219786	-0.342059
O26	O	1.383647	0.113547	-0.008725
O27	O	1.716980	0.446880	0.324608
O28	O	0.948380	-0.284040	-0.162666
O29	O	1.281713	0.049293	0.170667
O30	O	1.615046	0.382626	0.504001
O31	O	0.870975	-0.135027	-0.264717
O32	O	1.204308	0.198306	0.068617
O33	O	1.537642	0.531640	0.401950
O34	O	0.768937	-0.219778	-0.264695
O35	O	1.102271	0.113555	0.068639
O36	O	1.435604	0.446888	0.401972
O37	O	0.870964	-0.368752	-0.342020
O38	O	1.204297	-0.035419	-0.008686
O39	O	1.537630	0.297914	0.324647
O40	O	0.768901	-0.283982	-0.342011
O41	O	1.102234	0.049351	-0.008678
O42	O	1.435568	0.382684	0.324656
O43	O	0.948331	-0.368777	-0.264709
O44	O	1.281665	-0.035444	0.068624
O45	O	1.614998	0.297889	0.401957
O46	O	0.948203	-0.219753	-0.444093
O47	O	1.281536	0.113580	-0.110760
O48	O	1.614869	0.446913	0.222573
O49	O	0.870890	-0.283968	-0.444077
O50	O	1.204224	0.049365	-0.110743
O51	O	1.537557	0.382699	0.222590
C52	C	0.746079	-0.251879	-0.303350
C53	C	1.079412	0.081455	0.029983
C54	C	1.412745	0.414788	0.363317
C55	C	0.676110	-0.251885	-0.303355
C56	C	1.009444	0.081449	0.029979
C57	C	1.342777	0.414782	0.363312
C58	C	0.176681	-0.285405	-0.263205
C59	C	0.510014	0.047928	0.070129
C60	C	0.843347	0.381262	0.403462
C61	C	0.242423	-0.285405	-0.263200
C62	C	0.575757	0.047928	0.070133
C63	C	0.909090	0.381262	0.403467
C64	C	0.275271	-0.251905	-0.303393
C65	C	0.608604	0.081428	0.029940
C66	C	0.941938	0.414761	0.363274
C67	C	0.242371	-0.218413	-0.343605
C68	C	0.575704	0.114920	-0.010272
C69	C	0.909037	0.448254	0.323061
C70	C	0.176630	-0.218418	-0.343613
C71	C	0.509963	0.114916	-0.010280
C72	C	0.843296	0.448249	0.323053
N73	N	0.378472	-0.206124	-0.308128
N74	N	0.711805	0.127209	0.025205
N75	N	1.045138	0.460542	0.358539
N76	N	0.440923	-0.206121	-0.308117
N77	N	0.774256	0.127212	0.025217
N78	N	1.107590	0.460545	0.358550
C79	C	0.473346	-0.251890	-0.303372
C80	C	0.806679	0.081443	0.029961
C81	C	1.140012	0.414777	0.363294
N82	N	0.440958	-0.297663	-0.298627
N83	N	0.774291	0.035670	0.034706
N84	N	1.107624	0.369004	0.368039
N85	N	0.378500	-0.297665	-0.298635
N86	N	0.711834	0.035668	0.034698
N87	N	1.045167	0.369001	0.368031
C88	C	0.346556	-0.251897	-0.303389
C89	C	0.679890	0.081436	0.029944
C90	C	1.013223	0.414770	0.363277
C91	C	0.577524	-0.285383	-0.263161
C92	C	0.910857	0.047950	0.070173
C93	C	1.244190	0.381284	0.403506
C94	C	0.643267	-0.285384	-0.263160
C95	C	0.976601	0.047949	0.070173
C96	C	1.309934	0.381283	0.403506
C97	C	0.643214	-0.218387	-0.343562
C98	C	0.976547	0.114946	-0.010229
C99	C	1.309880	0.448280	0.323104
C100	C	0.577471	-0.218391	-0.343566
C101	C	0.910804	0.114942	-0.010233
C102	C	1.244138	0.448276	0.323101
C103	C	0.544630	-0.251888	-0.303362
C104	C	0.877963	0.081445	0.029972
C105	C	1.211297	0.414778	0.363305
C106	C	0.909650	-0.388266	-0.303363
C107	C	1.242984	-0.054933	0.029970
C108	C	1.576317	0.278400	0.363304
C109	C	0.909659	-0.446380	-0.303358
C110	C	1.242992	-0.113047	0.029975
C111	C	1.576326	0.220286	0.363308
C112	C	0.949996	-0.806762	-0.262983
C113	C	1.283329	-0.473429	0.070350
C114	C	1.616662	-0.140096	0.403684
C115	C	0.950003	-0.861367	-0.262966
C116	C	1.283337	-0.528033	0.070368
C117	C	1.616670	-0.194700	0.403701
O118	O	0.984248	-0.889619	-0.228712
O119	O	1.317581	-0.556286	0.104622
O120	O	1.650915	-0.222953	0.437955
N121	N	0.909728	-0.888663	-0.303211
N122	N	1.243062	-0.555330	0.030123
N123	N	1.576395	-0.221996	0.363456
C124	C	0.869439	-0.861352	-0.343471
C125	C	1.202772	-0.528019	-0.010138
C126	C	1.536105	-0.194686	0.323196
O127	O	0.835182	-0.889584	-0.377700
O128	O	1.168515	-0.556251	-0.044367
O129	O	1.501849	-0.222917	0.288966
C130	C	0.869428	-0.806749	-0.343485
C131	C	1.202762	-0.473416	-0.010151
C132	C	1.536095	-0.140082	0.323182
C133	C	0.909710	-0.779455	-0.303242
C134	C	1.243044	-0.446122	0.030092
C135	C	1.576377	-0.112789	0.363425
C136	C	0.990274	-0.779469	-0.222743
C137	C	1.323607	-0.446135	0.110590
C138	C	1.656940	-0.112802	0.443924
C139	C	0.990267	-0.724868	-0.222761
C140	C	1.323600	-0.391535	0.110572
C141	C	1.656933	-0.058201	0.443905
C142	C	0.949981	-0.697561	-0.263020
C143	C	1.283315	-0.364228	0.070313
C144	C	1.616648	-0.030894	0.403647
C145	C	0.909703	-0.724855	-0.303260
C146	C	1.243036	-0.391521	0.030073
C147	C	1.576370	-0.058188	0.363406
C148	C	0.829136	-0.779439	-0.383741
C149	C	1.162469	-0.446106	-0.050408
C150	C	1.495802	-0.112773	0.282925
C151	C	0.829128	-0.724832	-0.383751
C152	C	1.162462	-0.391499	-0.050418
C153	C	1.495795	-0.058166	0.282915
C154	C	0.869410	-0.697539	-0.343508
C155	C	1.202744	-0.364205	-0.010175
C156	C	1.536077	-0.030872	0.323158
C157	C	0.869411	-0.642947	-0.343537
C158	C	1.202744	-0.309614	-0.010204
C159	C	1.536077	0.023719	0.323129
N160	N	0.909686	-0.615651	-0.303292
N161	N	1.243019	-0.282318	0.030041
N162	N	1.576352	0.051016	0.363374
C163	C	0.949971	-0.642958	-0.263034
C164	C	1.283304	-0.309624	0.070300
C165	C	1.616638	0.023709	0.403633
C166	C	0.869463	-0.976023	-0.343438
C167	C	1.202796	-0.642690	-0.010105
C168	C	1.536130	-0.309356	0.323228
C169	C	0.869476	-1.030625	-0.343428
C170	C	1.202810	-0.697292	-0.010095
C171	C	1.536143	-0.363959	0.323239
C172	C	0.950040	-1.030636	-0.262922
C173	C	1.283374	-0.697303	0.070411
C174	C	1.616707	-0.363969	0.403745
C175	C	0.950030	-0.976033	-0.262936
C176	C	1.283363	-0.642699	0.070398
C177	C	1.616696	-0.309366	0.403731
C178	C	0.909738	-0.948727	-0.303193
C179	C	1.243071	-0.615393	0.030140
C180	C	1.576405	-0.282060	0.363473
C181	C	0.949953	-0.528293	-0.263076
C182	C	1.283287	-0.194959	0.070258
C183	C	1.616620	0.138374	0.403591
C184	C	0.949944	-0.473687	-0.263100
C185	C	1.283278	-0.140354	0.070234
C186	C	1.616611	0.192979	0.403567
C187	C	0.869378	-0.473682	-0.343603
C188	C	1.202712	-0.140348	-0.010270
C189	C	1.536045	0.192985	0.323063
C190	C	0.869389	-0.528282	-0.343582
C191	C	1.202723	-0.194949	-0.010249
C192	C	1.536056	0.138384	0.323085
C193	C	0.909679	-0.555586	-0.303313
C194	C	1.243012	-0.222253	0.030020
C195	C	1.576346	0.111080	0.363353
O196	O	0.835182	-0.614660	-0.377772
O197	O	1.168515	-0.281327	-0.044439
O198	O	1.501848	0.052007	0.288895
O199	O	0.984216	-0.614719	-0.228804
O200	O	1.317549	-0.281386	0.104529
O201	O	1.650883	0.051947	0.437862
C202	C	1.073820	-0.251908	-0.303399
C203	C	1.407154	0.081425	0.029935
C204	C	1.740487	0.414758	0.363268
C205	C	1.143788	-0.251915	-0.303409
C206	C	1.477122	0.081418	0.029924
C207	C	1.810455	0.414752	0.363258
C208	C	0.909550	-0.251867	-0.466926
C209	C	1.242883	0.081467	-0.133592
C210	C	1.576217	0.414800	0.199741
C211	C	0.909573	-0.251873	-0.536894
C212	C	1.242907	0.081460	-0.203560
C213	C	1.576240	0.414794	0.129773
C214	C	0.909646	-0.116051	-0.303340
C215	C	1.242979	0.217283	0.029994
C216	C	1.576313	0.550616	0.363327
C217	C	0.909759	-0.057937	-0.303167
C218	C	1.243093	0.275396	0.030166
C219	C	1.576426	0.608730	0.363500
C220	C	0.949817	-0.285341	-0.569706
C221	C	1.283150	0.047992	-0.236373
C222	C	1.616483	0.381326	0.096960
C223	C	0.949839	-0.285354	-0.635449
C224	C	1.283172	0.047980	-0.302116
C225	C	1.616505	0.381313	0.031218
C226	C	0.909624	-0.251889	-0.668376
C227	C	1.242958	0.081444	-0.335043
C228	C	1.576291	0.414777	-0.001709
C229	C	0.869373	-0.218419	-0.635555
C230	C	1.202706	0.114914	-0.302222
C231	C	1.536040	0.448248	0.031111
C232	C	0.869348	-0.218411	-0.569814
C233	C	1.202681	0.114922	-0.236481
C234	C	1.536014	0.448256	0.096852
N235	N	0.904875	-0.206132	-0.771627
N236	N	1.238209	0.127201	-0.438294
N237	N	1.571542	0.460535	-0.104961
N238	N	0.904903	-0.206141	-0.834079
N239	N	1.238237	0.127192	-0.500745
N240	N	1.571570	0.460525	-0.167412
C241	C	0.909698	-0.251913	-0.866451
C242	C	1.243031	0.081420	-0.533118
C243	C	1.576364	0.414754	-0.199784
N244	N	0.914475	-0.297676	-0.834012
N245	N	1.247809	0.035657	-0.500679
N246	N	1.581142	0.368991	-0.167346
N247	N	0.914451	-0.297666	-0.771555
N248	N	1.247784	0.035667	-0.438222
N249	N	1.581117	0.369000	-0.104888
C250	C	0.909647	-0.251895	-0.739662
C251	C	1.242980	0.081438	-0.406328
C252	C	1.576314	0.414772	-0.072995
C253	C	0.949967	-0.285398	-0.970549
C254	C	1.283301	0.047936	-0.637216
C255	C	1.616634	0.381269	-0.303883
C256	C	0.949985	-0.285412	-1.036293
C257	C	1.283318	0.047922	-0.702960
C258	C	1.616652	0.381255	-0.369626
C259	C	0.869523	-0.218472	-1.036398
C260	C	1.202856	0.114861	-0.703065
C261	C	1.536189	0.448194	-0.369731
C262	C	0.869502	-0.218463	-0.970656
C263	C	1.202835	0.114870	-0.637322
C264	C	1.536168	0.448204	-0.303989
C265	C	0.909727	-0.251925	-0.937735
C266	C	1.243061	0.081408	-0.604402
C267	C	1.576394	0.414741	-0.271068
C268	C	0.909728	-0.251931	-0.139184
C269	C	1.243061	0.081402	0.194150
C270	C	1.576394	0.414735	0.527483
C271	C	0.909769	-0.251948	-0.069216
C272	C	1.243103	0.081386	0.264118
C273	C	1.576436	0.414719	0.597451
H274	H	0.269209	-0.312676	-0.230458
H275	H	0.602543	0.020657	0.102875
H276	H	0.935876	0.353990	0.436209
N277	N	0.993338	-0.321494	-0.935032
N278	N	1.326672	0.011839	-0.601699
N279	N	1.660005	0.345173	-0.268365
H280	H	1.022519	-0.300266	-0.907746
H281	H	1.355852	0.033067	-0.574412
H282	H	1.689186	0.366400	-0.241079
H283	H	1.018791	-0.342697	-0.965834
H284	H	1.352125	-0.009364	-0.632501
H285	H	1.685458	0.323969	-0.299167
N286	N	1.033730	-0.808920	-0.179324
N287	N	1.367063	-0.475587	0.154010
N288	N	1.700397	-0.142254	0.487343
H289	H	1.008176	-0.831578	-0.150138
H290	H	1.341509	-0.498244	0.183195
H291	H	1.674842	-0.164911	0.516528
H292	H	1.059234	-0.783307	-0.153878
H293	H	1.392567	-0.449974	0.179455
H294	H	1.725901	-0.116640	0.512789
H295	H	0.796334	-0.801652	-0.416512
H296	H	1.129667	-0.468319	-0.083178
H297	H	1.463000	-0.134986	0.250155
H298	H	0.269120	-0.191139	-0.376332
H299	H	0.602453	0.142195	-0.042999
H300	H	0.935786	0.475528	0.290334
N301	N	0.825946	-0.182310	-0.534415
N302	N	1.159279	0.151024	-0.201082
N303	N	1.492612	0.484357	0.132251
H304	H	0.780965	-0.190396	-0.545885
H305	H	1.114298	0.142937	-0.212552
H306	H	1.447632	0.476271	0.120781
H307	H	0.835812	-0.144976	-0.545886
H308	H	1.169145	0.188357	-0.212553
H309	H	1.502478	0.521690	0.120781
N310	N	0.541988	-0.182262	-0.386919
N311	N	0.875321	0.151072	-0.053586
N312	N	1.208654	0.484405	0.279747
H313	H	0.514710	-0.203467	-0.416132
H314	H	0.848043	0.129867	-0.082799
H315	H	1.181376	0.463200	0.250535
H316	H	0.572809	-0.161045	-0.412339
H317	H	0.906142	0.172288	-0.079006
H318	H	1.239476	0.505622	0.254328
N319	N	0.141148	-0.182294	-0.386978
N320	N	0.474481	0.151039	-0.053644
N321	N	0.807815	0.484373	0.279689
H322	H	0.171930	-0.161072	-0.412442
H323	H	0.505263	0.172261	-0.079108
H324	H	0.838597	0.505595	0.254225
H325	H	0.113873	-0.158138	-0.361313
H326	H	0.447206	0.175196	-0.027980
H327	H	0.780540	0.508529	0.305353
N328	N	0.993246	-0.321452	-0.670851
N329	N	1.326579	0.011881	-0.337518
N330	N	1.659913	0.345214	-0.004184
H331	H	1.018724	-0.342649	-0.640020
H332	H	1.352057	-0.009316	-0.306687
H333	H	1.685390	0.324018	0.026647
H334	H	1.022402	-0.300190	-0.698114
H335	H	1.355735	0.033143	-0.364781
H336	H	1.689068	0.366477	-0.031448
N337	N	0.993479	-1.060101	-0.219492
N338	N	1.326812	-0.726768	0.113841
N339	N	1.660146	-0.393434	0.447174
H340	H	0.983722	-1.050603	-0.174517
H341	H	1.317056	-0.717269	0.158816
H342	H	1.650389	-0.383936	0.492149
H343	H	1.038436	-1.050599	-0.229322
H344	H	1.371770	-0.717265	0.104011
H345	H	1.705103	-0.383932	0.437344
H346	H	0.796310	-0.702603	-0.416528
H347	H	1.129644	-0.369269	-0.083195
H348	H	1.462977	-0.035936	0.250138
N349	N	0.141252	-0.321536	-0.219853
N350	N	0.474585	0.011798	0.113480
N351	N	0.807919	0.345131	0.446813
H352	H	0.113977	-0.300331	-0.190651
H353	H	0.447310	0.033003	0.142682
H354	H	0.780643	0.366336	0.476016
H355	H	0.172102	-0.342748	-0.194422
H356	H	0.505436	-0.009415	0.138911
H357	H	0.838769	0.323919	0.472244
N358	N	0.826104	-0.182360	-0.935257
N359	N	1.159437	0.150973	-0.601924
N360	N	1.492771	0.484307	-0.268591
H361	H	0.781124	-0.190445	-0.946730
H362	H	1.114457	0.142889	-0.613396
H363	H	1.447790	0.476222	-0.280063
H364	H	0.835972	-0.145027	-0.946727
H365	H	1.169306	0.188306	-0.613394
H366	H	1.502639	0.521640	-0.280061
H367	H	0.550783	-0.312659	-0.230424
H368	H	0.884116	0.020675	0.102909
H369	H	1.217450	0.354008	0.436243
H370	H	0.836629	-0.191173	-0.662369
H371	H	1.169962	0.142160	-0.329036
H372	H	1.503295	0.475493	0.004298
H373	H	0.669957	-0.191115	-0.376293
H374	H	1.003291	0.142218	-0.042960
H375	H	1.336624	0.475552	0.290373
N376	N	0.678748	-0.321511	-0.219800
N377	N	1.012081	0.011822	0.113533
N378	N	1.345414	0.345155	0.446867
H379	H	0.647965	-0.342730	-0.194334
H380	H	0.981298	-0.009397	0.139000
H381	H	1.314631	0.323936	0.472333
H382	H	0.706028	-0.300270	-0.190632
H383	H	1.039362	0.033064	0.142702
H384	H	1.372695	0.366397	0.476035
H385	H	0.982830	-0.953814	-0.230165
H386	H	1.316163	-0.620480	0.103168
H387	H	1.649496	-0.287147	0.436502
H388	H	0.982749	-0.451467	-0.230328
H389	H	1.316083	-0.118134	0.103005
H390	H	1.649416	0.215199	0.436338
N391	N	0.993404	-0.557738	-0.219641
N392	N	1.326737	-0.224404	0.113692
N393	N	1.660071	0.108929	0.447025
H394	H	1.018916	-0.532155	-0.194155
H395	H	1.352249	-0.198822	0.139178
H396	H	1.685582	0.134512	0.472511
H397	H	1.022526	-0.580394	-0.245259
H398	H	1.355860	-0.247061	0.088075
H399	H	1.689193	0.086272	0.421408
N400	N	0.825999	-0.946573	-0.386858
N401	N	1.159332	-0.613240	-0.053524
N402	N	1.492665	-0.279907	0.279809
H403	H	0.800487	-0.972155	-0.412345
H404	H	1.133821	-0.638821	-0.079012
H405	H	1.467154	-0.305488	0.254321
H406	H	0.851592	-0.923914	-0.416004
H407	H	1.184925	-0.590580	-0.082670
H408	H	1.518258	-0.257247	0.250663
H409	H	1.023067	-0.702650	-0.189990
H410	H	1.356401	-0.369317	0.143343
H411	H	1.689734	-0.035984	0.476677
H412	H	0.836594	-0.550506	-0.376357
H413	H	1.169928	-0.217172	-0.043024
H414	H	1.503261	0.116161	0.290310
N415	N	0.993369	-0.321531	-1.071687
N416	N	1.326702	0.011803	-0.738354
N417	N	1.660036	0.345136	-0.405021
H418	H	1.018840	-0.342731	-1.040854
H419	H	1.352173	-0.009397	-0.707521
H420	H	1.685507	0.323936	-0.374187
H421	H	1.022532	-0.300290	-1.098967
H422	H	1.355866	0.033043	-0.765633
H423	H	1.689199	0.366377	-0.432300
N424	N	0.826038	-1.060061	-0.386842
N425	N	1.159372	-0.726727	-0.053508
N426	N	1.492705	-0.393394	0.279825
H427	H	0.800520	-1.034471	-0.412346
H428	H	1.133853	-0.701138	-0.079013
H429	H	1.467186	-0.367805	0.254321
H430	H	0.796922	-1.082715	-0.361209
H431	H	1.130256	-0.749381	-0.027876
H432	H	1.463589	-0.416048	0.305457
H433	H	0.836581	-0.451438	-0.376383
H434	H	1.169914	-0.118105	-0.043049
H435	H	1.503248	0.215228	0.290284
N436	N	0.993196	-0.321434	-0.534199
N437	N	1.326530	0.011899	-0.200866
N438	N	1.659863	0.345233	0.132467
H439	H	1.018693	-0.342639	-0.564966
H440	H	1.352026	-0.009306	-0.231633
H441	H	1.685359	0.324027	0.101700
H442	H	0.967540	-0.345608	-0.506932
H443	H	1.300873	-0.012274	-0.173599
H444	H	1.634207	0.321059	0.159734
N445	N	0.826142	-0.182382	-1.071903
N446	N	1.159476	0.150952	-0.738569
N447	N	1.492809	0.484285	-0.405236
H448	H	0.832263	-0.187466	-1.118529
H449	H	1.165596	0.145868	-0.785196
H450	H	1.498929	0.479201	-0.451863
H451	H	0.835965	-0.145046	-1.060427
H452	H	1.169298	0.188287	-0.727094
H453	H	1.502632	0.521621	-0.393760
