data_functionalizedCrystal
_audit_creation_method	'MofGen! by Chris Wilmer'
_symmetry_space_group_name_H-M	'P1'
_symmetry_Int_Tables_number	1
_symmetry_cell_setting	triclinic
loop_
_symmetry_equiv_pos_as_xyz
  x,y,z
_cell_length_a	19.288864
_cell_length_b	17.766277
_cell_length_c	19.288874
_cell_angle_alpha	89.993108
_cell_angle_beta	83.138236
_cell_angle_gamma	89.976791
loop_
_atom_site_label
_atom_site_type_symbol
_atom_site_fract_x
_atom_site_fract_y
_atom_site_fract_z
O1	O	0.921356	-0.062836	0.086648
O2	O	1.421356	0.437164	0.586648
O3	O	0.719096	-0.062785	0.098337
O4	O	1.219096	0.437215	0.598337
O5	O	0.826067	-0.062806	-0.008637
O6	O	1.326067	0.437194	0.491363
O7	O	0.814385	-0.062815	0.193623
O8	O	1.314385	0.437185	0.693623
O9	O	0.826048	0.062382	-0.008643
O10	O	1.326048	0.562382	0.491357
O11	O	0.719077	0.062403	0.098332
O12	O	1.219077	0.562403	0.598332
O13	O	0.921337	0.062352	0.086643
O14	O	1.421337	0.562352	0.586643
Cu15	Cu	0.820206	0.073808	0.092487
Cu16	Cu	1.320206	0.573808	0.592487
Cu17	Cu	0.820228	-0.074241	0.092493
Cu18	Cu	1.320228	0.425759	0.592493
O19	O	0.814366	0.062373	0.193617
O20	O	1.314366	0.562373	0.693617
C21	C	0.693210	-0.000184	0.097958
C22	C	1.193210	0.499816	0.597958
C23	C	0.616106	-0.000164	0.096829
C24	C	1.116106	0.499836	0.596829
N25	N	0.820195	0.177939	0.092482
N26	N	1.320195	0.677939	0.592482
N27	N	0.820244	-0.178372	0.092493
N28	N	1.320244	0.321628	0.592493
C29	C	0.571412	-0.000179	0.159597
C30	C	1.071412	0.499821	0.659597
C31	C	0.498965	-0.000187	0.158536
C32	C	0.998965	0.499813	0.658536
C33	C	0.471215	-0.000196	0.094704
C34	C	0.971215	0.499804	0.594704
C35	C	0.515919	-0.000177	0.031928
C36	C	1.015919	0.499823	0.531928
C37	C	0.588365	-0.000161	0.032991
C38	C	1.088365	0.499839	0.532991
C39	C	0.362958	-0.044078	0.044527
C40	C	0.862958	0.455922	0.544527
C41	C	0.290514	-0.044099	0.043467
C42	C	0.790514	0.455901	0.543467
C43	C	0.247770	-0.000241	0.091425
C44	C	0.747770	0.499759	0.591425
C45	C	0.277478	0.043626	0.140454
C46	C	0.777478	0.543626	0.640454
C47	C	0.349923	0.043642	0.141516
C48	C	0.849923	0.543642	0.641516
C49	C	0.392661	-0.000213	0.093545
C50	C	0.892661	0.499787	0.593545
C51	C	0.124520	-0.000264	0.153046
C52	C	0.624520	0.499736	0.653046
C53	C	0.052072	-0.000268	0.151983
C54	C	0.552072	0.499732	0.651983
C55	C	0.069027	-0.000265	0.025374
C56	C	0.569027	0.499735	0.525374
C57	C	0.141474	-0.000254	0.026439
C58	C	0.641474	0.499746	0.526439
C59	C	0.169215	-0.000257	0.090277
C60	C	0.669215	0.499743	0.590277
C61	C	0.947223	-0.000250	0.087022
C62	C	1.447223	0.499750	0.587022
C63	C	1.024327	-0.000275	0.088151
C64	C	1.524327	0.499725	0.588151
C65	C	0.825680	-0.000212	-0.034516
C66	C	1.325680	0.499788	0.465484
C67	C	0.824549	-0.000212	-0.111619
C68	C	1.324549	0.499788	0.388381
C69	C	0.867577	0.217316	0.045137
C70	C	1.367577	0.717316	0.545137
C71	C	0.867581	0.296118	0.045134
C72	C	1.367581	0.796118	0.545134
C73	C	0.820210	0.335539	0.092487
C74	C	1.320210	0.835539	0.592487
C75	C	0.772819	0.296152	0.139836
C76	C	1.272819	0.796152	0.639836
C77	C	0.772811	0.217352	0.139833
C78	C	1.272811	0.717352	0.639833
C79	C	0.810913	0.460376	0.155775
C80	C	1.310913	0.960376	0.655775
C81	C	0.810925	0.539175	0.155778
C82	C	1.310925	1.039175	0.655778
C83	C	0.820228	0.578586	0.092496
C84	C	1.320228	1.078586	0.592496
C85	C	0.829534	0.539188	0.029207
C86	C	1.329534	1.039188	0.529207
C87	C	0.829526	0.460388	0.029204
C88	C	1.329526	0.960388	0.529204
C89	C	0.820212	0.420985	0.092495
C90	C	1.320212	0.920985	0.592495
C91	C	0.867617	0.703409	0.045143
C92	C	1.367617	1.203409	0.545143
C93	C	0.867616	0.782212	0.045139
C94	C	1.367616	1.282212	0.545139
C95	C	0.772857	0.782245	0.139848
C96	C	1.272857	1.282245	0.639848
C97	C	0.772855	0.703443	0.139846
C98	C	1.272855	1.203443	0.639846
C99	C	0.820238	0.664030	0.092494
C100	C	1.320238	1.164030	0.592494
C101	C	0.816413	0.068012	-0.667192
C102	C	1.316413	0.568012	-0.167192
C103	C	0.817469	0.068016	-0.594744
C104	C	1.317469	0.568016	-0.094744
C105	C	0.818010	-0.000224	-0.558510
C106	C	1.318010	0.499776	-0.058510
C107	C	0.817478	-0.068472	-0.594727
C108	C	1.317478	0.431528	-0.094727
C109	C	0.816415	-0.068474	-0.667172
C110	C	1.316415	0.431526	-0.167172
C111	C	0.860383	-0.052513	-0.449176
C112	C	1.360383	0.447487	0.050824
C113	C	0.861450	-0.052509	-0.376733
C114	C	1.361450	0.447491	0.123267
C115	C	0.821285	-0.000221	-0.335064
C116	C	1.321285	0.499779	0.164936
C117	C	0.780061	0.052075	-0.365848
C118	C	1.280061	0.552075	0.134152
C119	C	0.778999	0.052073	-0.438294
C120	C	1.278999	0.552073	0.061706
C121	C	0.819162	-0.000229	-0.479955
C122	C	1.319162	0.499771	0.020045
C123	C	0.822957	0.068027	-0.220298
C124	C	1.322957	0.568027	0.279702
C125	C	0.824009	0.068028	-0.147849
C126	C	1.324009	0.568028	0.352151
C127	C	0.824025	-0.068462	-0.147834
C128	C	1.324025	0.431538	0.352166
C129	C	0.822966	-0.068461	-0.220281
C130	C	1.322966	0.431539	0.279719
C131	C	0.822436	-0.000214	-0.256510
C132	C	1.322436	0.499786	0.243490
C133	C	0.814753	-0.000223	0.219496
C134	C	1.314753	0.499777	0.719496
C135	C	0.815884	-0.000228	0.296599
C136	C	1.315884	0.499772	0.796599
H137	H	0.593994	-0.000183	0.211579
H138	H	1.093994	0.499817	0.711579
H139	H	0.397755	-0.079797	0.005473
H140	H	0.897755	0.420203	0.505473
O141	O	0.818062	-0.142076	-0.555653
O142	O	1.318062	0.357924	-0.055653
H143	H	0.818897	-0.130611	-0.499194
H144	H	1.318897	0.369389	0.000806
H145	H	0.462568	-0.000197	0.209651
H146	H	0.962568	0.499803	0.709651
O147	O	0.381973	0.090984	0.194366
O148	O	0.881973	0.590984	0.694366
H149	H	0.340086	0.121494	0.227528
H150	H	0.840086	0.621494	0.727528
O151	O	0.721758	0.660964	0.190919
O152	O	1.221758	1.160964	0.690919
H153	H	0.688821	0.701612	0.223852
H154	H	1.188821	1.201612	0.723852
O155	O	0.154444	-0.000252	0.221899
O156	O	0.654444	0.499748	0.721899
H157	H	0.187065	-0.051274	0.225422
H158	H	0.687065	0.448726	0.725422
H159	H	0.815980	0.123584	-0.696684
H160	H	1.315980	0.623584	-0.196684
H161	H	0.906158	0.185228	0.006579
H162	H	1.406158	0.685228	0.506579
H163	H	0.803353	0.571246	0.207312
H164	H	1.303353	1.071246	0.707312
H165	H	0.824437	0.123599	-0.118368
H166	H	1.324437	0.623599	0.381632
H167	H	0.815984	-0.124045	-0.696653
H168	H	1.315984	0.375955	-0.196653
H169	H	0.745434	0.094654	-0.463355
H170	H	1.245434	0.594654	0.036645
H171	H	0.242677	0.079340	0.179505
H172	H	0.742677	0.579340	0.679505
H173	H	0.906166	0.328185	0.006578
H174	H	1.406166	0.828185	0.506578
O175	O	0.636578	-0.000145	-0.034711
O176	O	1.136578	0.499855	0.465289
H177	H	0.626771	-0.051173	-0.065268
H178	H	1.126771	0.448827	0.434732
H179	H	0.803325	0.428294	0.207310
H180	H	1.303325	0.928294	0.707310
H181	H	0.906198	0.814274	0.006581
H182	H	1.406198	1.314274	0.506581
H183	H	0.015682	-0.000275	0.203098
H184	H	0.515682	0.499725	0.703098
H185	H	0.734284	0.814341	0.178401
H186	H	1.234284	1.314341	0.678401
O187	O	0.736733	0.108479	-0.320921
O188	O	1.236733	0.608479	0.179079
H189	H	0.699007	0.078197	-0.282802
H190	H	1.199007	0.578197	0.217198
O191	O	0.039110	-0.000275	-0.043477
O192	O	0.539110	0.499725	0.456523
H193	H	-0.018776	-0.000292	-0.033672
H194	H	0.481224	0.499708	0.466328
O195	O	0.824609	-0.142067	-0.108765
O196	O	1.324609	0.357933	0.391235
H197	H	0.825440	-0.130603	-0.052306
H198	H	1.325440	0.369397	0.447694
O199	O	0.189687	-0.000245	-0.041261
O200	O	0.689687	0.499755	0.458739
H201	H	0.158222	-0.000257	-0.085827
H202	H	0.658222	0.499743	0.414173
H203	H	0.266331	-0.079822	0.003548
H204	H	0.766331	0.420178	0.503548
H205	H	0.493321	-0.000195	-0.020044
H206	H	0.993321	0.499805	0.479956
H207	H	0.817886	0.123586	-0.565255
H208	H	1.317886	0.623586	-0.065255
O209	O	0.822372	0.141631	-0.259380
O210	O	1.322372	0.641631	0.240620
H211	H	0.822904	0.189084	-0.222025
H212	H	1.322904	0.689084	0.277975
O213	O	0.839550	0.417891	-0.039051
O214	O	1.339550	0.917891	0.460949
H215	H	0.846015	0.458528	-0.083059
H216	H	1.346015	0.958528	0.416941
O217	O	0.839563	0.581681	-0.039057
O218	O	1.339563	1.081681	0.460943
H219	H	0.837995	0.643094	-0.028426
H220	H	1.337995	1.143094	0.471574
O221	O	0.918711	0.660890	-0.005933
O222	O	1.418711	1.160890	0.494067
H223	H	0.951652	0.701514	-0.038866
H224	H	1.451652	1.201514	0.461134
O225	O	0.822381	-0.142062	-0.259341
O226	O	1.322381	0.357938	0.240659
H227	H	0.822931	-0.189514	-0.221976
H228	H	1.322931	0.310486	0.278024
H229	H	0.734247	0.328253	0.178391
H230	H	1.234247	0.828253	0.678391
O231	O	0.905903	-0.108915	-0.343529
O232	O	1.405903	0.391085	0.156471
H233	H	0.933641	-0.145286	-0.384671
H234	H	1.433641	0.354714	0.115329
H235	H	0.734227	0.185290	0.178388
H236	H	1.234227	0.685290	0.678388
O237	O	0.903710	-0.108910	-0.494119
O238	O	1.403710	0.391090	0.005881
H239	H	0.932562	-0.145263	-0.460545
H240	H	1.432562	0.354737	0.039455
