data_functionalizedCrystal
_audit_creation_method	'MofGen! by Chris Wilmer'
_symmetry_space_group_name_H-M	'P1'
_symmetry_Int_Tables_number	1
_symmetry_cell_setting	triclinic
loop_
_symmetry_equiv_pos_as_xyz
  x,y,z
_cell_length_a	27.731994
_cell_length_b	27.732048
_cell_length_c	14.048226
_cell_angle_alpha	89.988614
_cell_angle_beta	89.999619
_cell_angle_gamma	82.631595
loop_
_atom_site_label
_atom_site_type_symbol
_atom_site_fract_x
_atom_site_fract_y
_atom_site_fract_z
O1	O	0.640946	0.057393	-0.079035
O2	O	0.500148	0.066166	-0.079068
O3	O	0.574920	-0.008618	-0.079032
O4	O	0.566174	0.132177	-0.079071
O5	O	0.574911	-0.008622	0.079289
O6	O	0.500139	0.066162	0.079253
O7	O	0.640937	0.057389	0.079286
Zn8	Zn	0.570537	0.061775	0.104407
Zn9	Zn	0.570548	0.061780	-0.104188
O10	O	0.566165	0.132173	0.079251
C11	C	0.482137	0.065984	0.000089
C12	C	0.428480	0.065442	0.000077
C13	C	0.574732	-0.026627	0.000131
C14	C	0.574179	-0.080282	0.000139
C15	C	0.095757	0.062023	0.086415
C16	C	-0.105901	0.059962	0.086427
O17	O	-0.131978	0.059673	0.159822
N18	N	-0.131111	0.059708	0.000126
C19	C	-0.105903	0.059967	-0.086184
O20	O	-0.131972	0.059699	-0.159588
C21	C	0.095755	0.062025	-0.086194
C22	C	0.120961	0.062283	0.000112
C23	C	0.120964	0.062282	0.172715
C24	C	0.171375	0.062800	0.172711
C25	C	0.196579	0.063060	0.086408
C26	C	0.171372	0.062801	0.000108
C27	C	0.120962	0.062280	-0.172503
C28	C	0.171380	0.062793	-0.172498
C29	C	0.196587	0.063052	-0.086192
C30	C	0.246988	0.063579	-0.086198
N31	N	0.272198	0.063833	0.000102
C32	C	0.246994	0.063573	0.086406
C33	C	-0.211776	0.058887	-0.086172
C34	C	-0.262191	0.058373	-0.086170
C35	C	-0.262185	0.058368	0.086441
C36	C	-0.211771	0.058885	0.086438
C37	C	-0.186566	0.059141	0.000128
C38	C	0.352861	0.064662	0.086391
C39	C	0.403276	0.065182	0.086380
C40	C	0.403266	0.065185	-0.086230
C41	C	0.352855	0.064667	-0.086220
C42	C	0.327654	0.064404	0.000099
O43	O	0.273096	0.063864	-0.159555
O44	O	0.273073	0.063831	0.159799
C45	C	0.045346	0.061505	0.086419
C46	C	0.020139	0.061247	0.000120
C47	C	0.045343	0.061507	-0.086183
C48	C	-0.030275	0.060734	0.000122
C49	C	-0.055480	0.060474	0.086425
C50	C	-0.030270	0.060727	0.172726
C51	C	0.020141	0.061245	0.172722
C52	C	0.020133	0.061254	-0.172484
C53	C	-0.030278	0.060736	-0.172474
C54	C	-0.055482	0.060476	-0.086170
C55	C	0.614884	-0.419105	0.000099
C56	C	0.612833	-0.620764	0.000086
O57	O	0.650055	-0.652027	0.000053
N58	N	0.568496	-0.639879	0.000076
C59	C	0.524670	-0.608576	0.000064
O60	O	0.486912	-0.629462	0.000045
C61	C	0.526721	-0.406918	0.000071
C62	C	0.571061	-0.387805	0.000090
C63	C	0.659220	-0.399992	0.000117
C64	C	0.659732	-0.349580	0.000126
C65	C	0.615908	-0.318281	0.000116
C66	C	0.571573	-0.337394	0.000098
C67	C	0.482895	-0.375615	0.000051
C68	C	0.483412	-0.325198	0.000051
C69	C	0.527751	-0.306086	0.000070
C70	C	0.528262	-0.255683	0.000098
N71	N	0.572598	-0.236567	0.000107
C72	C	0.616421	-0.267867	0.000117
C73	C	0.523596	-0.714450	0.000062
C74	C	0.523083	-0.764864	0.000062
C75	C	0.611246	-0.777049	0.000082
C76	C	0.611759	-0.726633	0.000089
C77	C	0.567932	-0.695335	0.000071
C78	C	0.617494	-0.161998	0.000135
C79	C	0.618002	-0.111581	0.000148
C80	C	0.529839	-0.099401	0.000123
C81	C	0.529331	-0.149813	0.000115
C82	C	0.573162	-0.181111	0.000118
O83	O	0.491060	-0.224391	0.000120
O84	O	0.654174	-0.246971	0.000114
C85	C	0.614372	-0.469517	0.000091
C86	C	0.570036	-0.488629	0.000072
C87	C	0.526213	-0.457330	0.000063
C88	C	0.569523	-0.539043	0.000072
C89	C	0.613346	-0.570343	0.000082
C90	C	0.657683	-0.551228	0.000091
C91	C	0.658195	-0.500816	0.000100
C92	C	0.481876	-0.476445	0.000053
C93	C	0.481367	-0.526857	0.000046
C94	C	0.525191	-0.558157	0.000055
C95	C	0.658949	0.057571	0.000128
C96	C	0.712605	0.058114	0.000133
C97	C	0.566353	0.150182	0.000085
C98	C	0.566906	0.203837	0.000071
N99	N	0.570532	0.061771	0.246767
N100	N	0.570557	0.061781	-0.246549
C101	C	0.603651	0.028670	0.296601
C102	C	0.603655	0.028669	0.396259
C103	C	0.570541	0.061773	0.446081
C104	C	0.537418	0.094875	0.396240
C105	C	0.537413	0.094873	0.296584
C106	C	0.537432	0.094878	0.603954
C107	C	0.537438	0.094882	0.703617
C108	C	0.603674	0.028675	0.703629
C109	C	0.603668	0.028673	0.603973
C110	C	0.570546	0.061776	0.554139
H111	H	0.423797	0.065394	0.156664
H112	H	0.510444	0.121826	0.256010
H113	H	0.445258	-0.542413	0.000039
Cl114	Cl	0.672597	-0.201336	0.000141
H115	H	-0.282711	0.058171	-0.156449
Cl116	Cl	0.089287	0.061958	0.281225
Cl117	Cl	0.495790	0.136494	0.541310
Cl118	Cl	0.321165	0.064350	-0.194720
Cl119	Cl	0.645285	-0.012946	0.233978
H120	H	0.630643	0.001721	0.744210
H121	H	0.423797	0.065398	-0.156496
H122	H	0.332347	0.064452	0.156680
Cl123	Cl	0.495786	0.136489	0.458871
Cl124	Cl	0.645290	-0.012944	0.458909
Cl125	Cl	0.645300	-0.012940	0.541338
Cl126	Cl	-0.180099	0.059210	-0.194687
Cl127	Cl	0.673747	-0.087558	0.000170
H128	H	0.695837	-0.334024	0.000138
Cl129	Cl	0.495806	0.136498	0.766243
H130	H	0.100448	0.062069	-0.242783
Cl131	Cl	0.666338	-0.816405	0.000089
H132	H	0.493226	-0.165375	0.000126
H133	H	0.040660	0.061456	0.243002
Cl134	Cl	0.203056	0.063121	0.281217
H135	H	-0.191251	0.059096	0.156716
Cl136	Cl	-0.061960	0.060414	-0.280985
H137	H	-0.282715	0.058157	0.156712
Cl138	Cl	0.667501	-0.702612	0.000112
Cl139	Cl	0.203062	0.063114	-0.281008
H140	H	0.040650	0.061464	-0.242764
Cl141	Cl	-0.061965	0.060402	0.281220
H142	H	0.694908	-0.425472	0.000122
Cl143	Cl	0.713939	-0.476797	0.000116
Cl144	Cl	0.467340	-0.788884	0.000056
Cl145	Cl	0.468494	-0.675109	0.000041
H146	H	0.446789	-0.391167	0.000030
Cl147	Cl	0.474750	-0.060044	0.000109
Cl148	Cl	0.428312	-0.285854	0.000028
Cl149	Cl	0.426778	-0.437104	0.000040
H150	H	0.693365	-0.576720	0.000103
