data_functionalizedCrystal
_audit_creation_method	'MofGen! by Chris Wilmer'
_symmetry_space_group_name_H-M	'P1'
_symmetry_Int_Tables_number	1
_symmetry_cell_setting	triclinic
loop_
_symmetry_equiv_pos_as_xyz
  x,y,z
_cell_length_a	15.299816
_cell_length_b	18.050590
_cell_length_c	15.296720
_cell_angle_alpha	99.678574
_cell_angle_beta	110.757046
_cell_angle_gamma	80.337507
loop_
_atom_site_label
_atom_site_type_symbol
_atom_site_fract_x
_atom_site_fract_y
_atom_site_fract_z
Zn1	Zn	-0.461310	1.117012	-0.589620
Zn2	Zn	-0.589906	1.153573	-0.461037
Zn3	Zn	-0.434426	1.011154	-0.434162
Zn4	Zn	-0.616717	1.011092	-0.616531
O5	O	-0.525590	1.073208	-0.525337
O6	O	-0.478399	1.225793	-0.572548
O7	O	-0.546810	1.150008	-0.327337
O8	O	-0.307884	1.009921	-0.432274
O9	O	-0.572879	1.252655	-0.478078
O10	O	-0.327636	1.087695	-0.546488
O11	O	-0.432579	1.045372	-0.307593
O12	O	-0.458576	0.907214	-0.458369
O13	O	-0.618573	1.009816	-0.743096
O14	O	-0.592505	0.907169	-0.592355
O15	O	-0.504396	1.087635	-0.723324
O16	O	-0.723570	1.149948	-0.504173
O17	O	-0.743268	1.045268	-0.618414
C18	C	-0.525533	0.880244	-0.525367
C19	C	-0.525535	0.797693	-0.525405
C20	C	-0.598518	0.598277	-0.598150
C21	C	-0.517695	0.536198	-0.606349
C22	C	-0.525579	0.646574	-0.525368
C23	C	-0.606451	0.561578	-0.517177
C24	C	-0.525629	0.500600	-0.525336
C25	C	-0.444719	0.585571	-0.533604
C26	C	-0.533525	0.610967	-0.444403
C27	C	-0.452638	0.548906	-0.452559
C28	C	-0.525552	0.730665	-0.525390
C29	C	-0.525647	0.416510	-0.525313
C30	C	-0.767158	1.101587	-0.567151
C31	C	-0.870507	1.113791	-0.585070
C32	C	-1.120973	0.986428	-0.397584
C33	C	-1.023871	0.974957	-0.380750
C34	C	-0.985525	1.009665	-0.431828
C35	C	-1.044291	1.055845	-0.499743
C36	C	-1.141403	1.067313	-0.516584
C37	C	-1.005955	1.090549	-0.550828
C38	C	-1.064721	1.136730	-0.618744
C39	C	-1.161823	1.148196	-0.635580
C40	C	-1.200169	1.113488	-0.584502
C41	C	-0.908843	1.079082	-0.533988
C42	C	-0.929273	1.159967	-0.652988
C43	C	-1.026375	1.171438	-0.669822
C44	C	-0.283081	1.044736	-0.483381
C45	C	-0.179739	1.032603	-0.465502
C46	C	-0.567474	1.044641	-0.767896
C47	C	-0.585323	1.032467	-0.871260
C48	C	-0.525647	1.266926	-0.525309
C49	C	-0.525672	1.349477	-0.525297
C50	C	-0.397859	1.160224	-1.121450
C51	C	-0.381091	1.171666	-1.024335
C52	C	-0.432147	1.136867	-0.986061
C53	C	-0.499975	1.090624	-1.044913
C54	C	-0.516750	1.079185	-1.142038
C55	C	-0.551038	1.055829	-1.006649
C56	C	-0.618866	1.009585	-1.065501
C57	C	-0.635637	0.998148	-1.162617
C58	C	-0.584581	1.032947	-1.200890
C59	C	-0.534263	1.067268	-0.909524
C60	C	-0.653154	0.986229	-0.930112
C61	C	-0.669922	0.974786	-1.027227
C62	C	-0.483801	1.101699	-0.283711
C63	C	-0.465690	1.113986	-0.180302
H64	H	-0.510988	0.503772	-0.674805
O65	O	-0.363216	0.598647	-0.541992
C66	C	-0.364180	0.676900	-0.541924
H67	H	-0.440046	0.704870	-0.564977
H68	H	-0.328767	0.686162	-0.592781
H69	H	-0.324506	0.702945	-0.467960
H70	H	-0.540261	0.643409	-0.375972
H71	H	-0.674821	0.550611	-0.510263
H72	H	-0.690875	0.960501	-1.210533
H73	H	-0.861005	1.041481	-0.478691
H74	H	-1.074235	1.209038	-0.725119
O75	O	-0.600792	1.021702	-1.295217
C76	C	-0.582522	0.943893	-1.323544
H77	H	-0.532314	0.915024	-1.260566
H78	H	-0.549163	0.936320	-1.380806
H79	H	-0.651313	0.917417	-1.352166
O80	O	-0.735919	0.929985	-1.084459
C81	C	-0.805670	0.972699	-1.151035
H82	H	-0.806379	1.035315	-1.122749
H83	H	-0.877405	0.954106	-1.164524
H84	H	-0.789631	0.963216	-1.219664
O85	O	-0.702895	0.952512	-0.893008
C86	C	-0.799666	0.976813	-0.932781
H87	H	-0.808990	1.033552	-0.960285
H88	H	-0.834564	0.983333	-0.876855
H89	H	-0.833695	0.933208	-0.993362
O90	O	-0.671922	0.624067	-0.671731
C91	C	-0.663212	0.585479	-0.756924
H92	H	-0.586423	0.562314	-0.745452
H93	H	-0.687940	0.626223	-0.812657
H94	H	-0.708229	0.536700	-0.781554
O95	O	-1.158348	0.952678	-0.348122
C96	C	-1.223654	0.905070	-0.410777
H97	H	-1.250316	0.924627	-0.483785
H98	H	-1.285427	0.907672	-0.384743
H99	H	-1.188030	0.844414	-0.414466
H100	H	-1.209669	1.185795	-0.690885
H101	H	-0.390917	0.527361	-0.390987
O102	O	-0.315243	1.216560	-0.967037
C103	C	-0.311356	1.219168	-0.873106
H104	H	-0.380821	1.204859	-0.872250
H105	H	-0.298647	1.278394	-0.835076
H106	H	-0.251458	1.176362	-0.836035
H107	H	-0.906460	1.000323	-0.418117
H108	H	-0.976028	0.937357	-0.325455
H109	H	-1.279236	1.122828	-0.598201
H110	H	-0.479036	1.104919	-0.861616
O111	O	-0.891877	1.193655	-0.702498
C112	C	-0.793570	1.173619	-0.673086
H113	H	-0.767963	1.156238	-0.599008
H114	H	-0.757711	1.224130	-0.673030
H115	H	-0.775542	1.124288	-0.723436
H116	H	-0.418491	1.146187	-0.906985
O117	O	-0.348329	1.193944	-1.158779
C118	C	-0.377704	1.173950	-1.257123
H119	H	-0.410420	1.118643	-1.275658
H120	H	-0.314444	1.166470	-1.281995
H121	H	-0.431998	1.220567	-1.293238
