data_functionalizedCrystal
_audit_creation_method	'MofGen! by Chris Wilmer'
_symmetry_space_group_name_H-M	'P1'
_symmetry_Int_Tables_number	1
_symmetry_cell_setting	triclinic
loop_
_symmetry_equiv_pos_as_xyz
  x,y,z
_cell_length_a	14.044220
_cell_length_b	14.044190
_cell_length_c	10.868271
_cell_angle_alpha	89.990065
_cell_angle_beta	90.000690
_cell_angle_gamma	93.190328
loop_
_atom_site_label
_atom_site_type_symbol
_atom_site_fract_x
_atom_site_fract_y
_atom_site_fract_z
O1	O	1.277174	0.230169	-0.102216
O2	O	1.777174	0.730169	0.397784
O3	O	1.000502	0.221863	-0.102247
O4	O	1.500502	0.721863	0.397753
O5	O	1.134681	0.087680	-0.102208
O6	O	1.634681	0.587680	0.397792
O7	O	1.142994	0.364352	-0.102255
O8	O	1.642994	0.864352	0.397745
O9	O	1.134669	0.087673	0.102437
O10	O	1.634669	0.587673	0.602437
O11	O	1.000489	0.221856	0.102398
O12	O	1.500489	0.721856	0.602398
O13	O	1.277161	0.230162	0.102428
O14	O	1.777161	0.730162	0.602428
Zn15	Zn	1.138823	0.226008	0.134905
Zn16	Zn	1.638823	0.726008	0.634905
Zn17	Zn	1.138840	0.226017	-0.134723
Zn18	Zn	1.638840	0.726017	0.365277
O19	O	1.142982	0.364346	0.102389
O20	O	1.642982	0.864346	0.602389
C21	C	0.964874	0.218224	0.000072
C22	C	1.464874	0.718224	0.500072
C23	C	0.858731	0.207380	0.000062
C24	C	1.358731	0.707380	0.500062
C25	C	0.664392	0.187553	0.000089
C26	C	1.164392	0.687553	0.500089
C27	C	0.613264	0.264468	0.000081
C28	C	1.113264	0.764468	0.500081
C29	C	0.505128	0.253436	0.000097
C30	C	1.005128	0.753436	0.500097
C31	C	0.772539	0.198583	0.000074
C32	C	1.272539	0.698583	0.500074
C33	C	1.131039	0.052054	0.000118
C34	C	1.631039	0.552054	0.500118
C35	C	1.120191	-0.054089	0.000127
C36	C	1.620191	0.445911	0.500127
C37	C	1.177292	-0.299547	0.000085
C38	C	1.677292	0.200453	0.500085
C39	C	1.100375	-0.248422	0.000086
C40	C	1.600375	0.251578	0.500086
C41	C	1.111404	-0.140285	0.000109
C42	C	1.611404	0.359715	0.500109
C43	C	1.166265	-0.407694	0.000062
C44	C	1.666265	0.092306	0.500062
C45	C	1.312789	0.233801	0.000107
C46	C	1.812789	0.733801	0.500107
C47	C	1.418932	0.244646	0.000109
C48	C	1.918932	0.744646	0.500109
C49	C	1.146624	0.399971	0.000061
C50	C	1.646624	0.899971	0.500061
C51	C	1.157472	0.506114	0.000044
C52	C	1.657472	1.006114	0.500044
N53	N	1.138819	0.226002	0.318919
N54	N	1.638819	0.726002	0.818919
N55	N	1.138851	0.226016	-0.318737
N56	N	1.638851	0.726016	0.181263
C57	C	1.138835	0.226015	0.569925
C58	C	1.638835	0.726015	1.069925
C59	C	1.138823	0.226010	0.430248
C60	C	1.638823	0.726010	0.930248
H61	H	0.650706	0.338602	0.000063
H62	H	1.150706	0.838602	0.500063
C63	C	1.277435	-0.248965	0.000127
C64	C	1.777435	0.251035	0.500127
N65	N	1.352863	-0.210855	0.000168
N66	N	1.852863	0.289145	0.500168
H67	H	0.626954	0.113425	0.000109
H68	H	1.126954	0.613425	0.500109
H69	H	1.026243	-0.285865	0.000070
H70	H	1.526243	0.214135	0.500070
