data_functionalizedCrystal
_audit_creation_method	'MofGen! by Chris Wilmer'
_symmetry_space_group_name_H-M	'P1'
_symmetry_Int_Tables_number	1
_symmetry_cell_setting	triclinic
loop_
_symmetry_equiv_pos_as_xyz
  x,y,z
_cell_length_a	12.759401
_cell_length_b	12.594516
_cell_length_c	12.759393
_cell_angle_alpha	89.971950
_cell_angle_beta	89.979062
_cell_angle_gamma	90.017577
loop_
_atom_site_label
_atom_site_type_symbol
_atom_site_fract_x
_atom_site_fract_y
_atom_site_fract_z
Zn1	Zn	1.606257	-0.423647	-0.594038
Zn2	Zn	1.606143	-0.601663	-0.418366
Zn3	Zn	1.430555	-0.423704	-0.418373
Zn4	Zn	1.430543	-0.601589	-0.594003
O5	O	1.518375	-0.512651	-0.506195
O6	O	1.753263	-0.447269	-0.570746
O7	O	1.582809	-0.578111	-0.271345
O8	O	1.453915	-0.274751	-0.441693
O9	O	1.753179	-0.578056	-0.441680
O10	O	1.583002	-0.274709	-0.570754
O11	O	1.453805	-0.447365	-0.271351
O12	O	1.283533	-0.447293	-0.441659
O13	O	1.453894	-0.577930	-0.741029
O14	O	1.283524	-0.577985	-0.570694
O15	O	1.582990	-0.447197	-0.741054
O16	O	1.582797	-0.750599	-0.441646
O17	O	1.453784	-0.750545	-0.570686
C18	C	1.245407	-0.512638	-0.506174
C19	C	1.128631	-0.512658	-0.506190
C20	C	1.073791	-0.580812	-0.573272
C21	C	0.964067	-0.580817	-0.573293
C22	C	0.964031	-0.444509	-0.439140
C23	C	1.073753	-0.444500	-0.439125
C24	C	1.518306	-0.789192	-0.506185
C25	C	1.518372	-0.907497	-0.506215
C26	C	1.448195	-0.976759	-0.576351
C27	C	1.422594	-1.047629	-0.480484
C28	C	1.544069	-1.047427	-0.602099
C29	C	1.492721	-0.976808	-0.410297
C30	C	1.614240	-0.976600	-0.531977
C31	C	1.588675	-1.047438	-0.436044
C32	C	1.792408	-0.512665	-0.506216
C33	C	1.909184	-0.512671	-0.506226
C34	C	1.518453	-0.512549	-0.780228
C35	C	1.518487	-0.512505	-0.897005
C36	C	1.518472	-0.235030	-0.506228
C37	C	1.518514	-0.116725	-0.506242
C38	C	1.585712	-0.444422	-0.951882
C39	C	1.585730	-0.444376	-1.061606
C40	C	1.451294	-0.580506	-1.061567
C41	C	1.451272	-0.580546	-0.951844
C42	C	1.518357	-0.512676	-0.233228
C43	C	1.518527	-0.512420	-0.116451
H44	H	1.118469	-0.636308	-0.627883
C45	C	1.134082	-0.369528	-0.365324
C46	C	1.119029	-0.248540	-0.374096
C47	C	1.179358	-0.173569	-0.300300
C48	C	1.254739	-0.219588	-0.217733
C49	C	1.269796	-0.340583	-0.208958
C50	C	1.209467	-0.415553	-0.282753
H51	H	1.063224	-0.214468	-0.435221
H52	H	1.168211	-0.084001	-0.306797
H53	H	1.299398	-0.164091	-0.163105
H54	H	1.325601	-0.374654	-0.147833
H55	H	1.220614	-0.505121	-0.276257
C56	C	1.573363	-1.089334	-0.711625
C57	C	1.671390	-1.159154	-0.725875
C58	C	1.700674	-1.201055	-0.835403
C59	C	1.631931	-1.173137	-0.930680
C60	C	1.533899	-1.103313	-0.916433
C61	C	1.504614	-1.061411	-0.806905
H62	H	1.722283	-1.179824	-0.655343
H63	H	1.773245	-1.252744	-0.845950
H64	H	1.653609	-1.204155	-1.011759
H65	H	1.483006	-1.082643	-0.986965
H66	H	1.432043	-1.009723	-0.796359
H67	H	1.640470	-0.388934	-1.106282
H68	H	1.640440	-0.389016	-0.907235
C69	C	1.377369	-0.655356	-1.121893
C70	C	1.377394	-0.655322	-1.242583
C71	C	1.303469	-0.730176	-1.302906
C72	C	1.229520	-0.805066	-1.242539
C73	C	1.229492	-0.805103	-1.121842
C74	C	1.303417	-0.730248	-1.061519
H75	H	1.432138	-0.599881	-1.287276
H76	H	1.303490	-0.730148	-1.392254
H77	H	1.174796	-0.860478	-1.287194
H78	H	1.174748	-0.860543	-1.077149
H79	H	1.303396	-0.730277	-0.972171
C80	C	1.377316	-0.655443	-0.891476
C81	C	1.257887	-0.646740	-0.906549
C82	C	1.183930	-0.721630	-0.846182
C83	C	1.229401	-0.805223	-0.770742
C84	C	1.348836	-0.813931	-0.755665
C85	C	1.422793	-0.739041	-0.816032
H86	H	1.224221	-0.584856	-0.962398
H87	H	1.095516	-0.715184	-0.857344
H88	H	1.174653	-0.860662	-0.726055
H89	H	1.382502	-0.875815	-0.699817
H90	H	1.511207	-0.745487	-0.804871
H91	H	0.919422	-0.636313	-0.627920
H92	H	1.388743	-0.945724	-0.635576
C93	C	1.463307	-0.935080	-0.300737
C94	C	1.356594	-0.964088	-0.252101
C95	C	1.327179	-0.922356	-0.142545
C96	C	1.404476	-0.851615	-0.081626
C97	C	1.511197	-0.822603	-0.130263
C98	C	1.540612	-0.864336	-0.239818
H99	H	1.299367	-1.016458	-0.297197
H100	H	1.248177	-0.943833	-0.106541
H101	H	1.382701	-0.820722	-0.000527
H102	H	1.568423	-0.770234	-0.085167
H103	H	1.619613	-0.842859	-0.275822
C104	C	0.903664	-0.369547	-0.365363
C105	C	0.782974	-0.369557	-0.365370
C106	C	0.722609	-0.294596	-0.291588
C107	C	0.782934	-0.219625	-0.217800
C108	C	0.903630	-0.219612	-0.217790
C109	C	0.963995	-0.294573	-0.291572
H110	H	0.738311	-0.425057	-0.419995
H111	H	0.633261	-0.294606	-0.291596
H112	H	0.738248	-0.164134	-0.163182
H113	H	0.948293	-0.164111	-0.163165
H114	H	1.053343	-0.294563	-0.291564
H115	H	1.341587	-1.078851	-0.458716
C116	C	1.723649	-0.934412	-0.561443
C117	C	1.771821	-0.962173	-0.668657
C118	C	1.881230	-0.919982	-0.698136
C119	C	1.942467	-0.850031	-0.620403
C120	C	1.894295	-0.822267	-0.513182
C121	C	1.784886	-0.864458	-0.483702
H122	H	1.726490	-1.013958	-0.726206
H123	H	1.916890	-0.940534	-0.777509
H124	H	2.023457	-0.818798	-0.642225
H125	H	1.939626	-0.770482	-0.455633
H126	H	1.749226	-0.843905	-0.404330
H127	H	1.648082	-1.078276	-0.376676
