data_functionalizedCrystal
_audit_creation_method	'MofGen! by Chris Wilmer'
_symmetry_space_group_name_H-M	'P1'
_symmetry_Int_Tables_number	1
_symmetry_cell_setting	triclinic
loop_
_symmetry_equiv_pos_as_xyz
  x,y,z
_cell_length_a	14.853567
_cell_length_b	9.565339
_cell_length_c	14.853559
_cell_angle_alpha	89.997578
_cell_angle_beta	83.633192
_cell_angle_gamma	90.000587
loop_
_atom_site_label
_atom_site_type_symbol
_atom_site_fract_x
_atom_site_fract_y
_atom_site_fract_z
O1	O	1.196361	0.116157	0.117698
O2	O	0.933901	0.116180	0.131720
O3	O	1.072145	0.116166	-0.006521
O4	O	1.058116	0.116170	0.255939
O5	O	1.072134	-0.116354	-0.006513
O6	O	0.933890	-0.116340	0.131728
O7	O	1.196350	-0.116363	0.117707
Zn8	Zn	1.065118	-0.153270	0.124719
Zn9	Zn	1.065132	0.153086	0.124708
O10	O	1.058105	-0.116350	0.255948
C11	C	0.900307	-0.000077	0.131089
C12	C	0.800223	-0.000068	0.129185
N13	N	1.065115	-0.362349	0.124726
C14	C	0.387692	-0.000101	0.039019
C15	C	0.366406	-0.000097	0.203252
C16	C	0.460440	-0.000092	0.205042
C17	C	0.518104	-0.000090	0.123819
C18	C	0.481735	-0.000092	0.040806
C19	C	0.496816	-0.000076	0.288054
C20	C	0.590855	-0.000070	0.289847
C21	C	0.648521	-0.000078	0.208623
C22	C	0.612147	-0.000081	0.125607
C23	C	0.669811	-0.000079	0.044384
C24	C	0.633438	-0.000093	-0.038633
C25	C	0.539401	-0.000100	-0.040417
C26	C	0.742559	-0.000071	0.210408
C27	C	0.763854	-0.000070	0.046172
C28	C	1.001162	-0.453546	0.188637
C29	C	1.082651	-0.546732	0.206232
C30	C	0.983661	-0.546718	0.107137
C31	C	1.146645	-0.453483	0.142362
C32	C	1.047601	-0.453462	0.043232
C33	C	1.129149	-0.546605	0.060793
C34	C	1.229944	-0.000103	0.118338
C35	C	1.330028	-0.000103	0.120242
C36	C	1.071506	-0.000091	-0.040106
C37	C	1.069605	-0.000083	-0.140190
N38	N	1.065143	0.362165	0.124693
C39	C	1.061547	0.126664	-0.563370
C40	C	1.061535	-0.126838	-0.563355
C41	C	1.063328	-0.126839	-0.469322
C42	C	1.064230	-0.000087	-0.422308
C43	C	1.063338	0.126667	-0.469327
C44	C	1.064211	-0.253591	-0.422294
C45	C	1.066004	-0.253597	-0.328255
C46	C	1.066912	-0.126843	-0.281240
C47	C	1.066021	-0.000084	-0.328266
C48	C	1.066922	0.126668	-0.281252
C49	C	1.066037	0.253428	-0.328276
C50	C	1.064246	0.253421	-0.422313
C51	C	1.068703	-0.126836	-0.187204
C52	C	1.068713	0.126671	-0.187209
C53	C	1.058745	-0.000089	0.289532
C54	C	1.060646	-0.000088	0.389616
H55	H	0.810799	-0.000074	-0.019971
Br56	Br	0.711707	-0.000073	-0.148860
H57	H	0.772169	-0.000062	0.277999
H58	H	1.063525	0.356622	-0.460608
Br59	Br	0.338333	-0.000132	-0.073642
H60	H	1.215556	-0.412701	0.157307
H61	H	1.060830	0.229870	-0.601662
H62	H	1.032743	-0.412461	-0.025649
Br63	Br	1.067262	0.425443	-0.264461
Br64	Br	1.060292	-0.298851	-0.627157
Br65	Br	1.062962	-0.425601	-0.486098
Br66	Br	1.069947	0.298701	-0.123413
H67	H	0.319450	-0.000087	0.269380
H68	H	0.914765	-0.587676	0.092276
Br69	Br	1.067197	-0.425625	-0.264443
H70	H	1.069403	-0.230042	-0.148918
Br71	Br	1.107377	-0.615014	0.321074
Br72	Br	0.418555	-0.000049	0.398278
Br73	Br	0.640211	-0.000052	0.402510
Br74	Br	0.490032	-0.000114	-0.153073
H75	H	0.947128	-0.412686	0.242734
H76	H	1.183303	-0.587209	0.006729
