data_functionalizedCrystal
_audit_creation_method	'MofGen! by Chris Wilmer'
_symmetry_space_group_name_H-M	'P1'
_symmetry_Int_Tables_number	1
_symmetry_cell_setting	triclinic
loop_
_symmetry_equiv_pos_as_xyz
  x,y,z
_cell_length_a	12.594516
_cell_length_b	12.594517
_cell_length_c	18.101390
_cell_angle_alpha	90.022255
_cell_angle_beta	89.973074
_cell_angle_gamma	89.989009
loop_
_atom_site_label
_atom_site_type_symbol
_atom_site_fract_x
_atom_site_fract_y
_atom_site_fract_z
Zn1	Zn	-0.423846	-1.627230	-0.418859
Zn2	Zn	-0.090513	-1.293896	-0.085525
Zn3	Zn	0.242821	-0.960563	0.247808
Zn4	Zn	-0.601859	-1.627131	-0.295030
Zn5	Zn	-0.268525	-1.293798	0.038303
Zn6	Zn	0.064808	-0.960465	0.371637
Zn7	Zn	-0.423879	-1.449245	-0.295021
Zn8	Zn	-0.090545	-1.115911	0.038312
Zn9	Zn	0.242788	-0.782578	0.371646
Zn10	Zn	-0.601767	-1.449216	-0.418820
Zn11	Zn	-0.268434	-1.115882	-0.085486
Zn12	Zn	0.064899	-0.782549	0.247847
O13	O	-0.512838	-1.538205	-0.356932
O14	O	-0.179504	-1.204872	-0.023599
O15	O	0.153829	-0.871539	0.309734
O16	O	-0.447484	-1.776162	-0.402453
O17	O	-0.114151	-1.442829	-0.069119
O18	O	0.219182	-1.109496	0.264214
O19	O	-0.578301	-1.603505	-0.191396
O20	O	-0.244968	-1.270172	0.141937
O21	O	0.088366	-0.936839	0.475271
O22	O	-0.274929	-1.472908	-0.311461
O23	O	0.058405	-1.139574	0.021872
O24	O	0.391738	-0.806241	0.355206
O25	O	-0.578269	-1.776090	-0.311476
O26	O	-0.244936	-1.442757	0.021857
O27	O	0.088397	-1.109424	0.355190
O28	O	-0.274905	-1.603673	-0.402444
O29	O	0.058429	-1.270339	-0.069111
O30	O	0.391762	-0.937006	0.264223
O31	O	-0.447540	-1.472813	-0.191389
O32	O	-0.114207	-1.139479	0.141944
O33	O	0.219127	-0.806146	0.475277
O34	O	-0.447452	-1.300295	-0.311423
O35	O	-0.114118	-0.966962	0.021910
O36	O	0.219215	-0.633628	0.355244
O37	O	-0.578114	-1.472859	-0.522458
O38	O	-0.244780	-1.139525	-0.189125
O39	O	0.088553	-0.806192	0.144209
O40	O	-0.578145	-1.300274	-0.402377
O41	O	-0.244812	-0.966940	-0.069044
O42	O	0.088521	-0.633607	0.264289
O43	O	-0.447396	-1.603645	-0.522487
O44	O	-0.114062	-1.270311	-0.189153
O45	O	0.219271	-0.936978	0.144180
O46	O	-0.750792	-1.603477	-0.311438
O47	O	-0.417459	-1.270144	0.021895
O48	O	-0.084126	-0.936811	0.355228
O49	O	-0.750725	-1.472763	-0.402386
O50	O	-0.417392	-1.139430	-0.069053
O51	O	-0.084058	-0.806097	0.264281
C52	C	-0.512793	-1.261664	-0.356896
C53	C	-0.179460	-0.928331	-0.023562
C54	C	0.153874	-0.594998	0.309771
C55	C	-0.512799	-1.143359	-0.356897
C56	C	-0.179466	-0.810026	-0.023564
C57	C	0.153867	-0.476692	0.309769
C58	C	-0.441612	-1.074086	-0.307518
C59	C	-0.108279	-0.740753	0.025816
C60	C	0.225055	-0.407420	0.359149
C61	C	-0.538695	-1.003277	-0.289301
C62	C	-0.205362	-0.669944	0.044032
C63	C	0.127972	-0.336610	0.377366
C64	C	-0.415746	-1.003369	-0.375115
C65	C	-0.082413	-0.670036	-0.041782
C66	C	0.250921	-0.336703	0.291551
C67	C	-0.609934	-1.074108	-0.338645
C68	C	-0.276600	-0.740774	-0.005312
C69	C	0.056733	-0.407441	0.328021
C70	C	-0.486919	-1.074206	-0.424491
C71	C	-0.153586	-0.740873	-0.091158
C72	C	0.179748	-0.407540	0.242176
C73	C	-0.584069	-1.003429	-0.406300
C74	C	-0.250736	-0.670095	-0.072966
C75	C	0.082598	-0.336762	0.260367
C76	C	-0.789379	-1.538136	-0.356925
C77	C	-0.456045	-1.204802	-0.023592
C78	C	-0.122712	-0.871469	0.309741
C79	C	-0.907684	-1.538203	-0.356947
C80	C	-0.574351	-1.204870	-0.023613
C81	C	-0.241017	-0.871536	0.309720
C82	C	-0.976939	-1.467101	-0.406379
C83	C	-0.643606	-1.133768	-0.073045
C84	C	-0.310273	-0.800434	0.260288
C85	C	-1.047804	-1.441174	-0.338801
C86	C	-0.714470	-1.107840	-0.005468
C87	C	-0.381137	-0.774507	0.327865
C88	C	-1.047619	-1.564227	-0.424536
C89	C	-0.714285	-1.230894	-0.091202
C90	C	-0.380952	-0.897561	0.242131
C91	C	-0.976990	-1.512224	-0.289334
C92	C	-0.643657	-1.178891	0.044000
C93	C	-0.310324	-0.845558	0.377333
C94	C	-0.976799	-1.635323	-0.375114
C95	C	-0.643466	-1.301990	-0.041780
C96	C	-0.310132	-0.968657	0.291553
C97	C	-1.047631	-1.609433	-0.307490
C98	C	-0.714298	-1.276100	0.025843
C99	C	-0.380965	-0.942766	0.359177
C100	C	-0.235217	-1.538304	-0.356956
C101	C	0.098117	-1.204971	-0.023623
C102	C	0.431450	-0.871638	0.309711
C103	C	-0.116911	-1.538347	-0.356966
C104	C	0.216422	-1.205013	-0.023633
C105	C	0.549755	-0.871680	0.309701
C106	C	-0.512741	-1.538259	-0.550094
C107	C	-0.179408	-1.204926	-0.216761
C108	C	0.153926	-0.871593	0.116572
C109	C	-0.512700	-1.538282	-0.632409
C110	C	-0.179366	-1.204949	-0.299075
C111	C	0.153967	-0.871616	0.034258
C112	C	-0.512862	-0.815826	-0.356956
C113	C	-0.179529	-0.482493	-0.023623
C114	C	0.153805	-0.149159	0.309710
C115	C	-0.512818	-0.934132	-0.356931
C116	C	-0.179485	-0.600798	-0.023598
C117	C	0.153849	-0.267465	0.309735
C118	C	-0.512666	-1.538320	-0.783117
C119	C	-0.179333	-1.204987	-0.449784
C120	C	0.154000	-0.871654	-0.116450
C121	C	-0.430415	-1.620610	-0.814489
C122	C	-0.097081	-1.287277	-0.481156
C123	C	0.236252	-0.953944	-0.147822
C124	C	-0.430638	-1.620954	-0.900107
C125	C	-0.097304	-1.287621	-0.566774
C126	C	0.236029	-0.954288	-0.233441
C127	C	-0.512632	-1.538358	-0.931500
C128	C	-0.179299	-1.205025	-0.598166
C129	C	0.154035	-0.871691	-0.264833
C130	C	-0.624900	-1.568391	-0.900399
C131	C	-0.291566	-1.235057	-0.567066
C132	C	0.041767	-0.901724	-0.233732
C133	C	-0.624444	-1.568966	-0.814754
C134	C	-0.291110	-1.235633	-0.481421
C135	C	0.042223	-0.902300	-0.148087
C136	C	-0.483624	-1.425798	-0.814666
C137	C	-0.150291	-1.092465	-0.481332
C138	C	0.183043	-0.759131	-0.147999
C139	C	-0.481130	-1.426423	-0.900317
C140	C	-0.147796	-1.093089	-0.566984
C141	C	0.185537	-0.759756	-0.233650
C142	C	-0.512619	-1.538377	-1.015359
C143	C	-0.179286	-1.205044	-0.682026
C144	C	0.154047	-0.871711	-0.348693
C145	C	-0.512687	-1.538304	-0.699258
C146	C	-0.179353	-1.204970	-0.365924
C147	C	0.153980	-0.871637	-0.032591
C148	C	-0.512857	-1.538213	-0.164522
C149	C	-0.179524	-1.204879	0.168811
C150	C	0.153809	-0.871546	0.502145
C151	C	-0.512599	-1.538396	-0.082208
C152	C	-0.179265	-1.205063	0.251125
C153	C	0.154068	-0.871729	0.584458
H154	H	-0.381478	-1.105111	-0.265713
H155	H	-0.048144	-0.771778	0.067621
H156	H	0.285189	-0.438444	0.400954
H157	H	-0.649894	-1.649724	-0.921878
H158	H	-0.316561	-1.316391	-0.588545
H159	H	0.016773	-0.983058	-0.255212
H160	H	-0.333672	-0.972241	-0.390484
H161	H	-0.000339	-0.638908	-0.057151
H162	H	0.332995	-0.305574	0.276182
H163	H	-0.560600	-0.972123	-0.232153
H164	H	-0.227267	-0.638790	0.101180
H165	H	0.106066	-0.305457	0.434514
H166	H	-0.946094	-1.490176	-0.232167
H167	H	-0.612760	-1.156843	0.101167
H168	H	-0.279427	-0.823509	0.434500
H169	H	-0.945590	-1.717371	-0.390496
H170	H	-0.612256	-1.384038	-0.057163
H171	H	-0.278923	-1.050704	0.276170
H172	H	-0.644347	-0.972599	-0.448073
H173	H	-0.311014	-0.639266	-0.114740
H174	H	0.022319	-0.305933	0.218594
H175	H	-0.945899	-1.406865	-0.448120
H176	H	-0.612565	-1.073531	-0.114787
H177	H	-0.279232	-0.740198	0.218546
H178	H	-1.079016	-1.359107	-0.323451
H179	H	-0.745683	-1.025774	0.009882
H180	H	-0.412349	-0.692441	0.343216
H181	H	-1.078475	-1.669623	-0.265647
H182	H	-0.745142	-1.336290	0.067686
H183	H	-0.411809	-1.002957	0.401020
H184	H	-0.464984	-1.105386	-0.481622
H185	H	-0.131651	-0.772052	-0.148289
H186	H	0.201682	-0.438719	0.185045
H187	H	-1.078643	-1.586181	-0.481687
H188	H	-0.745310	-1.252848	-0.148354
H189	H	-0.411977	-0.919514	0.184979
H190	H	-0.398509	-1.403767	-0.920646
H191	H	-0.065176	-1.070433	-0.587313
H192	H	0.268158	-0.737100	-0.253980
H193	H	-0.536629	-1.361873	-0.921683
H194	H	-0.203296	-1.028539	-0.588350
H195	H	0.130037	-0.695206	-0.255016
H196	H	-0.346927	-1.602069	-0.793909
H197	H	-0.013594	-1.268736	-0.460576
H198	H	0.319739	-0.935402	-0.127243
H199	H	-0.347406	-1.602187	-0.921137
H200	H	-0.014073	-1.268854	-0.587804
H201	H	0.319261	-0.935521	-0.254470
H202	H	-0.449435	-1.703514	-0.792981
H203	H	-0.116101	-1.370181	-0.459648
H204	H	0.217232	-1.036847	-0.126314
H205	H	-0.543527	-1.364492	-0.794374
H206	H	-0.210194	-1.031159	-0.461041
H207	H	0.123139	-0.697825	-0.127707
H208	H	-0.649008	-1.651208	-0.794791
H209	H	-0.315675	-1.317875	-0.461457
H210	H	0.017659	-0.984541	-0.128124
H211	H	-0.692043	-1.105051	-0.323187
H212	H	-0.358709	-0.771717	0.010146
H213	H	-0.025376	-0.438384	0.343479
H214	H	-0.449882	-1.704342	-0.920610
H215	H	-0.116548	-1.371009	-0.587276
H216	H	0.216785	-1.037676	-0.253943
H217	H	-0.687815	-1.511592	-0.793998
H218	H	-0.354482	-1.178259	-0.460665
H219	H	-0.021149	-0.844926	-0.127332
H220	H	-0.687849	-1.510302	-0.920730
H221	H	-0.354516	-1.176969	-0.587397
H222	H	-0.021182	-0.843636	-0.254063
H223	H	-0.403166	-1.398366	-0.793065
H224	H	-0.069832	-1.065032	-0.459732
H225	H	0.263501	-0.731699	-0.126398
