data_functionalizedCrystal
_audit_creation_method	'MofGen! by Chris Wilmer'
_symmetry_space_group_name_H-M	'P1'
_symmetry_Int_Tables_number	1
_symmetry_cell_setting	triclinic
loop_
_symmetry_equiv_pos_as_xyz
  x,y,z
_cell_length_a	17.638336
_cell_length_b	17.637651
_cell_length_c	19.077174
_cell_angle_alpha	81.471232
_cell_angle_beta	77.003791
_cell_angle_gamma	87.821411
loop_
_atom_site_label
_atom_site_type_symbol
_atom_site_fract_x
_atom_site_fract_y
_atom_site_fract_z
Zn1	Zn	1.117029	-0.563498	-0.497177
Zn2	Zn	1.086283	-0.682955	-0.352431
Zn3	Zn	0.985358	-0.530735	-0.361734
Zn4	Zn	0.962782	-0.662368	-0.451601
O5	O	1.037863	-0.609889	-0.415736
O6	O	1.219741	-0.601672	-0.493157
O7	O	1.069476	-0.657667	-0.255479
O8	O	1.025140	-0.430000	-0.402668
O9	O	1.197152	-0.689436	-0.386813
O10	O	1.121878	-0.454070	-0.502177
O11	O	0.995326	-0.545832	-0.262313
O12	O	0.875573	-0.525870	-0.358474
O13	O	0.986662	-0.654348	-0.555833
O14	O	0.858986	-0.622579	-0.424499
O15	O	1.099987	-0.581709	-0.589318
O16	O	1.047585	-0.785306	-0.342619
O17	O	0.956849	-0.770180	-0.415479
C18	C	0.839590	-0.568436	-0.387551
C19	C	0.754764	-0.550721	-0.375506
C20	C	0.643837	-0.475331	-0.324238
C21	C	0.723543	-0.491982	-0.335561
C22	C	0.706285	-0.592834	-0.404141
C23	C	0.626576	-0.576193	-0.392821
C24	C	0.595359	-0.517440	-0.352870
C25	C	0.578098	-0.618303	-0.421453
C26	C	0.498396	-0.601661	-0.410137
C27	C	0.467173	-0.542909	-0.370190
C28	C	0.515657	-0.500798	-0.341554
C29	C	0.609318	-0.677052	-0.461409
C30	C	0.560839	-0.719161	-0.490040
C31	C	0.481135	-0.702523	-0.478720
C32	C	0.449912	-0.643772	-0.438773
C33	C	0.432651	-0.744634	-0.507356
C34	C	0.352950	-0.727992	-0.496040
C35	C	0.370211	-0.627129	-0.427457
C36	C	0.996452	-0.804995	-0.373112
C37	C	0.978807	-0.888477	-0.354911
C38	C	1.172415	-1.225379	-0.554299
C39	C	1.155810	-1.303819	-0.537181
C40	C	1.055138	-1.278870	-0.433484
C41	C	1.071737	-1.200428	-0.450592
C42	C	1.130376	-1.173689	-0.511001
C43	C	1.029698	-1.148737	-0.407293
C44	C	1.046294	-1.070301	-0.424402
C45	C	1.104928	-1.043556	-0.484809
C46	C	1.146971	-1.095253	-0.528109
C47	C	0.971056	-1.175477	-0.346887
C48	C	0.929017	-1.123786	-0.303588
C49	C	0.945616	-1.045349	-0.320694
C50	C	1.004250	-1.018604	-0.381101
C51	C	0.903573	-0.993652	-0.277394
C52	C	0.920168	-0.915216	-0.294502
C53	C	1.020846	-0.940168	-0.398210
C54	C	1.236910	-0.651505	-0.444031
C55	C	1.321732	-0.669239	-0.456089
C56	C	1.044236	-0.619387	-0.598746
C57	C	1.046952	-0.623434	-0.676734
C58	C	1.079457	-0.414027	-0.458544
C59	C	1.097182	-0.330562	-0.476786
C60	C	1.009624	-0.567110	-0.716931
C61	C	1.012172	-0.570919	-0.790207
C62	C	1.052052	-0.631049	-0.823287
C63	C	1.089381	-0.687378	-0.783084
C64	C	1.086828	-0.683572	-0.709807
C65	C	1.063822	-0.648678	-1.042056
C66	C	1.066374	-0.652479	-1.115338
C67	C	0.989164	-0.536020	-1.122456
C68	C	0.986619	-0.532217	-1.049180
C69	C	1.023944	-0.588548	-1.008982
N70	N	1.054660	-0.634942	-0.898187
N71	N	1.021331	-0.584658	-0.934082
C72	C	1.031570	-0.600383	-0.233456
C73	C	1.029047	-0.596155	-0.155535
H74	H	0.344792	-0.579287	-0.394925
H75	H	0.954141	-0.483254	-1.022251
H76	H	0.674217	-0.690595	-0.470626
O77	O	1.201160	-1.359566	-0.583891
H78	H	1.160649	-1.390009	-0.606911
O79	O	1.104082	-0.709427	-0.998702
H80	H	1.148875	-0.682196	-0.978178
H81	H	1.220170	-1.203610	-0.603486
H82	H	0.313478	-0.762280	-0.519358
O83	O	0.594514	-0.782514	-0.533148
H84	H	0.658081	-0.787009	-0.536212
H85	H	0.958775	-0.490159	-1.155193
O86	O	1.109389	-0.717340	-1.151015
H87	H	1.104900	-0.710515	-1.208724
O88	O	0.381206	-0.524968	-0.357983
H89	H	0.372692	-0.464707	-0.381640
H90	H	0.855825	-1.015435	-0.228213
O91	O	0.775832	-0.446560	-0.304677
H92	H	0.803778	-0.485836	-0.266756
O93	O	0.481976	-0.437430	-0.298463
H94	H	0.529075	-0.410939	-0.280454
H95	H	1.121848	-0.736340	-0.810021
O96	O	1.210222	-1.066411	-0.593264
H97	H	1.255547	-1.037158	-0.575204
H98	H	1.068601	-0.918398	-0.447397
O99	O	1.127097	-0.744314	-0.666449
H100	H	1.155266	-0.786761	-0.701763
H101	H	0.618419	-0.427488	-0.291706
H102	H	0.731714	-0.640669	-0.436671
H103	H	0.458082	-0.792465	-0.539890
O104	O	1.122837	-0.958958	-0.503261
H105	H	1.070128	-0.927003	-0.513713
O106	O	0.991905	-1.307712	-0.368321
H107	H	0.987433	-1.370939	-0.363692
H108	H	0.957540	-1.239344	-0.332965
H109	H	0.885935	-0.873128	-0.259244
O110	O	0.865784	-1.152629	-0.238425
H111	H	0.861312	-1.215855	-0.233796
O112	O	0.966614	-0.502253	-0.681254
H113	H	0.941082	-0.463731	-0.721518
H114	H	0.981773	-0.525056	-0.822932
