data_functionalizedCrystal
_audit_creation_method	'MofGen! by Chris Wilmer'
_symmetry_space_group_name_H-M	'P1'
_symmetry_Int_Tables_number	1
_symmetry_cell_setting	triclinic
loop_
_symmetry_equiv_pos_as_xyz
  x,y,z
_cell_length_a	29.839134
_cell_length_b	29.839131
_cell_length_c	29.839126
_cell_angle_alpha	90.021998
_cell_angle_beta	90.038073
_cell_angle_gamma	90.034165
loop_
_atom_site_label
_atom_site_type_symbol
_atom_site_fract_x
_atom_site_fract_y
_atom_site_fract_z
Zn1	Zn	0.686781	-0.178984	0.254153
Zn2	Zn	0.936781	0.071016	0.504153
Zn3	Zn	1.186781	0.321016	0.754153
Zn4	Zn	1.436781	0.571016	1.004153
Zn5	Zn	0.686695	-0.254102	0.179023
Zn6	Zn	0.936695	-0.004102	0.429023
Zn7	Zn	1.186695	0.245898	0.679023
Zn8	Zn	1.436695	0.495898	0.929023
Zn9	Zn	0.611645	-0.178977	0.179019
Zn10	Zn	0.861645	0.071023	0.429019
Zn11	Zn	1.111645	0.321023	0.679019
Zn12	Zn	1.361645	0.571023	0.929019
Zn13	Zn	0.611611	-0.254078	0.254108
Zn14	Zn	0.861611	-0.004078	0.504108
Zn15	Zn	1.111611	0.245922	0.754108
Zn16	Zn	1.361611	0.495922	1.004108
O17	O	0.649183	-0.216535	0.216576
O18	O	0.899183	0.033465	0.466576
O19	O	1.149183	0.283465	0.716576
O20	O	1.399183	0.533465	0.966576
O21	O	0.749636	-0.188961	0.244207
O22	O	0.999636	0.061039	0.494207
O23	O	1.249636	0.311039	0.744207
O24	O	1.499636	0.561039	0.994207
O25	O	0.676718	-0.244143	0.116155
O26	O	0.926718	0.005857	0.366155
O27	O	1.176718	0.255857	0.616155
O28	O	1.426718	0.505857	0.866155
O29	O	0.621663	-0.116111	0.189003
O30	O	0.871663	0.133889	0.439003
O31	O	1.121663	0.383889	0.689003
O32	O	1.371663	0.633889	0.939003
O33	O	0.749573	-0.244150	0.189009
O34	O	0.999573	0.005850	0.439009
O35	O	1.249573	0.255850	0.689009
O36	O	1.499573	0.505850	0.939009
O37	O	0.676864	-0.116116	0.244204
O38	O	0.926864	0.133884	0.494204
O39	O	1.176864	0.383884	0.744204
O40	O	1.426864	0.633884	0.994204
O41	O	0.621579	-0.188949	0.116153
O42	O	0.871579	0.061051	0.366153
O43	O	1.121579	0.311051	0.616153
O44	O	1.371579	0.561051	0.866153
O45	O	0.548774	-0.188927	0.188960
O46	O	0.798774	0.061073	0.438960
O47	O	1.048774	0.311073	0.688960
O48	O	1.298774	0.561073	0.938960
O49	O	0.621604	-0.244110	0.316981
O50	O	0.871604	0.005890	0.566981
O51	O	1.121604	0.255890	0.816981
O52	O	1.371604	0.505890	1.066981
O53	O	0.548749	-0.244103	0.244127
O54	O	0.798749	0.005897	0.494127
O55	O	1.048749	0.255897	0.744127
O56	O	1.298749	0.505897	0.994127
O57	O	0.676831	-0.188939	0.317014
O58	O	0.926831	0.061061	0.567014
O59	O	1.176831	0.311061	0.817014
O60	O	1.426831	0.561061	1.067014
O61	O	0.676684	-0.316966	0.188966
O62	O	0.926684	-0.066966	0.438966
O63	O	1.176684	0.183034	0.688966
O64	O	1.426684	0.433034	0.938966
O65	O	0.621521	-0.316949	0.244131
O66	O	0.871521	-0.066949	0.494131
O67	O	1.121521	0.183051	0.744131
O68	O	1.371521	0.433051	0.994131
C69	C	0.532460	-0.216512	0.216539
C70	C	0.782460	0.033488	0.466539
C71	C	1.032460	0.283488	0.716539
C72	C	1.282460	0.533488	0.966539
C73	C	0.482526	-0.216513	0.216534
C74	C	0.732526	0.033487	0.466534
C75	C	0.982526	0.283487	0.716534
C76	C	1.232526	0.533487	0.966534
C77	C	0.125939	-0.187763	0.187909
C78	C	0.375939	0.062237	0.437909
C79	C	0.625939	0.312237	0.687909
C80	C	0.875939	0.562237	0.937909
C81	C	0.313613	-0.187750	0.187882
C82	C	0.563613	0.062250	0.437882
C83	C	0.813613	0.312250	0.687882
C84	C	1.063613	0.562250	0.937882
O85	O	0.337878	-0.163267	0.163502
O86	O	0.587878	0.086733	0.413502
O87	O	0.837878	0.336733	0.663502
O88	O	1.087878	0.586733	0.913502
N89	N	0.337081	-0.216520	0.216556
N90	N	0.587081	0.033480	0.466556
N91	N	0.837081	0.283480	0.716556
N92	N	1.087081	0.533480	0.966556
C93	C	0.313628	-0.245294	0.245242
C94	C	0.563628	0.004706	0.495242
C95	C	0.813628	0.254706	0.745242
C96	C	1.063628	0.504706	0.995242
O97	O	0.337896	-0.269761	0.269634
O98	O	0.587896	-0.019761	0.519634
O99	O	0.837896	0.230239	0.769634
O100	O	1.087896	0.480239	1.019634
C101	C	0.125956	-0.245304	0.245271
C102	C	0.375956	0.004696	0.495271
C103	C	0.625956	0.254696	0.745271
C104	C	0.875956	0.504696	0.995271
C105	C	0.102490	-0.216535	0.216591
C106	C	0.352490	0.033465	0.466591
C107	C	0.602490	0.283465	0.716591
C108	C	0.852490	0.533465	0.966591
C109	C	0.102473	-0.158996	0.159232
C110	C	0.352473	0.091004	0.409232
C111	C	0.602473	0.341004	0.659232
C112	C	0.852473	0.591004	0.909232
C113	C	0.055558	-0.159001	0.159237
C114	C	0.305558	0.090999	0.409237
C115	C	0.555558	0.340999	0.659237
C116	C	0.805558	0.590999	0.909237
C117	C	0.032109	-0.187773	0.187920
C118	C	0.282109	0.062227	0.437920
C119	C	0.532109	0.312227	0.687920
C120	C	0.782109	0.562227	0.937920
C121	C	0.055574	-0.216540	0.216597
C122	C	0.305574	0.033460	0.466597
C123	C	0.555574	0.283460	0.716597
C124	C	0.805574	0.533460	0.966597
C125	C	0.102504	-0.274075	0.273958
C126	C	0.352504	-0.024075	0.523958
C127	C	0.602504	0.225925	0.773958
C128	C	0.852504	0.475925	1.023958
C129	C	0.055583	-0.274074	0.273964
C130	C	0.305583	-0.024074	0.523964
C131	C	0.555583	0.225926	0.773964
C132	C	0.805583	0.475926	1.023964
C133	C	0.032117	-0.245305	0.245284
C134	C	0.282117	0.004695	0.495284
C135	C	0.532117	0.254695	0.745284
C136	C	0.782117	0.504695	0.995284
C137	C	-0.014790	-0.245317	0.245284
C138	C	0.235210	0.004683	0.495284
C139	C	0.485210	0.254683	0.745284
C140	C	0.735210	0.504683	0.995284
N141	N	-0.038259	-0.216547	0.216610
N142	N	0.211741	0.033453	0.466610
N143	N	0.461741	0.283453	0.716610
N144	N	0.711741	0.533453	0.966610
C145	C	-0.014809	-0.187775	0.187927
C146	C	0.235191	0.062225	0.437927
C147	C	0.485191	0.312225	0.687927
C148	C	0.735191	0.562225	0.937927
C149	C	0.412159	-0.245287	0.245224
C150	C	0.662159	0.004713	0.495224
C151	C	0.912159	0.254713	0.745224
C152	C	1.162159	0.504713	0.995224
C153	C	0.459077	-0.245285	0.245216
C154	C	0.709077	0.004715	0.495216
C155	C	0.959077	0.254715	0.745216
C156	C	1.209077	0.504715	0.995216
C157	C	0.459058	-0.187741	0.187856
C158	C	0.709058	0.062259	0.437856
C159	C	0.959058	0.312259	0.687856
C160	C	1.209058	0.562259	0.937856
C161	C	0.412139	-0.187745	0.187862
C162	C	0.662139	0.062255	0.437862
C163	C	0.912139	0.312255	0.687862
C164	C	1.162139	0.562255	0.937862
C165	C	0.388690	-0.216517	0.216549
C166	C	0.638690	0.033483	0.466549
C167	C	0.888690	0.283483	0.716549
C168	C	1.138690	0.533483	0.966549
C169	C	-0.113335	-0.187788	0.187941
C170	C	0.136665	0.062212	0.437941
C171	C	0.386665	0.312212	0.687941
C172	C	0.636665	0.562212	0.937941
C173	C	-0.160255	-0.187797	0.187947
C174	C	0.089745	0.062203	0.437947
C175	C	0.339745	0.312203	0.687947
C176	C	0.589745	0.562203	0.937947
C177	C	-0.160232	-0.245340	0.245308
C178	C	0.089768	0.004660	0.495308
C179	C	0.339768	0.254660	0.745308
C180	C	0.589768	0.504660	0.995308
C181	C	-0.113316	-0.245333	0.245300
C182	C	0.136684	0.004667	0.495300
C183	C	0.386684	0.254667	0.745300
C184	C	0.636684	0.504667	0.995300
C185	C	-0.089869	-0.216553	0.216615
C186	C	0.160131	0.033447	0.466615
C187	C	0.410131	0.283447	0.716615
C188	C	0.660131	0.533447	0.966615
O189	O	-0.039084	-0.269784	0.269654
O190	O	0.210916	-0.019784	0.519654
O191	O	0.460916	0.230216	0.769654
O192	O	0.710916	0.480216	1.019654
O193	O	-0.039085	-0.163304	0.163546
O194	O	0.210915	0.086696	0.413546
O195	O	0.460915	0.336696	0.663546
O196	O	0.710915	0.586696	0.913546
C197	C	0.172855	-0.187757	0.187904
C198	C	0.422855	0.062243	0.437904
C199	C	0.672855	0.312243	0.687904
C200	C	0.922855	0.562243	0.937904
C201	C	0.196321	-0.216524	0.216580
C202	C	0.446321	0.033476	0.466580
C203	C	0.696321	0.283476	0.716580
C204	C	0.946321	0.533476	0.966580
C205	C	0.172871	-0.245296	0.245263
C206	C	0.422871	0.004704	0.495263
C207	C	0.672871	0.254704	0.745263
C208	C	0.922871	0.504704	0.995263
C209	C	0.243239	-0.216522	0.216573
C210	C	0.493239	0.033478	0.466573
C211	C	0.743239	0.283478	0.716573
C212	C	0.993239	0.533478	0.966573
C213	C	0.266688	-0.187750	0.187890
C214	C	0.516688	0.062250	0.437890
C215	C	0.766688	0.312250	0.687890
C216	C	1.016688	0.562250	0.937890
C217	C	0.243220	-0.158980	0.159216
C218	C	0.493220	0.091020	0.409216
C219	C	0.743220	0.341020	0.659216
C220	C	0.993220	0.591020	0.909216
C221	C	0.196304	-0.158985	0.159221
C222	C	0.446304	0.091015	0.409221
C223	C	0.696304	0.341015	0.659221
C224	C	0.946304	0.591015	0.909221
C225	C	0.196340	-0.274067	0.273937
C226	C	0.446340	-0.024067	0.523937
C227	C	0.696340	0.225933	0.773937
C228	C	0.946340	0.475933	1.023937
C229	C	0.243255	-0.274060	0.273929
C230	C	0.493255	-0.024060	0.523929
C231	C	0.743255	0.225940	0.773929
C232	C	0.993255	0.475940	1.023929
C233	C	0.266705	-0.245287	0.245247
C234	C	0.516705	0.004713	0.495247
C235	C	0.766705	0.254713	0.745247
C236	C	1.016705	0.504713	0.995247
C237	C	0.649102	-0.333258	0.216554
C238	C	0.899102	-0.083258	0.466554
C239	C	1.149102	0.166742	0.716554
C240	C	1.399102	0.416742	0.966554
C241	C	0.649108	-0.383192	0.216559
C242	C	0.899108	-0.133192	0.466559
C243	C	1.149108	0.116808	0.716559
C244	C	1.399108	0.366808	0.966559
C245	C	0.677959	-0.692832	0.187894
C246	C	0.927959	-0.442832	0.437894
C247	C	1.177959	-0.192832	0.687894
C248	C	1.427959	0.057168	0.937894
C249	C	0.678014	-0.880505	0.187911
C250	C	0.928014	-0.630505	0.437911
C251	C	1.178014	-0.380505	0.687911
C252	C	1.428014	-0.130505	0.937911
O253	O	0.702480	-0.904767	0.163521
O254	O	0.952480	-0.654767	0.413521
O255	O	1.202480	-0.404767	0.663521
O256	O	1.452480	-0.154767	0.913521
N257	N	0.649276	-0.903977	0.216610
N258	N	0.899276	-0.653977	0.466610
N259	N	1.149276	-0.403977	0.716610
N260	N	1.399276	-0.153977	0.966610
C261	C	0.620524	-0.880529	0.245308
C262	C	0.870524	-0.630529	0.495308
C263	C	1.120524	-0.380529	0.745308
C264	C	1.370524	-0.130529	0.995308
O265	O	0.596085	-0.904799	0.269722
O266	O	0.846085	-0.654799	0.519722
O267	O	1.096085	-0.404799	0.769722
O268	O	1.346085	-0.154799	1.019722
C269	C	0.620471	-0.692856	0.245293
C270	C	0.870471	-0.442856	0.495293
C271	C	1.120471	-0.192856	0.745293
C272	C	1.370471	0.057144	0.995293
C273	C	0.649208	-0.669387	0.216589
C274	C	0.899208	-0.419387	0.466589
C275	C	1.149208	-0.169387	0.716589
C276	C	1.399208	0.080613	0.966589
C277	C	0.706694	-0.669362	0.159192
C278	C	0.956694	-0.419362	0.409192
C279	C	1.206694	-0.169362	0.659192
C280	C	1.456694	0.080638	0.909192
C281	C	0.706678	-0.622447	0.159187
C282	C	0.956678	-0.372447	0.409187
C283	C	1.206678	-0.122447	0.659187
C284	C	1.456678	0.127553	0.909187
C285	C	0.677927	-0.599001	0.187882
C286	C	0.927927	-0.349001	0.437882
C287	C	1.177927	-0.099001	0.687882
C288	C	1.427927	0.150999	0.937882
C289	C	0.649192	-0.622471	0.216583
C290	C	0.899192	-0.372471	0.466583
C291	C	1.149192	-0.122471	0.716583
C292	C	1.399192	0.127529	0.966583
C293	C	0.591722	-0.669408	0.273993
C294	C	0.841722	-0.419408	0.523993
C295	C	1.091722	-0.169408	0.773993
C296	C	1.341722	0.080592	1.023993
C297	C	0.591712	-0.622487	0.273988
C298	C	0.841712	-0.372487	0.523988
C299	C	1.091712	-0.122487	0.773988
C300	C	1.341712	0.127513	1.023988
C301	C	0.620449	-0.599018	0.245284
C302	C	0.870449	-0.349018	0.495284
C303	C	1.120449	-0.099018	0.745284
C304	C	1.370449	0.150982	0.995284
C305	C	0.620426	-0.552110	0.245273
C306	C	0.870426	-0.302110	0.495273
C307	C	1.120426	-0.052110	0.745273
C308	C	1.370426	0.197890	0.995273
N309	N	0.649164	-0.528638	0.216574
N310	N	0.899164	-0.278638	0.466574
N311	N	1.149164	-0.028638	0.716574
N312	N	1.399164	0.221362	0.966574
C313	C	0.677915	-0.552083	0.187879
C314	C	0.927915	-0.302083	0.437879
C315	C	1.177915	-0.052083	0.687879
C316	C	1.427915	0.197917	0.937879
C317	C	0.620553	-0.979059	0.245314
C318	C	0.870553	-0.729059	0.495314
C319	C	1.120553	-0.479059	0.745314
C320	C	1.370553	-0.229059	0.995314
C321	C	0.620566	-1.025977	0.245317
C322	C	0.870566	-0.775977	0.495317
C323	C	1.120566	-0.525977	0.745317
C324	C	1.370566	-0.275977	0.995317
C325	C	0.678057	-1.025950	0.187920
C326	C	0.928057	-0.775950	0.437920
C327	C	1.178057	-0.525950	0.687920
C328	C	1.428057	-0.275950	0.937920
C329	C	0.678042	-0.979032	0.187915
C330	C	0.928042	-0.729032	0.437915
C331	C	1.178042	-0.479032	0.687915
C332	C	1.428042	-0.229032	0.937915
C333	C	0.649291	-0.955587	0.216615
C334	C	0.899291	-0.705587	0.466615
C335	C	1.149291	-0.455587	0.716615
C336	C	1.399291	-0.205587	0.966615
C337	C	0.677879	-0.453558	0.187868
C338	C	0.927879	-0.203558	0.437868
C339	C	1.177879	0.046442	0.687868
C340	C	1.427879	0.296442	0.937868
C341	C	0.677859	-0.406638	0.187864
C342	C	0.927859	-0.156638	0.437864
C343	C	1.177859	0.093362	0.687864
C344	C	1.427859	0.343362	0.937864
C345	C	0.620370	-0.406669	0.245262
C346	C	0.870370	-0.156669	0.495262
C347	C	1.120370	0.093331	0.745262
C348	C	1.370370	0.343331	0.995262
C349	C	0.620388	-0.453584	0.245265
C350	C	0.870388	-0.203584	0.495265
C351	C	1.120388	0.046416	0.745265
C352	C	1.370388	0.296416	0.995265
C353	C	0.649146	-0.477027	0.216567
C354	C	0.899146	-0.227027	0.466567
C355	C	1.149146	0.022973	0.716567
C356	C	1.399146	0.272973	0.966567
O357	O	0.595976	-0.527819	0.269653
O358	O	0.845976	-0.277819	0.519653
O359	O	1.095976	-0.027819	0.769653
O360	O	1.345976	0.222181	1.019653
O361	O	0.702357	-0.527804	0.163475
O362	O	0.952357	-0.277804	0.413475
O363	O	1.202357	-0.027804	0.663475
O364	O	1.452357	0.222196	0.913475
C365	C	0.677975	-0.739748	0.187899
C366	C	0.927975	-0.489748	0.437899
C367	C	1.177975	-0.239748	0.687899
C368	C	1.427975	0.010252	0.937899
C369	C	0.649240	-0.763217	0.216601
C370	C	0.899240	-0.513217	0.466601
C371	C	1.149240	-0.263217	0.716601
C372	C	1.399240	-0.013217	0.966601
C373	C	0.620489	-0.739772	0.245296
C374	C	0.870489	-0.489772	0.495296
C375	C	1.120489	-0.239772	0.745296
C376	C	1.370489	0.010228	0.995296
C377	C	0.649252	-0.810135	0.216604
C378	C	0.899252	-0.560135	0.466604
C379	C	1.149252	-0.310135	0.716604
C380	C	1.399252	-0.060135	0.966604
C381	C	0.678003	-0.833581	0.187909
C382	C	0.928003	-0.583581	0.437909
C383	C	1.178003	-0.333581	0.687909
C384	C	1.428003	-0.083581	0.937909
C385	C	0.706741	-0.810109	0.159210
C386	C	0.956741	-0.560109	0.409210
C387	C	1.206741	-0.310109	0.659210
C388	C	1.456741	-0.060109	0.909210
C389	C	0.706726	-0.763193	0.159204
C390	C	0.956726	-0.513193	0.409204
C391	C	1.206726	-0.263193	0.659204
C392	C	1.456726	-0.013193	0.909204
C393	C	0.591751	-0.763244	0.273995
C394	C	0.841751	-0.513244	0.523995
C395	C	1.091751	-0.263244	0.773995
C396	C	1.341751	-0.013244	1.023995
C397	C	0.591769	-0.810160	0.273998
C398	C	0.841769	-0.560160	0.523998
C399	C	1.091769	-0.310160	0.773998
C400	C	1.341769	-0.060160	1.023998
C401	C	0.620520	-0.833605	0.245303
C402	C	0.870520	-0.583605	0.495303
C403	C	1.120520	-0.333605	0.745303
C404	C	1.370520	-0.083605	0.995303
C405	C	0.766361	-0.216559	0.216614
C406	C	1.016361	0.033441	0.466614
C407	C	1.266361	0.283441	0.716614
C408	C	1.516361	0.533441	0.966614
C409	C	0.816296	-0.216569	0.216630
C410	C	1.066296	0.033431	0.466630
C411	C	1.316296	0.283431	0.716630
C412	C	1.566296	0.533431	0.966630
C413	C	0.649223	-0.216523	0.333754
C414	C	0.899223	0.033477	0.583754
C415	C	1.149223	0.283477	0.833754
C416	C	1.399223	0.533477	1.083754
C417	C	0.649240	-0.216517	0.383689
C418	C	0.899240	0.033483	0.633689
C419	C	1.149240	0.283483	0.883689
C420	C	1.399240	0.533483	1.133689
C421	C	0.649277	-0.099357	0.216608
C422	C	0.899277	0.150643	0.466608
C423	C	1.149277	0.400643	0.716608
C424	C	1.399277	0.650643	0.966608
C425	C	0.649317	-0.049423	0.216622
C426	C	0.899317	0.200577	0.466622
C427	C	1.149317	0.450577	0.716622
C428	C	1.399317	0.700577	0.966622
C429	C	0.649169	-0.216516	0.099853
C430	C	0.899169	0.033484	0.349853
C431	C	1.149169	0.283484	0.599853
C432	C	1.399169	0.533484	0.849853
C433	C	0.649239	-0.216395	0.049919
C434	C	0.899239	0.033605	0.299919
C435	C	1.149239	0.283605	0.549919
C436	C	1.399239	0.533605	0.799919
C437	C	0.677945	-0.245197	0.740280
C438	C	0.927945	0.004803	0.990280
C439	C	1.177945	0.254803	1.240280
C440	C	1.427945	0.504803	1.490280
C441	C	0.677946	-0.245228	0.552607
C442	C	0.927946	0.004772	0.802607
C443	C	1.177946	0.254772	1.052607
C444	C	1.427946	0.504772	1.302607
O445	O	0.702347	-0.269683	0.528346
O446	O	0.952347	-0.019683	0.778346
O447	O	1.202347	0.230317	1.028346
O448	O	1.452347	0.480317	1.278346
N449	N	0.649238	-0.216495	0.529134
N450	N	0.899238	0.033505	0.779134
N451	N	1.149238	0.283505	1.029134
N452	N	1.399238	0.533505	1.279134
C453	C	0.620527	-0.187755	0.552582
C454	C	0.870527	0.062245	0.802582
C455	C	1.120527	0.312245	1.052582
C456	C	1.370527	0.562245	1.302582
O457	O	0.596106	-0.163320	0.528310
O458	O	0.846106	0.086680	0.778310
O459	O	1.096106	0.336680	1.028310
O460	O	1.346106	0.586680	1.278310
C461	C	0.620524	-0.187727	0.740254
C462	C	0.870524	0.062273	0.990254
C463	C	1.120524	0.312273	1.240254
C464	C	1.370524	0.562273	1.490254
C465	C	0.649237	-0.216458	0.763725
C466	C	0.899237	0.033542	1.013725
C467	C	1.149237	0.283542	1.263725
C468	C	1.399237	0.533542	1.513725
C469	C	0.706655	-0.273926	0.763751
C470	C	0.956655	-0.023926	1.013751
C471	C	1.206655	0.226074	1.263751
C472	C	1.456655	0.476074	1.513751
C473	C	0.706656	-0.273916	0.810667
C474	C	0.956656	-0.023916	1.060667
C475	C	1.206656	0.226084	1.310667
C476	C	1.456656	0.476084	1.560667
C477	C	0.677947	-0.245177	0.834111
C478	C	0.927947	0.004823	1.084111
C479	C	1.177947	0.254823	1.334111
C480	C	1.427947	0.504823	1.584111
C481	C	0.649238	-0.216448	0.810640
C482	C	0.899238	0.033552	1.060640
C483	C	1.149238	0.283552	1.310640
C484	C	1.399238	0.533552	1.560640
C485	C	0.591811	-0.158989	0.763701
C486	C	0.841811	0.091011	1.013701
C487	C	1.091811	0.341011	1.263701
C488	C	1.341811	0.591011	1.513701
C489	C	0.591812	-0.158985	0.810622
C490	C	0.841812	0.091015	1.060622
C491	C	1.091812	0.341015	1.310622
C492	C	1.341812	0.591015	1.560622
C493	C	0.620524	-0.187716	0.834093
C494	C	0.870524	0.062284	1.084093
C495	C	1.120524	0.312284	1.334093
C496	C	1.370524	0.562284	1.584093
C497	C	0.620531	-0.187699	0.881000
C498	C	0.870531	0.062301	1.131000
C499	C	1.120531	0.312301	1.381000
C500	C	1.370531	0.562301	1.631000
N501	N	0.649238	-0.216431	0.904474
N502	N	0.899238	0.033569	1.154474
N503	N	1.149238	0.283569	1.404474
N504	N	1.399238	0.533569	1.654474
C505	C	0.677946	-0.245170	0.881029
C506	C	0.927946	0.004830	1.131029
C507	C	1.177946	0.254830	1.381029
C508	C	1.427946	0.504830	1.631029
C509	C	0.620531	-0.187772	0.454051
C510	C	0.870531	0.062228	0.704051
C511	C	1.120531	0.312228	0.954051
C512	C	1.370531	0.562228	1.204051
C513	C	0.620532	-0.187778	0.407133
C514	C	0.870532	0.062222	0.657133
C515	C	1.120532	0.312222	0.907133
C516	C	1.370532	0.562222	1.157133
C517	C	0.677950	-0.245252	0.407162
C518	C	0.927950	0.004748	0.657162
C519	C	1.177950	0.254748	0.907162
C520	C	1.427950	0.504748	1.157162
C521	C	0.677951	-0.245242	0.454081
C522	C	0.927951	0.004758	0.704081
C523	C	1.177951	0.254758	0.954081
C524	C	1.427951	0.504758	1.204081
C525	C	0.649238	-0.216504	0.477524
C526	C	0.899238	0.033496	0.727524
C527	C	1.149238	0.283496	0.977524
C528	C	1.399238	0.533496	1.227524
C529	C	0.677947	-0.245147	0.979555
C530	C	0.927947	0.004853	1.229555
C531	C	1.177947	0.254853	1.479555
C532	C	1.427947	0.504853	1.729555
C533	C	0.677947	-0.245134	1.026475
C534	C	0.927947	0.004866	1.276475
C535	C	1.177947	0.254866	1.526475
C536	C	1.427947	0.504866	1.776475
C537	C	0.620527	-0.187662	1.026442
C538	C	0.870527	0.062338	1.276442
C539	C	1.120527	0.312338	1.526442
C540	C	1.370527	0.562338	1.776442
C541	C	0.620529	-0.187674	0.979526
C542	C	0.870529	0.062326	1.229526
C543	C	1.120529	0.312326	1.479526
C544	C	1.370529	0.562326	1.729526
C545	C	0.649240	-0.216420	0.956084
C546	C	0.899240	0.033580	1.206084
C547	C	1.149240	0.283580	1.456084
C548	C	1.399240	0.533580	1.706084
O549	O	0.596139	-0.163260	0.905290
O550	O	0.846139	0.086740	1.155290
O551	O	1.096139	0.336740	1.405290
O552	O	1.346139	0.586740	1.655290
O553	O	0.702356	-0.269609	0.905309
O554	O	0.952356	-0.019609	1.155309
O555	O	1.202356	0.230391	1.405309
O556	O	1.452356	0.480391	1.655309
C557	C	0.677944	-0.245206	0.693365
C558	C	0.927944	0.004794	0.943365
C559	C	1.177944	0.254794	1.193365
C560	C	1.427944	0.504794	1.443365
C561	C	0.649234	-0.216477	0.669894
C562	C	0.899234	0.033523	0.919894
C563	C	1.149234	0.283523	1.169894
C564	C	1.399234	0.533523	1.419894
C565	C	0.620526	-0.187738	0.693339
C566	C	0.870526	0.062262	0.943339
C567	C	1.120526	0.312262	1.193339
C568	C	1.370526	0.562262	1.443339
C569	C	0.649235	-0.216484	0.622976
C570	C	0.899235	0.033516	0.872976
C571	C	1.149235	0.283516	1.122976
C572	C	1.399235	0.533516	1.372976
C573	C	0.677944	-0.245223	0.599532
C574	C	0.927944	0.004777	0.849532
C575	C	1.177944	0.254777	1.099532
C576	C	1.427944	0.504777	1.349532
C577	C	0.706651	-0.273955	0.623005
C578	C	0.956651	-0.023955	0.873005
C579	C	1.206651	0.226045	1.123005
C580	C	1.456651	0.476045	1.373005
C581	C	0.706652	-0.273945	0.669920
C582	C	0.956652	-0.023945	0.919920
C583	C	1.206652	0.226055	1.169920
C584	C	1.456652	0.476055	1.419920
C585	C	0.591818	-0.159006	0.669865
C586	C	0.841818	0.090994	0.919865
C587	C	1.091818	0.340994	1.169865
C588	C	1.341818	0.590994	1.419865
C589	C	0.591820	-0.159018	0.622950
C590	C	0.841820	0.090982	0.872950
C591	C	1.091820	0.340982	1.122950
C592	C	1.341820	0.590982	1.372950
C593	C	0.620528	-0.187757	0.599505
C594	C	0.870528	0.062243	0.849505
C595	C	1.120528	0.312243	1.099505
C596	C	1.370528	0.562243	1.349505
H597	H	0.393036	-0.164317	0.164510
H598	H	0.643036	0.085683	0.414510
H599	H	0.893036	0.335683	0.664510
H600	H	1.143036	0.585683	0.914510
H601	H	0.730035	-0.297313	0.829773
H602	H	0.980035	-0.047313	1.079773
H603	H	1.230035	0.202687	1.329773
H604	H	1.480035	0.452687	1.579773
N605	N	0.560735	-0.737963	0.304944
N606	N	0.810735	-0.487963	0.554944
N607	N	1.060735	-0.237963	0.804944
N608	N	1.310735	0.012037	1.054944
H609	H	0.539917	-0.718527	0.286660
H610	H	0.789917	-0.468527	0.536660
H611	H	1.039917	-0.218527	0.786660
H612	H	1.289917	0.031473	1.036660
H613	H	0.579002	-0.718495	0.325780
H614	H	0.829002	-0.468495	0.575780
H615	H	1.079002	-0.218495	0.825780
H616	H	1.329002	0.031505	1.075780
H617	H	0.393071	-0.268718	0.268585
H618	H	0.643071	-0.018718	0.518585
H619	H	0.893071	0.231282	0.768585
H620	H	1.143071	0.481282	1.018585
N621	N	0.484350	-0.156699	0.156925
N622	N	0.734350	0.093301	0.406925
N623	N	0.984350	0.343301	0.656925
N624	N	1.234350	0.593301	0.906925
H625	H	0.476159	-0.163623	0.124812
H626	H	0.726159	0.086377	0.374812
H627	H	0.976159	0.336377	0.624812
H628	H	1.226159	0.586377	0.874812
H629	H	0.517625	-0.161076	0.161312
H630	H	0.767625	0.088924	0.411312
H631	H	1.017625	0.338924	0.661312
H632	H	1.267625	0.588924	0.911312
N633	N	0.589536	-0.953779	0.276268
N634	N	0.839536	-0.703779	0.526268
N635	N	1.089536	-0.453779	0.776268
N636	N	1.339536	-0.203779	1.026268
H637	H	0.568720	-0.934340	0.257985
H638	H	0.818720	-0.684340	0.507985
H639	H	1.068720	-0.434340	0.757985
H640	H	1.318720	-0.184340	1.007985
H641	H	0.607805	-0.934313	0.297105
H642	H	0.857805	-0.684313	0.547105
H643	H	1.107805	-0.434313	0.797105
H644	H	1.357805	-0.184313	1.047105
N645	N	-0.185533	-0.276367	0.276243
N646	N	0.064467	-0.026367	0.526243
N647	N	0.314467	0.223633	0.776243
N648	N	0.564467	0.473633	1.026243
H649	H	-0.177340	-0.269431	0.308353
H650	H	0.072660	-0.019431	0.558353
H651	H	0.322660	0.230569	0.808353
H652	H	0.572660	0.480569	1.058353
H653	H	-0.177386	-0.308446	0.269175
H654	H	0.072614	-0.058446	0.519175
H655	H	0.322614	0.191554	0.769175
H656	H	0.572614	0.441554	1.019175
N657	N	0.268562	-0.305095	0.304861
N658	N	0.518562	-0.055095	0.554861
N659	N	0.768562	0.194905	0.804861
N660	N	1.018562	0.444905	1.054861
H661	H	0.246583	-0.323320	0.323030
H662	H	0.496583	-0.073320	0.573030
H663	H	0.746583	0.176680	0.823030
H664	H	0.996583	0.426680	1.073030
H665	H	0.288053	-0.286834	0.325683
H666	H	0.538053	-0.036834	0.575683
H667	H	0.788053	0.213166	0.825683
H668	H	1.038053	0.463166	1.075683
N669	N	0.127806	-0.305105	0.304891
N670	N	0.377806	-0.055105	0.554891
N671	N	0.627806	0.194895	0.804891
N672	N	0.877806	0.444895	1.054891
H673	H	0.105825	-0.323328	0.323060
H674	H	0.355825	-0.073328	0.573060
H675	H	0.605825	0.176672	0.823060
H676	H	0.855825	0.426672	1.073060
H677	H	0.147298	-0.286846	0.325712
H678	H	0.397298	-0.036846	0.575712
H679	H	0.647298	0.213154	0.825712
H680	H	0.897298	0.463154	1.075712
N681	N	0.737681	-0.597138	0.128234
N682	N	0.987681	-0.347138	0.378234
N683	N	1.237681	-0.097138	0.628234
N684	N	1.487681	0.152862	0.878234
H685	H	0.733315	-0.563857	0.132581
H686	H	0.983315	-0.313857	0.382581
H687	H	1.233315	-0.063857	0.632581
H688	H	1.483315	0.186143	0.882581
H689	H	0.730709	-0.605362	0.096141
H690	H	0.980709	-0.355362	0.346141
H691	H	1.230709	-0.105362	0.596141
H692	H	1.480709	0.144638	0.846141
H693	H	0.036493	-0.297502	0.297326
H694	H	0.286493	-0.047502	0.547326
H695	H	0.536493	0.202498	0.797326
H696	H	0.786493	0.452498	1.047326
N697	N	0.708917	-0.276122	1.051790
N698	N	0.958917	-0.026122	1.301790
N699	N	1.208917	0.223878	1.551790
N700	N	1.458917	0.473878	1.801790
H701	H	0.727102	-0.294330	1.029815
H702	H	0.977102	-0.044330	1.279815
H703	H	1.227102	0.205670	1.529815
H704	H	1.477102	0.455670	1.779815
H705	H	0.690616	-0.296906	1.071241
H706	H	0.940616	-0.046906	1.321241
H707	H	1.190616	0.203094	1.571241
H708	H	1.440616	0.453094	1.821241
N709	N	0.708860	-0.381326	0.156907
N710	N	0.958860	-0.131326	0.406907
N711	N	1.208860	0.118674	0.656907
N712	N	1.458860	0.368674	0.906907
H713	H	0.704489	-0.348045	0.161255
H714	H	0.954489	-0.098045	0.411255
H715	H	1.204489	0.151955	0.661255
H716	H	1.454489	0.401955	0.911255
H717	H	0.701887	-0.389550	0.124815
H718	H	0.951887	-0.139550	0.374815
H719	H	1.201887	0.110450	0.624815
H720	H	1.451887	0.360450	0.874815
H721	H	0.177252	-0.297497	0.297295
H722	H	0.427252	-0.047497	0.547295
H723	H	0.677252	0.202503	0.797295
H724	H	0.927252	0.452503	1.047295
H725	H	0.730109	-0.688447	0.135825
H726	H	0.980109	-0.438447	0.385825
H727	H	1.230109	-0.188447	0.635825
H728	H	1.480109	0.061553	0.885825
N729	N	0.484384	-0.276321	0.276141
N730	N	0.734384	-0.026321	0.526141
N731	N	0.984384	0.223679	0.776141
N732	N	1.234384	0.473679	1.026141
H733	H	0.462405	-0.294546	0.294312
H734	H	0.712405	-0.044546	0.544312
H735	H	0.962405	0.205454	0.794312
H736	H	1.212405	0.455454	1.044312
H737	H	0.503878	-0.258065	0.296963
H738	H	0.753878	-0.008065	0.546963
H739	H	1.003878	0.241935	0.796963
H740	H	1.253878	0.491935	1.046963
H741	H	0.730033	-0.297341	0.689026
H742	H	0.980033	-0.047341	0.939026
H743	H	1.230033	0.202659	1.189026
H744	H	1.480033	0.452659	1.439026
H745	H	0.597155	-0.164273	0.960415
H746	H	0.847155	0.085727	1.210415
H747	H	1.097155	0.335727	1.460415
H748	H	1.347155	0.585727	1.710415
H749	H	0.701442	-0.959925	0.164542
H750	H	0.951442	-0.709925	0.414542
H751	H	1.201442	-0.459925	0.664542
H752	H	1.451442	-0.209925	0.914542
H753	H	0.568439	-0.135604	0.688949
H754	H	0.818439	0.114396	0.938949
H755	H	1.068439	0.364396	1.188949
H756	H	1.318439	0.614396	1.438949
H757	H	0.177203	-0.135558	0.135868
H758	H	0.427203	0.114442	0.385868
H759	H	0.677203	0.364442	0.635868
H760	H	0.927203	0.614442	0.885868
H761	H	0.597161	-1.045082	0.268687
H762	H	0.847161	-0.795082	0.518687
H763	H	1.097161	-0.545082	0.768687
H764	H	1.347161	-0.295082	1.018687
H765	H	0.701467	-1.045048	0.164556
H766	H	0.951467	-0.795048	0.414556
H767	H	1.201467	-0.545048	0.664556
H768	H	1.451467	-0.295048	0.914556
N769	N	0.708896	-0.478839	0.156916
N770	N	0.958896	-0.228839	0.406916
N771	N	1.208896	0.021161	0.656916
N772	N	1.458896	0.271161	0.906916
H773	H	0.727094	-0.456846	0.138735
H774	H	0.977094	-0.206846	0.388735
H775	H	1.227094	0.043154	0.638735
H776	H	1.477094	0.293154	0.888735
H777	H	0.690626	-0.498332	0.136106
H778	H	0.940626	-0.248332	0.386106
H779	H	1.190626	0.001668	0.636106
H780	H	1.440626	0.251668	0.886106
H781	H	0.568319	-0.688510	0.297365
H782	H	0.818319	-0.438510	0.547365
H783	H	1.068319	-0.188510	0.797365
H784	H	1.318319	0.061490	1.047365
H785	H	0.568429	-0.135594	0.744599
H786	H	0.818429	0.114406	0.994599
H787	H	1.068429	0.364406	1.244599
H788	H	1.318429	0.614406	1.494599
N789	N	-0.088003	-0.276366	0.276227
N790	N	0.161997	-0.026366	0.526227
N791	N	0.411997	0.223634	0.776227
N792	N	0.661997	0.473634	1.026227
H793	H	-0.109980	-0.294595	0.294396
H794	H	0.140020	-0.044595	0.544396
H795	H	0.390020	0.205405	0.794396
H796	H	0.640020	0.455405	1.044396
H797	H	-0.068514	-0.258106	0.297049
H798	H	0.181486	-0.008106	0.547049
H799	H	0.431486	0.241894	0.797049
H800	H	0.681486	0.491894	1.047049
H801	H	0.262321	-0.135554	0.135860
H802	H	0.512321	0.114446	0.385860
H803	H	0.762321	0.364446	0.635860
H804	H	1.012321	0.614446	0.885860
N805	N	0.737747	-0.835405	0.128258
N806	N	0.987747	-0.585405	0.378258
N807	N	1.237747	-0.335405	0.628258
N808	N	1.487747	-0.085405	0.878258
H809	H	0.758561	-0.854844	0.146544
H810	H	1.008561	-0.604844	0.396544
H811	H	1.258561	-0.354844	0.646544
H812	H	1.508561	-0.104844	0.896544
H813	H	0.755923	-0.813395	0.110078
H814	H	1.005923	-0.563395	0.360078
H815	H	1.255923	-0.313395	0.610078
H816	H	1.505923	-0.063395	0.860078
H817	H	0.568301	-0.603401	0.297360
H818	H	0.818301	-0.353401	0.547360
H819	H	1.068301	-0.103401	0.797360
H820	H	1.318301	0.146599	1.047360
H821	H	0.596989	-0.472694	0.268640
H822	H	0.846989	-0.222694	0.518640
H823	H	1.096989	0.027306	0.768640
H824	H	1.346989	0.277306	1.018640
H825	H	0.596960	-0.387572	0.268624
H826	H	0.846960	-0.137572	0.518624
H827	H	1.096960	0.112428	0.768624
H828	H	1.346960	0.362428	1.018624
H829	H	0.730126	-0.744087	0.135831
H830	H	0.980126	-0.494087	0.385831
H831	H	1.230126	-0.244087	0.635831
H832	H	1.480126	0.005913	0.885831
H833	H	0.568364	-0.829265	0.297372
H834	H	0.818364	-0.579265	0.547372
H835	H	1.068364	-0.329265	0.797372
H836	H	1.318364	-0.079265	1.047372
H837	H	0.701330	-0.268552	0.960474
H838	H	0.951330	-0.018552	1.210474
H839	H	1.201330	0.231448	1.460474
H840	H	1.451330	0.481448	1.710474
N841	N	0.737620	-0.304927	0.738469
N842	N	0.987620	-0.054927	0.988469
N843	N	1.237620	0.195073	1.238469
N844	N	1.487620	0.445073	1.488469
H845	H	0.755804	-0.323122	0.760465
H846	H	1.005804	-0.073122	1.010465
H847	H	1.255804	0.176878	1.260465
H848	H	1.505804	0.426878	1.510465
H849	H	0.758428	-0.286647	0.719023
H850	H	1.008428	-0.036647	0.969023
H851	H	1.258428	0.213353	1.219023
H852	H	1.508428	0.463353	1.469023
N853	N	0.708919	-0.276231	0.479394
N854	N	0.958919	-0.026231	0.729394
N855	N	1.208919	0.223769	0.979394
N856	N	1.458919	0.473769	1.229394
H857	H	0.727105	-0.294435	0.457418
H858	H	0.977105	-0.044435	0.707418
H859	H	1.227105	0.205565	0.957418
H860	H	1.477105	0.455565	1.207418
H861	H	0.690617	-0.297018	0.498842
H862	H	0.940617	-0.047018	0.748842
H863	H	1.190617	0.202982	0.998842
H864	H	1.440617	0.452982	1.248842
H865	H	0.701327	-0.268651	0.388065
H866	H	0.951327	-0.018651	0.638065
H867	H	1.201327	0.231349	0.888065
H868	H	1.451327	0.481349	1.138065
H869	H	0.597157	-0.164377	0.388027
H870	H	0.847157	0.085623	0.638027
H871	H	1.097157	0.335623	0.888027
H872	H	1.347157	0.585623	1.138027
N873	N	0.589560	-0.156773	0.479334
N874	N	0.839560	0.093227	0.729334
N875	N	1.089560	0.343227	0.979334
N876	N	1.339560	0.593227	1.229334
H877	H	0.571378	-0.138574	0.457340
H878	H	0.821378	0.111426	0.707340
H879	H	1.071378	0.361426	0.957340
H880	H	1.321378	0.611426	1.207340
H881	H	0.607861	-0.135981	0.498818
H882	H	0.857861	0.114019	0.748818
H883	H	1.107861	0.364019	0.998818
H884	H	1.357861	0.614019	1.248818
N885	N	0.560840	-0.127990	0.835908
N886	N	0.810840	0.122010	1.085908
N887	N	1.060840	0.372010	1.335908
N888	N	1.310840	0.622010	1.585908
H889	H	0.542653	-0.109792	0.813917
H890	H	0.792653	0.140208	1.063917
H891	H	1.042653	0.390208	1.313917
H892	H	1.292653	0.640208	1.563917
H893	H	0.579141	-0.107196	0.855390
H894	H	0.829141	0.142804	1.105390
H895	H	1.079141	0.392804	1.355390
H896	H	1.329141	0.642804	1.605390
H897	H	0.597155	-0.164262	1.045539
H898	H	0.847155	0.085738	1.295539
H899	H	1.097155	0.335738	1.545539
H900	H	1.347155	0.585738	1.795539
N901	N	0.737617	-0.304950	0.597713
N902	N	0.987617	-0.054950	0.847713
N903	N	1.237617	0.195050	1.097713
N904	N	1.487617	0.445050	1.347713
H905	H	0.733203	-0.300646	0.564430
H906	H	0.983203	-0.050646	0.814430
H907	H	1.233203	0.199354	1.064430
H908	H	1.483203	0.449354	1.314430
H909	H	0.730651	-0.337030	0.605957
H910	H	0.980651	-0.087030	0.855957
H911	H	1.230651	0.162970	1.105957
H912	H	1.480651	0.412970	1.355957
H913	H	0.568439	-0.135617	0.603844
H914	H	0.818439	0.114383	0.853844
H915	H	1.068439	0.364383	1.103844
H916	H	1.318439	0.614383	1.353844
H917	H	-0.094250	-0.164351	0.164584
H918	H	0.155750	0.085649	0.414584
H919	H	0.405750	0.335649	0.664584
H920	H	0.655750	0.585649	0.914584
N921	N	-0.185563	-0.156768	0.157011
N922	N	0.064437	0.093232	0.407011
N923	N	0.314437	0.343232	0.657011
N924	N	0.564437	0.593232	0.907011
H925	H	-0.177377	-0.124678	0.164044
H926	H	0.072623	0.125322	0.414044
H927	H	0.322623	0.375322	0.664044
H928	H	0.572623	0.625322	0.914044
H929	H	-0.218836	-0.161174	0.161378
H930	H	0.031164	0.088826	0.411378
H931	H	0.281164	0.338826	0.661378
H932	H	0.531164	0.588826	0.911378
N933	N	0.030257	-0.127966	0.128305
N934	N	0.280257	0.122034	0.378305
N935	N	0.530257	0.372034	0.628305
N936	N	0.780257	0.622034	0.878305
H937	H	0.038451	-0.095879	0.135344
H938	H	0.288451	0.154121	0.385344
H939	H	0.538451	0.404121	0.635344
H940	H	0.788451	0.654121	0.885344
H941	H	-0.003017	-0.132364	0.132669
H942	H	0.246983	0.117636	0.382669
H943	H	0.496983	0.367636	0.632669
H944	H	0.746983	0.617636	0.882669
N945	N	0.127761	-0.127955	0.128298
N946	N	0.377761	0.122045	0.378298
N947	N	0.627761	0.372045	0.628298
N948	N	0.877761	0.622045	0.878298
H949	H	0.105769	-0.109734	0.110137
H950	H	0.355769	0.140266	0.360137
H951	H	0.605769	0.390266	0.610137
H952	H	0.855769	0.640266	0.860137
H953	H	0.147201	-0.146208	0.107468
H954	H	0.397201	0.103792	0.357468
H955	H	0.647201	0.353792	0.607468
H956	H	0.897201	0.603792	0.857468
