data_functionalizedCrystal
_audit_creation_method	'MofGen! by Chris Wilmer'
_symmetry_space_group_name_H-M	'P1'
_symmetry_Int_Tables_number	1
_symmetry_cell_setting	triclinic
loop_
_symmetry_equiv_pos_as_xyz
  x,y,z
_cell_length_a	15.995300
_cell_length_b	15.995292
_cell_length_c	9.730223
_cell_angle_alpha	89.998793
_cell_angle_beta	89.995123
_cell_angle_gamma	83.470212
loop_
_atom_site_label
_atom_site_type_symbol
_atom_site_fract_x
_atom_site_fract_y
_atom_site_fract_z
O1	O	1.110988	0.107729	-0.114330
O2	O	0.867204	0.121100	-0.114321
O3	O	0.995785	-0.007478	-0.114328
O4	O	0.982407	0.236307	-0.114323
O5	O	0.995777	-0.007481	0.114252
O6	O	0.867196	0.121097	0.114259
O7	O	1.110980	0.107725	0.114250
Zn8	Zn	0.989086	0.114411	0.150546
Zn9	Zn	0.989097	0.114415	-0.150618
O10	O	0.982398	0.236303	0.114257
C11	C	0.836005	0.120553	-0.000030
C12	C	0.743052	0.118918	-0.000027
C13	C	0.572870	0.115899	-0.000037
C14	C	0.525385	0.207449	-0.000032
C15	C	0.428698	0.205779	-0.000555
C16	C	0.405314	0.112927	-0.000046
C17	C	0.446461	0.067507	-0.130320
C18	C	0.543094	0.069824	-0.130426
C19	C	0.543364	0.068465	0.129521
C20	C	0.446419	0.068473	0.131230
C21	C	0.310619	0.111242	-0.000056
C22	C	0.667565	0.117580	-0.000037
C23	C	0.995237	-0.038675	-0.000041
C24	C	0.993604	-0.131627	-0.000052
C25	C	0.987603	-0.469365	-0.000039
C26	C	1.080409	-0.446069	0.000468
C27	C	1.082173	-0.349394	-0.000052
C28	C	0.990581	-0.301809	-0.000044
C29	C	0.944187	-0.330900	-0.130569
C30	C	0.943069	-0.427690	-0.130673
C31	C	0.941165	-0.427551	0.129265
C32	C	0.944604	-0.331059	0.130985
C33	C	0.992259	-0.207114	-0.000052
C34	C	0.985922	-0.564060	-0.000040
C35	C	1.142179	0.108272	-0.000045
C36	C	1.235131	0.109907	-0.000057
C37	C	0.982947	0.267500	-0.000033
C38	C	0.984579	0.360453	-0.000032
N39	N	0.989085	0.114407	0.356083
N40	N	0.989105	0.114412	-0.356154
C41	C	1.046040	0.057496	0.428005
C42	C	1.046048	0.057497	0.571888
C43	C	0.932144	0.171325	0.571913
C44	C	0.932132	0.171320	0.428033
H45	H	0.400223	0.241468	0.092810
H46	H	0.885776	0.217664	0.630509
Br47	Br	0.997894	-0.297478	-0.292482
Br48	Br	0.596913	-0.042220	-0.139695
H49	H	0.543865	0.244239	0.093373
Br50	Br	0.558055	0.267865	-0.155501
Br51	Br	1.140032	-0.492743	0.156486
H52	H	1.092413	0.011153	0.369427
Br53	Br	0.996639	-0.472399	-0.293298
Br54	Br	1.123343	-0.019746	0.669496
Br55	Br	0.422989	-0.046208	-0.137796
H56	H	0.885749	0.217664	0.369469
Br57	Br	0.833173	-0.276091	0.144139
H58	H	0.400846	0.241317	-0.094483
H59	H	0.561409	0.102561	-0.228175
Br60	Br	0.829659	-0.451927	-0.140546
Br61	Br	0.399235	0.119485	-0.292522
H62	H	0.563854	0.098604	0.228293
H63	H	0.419069	0.101641	0.227608
H64	H	1.118508	-0.330377	0.093511
Br65	Br	1.139712	-0.494441	-0.154671
H66	H	1.118729	-0.330995	-0.093783
H67	H	0.431095	0.000777	0.139480
Br68	Br	0.596372	-0.044031	0.131629
Br69	Br	0.989549	-0.474730	0.294159
Br70	Br	0.831849	-0.277765	-0.138662
H71	H	0.978386	-0.312501	0.227546
H72	H	0.872852	-0.441529	0.130150
