data_functionalizedCrystal
_audit_creation_method	'MofGen! by Chris Wilmer'
_symmetry_space_group_name_H-M	'P1'
_symmetry_Int_Tables_number	1
_symmetry_cell_setting	triclinic
loop_
_symmetry_equiv_pos_as_xyz
  x,y,z
_cell_length_a	14.044220
_cell_length_b	12.811445
_cell_length_c	11.892095
_cell_angle_alpha	80.666316
_cell_angle_beta	85.754025
_cell_angle_gamma	91.403303
loop_
_atom_site_label
_atom_site_type_symbol
_atom_site_fract_x
_atom_site_fract_y
_atom_site_fract_z
O1	O	-0.112366	1.420299	-0.239591
O2	O	-0.128263	1.113962	-0.208192
O3	O	0.017657	1.262532	-0.223415
O4	O	-0.258287	1.271729	-0.224368
O5	O	0.005509	1.250143	-0.034138
O6	O	-0.140411	1.101573	-0.018915
O7	O	-0.124514	1.407910	-0.050314
Zn8	Zn	-0.134392	1.252774	-0.004563
Zn9	Zn	-0.118386	1.269098	-0.253943
O10	O	-0.270435	1.259340	-0.035091
C11	C	-0.133818	1.068326	-0.109510
C12	C	-0.132259	0.950802	-0.097464
C13	C	-0.116101	0.743467	-0.281199
C14	C	-0.114636	0.633044	-0.269885
C15	C	-0.127870	0.619528	-0.063524
C16	C	-0.129335	0.729952	-0.074838
C17	C	-0.123449	0.791918	-0.183679
C18	C	-0.124907	0.902344	-0.194991
C19	C	-0.138148	0.888827	0.011369
C20	C	-0.136683	0.778403	0.022682
C21	C	-0.299665	1.269560	-0.130143
C22	C	-0.404859	1.281568	-0.131378
C23	C	-0.597462	1.303519	-0.133623
C24	C	-0.655321	1.218358	-0.124893
C25	C	-0.762492	1.230572	-0.126142
C26	C	-0.490281	1.291307	-0.132374
C27	C	0.046887	1.252312	-0.128365
C28	C	0.152081	1.240305	-0.127138
C29	C	-0.118960	1.453546	-0.148998
C30	C	-0.120519	1.571071	-0.161052
N31	N	-0.145314	1.241642	0.165632
N32	N	-0.107456	1.280238	-0.424139
C33	C	-0.031397	1.357699	0.390388
C34	C	-0.039039	1.349925	0.509526
C35	C	-0.168234	1.218317	0.523050
C36	C	-0.160593	1.226090	0.403912
C37	C	-0.092173	1.295785	0.337584
C38	C	-0.084536	1.303563	0.218443
C39	C	-0.213727	1.171949	0.231970
C40	C	-0.221368	1.164176	0.351108
H41	H	-0.120114	0.952796	-0.283615
H42	H	-0.628415	1.385595	-0.142032
H43	H	0.024307	1.414454	0.336383
O44	O	-0.272905	1.111914	0.180719
C45	C	-0.368542	1.136032	0.207192
H46	H	-0.370915	1.218572	0.231244
H47	H	-0.400937	1.075555	0.282100
C48	C	-0.423133	1.031197	0.072890
C49	C	-0.426048	1.132578	0.102422
H50	H	-0.458607	1.029062	0.008266
H51	H	-0.358701	1.014944	0.055057
H52	H	-0.450127	0.980810	0.135323
H53	H	-0.399043	1.182961	0.039996
H54	H	-0.490477	1.148840	0.120242
O55	O	-0.618281	1.120495	-0.115007
C56	C	-0.555509	1.114766	-0.211803
H57	H	-0.528688	1.197935	-0.252799
H58	H	-0.594841	1.076531	-0.276062
C59	C	-0.502984	0.945657	-0.125002
C60	C	-0.470035	1.047807	-0.175349
H61	H	-0.450261	0.904350	-0.102518
H62	H	-0.545277	0.949514	-0.059790
H63	H	-0.535760	0.913809	-0.178559
H64	H	-0.437270	1.079658	-0.121787
H65	H	-0.427735	1.043953	-0.240551
O66	O	0.020086	1.409912	0.560889
C67	C	0.073988	1.343289	0.636208
H68	H	0.077708	1.262115	0.608885
H69	H	0.038524	1.334655	0.726782
C70	C	0.171176	1.491528	0.666598
C71	C	0.175753	1.391831	0.633033
H72	H	0.233949	1.521472	0.664645
H73	H	0.134860	1.536414	0.615858
H74	H	0.141619	1.484319	0.742074
H75	H	0.205298	1.399043	0.557554
H76	H	0.212077	1.346947	0.683761
O77	O	-0.145250	0.935724	0.106226
C78	C	-0.150156	0.857347	0.204711
H79	H	-0.117181	0.782160	0.182367
H80	H	-0.228042	0.839606	0.238045
C81	C	-0.135345	0.989606	0.324890
C82	C	-0.094838	0.897263	0.297448
H83	H	-0.101227	1.014229	0.382097
H84	H	-0.132044	1.042411	0.258539
H85	H	-0.200249	0.974810	0.352661
H86	H	-0.029940	0.912064	0.269664
H87	H	-0.098127	0.844461	0.363797
O88	O	-0.018117	1.371192	0.153842
C89	C	-0.024365	1.364737	0.037368
H90	H	-0.098767	1.333464	0.024400
H91	H	0.031286	1.308799	0.009574
C92	C	0.085523	1.513902	-0.018874
C93	C	-0.005862	1.475501	-0.034803
H94	H	0.096940	1.582225	-0.063394
H95	H	0.089736	1.518249	0.059597
H96	H	0.131888	1.467277	-0.042034
H97	H	-0.052226	1.522118	-0.011629
H98	H	-0.010083	1.471164	-0.113272
H99	H	-0.223934	1.161566	0.577069
O100	O	-0.287706	1.096417	0.415676
C101	C	-0.241517	1.021900	0.491760
H102	H	-0.168413	1.055838	0.505996
H103	H	-0.232310	0.946161	0.453934
C104	C	-0.392039	0.955282	0.589251
C105	C	-0.302254	0.996970	0.606744
H106	H	-0.429506	0.939900	0.660178
H107	H	-0.423159	1.005483	0.537990
H108	H	-0.384354	0.892172	0.557727
H109	H	-0.309940	1.060086	0.638254
H110	H	-0.271137	0.946779	0.658014
H111	H	-0.108655	0.593600	-0.349297
O112	O	-0.133764	0.559367	0.042223
C113	C	-0.220189	0.578033	0.102670
H114	H	-0.274065	0.609388	0.039490
H115	H	-0.206611	0.638872	0.160340
C116	C	-0.193986	0.435371	0.253738
C117	C	-0.260160	0.473874	0.176140
H118	H	-0.218641	0.371124	0.299062
H119	H	-0.135758	0.422798	0.213017
H120	H	-0.182677	0.486080	0.301785
H121	H	-0.271459	0.423172	0.128085
H122	H	-0.318391	0.486437	0.216855
O123	O	-0.142227	0.718168	0.128378
C124	C	-0.059736	0.658103	0.140644
H125	H	0.000927	0.698174	0.078376
H126	H	-0.075402	0.575274	0.121597
C127	C	-0.104914	0.601035	0.340366
C128	C	-0.030405	0.650256	0.263894
H129	H	-0.086823	0.596190	0.416393
H130	H	-0.160493	0.641499	0.332103
H131	H	-0.117962	0.532016	0.324479
H132	H	-0.017367	0.719278	0.279772
H133	H	0.025176	0.609804	0.272163
H134	H	-0.111304	0.793921	-0.369821
