data_functionalizedCrystal
_audit_creation_method	'MofGen! by Chris Wilmer'
_symmetry_space_group_name_H-M	'P1'
_symmetry_Int_Tables_number	1
_symmetry_cell_setting	triclinic
loop_
_symmetry_equiv_pos_as_xyz
  x,y,z
_cell_length_a	14.044220
_cell_length_b	11.792241
_cell_length_c	10.868271
_cell_angle_alpha	90.005281
_cell_angle_beta	89.996185
_cell_angle_gamma	91.308854
loop_
_atom_site_label
_atom_site_type_symbol
_atom_site_fract_x
_atom_site_fract_y
_atom_site_fract_z
O1	O	1.259113	-0.273771	-0.102320
O2	O	0.983093	-0.263891	-0.102323
O3	O	1.127802	-0.104289	-0.102313
O4	O	1.114405	-0.433373	-0.102331
O5	O	1.127790	-0.104281	0.102331
O6	O	0.983081	-0.263883	0.102321
O7	O	1.259101	-0.273763	0.102324
Zn8	Zn	1.121089	-0.268822	0.134815
Zn9	Zn	1.121105	-0.268832	-0.134814
O10	O	1.114393	-0.433365	0.102314
C11	C	1.126954	-0.061915	0.000009
C12	C	1.124435	0.064335	0.000008
C13	C	0.947751	-0.259563	-0.000001
C14	C	0.842459	-0.246664	-0.000002
C15	C	1.294444	-0.278091	-0.000000
C16	C	1.399736	-0.290990	-0.000008
C17	C	1.592519	-0.314572	-0.000008
C18	C	1.649682	-0.223087	-0.000002
C19	C	1.756953	-0.236209	-0.000002
C20	C	1.485238	-0.301452	-0.000008
C21	C	1.115241	-0.475739	-0.000011
C22	C	1.117759	-0.601989	-0.000017
N23	N	1.121086	-0.268815	0.318829
C24	C	1.119804	0.295482	-0.000013
C25	C	1.122377	0.166855	-0.000002
N26	N	1.121117	-0.268831	-0.318828
C27	C	1.121100	-0.268829	0.569835
C28	C	1.121089	-0.268824	0.430157
H29	H	1.618057	-0.134910	-0.000087
O30	O	1.634396	-0.431370	-0.000026
H31	H	1.713301	-0.423475	-0.000037
