data_functionalizedCrystal
_audit_creation_method	'MofGen! by Chris Wilmer'
_symmetry_space_group_name_H-M	'P1'
_symmetry_Int_Tables_number	1
_symmetry_cell_setting	triclinic
loop_
_symmetry_equiv_pos_as_xyz
  x,y,z
_cell_length_a	12.759401
_cell_length_b	18.050590
_cell_length_c	12.759393
_cell_angle_alpha	90.035753
_cell_angle_beta	90.019684
_cell_angle_gamma	90.017667
loop_
_atom_site_label
_atom_site_type_symbol
_atom_site_fract_x
_atom_site_fract_y
_atom_site_fract_z
Zn1	Zn	1.606227	-0.295633	0.593984
Zn2	Zn	1.606110	-0.419843	0.418291
Zn3	Zn	1.430529	-0.295670	0.418320
Zn4	Zn	1.430506	-0.419784	0.593929
O5	O	1.518343	-0.357733	0.506131
O6	O	1.753233	-0.312119	0.570689
O7	O	1.582779	-0.403412	0.271274
O8	O	1.453895	-0.191740	0.441657
O9	O	1.753146	-0.403376	0.441608
O10	O	1.582979	-0.191713	0.570717
O11	O	1.453781	-0.312182	0.271295
O12	O	1.283505	-0.312124	0.441604
O13	O	1.453855	-0.403275	0.740958
O14	O	1.283488	-0.403310	0.570623
O15	O	1.582957	-0.312062	0.740998
O16	O	1.582757	-0.523760	0.441555
O17	O	1.453741	-0.523716	0.570596
C18	C	1.245376	-0.357715	0.506111
C19	C	1.128599	-0.357726	0.506128
C20	C	1.073715	-0.310183	0.439071
C21	C	0.963991	-0.310200	0.439084
C22	C	0.964045	-0.405306	0.573220
C23	C	1.073767	-0.405292	0.573201
C24	C	1.128547	-0.262617	0.371997
C25	C	1.073663	-0.215069	0.304936
C26	C	0.963939	-0.215087	0.304949
C27	C	0.909099	-0.262652	0.372024
C28	C	1.518262	-0.550685	0.506089
C29	C	1.518324	-0.633230	0.506106
C30	C	1.588628	-0.832678	0.436032
C31	C	1.614296	-0.882002	0.531919
C32	C	1.518384	-0.784361	0.506148
C33	C	1.492823	-0.882118	0.410304
C34	C	1.518443	-0.930346	0.506180
C35	C	1.544100	-0.832598	0.602086
C36	C	1.422583	-0.832710	0.480406
C37	C	1.448214	-0.882012	0.576359
C38	C	1.518352	-0.700263	0.506128
C39	C	1.518475	-1.014442	0.506211
C40	C	1.792376	-0.357750	0.506152
C41	C	1.909153	-0.357758	0.506160
C42	C	1.518417	-0.357658	0.780165
C43	C	1.518448	-0.357626	0.896941
C44	C	1.518453	-0.164027	0.506196
C45	C	1.518500	-0.081481	0.506224
C46	C	1.518330	-0.357754	0.233164
C47	C	1.518502	-0.357576	0.116388
C48	C	1.585680	-0.310127	0.951826
C49	C	1.585705	-0.310100	1.061550
C50	C	1.451263	-0.405078	1.061495
C51	C	1.451233	-0.405100	0.951773
C52	C	1.652895	-0.262652	0.896994
C53	C	1.720134	-0.215150	0.951879
C54	C	1.720159	-0.215123	1.061603
C55	C	1.652945	-0.262598	1.116443
H56	H	1.118321	-0.176348	0.250320
H57	H	1.774900	-0.176439	1.106288
H58	H	1.396540	-0.443730	1.106154
C59	C	1.463578	-0.911499	0.300786
N60	N	1.441558	-0.933625	0.218294
H61	H	1.652885	-0.262670	0.807651
H62	H	1.396470	-0.443767	0.907085
H63	H	1.217890	-0.262595	0.371982
C64	C	0.788399	-0.262671	0.372032
N65	N	0.697489	-0.262682	0.372040
C66	C	0.903570	-0.162785	0.231181
N67	N	0.858102	-0.123385	0.175621
H68	H	0.919385	-0.444031	0.627831
C69	C	1.668906	-0.803403	0.356017
N70	N	1.729374	-0.781349	0.295757
H71	H	1.388836	-0.903537	0.635737
C72	C	1.134143	-0.457589	0.646972
N73	N	1.179618	-0.496980	0.702537
C74	C	1.723778	-0.911261	0.561358
N75	N	1.806242	-0.933298	0.583523
C76	C	1.573475	-0.803340	0.711635
N77	N	1.595605	-0.781301	0.794144
H78	H	1.774851	-0.176492	0.907222
C79	C	1.313135	-0.803424	0.450920
N80	N	1.230699	-0.781363	0.428697
H81	H	1.652959	-0.262564	1.205787
