data_functionalizedCrystal
_audit_creation_method	'MofGen! by Chris Wilmer'
_symmetry_space_group_name_H-M	'P1'
_symmetry_Int_Tables_number	1
_symmetry_cell_setting	triclinic
loop_
_symmetry_equiv_pos_as_xyz
  x,y,z
_cell_length_a	23.096457
_cell_length_b	23.096457
_cell_length_c	20.875641
_cell_angle_alpha	62.441720
_cell_angle_beta	89.999562
_cell_angle_gamma	59.996769
loop_
_atom_site_label
_atom_site_type_symbol
_atom_site_fract_x
_atom_site_fract_y
_atom_site_fract_z
Zr1	Zr	0.560451	0.628359	-0.081198
O2	O	0.471268	0.742607	-0.179990
O3	O	0.587792	0.509574	-0.050915
O4	O	0.592062	0.621813	-0.179995
O5	O	0.463627	0.637113	0.050914
O6	O	0.687344	0.621811	-0.179998
O7	O	0.466998	0.630368	-0.050909
O8	O	0.679705	0.421036	0.050905
O9	O	0.471266	0.837888	-0.179988
O10	O	0.670558	0.560111	-0.037999
O11	O	0.596935	0.565147	0.037992
O12	O	0.601962	0.697293	-0.113984
O13	O	0.528339	0.702329	-0.037993
Zr14	Zr	0.707039	0.639113	0.081195
Zr15	Zr	0.712415	0.628355	-0.081201
Zr16	Zr	0.555075	0.639117	0.081198
Zr17	Zr	0.560447	0.780322	-0.081195
Zr18	Zr	0.707043	0.487150	0.081192
O19	O	0.679698	0.757898	0.050911
O20	O	0.687342	0.742601	-0.179995
O21	O	0.463624	0.757903	0.050916
O22	O	0.796222	0.524865	0.179987
O23	O	0.803865	0.509569	-0.050919
O24	O	0.580148	0.524871	0.179992
O25	O	0.803863	0.630359	-0.050917
O26	O	0.675428	0.645659	0.179992
O27	O	0.580146	0.645661	0.179994
O28	O	0.800492	0.637104	0.050906
O29	O	0.592057	0.837885	-0.179991
O30	O	0.675433	0.429587	0.179988
O31	O	0.796224	0.429584	0.179985
O32	O	0.800497	0.421033	0.050902
O33	O	0.466993	0.846439	-0.050905
O34	O	0.587784	0.846436	-0.050908
O35	O	0.665527	0.570179	0.113980
O36	O	0.739151	0.565143	0.037989
O37	O	0.670555	0.702326	-0.037996
O38	O	0.596932	0.707361	0.037995
C39	C	0.633749	0.443654	-0.000005
C40	C	0.633750	0.379141	-0.000007
C41	C	0.672177	-0.084004	-0.039655
C42	C	0.672175	-0.023384	-0.039662
C43	C	0.633745	0.009557	0.000004
C44	C	0.595300	-0.018112	0.039665
C45	C	0.595297	-0.078725	0.039665
N46	N	0.636761	0.076227	0.064557
N47	N	0.636768	0.133805	0.064556
C48	C	0.633751	0.192182	0.000006
N49	N	0.630740	0.190799	-0.064541
N50	N	0.630737	0.133212	-0.064538
C51	C	0.633744	0.075282	0.000009
C52	C	0.672188	0.285579	-0.039664
C53	C	0.672181	0.346203	-0.039673
C54	C	0.595311	0.351469	0.039662
C55	C	0.595313	0.290851	0.039664
C56	C	0.633755	0.257907	0.000003
C57	C	0.443661	0.633741	0.000003
C58	C	0.379148	0.633743	0.000004
C59	C	0.350702	0.630032	-0.056095
C60	C	0.290090	0.630025	-0.056095
C61	C	0.257917	0.633744	-0.000001
C62	C	0.286373	0.637450	0.056107
C63	C	0.346988	0.637449	0.056110
N64	N	0.139002	0.681225	0.016982
N65	N	0.081420	0.681227	0.016974
C66	C	0.075288	0.633744	-0.000005
N67	N	0.128910	0.586268	-0.016992
N68	N	0.186496	0.586269	-0.016988
C69	C	0.192191	0.633744	0.000002
C70	C	-0.018880	0.630024	-0.056107
C71	C	-0.079491	0.630012	-0.056102
C72	C	-0.083210	0.637445	0.056097
C73	C	-0.022597	0.637449	0.056095
C74	C	0.009563	0.633743	-0.000011
C75	C	0.823829	0.633731	-0.000006
C76	C	0.888342	0.633730	-0.000007
C77	C	0.640469	0.620279	-0.203134
C78	C	0.642751	0.615712	-0.272076
C79	C	0.633741	0.823818	0.000002
C80	C	0.633739	0.888331	0.000003
C81	C	0.608018	0.685173	-0.344128
C82	C	0.610171	0.680877	-0.408903
C83	C	0.647054	0.607120	-0.401625
C84	C	0.681791	0.537654	-0.329565
C85	C	0.679642	0.541951	-0.264791
C86	C	0.657327	0.586591	-0.591094
C87	C	0.659472	0.582299	-0.655875
C88	C	0.587853	0.725523	-0.735209
C89	C	0.585703	0.729813	-0.670431
C90	C	0.620443	0.660347	-0.598377
N91	N	0.649254	0.602727	-0.467834
N92	N	0.618247	0.664741	-0.532169
C93	C	0.627021	0.647193	0.203131
C94	C	0.624739	0.651760	0.272073
C95	C	0.823833	0.443649	-0.000010
C96	C	0.888348	0.379135	-0.000013
C97	C	0.627025	0.457110	0.203127
C98	C	0.624744	0.397165	0.272068
C99	C	0.817109	0.457106	0.203123
C100	C	0.879341	0.397159	0.272062
C101	C	0.450381	0.810367	-0.203126
C102	C	0.388148	0.870313	-0.272065
C103	C	0.443656	0.823823	0.000007
C104	C	0.379142	0.888337	0.000009
C105	C	0.640465	0.810362	-0.203131
C106	C	0.642746	0.870307	-0.272071
C107	C	0.882840	0.346211	-0.039685
C108	C	0.943452	0.285601	-0.039703
C109	C	1.009572	0.257912	-0.000043
C110	C	1.015079	0.290842	0.039631
C111	C	0.954467	0.351454	0.039644
C112	C	0.659478	0.371642	0.344114
C113	C	0.657332	0.315326	0.408897
C114	C	0.620456	0.284530	0.401631
C115	C	0.585719	0.310059	0.329577
C116	C	0.587861	0.366378	0.264796
C117	C	0.947003	0.366378	0.264770
C118	C	1.005483	0.310060	0.329539
C119	C	0.996299	0.284519	0.401599
C120	C	0.928630	0.315305	0.408890
C121	C	0.870152	0.371627	0.344121
C122	C	0.320486	0.901101	-0.264773
C123	C	0.262007	0.957438	-0.329542
C124	C	0.271190	0.982983	-0.401602
C125	C	0.338859	0.952193	-0.408893
C126	C	0.397338	0.895861	-0.344125
C127	C	0.384650	0.921267	0.039675
C128	C	0.324038	0.981892	0.039675
C129	C	0.257919	1.009584	0.000013
C130	C	0.252412	0.976651	-0.039658
C131	C	0.313024	0.916031	-0.039662
C132	C	0.679628	0.901085	-0.264781
C133	C	0.681784	0.957402	-0.329551
C134	C	0.647054	0.982944	-0.401611
C135	C	0.610171	0.952161	-0.408899
C136	C	0.608019	0.895840	-0.344130
H137	H	0.703488	0.258758	-0.071961
H138	H	0.564017	0.378293	0.071955
H139	H	1.043922	0.238658	0.454331
H140	H	0.206913	0.982498	-0.323591
H141	H	0.559569	0.782078	-0.793881
H142	H	0.438483	0.898725	0.071978
Cl143	Cl	0.382750	0.642116	0.126639
H144	H	0.376886	0.627011	-0.101778
H145	H	0.346329	0.972998	-0.467572
Cl146	Cl	0.546994	0.256065	0.089529
Cl147	Cl	0.254322	0.625361	-0.126626
H148	H	0.208570	1.058945	0.000022
Cl149	Cl	0.330977	1.023277	0.089555
H150	H	0.703477	-0.110823	-0.071952
Cl151	Cl	0.728150	0.996095	-0.320371
H152	H	0.921163	0.294501	0.467570
H153	H	0.260176	0.640476	0.101781
Cl154	Cl	-0.123647	0.642112	0.126619
Cl155	Cl	0.546973	-0.113508	0.089527
Cl156	Cl	0.799725	0.381011	-0.089554
Cl157	Cl	0.936514	0.244213	-0.089579
Cl158	Cl	0.021554	0.625358	-0.126636
Cl159	Cl	0.649764	1.053751	-0.483029
Cl160	Cl	0.482397	0.857157	-0.353306
H161	H	0.581890	0.737439	-0.467569
H162	H	0.703479	0.368732	-0.071972
Cl163	Cl	0.197667	1.053800	-0.483019
H164	H	0.707925	0.485389	-0.206123
H165	H	0.000563	0.640475	0.101773
H166	H	0.815061	0.396681	0.350070
H167	H	0.577983	0.870787	-0.350076
Cl168	Cl	1.098206	0.256020	0.089490
Cl169	Cl	0.720502	0.011401	-0.089521
H170	H	0.958961	0.378254	0.071955
H171	H	0.198569	0.999207	-0.071950
Cl172	Cl	-0.115250	0.625340	-0.126628
H173	H	0.559579	0.387152	0.206135
Cl174	Cl	0.705842	0.410342	0.353268
Cl175	Cl	0.306086	0.874635	-0.089528
H176	H	0.954494	0.387165	0.206100
H177	H	0.577979	0.745234	-0.350064
Cl178	Cl	0.546985	0.023302	0.089528
H179	H	0.555671	0.789874	-0.676366
Cl180	Cl	0.723295	0.868985	-0.174200
Cl181	Cl	0.566506	0.984288	-0.499494
H182	H	0.312995	0.880306	-0.206103
Cl183	Cl	0.700970	0.499262	-0.500520
Cl184	Cl	0.705843	0.489569	-0.646720
H185	H	0.711826	0.477599	-0.323643
H186	H	0.685622	0.294547	0.467560
Cl187	Cl	1.085764	0.181709	-0.000065
H188	H	0.618718	0.238672	0.454387
H189	H	1.060577	0.284999	0.323589
Cl190	Cl	0.539365	0.271335	0.320456
