data_functionalizedCrystal
_audit_creation_method	'MofGen! by Chris Wilmer'
_symmetry_space_group_name_H-M	'P1'
_symmetry_Int_Tables_number	1
_symmetry_cell_setting	triclinic
loop_
_symmetry_equiv_pos_as_xyz
  x,y,z
_cell_length_a	16.959455
_cell_length_b	19.121063
_cell_length_c	16.959447
_cell_angle_alpha	92.408052
_cell_angle_beta	89.982031
_cell_angle_gamma	92.465894
loop_
_atom_site_label
_atom_site_type_symbol
_atom_site_fract_x
_atom_site_fract_y
_atom_site_fract_z
Zn1	Zn	1.194944	-0.279665	-0.460312
Zn2	Zn	1.189201	-0.397123	-0.333763
Zn3	Zn	1.062763	-0.279685	-0.328151
Zn4	Zn	1.057083	-0.397074	-0.465899
O5	O	1.125998	-0.338387	-0.397031
O6	O	1.304792	-0.295259	-0.443536
O7	O	1.172403	-0.381574	-0.222409
O8	O	1.085077	-0.181398	-0.340995
O9	O	1.300573	-0.381555	-0.350561
O10	O	1.182190	-0.181384	-0.438094
O11	O	1.079509	-0.295292	-0.218286
O12	O	0.951399	-0.295244	-0.346413
O13	O	1.075396	-0.381470	-0.575768
O14	O	0.947226	-0.381489	-0.447616
O15	O	1.176682	-0.295211	-0.571663
O16	O	1.166895	-0.495401	-0.355978
O17	O	1.069828	-0.495364	-0.453058
C18	C	0.920632	-0.338364	-0.397012
C19	C	0.832776	-0.338371	-0.397023
C20	C	0.463450	-0.293442	-0.344438
C21	C	0.459146	-0.383389	-0.449672
C22	C	0.541692	-0.383379	-0.449667
C23	C	0.585121	-0.338401	-0.397046
C24	C	0.546004	-0.293432	-0.344430
C25	C	0.580816	-0.428352	-0.502276
C26	C	0.663367	-0.428344	-0.502272
C27	C	0.706798	-0.383361	-0.449654
C28	C	0.667675	-0.338391	-0.397037
C29	C	0.711104	-0.293412	-0.344416
C30	C	0.671983	-0.248437	-0.291802
C31	C	0.589434	-0.248450	-0.291812
C32	C	0.789347	-0.383349	-0.449644
C33	C	0.793658	-0.293402	-0.344408
C34	C	1.117143	-0.520867	-0.405751
C35	C	1.113428	-0.598933	-0.409507
C36	C	1.162259	-0.635604	-0.360770
C37	C	1.158769	-0.708955	-0.364307
C38	C	1.106444	-0.745633	-0.416579
C39	C	1.057610	-0.708957	-0.465322
C40	C	1.061105	-0.635607	-0.461788
C41	C	1.093366	-0.967102	-0.429781
C42	C	1.089874	-1.040457	-0.433310
C43	C	1.191034	-1.040450	-0.332296
C44	C	1.194521	-0.967099	-0.328763
C45	C	1.145690	-0.930429	-0.377508
C46	C	1.102873	-0.820610	-0.420195
C47	C	1.149265	-0.855454	-0.373896
C48	C	1.332165	-0.338411	-0.397051
C49	C	1.420021	-0.338421	-0.397059
C50	C	1.126046	-0.338333	-0.603197
C51	C	1.126067	-0.338310	-0.691052
C52	C	1.134908	-0.155194	-0.388295
C53	C	1.138705	-0.077128	-0.384572
C54	C	1.174443	-0.383221	-0.734474
C55	C	1.077705	-0.293381	-0.730183
C56	C	1.077720	-0.293360	-0.812728
C57	C	1.126096	-0.338271	-0.856150
C58	C	1.174457	-0.383203	-0.817027
C59	C	1.029353	-0.248434	-0.851858
C60	C	1.029365	-0.248412	-0.934408
C61	C	1.077746	-0.293320	-0.977831
C62	C	1.126110	-0.338253	-0.938703
C63	C	1.174486	-0.383165	-0.982125
C64	C	1.222855	-0.428095	-0.942998
C65	C	1.222838	-0.428111	-0.860450
C66	C	1.077763	-0.293304	-1.060379
C67	C	1.174501	-0.383147	-1.064678
C68	C	1.125997	-0.338390	-0.191665
C69	C	1.126139	-0.338215	-0.103801
H70	H	0.829012	-0.256770	-0.301561
Cl71	Cl	1.024078	-1.086566	-0.499018
H72	H	1.038315	-0.256820	-0.694825
Cl73	Cl	1.252422	-1.086553	-0.271025
Cl74	Cl	1.031977	-0.921012	-0.491060
Cl75	Cl	0.991834	-0.755067	-0.531040
H76	H	0.989963	-0.211875	-0.816498
H77	H	0.557574	-0.211834	-0.248976
H78	H	1.262217	-0.464692	-0.828586
Cl79	Cl	0.404549	-0.439945	-0.515804
Cl80	Cl	1.283662	-0.484557	-0.997596
H81	H	0.431594	-0.256823	-0.301603
H82	H	1.204865	-0.605745	-0.318201
H83	H	1.237128	-0.937237	-0.286199
H84	H	0.989981	-0.211827	-0.966257
H85	H	1.021342	-0.605750	-0.501476
H86	H	1.213826	-0.419800	-0.702614
H87	H	0.545450	-0.464976	-0.545112
H88	H	0.695212	-0.464965	-0.545114
H89	H	0.821195	-0.419969	-0.492480
H90	H	1.038381	-0.256724	-1.092232
H91	H	1.198532	-0.738809	-0.324619
H92	H	1.213898	-0.419717	-1.100026
H93	H	0.707353	-0.211819	-0.248955
Cl94	Cl	1.215046	-0.809342	-0.308188
H95	H	1.060268	-0.850482	-0.462753
