data_functionalizedCrystal
_audit_creation_method	'MofGen! by Chris Wilmer'
_symmetry_space_group_name_H-M	'P1'
_symmetry_Int_Tables_number	1
_symmetry_cell_setting	triclinic
loop_
_symmetry_equiv_pos_as_xyz
  x,y,z
_cell_length_a	19.288864
_cell_length_b	26.809956
_cell_length_c	27.732048
_cell_angle_alpha	89.999364
_cell_angle_beta	97.110551
_cell_angle_gamma	90.022644
loop_
_atom_site_label
_atom_site_type_symbol
_atom_site_fract_x
_atom_site_fract_y
_atom_site_fract_z
O1	O	0.920978	0.041645	-0.060292
O2	O	0.718666	0.041611	-0.068427
O3	O	0.826105	0.041620	0.006018
O4	O	0.813539	0.041637	-0.134737
O5	O	0.826085	-0.041340	0.006007
O6	O	0.718646	-0.041348	-0.068438
O7	O	0.920957	-0.041314	-0.060304
Zn8	Zn	0.819799	-0.054503	-0.064373
Zn9	Zn	0.819825	0.054800	-0.064358
O10	O	0.813518	-0.041323	-0.134749
C11	C	0.692781	0.000127	-0.068171
C12	C	0.615683	0.000114	-0.067385
N13	N	0.819785	-0.129099	-0.064382
C14	C	0.570714	0.000127	-0.111066
C15	C	0.498271	0.000133	-0.110328
C16	C	0.470801	0.000135	-0.065906
C17	C	0.515780	0.000119	-0.022219
C18	C	0.588220	0.000109	-0.022959
C19	C	0.362764	0.029212	-0.030982
C20	C	0.290324	0.029225	-0.030244
C21	C	0.247370	0.000165	-0.063624
C22	C	0.276862	-0.028903	-0.097749
C23	C	0.349303	-0.028913	-0.098488
C24	C	0.392252	0.000146	-0.065099
C25	C	0.123850	0.000183	-0.106507
C26	C	0.051406	0.000186	-0.105767
C27	C	0.068916	0.000177	-0.017658
C28	C	0.141358	0.000170	-0.018399
C29	C	0.168820	0.000175	-0.062825
C30	C	0.867393	-0.473721	-0.031402
C31	C	0.867410	-0.682599	-0.031394
O32	O	0.907859	-0.709599	-0.003356
N33	N	0.819829	-0.708726	-0.064347
C34	C	0.772238	-0.682630	-0.097302
O35	O	0.731764	-0.709646	-0.125327
C36	C	0.772219	-0.473753	-0.097307
C37	C	0.819807	-0.447629	-0.064355
C38	C	0.914977	-0.447597	0.001548
C39	C	0.914975	-0.395380	0.001544
C40	C	0.867389	-0.369288	-0.031409
C41	C	0.819805	-0.395413	-0.064359
C42	C	0.724625	-0.447659	-0.130259
C43	C	0.724623	-0.395436	-0.130256
C44	C	0.772212	-0.369312	-0.097304
C45	C	0.772217	-0.317105	-0.097316
N46	N	0.819797	-0.290978	-0.064363
C47	C	0.867383	-0.317070	-0.031410
C48	C	0.772252	-0.792293	-0.097298
C49	C	0.772258	-0.844512	-0.097297
C50	C	0.867429	-0.844477	-0.031389
C51	C	0.867426	-0.792257	-0.031392
C52	C	0.819833	-0.766166	-0.064345
C53	C	0.867376	-0.207412	-0.031421
C54	C	0.867371	-0.155191	-0.031429
C55	C	0.772198	-0.155230	-0.097336
C56	C	0.772205	-0.207447	-0.097329
C57	C	0.819796	-0.233536	-0.064368
O58	O	0.731783	-0.290072	-0.125336
O59	O	0.907842	-0.290045	-0.003382
C60	C	0.867395	-0.525937	-0.031398
C61	C	0.819811	-0.552062	-0.064347
C62	C	0.772225	-0.525970	-0.097300
C63	C	0.819817	-0.604281	-0.064346
C64	C	0.867403	-0.630373	-0.031393
C65	C	0.914983	-0.604246	0.001560
C66	C	0.914981	-0.552029	0.001556
C67	C	0.724645	-0.552097	-0.130253
C68	C	0.724651	-0.604313	-0.130247
C69	C	0.772237	-0.630405	-0.097294
C70	C	0.946842	0.000171	-0.060560
C71	C	1.023941	0.000187	-0.061345
C72	C	0.825831	0.000139	0.024020
C73	C	0.825037	0.000134	0.077678
N74	N	0.819844	0.129396	-0.064344
C75	C	0.813792	0.000159	-0.152751
C76	C	0.814587	0.000167	-0.206408
C77	C	0.883526	0.000170	0.416316
C78	C	0.880579	0.000176	0.617985
O79	O	0.934063	0.000207	0.649079
N80	N	0.816872	0.000165	0.637301
C81	C	0.753897	0.000156	0.606196
O82	O	0.699643	0.000152	0.627253
C83	C	0.756845	0.000153	0.404529
C84	C	0.820556	0.000159	0.385216
C85	C	0.947232	0.000176	0.397002
C86	C	0.947968	0.000172	0.346588
C87	C	0.884998	0.000161	0.315488
C88	C	0.821292	0.000155	0.334801
C89	C	0.693871	0.000147	0.373425
C90	C	0.694614	0.000148	0.323006
C91	C	0.758325	0.000154	0.303693
C92	C	0.759059	0.000139	0.253287
N93	N	0.822766	0.000150	0.233971
C94	C	0.885735	0.000161	0.265071
C95	C	0.752354	0.000156	0.712075
C96	C	0.751617	0.000156	0.762492
C97	C	0.878299	0.000177	0.774277
C98	C	0.879035	0.000174	0.723859
C99	C	0.816061	0.000167	0.692759
C100	C	0.887276	0.000152	0.159197
C101	C	0.888007	0.000145	0.108778
C102	C	0.761325	0.000127	0.096998
C103	C	0.760595	0.000130	0.147412
C104	C	0.823576	0.000145	0.178511
O105	O	0.705603	0.000114	0.222164
O106	O	0.939982	0.000176	0.244005
C107	C	0.882790	0.000174	0.466730
C108	C	0.819084	0.000168	0.486044
C109	C	0.756114	0.000157	0.454943
C110	C	0.818347	0.000167	0.536461
C111	C	0.881317	0.000178	0.567561
C112	C	0.945023	0.000189	0.548245
C113	C	0.945760	0.000185	0.497831
C114	C	0.692407	0.000146	0.474260
C115	C	0.691676	0.000149	0.524674
C116	C	0.754646	0.000160	0.555775
H117	H	0.593069	0.000133	-0.147241
N118	N	0.684430	0.000145	0.678532
H119	H	0.656616	0.030892	0.684733
H120	H	0.656663	-0.030634	0.684749
H121	H	0.046551	0.000210	0.018511
N122	N	0.626690	0.000143	0.289462
H123	H	0.586223	0.000139	0.309351
H124	H	0.624224	-0.030613	0.268288
N125	N	0.486153	0.000127	0.025692
H126	H	0.525637	0.000117	0.053253
H127	H	0.456450	-0.030622	0.027914
N128	N	0.153474	0.000180	-0.154422
H129	H	0.206189	0.000175	-0.148262
H130	H	0.137013	0.030936	-0.173527
N131	N	1.012939	0.000198	0.581797
H132	H	1.015458	0.030953	0.602976
H133	H	1.053377	0.000183	0.561884
N134	N	0.966317	-0.475731	0.037088
H135	H	0.940026	-0.497408	0.058453
H136	H	0.996441	-0.451216	0.057922
N137	N	0.673314	-0.523959	-0.165795
H138	H	0.643175	-0.548438	-0.186666
H139	H	0.699668	-0.502286	-0.187122
N140	N	0.720890	-0.235632	-0.132872
H141	H	0.728519	-0.226546	-0.167166
H142	H	0.671676	-0.226547	-0.127353
N143	N	1.016682	0.000191	0.325757
H144	H	1.019815	-0.030561	0.305102
H145	H	1.056419	0.000220	0.353140
N146	N	0.409088	0.060560	0.005022
H147	H	0.459454	0.056142	-0.000623
H148	H	0.403170	0.049693	0.039143
N149	N	0.258519	0.060573	0.006562
H150	H	0.206111	0.056173	0.001965
H151	H	0.270317	0.096825	0.001923
H152	H	0.014793	0.000193	-0.141339
N153	N	0.673294	-0.367294	-0.165801
H154	H	0.642740	-0.345637	-0.147384
H155	H	0.643198	-0.391800	-0.186665
H156	H	0.639791	0.000140	0.540394
H157	H	0.733456	-0.133978	-0.124167
H158	H	0.641128	0.000138	0.448942
H159	H	0.373313	-0.052582	-0.126273
H160	H	0.939890	0.000149	0.093056
H161	H	0.461651	0.000142	-0.145899
H162	H	0.997640	0.000190	0.482111
H163	H	0.953732	-0.530763	0.028388
N164	N	0.230544	-0.060246	-0.133757
H165	H	0.180178	-0.055832	-0.128111
H166	H	0.244076	-0.096501	-0.129373
N167	N	0.189866	0.000156	0.028714
H168	H	0.161473	0.000157	0.056968
H169	H	0.220331	0.030904	0.030332
H170	H	0.699737	0.000143	0.778212
H171	H	0.641991	0.000145	0.389141
H172	H	0.953732	-0.625498	0.028390
H173	H	0.624835	0.000098	0.012613
N174	N	0.918703	-0.127014	0.004111
H175	H	0.948846	-0.151470	0.024988
H176	H	0.892344	-0.105354	0.025434
H177	H	0.685900	-0.625580	-0.157084
H178	H	0.906128	-0.228648	-0.004580
N179	N	0.918752	-0.764082	0.004148
H180	H	0.948897	-0.788540	0.025021
H181	H	0.892394	-0.742427	0.025473
H182	H	0.708716	0.000112	0.163138
N183	N	0.966300	-0.367207	0.037087
H184	H	0.996440	-0.391667	0.057961
H185	H	0.939939	-0.345551	0.058410
N186	N	0.918756	-0.872624	0.004154
H187	H	0.911534	-0.909668	-0.000849
H188	H	0.911098	-0.863501	0.038431
H189	H	0.710057	0.000116	0.071667
H190	H	0.733514	-0.865779	-0.124135
N191	N	0.720914	-0.764156	-0.132840
H192	H	0.690778	-0.788635	-0.153713
H193	H	0.747266	-0.742480	-0.154166
H194	H	0.938562	0.000165	0.184513
N195	N	1.015155	0.000187	0.430542
H196	H	1.055618	0.000191	0.410649
H197	H	1.017602	-0.030568	0.451714
H198	H	0.685874	-0.468922	-0.157091
H199	H	0.930914	0.000179	0.708138
H200	H	0.929571	0.000186	0.799607
