data_functionalizedCrystal
_audit_creation_method	'MofGen! by Chris Wilmer'
_symmetry_space_group_name_H-M	'P1'
_symmetry_Int_Tables_number	1
_symmetry_cell_setting	triclinic
loop_
_symmetry_equiv_pos_as_xyz
  x,y,z
_cell_length_a	10.686285
_cell_length_b	12.759401
_cell_length_c	12.759393
_cell_angle_alpha	90.020057
_cell_angle_beta	85.601950
_cell_angle_gamma	94.372685
loop_
_atom_site_label
_atom_site_type_symbol
_atom_site_fract_x
_atom_site_fract_y
_atom_site_fract_z
Zn1	Zn	-0.502427	-1.638402	-0.562000
Zn2	Zn	-0.713472	-1.651800	-0.372867
Zn3	Zn	-0.502476	-1.462707	-0.386331
Zn4	Zn	-0.713358	-1.476188	-0.548511
O5	O	-0.607933	-1.557274	-0.467427
O6	O	-0.530449	-1.787202	-0.536921
O7	O	-0.685551	-1.626681	-0.227628
O8	O	-0.325892	-1.474764	-0.420914
O9	O	-0.685503	-1.797045	-0.397966
O10	O	-0.325855	-1.603846	-0.549977
O11	O	-0.530534	-1.487756	-0.237520
O12	O	-0.530423	-1.317473	-0.407834
O13	O	-0.685309	-1.497741	-0.697326
O14	O	-0.685357	-1.327377	-0.526987
O15	O	-0.530339	-1.616919	-0.707236
O16	O	-0.890035	-1.639753	-0.384887
O17	O	-0.889951	-1.510733	-0.513931
C18	C	-0.607884	-1.284304	-0.467408
C19	C	-0.607893	-1.167528	-0.467423
C20	C	-0.527320	-0.997814	-0.539874
C21	C	-0.527303	-1.107537	-0.539871
C22	C	-0.688514	-1.117790	-0.394982
C23	C	-0.688537	-1.008070	-0.394991
C24	C	-0.935777	-1.578188	-0.446507
C25	C	-1.076030	-1.587232	-0.437593
C26	C	-0.278809	-1.536307	-0.488452
C27	C	-0.138556	-1.527372	-0.497411
C28	C	-0.607806	-1.557339	-0.741469
C29	C	-0.607751	-1.557367	-0.858249
C30	C	-0.607965	-0.831310	-0.467442
C31	C	-0.607932	-0.948084	-0.467436
C32	C	-0.527019	-1.485052	-0.918262
C33	C	-0.526980	-1.485074	-1.027989
C34	C	-0.688409	-1.629736	-1.017679
C35	C	-0.688454	-1.629708	-0.907954
C36	C	-0.607969	-1.557264	-0.194457
C37	C	-0.607668	-1.557417	-0.077701
H38	H	-0.754188	-0.967579	-0.336002
C39	C	-0.439256	-1.406669	-0.864250
C40	C	-0.358389	-1.460984	-0.806453
C41	C	-0.277515	-1.388808	-0.756699
H42	H	-0.487388	-1.363926	-0.818282
H43	H	-0.391099	-1.363617	-0.915684
H44	H	-0.406541	-1.504018	-0.755025
H45	H	-0.310229	-1.503723	-0.852397
H46	H	-0.229358	-1.345755	-0.808132
H47	H	-0.325657	-1.346068	-0.710736
H48	H	-0.222630	-1.425649	-0.717485
C49	C	-0.775881	-1.708231	-1.071846
C50	C	-0.758540	-1.692798	-1.180786
C51	C	-0.839085	-1.765100	-1.230717
H52	H	-0.860718	-1.698319	-1.048568
H53	H	-0.757424	-1.777664	-1.055109
H54	H	-0.777006	-1.623382	-1.197516
H55	H	-0.673719	-1.702719	-1.204094
H56	H	-0.820628	-1.834533	-1.213979
H57	H	-0.923917	-1.755183	-1.207430
H58	H	-0.827322	-1.754646	-1.304637
H59	H	-0.461241	-1.426187	-1.076847
C60	C	-1.147946	-1.664803	-0.360335
C61	C	-1.277427	-1.658699	-0.366594
C62	C	-1.343714	-1.730167	-0.295469
H63	H	-1.126657	-1.648215	-0.291013
H64	H	-1.126383	-1.734022	-0.377179
H65	H	-1.298981	-1.589496	-0.349743
H66	H	-1.298754	-1.675298	-0.435899
H67	H	-1.322151	-1.799386	-0.312313
H68	H	-1.322414	-1.713572	-0.226152
H69	H	-1.431572	-1.726042	-0.299713
C70	C	-0.775876	-1.183100	-0.316371
C71	C	-0.758579	-1.289832	-0.331845
C72	C	-0.839021	-1.350023	-0.259436
H73	H	-0.860736	-1.170683	-0.326149
H74	H	-0.757298	-1.163956	-0.246971
H75	H	-0.777166	-1.308969	-0.401228
H76	H	-0.673736	-1.302281	-0.322059
H77	H	-0.820443	-1.330879	-0.190036
H78	H	-0.923876	-1.337597	-0.269219
H79	H	-0.827288	-1.422446	-0.269918
C80	C	-0.776160	-1.708345	-0.842975
C81	C	-0.846795	-1.771728	-0.909988
C82	C	-0.927590	-1.844182	-0.850168
H83	H	-0.831257	-1.671766	-0.796644
H84	H	-0.727945	-1.751095	-0.803278
H85	H	-0.895007	-1.728984	-0.949667
H86	H	-0.791731	-1.808330	-0.956319
H87	H	-0.879375	-1.886931	-0.810471
H88	H	-0.982679	-1.807593	-0.803840
H89	H	-0.975517	-1.887202	-0.895628
H90	H	-1.084789	-1.469206	-0.555446
H91	H	-0.461686	-0.948977	-0.598863
C92	C	-0.439638	-1.161331	-0.618565
C93	C	-0.369037	-1.085309	-0.681990
C94	C	-0.288253	-1.134823	-0.754490
H95	H	-0.487821	-1.207238	-0.661295
H96	H	-0.384528	-1.200570	-0.581987
H97	H	-0.424140	-1.046087	-0.718567
H98	H	-0.320829	-1.039398	-0.639290
H99	H	-0.233143	-1.174062	-0.717911
H100	H	-0.336446	-1.180729	-0.797212
H101	H	-0.240333	-1.083249	-0.797526
