data_functionalizedCrystal
_audit_creation_method	'MofGen! by Chris Wilmer'
_symmetry_space_group_name_H-M	'P1'
_symmetry_Int_Tables_number	1
_symmetry_cell_setting	triclinic
loop_
_symmetry_equiv_pos_as_xyz
  x,y,z
_cell_length_a	19.077105
_cell_length_b	11.169416
_cell_length_c	11.169409
_cell_angle_alpha	90.029517
_cell_angle_beta	92.320653
_cell_angle_gamma	87.700901
loop_
_atom_site_label
_atom_site_type_symbol
_atom_site_fract_x
_atom_site_fract_y
_atom_site_fract_z
Zn1	Zn	1.076127	-0.551541	0.752318
Zn2	Zn	1.409460	-0.218208	1.085651
Zn3	Zn	1.742794	0.115126	1.418984
Zn4	Zn	1.076074	-0.752278	0.551641
Zn5	Zn	1.409408	-0.418945	0.884974
Zn6	Zn	1.742741	-0.085611	1.218307
Zn7	Zn	0.958420	-0.543535	0.543585
Zn8	Zn	1.291753	-0.210202	0.876918
Zn9	Zn	1.625087	0.123131	1.210252
Zn10	Zn	0.958437	-0.744106	0.744223
Zn11	Zn	1.291770	-0.410773	1.077557
Zn12	Zn	1.625103	-0.077440	1.410890
O13	O	1.017264	-0.647865	0.647942
O14	O	1.350598	-0.314532	0.981275
O15	O	1.683931	0.018802	1.314608
O16	O	1.174612	-0.584939	0.732456
O17	O	1.507946	-0.251606	1.065789
O18	O	1.841279	0.081727	1.399123
O19	O	1.060438	-0.724657	0.382620
O20	O	1.393772	-0.391324	0.715954
O21	O	1.727105	-0.057991	1.049287
O22	O	0.974049	-0.376649	0.571290
O23	O	1.307382	-0.043315	0.904623
O24	O	1.640715	0.290018	1.237957
O25	O	1.174574	-0.732420	0.585020
O26	O	1.507907	-0.399087	0.918353
O27	O	1.841241	-0.065753	1.251686
O28	O	1.060528	-0.382530	0.724645
O29	O	1.393861	-0.049197	1.057978
O30	O	1.727194	0.284136	1.391311
O31	O	0.973998	-0.571295	0.376702
O32	O	1.307331	-0.237962	0.710035
O33	O	1.640665	0.095372	1.043368
O34	O	0.859930	-0.563371	0.563441
O35	O	1.193263	-0.230038	0.896775
O36	O	1.526596	0.103295	1.230108
O37	O	0.974078	-0.718493	0.913249
O38	O	1.307411	-0.385159	1.246582
O39	O	1.640744	-0.051826	1.579916
O40	O	0.859942	-0.710730	0.710850
O41	O	1.193275	-0.377397	1.044183
O42	O	1.526609	-0.044063	1.377516
O43	O	1.060544	-0.577016	0.919196
O44	O	1.393877	-0.243682	1.252529
O45	O	1.727211	0.089651	1.585862
O46	O	1.060455	-0.919143	0.577171
O47	O	1.393788	-0.585809	0.910505
O48	O	1.727121	-0.252476	1.243838
O49	O	0.974027	-0.913139	0.718661
O50	O	1.307360	-0.579806	1.051994
O51	O	1.640694	-0.246472	1.385328
C52	C	0.834398	-0.635296	0.635394
C53	C	1.167731	-0.301963	0.968727
C54	C	1.501064	0.031371	1.302060
C55	C	0.756167	-0.629948	0.630054
C56	C	1.089500	-0.296614	0.963387
C57	C	1.422833	0.036719	1.296721
C58	C	1.017256	-0.959689	0.647939
C59	C	1.350589	-0.626356	0.981273
C60	C	1.683923	-0.293023	1.314606
C61	C	1.017317	-1.093093	0.647983
C62	C	1.350650	-0.759760	0.981316
C63	C	1.683984	-0.426427	1.314650
C64	C	1.017319	-0.647736	0.960988
C65	C	1.350652	-0.314402	1.294321
C66	C	1.683985	0.018931	1.627655
C67	C	1.017342	-0.647680	1.094390
C68	C	1.350675	-0.314347	1.427723
C69	C	1.684008	0.018986	1.761056
C70	C	0.719438	-0.704273	0.704172
C71	C	1.052772	-0.370939	1.037506
C72	C	1.386105	-0.037606	1.370839
C73	C	0.645932	-0.699232	0.699161
C74	C	0.979265	-0.365898	1.032494
C75	C	1.312598	-0.032565	1.365828
C76	C	0.609155	-0.619871	0.620024
C77	C	0.942488	-0.286538	0.953358
C78	C	1.275821	0.046796	1.286691
C79	C	0.645888	-0.545538	0.545903
C80	C	0.979222	-0.212205	0.879236
C81	C	1.312555	0.121129	1.212570
C82	C	0.719393	-0.550574	0.550921
C83	C	1.052727	-0.217240	0.884255
C84	C	1.386060	0.116093	1.217588
C85	C	0.389315	-0.596565	0.596805
C86	C	0.722648	-0.263231	0.930138
C87	C	1.055982	0.070102	1.263471
C88	C	0.315805	-0.591537	0.591789
C89	C	0.649138	-0.258204	0.925123
C90	C	0.982471	0.075130	1.258456
C91	C	0.315853	-0.745230	0.745050
C92	C	0.649187	-0.411896	1.078383
C93	C	0.982520	-0.078563	1.411716
C94	C	0.389360	-0.750263	0.750056
C95	C	0.722693	-0.416930	1.083389
C96	C	1.056027	-0.083597	1.416722
C97	C	0.426087	-0.675926	0.675939
C98	C	0.759420	-0.342593	1.009272
C99	C	1.092754	-0.009259	1.342606
N100	N	0.534019	-0.614719	0.614897
N101	N	0.867353	-0.281386	0.948231
N102	N	1.200686	0.051948	1.281564
N103	N	0.501221	-0.681073	0.681073
N104	N	0.834554	-0.347740	1.014406
N105	N	1.167888	-0.014406	1.347740
C106	C	1.200845	-0.660484	0.660539
C107	C	1.534179	-0.327151	0.993873
C108	C	1.867512	0.006182	1.327206
C109	C	1.279077	-0.665862	0.665908
C110	C	1.612410	-0.332528	0.999241
C111	C	1.945743	0.000805	1.332575
C112	C	1.017292	-0.334825	0.647972
C113	C	1.350625	-0.001491	0.981305
C114	C	1.683959	0.331842	1.314638
C115	C	1.017304	-0.201426	0.647984
C116	C	1.350637	0.131908	0.981318
C117	C	1.683971	0.465241	1.314651
C118	C	1.017251	-0.647910	0.336116
C119	C	1.350585	-0.314577	0.669449
C120	C	1.683918	0.018756	1.002783
C121	C	1.017364	-0.647637	0.202724
C122	C	1.350698	-0.314304	0.536058
C123	C	1.684031	0.019030	0.869391
H124	H	0.616031	-0.759756	0.759515
H125	H	0.949364	-0.426423	1.092848
H126	H	1.282697	-0.093089	1.426182
N127	N	0.276127	-0.505972	0.506407
N128	N	0.609461	-0.172639	0.839740
N129	N	0.942794	0.160695	1.173073
H130	H	0.245628	-0.448328	0.553170
H131	H	0.578962	-0.114994	0.886503
H132	H	0.912295	0.218339	1.219836
H133	H	0.245668	-0.552730	0.448665
H134	H	0.579001	-0.219397	0.781998
H135	H	0.912334	0.113936	1.115331
H136	H	0.749297	-0.490044	0.490572
H137	H	1.082630	-0.156711	0.823906
H138	H	1.415963	0.176622	1.157239
N139	N	0.428923	-0.516372	0.516887
N140	N	0.762256	-0.183038	0.850220
N141	N	1.095589	0.150295	1.183554
H142	H	0.394469	-0.465333	0.465999
H143	H	0.727802	-0.131999	0.799332
H144	H	1.061135	0.201334	1.132665
H145	H	0.459412	-0.567227	0.463338
H146	H	0.792745	-0.233893	0.796672
H147	H	1.126079	0.099440	1.130005
H148	H	0.749377	-0.768901	0.768610
H149	H	1.082710	-0.435567	1.101943
H150	H	1.416043	-0.102234	1.435277
N151	N	0.606226	-0.459962	0.460524
N152	N	0.939559	-0.126629	0.793858
N153	N	1.272892	0.206704	1.127191
H154	H	0.554087	-0.468061	0.468578
H155	H	0.887420	-0.134728	0.801912
H156	H	1.220754	0.198606	1.135245
H157	H	0.619060	-0.479454	0.375666
H158	H	0.952393	-0.146120	0.708999
H159	H	1.285727	0.187213	1.042332
N160	N	0.429025	-0.835866	0.835404
N161	N	0.762359	-0.502533	1.168737
N162	N	1.095692	-0.169199	1.502070
H163	H	0.394603	-0.882188	0.881598
H164	H	0.727937	-0.548855	1.214931
H165	H	1.061270	-0.215521	1.548264
H166	H	0.459542	-0.789170	0.893110
H167	H	0.792876	-0.455837	1.226443
H168	H	1.126209	-0.122504	1.559776
N169	N	0.276242	-0.825403	0.824986
N170	N	0.609575	-0.492070	1.158320
N171	N	0.942908	-0.158737	1.491653
H172	H	0.224096	-0.810175	0.809803
H173	H	0.557429	-0.476841	1.143136
H174	H	0.890762	-0.143508	1.476470
H175	H	0.289116	-0.807701	0.911611
H176	H	0.622449	-0.474368	1.244944
H177	H	0.955783	-0.141035	1.578278
