data_functionalizedCrystal
_audit_creation_method	'MofGen! by Chris Wilmer'
_symmetry_space_group_name_H-M	'P1'
_symmetry_Int_Tables_number	1
_symmetry_cell_setting	triclinic
loop_
_symmetry_equiv_pos_as_xyz
  x,y,z
_cell_length_a	13.897449
_cell_length_b	18.101395
_cell_length_c	13.897441
_cell_angle_alpha	89.970274
_cell_angle_beta	89.981404
_cell_angle_gamma	90.032384
loop_
_atom_site_label
_atom_site_type_symbol
_atom_site_fract_x
_atom_site_fract_y
_atom_site_fract_z
Zn1	Zn	1.474592	-0.294788	-0.545380
Zn2	Zn	1.474455	-0.418641	-0.384082
Zn3	Zn	1.313288	-0.294821	-0.384099
Zn4	Zn	1.313225	-0.418595	-0.545334
O5	O	1.393890	-0.356711	-0.464724
O6	O	1.609556	-0.311223	-0.523996
O7	O	1.453044	-0.402250	-0.249102
O8	O	1.334769	-0.191184	-0.405520
O9	O	1.609455	-0.402218	-0.405490
O10	O	1.453279	-0.191159	-0.524013
O11	O	1.334635	-0.311279	-0.249115
O12	O	1.178298	-0.311234	-0.405475
O13	O	1.334663	-0.402138	-0.680322
O14	O	1.178252	-0.402170	-0.523934
O15	O	1.453218	-0.311178	-0.680356
O16	O	1.452984	-0.522268	-0.405445
O17	O	1.334529	-0.522234	-0.523917
C18	C	1.143276	-0.356701	-0.464702
C19	C	1.036062	-0.356715	-0.464715
C20	C	0.839767	-0.356718	-0.464741
C21	C	0.948999	-0.356714	-0.464724
C22	C	1.393761	-0.549122	-0.464695
C23	C	1.393794	-0.631436	-0.464716
C24	C	1.394006	-0.930527	-0.464767
C25	C	1.319650	-0.899211	-0.539492
C26	C	1.319297	-0.813593	-0.539258
C27	C	1.393901	-0.782144	-0.464743
C28	C	1.366379	-0.813299	-0.363084
C29	C	1.365899	-0.898945	-0.363531
C30	C	1.496046	-0.898868	-0.490807
C31	C	1.495446	-0.813217	-0.493037
C32	C	1.393843	-0.698285	-0.464722
C33	C	1.394061	-1.014386	-0.464781
C34	C	1.645483	-0.356722	-0.464746
C35	C	1.752697	-0.356726	-0.464756
C36	C	1.393949	-0.356649	-0.716317
C37	C	1.393974	-0.356623	-0.823531
C38	C	1.394046	-0.163549	-0.464773
C39	C	1.394112	-0.081235	-0.464795
C40	C	1.393994	-0.356602	-0.910601
C41	C	1.394022	-0.356568	-1.019833
C42	C	1.393887	-0.356720	-0.214109
C43	C	1.394048	-0.356538	-0.106896
H44	H	1.336516	-0.792526	-0.614637
H45	H	1.243662	-0.793172	-0.522009
F46	F	1.571691	-0.785226	-0.427090
H47	H	1.521138	-0.920413	-0.563673
H48	H	1.417707	-0.919663	-0.305957
F49	F	1.341929	-0.926066	-0.638339
F50	F	1.221393	-0.927441	-0.517247
F51	F	1.268404	-0.925147	-0.334699
H52	H	1.418832	-0.792930	-0.305891
H53	H	1.292578	-0.791917	-0.340630
H54	H	1.516200	-0.792851	-0.567852
H55	H	1.551443	-0.919119	-0.436383
