data_functionalizedCrystal
_audit_creation_method	'MofGen! by Chris Wilmer'
_symmetry_space_group_name_H-M	'P1'
_symmetry_Int_Tables_number	1
_symmetry_cell_setting	triclinic
loop_
_symmetry_equiv_pos_as_xyz
  x,y,z
_cell_length_a	16.109302
_cell_length_b	16.109304
_cell_length_c	15.186229
_cell_angle_alpha	89.999066
_cell_angle_beta	89.994701
_cell_angle_gamma	83.462209
loop_
_atom_site_label
_atom_site_type_symbol
_atom_site_fract_x
_atom_site_fract_y
_atom_site_fract_z
O1	O	1.103131	0.106869	-0.073263
O2	O	1.436465	0.440202	0.260071
O3	O	1.769798	0.773535	0.593404
O4	O	0.861070	0.120167	-0.073255
O5	O	1.194403	0.453501	0.260078
O6	O	1.527736	0.786834	0.593412
O7	O	0.988749	-0.007513	-0.073259
O8	O	1.322082	0.325821	0.260074
O9	O	1.655416	0.659154	0.593407
O10	O	0.975452	0.234549	-0.073258
O11	O	1.308785	0.567882	0.260075
O12	O	1.642119	0.901216	0.593409
O13	O	0.988740	-0.007514	0.073198
O14	O	1.322074	0.325819	0.406531
O15	O	1.655407	0.659152	0.739864
O16	O	0.861061	0.120166	0.073202
O17	O	1.194394	0.453499	0.406536
O18	O	1.527728	0.786832	0.739869
O19	O	1.103123	0.106867	0.073195
O20	O	1.436456	0.440200	0.406528
O21	O	1.769789	0.773534	0.739861
Zn22	Zn	0.982091	0.113516	0.096452
Zn23	Zn	1.315424	0.446849	0.429785
Zn24	Zn	1.648757	0.780183	0.763118
Zn25	Zn	0.982102	0.113518	-0.096512
Zn26	Zn	1.315435	0.446852	0.236821
Zn27	Zn	1.648768	0.780185	0.570155
O28	O	0.975444	0.234547	0.073199
O29	O	1.308777	0.567880	0.406533
O30	O	1.642110	0.901214	0.739866
C31	C	0.830090	0.119628	-0.000025
C32	C	1.163424	0.452961	0.333308
C33	C	1.496757	0.786294	0.666641
C34	C	0.737795	0.118012	-0.000023
C35	C	1.071128	0.451346	0.333311
C36	C	1.404462	0.784679	0.666644
C37	C	0.525450	0.114276	0.079802
C38	C	0.858783	0.447610	0.413136
C39	C	1.192116	0.780943	0.746469
C40	C	0.438729	0.112750	0.079799
C41	C	0.772063	0.446083	0.413133
C42	C	1.105396	0.779416	0.746466
C43	C	0.438749	0.112756	-0.079876
C44	C	0.772083	0.446089	0.253457
C45	C	1.105416	0.779422	0.586790
C46	C	0.525468	0.114277	-0.079872
C47	C	0.858802	0.447610	0.253461
C48	C	1.192135	0.780943	0.586794
C49	C	0.568816	0.115041	-0.000030
C50	C	0.902149	0.448374	0.333303
C51	C	1.235483	0.781708	0.666636
C52	C	0.395377	0.111994	-0.000038
C53	C	0.728710	0.445327	0.333296
C54	C	1.062043	0.778660	0.666629
C55	C	0.301351	0.110338	-0.000041
C56	C	0.634684	0.443672	0.333292
C57	C	0.968017	0.777005	0.666625
C58	C	0.662848	0.116695	-0.000026
C59	C	0.996181	0.450028	0.333307
C60	C	1.329514	0.783362	0.666640
C61	C	0.988206	-0.038488	-0.000033
C62	C	1.321539	0.294845	0.333301
C63	C	1.654872	0.628178	0.666634
C64	C	0.986590	-0.130784	-0.000039
C65	C	1.319923	0.202550	0.333295
C66	C	1.653256	0.535883	0.666628
C67	C	0.982861	-0.343120	-0.079869
C68	C	1.316194	-0.009787	0.253464
C69	C	1.649527	0.323547	0.586797
C70	C	0.981334	-0.429840	-0.079868
C71	C	1.314668	-0.096507	0.253465
C72	C	1.648001	0.236827	0.586798
C73	C	0.981329	-0.429839	0.079807
C74	C	1.314663	-0.096506	0.413141
C75	C	1.647996	0.236828	0.746474
C76	C	0.982849	-0.343120	0.079806
C77	C	1.316183	-0.009786	0.413139
C78	C	1.649516	0.323547	0.746472
C79	C	0.983619	-0.299763	-0.000035
C80	C	1.316953	0.033570	0.333298
C81	C	1.650286	0.366904	0.666631
C82	C	0.980573	-0.473202	-0.000033
C83	C	1.313906	-0.139869	0.333301
C84	C	1.647240	0.193464	0.666634
C85	C	0.978918	-0.567228	-0.000031
C86	C	1.312252	-0.233895	0.333302
C87	C	1.645585	0.099438	0.666636
C88	C	0.985272	-0.205731	-0.000037
C89	C	1.318606	0.127602	0.333296
C90	C	1.651939	0.460936	0.666629
C91	C	1.134102	0.107407	-0.000037
C92	C	1.467435	0.440740	0.333297
C93	C	1.800769	0.774073	0.666630
C94	C	1.226397	0.109022	-0.000045
C95	C	1.559731	0.442355	0.333288
C96	C	1.893064	0.775689	0.666621
C97	C	0.975987	0.265523	-0.000029
C98	C	1.309320	0.598856	0.333304
C99	C	1.642653	0.932190	0.666637
C100	C	0.977603	0.357818	-0.000029
C101	C	1.310936	0.691151	0.333304
C102	C	1.644270	1.024485	0.666637
N103	N	0.982089	0.113514	0.228144
N104	N	1.315422	0.446847	0.561478
N105	N	1.648756	0.780181	0.894811
N106	N	0.982110	0.113514	-0.228205
N107	N	1.315443	0.446847	0.105129
N108	N	1.648777	0.780181	0.438462
C109	C	1.038645	0.056996	0.453865
C110	C	1.371978	0.390330	0.787199
C111	C	1.705311	0.723663	1.120532
C112	C	1.038647	0.056994	0.546055
C113	C	1.371981	0.390328	0.879388
C114	C	1.705314	0.723661	1.212722
C115	C	0.925548	0.170034	0.546068
C116	C	1.258882	0.503368	0.879401
C117	C	1.592215	0.836701	1.212735
C118	C	0.925542	0.170032	0.453880
C119	C	1.258876	0.503365	0.787213
C120	C	1.592209	0.836698	1.120547
C121	C	0.982095	0.113514	0.407781
C122	C	1.315429	0.446847	0.741114
C123	C	1.648762	0.780180	1.074448
C124	C	0.982104	0.113514	0.592159
C125	C	1.315437	0.446848	0.925492
C126	C	1.648770	0.780181	1.258825
C127	C	0.982106	0.113513	0.692115
C128	C	1.315440	0.446846	1.025448
C129	C	1.648773	0.780179	1.358781
C130	C	0.982092	0.113514	0.307819
C131	C	1.315425	0.446847	0.641152
C132	C	1.648759	0.780181	0.974485
H133	H	0.403445	0.112134	-0.144881
H134	H	0.736778	0.445468	0.188452
H135	H	1.070112	0.778801	0.521786
H136	H	0.560779	0.114897	-0.144886
H137	H	0.894112	0.448230	0.188447
H138	H	1.227445	0.781564	0.521781
C139	C	0.980486	-0.477540	0.167628
C140	C	1.313819	-0.144207	0.500961
C141	C	1.647152	0.189127	0.834294
N142	N	0.979852	-0.513468	0.233776
N143	N	1.313185	-0.180135	0.567109
N144	N	1.646519	0.153199	0.900443
C145	C	0.863342	0.232199	0.596785
C146	C	1.196675	0.565533	0.930119
C147	C	1.530009	0.898866	1.263452
N148	N	0.816487	0.279023	0.634985
N149	N	1.149820	0.612357	0.968318
N150	N	1.483153	0.945690	1.301652
H151	H	0.560740	0.114899	0.144815
H152	H	0.894074	0.448232	0.478148
H153	H	1.227407	0.781565	0.811482
C154	C	1.100848	-0.005182	0.403160
C155	C	1.434181	0.328151	0.736493
C156	C	1.767514	0.661485	1.069826
N157	N	1.147698	-0.052019	0.364971
N158	N	1.481032	0.281314	0.698304
N159	N	1.814365	0.614648	1.031637
H160	H	0.980715	-0.465137	-0.144877
H161	H	1.314048	-0.131804	0.188456
H162	H	1.647382	0.201529	0.521790
H163	H	0.983485	-0.307821	-0.144881
H164	H	1.316818	0.025512	0.188452
H165	H	1.650152	0.358846	0.521786
C166	C	0.983683	-0.295424	0.167634
C167	C	1.317017	0.037909	0.500967
C168	C	1.650350	0.371242	0.834300
N169	N	0.984309	-0.259500	0.233783
N170	N	1.317642	0.073834	0.567116
N171	N	1.650976	0.407167	0.900450
C172	C	1.100850	-0.005186	0.596743
C173	C	1.434183	0.328147	0.930077
C174	C	1.767516	0.661480	1.263410
N175	N	1.147700	-0.052026	0.634921
N176	N	1.481033	0.281307	0.968255
N177	N	1.814367	0.614640	1.301588
H178	H	0.403424	0.112127	0.144807
H179	H	0.736758	0.445460	0.478141
H180	H	1.070091	0.778794	0.811474
C181	C	0.863368	0.232246	0.403184
C182	C	1.196701	0.565580	0.736518
C183	C	1.530035	0.898913	1.069851
N184	N	0.816553	0.279117	0.365000
N185	N	1.149886	0.612450	0.698334
N186	N	1.483219	0.945783	1.031667
