data_functionalizedCrystal
_audit_creation_method	'MofGen! by Chris Wilmer'
_symmetry_space_group_name_H-M	'P1'
_symmetry_Int_Tables_number	1
_symmetry_cell_setting	triclinic
loop_
_symmetry_equiv_pos_as_xyz
  x,y,z
_cell_length_a	16.109318
_cell_length_b	19.188924
_cell_length_c	14.586319
_cell_angle_alpha	89.994146
_cell_angle_beta	90.000075
_cell_angle_gamma	83.305264
loop_
_atom_site_label
_atom_site_type_symbol
_atom_site_fract_x
_atom_site_fract_y
_atom_site_fract_z
O1	O	1.102822	0.089802	-0.076168
O2	O	0.860724	0.100958	-0.076187
O3	O	0.988762	-0.006260	-0.076167
O4	O	0.974784	0.197019	-0.076189
O5	O	0.988753	-0.006261	0.076314
O6	O	0.860715	0.100956	0.076293
O7	O	1.102813	0.089800	0.076312
Cu8	Cu	0.981763	0.095378	0.090226
Cu9	Cu	0.981774	0.095380	-0.090101
O10	O	0.974775	0.197017	0.076292
C11	C	0.829747	0.100503	0.000051
C12	C	0.737457	0.099142	0.000044
C13	C	0.438403	0.094746	-0.083057
C14	C	0.525120	0.096021	-0.083063
C15	C	0.525129	0.096009	0.083180
C16	C	0.438414	0.094730	0.083185
C17	C	0.395053	0.094102	0.000064
C18	C	0.568484	0.096656	0.000053
C19	C	0.662507	0.098037	0.000048
C20	C	0.301024	0.092719	0.000069
C21	C	0.988306	-0.032272	0.000075
C22	C	0.986950	-0.109780	0.000077
C23	C	0.986322	-0.146180	-0.083040
C24	C	0.985036	-0.219006	-0.083048
C25	C	0.984395	-0.255431	0.000068
C26	C	0.985018	-0.219022	0.083196
C27	C	0.986296	-0.146197	0.083201
N28	N	1.029698	-0.374987	0.061932
N29	N	1.028486	-0.444168	0.061922
C30	C	0.980544	-0.474849	0.000058
N31	N	0.933870	-0.433737	-0.061808
N32	N	0.935086	-0.364550	-0.061801
C33	C	0.983009	-0.334398	0.000072
C34	C	0.978520	-0.590215	-0.083072
C35	C	0.977229	-0.663041	-0.083076
C36	C	0.977220	-0.663057	0.083170
C37	C	0.978503	-0.590231	0.083171
C38	C	0.979157	-0.553815	0.000047
C39	C	1.133790	0.090255	0.000072
C40	C	1.226080	0.091616	0.000073
C41	C	0.975231	0.223030	0.000048
C42	C	0.976587	0.300538	0.000040
N43	N	0.981762	0.095376	0.217057
N44	N	0.981782	0.095376	-0.216932
C45	C	1.038476	0.047916	0.452073
C46	C	1.038478	0.047915	0.548054
C47	C	0.925062	0.142838	0.548045
C48	C	0.925056	0.142836	0.452066
C49	C	0.981768	0.095376	0.404082
C50	C	0.981776	0.095376	0.596043
C51	C	0.981778	0.095375	0.700110
C52	C	0.981765	0.095376	0.300008
H53	H	0.560444	0.096522	0.150855
H54	H	0.403118	0.094205	0.150876
O55	O	0.870011	0.189037	0.594555
C56	C	0.820876	0.310429	0.623939
C57	C	0.883256	0.258184	0.571198
H58	H	0.831575	0.366346	0.605089
H59	H	0.754305	0.301367	0.605054
H60	H	0.830607	0.302246	0.700778
H61	H	0.873602	0.266336	0.494347
H62	H	0.949805	0.267259	0.590159
O63	O	0.870082	0.188973	0.405342
C64	C	0.852033	0.284347	0.297002
C65	C	0.914379	0.232131	0.349842
H66	H	0.887822	0.319264	0.252132
H67	H	0.810621	0.254228	0.252013
H68	H	0.811490	0.318241	0.347801
H69	H	0.954977	0.198224	0.299109
H70	H	0.955733	0.262293	0.394845
O71	O	0.986910	-0.110909	-0.163866
C72	C	0.986837	-0.118588	-0.328756
C73	C	0.986153	-0.158619	-0.237289
H74	H	0.986242	-0.157146	-0.388143
H75	H	0.929249	-0.078111	-0.332980
H76	H	1.045591	-0.090872	-0.332856
H77	H	0.927437	-0.186377	-0.233128
H78	H	1.043780	-0.199056	-0.233104
H79	H	0.984520	-0.248648	-0.150734
H80	H	0.403100	0.094234	-0.150740
O81	O	0.984282	-0.254466	0.163877
C82	C	0.910794	-0.328737	0.260368
C83	C	0.911540	-0.288646	0.168952
H84	H	0.851979	-0.356370	0.264509
H85	H	0.968326	-0.369275	0.264546
H86	H	0.911503	-0.290198	0.319761
H87	H	0.910803	-0.327131	0.109506
H88	H	0.854013	-0.248097	0.164854
H89	H	0.560411	0.096544	-0.150748
O90	O	1.093486	0.001840	0.594814
C91	C	1.143794	-0.040202	0.742678
C92	C	1.081439	0.012007	0.689838
H93	H	1.134087	-0.031991	0.819513
H94	H	1.133169	-0.096144	0.723882
H95	H	1.210338	-0.031089	0.723746
H96	H	1.014871	0.002958	0.708741
H97	H	1.092136	0.067931	0.708637
H98	H	0.986804	-0.116560	0.150887
O99	O	0.979107	-0.554938	-0.163896
C100	C	0.979027	-0.562611	-0.328787
C101	C	0.978342	-0.602644	-0.237321
H102	H	0.978426	-0.601166	-0.388175
H103	H	0.921443	-0.522129	-0.333007
H104	H	1.037785	-0.534900	-0.332887
H105	H	0.919623	-0.630398	-0.233159
H106	H	1.035965	-0.643086	-0.233140
H107	H	0.976714	-0.692676	-0.150763
O108	O	0.979162	-0.554982	0.163995
C109	C	0.978977	-0.562681	0.328884
C110	C	0.978250	-0.602689	0.237414
H111	H	0.978222	-0.601233	0.388268
H112	H	1.037761	-0.535011	0.333106
H113	H	0.921420	-0.522166	0.332991
H114	H	1.035766	-0.643238	0.233246
H115	H	0.919428	-0.630311	0.233231
O116	O	1.093590	0.001744	0.405603
C117	C	1.206112	-0.092383	0.415747
C118	C	1.143729	-0.040138	0.468484
H119	H	1.246677	-0.126248	0.466563
H120	H	1.170387	-0.127322	0.370846
H121	H	1.247494	-0.062216	0.370779
H122	H	1.102331	-0.070248	0.513503
H123	H	1.179505	-0.005200	0.513327
H124	H	0.976692	-0.692713	0.150844
