data_functionalizedCrystal
_audit_creation_method	'MofGen! by Chris Wilmer'
_symmetry_space_group_name_H-M	'P1'
_symmetry_Int_Tables_number	1
_symmetry_cell_setting	triclinic
loop_
_symmetry_equiv_pos_as_xyz
  x,y,z
_cell_length_a	13.897449
_cell_length_b	16.120531
_cell_length_c	13.897441
_cell_angle_alpha	87.136997
_cell_angle_beta	89.978743
_cell_angle_gamma	87.066788
loop_
_atom_site_label
_atom_site_type_symbol
_atom_site_fract_x
_atom_site_fract_y
_atom_site_fract_z
Zn1	Zn	1.455115	0.331870	-0.564869
Zn2	Zn	1.955115	0.831870	-0.064869
Zn3	Zn	1.446794	0.471299	-0.411729
Zn4	Zn	1.946794	0.971299	0.088271
Zn5	Zn	1.293808	0.331906	-0.403582
Zn6	Zn	1.793808	0.831906	0.096418
Zn7	Zn	1.285568	0.471246	-0.572971
Zn8	Zn	1.785568	0.971246	-0.072971
O9	O	1.370321	0.401580	-0.488288
O10	O	1.870321	0.901580	0.011712
O11	O	1.588992	0.350373	-0.544573
O12	O	2.088992	0.850373	-0.044573
O13	O	1.426466	0.452846	-0.275669
O14	O	1.926466	0.952846	0.224331
O15	O	1.322136	0.215236	-0.418177
O16	O	1.822136	0.715236	0.081823
O17	O	1.582879	0.452811	-0.432062
O18	O	2.082879	0.952811	0.067938
O19	O	1.440648	0.215209	-0.536674
O20	O	1.940648	0.715209	-0.036674
O21	O	1.314068	0.350435	-0.269683
O22	O	1.814068	0.850435	0.230317
O23	O	1.157733	0.350383	-0.426033
O24	O	1.657733	0.850383	0.073967
O25	O	1.308092	0.452720	-0.706876
O26	O	1.808092	0.952720	-0.206876
O27	O	1.151680	0.452755	-0.550482
O28	O	1.651680	0.952755	-0.050482
O29	O	1.432658	0.350321	-0.700923
O30	O	1.932658	0.850321	-0.200923
O31	O	1.418476	0.587958	-0.439918
O32	O	1.918476	1.087958	0.060082
O33	O	1.300024	0.587919	-0.558382
O34	O	1.800024	1.087919	-0.058382
C35	C	1.119707	0.401568	-0.488253
C36	C	1.619707	0.901568	0.011747
C37	C	1.012493	0.401582	-0.488263
C38	C	1.512493	0.901582	0.011737
C39	C	0.925423	0.401585	-0.488279
C40	C	1.425423	0.901585	0.011721
C41	C	0.816190	0.401591	-0.488308
C42	C	1.316190	0.901591	0.011692
C43	C	1.357479	0.618188	-0.500934
C44	C	1.857479	1.118188	-0.000934
C45	C	1.352073	0.710854	-0.506377
C46	C	1.852073	1.210854	-0.006377
C47	C	1.342210	0.880516	-0.516333
C48	C	1.842210	1.380516	-0.016333
C49	C	1.398468	0.921805	-0.460187
C50	C	1.898468	1.421805	0.039813
C51	C	1.392980	1.016210	-0.465727
C52	C	1.892980	1.516210	0.034273
C53	C	1.347697	0.786102	-0.510795
C54	C	1.847697	1.286102	-0.010795
C55	C	1.621913	0.401594	-0.488323
C56	C	2.121913	0.901594	0.011677
C57	C	1.729127	0.401600	-0.488338
C58	C	2.229127	0.901600	0.011662
C59	C	1.383205	1.184127	-0.475595
C60	C	1.883205	1.684127	0.024405
C61	C	1.388608	1.091461	-0.470141
C62	C	1.888608	1.591461	0.029859
C63	C	1.370384	0.401510	-0.739877
C64	C	1.870384	0.901510	-0.239877
C65	C	1.370411	0.401481	-0.847089
C66	C	1.870411	0.901481	-0.347089
C67	C	1.370432	0.401457	-0.934157
C68	C	1.870432	0.901457	-0.434157
C69	C	1.370462	0.401419	-1.043388
C70	C	1.870462	0.901419	-0.543388
C71	C	1.370317	0.401590	-0.237674
C72	C	1.870317	0.901590	0.262326
C73	C	1.370491	0.401385	-0.130448
C74	C	1.870491	0.901385	0.369552
H75	H	1.450754	0.886252	-0.407958
H76	H	1.950754	1.386252	0.092042
Br77	Br	1.255066	0.939768	-0.603380
Br78	Br	1.755066	1.439768	-0.103380
