data_functionalizedCrystal
_audit_creation_method	'MofGen! by Chris Wilmer'
_symmetry_space_group_name_H-M	'P1'
_symmetry_Int_Tables_number	1
_symmetry_cell_setting	triclinic
loop_
_symmetry_equiv_pos_as_xyz
  x,y,z
_cell_length_a	17.699083
_cell_length_b	9.130307
_cell_length_c	17.699083
_cell_angle_alpha	89.995823
_cell_angle_beta	96.716985
_cell_angle_gamma	89.995487
loop_
_atom_site_label
_atom_site_type_symbol
_atom_site_fract_x
_atom_site_fract_y
_atom_site_fract_z
O1	O	1.004073	0.121597	-0.095710
O2	O	1.504073	0.621597	0.404290
O3	O	0.783694	0.121645	-0.108162
O4	O	1.283694	0.621645	0.391838
O5	O	0.900110	0.121607	0.008253
O6	O	1.400110	0.621607	0.508253
O7	O	0.887657	0.121635	-0.212125
O8	O	1.387657	0.621635	0.287875
O9	O	0.900106	-0.121992	0.008254
O10	O	1.400106	0.378008	0.508254
O11	O	0.783691	-0.121954	-0.108161
O12	O	1.283691	0.378046	0.391839
O13	O	1.004069	-0.122002	-0.095709
O14	O	1.504069	0.377998	0.404291
Cu15	Cu	0.893879	-0.144220	-0.101935
Cu16	Cu	1.393879	0.355780	0.398065
Cu17	Cu	0.893884	0.143864	-0.101936
Cu18	Cu	1.393884	0.643864	0.398064
O19	O	0.887653	-0.121964	-0.212124
O20	O	1.387653	0.378036	0.287876
C21	C	0.755495	-0.000148	-0.107716
C22	C	1.255495	0.499852	0.392284
C23	C	0.671477	-0.000130	-0.106377
C24	C	1.171477	0.499870	0.393623
N25	N	0.893882	-0.346843	-0.101934
N26	N	1.393882	0.153157	0.398066
C27	C	0.622856	-0.000122	-0.174710
C28	C	1.122856	0.499878	0.325290
C29	C	0.543913	-0.000141	-0.173448
C30	C	1.043913	0.499859	0.326552
C31	C	0.513592	-0.000158	-0.103852
C32	C	1.013592	0.499842	0.396148
C33	C	0.562219	-0.000171	-0.035513
C34	C	1.062219	0.499829	0.464487
C35	C	0.641161	-0.000162	-0.036776
C36	C	1.141161	0.499838	0.463224
C37	C	0.243856	-0.000207	-0.030418
C38	C	0.743856	0.499793	0.469582
C39	C	0.164908	-0.000212	-0.029160
C40	C	0.664908	0.499788	0.470840
C41	C	0.146608	-0.000186	-0.167090
C42	C	0.646608	0.499814	0.332910
C43	C	0.225550	-0.000178	-0.168353
C44	C	0.725550	0.499822	0.331647
C45	C	0.274170	-0.000198	-0.100015
C46	C	0.774170	0.499802	0.399985
C47	C	0.359769	-0.000180	-0.101384
C48	C	0.859769	0.499820	0.398616
C49	C	0.427995	-0.000165	-0.102481
C50	C	0.927995	0.499835	0.397519
C51	C	0.997009	-0.346867	0.001123
C52	C	1.497009	0.153133	0.501123
C53	C	1.048578	-0.423546	0.052649
C54	C	1.548578	0.076454	0.552649
C55	C	1.048586	-0.576879	0.052649
C56	C	1.548586	-0.076879	0.552649
C57	C	0.997017	-0.653538	0.001120
C58	C	1.497017	-0.153538	0.501120
C59	C	0.945449	-0.576859	-0.050406
C60	C	1.445449	-0.076859	0.449594
C61	C	0.945448	-0.423522	-0.050403
C62	C	1.445448	0.076478	0.449597
C63	C	0.842319	-0.576835	-0.153458
C64	C	1.342319	-0.076835	0.346542
C65	C	0.842313	-0.423501	-0.153463
C66	C	1.342313	0.076499	0.346537
C67	C	0.790750	-0.653493	-0.204987
C68	C	1.290750	-0.153493	0.295013
C69	C	0.739184	-0.576814	-0.256518
C70	C	1.239184	-0.076814	0.243482
C71	C	0.739179	-0.423471	-0.256517
C72	C	1.239179	0.076529	0.243483
C73	C	0.790745	-0.346823	-0.204989
C74	C	1.290745	0.153177	0.295011
C75	C	1.032268	-0.000205	-0.096156
C76	C	1.532268	0.499795	0.403844
C77	C	1.116286	-0.000214	-0.097494
C78	C	1.616286	0.499786	0.402506
C79	C	0.899662	-0.000193	0.036451
C80	C	1.399662	0.499807	0.536451
C81	C	0.898323	-0.000193	0.120469
C82	C	1.398323	0.499807	0.620469
N83	N	0.893887	0.346486	-0.101932
N84	N	1.393887	0.846486	0.398068
C85	C	0.888102	-0.000161	-0.240322
C86	C	1.388102	0.499839	0.259678
C87	C	0.889440	-0.000151	-0.324340
C88	C	1.389440	0.499849	0.175660
C89	C	0.966656	-0.000210	0.169090
C90	C	1.466656	0.499790	0.669090
C91	C	0.965394	-0.000197	0.248033
C92	C	1.465394	0.499803	0.748033
C93	C	0.895798	-0.000177	0.278354
C94	C	1.395798	0.499823	0.778354
C95	C	0.827459	-0.000156	0.229727
C96	C	1.327459	0.499844	0.729727
C97	C	0.828722	-0.000158	0.150785
C98	C	1.328722	0.499842	0.650785
C99	C	0.822364	-0.000143	0.548090
C100	C	1.322364	0.499857	1.048090
C101	C	0.821106	-0.000144	0.627038
C102	C	1.321106	0.499856	1.127038
C103	C	0.959036	-0.000181	0.645338
C104	C	1.459036	0.499819	1.145338
C105	C	0.960299	-0.000184	0.566396
C106	C	1.460299	0.499816	1.066396
C107	C	0.891961	-0.000155	0.517776
C108	C	1.391961	0.499845	1.017776
C109	C	0.893330	-0.000166	0.432177
C110	C	1.393330	0.499834	0.932177
C111	C	0.894427	-0.000176	0.363951
C112	C	1.394427	0.499824	0.863951
H113	H	0.504328	-0.000132	-0.229092
H114	H	1.004328	0.499868	0.270908
O115	O	0.258256	-0.000181	-0.243417
O116	O	0.758256	0.499819	0.256583
H117	H	0.211183	-0.000199	-0.290723
H118	H	0.711183	0.499801	0.209277
H119	H	1.021038	-0.000214	0.287618
H120	H	1.521038	0.499786	0.787618
H121	H	1.090575	-0.639312	0.094609
H122	H	1.590575	-0.139312	0.594609
O123	O	1.035363	-0.000184	0.533690
O124	O	1.535363	0.499816	1.033690
H125	H	1.082669	-0.000174	0.580763
H126	H	1.582669	0.499826	1.080763
O127	O	0.529517	-0.000191	0.039552
O128	O	1.029517	0.499809	0.539552
H129	H	0.549058	-0.099491	0.072375
H130	H	1.049058	0.400509	0.572375
H131	H	0.140225	-0.000228	0.027517
H132	H	0.640225	0.499772	0.527517
H133	H	0.697183	-0.361048	-0.298473
H134	H	1.197183	0.138952	0.201527
O135	O	1.032749	-0.000200	0.697777
O136	O	1.532749	0.499800	1.197777
H137	H	1.020183	-0.000180	0.757765
H138	H	1.520183	0.499820	1.257765
H139	H	0.997015	-0.222015	0.001121
H140	H	1.497015	0.277985	0.501121
O141	O	0.997022	-0.818919	0.001117
O142	O	1.497022	-0.318919	0.501117
H143	H	1.041545	-0.859360	0.045601
H144	H	1.541545	-0.359360	0.545601
H145	H	0.773078	-0.000144	0.111198
H146	H	1.273078	0.499856	0.611198
H147	H	0.107012	-0.000177	-0.222734
H148	H	0.607012	0.499823	0.277266
O149	O	1.041723	-0.000235	0.136389
O150	O	1.541723	0.499765	0.636389
H151	H	1.045594	0.099045	0.100852
H152	H	1.545594	0.599045	0.600852
H153	H	0.283434	-0.000225	0.025228
H154	H	0.783434	0.499775	0.525228
O155	O	0.790732	-0.181441	-0.204985
O156	O	1.290732	0.318559	0.295015
H157	H	0.835247	-0.141025	-0.160493
H158	H	1.335247	0.358975	0.339507
H159	H	0.764429	-0.000131	0.651721
H160	H	1.264429	0.499869	1.151721
H161	H	0.766718	-0.000119	0.508512
H162	H	1.266718	0.499881	1.008512
H163	H	0.680748	-0.000168	0.018868
H164	H	1.180748	0.499832	0.518868
O165	O	1.104177	-0.340871	0.108247
O166	O	1.604177	0.159129	0.608247
H167	H	1.095508	-0.221365	0.099597
H168	H	1.595508	0.278635	0.599597
H169	H	0.770792	-0.000130	0.254420
H170	H	1.270792	0.499870	0.754420
H171	H	0.647537	-0.000107	-0.231384
H172	H	1.147537	0.499893	0.268616
H173	H	0.790756	-0.778345	-0.204981
H174	H	1.290756	-0.278345	0.295019
O175	O	0.683571	-0.659487	-0.312095
O176	O	1.183571	-0.159487	0.187905
H177	H	0.692240	-0.778991	-0.303438
H178	H	1.192240	-0.278991	0.196562
