data_functionalizedCrystal
_audit_creation_method	'MofGen! by Chris Wilmer'
_symmetry_space_group_name_H-M	'P1'
_symmetry_Int_Tables_number	1
_symmetry_cell_setting	triclinic
loop_
_symmetry_equiv_pos_as_xyz
  x,y,z
_cell_length_a	17.640280
_cell_length_b	12.759395
_cell_length_c	12.759387
_cell_angle_alpha	90.022274
_cell_angle_beta	78.768503
_cell_angle_gamma	101.199026
loop_
_atom_site_label
_atom_site_type_symbol
_atom_site_fract_x
_atom_site_fract_y
_atom_site_fract_z
Zn1	Zn	-0.314616	-1.690825	-0.509592
Zn2	Zn	-0.446810	-1.726245	-0.298423
Zn3	Zn	-0.314656	-1.515135	-0.333913
Zn4	Zn	-0.446752	-1.550629	-0.474073
O5	O	-0.380709	-1.620709	-0.404000
O6	O	-0.332159	-1.842547	-0.481593
O7	O	-0.429322	-1.698209	-0.156099
O8	O	-0.204044	-1.508762	-0.386934
O9	O	-0.429282	-1.868570	-0.326448
O10	O	-0.204014	-1.637842	-0.516005
O11	O	-0.332228	-1.543107	-0.182173
O12	O	-0.332172	-1.372820	-0.352493
O13	O	-0.429182	-1.569258	-0.625817
O14	O	-0.429222	-1.398898	-0.455468
O15	O	-0.332102	-1.672259	-0.651913
O16	O	-0.557409	-1.732627	-0.292006
O17	O	-0.557366	-1.603603	-0.421055
C18	C	-0.380696	-1.347738	-0.403977
C19	C	-0.380709	-1.230964	-0.403987
C20	C	-0.586067	-1.675839	-0.348848
C21	C	-0.673920	-1.699520	-0.325289
C22	C	-0.481931	-1.258202	-0.510954
C23	C	-0.532547	-1.216961	-0.564437
C24	C	-0.532555	-1.107242	-0.564444
C25	C	-0.481940	-1.038759	-0.510965
C26	C	-0.431324	-1.079999	-0.457482
C27	C	-0.431323	-1.189723	-0.457478
C28	C	-0.330099	-1.052761	-0.350523
C29	C	-0.330094	-1.162481	-0.350508
C30	C	-0.279484	-0.984278	-0.297044
C31	C	-0.228870	-1.025519	-0.243554
C32	C	-0.228865	-1.135246	-0.243548
C33	C	-0.279477	-1.203722	-0.297025
C34	C	-0.962883	-1.441238	-0.583359
C35	C	-1.045435	-1.463492	-0.561188
C36	C	-1.045414	-1.597928	-0.426945
C37	C	-0.962861	-1.575689	-0.449109
C38	C	-0.921602	-1.497342	-0.527316
C39	C	-0.921580	-1.631793	-0.393065
C40	C	-0.839034	-1.609551	-0.415223
C41	C	-0.797769	-1.531206	-0.493425
C42	C	-0.839056	-1.475100	-0.549474
C43	C	-0.962840	-1.710134	-0.314853
C44	C	-0.921559	-1.766238	-0.258810
C45	C	-0.839012	-1.744003	-0.280973
C46	C	-0.797747	-1.665657	-0.359174
C47	C	-0.797725	-1.800108	-0.224924
C48	C	-0.715179	-1.777867	-0.247082
C49	C	-0.715201	-1.643415	-0.381332
C50	C	-0.174549	-1.565392	-0.459391
C51	C	-0.086695	-1.541819	-0.482995
C52	C	-0.380631	-1.620767	-0.678055
C53	C	-0.380598	-1.620792	-0.794840
C54	C	-0.380719	-0.894745	-0.404017
C55	C	-0.380715	-1.011520	-0.404006
C56	C	-0.279515	-1.728058	-0.822032
C57	C	-0.228962	-1.781703	-0.890492
C58	C	-0.228933	-1.781721	-1.000221
C59	C	-0.279461	-1.728086	-1.041492
C60	C	-0.330015	-1.674441	-0.973033
C61	C	-0.330040	-1.674432	-0.863302
C62	C	-0.431092	-1.567169	-0.945842
C63	C	-0.431126	-1.567157	-0.836111
C64	C	-0.481621	-1.513534	-0.987113
C65	C	-0.532179	-1.459895	-0.918652
C66	C	-0.532206	-1.459880	-0.808916
C67	C	-0.481680	-1.513512	-0.767651
C68	C	-0.380729	-1.620695	-0.131027
C69	C	-0.380539	-1.620814	-0.014302
H70	H	-0.481935	-1.347544	-0.510944
F71	F	-0.795141	-1.391723	-0.632720
F72	F	-0.481588	-1.513553	-1.103898
F73	F	-1.050694	-1.733833	-0.291302
H74	H	-0.929289	-1.377447	-0.647051
F75	F	-0.585944	-1.402812	-0.962583
F76	F	-1.089367	-1.403762	-0.620834
H77	H	-0.279427	-1.728094	-1.130843
H78	H	-0.573365	-1.416182	-0.753183
H79	H	-1.079018	-1.661715	-0.363266
H80	H	-0.573756	-1.272732	-0.607980
F81	F	-0.965478	-1.849620	-0.175581
F82	F	-0.586422	-1.063348	-0.621373
F83	F	-0.481708	-1.513507	-0.650868
F84	F	-0.279489	-0.867504	-0.297061
F85	F	-0.481942	-0.921983	-0.510991
H86	H	-0.831330	-1.863891	-0.161241
H87	H	-0.187641	-1.168815	-0.200004
F88	F	-0.175003	-0.952630	-0.186652
H89	H	-0.279480	-1.293064	-0.297022
F90	F	-0.671286	-1.560038	-0.464579
F91	F	-0.709916	-1.507723	-0.517197
H92	H	-0.681567	-1.823552	-0.201444
F93	F	-0.279551	-1.728059	-0.705246
H94	H	-0.187763	-1.825395	-1.055964
F95	F	-0.175174	-1.838759	-0.846565
