data_functionalizedCrystal
_audit_creation_method	'MofGen! by Chris Wilmer'
_symmetry_space_group_name_H-M	'P1'
_symmetry_Int_Tables_number	1
_symmetry_cell_setting	triclinic
loop_
_symmetry_equiv_pos_as_xyz
  x,y,z
_cell_length_a	16.120566
_cell_length_b	21.395363
_cell_length_c	21.395063
_cell_angle_alpha	89.654501
_cell_angle_beta	92.984036
_cell_angle_gamma	92.901067
loop_
_atom_site_label
_atom_site_type_symbol
_atom_site_fract_x
_atom_site_fract_y
_atom_site_fract_z
Zn1	Zn	-1.275140	-0.295768	-0.402935
Zn2	Zn	-0.941807	0.037566	-0.069602
Zn3	Zn	-0.608473	0.370899	0.263732
Zn4	Zn	-1.274976	-0.401146	-0.298174
Zn5	Zn	-0.941642	-0.067812	0.035159
Zn6	Zn	-0.608309	0.265521	0.368492
Zn7	Zn	-1.135599	-0.291099	-0.292850
Zn8	Zn	-0.802265	0.042234	0.040483
Zn9	Zn	-0.468932	0.375568	0.373817
Zn10	Zn	-1.135731	-0.395223	-0.397611
Zn11	Zn	-0.802398	-0.061890	-0.064278
Zn12	Zn	-0.469064	0.271443	0.269056
O13	O	-1.205361	-0.345809	-0.347893
O14	O	-0.872028	-0.012476	-0.014559
O15	O	-0.538695	0.320858	0.318774
O16	O	-1.391791	-0.314178	-0.393495
O17	O	-1.058458	0.019155	-0.060161
O18	O	-0.725124	0.352488	0.273172
O19	O	-1.256363	-0.387072	-0.209783
O20	O	-0.923029	-0.053739	0.123551
O21	O	-0.589696	0.279594	0.456884
O22	O	-1.154122	-0.204041	-0.307453
O23	O	-0.820789	0.129292	0.025881
O24	O	-0.487456	0.462626	0.359214
O25	O	-1.391670	-0.391599	-0.316527
O26	O	-1.058337	-0.058266	0.016806
O27	O	-0.725004	0.275067	0.350139
O28	O	-1.256643	-0.207471	-0.388332
O29	O	-0.923309	0.125862	-0.054998
O30	O	-0.589976	0.459196	0.278335
O31	O	-1.153963	-0.306222	-0.205871
O32	O	-0.820630	0.027112	0.127463
O33	O	-0.487296	0.360445	0.460796
O34	O	-1.018943	-0.300479	-0.302290
O35	O	-0.685610	0.032854	0.031043
O36	O	-0.352277	0.366188	0.364376
O37	O	-1.154348	-0.381505	-0.486003
O38	O	-0.821015	-0.048172	-0.152669
O39	O	-0.487682	0.285161	0.180664
O40	O	-1.019041	-0.376979	-0.379258
O41	O	-0.685707	-0.043645	-0.045925
O42	O	-0.352374	0.289688	0.287409
O43	O	-1.256771	-0.308436	-0.489914
O44	O	-0.923438	0.024898	-0.156581
O45	O	-0.590105	0.358231	0.176753
O46	O	-1.256491	-0.488037	-0.311365
O47	O	-0.923158	-0.154704	0.021968
O48	O	-0.589825	0.178629	0.355302
O49	O	-1.154189	-0.483686	-0.384421
O50	O	-0.820856	-0.150353	-0.051087
O51	O	-0.487522	0.182980	0.282246
C52	C	-0.988740	-0.337580	-0.339619
C53	C	-0.655407	-0.004247	-0.006286
C54	C	-0.322073	0.329087	0.327048
C55	C	-0.896068	-0.334075	-0.336094
C56	C	-0.562735	-0.000741	-0.002761
C57	C	-0.229402	0.332592	0.330572
C58	C	-0.726396	-0.327660	-0.329665
C59	C	-0.393063	0.005673	0.003668
C60	C	-0.059730	0.339006	0.337002
C61	C	-0.685167	-0.364011	-0.366125
C62	C	-0.351833	-0.030678	-0.032792
C63	C	-0.018500	0.302655	0.300541
C64	C	-0.590755	-0.360442	-0.362548
C65	C	-0.257422	-0.027109	-0.029214
C66	C	0.075911	0.306224	0.304119
C67	C	-0.820816	-0.331229	-0.333242
C68	C	-0.487483	0.002105	0.000092
C69	C	-0.154150	0.335438	0.333425
C70	C	-1.205359	-0.508596	-0.347908
C71	C	-0.872026	-0.175263	-0.014574
C72	C	-0.538693	0.158070	0.318759
C73	C	-1.205435	-0.578240	-0.347938
C74	C	-0.872101	-0.244907	-0.014604
C75	C	-0.538768	0.088426	0.318729
C76	C	-0.422829	-0.354072	-0.356189
C77	C	-0.089495	-0.020739	-0.022855
C78	C	0.243838	0.312594	0.310478
C79	C	-0.515500	-0.357599	-0.359698
C80	C	-0.182167	-0.024265	-0.026364
C81	C	0.151167	0.309068	0.306969
C82	C	-1.205593	-0.344831	-0.511330
C83	C	-0.872260	-0.011497	-0.177997
C84	C	-0.538926	0.321836	0.155337
C85	C	-1.205692	-0.344414	-0.580977
C86	C	-0.872358	-0.011081	-0.247644
C87	C	-0.539025	0.322253	0.085689
C88	C	-1.205386	-0.182387	-0.347892
C89	C	-0.872053	0.150947	-0.014559
C90	C	-0.538719	0.484280	0.318775
C91	C	-1.205397	-0.112746	-0.347892
C92	C	-0.872063	0.220588	-0.014559
C93	C	-0.538730	0.553921	0.318775
C94	C	-1.152029	-0.078246	-0.305784
C95	C	-0.818696	0.255087	0.027549
C96	C	-0.485363	0.588420	0.360883
C97	C	-1.152028	-0.012811	-0.305791
C98	C	-0.818695	0.320523	0.027542
C99	C	-0.485362	0.653856	0.360875
C100	C	-1.205410	0.018122	-0.347901
C101	C	-0.872076	0.351456	-0.014567
C102	C	-0.538743	0.684789	0.318766
C103	C	-1.258781	-0.016385	-0.390017
C104	C	-0.925447	0.316948	-0.056683
C105	C	-0.592114	0.650281	0.276650
C106	C	-1.258774	-0.081819	-0.390012
C107	C	-0.925441	0.251514	-0.056679
C108	C	-0.592107	0.584847	0.276654
C109	C	-1.280544	0.118967	-0.355722
C110	C	-0.947211	0.452300	-0.022389
C111	C	-0.613878	0.785634	0.310944
C112	C	-1.280552	0.184400	-0.355722
C113	C	-0.947219	0.517733	-0.022389
C114	C	-0.613885	0.851066	0.310944
C115	C	-1.205429	0.219942	-0.347918
C116	C	-0.872096	0.553276	-0.014585
C117	C	-0.538762	0.886609	0.318749
C118	C	-1.130296	0.190044	-0.340100
C119	C	-0.796963	0.523378	-0.006767
C120	C	-0.463629	0.856711	0.326567
C121	C	-1.130289	0.124610	-0.340096
C122	C	-0.796956	0.457944	-0.006762
C123	C	-0.463623	0.791277	0.326571
C124	C	-1.205422	0.089074	-0.347910
C125	C	-0.872089	0.422407	-0.014577
C126	C	-0.538756	0.755741	0.318756
C127	C	-1.152056	0.325395	-0.305816
C128	C	-0.818723	0.658728	0.027518
C129	C	-0.485390	0.992061	0.360851
C130	C	-1.152054	0.390831	-0.305827
C131	C	-0.818721	0.724165	0.027506
C132	C	-0.485387	1.057498	0.360839
C133	C	-1.258814	0.387255	-0.390050
C134	C	-0.925480	0.720589	-0.056716
C135	C	-0.592147	1.053922	0.276617
C136	C	-1.258808	0.321820	-0.390041
C137	C	-0.925475	0.655153	-0.056708
C138	C	-0.592142	0.988487	0.276626
C139	C	-1.205431	0.290894	-0.347921
C140	C	-0.872098	0.624227	-0.014587
C141	C	-0.538764	0.957560	0.318746
C142	C	-1.205179	-0.346740	-0.185093
C143	C	-0.871845	-0.013406	0.148241
C144	C	-0.538512	0.319927	0.481574
C145	C	-1.205241	-0.346986	-0.115452
C146	C	-0.871908	-0.013653	0.217881
C147	C	-0.538575	0.319680	0.551215
C148	C	-1.258198	-0.308477	-0.085269
C149	C	-0.924865	0.024856	0.248064
C150	C	-0.591531	0.358189	0.581398
C151	C	-1.258259	-0.308165	-0.019838
C152	C	-0.924925	0.025169	0.313496
C153	C	-0.591592	0.358502	0.646829
C154	C	-1.205348	-0.346354	0.015409
C155	C	-0.872015	-0.013020	0.348742
C156	C	-0.538681	0.320313	0.682075
C157	C	-1.152388	-0.384870	-0.014782
C158	C	-0.819054	-0.051537	0.318551
C159	C	-0.485721	0.281796	0.651885
C160	C	-1.152334	-0.385187	-0.080212
C161	C	-0.819001	-0.051853	0.253121
C162	C	-0.485668	0.281480	0.586454
C163	C	-1.130364	-0.348357	0.122090
C164	C	-0.797031	-0.015024	0.455423
C165	C	-0.463697	0.318309	0.788757
C166	C	-1.130416	-0.348037	0.187519
C167	C	-0.797083	-0.014703	0.520852
C168	C	-0.463749	0.318630	0.854186
C169	C	-1.205513	-0.345382	0.217218
C170	C	-0.872179	-0.012049	0.550551
C171	C	-0.538846	0.321285	0.883884
C172	C	-1.280560	-0.343035	0.181479
C173	C	-0.947227	-0.009702	0.514812
C174	C	-0.613893	0.323632	0.848145
C175	C	-1.280507	-0.343351	0.116048
C176	C	-0.947173	-0.010018	0.449382
C177	C	-0.613840	0.323316	0.782715
C178	C	-1.205400	-0.346015	0.086357
C179	C	-0.872067	-0.012682	0.419690
C180	C	-0.538734	0.320651	0.753024
C181	C	-1.258540	-0.306532	0.318348
C182	C	-0.925206	0.026801	0.651682
C183	C	-0.591873	0.360135	0.985015
C184	C	-1.258602	-0.306224	0.383781
C185	C	-0.925269	0.027110	0.717114
C186	C	-0.591935	0.360443	1.050447
C187	C	-1.152723	-0.382926	0.388836
C188	C	-0.819390	-0.049593	0.722169
C189	C	-0.486057	0.283741	1.055502
C190	C	-1.152669	-0.383238	0.323404
C191	C	-0.819335	-0.049904	0.656738
C192	C	-0.486002	0.283429	0.990071
C193	C	-1.205576	-0.345037	0.288164
C194	C	-0.872242	-0.011704	0.621498
C195	C	-0.538909	0.321629	0.954831
H196	H	-1.108564	-0.103422	-0.271487
H197	H	-0.775231	0.229911	0.061846
H198	H	-0.441897	0.563244	0.395180
H199	H	-0.720774	-0.397812	-0.400028
H200	H	-0.387441	-0.064479	-0.066694
H201	H	-0.054107	0.268855	0.266639
H202	H	-0.690791	-0.293862	-0.295766
H203	H	-0.357458	0.039471	0.037568
H204	H	-0.024125	0.372805	0.370901
H205	H	-1.302271	0.293730	-0.424327
H206	H	-0.968937	0.627063	-0.090993
H207	H	-0.635604	0.960396	0.242340
Br208	Br	-1.028329	0.084036	-0.329490
Br209	Br	-0.694995	0.417369	0.003843
Br210	Br	-0.361662	0.750702	0.337176
Br211	Br	-1.080926	-0.434765	0.436663
Br212	Br	-0.747593	-0.101431	0.769996
Br213	Br	-0.414260	0.231902	1.103329
H214	H	-1.108569	0.015284	-0.271501
H215	H	-0.775235	0.348617	0.061833
H216	H	-0.441902	0.681951	0.395166
Br217	Br	-1.028337	0.238272	-0.329498
Br218	Br	-0.695003	0.571606	0.003835
Br219	Br	-0.361670	0.904939	0.337168
Br220	Br	-1.079616	0.283419	-0.248655
Br221	Br	-0.746282	0.616753	0.084678
Br222	Br	-0.412949	0.950086	0.418011
H223	H	-1.341613	-0.341442	0.086952
H224	H	-1.008279	-0.008108	0.420286
H225	H	-0.674946	0.325225	0.753619
Br226	Br	-1.079607	0.437655	-0.248685
Br227	Br	-0.746274	0.770988	0.084649
Br228	Br	-0.412941	1.104321	0.417982
Br229	Br	-1.028567	-0.351213	0.236015
Br230	Br	-0.695234	-0.017879	0.569348
Br231	Br	-0.361901	0.315454	0.902682
H232	H	-1.302274	0.412440	-0.424338
H233	H	-0.968941	0.745774	-0.091005
H234	H	-0.635607	1.079107	0.242328
Br235	Br	-1.080795	-0.435503	0.282439
Br236	Br	-0.747462	-0.102170	0.615772
Br237	Br	-0.414128	0.231164	0.949105
H238	H	-1.341728	0.208740	-0.362084
H239	H	-1.008395	0.542073	-0.028751
H240	H	-0.675062	0.875406	0.304582
Br241	Br	-1.382506	0.070737	-0.366317
Br242	Br	-1.049173	0.404070	-0.032984
Br243	Br	-0.715839	0.737403	0.300350
H244	H	-1.302243	0.008804	-0.424304
H245	H	-0.968910	0.342137	-0.090971
H246	H	-0.635576	0.675470	0.242363
H247	H	-1.302232	-0.109909	-0.424304
H248	H	-0.968898	0.223425	-0.090971
H249	H	-0.635565	0.556758	0.242363
Br250	Br	-1.330036	-0.256662	-0.133093
Br251	Br	-0.996702	0.076671	0.200240
Br252	Br	-0.663369	0.410005	0.533574
H253	H	-1.301382	-0.276804	0.004742
H254	H	-0.968049	0.056530	0.338075
H255	H	-0.634716	0.389863	0.671409
Br256	Br	-1.080461	-0.437454	-0.121178
Br257	Br	-0.747127	-0.104121	0.212156
Br258	Br	-0.413794	0.229212	0.545489
H259	H	-1.341711	-0.340871	0.205657
H260	H	-1.008377	-0.007538	0.538991
H261	H	-0.675044	0.325796	0.872324
Br262	Br	-1.330321	-0.254675	0.270520
Br263	Br	-0.996988	0.078658	0.603853
Br264	Br	-0.663655	0.411991	0.937186
Br265	Br	-1.330486	-0.253963	0.424744
Br266	Br	-0.997153	0.079371	0.758078
Br267	Br	-0.663819	0.412704	1.091411
H268	H	-1.069207	-0.350520	0.097915
H269	H	-0.735874	-0.017186	0.431249
H270	H	-0.402540	0.316147	0.764582
H271	H	-1.109309	-0.415965	0.013920
H272	H	-0.775975	-0.082632	0.347253
H273	H	-0.442642	0.250701	0.680587
