data_functionalizedCrystal
_audit_creation_method	'MofGen! by Chris Wilmer'
_symmetry_space_group_name_H-M	'P1'
_symmetry_Int_Tables_number	1
_symmetry_cell_setting	triclinic
loop_
_symmetry_equiv_pos_as_xyz
  x,y,z
_cell_length_a	19.077236
_cell_length_b	19.076808
_cell_length_c	19.077569
_cell_angle_alpha	85.471664
_cell_angle_beta	85.479541
_cell_angle_gamma	94.519737
loop_
_atom_site_label
_atom_site_type_symbol
_atom_site_fract_x
_atom_site_fract_y
_atom_site_fract_z
Zn1	Zn	1.084563	-0.219365	-0.432786
Zn2	Zn	1.584563	0.280635	0.067214
Zn3	Zn	1.074593	-0.342413	-0.309739
Zn4	Zn	1.574593	0.157587	0.190261
Zn5	Zn	0.961527	-0.229260	-0.309753
Zn6	Zn	1.461527	0.270740	0.190247
Zn7	Zn	0.961488	-0.342366	-0.422847
Zn8	Zn	1.461488	0.157634	0.077153
O9	O	1.020543	-0.283351	-0.368781
O10	O	1.520543	0.216649	0.131219
O11	O	1.182066	-0.231566	-0.420618
O12	O	1.682066	0.268434	0.079382
O13	O	1.055438	-0.331563	-0.210915
O14	O	1.555438	0.168437	0.289085
O15	O	0.982037	-0.129115	-0.330239
O16	O	1.482037	0.370885	0.169761
O17	O	1.174741	-0.321969	-0.330215
O18	O	1.674741	0.178031	0.169785
O19	O	1.072431	-0.121846	-0.420631
O20	O	1.572431	0.378154	0.079369
O21	O	0.972369	-0.248430	-0.210925
O22	O	1.472369	0.251570	0.289075
O23	O	0.862696	-0.248385	-0.320601
O24	O	1.362696	0.251615	0.179399
O25	O	0.981970	-0.321889	-0.522992
O26	O	1.481970	0.178111	-0.022992
O27	O	0.862667	-0.331484	-0.403691
O28	O	1.362667	0.168516	0.096309
O29	O	1.072393	-0.231521	-0.530294
O30	O	1.572393	0.268479	-0.030294
O31	O	1.055400	-0.441238	-0.320578
O32	O	1.555400	0.058762	0.179422
O33	O	0.972302	-0.441204	-0.403678
O34	O	1.472302	0.058796	0.096322
C35	C	0.837057	-0.291003	-0.361069
C36	C	1.337057	0.208997	0.138931
C37	C	0.758562	-0.294294	-0.357786
C38	C	1.258562	0.205706	0.142214
C39	C	0.725498	-0.248840	-0.403378
C40	C	1.225498	0.251160	0.096622
C41	C	0.651743	-0.251928	-0.400287
C42	C	1.151743	0.248072	0.099713
C43	C	0.611052	-0.300474	-0.351608
C44	C	1.111052	0.199526	0.148392
C45	C	0.644120	-0.345929	-0.306012
C46	C	1.144120	0.154071	0.193988
C47	C	0.717874	-0.342837	-0.309099
C48	C	1.217874	0.157163	0.190901
C49	C	0.390062	-0.314759	-0.337315
C50	C	0.890062	0.185241	0.162685
C51	C	0.316303	-0.317849	-0.334232
C52	C	0.816303	0.182151	0.165768
C53	C	0.323931	-0.223846	-0.428507
C54	C	0.823931	0.276154	0.071493
C55	C	0.397686	-0.220761	-0.431593
C56	C	0.897686	0.279239	0.068407
C57	C	0.430748	-0.266214	-0.385995
C58	C	0.930748	0.233786	0.114005
N59	N	0.535662	-0.303633	-0.348449
N60	N	1.035662	0.196367	0.151551
N61	N	0.506136	-0.263051	-0.389151
N62	N	1.006136	0.236949	0.110849
C63	C	1.012785	-0.466846	-0.361064
C64	C	1.512785	0.033154	0.138936
C65	C	1.009532	-0.545342	-0.357789
C66	C	1.509532	-0.045342	0.142211
C67	C	1.055034	-0.578374	-0.403348
C68	C	1.555034	-0.078374	0.096652
C69	C	1.051975	-0.652130	-0.400271
C70	C	1.551975	-0.152130	0.099729
C71	C	1.003415	-0.692852	-0.351632
C72	C	1.503415	-0.192852	0.148368
C73	C	0.957908	-0.659815	-0.306071
C74	C	1.457908	-0.159815	0.193929
C75	C	0.960965	-0.586061	-0.309152
C76	C	1.460965	-0.086061	0.190848
C77	C	0.989227	-0.913846	-0.337373
C78	C	1.489227	-0.413846	0.162627
C79	C	0.986175	-0.987605	-0.334295
C80	C	1.486175	-0.487605	0.165705
C81	C	1.080242	-0.979915	-0.428496
C82	C	1.580242	-0.479915	0.071504
C83	C	1.083297	-0.906160	-0.431569
C84	C	1.583297	-0.406160	0.068431
C85	C	1.037787	-0.873129	-0.386011
C86	C	1.537787	-0.373129	0.113989
N87	N	1.000288	-0.768242	-0.348485
N88	N	1.500288	-0.268242	0.151515
N89	N	1.040911	-0.797740	-0.389162
N90	N	1.540911	-0.297740	0.110838
C91	C	1.204744	-0.275669	-0.376524
C92	C	1.704744	0.224331	0.123476
C93	C	1.283240	-0.272395	-0.379823
C94	C	1.783240	0.227605	0.120177
C95	C	1.028289	-0.275596	-0.552984
C96	C	1.528289	0.224404	-0.052984
C97	C	1.031590	-0.272292	-0.631480
C98	C	1.531590	0.227708	-0.131480
C99	C	1.028351	-0.099138	-0.376545
C100	C	1.528351	0.400862	0.123455
C101	C	1.031678	-0.020638	-0.379854
C102	C	1.531678	0.479362	0.120146
C103	C	0.986064	-0.317786	-0.664557
C104	C	1.486064	0.182214	-0.164557
C105	C	0.989172	-0.314680	-0.738313
C106	C	1.489172	0.185320	-0.238313
C107	C	1.037803	-0.266077	-0.778991
C108	C	1.537803	0.233923	-0.278991
C109	C	1.083334	-0.220581	-0.745909
C110	C	1.583334	0.279419	-0.245909
C111	C	1.080229	-0.223690	-0.672154
C112	C	1.580229	0.276310	-0.172154
C113	C	1.052140	-0.251736	-0.999981
C114	C	1.552140	0.248264	-0.499981
C115	C	1.055239	-0.248629	-1.073740
C116	C	1.555239	0.251371	-0.573740
C117	C	0.961078	-0.342729	-1.066140
C118	C	1.461078	0.157271	-0.566140
C119	C	0.957974	-0.345832	-0.992384
C120	C	1.457974	0.154168	-0.492384
C121	C	1.003508	-0.300338	-0.959309
C122	C	1.503508	0.199662	-0.459309
N123	N	1.040979	-0.262900	-0.854381
N124	N	1.540979	0.237100	-0.354381
N125	N	1.000335	-0.303519	-0.883919
N126	N	1.500335	0.196481	-0.383919
C127	C	1.012869	-0.291023	-0.185299
C128	C	1.512869	0.208977	0.314701
C129	C	1.009713	-0.294123	-0.106817
C130	C	1.509713	0.205877	0.393183
H131	H	0.610984	-0.385453	-0.266373
H132	H	1.110984	0.114547	0.233627
Br133	Br	1.120945	-0.523115	-0.469356
Br134	Br	1.620945	-0.023115	0.030644
H135	H	1.117292	-1.006817	-0.465588
H136	H	1.617292	-0.506817	0.034412
Br137	Br	0.762747	-0.404525	-0.247222
Br138	Br	1.262747	0.095475	0.252778
Br139	Br	1.149202	-0.850899	-0.497581
Br140	Br	1.649202	-0.350899	0.002419
Br141	Br	0.927391	-0.376434	-0.783201
Br142	Br	1.427391	0.123566	-0.283201
Br143	Br	0.920274	-1.042872	-0.268276
Br144	Br	1.420274	-0.542872	0.231724
H145	H	1.089217	-0.214692	-0.973060
H146	H	1.589217	0.285308	-0.473060
H147	H	1.117301	-0.186644	-0.645224
H148	H	1.617301	0.313356	-0.145224
H149	H	1.122933	-0.181010	-0.779034
H150	H	1.622933	0.318990	-0.279034
H151	H	0.758624	-0.209311	-0.443019
H152	H	1.258624	0.290689	0.056981
Br153	Br	0.606874	-0.190239	-0.462164
Br154	Br	1.106874	0.309761	0.037836
Br155	Br	0.920056	-0.383746	-0.609359
Br156	Br	1.420056	0.116254	-0.109359
H157	H	0.918385	-0.385420	-0.959269
H158	H	1.418385	0.114580	-0.459269
H159	H	0.430812	-0.181233	-0.471235
H160	H	0.930812	0.318767	0.028765
H161	H	0.924007	-0.379768	-1.093078
H162	H	1.424007	0.120232	-0.593078
Br163	Br	0.891996	-0.715080	-0.240069
Br164	Br	1.391996	-0.215080	0.259931
Br165	Br	0.279058	-0.162164	-0.490387
Br166	Br	0.779058	0.337836	0.009613
H167	H	0.283174	-0.357384	-0.294591
H168	H	0.783174	0.142616	0.205409
H169	H	1.089033	-0.679021	-0.437365
H170	H	1.589033	-0.179021	0.062635
H171	H	0.416972	-0.351770	-0.300186
H172	H	0.916972	0.148230	0.199814
Br173	Br	0.927455	-0.869028	-0.275552
Br174	Br	1.427455	-0.369028	0.224448
H175	H	1.094838	-0.209044	-1.106858
H176	H	1.594838	0.290956	-0.606858
H177	H	0.923911	-0.559167	-0.272054
H178	H	1.423911	-0.059167	0.227946
