data_functionalizedCrystal
_audit_creation_method	'MofGen! by Chris Wilmer'
_symmetry_space_group_name_H-M	'P1'
_symmetry_Int_Tables_number	1
_symmetry_cell_setting	triclinic
loop_
_symmetry_equiv_pos_as_xyz
  x,y,z
_cell_length_a	19.805407
_cell_length_b	12.827892
_cell_length_c	19.805399
_cell_angle_alpha	90.022529
_cell_angle_beta	90.017803
_cell_angle_gamma	90.012708
loop_
_atom_site_label
_atom_site_type_symbol
_atom_site_fract_x
_atom_site_fract_y
_atom_site_fract_z
Zn1	Zn	1.034787	-0.416132	0.382711
Zn2	Zn	1.034724	-0.590887	0.269533
Zn3	Zn	0.921602	-0.416153	0.269540
Zn4	Zn	0.921587	-0.590824	0.382683
O5	O	0.978175	-0.503499	0.326117
O6	O	1.129496	-0.439332	0.367707
O7	O	1.019698	-0.567744	0.174817
O8	O	0.936649	-0.269914	0.284566
O9	O	1.129449	-0.567724	0.284556
O10	O	1.019806	-0.269899	0.367713
O11	O	0.936588	-0.439367	0.174822
O12	O	0.826884	-0.439305	0.284539
O13	O	0.936624	-0.567615	0.477404
O14	O	0.826873	-0.567635	0.367666
O15	O	1.019792	-0.439270	0.477424
O16	O	1.019684	-0.737115	0.284528
O17	O	0.936563	-0.737068	0.367659
C18	C	0.802319	-0.503466	0.326100
C19	C	0.727087	-0.503477	0.326109
C20	C	0.691768	-0.436742	0.369472
C21	C	0.621080	-0.436747	0.369475
C22	C	0.585712	-0.503494	0.326118
C23	C	0.621036	-0.570233	0.282750
C24	C	0.691723	-0.570221	0.282744
C25	C	0.335963	-0.570280	0.282771
C26	C	0.265271	-0.570288	0.282781
C27	C	0.265319	-0.436806	0.369501
C28	C	0.336006	-0.436794	0.369496
C29	C	0.371324	-0.503528	0.326126
C30	C	0.447973	-0.503520	0.326123
C31	C	0.509065	-0.503509	0.326124
C32	C	0.978133	-0.775009	0.326105
C33	C	0.978177	-0.891162	0.326122
C34	C	1.019356	-0.942935	0.285032
C35	C	1.019403	-1.062986	0.285049
C36	C	1.154718	-0.503533	0.326134
C37	C	1.229950	-0.503547	0.326141
C38	C	0.978213	-0.503433	0.502660
C39	C	0.978229	-0.503405	0.577892
C40	C	0.978236	-0.230929	0.326144
C41	C	0.978262	-0.114776	0.326155
C42	C	0.978176	-0.503489	0.150261
C43	C	0.978291	-0.503223	0.075029
C44	C	1.021536	-0.436572	0.613248
C45	C	1.021543	-0.436542	0.683936
C46	C	0.978246	-0.503350	0.719267
C47	C	0.934935	-0.570186	0.683906
C48	C	0.934925	-0.570210	0.613219
C49	C	0.934973	-0.570089	0.968980
C50	C	0.934988	-0.570061	1.039672
C51	C	1.021591	-0.436420	1.039697
C52	C	1.021581	-0.436445	0.969010
C53	C	0.978268	-0.503276	0.933655
C54	C	0.978260	-0.503307	0.857006
C55	C	0.978257	-0.503326	0.795915
H56	H	0.364799	-0.382446	0.404804
C57	C	1.069183	-0.363031	0.722825
H58	H	1.094973	-0.323257	0.691659
H59	H	1.043309	-0.317480	0.750400
H60	H	1.098669	-0.403012	0.750400
H61	H	1.056795	-0.382172	0.584486
C62	C	1.069204	-0.362952	0.930149
H63	H	1.094993	-0.323136	0.961330
H64	H	1.098683	-0.402938	0.902572
H65	H	1.043311	-0.317423	0.902577
C66	C	0.887309	-0.643676	0.722766
H67	H	0.861511	-0.683476	0.691583
H68	H	0.913193	-0.689204	0.750340
H69	H	0.857828	-0.603680	0.750340
H70	H	0.236555	-0.382464	0.404813
C71	C	0.887305	-0.643752	0.574328
H72	H	0.861529	-0.683551	0.605492
H73	H	0.857815	-0.603802	0.546744
H74	H	0.913201	-0.689295	0.546760
C75	C	1.067029	-1.123125	0.237521
H76	H	1.060814	-1.195923	0.243770
H77	H	1.057154	-1.105341	0.192023
H78	H	1.112507	-1.105226	0.247458
C79	C	0.930631	-1.054648	0.373685
H80	H	0.904824	-1.102714	0.399473
H81	H	0.956514	-1.012006	0.403167
H82	H	0.901160	-1.012133	0.347732
C83	C	0.730667	-0.363319	0.417166
H84	H	0.699505	-0.323568	0.442987
H85	H	0.758251	-0.403346	0.446612
H86	H	0.758234	-0.317726	0.391318
H87	H	0.899715	-0.624522	0.940203
C88	C	1.069231	-0.362899	1.078589
H89	H	1.063033	-0.372442	1.125748
H90	H	1.114702	-0.378210	1.067010
H91	H	1.059337	-0.292684	1.067008
H92	H	0.236476	-0.624644	0.247472
H93	H	0.942958	-0.935714	0.361317
C94	C	0.582231	-0.363341	0.417176
H95	H	0.613419	-0.323597	0.443002
H96	H	0.554651	-0.317756	0.391338
H97	H	0.554664	-0.403387	0.446626
H98	H	0.592234	-0.624574	0.247444
C99	C	0.374804	-0.643687	0.235068
H100	H	0.343614	-0.683446	0.209253
H101	H	0.402369	-0.603649	0.205618
H102	H	0.402386	-0.689274	0.260908
C103	C	0.730574	-0.643638	0.235051
H104	H	0.699388	-0.683401	0.209235
H105	H	0.758143	-0.603604	0.205601
H106	H	0.758153	-0.689221	0.260897
H107	H	0.899728	-0.624467	1.068437
C108	C	1.066940	-0.882760	0.237490
H109	H	1.060664	-0.809967	0.243713
H110	H	1.112428	-0.900531	0.247428
H111	H	1.057074	-0.900650	0.191994
