data_functionalizedCrystal
_audit_creation_method	'MofGen! by Chris Wilmer'
_symmetry_space_group_name_H-M	'P1'
_symmetry_Int_Tables_number	1
_symmetry_cell_setting	triclinic
loop_
_symmetry_equiv_pos_as_xyz
  x,y,z
_cell_length_a	14.519709
_cell_length_b	10.654550
_cell_length_c	9.130313
_cell_angle_alpha	89.999724
_cell_angle_beta	89.998324
_cell_angle_gamma	95.917463
loop_
_atom_site_label
_atom_site_type_symbol
_atom_site_fract_x
_atom_site_fract_y
_atom_site_fract_z
O1	O	-0.129532	1.666594	-0.121668
O2	O	-0.141873	1.300997	-0.121693
O3	O	-0.001515	1.493489	-0.121693
O4	O	-0.269891	1.474102	-0.121668
O5	O	-0.001510	1.493476	0.121906
O6	O	-0.141869	1.300984	0.121906
O7	O	-0.129528	1.666581	0.121931
Cu8	Cu	-0.135698	1.483781	0.144161
Cu9	Cu	-0.135703	1.483797	-0.143923
O10	O	-0.269887	1.474089	0.121931
C11	C	-0.140965	1.254201	0.000103
C12	C	-0.138254	1.114784	0.000093
C13	C	-0.220895	1.034504	0.000105
C14	C	-0.218342	0.903507	0.000130
C15	C	-0.050500	0.933084	0.000125
C16	C	-0.053054	1.064078	0.000110
C17	C	-0.304253	1.474999	0.000135
C18	C	-0.406649	1.477706	0.000145
C19	C	-0.781596	1.487674	0.000088
C20	C	-0.677274	1.484906	0.000104
C21	C	-0.594126	1.482690	0.000118
C22	C	-0.489797	1.479922	0.000132
C23	C	0.032852	1.492579	0.000100
C24	C	0.135247	1.489871	0.000080
C25	C	-0.130436	1.713377	0.000132
C26	C	-0.133147	1.852794	0.000133
N27	N	-0.135694	1.483779	0.346784
N28	N	-0.135700	1.483808	-0.346545
C29	C	-0.073570	1.569043	0.423435
C30	C	-0.073570	1.569055	0.576772
C31	C	-0.197827	1.398535	0.576792
C32	C	-0.197822	1.398518	0.423458
H33	H	0.018867	0.891783	0.000148
F34	F	-0.306300	0.818072	0.000145
H35	H	0.014247	1.129446	0.000105
F36	F	-0.263947	1.307802	0.658404
H37	H	-0.022982	1.638483	0.639178
F38	F	-0.007446	1.659783	0.341839
H39	H	-0.290270	1.075783	0.000101
F40	F	-0.263943	1.307759	0.341873
