data_functionalizedCrystal
_audit_creation_method	'MofGen! by Chris Wilmer'
_symmetry_space_group_name_H-M	'P1'
_symmetry_Int_Tables_number	1
_symmetry_cell_setting	triclinic
loop_
_symmetry_equiv_pos_as_xyz
  x,y,z
_cell_length_a	17.699083
_cell_length_b	12.503552
_cell_length_c	17.699083
_cell_angle_alpha	93.511598
_cell_angle_beta	96.716985
_cell_angle_gamma	93.510006
loop_
_atom_site_label
_atom_site_type_symbol
_atom_site_fract_x
_atom_site_fract_y
_atom_site_fract_z
O1	O	1.008446	0.089172	-0.091335
O2	O	1.508446	0.589172	0.408665
O3	O	0.788069	0.089207	-0.103786
O4	O	1.288069	0.589207	0.396214
O5	O	0.904483	0.089179	0.012628
O6	O	1.404483	0.589179	0.512628
O7	O	0.892032	0.089200	-0.207749
O8	O	1.392032	0.589200	0.292251
O9	O	0.895718	-0.089461	0.003865
O10	O	1.395718	0.410539	0.503865
O11	O	0.779304	-0.089433	-0.112549
O12	O	1.279304	0.410567	0.387451
O13	O	0.999681	-0.089469	-0.100098
O14	O	1.499681	0.410531	0.399902
Cu15	Cu	0.888692	-0.105762	-0.107124
Cu16	Cu	1.388692	0.394238	0.392876
Cu17	Cu	0.899058	0.105501	-0.096761
Cu18	Cu	1.399058	0.605501	0.403239
O19	O	0.883267	-0.089440	-0.216512
O20	O	1.383267	0.410560	0.283488
C21	C	0.755490	-0.000109	-0.107721
C22	C	1.255490	0.499891	0.392279
C23	C	0.671473	-0.000095	-0.106382
C24	C	1.171473	0.499905	0.393618
C25	C	0.622852	-0.000089	-0.174715
C26	C	1.122852	0.499911	0.325285
C27	C	0.543908	-0.000103	-0.173453
C28	C	1.043908	0.499897	0.326547
C29	C	0.513587	-0.000116	-0.103857
C30	C	1.013587	0.499884	0.396143
C31	C	0.562213	-0.000125	-0.035519
C32	C	1.062213	0.499875	0.464481
C33	C	0.641155	-0.000119	-0.036782
C34	C	1.141155	0.499881	0.463218
C35	C	0.243849	-0.000152	-0.030425
C36	C	0.743849	0.499848	0.469575
C37	C	0.164901	-0.000155	-0.029168
C38	C	0.664901	0.499845	0.470832
C39	C	0.146602	-0.000137	-0.167097
C40	C	0.646602	0.499863	0.332903
C41	C	0.225544	-0.000130	-0.168359
C42	C	0.725544	0.499870	0.331641
C43	C	0.274163	-0.000145	-0.100022
C44	C	0.774163	0.499855	0.399978
C45	C	0.359763	-0.000132	-0.101391
C46	C	0.859763	0.499868	0.398609
C47	C	0.427989	-0.000121	-0.102487
C48	C	0.927989	0.499879	0.397513
N49	N	0.881407	-0.254353	-0.114412
N50	N	1.381407	0.245647	0.385588
C51	C	0.917062	-0.526795	-0.078743
C52	C	1.417062	-0.026795	0.421257
C53	C	0.870697	-0.473460	-0.125133
C54	C	1.370697	0.026540	0.374867
C55	C	0.876658	-0.351538	-0.119166
C56	C	1.376658	0.148462	0.380834
C57	C	0.911102	-0.648728	-0.084709
C58	C	1.411102	-0.148728	0.415291
C59	C	1.032260	-0.000151	-0.096163
C60	C	1.532260	0.499849	0.403837
C61	C	1.116278	-0.000157	-0.097502
C62	C	1.616278	0.499843	0.402498
C63	C	0.899655	-0.000141	0.036444
C64	C	1.399655	0.499859	0.536444
C65	C	0.898316	-0.000142	0.120462
C66	C	1.398316	0.499858	0.620462
N67	N	0.906349	0.254092	-0.089466
N68	N	1.406349	0.754092	0.410534
C69	C	0.888096	-0.000118	-0.240328
C70	C	1.388096	0.499882	0.259672
C71	C	0.889435	-0.000111	-0.324345
C72	C	1.389435	0.499889	0.175655
C73	C	0.966649	-0.000154	0.169082
C74	C	1.466649	0.499846	0.669082
C75	C	0.965387	-0.000144	0.248026
C76	C	1.465387	0.499856	0.748026
C77	C	0.895791	-0.000130	0.278347
C78	C	1.395791	0.499870	0.778347
C79	C	0.827453	-0.000114	0.229721
C80	C	1.327453	0.499886	0.729721
C81	C	0.828716	-0.000116	0.150779
C82	C	1.328716	0.499884	0.650779
C83	C	0.822359	-0.000105	0.548084
C84	C	1.322359	0.499895	1.048084
C85	C	0.821101	-0.000106	0.627032
C86	C	1.321101	0.499894	1.127032
C87	C	0.959029	-0.000133	0.645331
C88	C	1.459029	0.499867	1.145331
C89	C	0.960292	-0.000135	0.566389
C90	C	1.460292	0.499865	1.066389
C91	C	0.891955	-0.000113	0.517770
C92	C	1.391955	0.499887	1.017770
C93	C	0.893324	-0.000122	0.432171
C94	C	1.393324	0.499878	0.932171
C95	C	0.894421	-0.000129	0.363945
C96	C	1.394421	0.499871	0.863945
H97	H	0.504324	-0.000097	-0.229097
H98	H	1.004324	0.499903	0.270903
Br99	Br	0.266690	-0.000103	-0.262813
Br100	Br	0.766690	0.499897	0.237187
H101	H	0.107005	-0.000130	-0.222741
H102	H	0.607005	0.499870	0.277259
Br103	Br	0.990682	-0.450291	-0.005082
Br104	Br	1.490682	0.049709	0.494918
H105	H	1.023321	-0.000172	0.144401
H106	H	1.523321	0.499828	0.644401
H107	H	0.764424	-0.000096	0.651716
H108	H	1.264424	0.499904	1.151716
Br109	Br	0.735976	-0.000090	0.084793
Br110	Br	1.235976	0.499910	0.584793
H111	H	0.140217	-0.000167	0.027509
H112	H	0.640217	0.499833	0.527509
H113	H	1.021031	-0.000157	0.287610
H114	H	1.521031	0.499843	0.787610
H115	H	0.826526	-0.519365	-0.169331
H116	H	1.326526	-0.019365	0.330669
Br117	Br	0.729615	-0.000069	0.482111
Br118	Br	1.229615	0.499931	0.982111
Br119	Br	1.054747	-0.000154	0.525243
Br120	Br	1.554747	0.499846	1.025243
Br121	Br	1.051775	-0.000161	0.711319
Br122	Br	1.551775	0.499839	1.211319
H123	H	0.647533	-0.000078	-0.231388
H124	H	1.147533	0.499922	0.268612
Br125	Br	0.309823	-0.000175	0.062319
Br126	Br	0.809823	0.499825	0.562319
H127	H	0.770788	-0.000095	0.254415
H128	H	1.270788	0.499905	0.754415
H129	H	0.680742	-0.000123	0.018862
H130	H	1.180742	0.499877	0.518862
Br131	Br	0.521063	-0.000153	0.058933
Br132	Br	1.021063	0.499847	0.558933
