data_functionalizedCrystal
_audit_creation_method	'MofGen! by Chris Wilmer'
_symmetry_space_group_name_H-M	'P1'
_symmetry_Int_Tables_number	1
_symmetry_cell_setting	triclinic
loop_
_symmetry_equiv_pos_as_xyz
  x,y,z
_cell_length_a	13.262522
_cell_length_b	13.262508
_cell_length_c	12.376457
_cell_angle_alpha	116.815184
_cell_angle_beta	63.170097
_cell_angle_gamma	88.759796
loop_
_atom_site_label
_atom_site_type_symbol
_atom_site_fract_x
_atom_site_fract_y
_atom_site_fract_z
O1	O	1.510791	0.023932	-0.551114
O2	O	1.181068	0.063497	-0.437583
O3	O	1.365720	-0.121135	-0.551113
O4	O	1.326138	0.208564	-0.437583
O5	O	1.319577	-0.075037	-0.334743
O6	O	1.134924	0.109595	-0.221212
O7	O	1.464647	0.070030	-0.334743
Zn8	Zn	1.292459	0.097132	-0.243624
Zn9	Zn	1.353256	0.036396	-0.528702
O10	O	1.279994	0.254662	-0.221213
C11	C	1.116003	0.088568	-0.315866
C12	C	0.990878	0.094580	-0.275551
C13	C	1.344673	-0.140076	-0.456462
C14	C	1.350692	-0.265194	-0.496786
C15	C	0.906947	0.122536	-0.138659
C16	C	0.789386	0.128175	-0.100775
C17	C	0.755743	0.105869	-0.199774
C18	C	0.839673	0.077921	-0.336665
C19	C	0.957248	0.072272	-0.374557
C20	C	0.806044	0.055605	-0.435672
C21	C	0.889974	0.027656	-0.572563
C22	C	1.007536	0.022009	-0.610448
C23	C	1.041179	0.044316	-0.511449
C24	C	0.688469	0.061254	-0.397780
C25	C	0.738770	0.010989	-0.633678
C26	C	0.856331	0.005350	-0.671563
C27	C	1.267039	-0.517378	-0.138660
C28	C	1.261374	-0.399821	-0.100770
C29	C	1.283704	-0.366158	-0.199771
C30	C	1.311698	-0.450064	-0.336668
C31	C	1.317354	-0.567630	-0.374559
C32	C	1.334019	-0.416411	-0.435670
C33	C	1.362013	-0.500316	-0.572567
C34	C	1.367669	-0.617870	-0.610452
C35	C	1.345340	-0.651533	-0.511451
C36	C	1.328363	-0.298845	-0.397779
C37	C	1.378678	-0.349097	-0.633678
C38	C	1.384343	-0.466654	-0.671568
C39	C	1.529712	0.044959	-0.456463
C40	C	1.654839	0.038945	-0.496787
C41	C	1.301042	0.273603	-0.315867
C42	C	1.295025	0.398719	-0.275552
N43	N	1.250975	0.138581	-0.049070
N44	N	1.394749	-0.005063	-0.723262
C45	C	1.491047	-0.101303	0.158360
C46	C	1.520076	-0.130314	0.022178
C47	C	1.452803	-0.063093	0.004358
C48	C	1.356497	0.033144	0.122737
C49	C	1.327472	0.062163	0.258933
C50	C	1.289227	0.100374	0.104931
C51	C	1.192922	0.196611	0.223309
C52	C	1.163900	0.225624	0.359491
C53	C	1.231173	0.158403	0.377310
C54	C	1.318253	0.071355	-0.031265
C55	C	1.154677	0.234821	0.069307
C56	C	1.125649	0.263832	0.205490
H57	H	0.620142	0.084019	-0.286319
H58	H	0.660018	0.110464	-0.168919
H59	H	1.136904	0.039729	-0.542286
C60	C	0.697068	0.158942	0.049810
N61	N	0.627529	0.182126	0.163242
C62	C	1.099861	-0.008758	-0.761042
N63	N	1.169400	-0.031936	-0.874471
H64	H	1.598487	-0.208667	-0.074201
H65	H	1.476442	-0.086717	-0.106530
C66	C	1.297577	-0.206564	-0.247197
N67	N	1.274391	-0.137057	-0.133772
H68	H	0.934354	0.140685	-0.058072
H69	H	1.545818	-0.156021	0.172882
H70	H	0.924683	-0.017406	-0.783022
H71	H	0.711380	-0.007172	-0.714292
H72	H	1.407135	-0.534985	-0.783032
H73	H	1.207536	0.182020	0.488200
C74	C	1.242466	-0.554414	-0.029771
N75	N	1.223952	-0.582310	0.052253
C76	C	1.230582	-0.307535	0.049813
N77	N	1.207389	-0.238022	0.163239
C78	C	1.351566	-0.780851	-0.553123
N79	N	1.356252	-0.878253	-0.584505
C80	C	1.398524	-0.710176	-0.761065
N81	N	1.421791	-0.779704	-0.874518
H82	H	1.396852	-0.321690	-0.714290
H83	H	1.279088	-0.270437	-0.168911
C84	C	1.424180	-0.034509	-0.161466
N85	N	1.503968	-0.114254	-0.259536
C86	C	1.057966	0.331492	0.489706
N87	N	0.978174	0.411230	0.587782
C88	C	1.019712	0.369689	0.335721
N89	N	0.939920	0.449419	0.433812
C90	C	1.080669	0.308768	0.049715
N91	N	1.024933	0.364460	0.034947
