data_functionalizedCrystal
_audit_creation_method	'MofGen! by Chris Wilmer'
_symmetry_space_group_name_H-M	'P1'
_symmetry_Int_Tables_number	1
_symmetry_cell_setting	triclinic
loop_
_symmetry_equiv_pos_as_xyz
  x,y,z
_cell_length_a	17.699077
_cell_length_b	17.019294
_cell_length_c	16.176319
_cell_angle_alpha	86.114226
_cell_angle_beta	89.993140
_cell_angle_gamma	83.337580
loop_
_atom_site_label
_atom_site_type_symbol
_atom_site_fract_x
_atom_site_fract_y
_atom_site_fract_z
O1	O	1.004150	0.099735	-0.075834
O2	O	0.783780	0.112718	-0.076762
O3	O	0.900112	-0.008619	-0.068119
O4	O	0.887818	0.221071	-0.084478
O5	O	0.900096	-0.008626	0.069375
O6	O	0.783764	0.112710	0.060731
O7	O	1.004134	0.099727	0.061660
Cu8	Cu	0.893948	0.106218	0.073750
Cu9	Cu	0.893967	0.106227	-0.088852
O10	O	0.887802	0.221064	0.053016
C11	C	0.755575	0.112250	-0.007983
C12	C	0.671556	0.110857	-0.007885
C13	C	0.632079	0.110196	0.067110
C14	C	0.553136	0.108874	0.067205
C15	C	0.513669	0.108219	-0.007696
C16	C	0.553152	0.108877	-0.082697
C17	C	0.632094	0.110193	-0.082791
C18	C	0.234785	0.103569	-0.082321
C19	C	0.155836	0.102255	-0.082222
C20	C	0.155826	0.102250	0.067676
C21	C	0.234769	0.103566	0.067582
C22	C	0.274245	0.104220	-0.007418
C23	C	0.359844	0.105651	-0.007520
C24	C	0.428070	0.106793	-0.007596
C25	C	0.899638	-0.038011	0.002720
C26	C	0.898239	-0.125579	0.008951
C27	C	0.897592	-0.166710	-0.063069
C28	C	0.896273	-0.248988	-0.057211
C29	C	0.895606	-0.290135	0.020667
C30	C	0.896251	-0.248998	0.092692
C31	C	0.897564	-0.166720	0.086834
C32	C	0.891634	-0.538561	0.042106
C33	C	0.890322	-0.620845	0.047959
C34	C	0.890343	-0.620829	-0.101945
C35	C	0.891662	-0.538550	-0.107797
C36	C	0.892302	-0.497420	-0.035772
C37	C	0.894260	-0.374238	0.026657
C38	C	0.893643	-0.413318	-0.041762
C39	C	1.032340	0.100195	-0.007122
C40	C	1.116359	0.101589	-0.007225
C41	C	0.888277	0.250456	-0.017824
C42	C	0.889675	0.338024	-0.024061
N43	N	0.893940	0.106211	0.188116
N44	N	0.893980	0.106228	-0.203218
C45	C	0.945467	0.052505	0.235206
C46	C	0.945471	0.052504	0.321753
C47	C	0.893951	0.106214	0.361208
C48	C	0.842418	0.159922	0.314112
C49	C	0.842411	0.159919	0.227566
C50	C	0.842444	0.159937	0.663139
C51	C	0.842456	0.159938	0.749690
C52	C	0.945504	0.052523	0.757325
C53	C	0.945497	0.052519	0.670780
C54	C	0.893962	0.106224	0.623691
C55	C	0.893957	0.106224	0.529847
C56	C	0.893958	0.106219	0.455050
H57	H	0.123675	0.101713	0.128745
O58	O	0.898059	-0.126705	0.156766
C59	C	0.833307	-0.070042	0.157197
H60	H	0.787127	-0.088508	0.115978
H61	H	0.811318	-0.066067	0.223201
H62	H	0.849116	-0.009733	0.132761
O63	O	0.995503	0.000232	0.367407
C64	C	0.983288	-0.077846	0.351846
H65	H	0.954104	-0.077715	0.289009
H66	H	1.040226	-0.116759	0.351640
H67	H	0.945658	-0.102201	0.402305
O68	O	0.892085	-0.498527	-0.183437
C69	C	0.827252	-0.441966	-0.191879
H70	H	0.805711	-0.426582	-0.127869
H71	H	0.842785	-0.386149	-0.227692
H72	H	0.780836	-0.467430	-0.226902
H73	H	0.892170	-0.505085	0.100754
H74	H	0.123705	0.101721	-0.143219
O75	O	0.273004	0.104239	-0.155249
C76	C	0.221241	0.103359	-0.221334
H77	H	0.161806	0.127391	-0.201070
H78	H	0.239206	0.142020	-0.276512
H79	H	0.220854	0.039959	-0.239858
O80	O	0.889599	-0.660688	-0.171960
C81	C	0.824388	-0.631527	-0.219606
H82	H	0.803512	-0.568764	-0.202766
H83	H	0.839157	-0.630753	-0.288233
H84	H	0.777765	-0.671480	-0.206350
H85	H	0.800451	0.203651	0.189226
H86	H	0.894181	-0.379812	-0.105170
O87	O	0.514696	0.108273	-0.155386
C88	C	0.436555	0.106952	-0.139223
H89	H	0.422605	0.131734	-0.076575
H90	H	0.401710	0.144738	-0.189782
H91	H	0.422164	0.043318	-0.138243
O92	O	0.995572	0.000269	0.632588
C93	C	1.041066	-0.047123	0.692709
H94	H	1.010044	-0.047970	0.754471
H95	H	1.052678	-0.110138	0.672197
H96	H	1.097261	-0.021585	0.700077
O97	O	0.670323	0.110874	-0.155719
C98	C	0.618565	0.109996	-0.221809
H99	H	0.559127	0.134020	-0.201547
H100	H	0.636530	0.148664	-0.276981
H101	H	0.618185	0.046597	-0.240340
H102	H	0.898140	-0.133214	-0.126486
O103	O	0.792339	0.211987	0.352537
C104	C	0.745690	0.169803	0.405606
H105	H	0.775905	0.108035	0.422969
H106	H	0.733688	0.202747	0.464118
H107	H	0.689758	0.164516	0.372645
H108	H	0.800499	0.203676	0.781813
H109	H	0.800483	0.203667	0.624806
O110	O	0.893487	-0.414161	0.102321
C111	C	0.828299	-0.384996	0.145862
H112	H	0.782867	-0.356032	0.099956
H113	H	0.805443	-0.436074	0.183486
H114	H	0.843874	-0.339299	0.189351
O115	O	0.670301	0.110795	0.139948
C116	C	0.618523	0.109946	0.206159
H117	H	0.565414	0.084046	0.186029
H118	H	0.646174	0.072038	0.261278
H119	H	0.602112	0.173065	0.224711
H120	H	0.520999	0.108323	0.128275
H121	H	0.266898	0.104103	0.128574
O122	O	0.889639	-0.660690	0.123679
C123	C	0.890503	-0.606748	0.185995
H124	H	0.867491	-0.544783	0.159614
H125	H	0.853387	-0.625451	0.239741
H126	H	0.951329	-0.606390	0.209023
H127	H	0.895750	-0.282474	-0.115857
O128	O	0.895571	-0.288840	0.168409
C129	C	0.896442	-0.234892	0.230719
H130	H	0.873429	-0.172929	0.204334
H131	H	0.859329	-0.253591	0.284470
H132	H	0.957269	-0.234534	0.253740
H133	H	0.987424	0.008772	0.203087
H134	H	0.987465	0.008790	0.795674
