data_functionalizedCrystal
_audit_creation_method	'MofGen! by Chris Wilmer'
_symmetry_space_group_name_H-M	'P1'
_symmetry_Int_Tables_number	1
_symmetry_cell_setting	triclinic
loop_
_symmetry_equiv_pos_as_xyz
  x,y,z
_cell_length_a	19.188905
_cell_length_b	19.188925
_cell_length_c	9.730223
_cell_angle_alpha	89.995959
_cell_angle_beta	89.989587
_cell_angle_gamma	83.138552
loop_
_atom_site_label
_atom_site_type_symbol
_atom_site_fract_x
_atom_site_fract_y
_atom_site_fract_z
O1	O	0.926153	0.087084	-0.114515
O2	O	1.426153	0.587084	0.385485
O3	O	0.722839	0.098837	-0.114468
O4	O	1.222839	0.598837	0.385532
O5	O	0.830365	-0.008696	-0.114485
O6	O	1.330365	0.491304	0.385515
O7	O	0.818627	0.194617	-0.114498
O8	O	1.318627	0.694617	0.385502
O9	O	0.830358	-0.008699	0.114095
O10	O	1.330358	0.491301	0.614095
O11	O	0.722832	0.098834	0.114112
O12	O	1.222832	0.598834	0.614112
O13	O	0.926146	0.087082	0.114065
O14	O	1.426146	0.587082	0.614065
Zn15	Zn	0.824488	0.092957	0.150380
Zn16	Zn	1.324488	0.592957	0.650380
Zn17	Zn	0.824497	0.092961	-0.150784
Zn18	Zn	1.324497	0.592961	0.349216
O19	O	0.818620	0.194614	0.114082
O20	O	1.318620	0.694614	0.614082
C21	C	0.696824	0.098458	-0.000172
C22	C	1.196824	0.598458	0.499828
C23	C	0.619319	0.097324	-0.000154
C24	C	1.119319	0.597324	0.499846
C25	C	0.582931	0.096781	-0.124757
C26	C	1.082931	0.596781	0.375243
C27	C	0.510107	0.095708	-0.124774
C28	C	1.010107	0.595708	0.375226
C29	C	0.473676	0.095164	-0.000181
C30	C	0.973676	0.595164	0.499819
C31	C	0.510073	0.095711	0.124438
C32	C	1.010073	0.595711	0.624438
C33	C	0.582894	0.096791	0.124451
C34	C	1.082894	0.596791	0.624451
N35	N	0.364654	0.053734	0.092544
N36	N	0.864654	0.553734	0.592544
N37	N	0.295477	0.052707	0.092523
N38	N	0.795477	0.552707	0.592523
C39	C	0.254270	0.091911	-0.000214
C40	C	0.754270	0.591911	0.499786
N41	N	0.284854	0.132174	-0.092949
N42	N	0.784854	0.632174	0.407051
N43	N	0.354038	0.133198	-0.092932
N44	N	0.854038	0.633198	0.407068
C45	C	0.394714	0.093993	-0.000182
C46	C	0.894714	0.593993	0.499818
C47	C	0.138918	0.090206	-0.124844
C48	C	0.638918	0.590206	0.375156
C49	C	0.066092	0.089137	-0.124855
C50	C	0.566092	0.589137	0.375145
C51	C	0.066060	0.089133	0.124360
C52	C	0.566060	0.589133	0.624360
C53	C	0.138883	0.090209	0.124368
C54	C	0.638883	0.590209	0.624368
C55	C	0.175308	0.090742	-0.000237
C56	C	0.675308	0.590742	0.499763
C57	C	0.829982	-0.034708	-0.000196
C58	C	1.329982	0.465292	0.499804
C59	C	0.828843	-0.112213	-0.000199
C60	C	1.328843	0.387787	0.499801
C61	C	0.884308	-0.673988	-0.000246
C62	C	1.384308	-0.173988	0.499754
C63	C	0.885384	-0.601165	-0.000234
C64	C	1.385384	-0.101165	0.499766
C65	C	0.822291	-0.556225	-0.000220
C66	C	1.322291	-0.056225	0.499780
C67	C	0.758117	-0.584113	-0.000183
C68	C	1.258117	-0.084113	0.499817
C69	C	0.757043	-0.656935	-0.000181
C70	C	1.257043	-0.156935	0.499819
N71	N	0.776617	-0.435539	-0.078012
N72	N	1.276617	0.064461	0.421988
N73	N	0.777642	-0.366362	-0.078016
N74	N	1.277642	0.133638	0.421984
C75	C	0.825525	-0.336816	-0.000222
C76	C	1.325525	0.163184	0.499778
N77	N	0.872355	-0.379062	0.077561
N78	N	1.372355	0.120938	0.577561
N79	N	0.871332	-0.448246	0.077559
N80	N	1.371332	0.051754	0.577559
C81	C	0.823450	-0.477261	-0.000221
C82	C	1.323450	0.022739	0.499779
C83	C	0.890863	-0.229973	-0.000236
C84	C	1.390863	0.270027	0.499764
C85	C	0.891937	-0.157148	-0.000215
C86	C	1.391937	0.342852	0.499785
C87	C	0.764668	-0.140097	-0.000178
C88	C	1.264668	0.359903	0.499822
C89	C	0.763596	-0.212921	-0.000184
C90	C	1.263596	0.287079	0.499816
C91	C	0.826695	-0.257855	-0.000220
C92	C	1.326695	0.242145	0.499780
C93	C	0.952161	0.087461	-0.000234
C94	C	1.452161	0.587461	0.499766
C95	C	1.029666	0.088594	-0.000261
C96	C	1.529666	0.588594	0.499739
C97	C	0.819003	0.220627	-0.000210
C98	C	1.319003	0.720627	0.499790
C99	C	0.820142	0.298131	-0.000217
C100	C	1.320142	0.798131	0.499783
N101	N	0.824487	0.092954	0.355917
N102	N	1.324487	0.592954	0.855917
N103	N	0.824504	0.092959	-0.356320
N104	N	1.324504	0.592959	0.143680
C105	C	0.872116	0.045359	0.427835
C106	C	1.372116	0.545359	0.927835
C107	C	0.872123	0.045359	0.571718
C108	C	1.372123	0.545359	1.071718
C109	C	0.776870	0.140557	0.571752
C110	C	1.276870	0.640557	1.071752
C111	C	0.776860	0.140552	0.427871
C112	C	1.276860	0.640552	0.927871
H113	H	0.480406	0.095270	0.225882
H114	H	0.980406	0.595270	0.725882
Cl115	Cl	0.184631	0.090887	0.281021
Cl116	Cl	0.684631	0.590887	0.781021
Cl117	Cl	0.464353	0.095025	-0.281429
Cl118	Cl	0.964353	0.595025	0.218571
H119	H	0.168576	0.090647	-0.226305
H120	H	0.668576	0.590647	0.273695
H121	H	0.713296	-0.103508	-0.000154
H122	H	1.213296	0.396492	0.499846
Cl123	Cl	0.628718	0.097455	-0.281403
Cl124	Cl	1.128718	0.597455	0.218597
Cl125	Cl	0.963633	-0.730472	-0.000276
Cl126	Cl	1.463633	-0.230472	0.499724
Cl127	Cl	0.716977	0.200388	0.337451
Cl128	Cl	1.216977	0.700388	0.837451
H129	H	0.738094	0.179311	0.630351
H130	H	1.238094	0.679311	1.130351
H131	H	0.612521	0.097234	0.225921
H132	H	1.112521	0.597234	0.725921
H133	H	0.036466	0.088699	-0.226326
H134	H	0.536466	0.588699	0.273674
H135	H	0.910895	0.006600	0.369253
H136	H	1.410895	0.506600	0.869253
H137	H	0.036398	0.088694	0.225806
H138	H	0.536398	0.588694	0.725806
Cl139	Cl	0.966056	-0.566106	-0.000256
Cl140	Cl	1.466056	-0.066106	0.499744
Cl141	Cl	0.931999	-0.014480	0.662126
Cl142	Cl	1.431999	0.485520	1.162126
H143	H	0.706747	-0.547518	-0.000167
H144	H	1.206747	-0.047518	0.499833
H145	H	0.704790	-0.679634	-0.000154
H146	H	1.204790	-0.179634	0.499846
H147	H	0.942242	-0.266560	-0.000264
H148	H	1.442242	0.233440	0.499736
Cl149	Cl	0.972610	-0.122098	-0.000258
Cl150	Cl	1.472610	0.377902	0.499742
Cl151	Cl	0.682925	-0.247973	-0.000161
Cl152	Cl	1.182925	0.252027	0.499839
