data_functionalizedCrystal
_audit_creation_method	'MofGen! by Chris Wilmer'
_symmetry_space_group_name_H-M	'P1'
_symmetry_Int_Tables_number	1
_symmetry_cell_setting	triclinic
loop_
_symmetry_equiv_pos_as_xyz
  x,y,z
_cell_length_a	12.759401
_cell_length_b	16.120484
_cell_length_c	12.759393
_cell_angle_alpha	92.864219
_cell_angle_beta	89.981798
_cell_angle_gamma	92.925560
loop_
_atom_site_label
_atom_site_type_symbol
_atom_site_fract_x
_atom_site_fract_y
_atom_site_fract_z
Zn1	Zn	1.584968	-0.331865	-0.615146
Zn2	Zn	1.575920	-0.471299	-0.448359
Zn3	Zn	1.409268	-0.331905	-0.439488
Zn4	Zn	1.400320	-0.471238	-0.623997
O5	O	1.492619	-0.401577	-0.531748
O6	O	1.730788	-0.350369	-0.593030
O7	O	1.553772	-0.452851	-0.300164
O8	O	1.440107	-0.215234	-0.455373
O9	O	1.724141	-0.452811	-0.470492
O10	O	1.569192	-0.215205	-0.584429
O11	O	1.431334	-0.350438	-0.293647
O12	O	1.261061	-0.350379	-0.463955
O13	O	1.424855	-0.452708	-0.769841
O14	O	1.254486	-0.452747	-0.599513
O15	O	1.560515	-0.350310	-0.763339
O16	O	1.545095	-0.587956	-0.479074
O17	O	1.416082	-0.587912	-0.608114
C18	C	1.219653	-0.401561	-0.531732
C19	C	1.102875	-0.401575	-0.531752
C20	C	1.044612	-0.454963	-0.602231
C21	C	0.934887	-0.454974	-0.602243
C22	C	0.941699	-0.348205	-0.461288
C23	C	1.051422	-0.348191	-0.461282
C24	C	1.096065	-0.508346	-0.672702
C25	C	1.037801	-0.561740	-0.743186
C26	C	0.928077	-0.561750	-0.743198
C27	C	0.876616	-0.508368	-0.672726
C28	C	1.478664	-0.618184	-0.545540
C29	C	1.472791	-0.710850	-0.551476
C30	C	1.462073	-0.880511	-0.562334
C31	C	1.523354	-0.921802	-0.501178
C32	C	1.517390	-1.016207	-0.507220
C33	C	1.468035	-0.786097	-0.556294
C34	C	1.766651	-0.401593	-0.531764
C35	C	1.883427	-0.401600	-0.531770
C36	C	1.492696	-0.401498	-0.805776
C37	C	1.492729	-0.401464	-0.922551
C38	C	1.506657	-0.184124	-0.517924
C39	C	1.512639	-0.091458	-0.512034
C40	C	1.556525	-0.454730	-1.090531
C41	C	1.556491	-0.454767	-0.980810
C42	C	1.428989	-0.348126	-0.974019
C43	C	1.429018	-0.348093	-1.083739
C44	C	1.620299	-0.508030	-1.148784
C45	C	1.684039	-0.561370	-1.097323
C46	C	1.684005	-0.561407	-0.987602
C47	C	1.620232	-0.508105	-0.929341
C48	C	1.492606	-0.401595	-0.258781
C49	C	1.492792	-0.401394	-0.141993
H50	H	0.880642	-0.605219	-0.800596
H51	H	1.079709	-0.605196	-0.800567
H52	H	1.098862	-0.304712	-0.403899
C53	C	1.372342	-0.300821	-0.802808
C54	C	1.358903	-0.289532	-0.909981
H55	H	1.329079	-0.264641	-0.763276
H56	H	1.353341	-0.356833	-0.788392
H57	H	1.443720	-0.288630	-0.784071
H58	H	1.287526	-0.301729	-0.928720
H59	H	1.377897	-0.233506	-0.924403
H60	H	0.899790	-0.304745	-0.403912
C61	C	1.591313	-0.788229	-0.433158
C62	C	1.600215	-0.873818	-0.424359
H63	H	1.638756	-0.758605	-0.385726
H64	H	1.607548	-0.773953	-0.502854
H65	H	1.521600	-0.774082	-0.416842
H66	H	1.669927	-0.887966	-0.440682
H67	H	1.583988	-0.888099	-0.354647
C68	C	1.394093	-1.014082	-0.630310
C69	C	1.385195	-0.928495	-0.639127
H70	H	1.346625	-1.043711	-0.677711
H71	H	1.463789	-1.028236	-0.646646
H72	H	1.377882	-1.028345	-0.560593
H73	H	1.401413	-0.914231	-0.708842
H74	H	1.315484	-0.914335	-0.622797
C75	C	0.715730	-0.566469	-0.749536
C76	C	0.756006	-0.508350	-0.672774
H77	H	0.641272	-0.566454	-0.749567
H78	H	0.741535	-0.552119	-0.816427
H79	H	0.737055	-0.620255	-0.734660
H80	H	0.734687	-0.454563	-0.687654
H81	H	0.730189	-0.522695	-0.605867
C82	C	1.689767	-0.566039	-1.309658
C83	C	1.620335	-0.507993	-1.269391
H84	H	1.689783	-0.566015	-1.384115
H85	H	1.758477	-0.551626	-1.283925
H86	H	1.668116	-0.619844	-1.288254
H87	H	1.641991	-0.454186	-1.290789
H88	H	1.551611	-0.522401	-1.295135
C89	C	1.251839	-0.529485	-0.574043
C90	C	1.216675	-0.508337	-0.672690
H91	H	1.326298	-0.529484	-0.574038
H92	H	1.229537	-0.490051	-0.522001
H93	H	1.223543	-0.583269	-0.559197
H94	H	1.244966	-0.454550	-0.687533
H95	H	1.238988	-0.547772	-0.724748
C96	C	1.859332	-0.601980	-1.133687
C97	C	1.754134	-0.619961	-1.161355
H98	H	1.902604	-0.638158	-1.173212
H99	H	1.878321	-0.545967	-1.148111
H100	H	1.868416	-0.609636	-1.060975
H101	H	1.745048	-0.612299	-1.234067
H102	H	1.735139	-0.675987	-1.146939
H103	H	1.735898	-0.604843	-0.945705
C104	C	1.302993	-0.242679	-1.066015
C105	C	1.358966	-0.289463	-1.140314
H106	H	1.259748	-0.206482	-1.100944
H107	H	1.260451	-0.279012	-1.025528
H108	H	1.350824	-0.210804	-1.021194
H109	H	1.311134	-0.321343	-1.185130
H110	H	1.401512	-0.253126	-1.180818
H111	H	1.620196	-0.508150	-0.839999
