data_functionalizedCrystal
_audit_creation_method	'MofGen! by Chris Wilmer'
_symmetry_space_group_name_H-M	'P1'
_symmetry_Int_Tables_number	1
_symmetry_cell_setting	triclinic
loop_
_symmetry_equiv_pos_as_xyz
  x,y,z
_cell_length_a	16.625547
_cell_length_b	16.625546
_cell_length_c	17.077395
_cell_angle_alpha	90.028955
_cell_angle_beta	90.019972
_cell_angle_gamma	90.022405
loop_
_atom_site_label
_atom_site_type_symbol
_atom_site_fract_x
_atom_site_fract_y
_atom_site_fract_z
Zn1	Zn	1.232642	-0.321013	0.443924
Zn2	Zn	1.232557	-0.455853	0.312654
Zn3	Zn	1.097815	-0.321038	0.312662
Zn4	Zn	1.097774	-0.455807	0.443868
O5	O	1.165197	-0.388428	0.378277
O6	O	1.345463	-0.338908	0.426531
O7	O	1.214664	-0.437999	0.202808
O8	O	1.115753	-0.208202	0.330101
O9	O	1.345400	-0.437975	0.330087
O10	O	1.214810	-0.208184	0.426539
O11	O	1.115670	-0.338951	0.202814
O12	O	0.984977	-0.338906	0.330046
O13	O	1.115683	-0.437897	0.553722
O14	O	0.984947	-0.437921	0.426443
O15	O	1.214770	-0.338864	0.553763
O16	O	1.214624	-0.568679	0.330033
O17	O	1.115600	-0.568646	0.426435
C18	C	0.955706	-0.388412	0.378240
C19	C	0.866085	-0.388425	0.378243
C20	C	0.793303	-0.388426	0.378252
C21	C	0.701994	-0.388430	0.378272
C22	C	0.629218	-0.388438	0.378292
C23	C	0.537903	-0.388443	0.378311
C24	C	1.165121	-0.597918	0.378244
C25	C	1.165162	-0.687540	0.378256
C26	C	1.165302	-1.015715	0.378338
C27	C	1.165261	-0.924407	0.378317
C28	C	1.165231	-0.851630	0.378297
C29	C	1.165191	-0.760316	0.378277
C30	C	1.375506	-0.388444	0.378315
C31	C	1.465127	-0.388451	0.378331
C32	C	1.165232	-0.388373	0.583021
C33	C	1.165246	-0.388349	0.670271
C34	C	1.165295	-0.178119	0.378327
C35	C	1.165337	-0.088498	0.378348
C36	C	1.165209	-0.388424	0.174329
C37	C	1.165350	-0.388220	0.087080
C38	C	1.216930	-0.336674	1.046109
C39	C	1.216914	-0.336702	0.964128
C40	C	1.165313	-0.388273	0.923120
C41	C	1.113731	-0.439825	0.964097
C42	C	1.113752	-0.439801	1.046076
C43	C	1.113689	-0.439872	0.793227
C44	C	1.113666	-0.439896	0.711242
C45	C	1.216851	-0.336773	0.711279
C46	C	1.216872	-0.336749	0.793258
C47	C	1.165289	-0.388300	0.834229
H48	H	1.258917	-0.294730	0.930773
H49	H	1.258887	-0.294751	0.826644
N50	N	1.269637	-0.283981	1.087981
N51	N	1.315686	-0.237960	1.051386
H52	H	1.352913	-0.200743	1.080956
H53	H	1.258850	-0.294797	0.677916
N54	N	1.060950	-0.492576	0.669364
N55	N	1.014901	-0.538601	0.705952
H56	H	0.977668	-0.575807	0.676377
H57	H	1.071751	-0.481776	1.079434
H58	H	1.071686	-0.481853	0.826583
H59	H	1.071720	-0.481819	0.930702
