data_functionalizedCrystal
_audit_creation_method	'MofGen! by Chris Wilmer'
_symmetry_space_group_name_H-M	'P1'
_symmetry_Int_Tables_number	1
_symmetry_cell_setting	triclinic
loop_
_symmetry_equiv_pos_as_xyz
  x,y,z
_cell_length_a	14.971486
_cell_length_b	14.048226
_cell_length_c	14.971486
_cell_angle_alpha	90.006640
_cell_angle_beta	83.614129
_cell_angle_gamma	90.001501
loop_
_atom_site_label
_atom_site_type_symbol
_atom_site_fract_x
_atom_site_fract_y
_atom_site_fract_z
O1	O	-1.186947	-0.079052	-0.116565
O2	O	-0.686947	0.420948	0.383435
O3	O	-0.926547	-0.079078	-0.130523
O4	O	-0.426547	0.420922	0.369477
O5	O	-1.063726	-0.079057	0.006656
O6	O	-0.563726	0.420943	0.506656
O7	O	-1.049768	-0.079072	-0.253744
O8	O	-0.549768	0.420928	0.246256
O9	O	-1.063710	0.079264	0.006664
O10	O	-0.563710	0.579264	0.506664
O11	O	-0.926530	0.079244	-0.130515
O12	O	-0.426530	0.579244	0.369485
O13	O	-1.186930	0.079270	-0.116556
O14	O	-0.686930	0.579270	0.383444
Zn15	Zn	-1.056728	0.104394	-0.123535
Zn16	Zn	-0.556728	0.604394	0.376465
Zn17	Zn	-1.056750	-0.104202	-0.123545
Zn18	Zn	-0.556750	0.395798	0.376455
O19	O	-1.049751	0.079249	-0.253736
O20	O	-0.549751	0.579249	0.246264
C21	C	-0.893214	0.000080	-0.129895
C22	C	-0.393214	0.500080	0.370105
C23	C	-0.793917	0.000070	-0.128024
C24	C	-0.293917	0.500070	0.371976
C25	C	-1.063094	0.000103	0.039985
C26	C	-0.563094	0.500103	0.539985
C27	C	-1.061223	0.000102	0.139282
C28	C	-0.561223	0.500102	0.639282
C29	C	-1.220263	0.000110	-0.117185
C30	C	-0.720263	0.500110	0.382815
C31	C	-1.319561	0.000114	-0.119056
C32	C	-0.819561	0.500114	0.380944
C33	C	-0.736692	0.000067	-0.208614
C34	C	-0.236692	0.500067	0.291386
C35	C	-0.643392	0.000081	-0.206850
C36	C	-0.143392	0.500081	0.293150
C37	C	-0.607320	0.000092	-0.124497
C38	C	-0.107320	0.500092	0.375503
C39	C	-0.664552	0.000098	-0.043902
C40	C	-0.164552	0.500098	0.456098
C41	C	-0.757850	0.000090	-0.045666
C42	C	-0.257850	0.500090	0.454334
C43	C	-0.470090	0.000111	-0.040231
C44	C	0.029910	0.500111	0.459769
C45	C	-0.376786	0.000117	-0.038466
C46	C	0.123214	0.500117	0.461534
C47	C	-0.355632	0.000102	-0.201415
C48	C	0.144368	0.500102	0.298585
C49	C	-0.448930	0.000094	-0.203179
C50	C	0.051070	0.500094	0.296821
C51	C	-0.506156	0.000099	-0.122584
C52	C	-0.006156	0.500099	0.377416
N53	N	-1.056719	0.246754	-0.123527
N54	N	-0.556719	0.746754	0.376473
N55	N	-1.056765	-0.246562	-0.123546
N56	N	-0.556765	0.253438	0.376454
C57	C	-1.117482	0.296581	-0.062809
C58	C	-0.617482	0.796581	0.437191
C59	C	-1.117488	0.396239	-0.062808
C60	C	-0.617488	0.896239	0.437192
C61	C	-1.056735	0.446068	-0.123531
C62	C	-0.556735	0.946068	0.376469
C63	C	-0.995966	0.396234	-0.184252
C64	C	-0.495966	0.896234	0.315748
C65	C	-0.995957	0.296578	-0.184247
C66	C	-0.495957	0.796578	0.315753
C67	C	-0.995992	0.603948	-0.184258
C68	C	-0.495992	1.103948	0.315742
C69	C	-0.996003	0.703611	-0.184264
C70	C	-0.496003	1.203611	0.315736
C71	C	-1.117523	0.703609	-0.062819
C72	C	-0.617523	1.203609	0.437181
C73	C	-1.117514	0.603953	-0.062815
C74	C	-0.617514	1.103953	0.437185
C75	C	-1.056746	0.554126	-0.123537
C76	C	-0.556746	1.054126	0.376463
C77	C	-1.050384	0.000087	-0.287065
C78	C	-0.550384	0.500087	0.212935
C79	C	-1.052254	0.000082	-0.386362
C80	C	-0.552254	0.500082	0.113638
C81	C	-1.141812	0.000111	0.196507
C82	C	-0.641812	0.500111	0.696507
C83	C	-1.140049	0.000101	0.289807
C84	C	-0.640049	0.500101	0.789807
C85	C	-1.057696	0.000089	0.325879
C86	C	-0.557696	0.500089	0.825879
C87	C	-0.977101	0.000078	0.268646
C88	C	-0.477101	0.500078	0.768646
C89	C	-0.978865	0.000081	0.175349
C90	C	-0.478865	0.500081	0.675349
C91	C	-0.973430	0.000074	0.463109
C92	C	-0.473430	0.500074	0.963109
C93	C	-0.971665	0.000073	0.556413
C94	C	-0.471665	0.500073	1.056413
C95	C	-1.134614	0.000094	0.577567
C96	C	-0.634614	0.500094	1.077567
C97	C	-1.136378	0.000097	0.484269
C98	C	-0.636378	0.500097	0.984269
C99	C	-1.055782	0.000088	0.427043
C100	C	-0.555782	0.500088	0.927043
H101	H	-0.766054	0.000057	-0.275675
H102	H	-0.266054	0.500057	0.224325
H103	H	-1.200238	0.000099	0.624165
H104	H	-0.700238	0.500099	1.124165
H105	H	-1.205673	0.000110	0.336396
H106	H	-0.705673	0.500110	0.836396
O107	O	-1.183071	0.757336	0.002680
O108	O	-0.683071	1.257336	0.502680
H109	H	-1.145389	0.802744	0.046229
H110	H	-0.645389	1.302744	0.546229
H111	H	-0.904606	0.000079	0.585780
H112	H	-0.404606	0.500079	1.085780
H113	H	-0.804443	0.000093	0.019958
H114	H	-0.304443	0.500093	0.519958
O115	O	-0.930436	0.550218	-0.249748
O116	O	-0.430436	1.050218	0.250252
H117	H	-0.886916	0.504843	-0.212015
H118	H	-0.386916	1.004843	0.287985
O119	O	-0.337877	0.000149	0.050356
O120	O	0.162123	0.500149	0.550356
H121	H	-0.295878	-0.064378	0.055068
H122	H	0.204122	0.435622	0.555068
H123	H	-0.635175	0.000120	0.023152
H124	H	-0.135175	0.500120	0.523152
O125	O	-0.930477	0.757365	-0.249750
O126	O	-0.430477	1.257365	0.250250
H127	H	-0.886992	0.802789	-0.212013
H128	H	-0.386992	1.302789	0.287987
H129	H	-0.907800	0.000064	0.416517
H130	H	-0.407800	0.500064	0.916517
H131	H	-1.203437	0.000114	0.454903
H132	H	-0.703437	0.500114	0.954903
O133	O	-1.183040	0.550209	0.002678
O134	O	-0.683040	1.050209	0.502678
H135	H	-1.145335	0.504815	0.046208
H136	H	-0.645335	1.004815	0.546208
H137	H	-0.946496	0.436810	-0.233690
H138	H	-0.446496	0.936810	0.266310
O139	O	-0.531816	0.000124	0.046696
O140	O	-0.031816	0.500124	0.546696
H141	H	-0.574832	-0.064403	0.049783
H142	H	-0.074832	0.435597	0.549783
H143	H	-0.910047	0.000062	0.298024
H144	H	-0.410047	0.500062	0.798024
O145	O	-0.930426	0.242828	-0.249739
O146	O	-0.430426	0.742828	0.250261
H147	H	-0.888188	0.294217	-0.291971
H148	H	-0.388188	0.794217	0.208029
H149	H	-1.208874	0.000126	0.167145
H150	H	-0.708874	0.500126	0.667145
H151	H	-0.309033	0.000103	-0.267039
H152	H	0.190967	0.500103	0.232961
O153	O	-0.891945	0.000082	0.113620
O154	O	-0.391945	0.500082	0.613620
H155	H	-0.834382	0.000084	0.154375
H156	H	-0.334382	0.500084	0.654375
H157	H	-1.166957	0.256017	-0.013365
H158	H	-0.666957	0.756017	0.486635
O159	O	-1.183043	0.449973	0.002670
O160	O	-0.683043	0.949973	0.502670
H161	H	-1.171594	0.430852	0.072422
H162	H	-0.671594	0.930852	0.572422
O163	O	-0.581667	0.000078	-0.293771
O164	O	-0.081667	0.500078	0.206229
H165	H	-0.622424	0.000058	-0.351332
H166	H	-0.122424	0.500058	0.148668
O167	O	-0.487843	0.000095	-0.292000
O168	O	0.012157	0.500095	0.208000
H169	H	-0.432377	0.000107	-0.347747
H170	H	0.067623	0.500107	0.152253
