data_functionalizedCrystal
_audit_creation_method	'MofGen! by Chris Wilmer'
_symmetry_space_group_name_H-M	'P1'
_symmetry_Int_Tables_number	1
_symmetry_cell_setting	triclinic
loop_
_symmetry_equiv_pos_as_xyz
  x,y,z
_cell_length_a	13.635800
_cell_length_b	11.102308
_cell_length_c	11.100257
_cell_angle_alpha	88.009783
_cell_angle_beta	108.570032
_cell_angle_gamma	71.393826
loop_
_atom_site_label
_atom_site_type_symbol
_atom_site_fract_x
_atom_site_fract_y
_atom_site_fract_z
V1	V	2.055626	-0.176083	0.396282
O2	O	2.035144	0.008211	0.388739
O3	O	2.044017	-0.348901	0.393571
O4	O	2.043956	-0.173484	0.569115
O5	O	2.035206	-0.168421	0.211981
V6	V	2.294185	-0.154026	0.374238
O7	O	2.193280	-0.224466	0.444637
O8	O	2.381630	-0.105643	0.325883
O9	O	2.194191	0.018793	0.376949
O10	O	2.373366	-0.338320	0.381781
O11	O	2.373304	-0.161688	0.558540
O12	O	2.194253	-0.156625	0.201406
V13	V	2.555626	-0.176083	0.396282
O14	O	2.535144	0.008211	0.388739
O15	O	2.544017	-0.348901	0.393571
O16	O	2.543956	-0.173484	0.569115
O17	O	2.535206	-0.168421	0.211981
V18	V	2.794185	-0.154026	0.374238
O19	O	2.693280	-0.224466	0.444637
O20	O	2.881630	-0.105643	0.325883
O21	O	2.694191	0.018793	0.376949
O22	O	2.873366	-0.338320	0.381781
O23	O	2.873304	-0.161688	0.558540
O24	O	2.694253	-0.156625	0.201406
C25	C	1.969175	-0.391027	0.387320
C26	C	2.000410	-0.532309	0.386255
C27	C	2.184424	-0.545282	0.398926
C28	C	2.291100	-0.618141	0.404757
C29	C	2.320442	-0.750888	0.403758
C30	C	2.243100	-0.810778	0.396931
C31	C	2.136424	-0.737919	0.391100
C32	C	2.107090	-0.605170	0.392096
C33	C	1.952414	-0.724948	0.378439
C34	C	1.923067	-0.592200	0.379429
C35	C	1.875071	-0.784839	0.371612
C36	C	1.768391	-0.711978	0.365772
C37	C	1.739050	-0.579224	0.366770
C38	C	1.816391	-0.519341	0.373597
C39	C	1.969096	-0.167263	0.611241
C40	C	2.000279	-0.166282	0.752533
C41	C	2.100705	0.060912	0.383198
C42	C	2.059090	0.202193	0.384270
C43	C	2.100783	-0.162849	0.159273
C44	C	2.059219	-0.163824	0.017980
C45	C	2.469175	-0.391027	0.387320
C46	C	2.500410	-0.532309	0.386255
C47	C	1.998947	0.068971	0.981116
C48	C	1.954070	0.184756	0.896323
C49	C	1.924594	0.183532	0.763600
C50	C	1.940001	0.066511	0.715670
C51	C	1.984878	-0.049274	0.800463
C52	C	2.014348	-0.048037	0.933187
C53	C	2.045156	-0.282067	0.837326
C54	C	2.074625	-0.280845	0.970049
C55	C	2.060563	-0.399088	0.789396
C56	C	2.105433	-0.514875	0.874189
C57	C	2.134908	-0.513646	1.006919
C58	C	2.119502	-0.396630	1.054842
C59	C	2.469096	-0.167263	0.611241
C60	C	2.500279	-0.166282	0.752533
C61	C	2.600705	0.060912	0.383198
C62	C	2.559090	0.202193	0.384270
C63	C	2.600783	-0.162849	0.159273
C64	C	2.559219	-0.163824	0.017980
C65	C	2.606930	-0.172164	0.825385
C66	C	2.636217	-0.171217	0.958140
C67	C	2.452194	-0.158512	0.945178
C68	C	2.422906	-0.159450	0.812424
C69	C	2.684304	-0.178996	0.765494
C70	C	2.790962	-0.184879	0.838347
C71	C	2.820250	-0.183932	0.971101
C72	C	2.742878	-0.177102	1.031002
C73	C	2.485039	-0.580473	0.269368
C74	C	2.514395	-0.713225	0.268382
C75	C	2.574488	-0.749640	0.501182
C76	C	2.545140	-0.616891	0.502167
C77	C	2.440309	-0.495891	0.153456
C78	C	2.424934	-0.544053	0.036559
C79	C	2.454290	-0.676805	0.035574
C80	C	2.499020	-0.761396	0.151486
H81	H	2.160537	-0.437191	0.399721
C82	C	1.875235	0.310887	0.670321
H83	H	1.859897	0.293390	0.584414
H84	H	1.808862	0.362986	0.680531
H85	H	1.926512	0.354843	0.688459
H86	H	1.941533	0.280032	0.935364
C87	C	2.531316	-0.907420	0.150401
H88	H	2.515754	-0.923993	0.064185
H89	H	2.607910	-0.948317	0.197225
H90	H	2.490185	-0.940033	0.189106
C91	C	1.907586	0.065165	0.569679
H92	H	1.878650	0.150881	0.526044
H93	H	1.970869	0.017830	0.550425
H94	H	1.853219	0.025969	0.542496
H95	H	2.036567	-0.400077	0.681325
C96	C	2.122375	-0.643580	0.821463
H97	H	2.098392	-0.627725	0.730274
H98	H	2.198407	-0.695276	0.854753
H99	H	2.080754	-0.687134	0.846814
H100	H	2.766731	-0.176322	1.139099
H101	H	2.354068	-0.569364	0.410319
H102	H	1.898972	-0.892929	0.370808
C103	C	2.437783	-0.831042	0.410176
H104	H	2.444177	-0.918678	0.408613
H105	H	2.451560	-0.800301	0.338483
H106	H	2.490005	-0.823612	0.487416
H107	H	2.388522	-0.475172	-0.057811
H108	H	2.267004	-0.918871	0.396134
H109	H	1.705431	-0.760753	0.360223
H110	H	2.171453	-0.607933	1.075952
C111	C	2.623677	-0.842678	0.628675
H112	H	2.628636	-0.794981	0.698433
H113	H	2.577516	-0.891076	0.629072
H114	H	2.695241	-0.899365	0.637185
H115	H	1.652187	-0.519910	0.362031
C116	C	2.151912	-0.395272	1.200831
H117	H	2.136314	-0.308999	1.217228
H118	H	2.110892	-0.433921	1.233700
H119	H	2.228538	-0.442041	1.241630
H120	H	2.557672	-0.577678	0.597348
H121	H	1.792509	-0.411251	0.374402
C122	C	2.031343	0.070325	1.127105
H123	H	2.015740	0.156596	1.143507
H124	H	1.990315	0.031674	1.159957
H125	H	2.107967	0.023556	1.167916
H126	H	2.660468	-0.179771	0.657400
C127	C	2.408027	-0.349869	0.154536
H128	H	2.379195	-0.306392	0.068766
H129	H	2.353631	-0.322417	0.193699
H130	H	2.471353	-0.330712	0.201796
H131	H	2.907092	-0.188711	1.030413
C132	C	2.876063	-0.192390	0.772461
H133	H	2.843351	-0.192124	0.682967
H134	H	2.899427	-0.120383	0.785253
H135	H	2.937911	-0.269319	0.808510
C136	C	2.367099	-0.151017	1.011069
H137	H	2.399821	-0.151314	1.100568
H138	H	2.305247	-0.074100	0.975034
H139	H	2.343746	-0.223038	0.998272
H140	H	2.336049	-0.154612	0.753098
H141	H	2.441780	-0.716015	-0.059608
