data_functionalizedCrystal
_audit_creation_method	'MofGen! by Chris Wilmer'
_symmetry_space_group_name_H-M	'P1'
_symmetry_Int_Tables_number	1
_symmetry_cell_setting	triclinic
loop_
_symmetry_equiv_pos_as_xyz
  x,y,z
_cell_length_a	14.971506
_cell_length_b	7.540329
_cell_length_c	14.971486
_cell_angle_alpha	90.003801
_cell_angle_beta	83.618258
_cell_angle_gamma	90.003265
loop_
_atom_site_label
_atom_site_type_symbol
_atom_site_fract_x
_atom_site_fract_y
_atom_site_fract_z
O1	O	1.186932	0.147496	0.116647
O2	O	1.686932	0.647496	0.616647
O3	O	0.926534	0.147497	0.130587
O4	O	1.426534	0.647497	0.630587
O5	O	1.063712	0.147484	-0.006582
O6	O	1.563712	0.647484	0.493418
O7	O	1.049753	0.147509	0.253817
O8	O	1.549753	0.647509	0.753817
O9	O	1.063704	-0.147481	-0.006584
O10	O	1.563704	0.352519	0.493416
O11	O	0.926526	-0.147468	0.130586
O12	O	1.426526	0.352532	0.630586
O13	O	1.186923	-0.147469	0.116646
O14	O	1.686923	0.352531	0.616646
Cu15	Cu	1.056724	-0.174401	0.123616
Cu16	Cu	1.556724	0.325599	0.623616
Cu17	Cu	1.056734	0.174429	0.123618
Cu18	Cu	1.556734	0.674429	0.623618
O19	O	1.049745	-0.147456	0.253815
O20	O	1.549745	0.352544	0.753815
C21	C	0.893205	0.000014	0.129960
C22	C	1.393205	0.500014	0.629960
C23	C	0.793909	0.000014	0.128082
C24	C	1.293909	0.500014	0.628082
C25	C	0.355627	0.000040	0.201500
C26	C	0.855627	0.500040	0.701500
C27	C	0.448927	0.000047	0.203258
C28	C	0.948927	0.500047	0.703258
C29	C	0.506147	0.000032	0.122665
C30	C	1.006147	0.500032	0.622665
C31	C	0.470062	0.000026	0.040310
C32	C	0.970062	0.500026	0.540310
C33	C	0.376764	0.000031	0.038553
C34	C	0.876764	0.500031	0.538553
C35	C	0.664525	0.000012	0.043977
C36	C	1.164525	0.500012	0.543977
C37	C	0.757831	0.000003	0.045733
C38	C	1.257831	0.500003	0.545733
C39	C	0.736689	0.000028	0.208681
C40	C	1.236689	0.500028	0.708681
C41	C	0.643390	0.000033	0.206924
C42	C	1.143390	0.500033	0.706924
C43	C	0.607312	0.000024	0.124569
C44	C	1.107312	0.500024	0.624569
N45	N	1.056724	-0.419750	0.123614
N46	N	1.556724	0.080250	0.623614
C47	C	1.220252	0.000017	0.117273
C48	C	1.720252	0.500017	0.617273
C49	C	1.319548	0.000029	0.119151
C50	C	1.819548	0.500029	0.619151
N51	N	1.056741	0.419777	0.123612
N52	N	1.556741	0.919777	0.623612
C53	C	1.063084	0.000002	-0.039908
C54	C	1.563084	0.500002	0.460092
C55	C	1.061213	0.000003	-0.139205
C56	C	1.561213	0.500003	0.360795
C57	C	1.141802	0.000002	-0.196424
C58	C	1.641802	0.500002	0.303576
C59	C	1.140038	0.000019	-0.289724
C60	C	1.640038	0.500019	0.210276
C61	C	1.057686	0.000026	-0.325802
C62	C	1.557686	0.500026	0.174198
C63	C	0.977091	0.000033	-0.268575
C64	C	1.477091	0.500033	0.231425
C65	C	0.978855	0.000028	-0.175278
C66	C	1.478855	0.500028	0.324722
C67	C	0.973420	0.000040	-0.463038
C68	C	1.473420	0.500040	0.036962
C69	C	0.971656	0.000041	-0.556342
C70	C	1.471656	0.500041	-0.056342
C71	C	1.134603	0.000031	-0.577485
C72	C	1.634603	0.500031	-0.077485
C73	C	1.136367	0.000026	-0.484187
C74	C	1.636367	0.500026	0.015813
C75	C	1.055772	0.000029	-0.426966
C76	C	1.555772	0.500029	0.073034
C77	C	1.050374	0.000030	0.287141
C78	C	1.550374	0.500030	0.787141
C79	C	1.052244	0.000040	0.386438
C80	C	1.552244	0.500040	0.886438
H81	H	0.478297	0.000073	0.270314
H82	H	0.978297	0.500073	0.770314
H83	H	0.309044	0.000039	0.267128
H84	H	0.809044	0.500039	0.767128
N85	N	0.337840	-0.000005	-0.050262
N86	N	0.837840	0.499995	0.449738
H87	H	0.299606	0.109340	-0.054625
H88	H	0.799606	0.609340	0.445375
H89	H	0.388290	-0.000090	-0.101002
H90	H	0.888290	0.499910	0.398998
N91	N	0.888271	0.000034	-0.307492
N92	N	1.388271	0.500034	0.192508
H93	H	0.852957	-0.109309	-0.286634
H94	H	1.352957	0.390691	0.213366
H95	H	0.853033	0.109451	-0.286621
H96	H	1.353033	0.609451	0.213379
N97	N	1.221534	0.000040	-0.639193
N98	N	1.721534	0.500040	-0.139193
H99	H	1.257450	-0.109314	-0.627585
H100	H	1.757450	0.390686	-0.127585
H101	H	1.207849	0.000119	-0.703746
H102	H	1.707849	0.500119	-0.203746
H103	H	0.907791	0.000047	-0.416451
H104	H	1.407791	0.500047	0.083549
N105	N	0.882836	0.000063	-0.595259
N106	N	1.382836	0.500063	-0.095259
H107	H	0.832046	0.000082	-0.544855
H108	H	1.332046	0.500082	-0.044855
H109	H	0.878572	0.109414	-0.633505
H110	H	1.378572	0.609414	-0.133505
H111	H	0.516658	0.000024	-0.025310
H112	H	1.016658	0.500024	0.474690
N113	N	0.891936	0.000040	-0.113558
N114	N	1.391936	0.500040	0.386442
H115	H	0.839497	0.000043	-0.150568
H116	H	1.339497	0.500043	0.349432
H117	H	0.889112	-0.109305	-0.074389
H118	H	1.389112	0.390695	0.425611
H119	H	0.766067	0.000034	0.275738
H120	H	1.266067	0.500034	0.775738
N121	N	1.230627	-0.000023	-0.157518
N122	N	1.730627	0.499977	0.342482
H123	H	1.265943	0.109321	-0.178370
H124	H	1.765943	0.609321	0.321630
H125	H	1.219443	-0.000100	-0.089738
H126	H	1.719443	0.499900	0.410262
N127	N	0.581671	-0.000096	0.293846
N128	N	1.081671	0.499904	0.793846
H129	H	0.618682	-0.000131	0.346285
H130	H	1.118682	0.499869	0.846285
H131	H	0.542473	0.109210	0.296708
H132	H	1.042473	0.609210	0.796708
N133	N	1.226958	0.000001	-0.351441
N134	N	1.726958	0.500001	0.148559
H135	H	1.262894	0.109332	-0.339821
H136	H	1.762894	0.609332	0.160179
H137	H	1.262800	-0.109427	-0.339801
H138	H	1.762800	0.390573	0.160199
N139	N	0.819549	-0.000006	-0.041188
N140	N	1.319549	0.499994	0.458812
H141	H	0.782539	0.000005	-0.093627
H142	H	1.282539	0.500005	0.406373
H143	H	0.858725	0.109339	-0.043999
H144	H	1.358725	0.609339	0.456001
N145	N	0.625609	0.000014	-0.044847
N146	N	1.125609	0.500014	0.455153
H147	H	0.676014	-0.000003	-0.095637
H148	H	1.176014	0.499997	0.404363
H149	H	0.587354	-0.109332	-0.049122
H150	H	1.087354	0.390668	0.450878
N151	N	1.225188	-0.000003	-0.445270
N152	N	1.725188	0.499997	0.054730
H153	H	1.275977	-0.000002	-0.495674
H154	H	1.775977	0.499998	0.004326
H155	H	1.229471	0.109340	-0.407014
H156	H	1.729471	0.609340	0.092986
