data_functionalizedCrystal
_audit_creation_method	'MofGen! by Chris Wilmer'
_symmetry_space_group_name_H-M	'P1'
_symmetry_Int_Tables_number	1
_symmetry_cell_setting	triclinic
loop_
_symmetry_equiv_pos_as_xyz
  x,y,z
_cell_length_a	16.109318
_cell_length_b	10.868271
_cell_length_c	16.109301
_cell_angle_alpha	89.993442
_cell_angle_beta	96.534978
_cell_angle_gamma	90.000736
loop_
_atom_site_label
_atom_site_type_symbol
_atom_site_fract_x
_atom_site_fract_y
_atom_site_fract_z
O1	O	1.103123	0.102224	-0.106936
O2	O	1.436456	0.435557	0.226397
O3	O	1.769789	0.768890	0.559730
O4	O	0.861063	0.102249	-0.120221
O5	O	1.194396	0.435583	0.213113
O6	O	1.527729	0.768916	0.546446
O7	O	0.988742	0.102223	0.007452
O8	O	1.322076	0.435557	0.340786
O9	O	1.655409	0.768890	0.674119
O10	O	0.975443	0.102250	-0.234609
O11	O	1.308776	0.435583	0.098724
O12	O	1.642110	0.768916	0.432058
O13	O	0.988732	-0.102421	0.007457
O14	O	1.322065	0.230912	0.340790
O15	O	1.655398	0.564245	0.674124
O16	O	0.861052	-0.102395	-0.120216
O17	O	1.194385	0.230938	0.213118
O18	O	1.527719	0.564271	0.546451
O19	O	1.103112	-0.102421	-0.106931
O20	O	1.436445	0.230912	0.226402
O21	O	1.769779	0.564246	0.559735
Zn22	Zn	0.982080	-0.134900	-0.113573
Zn23	Zn	1.315414	0.198433	0.219761
Zn24	Zn	1.648747	0.531767	0.553094
Zn25	Zn	0.982094	0.134728	-0.113579
Zn26	Zn	1.315428	0.468062	0.219754
Zn27	Zn	1.648761	0.801395	0.553088
O28	O	0.975433	-0.102395	-0.234604
O29	O	1.308766	0.230938	0.098729
O30	O	1.642099	0.564272	0.432063
C31	C	0.830083	-0.000070	-0.119677
C32	C	1.163416	0.333263	0.213656
C33	C	1.496749	0.666597	0.546989
C34	C	0.737788	-0.000061	-0.118057
C35	C	1.071122	0.333273	0.215277
C36	C	1.404455	0.666606	0.548610
C37	C	0.438720	0.111469	-0.112824
C38	C	0.772053	0.444802	0.220509
C39	C	1.105387	0.778136	0.553842
C40	C	0.525441	0.111477	-0.114342
C41	C	0.858775	0.444810	0.218992
C42	C	1.192108	0.778143	0.552325
C43	C	0.525449	-0.111638	-0.114325
C44	C	0.858782	0.221695	0.219008
C45	C	1.192115	0.555028	0.552342
C46	C	0.438730	-0.111645	-0.112802
C47	C	0.772063	0.221689	0.220532
C48	C	1.105397	0.555022	0.553865
C49	C	0.395367	-0.000087	-0.112056
C50	C	0.728701	0.333246	0.221278
C51	C	1.062034	0.666579	0.554611
C52	C	0.568807	-0.000073	-0.115096
C53	C	0.902141	0.333260	0.218237
C54	C	1.235474	0.666593	0.551570
C55	C	0.662835	-0.000066	-0.116742
C56	C	0.996168	0.333268	0.216592
C57	C	1.329501	0.666601	0.549925
C58	C	0.301334	-0.000095	-0.110409
C59	C	0.634668	0.333239	0.222925
C60	C	0.968001	0.666572	0.556258
N61	N	0.982077	-0.318914	-0.113568
N62	N	1.315410	0.014419	0.219766
N63	N	1.648744	0.347753	0.553099
C64	C	0.982090	-0.569920	-0.113577
C65	C	1.315423	-0.236587	0.219756
C66	C	1.648757	0.096747	0.553089
C67	C	0.982080	-0.430242	-0.113574
C68	C	1.315413	-0.096909	0.219759
C69	C	1.648747	0.236424	0.553092
C70	C	1.134092	-0.000099	-0.107474
C71	C	1.467425	0.333234	0.225859
C72	C	1.800759	0.666568	0.559192
C73	C	1.226387	-0.000100	-0.109095
C74	C	1.559720	0.333233	0.224238
C75	C	1.893053	0.666567	0.557571
C76	C	0.988198	-0.000100	0.038430
C77	C	1.321532	0.333234	0.371763
C78	C	1.654865	0.666567	0.705096
C79	C	0.986583	-0.000101	0.130725
C80	C	1.319916	0.333232	0.464058
C81	C	1.653250	0.666565	0.797392
N82	N	0.982104	0.318742	-0.113578
N83	N	1.315438	0.652076	0.219756
N84	N	1.648771	0.985409	0.553089
C85	C	0.975976	-0.000069	-0.265581
C86	C	1.309310	0.333264	0.067752
C87	C	1.642643	0.666597	0.401085
C88	C	0.977592	-0.000060	-0.357877
C89	C	1.310925	0.333274	-0.024543
C90	C	1.644258	0.666607	0.308790
C91	C	1.058590	-0.000089	0.352993
C92	C	1.391924	0.333244	0.686326
C93	C	1.725257	0.666577	1.019660
C94	C	1.057066	-0.000079	0.439713
C95	C	1.390400	0.333254	0.773047
C96	C	1.723733	0.666588	1.106380
C97	C	0.905579	-0.000068	0.419848
C98	C	1.238912	0.333265	0.753182
C99	C	1.572245	0.666599	1.086515
C100	C	0.907104	-0.000069	0.333130
C101	C	1.240437	0.333264	0.666463
C102	C	1.573770	0.666597	0.999796
C103	C	0.983612	-0.000086	0.299704
C104	C	1.316945	0.333247	0.633038
C105	C	1.650279	0.666580	0.966371
C106	C	0.980563	-0.000075	0.473144
C107	C	1.313896	0.333259	0.806477
C108	C	1.647230	0.666592	1.139810
C109	C	0.978910	-0.000063	0.567170
C110	C	1.312243	0.333270	0.900503
C111	C	1.645577	0.666603	1.233837
C112	C	0.985265	-0.000095	0.205672
C113	C	1.318599	0.333238	0.539006
C114	C	1.651932	0.666572	0.872339
H115	H	0.560736	0.202317	-0.114967
H116	H	0.894069	0.535650	0.218367
H117	H	1.227402	0.868984	0.551700
H118	H	0.403417	0.202306	-0.112216
H119	H	0.736750	0.535639	0.221118
H120	H	1.070084	0.868973	0.554451
H121	H	0.560765	-0.202464	-0.114934
H122	H	0.894098	0.130869	0.218399
H123	H	1.227432	0.464202	0.551733
H124	H	0.843288	-0.000057	0.447074
H125	H	1.176622	0.333277	0.780408
H126	H	1.509955	0.666610	1.113741
H127	H	0.403431	-0.202493	-0.112175
H128	H	0.736764	0.130841	0.221159
H129	H	1.070098	0.464174	0.554492
H130	H	1.118121	-0.000079	0.483098
H131	H	1.451455	0.333255	0.816431
H132	H	1.784788	0.666588	1.149765
H133	H	0.846043	-0.000063	0.289740
H134	H	1.179377	0.333270	0.623073
H135	H	1.512710	0.666603	0.956406
H136	H	1.120888	-0.000100	0.325781
H137	H	1.454221	0.333233	0.659115
H138	H	1.787555	0.666566	0.992448
