data_functionalizedCrystal
_audit_creation_method	'MofGen! by Chris Wilmer'
_symmetry_space_group_name_H-M	'P1'
_symmetry_Int_Tables_number	1
_symmetry_cell_setting	triclinic
loop_
_symmetry_equiv_pos_as_xyz
  x,y,z
_cell_length_a	19.077399
_cell_length_b	25.639239
_cell_length_c	19.076919
_cell_angle_alpha	87.731593
_cell_angle_beta	85.520477
_cell_angle_gamma	92.338270
loop_
_atom_site_label
_atom_site_type_symbol
_atom_site_fract_x
_atom_site_fract_y
_atom_site_fract_z
Zn1	Zn	1.061614	-0.187089	0.355385
Zn2	Zn	1.394947	0.146244	0.688719
Zn3	Zn	1.728281	0.479578	1.022052
Zn4	Zn	1.066241	-0.270867	0.237501
Zn5	Zn	1.399574	0.062466	0.570835
Zn6	Zn	1.732908	0.395800	0.904168
Zn7	Zn	0.948469	-0.187103	0.242240
Zn8	Zn	1.281802	0.146230	0.575573
Zn9	Zn	1.615136	0.479563	0.908906
Zn10	Zn	0.943667	-0.278155	0.360070
Zn11	Zn	1.277001	0.055179	0.693403
Zn12	Zn	1.610334	0.388512	1.026736
O13	O	1.004998	-0.230803	0.298799
O14	O	1.338331	0.102530	0.632132
O15	O	1.671665	0.435863	0.965466
O16	O	1.160877	-0.195146	0.335805
O17	O	1.494210	0.138187	0.669138
O18	O	1.827544	0.471520	1.002471
O19	O	1.054564	-0.256712	0.139483
O20	O	1.387898	0.076622	0.472816
O21	O	1.721231	0.409955	0.806150
O22	O	0.963551	-0.113935	0.257272
O23	O	1.296884	0.219399	0.590605
O24	O	1.630218	0.552732	0.923938
O25	O	1.164277	-0.256698	0.249196
O26	O	1.497610	0.076636	0.582529
O27	O	1.830943	0.409969	0.915862
O28	O	1.046678	-0.113924	0.340399
O29	O	1.380012	0.219409	0.673732
O30	O	1.713345	0.552742	1.007066
O31	O	0.968038	-0.195171	0.142964
O32	O	1.301371	0.138163	0.476298
O33	O	1.634704	0.471496	0.809631
O34	O	0.849183	-0.202237	0.261814
O35	O	1.182516	0.131096	0.595147
O36	O	1.515849	0.464429	0.928480
O37	O	0.955367	-0.269119	0.458095
O38	O	1.288700	0.064215	0.791429
O39	O	1.622034	0.397548	1.124762
O40	O	0.845655	-0.269132	0.348383
O41	O	1.178988	0.064201	0.681716
O42	O	1.512322	0.397534	1.015049
O43	O	1.042022	-0.202213	0.454654
O44	O	1.375356	0.131120	0.787987
O45	O	1.708689	0.464454	1.121321
O46	O	1.049908	-0.345000	0.253738
O47	O	1.383242	-0.011667	0.587071
O48	O	1.716575	0.321666	0.920404
O49	O	0.959854	-0.350355	0.343788
O50	O	1.293187	-0.017021	0.677121
O51	O	1.626520	0.316312	1.010455
C52	C	0.821840	-0.236478	0.306121
C53	C	1.155173	0.096856	0.639454
C54	C	1.488507	0.430189	0.972788
C55	C	0.743484	-0.238918	0.309270
C56	C	1.076817	0.094415	0.642603
C57	C	1.410150	0.427749	0.975937
C58	C	0.708485	-0.205188	0.265752
C59	C	1.041818	0.128146	0.599085
C60	C	1.375152	0.461479	0.932418
C61	C	0.634861	-0.207485	0.268710
C62	C	0.968194	0.125848	0.602044
C63	C	1.301527	0.459181	0.935377
C64	C	0.596237	-0.243511	0.315191
C65	C	0.929570	0.089822	0.648525
C66	C	1.262903	0.423155	0.981858
C67	C	0.631241	-0.277245	0.358712
C68	C	0.964574	0.056088	0.692045
C69	C	1.297907	0.389422	1.025378
C70	C	0.704864	-0.274950	0.355749
C71	C	1.038197	0.058384	0.689082
C72	C	1.371530	0.391717	1.022416
C73	C	0.375853	-0.254119	0.328874
C74	C	0.709187	0.079215	0.662208
C75	C	1.042520	0.412548	0.995541
C76	C	0.302225	-0.256411	0.331835
C77	C	0.635559	0.076923	0.665169
C78	C	0.968892	0.410256	0.998502
C79	C	0.305851	-0.186651	0.241833
C80	C	0.639184	0.146682	0.575166
C81	C	0.972517	0.480015	0.908499
C82	C	0.379475	-0.184357	0.238877
C83	C	0.712808	0.148976	0.572210
C84	C	1.046141	0.482310	0.905544
C85	C	0.414472	-0.218093	0.282395
C86	C	0.747806	0.115241	0.615728
C87	C	1.081139	0.448574	0.949061
N88	N	0.520981	-0.245860	0.318218
N89	N	0.854314	0.087474	0.651552
N90	N	1.187648	0.420807	0.984885
N91	N	0.489727	-0.215747	0.279364
N92	N	0.823060	0.117587	0.612697
N93	N	1.156393	0.450920	0.946030
C94	C	1.004881	-0.366649	0.298772
C95	C	1.338214	-0.033315	0.632105
C96	C	1.671547	0.300018	0.965438
C97	C	1.004894	-0.424763	0.298781
C98	C	1.338227	-0.091429	0.632114
C99	C	1.671561	0.241904	0.965447
C100	C	1.052004	-0.782321	0.251982
C101	C	1.385337	-0.448988	0.585315
C102	C	1.718670	-0.115655	0.918649
C103	C	1.052031	-0.836925	0.251990
C104	C	1.385364	-0.503592	0.585324
C105	C	1.718697	-0.170258	0.918657
O106	O	1.091964	-0.862780	0.212170
O107	O	1.425297	-0.529447	0.545503
O108	O	1.758630	-0.196113	0.878837
N109	N	1.005120	-0.867040	0.298841
N110	N	1.338453	-0.533707	0.632174
N111	N	1.671787	-0.200373	0.965508
C112	C	0.958184	-0.842549	0.345691
C113	C	1.291517	-0.509215	0.679024
C114	C	1.624851	-0.175882	1.012358
O115	O	0.918285	-0.873178	0.385542
O116	O	1.251619	-0.539845	0.718875
O117	O	1.584952	-0.206511	1.052209
C118	C	0.958161	-0.787946	0.345685
C119	C	1.291494	-0.454613	0.679019
C120	C	1.624828	-0.121279	1.012352
C121	C	1.005070	-0.757834	0.298827
C122	C	1.338403	-0.424500	0.632160
C123	C	1.671737	-0.091167	0.965494
C124	C	1.098910	-0.752209	0.205128
C125	C	1.432243	-0.418876	0.538461
C126	C	1.765576	-0.085542	0.871795
C127	C	1.098882	-0.697609	0.205119
C128	C	1.432215	-0.364276	0.538452
C129	C	1.765548	-0.030942	0.871786
C130	C	1.051948	-0.673121	0.251964
C131	C	1.385281	-0.339788	0.585297
C132	C	1.718614	-0.006455	0.918631
C133	C	1.005042	-0.703234	0.298818
C134	C	1.338375	-0.369900	0.632151
C135	C	1.671709	-0.036567	0.965485
C136	C	0.911229	-0.763456	0.392538
C137	C	1.244562	-0.430122	0.725872
C138	C	1.577895	-0.096789	1.059205
C139	C	0.911210	-0.708849	0.392529
C140	C	1.244544	-0.375516	0.725863
C141	C	1.577877	-0.042182	1.059196
C142	C	0.958119	-0.678736	0.345671
C143	C	1.291453	-0.345403	0.679004
C144	C	1.624786	-0.012070	1.012338
C145	C	0.958080	-0.624146	0.345654
C146	C	1.291413	-0.290813	0.678987
C147	C	1.624747	0.042521	1.012321
N148	N	1.004991	-0.594031	0.298803
N149	N	1.338324	-0.260698	0.632137
N150	N	1.671658	0.072636	0.965470
C151	C	1.051925	-0.618519	0.251958
C152	C	1.385258	-0.285185	0.585292
C153	C	1.718591	0.048148	0.918625
C154	C	0.958237	-0.957218	0.345700
C155	C	1.291570	-0.623885	0.679033
C156	C	1.624903	-0.290551	1.012366
C157	C	0.958256	-1.011820	0.345702
C158	C	1.291589	-0.678487	0.679036
C159	C	1.624922	-0.345153	1.012369
C160	C	1.052104	-1.006192	0.252002
C161	C	1.385437	-0.672859	0.585336
C162	C	1.718770	-0.339526	0.918669
C163	C	1.052081	-0.951590	0.251997
C164	C	1.385414	-0.618256	0.585330
C165	C	1.718747	-0.284923	0.918664
C166	C	1.005147	-0.927103	0.298849
C167	C	1.338481	-0.593770	0.632182
C168	C	1.671814	-0.260436	0.965516
C169	C	1.051862	-0.503855	0.251943
C170	C	1.385195	-0.170522	0.585276
C171	C	1.718529	0.162812	0.918609
C172	C	1.051828	-0.449250	0.251936
C173	C	1.385161	-0.115917	0.585269
C174	C	1.718494	0.217416	0.918602
C175	C	0.957983	-0.454883	0.345638
C176	C	1.291316	-0.121549	0.678971
C177	C	1.624649	0.211784	1.012304
C178	C	0.958014	-0.509482	0.345642
C179	C	1.291347	-0.176149	0.678976
C180	C	1.624681	0.157184	1.012309
C181	C	1.004959	-0.533967	0.298792
C182	C	1.338293	-0.200634	0.632126
C183	C	1.671626	0.132700	0.965459
O184	O	0.918170	-0.598255	0.385456
O185	O	1.251503	-0.264922	0.718789
O186	O	1.584836	0.068412	1.052123
O187	O	1.091823	-0.587883	0.212120
O188	O	1.425156	-0.254550	0.545454
O189	O	1.758489	0.078783	0.878787
C190	C	1.188871	-0.225108	0.291449
C191	C	1.522204	0.108226	0.624782
C192	C	1.855537	0.441559	0.958116
C193	C	1.267226	-0.222680	0.288317
C194	C	1.600560	0.110653	0.621650
C195	C	1.933893	0.443986	0.954984
C196	C	0.997643	-0.236477	0.482668
C197	C	1.330976	0.096856	0.816001
C198	C	1.664310	0.430189	1.149334
C199	C	0.994509	-0.238895	0.561022
C200	C	1.327842	0.094438	0.894355
C201	C	1.661175	0.427772	1.227688
C202	C	1.005134	-0.094428	0.298841
C203	C	1.338467	0.238906	0.632175
C204	C	1.671801	0.572239	0.965508
C205	C	1.005192	-0.036312	0.298859
C206	C	1.338526	0.297021	0.632193
C207	C	1.671859	0.630354	0.965526
C208	C	1.012365	-0.225113	0.115644
C209	C	1.345698	0.108220	0.448977
C210	C	1.679031	0.441554	0.782311
C211	C	1.015636	-0.222544	0.037285
C212	C	1.348969	0.110790	0.370618
C213	C	1.682302	0.444123	0.703952
C214	C	1.038151	-0.205198	0.596042
C215	C	1.371484	0.128135	0.929375
C216	C	1.704817	0.461468	1.262709
C217	C	1.035197	-0.207468	0.669664
C218	C	1.368530	0.125865	1.002997
C219	C	1.701864	0.459198	1.336331
C220	C	0.988605	-0.243438	0.708265
C221	C	1.321938	0.089895	1.041598
C222	C	1.655271	0.423229	1.374931
C223	C	0.944958	-0.277136	0.673239
C224	C	1.278291	0.056197	1.006573
C225	C	1.611625	0.389531	1.339906
C226	C	0.947909	-0.274863	0.599619
C227	C	1.281242	0.058470	0.932952
C228	C	1.614575	0.391803	1.266285
C229	C	0.974939	-0.253969	0.928639
C230	C	1.308273	0.079365	1.261973
C231	C	1.641606	0.412698	1.595306
C232	C	0.971994	-0.256240	1.002265
C233	C	1.305327	0.077093	1.335598
C234	C	1.638660	0.410426	1.668931
C235	C	1.062232	-0.186572	0.998685
C236	C	1.395565	0.146762	1.332018
C237	C	1.728899	0.480095	1.665351
C238	C	1.065181	-0.184304	0.925063
C239	C	1.398515	0.149029	1.258396
C240	C	1.731848	0.482363	1.591729
C241	C	1.021532	-0.218000	0.890044
C242	C	1.354866	0.115333	1.223377
C243	C	1.688199	0.448667	1.556710
N244	N	0.985586	-0.245760	0.783518
N245	N	1.318920	0.087573	1.116852
N246	N	1.652253	0.420906	1.450185
N247	N	1.024548	-0.215675	0.814792
N248	N	1.357881	0.117658	1.148125
N249	N	1.691214	0.450992	1.481458
H250	H	0.606368	-0.180022	0.233269
H251	H	0.939702	0.153312	0.566602
H252	H	1.273035	0.486645	0.899936
Cl253	Cl	0.582685	-0.322542	0.417135
Cl254	Cl	0.916018	0.010791	0.750468
Cl255	Cl	1.249352	0.344124	1.083802
Cl256	Cl	1.123758	-0.139083	0.876542
Cl257	Cl	1.457091	0.194250	1.209875
Cl258	Cl	1.790424	0.527583	1.543208
H259	H	0.733359	-0.302416	0.391186
H260	H	1.066692	0.030917	0.724520
H261	H	1.400025	0.364250	1.057853
H262	H	0.404339	-0.281589	0.364309
H263	H	0.737673	0.051745	0.697643
H264	H	1.071006	0.385078	1.030976
Cl265	Cl	1.110804	-0.411398	0.193024
Cl266	Cl	1.444137	-0.078065	0.526357
Cl267	Cl	1.777471	0.255269	0.859690
Cl268	Cl	1.157921	-0.782983	0.146229
Cl269	Cl	1.491254	-0.449650	0.479562
Cl270	Cl	1.824587	-0.116317	0.812896
Cl271	Cl	0.428025	-0.139061	0.180448
Cl272	Cl	0.761358	0.194272	0.513781
Cl273	Cl	1.094692	0.527606	0.847114
Cl274	Cl	1.111055	-0.913740	0.193088
Cl275	Cl	1.444388	-0.580406	0.526421
Cl276	Cl	1.777722	-0.247073	0.859755
Cl277	Cl	0.899223	-0.926441	0.404600
Cl278	Cl	1.232556	-0.593107	0.737933
Cl279	Cl	1.565890	-0.259774	1.071267
H280	H	0.739927	-0.175848	0.227907
H281	H	1.073261	0.157486	0.561240
H282	H	1.406594	0.490819	0.894574
Cl283	Cl	0.898987	-0.424088	0.404529
Cl284	Cl	1.232320	-0.090754	0.737862
Cl285	Cl	1.565654	0.242579	1.071196
Cl286	Cl	1.110879	-0.534627	0.193043
Cl287	Cl	1.444212	-0.201294	0.526377
Cl288	Cl	1.777545	0.132040	0.859710
Cl289	Cl	1.157867	-0.659761	0.146218
Cl290	Cl	1.491200	-0.326428	0.479552
Cl291	Cl	1.824533	0.006905	0.812885
Cl292	Cl	0.899274	-1.049669	0.404605
Cl293	Cl	1.232607	-0.716336	0.737938
Cl294	Cl	1.565940	-0.383002	1.071271
H295	H	1.076093	-0.175909	0.564619
H296	H	1.409427	0.157424	0.897952
H297	H	1.742760	0.490757	1.231285
H298	H	1.090322	-1.026140	0.213861
H299	H	1.423655	-0.692807	0.547194
H300	H	1.756989	-0.359473	0.880528
H301	H	1.070737	-0.180030	0.698174
H302	H	1.404070	0.153303	1.031508
H303	H	1.737403	0.486636	1.364841
Cl304	Cl	1.117099	-0.144211	1.042712
Cl305	Cl	1.450432	0.189122	1.376046
Cl306	Cl	1.783766	0.522455	1.709379
Cl307	Cl	0.253670	-0.301702	0.390275
Cl308	Cl	0.587003	0.031631	0.723608
Cl309	Cl	0.920336	0.364964	1.056942
Cl310	Cl	0.913412	-0.301460	1.050791
Cl311	Cl	1.246745	0.031873	1.384124
Cl312	Cl	1.580079	0.365207	1.717457
H313	H	0.939407	-0.281414	0.900135
H314	H	1.272741	0.051919	1.233469
H315	H	1.606074	0.385253	1.566802
Cl316	Cl	0.886382	-0.322354	0.721766
Cl317	Cl	1.219715	0.010980	1.055099
Cl318	Cl	1.553048	0.344313	1.388433
Cl319	Cl	0.261849	-0.144245	0.187127
Cl320	Cl	0.595183	0.189088	0.520460
Cl321	Cl	0.928516	0.522422	0.853793
H322	H	0.912363	-0.302298	0.571107
H323	H	1.245697	0.031036	0.904440
H324	H	1.579030	0.364369	1.237773
Cl325	Cl	0.852261	-0.801298	0.451458
Cl326	Cl	1.185595	-0.467965	0.784791
Cl327	Cl	1.518928	-0.134631	1.118125
H328	H	0.872992	-0.688915	0.430684
H329	H	1.206326	-0.355582	0.764018
H330	H	1.539659	-0.022248	1.097351
H331	H	0.919819	-0.534001	0.383800
H332	H	1.253152	-0.200668	0.717134
H333	H	1.586486	0.132665	1.050467
