data_functionalizedCrystal
_audit_creation_method	'MofGen! by Chris Wilmer'
_symmetry_space_group_name_H-M	'P1'
_symmetry_Int_Tables_number	1
_symmetry_cell_setting	triclinic
loop_
_symmetry_equiv_pos_as_xyz
  x,y,z
_cell_length_a	16.959454
_cell_length_b	14.908932
_cell_length_c	14.908308
_cell_angle_alpha	96.369940
_cell_angle_beta	86.730321
_cell_angle_gamma	86.680301
loop_
_atom_site_label
_atom_site_type_symbol
_atom_site_fract_x
_atom_site_fract_y
_atom_site_fract_z
Zn1	Zn	-0.268023	-1.354240	0.432083
Zn2	Zn	0.231977	-0.854240	0.932083
Zn3	Zn	-0.392126	-1.362878	0.280738
Zn4	Zn	0.107874	-0.862878	0.780738
Zn5	Zn	-0.268056	-1.211613	0.289459
Zn6	Zn	0.231944	-0.711613	0.789459
Zn7	Zn	-0.408259	-1.202849	0.440767
Zn8	Zn	0.091741	-0.702849	0.940767
O9	O	-0.334116	-1.282895	0.360762
O10	O	0.165884	-0.782895	0.860762
O11	O	-0.277719	-1.482048	0.404723
O12	O	0.222281	-0.982048	0.904723
O13	O	-0.368930	-1.350095	0.155233
O14	O	0.131070	-0.850095	0.655233
O15	O	-0.157439	-1.230586	0.308394
O16	O	0.342561	-0.730586	0.808394
O17	O	-0.368897	-1.488395	0.293530
O18	O	0.131103	-0.988395	0.793530
O19	O	-0.157414	-1.335373	0.413180
O20	O	0.342586	-0.835373	0.913180
O21	O	-0.277777	-1.238962	0.161641
O22	O	0.222223	-0.738962	0.661641
O23	O	-0.293420	-1.083788	0.316815
O24	O	0.206580	-0.583788	0.816815
O25	O	-0.396394	-1.215648	0.566276
O26	O	0.103606	-0.715648	1.066276
O27	O	-0.396427	-1.077349	0.427980
O28	O	0.103573	-0.577349	0.927980
O29	O	-0.293363	-1.326875	0.559896
O30	O	0.206637	-0.826875	1.059896
O31	O	-0.504879	-1.341597	0.301950
O32	O	-0.004879	-0.841597	0.801950
O33	O	-0.516732	-1.224024	0.419523
O34	O	-0.016732	-0.724024	0.919523
C35	C	-0.346678	-1.047727	0.374287
C36	C	0.153322	-0.547727	0.874287
C37	C	-0.352073	-0.947119	0.380094
C38	C	0.147927	-0.447119	0.880094
C39	C	-0.539485	-1.282820	0.360751
C40	C	-0.039485	-0.782820	0.860751
C41	C	-0.627341	-1.282869	0.360772
C42	C	-0.127341	-0.782869	0.860772
C43	C	-0.413377	-0.801995	0.446053
C44	C	0.086623	-0.301995	0.946053
C45	C	-0.408309	-0.896524	0.440604
C46	C	0.091691	-0.396524	0.940604
C47	C	-0.300902	-0.903179	0.325027
C48	C	0.199098	-0.403179	0.825027
C49	C	-0.305970	-0.808650	0.330475
C50	C	0.194030	-0.308650	0.830475
C51	C	-0.362208	-0.758061	0.390991
C52	C	0.137792	-0.258061	0.890991
C53	C	-0.367272	-0.663530	0.396444
C54	C	0.132728	-0.163530	0.896444
C55	C	-0.259869	-0.670186	0.280863
C56	C	0.240131	-0.170186	0.780863
C57	C	-0.254801	-0.764716	0.275414
C58	C	0.245199	-0.264716	0.775414
C59	C	-1.005011	-1.221759	0.421971
C60	C	-0.505011	-0.721759	0.921971
C61	C	-0.992609	-1.344278	0.299630
C62	C	-0.492609	-0.844278	0.799630
C63	C	-0.910064	-1.344247	0.299624
C64	C	-0.410064	-0.844247	0.799624
C65	C	-0.874989	-1.282970	0.360791
C66	C	-0.374989	-0.782970	0.860791
C67	C	-0.922459	-1.221725	0.421964
C68	C	-0.422459	-0.721725	0.921964
C69	C	-0.862588	-1.405485	0.238445
C70	C	-0.362588	-0.905485	0.738445
C71	C	-0.780038	-1.405455	0.238436
C72	C	-0.280038	-0.905455	0.738436
C73	C	-0.744962	-1.344182	0.299608
C74	C	-0.244962	-0.844182	0.799608
C75	C	-0.792437	-1.282935	0.360784
C76	C	-0.292437	-0.782935	0.860784
C77	C	-0.757363	-1.221659	0.421952
C78	C	-0.257363	-0.721659	0.921952
C79	C	-0.804836	-1.160415	0.483133
C80	C	-0.304836	-0.660415	0.983133
C81	C	-0.887383	-1.160452	0.483137
C82	C	-0.387383	-0.660452	0.983137
C83	C	-0.662415	-1.344146	0.299605
C84	C	-0.162415	-0.844146	0.799605
C85	C	-0.674810	-1.221624	0.421945
C86	C	-0.174810	-0.721624	0.921945
C87	C	-0.127944	-1.282994	0.360791
C88	C	0.372056	-0.782994	0.860791
C89	C	-0.040086	-1.283036	0.360804
C90	C	0.459914	-0.783036	0.860804
C91	C	-0.346674	-1.269320	0.596847
C92	C	0.153326	-0.769320	1.096847
C93	C	-0.352026	-1.263536	0.697452
C94	C	0.147974	-0.763536	1.197452
C95	C	-0.321497	-0.518982	0.347179
C96	C	0.178503	-0.018982	0.847179
C97	C	-0.316101	-0.619589	0.341377
C98	C	0.183899	-0.119589	0.841377
C99	C	-0.321546	-1.296469	0.125593
C100	C	0.178454	-0.796469	0.625593
C101	C	-0.315963	-1.302429	0.024978
C102	C	0.184037	-0.802429	0.524978
C103	C	-0.254778	-1.368483	0.879858
C104	C	0.245222	-0.868483	1.379858
C105	C	-0.259804	-1.363051	0.974386
C106	C	0.240196	-0.863051	1.474386
C107	C	-0.367098	-1.247234	0.981036
C108	C	0.132902	-0.747234	1.481036
C109	C	-0.362073	-1.252667	0.886509
C110	C	0.137927	-0.752667	1.386509
C111	C	-0.305912	-1.313294	0.835923
C112	C	0.194088	-0.813294	1.335923
C113	C	-0.300890	-1.318731	0.741393
C114	C	0.199110	-0.818731	1.241393
C115	C	-0.408181	-1.202910	0.748046
C116	C	0.091819	-0.702910	1.248046
C117	C	-0.413206	-1.197478	0.842573
C118	C	0.086794	-0.697478	1.342573
H119	H	-0.413062	-0.622341	0.445723
H120	H	0.086938	-0.122341	0.945723
C121	C	-0.428867	-1.180548	1.036686
C122	C	0.071133	-0.680548	1.536686
H123	H	-0.458600	-1.148450	0.996984
H124	H	0.041400	-0.648450	1.496984
H125	H	-0.463414	-1.213037	1.071571
H126	H	0.036586	-0.713037	1.571571
H127	H	-0.402690	-1.139000	1.075828
H128	H	0.097310	-0.639000	1.575828
C129	C	-0.939601	-1.093087	0.550427
C130	C	-0.439601	-0.593087	1.050427
H131	H	-0.906891	-1.056593	0.586863
H132	H	-0.406891	-0.556593	1.086863
H133	H	-0.972098	-1.055684	0.518039
H134	H	-0.472098	-0.555684	1.018039
H135	H	-0.972021	-1.125431	0.587906
H136	H	-0.472021	-0.625431	1.087906
H137	H	-0.218164	-1.407989	1.010154
H138	H	0.281836	-0.907989	1.510154
C139	C	-0.464598	-0.944854	0.501163
C140	C	0.035402	-0.444854	1.001163
H141	H	-0.453533	-1.008398	0.489245
H142	H	0.046467	-0.508398	0.989245
H143	H	-0.457188	-0.925878	0.562895
H144	H	0.042812	-0.425878	1.062895
H145	H	-0.517810	-0.930111	0.488691
H146	H	-0.017810	-0.430111	0.988691
H147	H	-0.458930	-1.148115	0.883773
H148	H	0.041070	-0.648115	1.383773
H149	H	-0.449820	-1.157974	0.712264
H150	H	0.050180	-0.657974	1.212264
H151	H	-0.623766	-1.394005	0.249787
H152	H	-0.123766	-0.894005	0.749787
C153	C	-0.727825	-1.472827	0.171148
C154	C	-0.227825	-0.972827	0.671148
H155	H	-0.760538	-1.509329	0.134726
H156	H	-0.260538	-1.009329	0.634726
H157	H	-0.695398	-1.440497	0.133669
H158	H	-0.195398	-0.940497	0.633669
H159	H	-0.695333	-1.510234	0.203546
H160	H	-0.195333	-1.010234	0.703546
H161	H	-0.218200	-0.634405	0.236031
H162	H	0.281800	-0.134405	0.736031
C163	C	-0.239050	-0.958837	0.258463
C164	C	0.260950	-0.458837	0.758463
H165	H	-0.243361	-1.021426	0.263109
H166	H	0.256639	-0.521426	0.763109
H167	H	-0.248129	-0.946830	0.198520
H168	H	0.251871	-0.446830	0.698520
H169	H	-0.187494	-0.942599	0.272709
H170	H	0.312506	-0.442599	0.772709
C171	C	-1.031189	-1.411680	0.232357
C172	C	-0.531189	-0.911680	0.732357
H173	H	-1.087150	-1.402934	0.241127
H174	H	-0.587150	-0.902934	0.741127
H175	H	-1.015153	-1.401985	0.172286
H176	H	-0.515153	-0.901985	0.672286
H177	H	-1.015076	-1.471716	0.242170
H178	H	-0.515076	-0.971716	0.742170
H179	H	-0.209015	-0.805918	0.226141
H180	H	0.290985	-0.305918	0.726141
C181	C	-0.239117	-1.385414	0.685746
C182	C	0.260883	-0.885414	1.185746
H183	H	-0.243450	-1.380753	0.623155
H184	H	0.256550	-0.880753	1.123155
H185	H	-0.187540	-1.371298	0.702006
H186	H	0.312460	-0.871298	1.202006
H187	H	-0.248261	-1.445338	0.697739
H188	H	0.251739	-0.945338	1.197739
H189	H	-1.043668	-1.171899	0.471786
H190	H	-0.543668	-0.671899	0.971786
H191	H	-0.459162	-0.760804	0.495335
H192	H	0.040838	-0.260804	0.995335
C193	C	-0.636234	-1.154219	0.489232
C194	C	-0.136234	-0.654219	0.989232
H195	H	-0.676332	-1.117750	0.525662
H196	H	-0.176332	-0.617750	1.025662
H197	H	-0.604249	-1.186529	0.526702
H198	H	-0.104249	-0.686529	1.026702
H199	H	-0.604333	-1.116782	0.456835
H200	H	-0.104333	-0.616782	0.956835
C201	C	-0.766252	-1.093015	0.550417
C202	C	-0.266252	-0.593015	1.050417
H203	H	-0.806344	-1.056543	0.586853
H204	H	-0.306344	-0.556543	1.086853
H205	H	-0.734265	-1.125329	0.587882
H206	H	-0.234265	-0.625329	1.087882
H207	H	-0.734350	-1.055581	0.518017
H208	H	-0.234350	-0.555581	1.018017
H209	H	-0.891152	-1.455366	0.188640
H210	H	-0.391152	-0.955366	0.688640
C211	C	-0.193005	-1.435166	0.824212
C212	C	0.306995	-0.935166	1.324212
H213	H	-0.163267	-1.467255	0.863917
H214	H	0.336733	-0.967255	1.363917
H215	H	-0.219170	-1.476709	0.785060
H216	H	0.280830	-0.976709	1.285060
H217	H	-0.158452	-1.402667	0.789338
H218	H	0.341548	-0.902667	1.289338
