data_functionalizedCrystal
_audit_creation_method	'MofGen! by Chris Wilmer'
_symmetry_space_group_name_H-M	'P1'
_symmetry_Int_Tables_number	1
_symmetry_cell_setting	triclinic
loop_
_symmetry_equiv_pos_as_xyz
  x,y,z
_cell_length_a	9.065215
_cell_length_b	14.044220
_cell_length_c	7.540329
_cell_angle_alpha	89.995368
_cell_angle_beta	90.002218
_cell_angle_gamma	90.898179
loop_
_atom_site_label
_atom_site_type_symbol
_atom_site_fract_x
_atom_site_fract_y
_atom_site_fract_z
O1	O	-1.975819	0.139128	-0.147459
O2	O	-1.547799	0.150544	-0.147469
O3	O	-1.755385	0.006797	-0.147447
O4	O	-1.768234	0.282876	-0.147482
O5	O	-1.755371	0.006795	0.147518
O6	O	-1.547785	0.150542	0.147496
O7	O	-1.975805	0.139127	0.147506
Cu8	Cu	-1.761794	0.144834	0.174434
Cu9	Cu	-1.761810	0.144836	-0.174397
O10	O	-1.768220	0.282874	0.147483
C11	C	-1.492684	0.149447	0.000012
C12	C	-1.328477	0.146168	0.000009
C13	C	-1.749753	-0.028567	0.000036
C14	C	-1.732976	-0.133937	0.000038
C15	C	-1.702304	-0.326861	0.000012
C16	C	-1.821294	-0.383474	0.000009
C17	C	-1.804227	-0.490823	-0.000005
C18	C	-1.719368	-0.219501	0.000026
C19	C	-1.030921	0.140224	0.000020
C20	C	-1.195127	0.143502	0.000008
C21	C	-1.773851	0.318238	-0.000004
C22	C	-1.790628	0.423608	-0.000017
N23	N	-1.761793	0.144832	0.419782
N24	N	-1.761822	0.144831	-0.419745
H25	H	-1.935980	-0.351319	-0.000107
F26	F	-1.552409	-0.368887	-0.000001
