data_functionalizedCrystal
_audit_creation_method	'MofGen! by Chris Wilmer'
_symmetry_space_group_name_H-M	'P1'
_symmetry_Int_Tables_number	1
_symmetry_cell_setting	triclinic
loop_
_symmetry_equiv_pos_as_xyz
  x,y,z
_cell_length_a	18.426585
_cell_length_b	21.606444
_cell_length_c	21.606444
_cell_angle_alpha	59.998382
_cell_angle_beta	90.000908
_cell_angle_gamma	59.994711
loop_
_atom_site_label
_atom_site_type_symbol
_atom_site_fract_x
_atom_site_fract_y
_atom_site_fract_z
Zr1	Zr	0.698971	0.677582	-0.081325
O2	O	0.583068	0.806713	-0.180162
O3	O	0.734520	0.548445	-0.051014
O4	O	0.734493	0.677579	-0.180148
O5	O	0.583094	0.677583	0.050822
O6	O	0.853919	0.677583	-0.180151
O7	O	0.583094	0.677579	-0.051028
O8	O	0.853966	0.446586	0.050847
O9	O	0.583047	0.908581	-0.180176
O10	O	0.838785	0.601566	-0.038103
O11	O	0.749658	0.601566	0.037908
O12	O	0.749627	0.753605	-0.114131
O13	O	0.660501	0.753605	-0.038120
Zr14	Zr	0.889441	0.677596	0.081110
Zr15	Zr	0.889441	0.677589	-0.081329
Zr16	Zr	0.698970	0.677589	0.081114
Zr17	Zr	0.698937	0.840049	-0.081347
Zr18	Zr	0.889474	0.515128	0.081131
O19	O	0.853892	0.806733	0.050799
O20	O	0.853892	0.806723	-0.180168
O21	O	0.583067	0.806723	0.050805
O22	O	1.005344	0.548464	0.179947
O23	O	1.005344	0.548454	-0.051020
O24	O	0.734519	0.548455	0.179953
O25	O	1.005317	0.677594	-0.051037
O26	O	0.853918	0.677599	0.179933
O27	O	0.734492	0.677594	0.179935
O28	O	1.005317	0.677599	0.050813
O29	O	0.734445	0.908586	-0.180179
O30	O	0.853966	0.446591	0.179964
O31	O	1.005365	0.446597	0.179960
O32	O	1.005365	0.446591	0.050843
O33	O	0.583046	0.908586	-0.051059
O34	O	0.734445	0.908592	-0.051062
O35	O	0.838784	0.601572	0.113915
O36	O	0.927911	0.601572	0.037904
O37	O	0.838753	0.753611	-0.038123
O38	O	0.749627	0.753611	0.037888
C39	C	0.555956	0.677580	-0.000103
C40	C	0.475096	0.677577	-0.000101
C41	C	0.794205	0.677597	0.203078
C42	C	0.794205	0.677600	0.272038
C43	C	0.794164	0.880810	-0.000135
C44	C	0.794149	0.949782	-0.000144
C45	C	0.178982	0.677603	-0.000114
C46	C	0.261368	0.677600	-0.000112
C47	C	0.327036	0.677590	-0.000108
C48	C	0.409428	0.677587	-0.000105
C49	C	1.032455	0.677597	-0.000113
C50	C	1.113315	0.677600	-0.000115
C51	C	0.794248	0.474367	-0.000081
C52	C	0.794262	0.405395	-0.000071
C53	C	0.747632	0.982177	0.039537
C54	C	0.747651	1.046958	0.039551
C55	C	0.794183	1.079347	-0.000121
C56	C	0.840706	1.046946	-0.039803
C57	C	0.840692	0.982162	-0.039812
C58	C	0.840767	1.308213	-0.039767
C59	C	0.840775	1.373004	-0.039757
C60	C	0.747725	1.373009	0.039596
C61	C	0.747711	1.308225	0.039587
C62	C	0.794238	1.275826	-0.000092
C63	C	0.794218	1.205582	-0.000105
C64	C	0.794198	1.149595	-0.000113
C65	C	0.794206	0.677580	-0.203294
C66	C	0.794206	0.677577	-0.272253
C67	C	0.747668	0.756963	0.264751
C68	C	0.747664	0.756960	0.329549
C69	C	0.794203	0.677595	0.401632
C70	C	0.840742	0.598226	0.408916
C71	C	0.840740	0.598230	0.344120
C72	C	0.840749	0.598211	0.670235
C73	C	0.840750	0.598214	0.735033
C74	C	0.747672	0.756942	0.655663
C75	C	0.747671	0.756945	0.590867
C76	C	0.794206	0.677577	0.598157
C77	C	0.794208	0.677581	0.527896
C78	C	0.794206	0.677590	0.471892
C79	C	1.032497	0.474376	-0.000086
C80	C	1.113371	0.405407	-0.000078
C81	C	0.794247	0.474376	0.203105
C82	C	0.794262	0.405407	0.272074
C83	C	1.032497	0.474384	0.203100
C84	C	1.113371	0.405419	0.272067
C85	C	0.555914	0.880793	-0.203316
C86	C	0.475041	0.949759	-0.272282
C87	C	0.555914	0.880802	-0.000130
C88	C	0.475040	0.949771	-0.000137
C89	C	0.794164	0.880802	-0.203321
C90	C	0.794150	0.949770	-0.272289
C91	C	1.104828	0.373015	-0.039757
C92	C	1.180810	0.308221	-0.039765
C93	C	1.265335	0.275815	-0.000090
C94	C	1.273877	0.308213	0.039590
C95	C	1.197896	0.373011	0.039593
C96	C	0.840791	0.373022	0.344144
C97	C	0.840801	0.308228	0.408954
C98	C	0.794286	0.275815	0.401691
C99	C	0.747751	0.308207	0.329614
C100	C	0.747736	0.373004	0.264806
C101	C	1.197881	0.373032	0.264778
C102	C	1.273878	0.308240	0.329573
C103	C	1.265363	0.275832	0.401657
C104	C	1.180844	0.308226	0.408945
C105	C	1.104849	0.373020	0.344151
C106	C	0.390530	0.982154	-0.264993
C107	C	0.314533	1.046965	-0.329788
C108	C	0.323049	1.079377	-0.401873
C109	C	0.407568	1.046979	-0.409161
C110	C	0.483563	0.982173	-0.344366
C111	C	0.483584	0.982169	0.039534
C112	C	0.407601	1.046981	0.039525
C113	C	0.323076	1.079390	-0.000153
C114	C	0.314534	1.046988	-0.039829
C115	C	0.390516	0.982182	-0.039823
C116	C	0.840674	0.982162	-0.265003
C117	C	0.840678	1.046957	-0.329800
C118	C	0.794152	1.079363	-0.401883
C119	C	0.747627	1.046965	-0.409168
C120	C	0.747628	0.982167	-0.344372
H121	H	0.709735	0.955814	0.071838
H122	H	0.261161	1.132146	-0.454627
C123	C	1.171394	0.272587	-0.083409
N124	N	1.164299	0.245747	-0.116280
C125	C	0.696457	0.844253	0.511576
N126	N	0.657872	0.910015	0.451854
H127	H	0.794305	0.223053	0.454468
H128	H	0.709880	0.281807	0.323712
H129	H	0.709747	1.073360	-0.467867
C130	C	0.891938	0.510904	0.678264
N131	N	0.930495	0.445140	0.684311
H132	H	0.878699	0.281862	0.467636
H133	H	0.709849	0.399364	0.206125
H134	H	1.342708	0.281819	0.071892
H135	H	0.878669	0.399405	0.350072
H136	H	0.414574	1.073352	0.071837
C137	C	0.416920	1.082633	-0.488461
N138	N	0.423961	1.109484	-0.548192
H139	H	1.204831	0.399408	0.206089
H140	H	0.709844	1.399393	0.071907
H141	H	0.878648	0.533581	0.793728
H142	H	1.036039	0.399382	0.350096
C143	C	1.207309	0.408626	0.083254
N144	N	1.214405	0.435447	0.116142
H145	H	1.173923	0.281830	0.467645
C146	C	1.366840	0.272611	0.321539
N147	N	1.436858	0.245775	0.315486
C148	C	0.891973	1.408625	-0.083396
N149	N	0.930534	1.435455	-0.116263
H150	H	0.878631	0.533606	0.467612
C151	C	0.221548	1.082635	-0.083459
N152	N	0.151508	1.109479	-0.116314
C153	C	0.696431	0.946554	-0.352400
N154	N	0.657864	0.919737	-0.358452
H155	H	0.552373	0.955798	-0.350310
H156	H	1.036010	0.399399	-0.072074
H157	H	0.552402	0.955787	0.071850
C158	C	1.348969	0.204549	0.472927
N159	N	1.411944	0.150856	0.526604
C160	C	0.381142	0.946519	-0.185706
N161	N	0.374063	0.919688	-0.125989
C162	C	0.221571	1.082589	-0.321755
N163	N	0.151554	1.109419	-0.315701
C164	C	0.891857	1.082587	-0.321769
N165	N	0.930403	1.109423	-0.315718
C166	C	0.239502	1.150675	-0.000147
N167	N	0.176557	1.204365	-0.000138
H168	H	0.383547	0.955804	-0.072127
C169	C	0.891938	0.510925	0.352138
N170	N	0.930499	0.445164	0.358180
H171	H	0.878561	0.955787	-0.206315
C172	C	0.696474	0.844265	0.321527
N173	N	0.657918	0.910027	0.315483
H174	H	0.794158	1.132126	-0.454638
H175	H	0.709816	1.281860	0.071889
C176	C	0.696512	1.082560	0.083232
N177	N	0.658005	1.109364	0.116146
H178	H	0.878648	1.281841	-0.072077
C179	C	0.891875	1.082592	-0.083458
N180	N	0.930406	1.109448	-0.116348
H181	H	0.709773	0.821591	0.206061
C182	C	1.348909	0.204529	-0.000095
N183	N	1.411854	0.150834	-0.000099
H184	H	0.878573	0.955785	-0.072123
H185	H	0.709778	0.821567	0.649733
