data_functionalizedCrystal
_audit_creation_method	'MofGen! by Chris Wilmer'
_symmetry_space_group_name_H-M	'P1'
_symmetry_Int_Tables_number	1
_symmetry_cell_setting	triclinic
loop_
_symmetry_equiv_pos_as_xyz
  x,y,z
_cell_length_a	16.625548
_cell_length_b	19.121063
_cell_length_c	16.625525
_cell_angle_alpha	92.346297
_cell_angle_beta	89.938871
_cell_angle_gamma	92.470058
loop_
_atom_site_label
_atom_site_type_symbol
_atom_site_fract_x
_atom_site_fract_y
_atom_site_fract_z
Zn1	Zn	1.219314	-0.279135	-0.469556
Zn2	Zn	1.719314	0.220865	0.030444
Zn3	Zn	1.213355	-0.396718	-0.340471
Zn4	Zn	1.713355	0.103282	0.159529
Zn5	Zn	1.084373	-0.279293	-0.334744
Zn6	Zn	1.584373	0.220707	0.165256
Zn7	Zn	1.078688	-0.396546	-0.475253
Zn8	Zn	1.578688	0.103454	0.024747
O9	O	1.148932	-0.337923	-0.405006
O10	O	1.648932	0.162077	0.094994
O11	O	1.331356	-0.294738	-0.452445
O12	O	1.831356	0.205262	0.047555
O13	O	1.196130	-0.381280	-0.226885
O14	O	1.696130	0.118720	0.273115
O15	O	1.107146	-0.180992	-0.347846
O16	O	1.607146	0.319008	0.152154
O17	O	1.326978	-0.381126	-0.357607
O18	O	1.826978	0.118874	0.142393
O19	O	1.206286	-0.180876	-0.446892
O20	O	1.706286	0.319124	0.053108
O21	O	1.101367	-0.295008	-0.222678
O22	O	1.601367	0.204992	0.277322
O23	O	0.970786	-0.294841	-0.353370
O24	O	1.470786	0.205159	0.146630
O25	O	1.097457	-0.380833	-0.587323
O26	O	1.597457	0.119167	-0.087323
O27	O	0.966610	-0.380987	-0.456601
O28	O	1.466610	0.119013	0.043399
O29	O	1.200774	-0.294571	-0.583138
O30	O	1.700774	0.205429	-0.083138
O31	O	1.190618	-0.494975	-0.363131
O32	O	1.690618	0.005025	0.136869
O33	O	1.091679	-0.494849	-0.462154
O34	O	1.591679	0.005151	0.037846
C35	C	0.939442	-0.337913	-0.404983
C36	C	1.439442	0.162087	0.095017
C37	C	0.849820	-0.337926	-0.404993
C38	C	1.349820	0.162074	0.095007
C39	C	1.139907	-0.520395	-0.413900
C40	C	1.639907	-0.020395	0.086100
C41	C	1.136120	-0.598457	-0.417732
C42	C	1.636120	-0.098457	0.082268
C43	C	0.521644	-0.337930	-0.405028
C44	C	1.021644	0.162070	0.094972
C45	C	0.612953	-0.337927	-0.405015
C46	C	1.112953	0.162073	0.094985
C47	C	0.685729	-0.337928	-0.405010
C48	C	1.185729	0.162072	0.094990
C49	C	0.777044	-0.337924	-0.404999
C50	C	1.277044	0.162076	0.095001
C51	C	1.185893	-0.635173	-0.368018
C52	C	1.685893	-0.135173	0.131982
C53	C	1.182336	-0.708521	-0.371627
C54	C	1.682336	-0.208521	0.128373
C55	C	1.129001	-0.745152	-0.424945
C56	C	1.629001	-0.245152	0.075055
C57	C	1.079226	-0.708430	-0.474664
C58	C	1.579226	-0.208430	0.025336
C59	C	1.082788	-0.635084	-0.471059
C60	C	1.582788	-0.135084	0.028941
C61	C	1.115672	-0.966608	-0.438411
C62	C	1.615672	-0.466608	0.061589
C63	C	1.112112	-1.039960	-0.442011
C64	C	1.612112	-0.539960	0.057989
C65	C	1.215224	-1.040046	-0.338974
C66	C	1.715224	-0.540046	0.161026
C67	C	1.218777	-0.966698	-0.335370
C68	C	1.718777	-0.466698	0.164630
C69	C	1.169005	-0.929983	-0.385092
C70	C	1.669005	-0.429983	0.114908
C71	C	1.125362	-0.820125	-0.428633
C72	C	1.625362	-0.320125	0.071367
C73	C	1.172649	-0.855011	-0.381408
C74	C	1.672649	-0.355011	0.118592
C75	C	1.359241	-0.337934	-0.405029
C76	C	1.859241	0.162066	0.094971
C77	C	1.448862	-0.337938	-0.405039
C78	C	1.948862	0.162062	0.094961
C79	C	1.149146	-0.337666	-0.615303
C80	C	1.649146	0.162334	-0.115303
C81	C	1.149238	-0.337556	-0.704919
C82	C	1.649238	0.162444	-0.204919
C83	C	1.158015	-0.154738	-0.396095
C84	C	1.658015	0.345262	0.103905
C85	C	1.161885	-0.076676	-0.392297
C86	C	1.661885	0.423324	0.107703
C87	C	1.148768	-0.338129	-0.195524
C88	C	1.648768	0.161871	0.304476
C89	C	1.148843	-0.338041	-0.105899
C90	C	1.648843	0.161959	0.394101
C91	C	1.148917	-0.337958	-0.033113
C92	C	1.648917	0.162042	0.466887
C93	C	1.149009	-0.337848	0.058201
C94	C	1.649009	0.162152	0.558201
C95	C	1.149078	-0.337757	0.130981
C96	C	1.649078	0.162243	0.630981
C97	C	1.149168	-0.337647	0.222301
C98	C	1.649168	0.162353	0.722301
H99	H	1.222866	-0.738412	-0.331144
H100	H	1.722866	-0.238412	0.168856
H101	H	1.216077	-0.825185	-0.337999
H102	H	1.716077	-0.325185	0.162001
H103	H	1.262207	-0.936875	-0.291954
H104	H	1.762207	-0.436875	0.208046
C105	C	1.269974	-1.080430	-0.284288
C106	C	1.769974	-0.580430	0.215712
H107	H	1.302244	-1.048109	-0.252015
H108	H	1.802244	-0.548109	0.247985
H109	H	1.303725	-1.108969	-0.316565
H110	H	1.803725	-0.608969	0.183435
H111	H	1.237728	-1.109120	-0.250533
H112	H	1.737728	-0.609120	0.249467
H113	H	1.068690	-1.069782	-0.485443
H114	H	1.568690	-0.569782	0.014557
C115	C	1.060910	-0.926231	-0.493089
C116	C	1.560910	-0.426231	0.006911
H117	H	1.028628	-0.958553	-0.525349
H118	H	1.528628	-0.458553	-0.025349
H119	H	1.093141	-0.897536	-0.526844
H120	H	1.593141	-0.397536	-0.026844
H121	H	1.027158	-0.897698	-0.460798
H122	H	1.527158	-0.397698	0.039202
H123	H	1.042258	-0.605190	-0.511542
H124	H	1.542258	-0.105190	-0.011542
C125	C	1.020560	-0.748718	-0.533317
C126	C	1.520560	-0.248718	-0.033317
H127	H	0.991433	-0.716344	-0.562414
H128	H	1.491433	-0.216344	-0.062414
H129	H	0.984029	-0.777406	-0.503854
H130	H	1.484029	-0.277406	-0.003854
H131	H	1.050030	-0.777250	-0.569882
H132	H	1.550030	-0.277250	-0.069882
C133	C	1.244563	-0.594887	-0.309369
C134	C	1.744563	-0.094887	0.190631
H135	H	1.273702	-0.627261	-0.280284
H136	H	1.773702	-0.127261	0.219716
H137	H	1.215104	-0.566352	-0.272804
H138	H	1.715104	-0.066352	0.227196
H139	H	1.281096	-0.566201	-0.338842
H140	H	1.781096	-0.066201	0.161158
H141	H	1.081935	-0.849957	-0.472044
H142	H	1.581935	-0.349957	0.027956
