data_functionalizedCrystal
_audit_creation_method	'MofGen! by Chris Wilmer'
_symmetry_space_group_name_H-M	'P1'
_symmetry_Int_Tables_number	1
_symmetry_cell_setting	triclinic
loop_
_symmetry_equiv_pos_as_xyz
  x,y,z
_cell_length_a	9.065218
_cell_length_b	9.130313
_cell_length_c	9.065215
_cell_angle_alpha	90.000333
_cell_angle_beta	85.015291
_cell_angle_gamma	90.000341
loop_
_atom_site_label
_atom_site_type_symbol
_atom_site_fract_x
_atom_site_fract_y
_atom_site_fract_z
O1	O	1.960391	0.121800	0.216350
O2	O	1.531106	0.121802	0.234097
O3	O	1.754624	0.121794	0.010581
O4	O	1.736873	0.121807	0.439866
O5	O	1.754621	-0.121804	0.010587
O6	O	1.531103	-0.121797	0.234103
O7	O	1.960388	-0.121799	0.216356
Cu8	Cu	1.745745	-0.144041	0.225230
Cu9	Cu	1.745749	0.144043	0.225223
O10	O	1.736870	-0.121792	0.439872
C11	C	1.476118	0.000002	0.232394
C12	C	1.312275	0.000003	0.227295
N13	N	1.745754	-0.346663	0.225235
C14	C	1.844753	-0.423318	0.126296
C15	C	1.844749	-0.576655	0.126278
C16	C	1.646741	-0.576668	0.324151
C17	C	1.646739	-0.423334	0.324160
C18	C	1.943768	-0.346647	0.027370
C19	C	2.042777	-0.423303	-0.071575
C20	C	2.042773	-0.576640	-0.071593
C21	C	1.943760	-0.653321	0.027335
C22	C	2.015376	0.000003	0.218059
C23	C	2.179219	0.000012	0.223159
C24	C	1.752917	-0.000003	-0.044403
C25	C	1.747819	0.000001	-0.208246
N26	N	1.745752	0.346666	0.225207
C27	C	1.738576	0.000009	0.494856
C28	C	1.743674	0.000014	0.658699
H29	H	2.123382	-0.360861	-0.152128
H30	H	2.123379	-0.639051	-0.152168
C31	C	1.392460	-0.623906	0.407218
C32	C	1.537918	-0.660958	0.432889
H33	H	1.325281	-0.675951	0.474347
H34	H	1.378295	-0.521629	0.421394
H35	H	1.375152	-0.649035	0.308507
H36	H	1.555230	-0.635819	0.531598
H37	H	1.552090	-0.763258	0.418726
H38	H	1.943783	-0.221793	0.027379
C39	C	1.912132	-0.872955	-0.112141
C40	C	1.943745	-0.821873	0.027309
H41	H	1.912133	-0.977009	-0.112155
H42	H	1.817569	-0.838262	-0.133631
H43	H	1.985271	-0.838255	-0.185208
H44	H	1.870598	-0.856564	0.100375
H45	H	2.038320	-0.856581	0.048816
H46	H	1.566123	-0.360921	0.404724
