data_functionalizedCrystal
_audit_creation_method	'MofGen! by Chris Wilmer'
_symmetry_space_group_name_H-M	'P1'
_symmetry_Int_Tables_number	1
_symmetry_cell_setting	triclinic
loop_
_symmetry_equiv_pos_as_xyz
  x,y,z
_cell_length_a	10.489741
_cell_length_b	10.489741
_cell_length_c	9.565339
_cell_angle_alpha	89.992742
_cell_angle_beta	89.999736
_cell_angle_gamma	84.539174
loop_
_atom_site_label
_atom_site_type_symbol
_atom_site_fract_x
_atom_site_fract_y
_atom_site_fract_z
O1	O	1.694050	0.179973	-0.116173
O2	O	1.322855	0.196866	-0.116194
O3	O	1.516899	0.002822	-0.116175
O4	O	1.500006	0.374018	-0.116192
O5	O	1.516889	0.002805	0.116345
O6	O	1.322844	0.196849	0.116326
O7	O	1.694040	0.179956	0.116347
Zn8	Zn	1.508441	0.188400	0.153254
Zn9	Zn	1.508454	0.188423	-0.153101
O10	O	1.499996	0.374000	0.116328
C11	C	1.275318	0.195582	0.000063
C12	C	1.133688	0.191765	0.000055
C13	C	1.065548	0.068300	0.000074
C14	C	0.973427	0.126632	-0.114571
C15	C	0.973450	0.126644	0.114676
C16	C	1.043432	0.250147	-0.114684
C17	C	1.043465	0.250143	0.114665
C18	C	0.951371	0.308564	-0.000007
C19	C	1.515618	-0.044718	0.000084
C20	C	1.511801	-0.186348	0.000082
C21	C	1.388336	-0.254488	0.000064
C22	C	1.446655	-0.346619	0.114712
C23	C	1.446694	-0.346576	-0.114534
C24	C	1.570170	-0.276613	0.114824
C25	C	1.570192	-0.276561	-0.114525
C26	C	1.628600	-0.368665	0.000150
C27	C	1.741577	0.181241	0.000087
C28	C	1.883206	0.185058	0.000086
C29	C	1.501277	0.421541	0.000066
C30	C	1.505094	0.563170	0.000059
N31	N	1.508441	0.188384	0.362334
N32	N	1.508464	0.188429	-0.362180
C33	C	1.597477	0.097938	0.546678
C34	C	1.624310	0.213085	0.453436
C35	C	1.481664	0.073246	0.453506
C36	C	1.535356	0.303634	0.546629
C37	C	1.392658	0.163720	0.546707
C38	C	1.419443	0.278950	0.453507
H39	H	0.901947	0.410168	-0.000074
O40	O	1.763176	-0.434155	0.000234
H41	H	1.814097	-0.406131	0.095494
H42	H	1.344155	0.355539	0.412856
O43	O	1.084618	0.319270	0.243044
H44	H	1.056901	0.267816	0.338081
H45	H	1.622361	-0.245788	0.211859
O46	O	0.932416	0.057426	0.243077
H47	H	0.978586	-0.042277	0.242829
H48	H	1.286824	-0.204837	0.000174
H49	H	1.722235	0.233975	0.412467
H50	H	1.558119	0.401048	0.587364
O51	O	1.262994	0.136004	0.601050
H52	H	1.240977	0.040308	0.563830
O53	O	1.451629	-0.055753	0.399332
H54	H	1.532367	-0.097704	0.333884
O55	O	1.131266	-0.066184	-0.000015
H56	H	1.103369	-0.117130	-0.095308
H57	H	0.942416	0.074398	-0.211491
H58	H	1.394410	-0.377638	0.211633
O59	O	1.639388	-0.235420	-0.242878
H60	H	1.574082	-0.167711	-0.304811
O61	O	1.084260	0.319255	-0.243251
H62	H	1.189833	0.321488	-0.242292
O63	O	1.377490	-0.387617	-0.242926
H64	H	1.345062	-0.302012	-0.306361
O65	O	1.697258	-0.003282	0.600896
H66	H	1.793293	0.017530	0.563542
