data_functionalizedCrystal
_audit_creation_method	'MofGen! by Chris Wilmer'
_symmetry_space_group_name_H-M	'P1'
_symmetry_Int_Tables_number	1
_symmetry_cell_setting	triclinic
loop_
_symmetry_equiv_pos_as_xyz
  x,y,z
_cell_length_a	17.640280
_cell_length_b	17.638686
_cell_length_c	14.908858
_cell_angle_alpha	81.389404
_cell_angle_beta	76.219758
_cell_angle_gamma	65.687361
loop_
_atom_site_label
_atom_site_type_symbol
_atom_site_fract_x
_atom_site_fract_y
_atom_site_fract_z
Zn1	Zn	-0.540041	1.283277	-0.681206
Zn2	Zn	-0.689027	1.322239	-0.504983
Zn3	Zn	-0.523335	1.156617	-0.505038
Zn4	Zn	-0.653120	1.176507	-0.630505
O5	O	-0.601381	1.234660	-0.580433
O6	O	-0.581823	1.402443	-0.679025
O7	O	-0.675083	1.308251	-0.378733
O8	O	-0.408884	1.148789	-0.549649
O9	O	-0.691282	1.431068	-0.549555
O10	O	-0.421158	1.241846	-0.679078
O11	O	-0.553350	1.186569	-0.378773
O12	O	-0.518532	1.045258	-0.500486
O13	O	-0.630084	1.182688	-0.763488
O14	O	-0.613885	1.059871	-0.592666
O15	O	-0.547006	1.261132	-0.800738
O16	O	-0.800930	1.327537	-0.500393
O17	O	-0.774549	1.220468	-0.592613
C18	C	-0.560500	1.023006	-0.541081
C19	C	-0.543030	0.932462	-0.524264
C20	C	-0.734267	0.672948	-0.708386
C21	C	-0.717845	0.587869	-0.692562
C22	C	-0.618378	0.572573	-0.596784
C23	C	-0.634794	0.657653	-0.612596
C24	C	-0.692739	0.707835	-0.668398
C25	C	-0.593266	0.692540	-0.572609
C26	C	-0.609678	0.777612	-0.588424
C27	C	-0.667618	0.827799	-0.644226
C28	C	-0.709151	0.792907	-0.684213
C29	C	-0.535317	0.642356	-0.516812
C30	C	-0.493789	0.677242	-0.476825
C31	C	-0.510206	0.762317	-0.492634
C32	C	-0.568146	0.812504	-0.548436
C33	C	-0.468673	0.797209	-0.452647
C34	C	-0.485085	0.882281	-0.468461
C35	C	-0.584558	0.897576	-0.564251
C36	C	-0.817993	1.280410	-0.541019
C37	C	-0.910673	1.300054	-0.524201
C38	C	-1.146928	1.085736	-0.708584
C39	C	-1.234017	1.104199	-0.692753
C40	C	-1.261427	1.215747	-0.596853
C41	C	-1.174339	1.197297	-0.612680
C42	C	-1.117095	1.132290	-0.668545
C43	C	-1.144506	1.243850	-0.572641
C44	C	-1.057425	1.225398	-0.588462
C45	C	-1.000176	1.160392	-0.644323
C46	C	-1.030014	1.113837	-0.684367
C47	C	-1.201750	1.308853	-0.516770
C48	C	-1.171918	1.355406	-0.476731
C49	C	-1.084836	1.336958	-0.492558
C50	C	-1.027587	1.271953	-0.548419
C51	C	-1.054998	1.383513	-0.452514
C52	C	-0.967916	1.365061	-0.468336
C53	C	-0.940506	1.253501	-0.564240
C54	C	-0.383925	1.188753	-0.620025
C55	C	-0.291259	1.169190	-0.636897
C56	C	-0.586403	1.219783	-0.815766
C57	C	-0.580021	1.213443	-0.916050
C58	C	-0.642421	1.447140	-0.619939
C59	C	-0.659910	1.537687	-0.636774
C60	C	-0.507648	1.141160	-1.057418
C61	C	-0.513643	1.147113	-0.963191
C62	C	-0.640407	1.273824	-0.963143
C63	C	-0.634412	1.267871	-1.057370
C64	C	-0.568031	1.201536	-1.104504
C65	C	-0.562041	1.195580	-1.198731
C66	C	-0.688800	1.322294	-1.198682
C67	C	-0.694795	1.328247	-1.104456
C68	C	-0.616248	1.249514	-0.346036
C69	C	-0.622427	1.255962	-0.245824
H70	H	-0.751664	0.559468	-0.725132
F71	F	-1.322357	1.284931	-0.537400
H72	H	-1.100318	1.032806	-0.754084
H73	H	-0.421488	0.756337	-0.407220
F74	F	-0.711037	1.344427	-0.912970
F75	F	-0.753071	1.386552	-1.248800
F76	F	-1.294433	1.328511	-0.499962
F77	F	-0.491392	1.124982	-1.248893
H78	H	-0.983404	1.060908	-0.729866
H79	H	-0.748838	1.382257	-1.066067
H80	H	-0.453601	1.087145	-1.095794
F81	F	-0.770831	0.846321	-0.743595
H82	H	-0.464471	1.097950	-0.924858
H83	H	-0.631747	0.938438	-0.609686
F84	F	-0.556707	0.519157	-0.537401
H85	H	-0.521952	0.573083	-0.503943
H86	H	-0.893896	1.200571	-0.609740
F87	F	-1.232848	1.424590	-0.417278
H88	H	-0.680975	0.897069	-0.657107
F89	F	-0.440887	0.919412	-0.425903
H90	H	-1.258303	1.066293	-0.725375
F91	F	-1.115929	1.452691	-0.393054
H92	H	-0.446608	0.636373	-0.431393
F93	F	-0.907514	1.140890	-0.661352
H94	H	-0.781456	0.713811	-0.753820
H95	H	-0.943628	1.402969	-0.435731
