data_functionalizedCrystal
_audit_creation_method	'MofGen! by Chris Wilmer'
_symmetry_space_group_name_H-M	'P1'
_symmetry_Int_Tables_number	1
_symmetry_cell_setting	triclinic
loop_
_symmetry_equiv_pos_as_xyz
  x,y,z
_cell_length_a	12.759401
_cell_length_b	13.897448
_cell_length_c	12.759393
_cell_angle_alpha	89.966603
_cell_angle_beta	89.980163
_cell_angle_gamma	90.019217
loop_
_atom_site_label
_atom_site_type_symbol
_atom_site_fract_x
_atom_site_fract_y
_atom_site_fract_z
Zn1	Zn	1.606233	-0.383918	-0.594007
Zn2	Zn	2.106233	0.116082	-0.094007
Zn3	Zn	1.606118	-0.545248	-0.418322
Zn4	Zn	2.106118	-0.045248	0.081678
Zn5	Zn	1.430535	-0.383973	-0.418342
Zn6	Zn	1.930535	0.116027	0.081658
Zn7	Zn	1.430515	-0.545177	-0.593959
Zn8	Zn	1.930515	-0.045177	-0.093959
O9	O	1.518350	-0.464579	-0.506158
O10	O	2.018350	0.035421	-0.006158
O11	O	1.753239	-0.405326	-0.570714
O12	O	2.253239	0.094674	-0.070714
O13	O	1.582788	-0.523907	-0.271303
O14	O	2.082788	-0.023907	0.228697
O15	O	1.453899	-0.248984	-0.441673
O16	O	1.953899	0.251016	0.058327
O17	O	1.753155	-0.523854	-0.441638
O18	O	2.253155	-0.023854	0.058362
O19	O	1.582983	-0.248944	-0.570734
O20	O	2.082983	0.251056	-0.070734
O21	O	1.453787	-0.405419	-0.271318
O22	O	1.953787	0.094581	0.228682
O23	O	1.283511	-0.405350	-0.441627
O24	O	1.783511	0.094650	0.058373
O25	O	1.453863	-0.523734	-0.740987
O26	O	1.953863	-0.023734	-0.240987
O27	O	1.283496	-0.523786	-0.570652
O28	O	1.783496	-0.023786	-0.070652
O29	O	1.582963	-0.405257	-0.741022
O30	O	2.082963	0.094743	-0.241022
O31	O	1.582768	-0.680220	-0.441592
O32	O	2.082768	-0.180220	0.058408
O33	O	1.453752	-0.680168	-0.570632
O34	O	1.953752	-0.180168	-0.070632
C35	C	1.245383	-0.464567	-0.506137
C36	C	1.745383	0.035433	-0.006137
C37	C	1.128606	-0.464585	-0.506153
C38	C	1.628606	0.035415	-0.006153
C39	C	1.518274	-0.715193	-0.506127
C40	C	2.018274	-0.215193	-0.006127
C41	C	1.518337	-0.822407	-0.506149
C42	C	2.018337	-0.322407	-0.006149
C43	C	1.073764	-0.526349	-0.573230
C44	C	1.573764	-0.026349	-0.073230
C45	C	0.964040	-0.526353	-0.573251
C46	C	1.464040	-0.026353	-0.073251
C47	C	0.964010	-0.402826	-0.439108
C48	C	1.464010	0.097174	0.060892
C49	C	1.073732	-0.402819	-0.439093
C50	C	1.573732	0.097181	0.060907
C51	C	1.518447	-1.018702	-0.506215
C52	C	2.018447	-0.518702	-0.006215
C53	C	1.518383	-0.909470	-0.506182
C54	C	2.018383	-0.409470	-0.006182
C55	C	1.792384	-0.464592	-0.506179
C56	C	2.292384	0.035408	-0.006179
C57	C	1.909160	-0.464597	-0.506188
C58	C	2.409160	0.035403	-0.006188
C59	C	1.518424	-0.464481	-0.780191
C60	C	2.018424	0.035519	-0.280191
C61	C	1.518455	-0.464440	-0.896968
C62	C	2.018455	0.035560	-0.396968
C63	C	1.518456	-0.212986	-0.506211
C64	C	2.018456	0.287014	-0.006211
C65	C	1.518501	-0.105772	-0.506234
C66	C	2.018501	0.394228	-0.006234
C67	C	1.451309	-0.402732	-0.951837
C68	C	1.951309	0.097268	-0.451837
C69	C	1.451333	-0.402702	-1.061561
C70	C	1.951333	0.097298	-0.561561
C71	C	1.585659	-0.526091	-1.061537
C72	C	2.085659	-0.026091	-0.561537
C73	C	1.585629	-0.526125	-0.951815
C74	C	2.085629	-0.026125	-0.451815
C75	C	1.518338	-0.464607	-0.233190
C76	C	2.018338	0.035393	0.266810
C77	C	1.518510	-0.464376	-0.116414
C78	C	2.018510	0.035624	0.383586
H79	H	1.118439	-0.576641	-0.627837
H80	H	1.618439	-0.076641	-0.127837
H81	H	1.640350	-0.576312	-1.106207
H82	H	2.140350	-0.076312	-0.606207
H83	H	1.396655	-0.352454	-1.106231
H84	H	1.896655	0.147546	-0.606231
H85	H	1.640310	-0.576379	-0.907139
H86	H	2.140310	-0.076379	-0.407139
H87	H	1.396611	-0.352504	-0.907184
H88	H	1.896611	0.147496	-0.407184
H89	H	0.919392	-0.576645	-0.627874
H90	H	1.419392	-0.076645	-0.127874
H91	H	1.118386	-0.352517	-0.384470
H92	H	1.618386	0.147483	0.115530
H93	H	0.919318	-0.352540	-0.384509
H94	H	1.419318	0.147460	0.115491
