data_functionalizedCrystal
_audit_creation_method	'MofGen! by Chris Wilmer'
_symmetry_space_group_name_H-M	'P1'
_symmetry_Int_Tables_number	1
_symmetry_cell_setting	triclinic
loop_
_symmetry_equiv_pos_as_xyz
  x,y,z
_cell_length_a	10.654550
_cell_length_b	13.262508
_cell_length_c	12.376457
_cell_angle_alpha	63.185104
_cell_angle_beta	101.407444
_cell_angle_gamma	84.460192
loop_
_atom_site_label
_atom_site_type_symbol
_atom_site_fract_x
_atom_site_fract_y
_atom_site_fract_z
O1	O	1.680381	0.136354	0.052172
O2	O	1.313646	0.151383	0.047533
O3	O	1.519027	-0.019508	0.100082
O4	O	1.475001	0.307245	-0.000376
O5	O	1.467702	0.023155	-0.101049
O6	O	1.262321	0.194047	-0.153598
O7	O	1.629057	0.179017	-0.148959
Zn8	Zn	1.437540	0.193306	-0.183212
Zn9	Zn	1.505162	0.137095	0.081787
O10	O	1.423676	0.349909	-0.201507
C11	C	1.241277	0.171612	-0.052696
C12	C	1.102107	0.168313	-0.051689
C13	C	1.495616	-0.040016	0.012382
C14	C	1.502312	-0.164686	0.050717
C15	C	1.014244	0.268926	-0.082605
C16	C	0.883487	0.265814	-0.081628
C17	C	0.928472	0.061465	-0.018811
C18	C	1.059223	0.064581	-0.019797
C19	C	0.988273	0.386905	-0.118866
C20	C	0.857516	0.383792	-0.117890
C21	C	1.409266	-0.423096	-0.279781
C22	C	1.402966	-0.305961	-0.315801
C23	C	1.427802	-0.270636	-0.224175
C24	C	1.458939	-0.352458	-0.096522
C25	C	1.465231	-0.469603	-0.060499
C26	C	1.483766	-0.317144	-0.004893
C27	C	1.514904	-0.398965	0.122760
C28	C	1.521195	-0.516098	0.158776
C29	C	1.496358	-0.551423	0.067150
C30	C	1.477475	-0.199999	-0.040916
C31	C	1.533439	-0.246506	0.178366
C32	C	1.539740	-0.363641	0.214386
C33	C	1.701426	0.158788	-0.048727
C34	C	1.840599	0.162085	-0.049726
C35	C	1.447087	0.370416	-0.113805
C36	C	1.440394	0.495084	-0.152132
N37	N	1.391399	0.231668	-0.364067
C38	C	1.284290	0.320741	-0.450641
C39	C	1.252013	0.347601	-0.577240
C40	C	1.326836	0.285384	-0.617275
C41	C	1.433941	0.196303	-0.530699
C42	C	1.466227	0.169446	-0.404089
C43	C	1.508772	0.134089	-0.570724
C44	C	1.615878	0.045008	-0.484147
C45	C	1.648158	0.018156	-0.357551
C46	C	1.573336	0.080373	-0.317515
C47	C	1.476486	0.160945	-0.697334
C48	C	1.658423	0.009651	-0.650782
C49	C	1.690700	-0.017209	-0.524183
N50	N	1.551314	0.098724	0.262644
H51	H	1.130754	-0.017345	0.005361
H52	H	0.833561	0.410389	-0.047377
H53	H	1.452111	-0.133388	-0.144851
C54	C	1.555513	-0.606108	0.299200
N55	N	1.581393	-0.673904	0.404968
C56	C	1.381934	-0.461961	-0.380555
N57	N	1.361342	-0.491235	-0.456465
C58	C	1.134195	0.445580	-0.672462
N59	N	1.045445	0.519381	-0.744185
C60	C	1.808506	-0.115205	-0.428931
N61	N	1.897234	-0.189018	-0.357186
H62	H	0.893544	-0.022995	0.007172
H63	H	0.992280	0.450902	-0.217230
C64	C	1.062163	0.412749	-0.017143
N65	N	1.117821	0.432204	0.059486
C66	C	1.740732	-0.058796	-0.694814
N67	N	1.802721	-0.110344	-0.727988
H68	H	1.422668	-0.175258	-0.253510
C69	C	1.765982	-0.079831	-0.262320
N70	N	1.854726	-0.153636	-0.190594
H71	H	1.553654	-0.217746	0.252976
H72	H	1.389281	0.233475	-0.767814
H73	H	1.300551	0.307257	-0.720359
C74	C	1.202002	0.389172	-0.406592
N75	N	1.140017	0.440718	-0.373414
H76	H	1.599612	0.058501	-0.214427
C77	C	0.761861	0.456864	-0.250000
N78	N	0.689812	0.511907	-0.349502
H79	H	1.377627	-0.239351	-0.419735
H80	H	1.501493	-0.646803	0.096471
H81	H	1.565091	-0.430276	0.318322
