data_functionalizedCrystal
_audit_creation_method	'MofGen! by Chris Wilmer'
_symmetry_space_group_name_H-M	'P1'
_symmetry_Int_Tables_number	1
_symmetry_cell_setting	triclinic
loop_
_symmetry_equiv_pos_as_xyz
  x,y,z
_cell_length_a	10.686220
_cell_length_b	13.897448
_cell_length_c	10.685880
_cell_angle_alpha	94.337649
_cell_angle_beta	89.641569
_cell_angle_gamma	94.399460
loop_
_atom_site_label
_atom_site_type_symbol
_atom_site_fract_x
_atom_site_fract_y
_atom_site_fract_z
Zn1	Zn	1.972236	-0.301104	-0.562360
Zn2	Zn	1.956009	-0.451098	-0.352601
Zn3	Zn	1.746365	-0.303069	-0.368682
Zn4	Zn	1.762425	-0.475615	-0.578372
O5	O	1.859259	-0.382721	-0.465504
O6	O	2.145627	-0.309917	-0.521104
O7	O	1.914687	-0.422023	-0.179193
O8	O	1.776398	-0.167825	-0.394403
O9	O	2.133705	-0.420117	-0.366995
O10	O	1.942344	-0.166380	-0.536697
O11	O	1.760663	-0.313268	-0.191008
O12	O	1.572952	-0.337041	-0.409929
O13	O	1.803768	-0.461904	-0.751788
O14	O	1.584751	-0.463810	-0.563987
O15	O	1.957916	-0.333691	-0.740025
O16	O	1.930259	-0.589334	-0.382521
O17	O	1.788034	-0.607347	-0.548394
C18	C	1.533335	-0.403300	-0.490441
C19	C	1.393906	-0.412129	-0.501140
C20	C	1.859164	-0.633340	-0.465474
C21	C	1.859242	-0.740550	-0.465495
C22	C	1.859380	-0.936841	-0.465564
C23	C	1.859300	-0.827611	-0.465530
C24	C	2.186455	-0.362063	-0.440469
C25	C	2.325886	-0.353259	-0.429801
C26	C	1.884444	-0.400313	-0.792695
C27	C	1.895176	-0.407810	-0.932124
C28	C	1.859390	-0.131124	-0.465558
C29	C	1.859445	-0.023908	-0.465581
C30	C	1.834244	-0.365124	-0.139580
C31	C	1.823755	-0.357341	-0.000133
H32	H	1.374319	-0.296105	-0.360540
C33	C	2.075152	-0.418392	-1.066686
C34	C	1.988833	-0.473885	-0.997509
H35	H	2.132976	-0.459184	-1.107043
H36	H	2.031784	-0.387749	-1.128032
H37	H	2.119253	-0.370618	-1.011892
H38	H	1.944725	-0.521655	-1.052305
H39	H	2.032205	-0.504544	-0.936156
H40	H	1.345466	-0.469292	-0.570398
C41	C	1.666191	-0.246089	-1.025193
C42	C	1.730106	-0.291268	-0.934749
H43	H	1.608370	-0.205303	-0.984820
H44	H	1.724755	-0.208454	-1.072116
H45	H	1.622082	-0.293872	-1.079970
H46	H	1.774222	-0.243485	-0.879977
H47	H	1.671533	-0.328904	-0.887805
