data_functionalizedCrystal
_audit_creation_method	'MofGen! by Chris Wilmer'
_symmetry_space_group_name_H-M	'P1'
_symmetry_Int_Tables_number	1
_symmetry_cell_setting	triclinic
loop_
_symmetry_equiv_pos_as_xyz
  x,y,z
_cell_length_a	21.295418
_cell_length_b	17.077402
_cell_length_c	21.295412
_cell_angle_alpha	89.972221
_cell_angle_beta	90.035621
_cell_angle_gamma	89.961304
loop_
_atom_site_label
_atom_site_type_symbol
_atom_site_fract_x
_atom_site_fract_y
_atom_site_fract_z
Zn1	Zn	0.962339	0.312192	0.356249
Zn2	Zn	1.462339	0.812192	0.856249
Zn3	Zn	0.962270	0.443463	0.250980
Zn4	Zn	1.462270	0.943463	0.750980
Zn5	Zn	0.857077	0.312251	0.250958
Zn6	Zn	1.357077	0.812251	0.750958
Zn7	Zn	0.857045	0.443456	0.356177
Zn8	Zn	1.357045	0.943456	0.856177
O9	O	0.909683	0.377841	0.303591
O10	O	1.409683	0.877841	0.803591
O11	O	1.050419	0.329584	0.342324
O12	O	1.550419	0.829584	0.842324
O13	O	0.948300	0.426084	0.162888
O14	O	1.448300	0.926084	0.662888
O15	O	0.871082	0.202396	0.264946
O16	O	1.371082	0.702396	0.764946
O17	O	1.050369	0.426027	0.264983
O18	O	1.550369	0.926027	0.764983
O19	O	0.948417	0.202353	0.342302
O20	O	1.448417	0.702353	0.842302
O21	O	0.871015	0.329684	0.162872
O22	O	1.371015	0.829684	0.662872
O23	O	0.768983	0.329678	0.264877
O24	O	1.268983	0.829678	0.764877
O25	O	0.871028	0.426017	0.444276
O26	O	1.371028	0.926017	0.944276
O27	O	0.768960	0.426074	0.342180
O28	O	1.268960	0.926074	0.842180
O29	O	0.948387	0.329578	0.444328
O30	O	1.448387	0.829578	0.944328
O31	O	0.948270	0.553309	0.264914
O32	O	1.448270	1.053309	0.764914
O33	O	0.870962	0.553304	0.342201
O34	O	1.370962	1.053304	0.842201
C35	C	0.909622	0.581788	0.303566
C36	C	1.409622	1.081788	0.803566
C37	C	0.909654	0.669038	0.303576
C38	C	1.409654	1.169038	0.803576
C39	C	0.746131	0.377882	0.303518
C40	C	1.246131	0.877882	0.803518
C41	C	0.676163	0.377918	0.303502
C42	C	1.176163	0.877918	0.803502
C43	C	0.909712	0.377790	0.467781
C44	C	1.409712	0.877790	0.967781
C45	C	0.909724	0.377768	0.537749
C46	C	1.409724	0.877768	1.037749
C47	C	0.643301	0.428178	0.343694
C48	C	1.143301	0.928178	0.843694
C49	C	0.577558	0.428159	0.343722
C50	C	1.077558	0.928159	0.843722
C51	C	0.544680	0.377888	0.303548
C52	C	1.044680	0.877888	0.803548
C53	C	0.577551	0.327618	0.263353
C54	C	1.077551	0.827618	0.763353
C55	C	0.643292	0.327634	0.263330
C56	C	1.143292	0.827634	0.763330
N57	N	0.441412	0.371755	0.248490
N58	N	0.941412	0.871755	0.748490
N59	N	0.378960	0.371745	0.248513
N60	N	0.878960	0.871745	0.748513
C61	C	0.346606	0.377838	0.303614
C62	C	0.846606	0.877838	0.803614
N63	N	0.379062	0.383956	0.358693
N64	N	0.879062	0.883956	0.858693
N65	N	0.441519	0.383970	0.358669
N66	N	0.941519	0.883970	0.858669
C67	C	0.473395	0.377866	0.303568
C68	C	0.973395	0.877866	0.803568
C69	C	0.242458	0.428079	0.343840
C70	C	0.742458	0.928079	0.843840
C71	C	0.176714	0.428055	0.343870
C72	C	0.676714	0.928055	0.843870
C73	C	0.176708	0.327518	0.263495
C74	C	0.676708	0.827518	0.763495
C75	C	0.242450	0.327539	0.263471
C76	C	0.742450	0.827539	0.763471
C77	C	0.275321	0.377824	0.303643
C78	C	0.775321	0.877824	0.803643
C79	C	1.073873	0.377800	0.303664
C80	C	1.573873	0.877800	0.803664
C81	C	1.143841	0.377782	0.303695
C82	C	1.643841	0.877782	0.803695
C83	C	0.909761	0.173096	0.303630
C84	C	1.409761	0.673096	0.803630
C85	C	0.909794	0.085846	0.303647
C86	C	1.409794	0.585846	0.803647
C87	C	0.949949	0.710005	0.263376
C88	C	1.449949	1.210005	0.763376
C89	C	0.949980	0.791985	0.263392
C90	C	1.449980	1.291985	0.763392
C91	C	0.909711	0.832998	0.303605
C92	C	1.409711	1.332998	0.803605
C93	C	0.869414	0.792025	0.343810
C94	C	1.369414	1.292025	0.843810
C95	C	0.869387	0.710046	0.343797
C96	C	1.369387	1.210046	0.843797
C97	C	0.869473	0.962895	0.343834
C98	C	1.369473	1.462895	0.843834
C99	C	0.869499	1.044880	0.343847
C100	C	1.369499	1.544880	0.843847
C101	C	0.950065	1.044834	0.263429
C102	C	1.450065	1.544834	0.763429
C103	C	0.950038	0.962855	0.263416
C104	C	1.450038	1.462855	0.763416
C105	C	0.909740	0.921889	0.303620
C106	C	1.409740	1.421889	0.803620
C107	C	0.909690	0.377834	0.140039
C108	C	1.409690	0.877834	0.640039
C109	C	0.909800	0.377635	0.070072
C110	C	1.409800	0.877635	0.570072
C111	C	0.950064	0.327428	1.037236
C112	C	1.450064	0.827428	1.537236
C113	C	0.950060	0.327447	0.971494
C114	C	1.450060	0.827447	1.471494
C115	C	0.909779	0.377665	0.938589
C116	C	1.409779	0.877665	1.438589
C117	C	0.869511	0.427881	0.971433
C118	C	1.369511	0.927881	1.471433
C119	C	0.869522	0.427866	1.037174
C120	C	1.369522	0.927866	1.537174
N121	N	0.854658	0.383724	0.835342
N122	N	1.354658	0.883724	1.335342
N123	N	0.854650	0.383733	0.772891
N124	N	1.354650	0.883733	1.272891
C125	C	0.909746	0.377714	0.740514
C126	C	1.409746	0.877714	1.240514
N127	N	0.964851	0.371669	0.772948
N128	N	1.464851	0.871669	1.272948
N129	N	0.964859	0.371655	0.835406
N130	N	1.464859	0.871655	1.335406
C131	C	0.909763	0.377687	0.867304
C132	C	1.409763	0.877687	1.367304
C133	C	0.950008	0.327525	0.636393
C134	C	1.450008	0.827525	1.136393
C135	C	0.950005	0.327549	0.570649
C136	C	1.450005	0.827549	1.070649
C137	C	0.869451	0.427979	0.570590
C138	C	1.369451	0.927979	1.070590
C139	C	0.869460	0.427959	0.636332
C140	C	1.369460	0.927959	1.136332
C141	C	0.909738	0.377727	0.669230
C142	C	1.409738	0.877727	1.169230
H143	H	0.670060	0.469123	0.376406
H144	H	1.170060	0.969123	0.876406
F145	F	0.542577	0.481654	0.386502
F146	F	1.042577	0.981654	0.886502
H147	H	0.550777	0.286686	0.230644
H148	H	1.050777	0.786686	0.730644
H149	H	0.836720	1.078270	0.376604
H150	H	1.336720	1.578270	0.876604
H151	H	0.982737	0.676618	0.230626
H152	H	1.482737	1.176618	0.730626
H153	H	0.269207	0.286616	0.230739
H154	H	0.769207	0.786616	0.730739
F155	F	0.141740	0.481547	0.386653
F156	F	0.641740	0.981547	0.886653
F157	F	0.992949	1.088434	0.220636
F158	F	1.492949	1.588434	0.720636
F159	F	0.826665	0.481306	1.072121
F160	F	1.326665	0.981306	1.572121
H161	H	0.982805	0.286623	0.663180
H162	H	1.482805	0.786623	1.163180
F163	F	0.678267	0.274137	0.220551
F164	F	1.178267	0.774137	0.720551
H165	H	0.269223	0.469020	0.376554
H166	H	0.769223	0.969020	0.876554
H167	H	0.836575	0.676692	0.376533
H168	H	1.336575	1.176692	0.876533
H169	H	0.149940	0.286583	0.230787
H170	H	0.649940	0.786583	0.730787
F171	F	0.992866	0.274114	0.535703
F172	F	1.492866	0.774114	1.035703
F173	F	0.992895	0.919208	0.220615
F174	F	1.492895	1.419208	0.720615
F175	F	0.826586	0.481432	0.535575
F176	F	1.326586	0.981432	1.035575
H177	H	0.982792	0.825336	0.230656
H178	H	1.482792	1.325336	0.730656
F179	F	0.826603	0.481395	0.671279
F180	F	1.326603	0.981395	1.171279
H181	H	0.836659	0.929543	0.376575
H182	H	1.336659	1.429543	0.876575
H183	H	0.982865	0.286529	1.064017
H184	H	1.482865	0.786529	1.564017
H185	H	0.982848	0.286560	0.944754
H186	H	1.482848	0.786560	1.444754
H187	H	0.836630	0.825424	0.376556
H188	H	1.336630	1.325424	0.876556
F189	F	0.826643	0.481328	0.936412
F190	F	1.326643	0.981328	1.436412
