data_functionalizedCrystal
_audit_creation_method	'MofGen! by Chris Wilmer'
_symmetry_space_group_name_H-M	'P1'
_symmetry_Int_Tables_number	1
_symmetry_cell_setting	triclinic
loop_
_symmetry_equiv_pos_as_xyz
  x,y,z
_cell_length_a	12.759401
_cell_length_b	19.120786
_cell_length_c	19.121595
_cell_angle_alpha	94.799340
_cell_angle_beta	92.453437
_cell_angle_gamma	92.464298
loop_
_atom_site_label
_atom_site_type_symbol
_atom_site_fract_x
_atom_site_fract_y
_atom_site_fract_z
Zn1	Zn	1.613956	-0.263206	0.385827
Zn2	Zn	1.598173	-0.385898	0.263138
Zn3	Zn	1.430443	-0.268242	0.268181
Zn4	Zn	1.430384	-0.380841	0.380771
O5	O	1.518239	-0.324547	0.324479
O6	O	1.758883	-0.279490	0.369557
O7	O	1.569342	-0.374515	0.165341
O8	O	1.461416	-0.169103	0.288014
O9	O	1.747287	-0.369632	0.279418
O10	O	1.596242	-0.165404	0.374448
O11	O	1.446112	-0.288073	0.169047
O12	O	1.283414	-0.283169	0.283112
O13	O	1.461316	-0.361013	0.479907
O14	O	1.283371	-0.365896	0.365831
O15	O	1.596185	-0.274587	0.483622
O16	O	1.569286	-0.483698	0.274515
O17	O	1.446012	-0.479983	0.360940
C18	C	1.245272	-0.324531	0.324470
C19	C	1.128496	-0.324540	0.324482
C20	C	1.079663	-0.277685	0.371484
C21	C	0.969939	-0.277699	0.371488
C22	C	0.957888	-0.371428	0.277486
C23	C	1.067610	-0.371410	0.277479
C24	C	1.140549	-0.230815	0.418487
C25	C	1.091717	-0.183957	0.465493
C26	C	0.981992	-0.183971	0.465497
C27	C	0.921099	-0.230842	0.418495
C28	C	1.505959	-0.507372	0.316647
C29	C	1.500804	-0.585584	0.313320
C30	C	1.568531	-0.620340	0.356795
C31	C	1.563683	-0.693829	0.353669
C32	C	1.491112	-0.732561	0.307065
C33	C	1.423377	-0.697799	0.263589
C34	C	1.428221	-0.624312	0.266718
C35	C	1.472972	-0.954545	0.295368
C36	C	1.468135	-1.028038	0.292240
C37	C	1.608439	-1.024062	0.382322
C38	C	1.613281	-0.950573	0.385444
C39	C	1.545543	-0.915819	0.341970
C40	C	1.486156	-0.807678	0.303868
C41	C	1.550494	-0.840702	0.345171
C42	C	1.792272	-0.324564	0.324489
C43	C	1.909048	-0.324571	0.324493
C44	C	1.530505	-0.316674	0.508009
C45	C	1.535732	-0.313319	0.586219
C46	C	1.530596	-0.141007	0.332358
C47	C	1.535862	-0.062794	0.335715
C48	C	1.506085	-0.332338	0.141665
C49	C	1.501074	-0.335495	0.063465
C50	C	1.467970	-0.356737	0.621029
C51	C	1.472890	-0.353584	0.694516
C52	C	1.545568	-0.307010	0.733190
C53	C	1.613337	-0.263591	0.698375
C54	C	1.608421	-0.266747	0.624890
C55	C	1.563928	-0.295232	0.955164
C56	C	1.568836	-0.292077	1.028654
C57	C	1.428390	-0.382073	1.024790
C58	C	1.423477	-0.385222	0.951304
C59	C	1.491249	-0.341805	0.916495
C60	C	1.550596	-0.303785	0.808305
C61	C	1.486225	-0.345034	0.841381
H62	H	1.627630	-0.588810	0.394741
F63	F	1.156524	-0.134072	0.515509
H64	H	1.409034	-1.059571	0.254289
H65	H	0.908300	-0.409589	0.239220
H66	H	1.229893	-0.230799	0.418489
H67	H	1.672517	-0.225672	0.729870
H68	H	1.663586	-1.052367	0.417717
H69	H	1.373070	-0.596014	0.231317
H70	H	1.107370	-0.409564	0.239206
H71	H	0.942237	-0.145812	0.503767
F72	F	1.627942	-0.254218	0.849472
H73	H	1.427055	-0.382957	0.809889
H74	H	1.417712	-0.388941	0.722855
F75	F	1.400871	-0.917565	0.249103
H76	H	0.831755	-0.230834	0.418488
F77	F	1.635757	-0.730816	0.399949
H78	H	1.672374	-0.919040	0.423393
F79	F	1.627722	-0.799480	0.394773
H80	H	1.364311	-0.423159	0.919819
F81	F	1.346132	-0.739022	0.213995
H82	H	1.427072	-0.839221	0.265921
H83	H	1.628016	-0.254145	1.060142
F84	F	1.390611	-0.406305	0.579875
H85	H	1.373214	-0.417420	1.053139
H86	H	1.619113	-0.259879	0.926832
H87	H	1.663600	-0.231391	0.596549
