data_functionalizedCrystal
_audit_creation_method	'MofGen! by Chris Wilmer'
_symmetry_space_group_name_H-M	'P1'
_symmetry_Int_Tables_number	1
_symmetry_cell_setting	triclinic
loop_
_symmetry_equiv_pos_as_xyz
  x,y,z
_cell_length_a	17.019383
_cell_length_b	17.019234
_cell_length_c	9.565339
_cell_angle_alpha	86.118932
_cell_angle_beta	86.120478
_cell_angle_gamma	83.129140
loop_
_atom_site_label
_atom_site_type_symbol
_atom_site_fract_x
_atom_site_fract_y
_atom_site_fract_z
O1	O	1.046545	0.100546	-0.254241
O2	O	0.816868	0.113350	-0.228162
O3	O	0.938122	-0.007893	-0.228133
O4	O	0.925291	0.221789	-0.254270
O5	O	0.938112	-0.007885	0.004388
O6	O	0.816858	0.113358	0.004359
O7	O	1.046535	0.100554	-0.021721
Zn8	Zn	0.931695	0.106957	0.028237
Zn9	Zn	0.931708	0.106947	-0.278119
O10	O	0.925281	0.221796	-0.021750
C11	C	0.787475	0.112866	-0.108309
C12	C	0.699907	0.111405	-0.097601
C13	C	0.658766	0.110716	-0.219308
C14	C	0.576485	0.109355	-0.209228
C15	C	0.535349	0.108677	-0.077440
C16	C	0.576495	0.109369	0.044275
C17	C	0.658774	0.110735	0.034194
C18	C	0.286921	0.104557	-0.040660
C19	C	0.204637	0.103188	-0.030587
C20	C	0.204633	0.103176	-0.284091
C21	C	0.286913	0.104537	-0.294161
C22	C	0.328052	0.105233	-0.172446
C23	C	0.451245	0.107284	-0.067133
C24	C	0.412153	0.106632	-0.182755
C25	C	0.937633	-0.037278	-0.108275
C26	C	0.936182	-0.124848	-0.097556
C27	C	0.927901	-0.620115	-0.030623
C28	C	0.929273	-0.537835	-0.040689
C29	C	0.929970	-0.496691	-0.172473
C30	C	0.929287	-0.537831	-0.294197
C31	C	0.927910	-0.620108	-0.284129
C32	C	0.934122	-0.248265	-0.209212
C33	C	0.935502	-0.165982	-0.219272
C34	C	0.935486	-0.165991	0.034238
C35	C	0.934113	-0.248271	0.044294
C36	C	0.933427	-0.289403	-0.077430
C37	C	0.931374	-0.412588	-0.182765
C38	C	0.932017	-0.373504	-0.067135
C39	C	1.075928	0.101037	-0.141577
C40	C	1.163496	0.102499	-0.152293
C41	C	0.925770	0.251181	-0.141610
C42	C	0.927221	0.338751	-0.152339
N43	N	0.931692	0.106963	0.237316
N44	N	0.931717	0.106934	-0.487198
C45	C	0.875599	0.163015	0.328509
C46	C	0.946864	0.178245	0.411282
C47	C	0.860459	0.091739	0.432094
C48	C	1.002992	0.122228	0.318028
C49	C	0.916541	0.035692	0.338841
C50	C	0.987857	0.050891	0.421569
H51	H	0.542995	0.108822	0.151580
H52	H	0.692270	0.111300	0.133300
H53	H	0.933550	-0.281765	0.151606
H54	H	0.445650	0.107188	-0.290056
H55	H	0.929850	-0.504324	-0.401498
H56	H	0.417743	0.106730	0.040169
H57	H	0.931946	-0.379080	-0.290065
F58	F	0.931270	-0.417293	0.073115
H59	H	0.828206	0.210460	0.287636
H60	H	1.063257	0.135165	0.268433
F61	F	0.927183	-0.663885	-0.413676
H62	H	0.936043	-0.132493	0.133339
H63	H	0.927337	-0.653609	0.076689
H64	H	0.929838	-0.504349	0.058424
H65	H	0.800208	0.078875	0.481854
F66	F	0.160860	0.102454	0.109688
F67	F	1.049938	-0.011085	0.474645
F68	F	0.936245	-0.122195	-0.359541
F69	F	0.899740	-0.043048	0.296757
F70	F	0.330688	0.105254	-0.434427
F71	F	0.933397	-0.292030	-0.338764
H72	H	0.959696	0.238505	0.443444
F73	F	0.330694	0.105296	0.088882
H74	H	0.692254	0.111265	-0.326624
H75	H	0.542992	0.108794	-0.308335
H76	H	0.171128	0.102611	-0.383185
