data_functionalizedCrystal
_audit_creation_method	'MofGen! by Chris Wilmer'
_symmetry_space_group_name_H-M	'P1'
_symmetry_Int_Tables_number	1
_symmetry_cell_setting	triclinic
loop_
_symmetry_equiv_pos_as_xyz
  x,y,z
_cell_length_a	10.489741
_cell_length_b	11.026607
_cell_length_c	10.066323
_cell_angle_alpha	79.283172
_cell_angle_beta	98.854140
_cell_angle_gamma	96.562595
loop_
_atom_site_label
_atom_site_type_symbol
_atom_site_fract_x
_atom_site_fract_y
_atom_site_fract_z
O1	O	-1.717159	-0.189208	0.113398
O2	O	-1.349502	-0.205314	0.113418
O3	O	-1.502860	-0.020341	0.113405
O4	O	-1.563801	-0.374181	0.113411
O5	O	-1.532129	0.015003	-0.113572
O6	O	-1.378771	-0.169970	-0.113558
O7	O	-1.746427	-0.153863	-0.113579
Zn8	Zn	-1.567246	-0.156305	-0.149606
Zn9	Zn	-1.528683	-0.202873	0.149445
O10	O	-1.593070	-0.338836	-0.113565
C11	C	-1.316337	-0.186426	-0.000067
C12	C	-1.173906	-0.182789	-0.000059
C13	C	-1.506252	0.042640	-0.000081
C14	C	-1.472736	0.177646	-0.000074
C15	C	-1.779592	-0.172752	-0.000090
C16	C	-1.922022	-0.176391	-0.000089
C17	C	-1.079879	-0.065095	-0.000074
C18	C	-0.985551	-0.138117	0.111835
C19	C	-1.014448	-0.103299	-0.111946
C20	C	-1.081442	-0.255874	0.111943
C21	C	-1.110358	-0.221023	-0.111939
C22	C	-1.016073	-0.294136	-0.000002
C23	C	-1.589678	-0.401818	-0.000076
C24	C	-1.623192	-0.536825	-0.000074
N25	N	-1.593574	-0.124523	-0.353700
C26	C	-1.565276	0.250643	-0.000078
C27	C	-1.530638	0.390179	-0.000071
C28	C	-1.558111	-0.167352	-0.578658
C29	C	-1.537818	-0.191825	-0.421499
N30	N	-1.502364	-0.234645	0.353540
H31	H	-1.108269	0.031634	0.000064
H32	H	-1.656334	-0.048792	-0.411994
H33	H	-1.475070	-0.267565	-0.363205
Br34	Br	-1.355832	0.458171	-0.000041
Br35	Br	-0.895272	-0.079682	0.269533
Br36	Br	-1.397785	-0.360881	-0.549303
Br37	Br	-1.797996	0.395182	-0.000072
Br38	Br	-1.740071	0.182641	-0.000073
Br39	Br	-1.130700	-0.363395	0.269813
H40	H	-1.164550	-0.256047	-0.206554
H41	H	-1.367865	0.218451	-0.000060
H42	H	-0.987946	-0.390998	0.000061
Br43	Br	-1.662716	-0.041135	-0.675811
Br44	Br	-0.964885	0.004288	-0.269638
