data_functionalizedCrystal
_audit_creation_method	'MofGen! by Chris Wilmer'
_symmetry_space_group_name_H-M	'P1'
_symmetry_Int_Tables_number	1
_symmetry_cell_setting	triclinic
loop_
_symmetry_equiv_pos_as_xyz
  x,y,z
_cell_length_a	9.730223
_cell_length_b	11.792254
_cell_length_c	10.654550
_cell_angle_alpha	95.658250
_cell_angle_beta	90.001139
_cell_angle_gamma	90.004044
loop_
_atom_site_label
_atom_site_type_symbol
_atom_site_fract_x
_atom_site_fract_y
_atom_site_fract_z
O1	O	-0.114325	-1.507296	0.172203
O2	O	-0.114319	-1.176998	0.189927
O3	O	-0.114317	-1.349741	-0.001696
O4	O	-0.114327	-1.334553	0.363825
O5	O	0.114263	-1.349730	-0.001685
O6	O	0.114261	-1.176987	0.189937
O7	O	0.114255	-1.507285	0.172213
Zn8	Zn	0.150550	-1.342134	0.181077
Zn9	Zn	-0.150614	-1.342149	0.181063
O10	O	0.114253	-1.334542	0.363836
C11	C	-0.000028	-1.134699	0.188815
C12	C	-0.000026	-1.008678	0.185474
N13	N	0.356086	-1.342132	0.181086
N14	N	-0.356150	-1.342159	0.181044
C15	C	-0.000029	-0.906335	0.182758
C16	C	-0.000026	-0.777941	0.179363
C17	C	0.428022	-1.411566	0.257768
C18	C	0.571905	-1.411583	0.257744
C19	C	0.571904	-1.272722	0.104354
C20	C	0.428024	-1.272712	0.104372
C21	C	0.428024	-1.491733	0.346330
C22	C	0.571907	-1.491750	0.346307
C23	C	-0.000029	-1.348620	-0.048485
C24	C	-0.000033	-1.345284	-0.187919
C25	C	-0.000032	-0.549584	0.173325
C26	C	-0.000024	-0.675604	0.176666
C27	C	-0.000031	-1.446992	-0.267687
C28	C	-0.000041	-1.443850	-0.398700
C29	C	-0.000049	-1.237283	-0.370162
C30	C	-0.000049	-1.240426	-0.239153
C31	C	-0.000020	-1.566253	-0.284164
C32	C	-0.000030	-1.563111	-0.415176
C33	C	-0.000038	-1.335662	0.410625
C34	C	-0.000043	-1.338999	0.550059
H35	H	0.369459	-1.216184	0.041917
H36	H	-0.095675	-1.612904	-0.254940
H37	H	0.098675	-1.604225	-0.248638
H38	H	-0.098725	-1.599158	-0.460924
O39	O	0.641997	-1.205318	0.029958
C40	C	0.784417	-1.220165	0.046431
H41	H	0.804052	-1.253216	0.141826
H42	H	0.839065	-1.135059	0.042602
H43	H	0.825298	-1.284224	-0.031811
O44	O	0.625357	-1.593643	0.298926
C45	C	0.770060	-1.587634	0.301732
H46	H	0.803722	-1.494909	0.303267
H47	H	0.813709	-1.638696	0.214331
H48	H	0.809761	-1.624436	0.389866
O49	O	0.000124	-1.135359	-0.419785
C50	C	0.118523	-1.073295	-0.379119
H51	H	0.158000	-1.104941	-0.288057
H52	H	0.091892	-0.978920	-0.361582
H53	H	0.201415	-1.085834	-0.454834
O54	O	0.618468	-1.458195	0.464511
C55	C	0.570064	-1.347482	0.502825
H56	H	0.544486	-1.302126	0.416086
H57	H	0.652795	-1.297671	0.560519
H58	H	0.473773	-1.353123	0.562851
O59	O	0.381509	-1.598502	0.308973
C60	C	0.429961	-1.632890	0.186397
H61	H	0.455507	-1.554406	0.136381
H62	H	0.347273	-1.684968	0.131150
H63	H	0.526282	-1.687104	0.192542
O64	O	0.374866	-1.449291	0.459357
C65	C	0.419780	-1.516093	0.554125
H66	H	0.449316	-1.604603	0.509583
H67	H	0.333481	-1.523712	0.625172
H68	H	0.512858	-1.473983	0.604253
H69	H	0.095628	-1.608042	-0.457057
H70	H	-0.000070	-1.157605	-0.174209
