data_functionalizedCrystal
_audit_creation_method	'MofGen! by Chris Wilmer'
_symmetry_space_group_name_H-M	'P1'
_symmetry_Int_Tables_number	1
_symmetry_cell_setting	triclinic
loop_
_symmetry_equiv_pos_as_xyz
  x,y,z
_cell_length_a	10.654550
_cell_length_b	19.188930
_cell_length_c	9.730223
_cell_angle_alpha	89.993564
_cell_angle_beta	89.996251
_cell_angle_gamma	83.814841
loop_
_atom_site_label
_atom_site_type_symbol
_atom_site_fract_x
_atom_site_fract_y
_atom_site_fract_z
O1	O	1.665759	0.098059	-0.114420
O2	O	1.300083	0.107401	-0.114400
O3	O	1.493474	0.001144	-0.114384
O4	O	1.472368	0.204317	-0.114436
O5	O	1.493471	0.001146	0.114196
O6	O	1.300081	0.107404	0.114180
O7	O	1.665757	0.098061	0.114160
Zn8	Zn	1.482918	0.102733	0.150462
Zn9	Zn	1.482921	0.102730	-0.150702
O10	O	1.472366	0.204319	0.114144
C11	C	1.253298	0.106717	-0.000107
C12	C	1.113898	0.104664	-0.000098
C13	C	1.033089	0.167227	-0.000134
C14	C	0.902109	0.165295	-0.000157
C15	C	0.932761	0.038231	-0.000114
C16	C	1.063738	0.040164	-0.000081
C17	C	1.015391	0.240587	-0.000165
C18	C	0.884411	0.238654	-0.000188
C19	C	1.492789	-0.024871	-0.000090
C20	C	1.490737	-0.102389	-0.000078
C21	C	1.604213	-0.146570	-0.000078
C22	C	1.602285	-0.219407	-0.000099
C23	C	1.486876	-0.248058	-0.000094
C24	C	1.373386	-0.203867	-0.000102
C25	C	1.375316	-0.131032	-0.000094
N26	N	1.398658	-0.356639	0.077701
N27	N	1.396832	-0.425830	0.077696
C28	C	1.481052	-0.467505	-0.000121
N29	N	1.567186	-0.437377	-0.077917
N30	N	1.569016	-0.368180	-0.077906
C31	C	1.484770	-0.327034	-0.000104
C32	C	1.592445	-0.590665	-0.000147
C33	C	1.590513	-0.663502	-0.000177
C34	C	1.361610	-0.647960	-0.000166
C35	C	1.363545	-0.575125	-0.000149
C36	C	1.478966	-0.546481	-0.000133
C37	C	1.712541	0.098746	-0.000136
C38	C	1.851941	0.100798	-0.000154
C39	C	1.473051	0.230334	-0.000153
C40	C	1.475102	0.307852	-0.000174
N41	N	1.482925	0.102735	0.355998
N42	N	1.482924	0.102722	-0.356238
C43	C	1.568581	0.055700	0.427932
C44	C	1.568577	0.055692	0.571815
C45	C	1.397260	0.149759	0.571818
C46	C	1.397258	0.149764	0.427938
C47	C	1.667493	0.001393	0.427930
C48	C	1.667490	0.001385	0.571813
H49	H	1.129530	-0.010781	-0.000032
H50	H	1.050553	0.263945	-0.098858
H51	H	1.279418	-0.227199	-0.000101
C52	C	1.700952	-0.337962	-0.000099
C53	C	1.727025	-0.267984	-0.000090
H54	H	1.777962	-0.367949	-0.000099
H55	H	1.653607	-0.346705	0.079602
H56	H	1.653620	-0.346693	-0.079821
H57	H	1.774349	-0.259252	0.079637
H58	H	1.774389	-0.259238	-0.079799
C59	C	1.322820	0.270242	0.616110
C60	C	1.303097	0.201454	0.650893
H61	H	1.264679	0.302155	0.664920
H62	H	1.406570	0.278255	0.639698
H63	H	1.310565	0.276967	0.520122
H64	H	1.315361	0.194727	0.746881
H65	H	1.219327	0.193437	0.627314
C66	C	1.640054	-0.071026	0.231307
C67	C	1.640053	-0.071042	0.375213
H68	H	1.623114	-0.115744	0.198765
H69	H	1.576792	-0.036278	0.198788
H70	H	1.720268	-0.061056	0.198776
H71	H	1.559835	-0.081007	0.407745
H72	H	1.703318	-0.105801	0.407746
C73	C	1.870626	0.039410	0.474825
C74	C	1.790102	0.024342	0.367659
H75	H	1.946321	0.053575	0.437612
H76	H	1.830191	0.076119	0.529759
H77	H	1.889994	-0.001250	0.529771
H78	H	1.770726	0.065004	0.312718
H79	H	1.830545	-0.012370	0.312702
H80	H	1.686428	-0.567342	-0.000140
C81	C	1.519622	-0.051955	0.713050
C82	C	1.627759	-0.067078	0.632055
H83	H	1.495093	-0.094223	0.750227
H84	H	1.537330	-0.021467	0.785750
H85	H	1.453099	-0.029929	0.658092
H86	H	1.694285	-0.089100	0.687015
H87	H	1.610057	-0.097578	0.559344
H88	H	1.763748	0.013347	0.610855
H89	H	0.891904	-0.014283	-0.000121
C90	C	0.914780	0.290215	0.220523
C91	C	0.822108	0.268586	0.133015
H92	H	0.876311	0.308695	0.302751
H93	H	0.974352	0.251288	0.241961
H94	H	0.956510	0.325340	0.176208
H95	H	0.780384	0.233457	0.177327
H96	H	0.762514	0.307517	0.111579
H97	H	1.698197	-0.123254	-0.000069
C98	C	1.226277	0.164030	0.266145
C99	C	1.303101	0.201463	0.348863
H100	H	1.168145	0.195949	0.217333
H101	H	1.277294	0.136028	0.202716
H102	H	1.181277	0.134733	0.322293
H103	H	1.348110	0.230756	0.292713
H104	H	1.252079	0.229476	0.412299
H105	H	1.044114	0.269279	0.095493
H106	H	1.271141	-0.539151	-0.000142
H107	H	1.282908	-0.095058	-0.000094
C108	C	0.923625	0.300521	-0.207654
C109	C	0.827273	0.275964	-0.129340
H110	H	0.888349	0.323551	-0.287385
H111	H	0.965436	0.332529	-0.154507
H112	H	0.982426	0.262134	-0.234202
H113	H	0.768477	0.314353	-0.102784
H114	H	0.785443	0.243955	-0.182497
C115	C	1.135549	-0.625278	-0.000159
C116	C	1.234747	-0.679444	-0.000166
H117	H	1.057228	-0.644719	-0.000172
H118	H	1.141060	-0.597203	0.079552
H119	H	1.141076	-0.597184	-0.079870
H120	H	1.229225	-0.707536	0.079551
H121	H	1.229233	-0.707531	-0.079885
H122	H	1.682922	-0.699475	-0.000185
