data_functionalizedCrystal
_audit_creation_method	'MofGen! by Chris Wilmer'
_symmetry_space_group_name_H-M	'P1'
_symmetry_Int_Tables_number	1
_symmetry_cell_setting	triclinic
loop_
_symmetry_equiv_pos_as_xyz
  x,y,z
_cell_length_a	10.723023
_cell_length_b	27.731996
_cell_length_c	9.198806
_cell_angle_alpha	89.990861
_cell_angle_beta	89.996513
_cell_angle_gamma	83.544468
loop_
_atom_site_label
_atom_site_type_symbol
_atom_site_fract_x
_atom_site_fract_y
_atom_site_fract_z
O1	O	1.654350	0.067789	-0.120899
O2	O	1.290926	0.074278	-0.120907
O3	O	1.483959	0.000705	-0.120871
O4	O	1.461317	0.141362	-0.120935
O5	O	1.483944	0.000705	0.120914
O6	O	1.290911	0.074278	0.120878
O7	O	1.654335	0.067789	0.120886
Cu8	Cu	1.472622	0.071033	0.142959
Cu9	Cu	1.472640	0.071034	-0.142980
O10	O	1.461302	0.141362	0.120850
C11	C	1.244439	0.073806	-0.000015
C12	C	1.105944	0.072393	-0.000017
C13	C	1.044190	0.071763	0.125234
C14	C	0.901048	0.070303	0.125235
C15	C	1.483487	-0.017305	0.000026
C16	C	1.482086	-0.070970	0.000041
C17	C	1.473280	-0.403741	-0.131827
C18	C	1.467960	-0.605432	-0.131853
O19	O	1.467225	-0.631507	-0.243942
N20	N	1.467291	-0.630654	-0.000057
C21	C	1.467944	-0.605449	0.131754
O22	O	1.467239	-0.631528	0.243854
C23	C	1.473254	-0.403758	0.131779
C24	C	1.473936	-0.378540	-0.000026
C25	C	1.473960	-0.378523	-0.263621
C26	C	1.475297	-0.328103	-0.263613
C27	C	1.475953	-0.302902	-0.131812
C28	C	1.475273	-0.328120	-0.000018
C29	C	1.473898	-0.378553	0.263589
C30	C	1.475223	-0.328127	0.263583
C31	C	1.475905	-0.302909	0.131779
C32	C	1.477266	-0.252500	0.131791
N33	N	1.477935	-0.227278	-0.000005
C34	C	1.477279	-0.252479	-0.131806
C35	C	1.465158	-0.711339	0.131732
C36	C	1.463832	-0.761762	0.131727
C37	C	1.463846	-0.761742	-0.131881
C38	C	1.465181	-0.711319	-0.131874
C39	C	1.465827	-0.686118	-0.000063
C40	C	1.480087	-0.146595	-0.131780
C41	C	1.481429	-0.096171	-0.131760
C42	C	1.481408	-0.096195	0.131847
C43	C	1.480073	-0.146615	0.131828
C44	C	1.479408	-0.171813	0.000003
O45	O	1.477987	-0.226393	0.243822
O46	O	1.477955	-0.226390	-0.243889
C47	C	1.471943	-0.454160	-0.131835
C48	C	1.471263	-0.479379	-0.000041
C49	C	1.471919	-0.454177	0.131760
C50	C	1.469937	-0.529801	-0.000047
C51	C	1.469281	-0.555003	-0.131848
C52	C	1.469950	-0.529781	-0.263644
C53	C	1.471286	-0.479362	-0.263636
C54	C	1.471250	-0.479399	0.263556
C55	C	1.469915	-0.529818	0.263537
C56	C	1.469258	-0.555020	0.131736
C57	C	1.700823	0.068261	-0.000009
C58	C	1.839318	0.069674	-0.000017
C59	C	1.461775	0.159372	-0.000050
C60	C	1.463176	0.213037	-0.000075
N61	N	1.472618	0.071033	0.344073
N62	N	1.472653	0.071030	-0.344094
C63	C	1.553673	0.040005	0.416285
C64	C	1.553692	0.040004	0.583697
H65	H	1.052841	0.071850	-0.107248
N66	N	1.114515	0.072479	0.267284
H67	H	1.206802	0.073421	0.247148
H68	H	1.081122	0.102160	0.324856
H69	H	0.847940	0.069764	0.232467
H70	H	0.892415	0.070218	-0.107254
N71	N	1.645548	0.004813	0.333997
H72	H	1.700516	0.023429	0.270809
H73	H	1.699560	-0.015891	0.405262
H74	H	1.403259	0.097597	0.593816
N75	N	1.469273	-0.556971	-0.405801
H76	H	1.469916	-0.533348	-0.489305
H77	H	1.546111	-0.581551	-0.411502
H78	H	1.403234	0.097594	0.406188
N79	N	1.645627	0.004818	0.665940
H80	H	1.632612	0.009805	0.773875
H81	H	1.631664	-0.029505	0.639432
N82	N	1.482170	-0.068972	-0.273926
H83	H	1.481548	-0.092591	-0.357419
H84	H	1.405347	-0.044385	-0.279672
N85	N	1.479392	-0.173771	-0.273957
H86	H	1.556220	-0.198354	-0.279818
H87	H	1.401417	-0.190997	-0.279774
H88	H	1.473421	-0.399036	-0.370955
N89	N	1.476025	-0.300907	-0.405774
H90	H	1.475402	-0.324529	-0.489259
H91	H	1.399196	-0.276322	-0.411520
H92	H	1.465734	-0.690789	-0.239201
N93	N	1.463140	-0.788928	-0.274042
H94	H	1.462197	-0.824696	-0.254033
H95	H	1.385991	-0.776448	-0.331592
N96	N	1.463124	-0.788960	0.273886
H97	H	1.463739	-0.765339	0.357375
H98	H	1.385195	-0.806217	0.279631
H99	H	1.469369	-0.550347	0.370877
H100	H	1.465690	-0.690826	0.239075
N101	N	1.473165	-0.405745	0.405751
H102	H	1.473775	-0.382121	0.489233
H103	H	1.395232	-0.423000	0.411490
H104	H	1.475730	-0.307611	0.370922
H105	H	1.479530	-0.167149	0.239154
N106	N	1.482128	-0.069010	0.273999
H107	H	1.483074	-0.033242	0.253992
H108	H	1.404511	-0.074159	0.331550
N109	N	1.471963	-0.452222	0.405720
H110	H	1.471339	-0.475854	0.489200
H111	H	1.549900	-0.434970	0.411466
N112	N	1.472006	-0.452157	-0.405784
H113	H	1.549150	-0.464592	-0.463413
H114	H	1.394347	-0.457273	-0.463285
