data_functionalizedCrystal
_audit_creation_method	'MofGen! by Chris Wilmer'
_symmetry_space_group_name_H-M	'P1'
_symmetry_Int_Tables_number	1
_symmetry_cell_setting	triclinic
loop_
_symmetry_equiv_pos_as_xyz
  x,y,z
_cell_length_a	18.215405
_cell_length_b	21.395364
_cell_length_c	21.395355
_cell_angle_alpha	90.025677
_cell_angle_beta	89.980149
_cell_angle_gamma	89.981083
loop_
_atom_site_label
_atom_site_type_symbol
_atom_site_fract_x
_atom_site_fract_y
_atom_site_fract_z
Zn1	Zn	-0.293187	-0.957884	-0.354274
Zn2	Zn	0.206813	-0.457884	0.145726
Zn3	Zn	-0.416235	-0.957797	-0.249494
Zn4	Zn	0.083765	-0.457797	0.250506
Zn5	Zn	-0.293174	-0.853099	-0.249509
Zn6	Zn	0.206826	-0.353099	0.250491
Zn7	Zn	-0.416203	-0.853079	-0.354233
Zn8	Zn	0.083797	-0.353079	0.145767
O9	O	-0.354700	-0.905465	-0.301878
O10	O	0.145300	-0.405465	0.198122
O11	O	-0.309528	-1.045551	-0.340386
O12	O	0.190472	-0.545551	0.159614
O13	O	-0.399919	-0.943881	-0.161818
O14	O	0.100081	-0.443881	0.338182
O15	O	-0.190191	-0.867044	-0.263430
O16	O	0.309809	-0.367044	0.236570
O17	O	-0.399931	-1.045487	-0.263405
O18	O	0.100069	-0.545487	0.236595
O19	O	-0.190201	-0.944029	-0.340401
O20	O	0.309799	-0.444029	0.159599
O21	O	-0.309506	-0.866960	-0.161829
O22	O	0.190494	-0.366960	0.338171
O23	O	-0.309476	-0.765419	-0.263389
O24	O	0.190524	-0.265419	0.236611
O25	O	-0.399877	-0.867010	-0.441916
O26	O	0.100123	-0.367010	0.058084
O27	O	-0.399865	-0.765404	-0.340329
O28	O	0.100135	-0.265404	0.159671
O29	O	-0.309497	-0.944010	-0.441947
O30	O	0.190503	-0.444010	0.058053
O31	O	-0.519215	-0.943862	-0.263365
O32	O	-0.019215	-0.443862	0.236635
O33	O	-0.519192	-0.866925	-0.340315
O34	O	-0.019192	-0.366925	0.159685
C35	C	-0.354666	-0.742678	-0.301857
C36	C	0.145334	-0.242678	0.198143
C37	C	-0.354669	-0.673036	-0.301863
C38	C	0.145331	-0.173036	0.198137
C39	C	-0.545906	-0.905399	-0.301847
C40	C	-0.045906	-0.405399	0.198153
C41	C	-0.627705	-0.905428	-0.301856
C42	C	-0.127705	-0.405428	0.198144
C43	C	-0.307712	-0.171273	-0.342021
C44	C	0.192288	0.328727	0.157979
C45	C	-0.307709	-0.236708	-0.342022
C46	C	0.192291	0.263292	0.157978
C47	C	-0.354700	-0.269398	-0.301879
C48	C	0.145300	0.230602	0.198121
C49	C	-0.401711	-0.236647	-0.261743
C50	C	0.098289	0.263353	0.238257
C51	C	-0.401718	-0.171213	-0.261747
C52	C	0.098282	0.328787	0.238253
C53	C	-0.360402	-0.373035	-0.245414
C54	C	0.139598	0.126965	0.254586
C55	C	-0.360390	-0.438468	-0.245408
C56	C	0.139610	0.061532	0.254592
C57	C	-0.354682	-0.471219	-0.301866
C58	C	0.145318	0.028781	0.198134
C59	C	-0.348971	-0.438528	-0.358330
C60	C	0.151029	0.061472	0.141670
C61	C	-0.348978	-0.373094	-0.358335
C62	C	0.151022	0.126906	0.141665
C63	C	-0.354698	-0.340350	-0.301870
C64	C	0.145302	0.159650	0.198130
C65	C	-0.307675	-0.574914	-0.342004
C66	C	0.192325	-0.074914	0.157996
C67	C	-0.307677	-0.640351	-0.342006
C68	C	0.192323	-0.140351	0.157994
C69	C	-0.401675	-0.640289	-0.261721
C70	C	0.098325	-0.140289	0.238279
C71	C	-0.401676	-0.574853	-0.261724
C72	C	0.098324	-0.074853	0.238276
C73	C	-0.354673	-0.542170	-0.301865
C74	C	0.145327	-0.042170	0.198135
C75	C	-0.815887	-0.945583	-0.261861
C76	C	-0.315887	-0.445583	0.238139
C77	C	-0.892745	-0.945611	-0.261876
C78	C	-0.392745	-0.445611	0.238124
C79	C	-0.892761	-0.865428	-0.341939
C80	C	-0.392761	-0.365428	0.158061
C81	C	-0.815904	-0.865403	-0.341927
C82	C	-0.315904	-0.365403	0.158073
C83	C	-0.777468	-0.905480	-0.301884
C84	C	-0.277468	-0.405480	0.198116
C85	C	-0.931184	-0.905532	-0.301912
C86	C	-0.431184	-0.405532	0.198088
C87	C	-1.014518	-0.905562	-0.301928
C88	C	-0.514518	-0.405562	0.198072
C89	C	-0.694129	-0.905451	-0.301868
C90	C	-0.194129	-0.405451	0.198132
C91	C	-0.162747	-0.905549	-0.301922
C92	C	0.337253	-0.405549	0.198078
C93	C	-0.080948	-0.905584	-0.301940
C94	C	0.419052	-0.405584	0.198060
C95	C	-0.354685	-0.905517	-0.465301
C96	C	0.145315	-0.405517	0.034699
C97	C	-0.354678	-0.905539	-0.534942
C98	C	0.145322	-0.405539	-0.034942
C99	C	-0.354725	-0.068888	-0.301894
C100	C	0.145275	0.431112	0.198106
C101	C	-0.354714	-0.138530	-0.301888
C102	C	0.145286	0.361470	0.198112
C103	C	-0.307616	-0.945631	-0.567672
C104	C	0.192384	-0.445631	-0.067672
C105	C	-0.307584	-0.945631	-0.633108
C106	C	0.192416	-0.445631	-0.133108
C107	C	-0.354628	-0.905544	-0.665811
C108	C	0.145372	-0.405544	-0.165811
C109	C	-0.401694	-0.865444	-0.633073
C110	C	0.098306	-0.365444	-0.133073
C111	C	-0.401719	-0.865442	-0.567638
C112	C	0.098281	-0.365442	-0.067638
C113	C	-0.420892	-0.900574	-0.769475
C114	C	0.079108	-0.400574	-0.269475
C115	C	-0.420868	-0.900581	-0.834908
C116	C	0.079132	-0.400581	-0.334908
C117	C	-0.354551	-0.905548	-0.867631
C118	C	0.145449	-0.405548	-0.367631
C119	C	-0.288255	-0.910522	-0.834914
C120	C	0.211745	-0.410522	-0.334914
C121	C	-0.288280	-0.910519	-0.769480
C122	C	0.211720	-0.410519	-0.269480
C123	C	-0.354606	-0.905542	-0.736763
C124	C	0.145394	-0.405542	-0.236763
C125	C	-0.307450	-0.945641	-0.971314
C126	C	0.192550	-0.445641	-0.471314
C127	C	-0.307417	-0.945636	-1.036751
C128	C	0.192583	-0.445636	-0.536751
C129	C	-0.401533	-0.865453	-1.036714
C130	C	0.098467	-0.365453	-0.536714
C131	C	-0.401560	-0.865455	-0.971279
C132	C	0.098440	-0.365455	-0.471279
C133	C	-0.354519	-0.905553	-0.938583
C134	C	0.145481	-0.405553	-0.438583
C135	C	-0.354661	-0.905449	-0.139090
C136	C	0.145339	-0.405449	0.360910
C137	C	-0.354461	-0.905549	-0.069449
C138	C	0.145539	-0.405549	0.430551
H139	H	-0.269441	-0.144666	-0.374709
H140	H	0.230559	0.355334	0.125291
N141	N	-0.256868	-0.988861	-0.532401
N142	N	0.243132	-0.488861	-0.032401
H143	H	-0.286786	-1.017882	-0.505259
H144	H	0.213214	-0.517882	-0.005259
H145	H	-0.227051	-1.014217	-0.563102
H146	H	0.272949	-0.514217	-0.063102
H147	H	-0.344330	-0.346481	-0.404310
H148	H	0.155670	0.153519	0.095690
H149	H	-0.344320	-0.465193	-0.404303
H150	H	0.155680	0.034807	0.095697
H151	H	-0.269256	-0.978277	-0.659762
H152	H	0.230744	-0.478277	-0.159762
H153	H	-0.234300	-0.914567	-0.742844
H154	H	0.265700	-0.414567	-0.242844
N155	N	-0.452409	-0.135889	-0.218457
N156	N	0.047591	0.364111	0.281543
H157	H	-0.505007	-0.147267	-0.228106
H158	H	-0.005007	0.352733	0.271894
H159	H	-0.440840	-0.147270	-0.173724
H160	H	0.059160	0.352730	0.326276
H161	H	-0.439888	-0.832811	-0.944630
H162	H	0.060112	-0.332811	-0.444630
H163	H	-0.440043	-0.832791	-0.540990
H164	H	0.059957	-0.332791	-0.040990
N165	N	-0.366553	-0.473729	-0.184514
N166	N	0.133447	0.026271	0.315486
H167	H	-0.321708	-0.500882	-0.178701
H168	H	0.178292	-0.000882	0.321299
H169	H	-0.370204	-0.443018	-0.148785
H170	H	0.129796	0.056982	0.351215
N171	N	-0.366538	-0.337716	-0.184514
N172	N	0.133462	0.162284	0.315486
H173	H	-0.365673	-0.291304	-0.193083
H174	H	0.134327	0.208696	0.306917
H175	H	-0.414122	-0.349127	-0.163138
H176	H	0.085878	0.150873	0.336862
N177	N	-0.452361	-0.539535	-0.218426
N178	N	0.047639	-0.039535	0.281574
H179	H	-0.445235	-0.493123	-0.224519
H180	H	0.054765	0.006877	0.275481
H181	H	-0.504936	-0.550965	-0.228095
H182	H	-0.004936	-0.050965	0.271905
N183	N	-0.256984	-0.539657	-0.385298
N184	N	0.243016	-0.039657	0.114702
H185	H	-0.227211	-0.570332	-0.410727
H186	H	0.272789	-0.070332	0.089273
H187	H	-0.286992	-0.512514	-0.414247
H188	H	0.213008	-0.012514	0.085753
H189	H	-0.234253	-0.914567	-0.861556
H190	H	0.265747	-0.414567	-0.361556
N191	N	-0.934183	-0.988866	-0.218710
N192	N	-0.434183	-0.488866	0.281290
H193	H	-0.898170	-1.014248	-0.193344
H194	H	-0.398170	-0.514248	0.306656
H195	H	-0.966113	-0.963387	-0.189696
H196	H	-0.466113	-0.463387	0.310304
N197	N	-0.774466	-0.822143	-0.385096
N198	N	-0.274466	-0.322143	0.114904
H199	H	-0.742617	-0.793113	-0.359598
H200	H	-0.242617	-0.293113	0.140402
H201	H	-0.742582	-0.847624	-0.414143
H202	H	-0.242582	-0.347624	0.085857
N203	N	-0.257013	-0.272035	-0.385311
N204	N	0.242987	0.227965	0.114689
H205	H	-0.227239	-0.241401	-0.410741
H206	H	0.272761	0.258599	0.089259
H207	H	-0.222915	-0.299177	-0.359851
H208	H	0.277085	0.200823	0.140149
H209	H	-0.269142	-0.978288	-0.944692
H210	H	0.230858	-0.478288	-0.444692
N211	N	-0.256640	-0.988869	-1.072056
N212	N	0.243360	-0.488869	-0.572056
H213	H	-0.226845	-1.014267	-1.041412
H214	H	0.273155	-0.514267	-0.541412
H215	H	-0.286585	-1.017852	-1.099224
H216	H	0.213415	-0.517852	-0.599224
H217	H	-0.924064	-0.832798	-0.374540
H218	H	-0.424064	-0.332798	0.125460
H219	H	-0.439830	-0.832808	-1.063340
H220	H	0.060170	-0.332808	-0.563340
N221	N	-0.256985	-0.675670	-0.385300
N222	N	0.243015	-0.175670	0.114700
H223	H	-0.227211	-0.645034	-0.410727
H224	H	0.272789	-0.145034	0.089273
H225	H	-0.222886	-0.702816	-0.359845
H226	H	0.277114	-0.202816	0.140155
H227	H	-0.474850	-0.896535	-0.861541
H228	H	0.025150	-0.396535	-0.361541
H229	H	-0.474882	-0.896361	-0.742837
H230	H	0.025118	-0.396361	-0.242837
H231	H	-0.439996	-0.832804	-0.659703
H232	H	0.060004	-0.332804	-0.159703
H233	H	-0.439973	-0.263267	-0.229059
H234	H	0.060027	0.236733	0.270941
N235	N	-0.452365	-0.675537	-0.218427
N236	N	0.047635	-0.175537	0.281573
H237	H	-0.445231	-0.721959	-0.224514
H238	H	0.054769	-0.221959	0.275486
H239	H	-0.440838	-0.664081	-0.173696
H240	H	0.059162	-0.164081	0.326304
H241	H	-0.784594	-0.978216	-0.229257
H242	H	-0.284594	-0.478216	0.270743
