data_functionalizedCrystal
_audit_creation_method	'MofGen! by Chris Wilmer'
_symmetry_space_group_name_H-M	'P1'
_symmetry_Int_Tables_number	1
_symmetry_cell_setting	triclinic
loop_
_symmetry_equiv_pos_as_xyz
  x,y,z
_cell_length_a	15.500227
_cell_length_b	14.971486
_cell_length_c	14.971486
_cell_angle_alpha	83.614129
_cell_angle_beta	92.831336
_cell_angle_gamma	87.157060
loop_
_atom_site_label
_atom_site_type_symbol
_atom_site_fract_x
_atom_site_fract_y
_atom_site_fract_z
O1	O	0.071845	-1.191095	-0.112420
O2	O	0.571845	-0.691095	0.387580
O3	O	0.071868	-0.930696	-0.126378
O4	O	0.571868	-0.430696	0.373622
O5	O	0.071850	-1.067875	0.010801
O6	O	0.571850	-0.567875	0.510801
O7	O	0.071863	-1.053917	-0.249599
O8	O	0.571863	-0.553917	0.250401
O9	O	-0.072038	-1.059550	0.002509
O10	O	0.427962	-0.559550	0.502509
O11	O	-0.072019	-0.922372	-0.134670
O12	O	0.427981	-0.422372	0.365330
O13	O	-0.072043	-1.182771	-0.120712
O14	O	0.427957	-0.682771	0.379288
Cu15	Cu	-0.085169	-1.051811	-0.128448
Cu16	Cu	0.414831	-0.551811	0.371552
Cu17	Cu	0.084995	-1.061656	-0.118642
Cu18	Cu	0.584995	-0.561656	0.381358
O19	O	-0.072024	-1.045592	-0.257890
O20	O	0.427976	-0.545592	0.242110
C21	C	-0.000073	-0.893210	-0.129899
C22	C	0.499927	-0.393210	0.370101
C23	C	-0.000064	-0.793913	-0.128028
C24	C	0.499936	-0.293913	0.371972
C25	C	-0.000094	-1.063088	0.039979
C26	C	0.499906	-0.563088	0.539979
C27	C	-0.000093	-1.061218	0.139277
C28	C	0.499907	-0.561218	0.639277
N29	N	-0.204853	-1.044894	-0.135344
N30	N	0.295147	-0.544894	0.364656
C31	C	-0.250138	-1.103041	-0.077238
C32	C	0.249862	-0.603041	0.422762
C33	C	-0.340710	-1.097818	-0.082462
C34	C	0.159290	-0.597818	0.417538
C35	C	-0.385996	-1.034451	-0.145797
C36	C	0.114004	-0.534451	0.354203
C37	C	-0.340705	-0.976297	-0.203905
C38	C	0.159295	-0.476297	0.296095
C39	C	-0.250134	-0.981517	-0.198676
C40	C	0.249866	-0.481517	0.301324
C41	C	-0.659460	-1.015647	-0.164618
C42	C	-0.159460	-0.515647	0.335382
C43	C	-0.750037	-1.010433	-0.169845
C44	C	-0.250037	-0.510433	0.330155
C45	C	-0.750036	-1.131953	-0.048400
C46	C	-0.250036	-0.631953	0.451600
C47	C	-0.659463	-1.137171	-0.043180
C48	C	-0.159463	-0.637171	0.456820
C49	C	-0.614180	-1.079015	-0.101285
C50	C	-0.114180	-0.579015	0.398715
C51	C	-0.478575	-1.029112	-0.151140
C52	C	0.021425	-0.529112	0.348860
C53	C	-0.521603	-1.084350	-0.095937
C54	C	-0.021603	-0.584350	0.404063
N55	N	0.204679	-1.068581	-0.111739
N56	N	0.704679	-0.568581	0.388261
C57	C	-0.000100	-1.220258	-0.117191
C58	C	0.499900	-0.720258	0.382809
C59	C	-0.000103	-1.319555	-0.119061
C60	C	0.499897	-0.819555	0.380939
C61	C	-0.000061	-0.736688	-0.208617
C62	C	0.499939	-0.236688	0.291383
C63	C	-0.000074	-0.643388	-0.206855
C64	C	0.499926	-0.143388	0.293145
C65	C	-0.000083	-0.607315	-0.124502
C66	C	0.499917	-0.107315	0.375498
C67	C	-0.000089	-0.664547	-0.043907
C68	C	0.499911	-0.164547	0.456093
C69	C	-0.000082	-0.757845	-0.045671
C70	C	0.499918	-0.257845	0.454329
C71	C	-0.000101	-0.470084	-0.040237
C72	C	0.499899	0.029916	0.459763
C73	C	-0.000106	-0.376780	-0.038472
C74	C	0.499894	0.123220	0.461528
C75	C	-0.000093	-0.355627	-0.201421
C76	C	0.499907	0.144373	0.298579
C77	C	-0.000086	-0.448925	-0.203184
C78	C	0.499914	0.051075	0.296816
C79	C	-0.000090	-0.506151	-0.122589
C80	C	0.499910	-0.006151	0.377411
C81	C	-0.000079	-1.050379	-0.287069
C82	C	0.499921	-0.550379	0.212931
C83	C	-0.000074	-1.052250	-0.386366
C84	C	0.499926	-0.552250	0.113634
C85	C	-0.000101	-1.141807	0.196501
C86	C	0.499899	-0.641807	0.696501
C87	C	-0.000092	-1.140044	0.289801
C88	C	0.499908	-0.640044	0.789801
C89	C	-0.000081	-1.057691	0.325874
C90	C	0.499919	-0.557691	0.825874
C91	C	-0.000071	-0.977096	0.268642
C92	C	0.499929	-0.477096	0.768642
C93	C	-0.000073	-0.978860	0.175344
C94	C	0.499927	-0.478860	0.675344
C95	C	-0.000067	-0.973426	0.463105
C96	C	0.499933	-0.473426	0.963105
C97	C	-0.000066	-0.971661	0.556409
C98	C	0.499934	-0.471661	1.056409
C99	C	-0.000086	-1.134609	0.577562
C100	C	0.499914	-0.634609	1.077562
C101	C	-0.000088	-1.136373	0.484264
C102	C	0.499912	-0.636373	0.984264
C103	C	-0.000080	-1.055778	0.427038
C104	C	0.499920	-0.555778	0.927038
H105	H	-0.213272	-1.154645	-0.025668
H106	H	0.286728	-0.654645	0.474332
C107	C	-0.000059	-0.884773	0.400158
C108	C	0.499941	-0.384773	0.900158
H109	H	-0.000061	-0.835472	0.435002
H110	H	0.499939	-0.335472	0.935002
H111	H	0.050116	-0.884974	0.366209
H112	H	0.550116	-0.384974	0.866209
H113	H	-0.050244	-0.879173	0.360438
H114	H	0.449756	-0.379173	0.860438
C115	C	-0.000109	-1.228691	0.352745
C116	C	0.499891	-0.728691	0.852745
H117	H	-0.000129	-1.277988	0.317898
H118	H	0.499871	-0.777988	0.817898
H119	H	0.050067	-1.234302	0.392469
H120	H	0.550067	-0.734302	0.892469
H121	H	-0.050293	-1.228479	0.386689
H122	H	0.449707	-0.728479	0.886689
H123	H	-0.000109	-0.635169	0.023145
H124	H	0.499891	-0.135169	0.523145
H125	H	-0.000115	-1.208867	0.167138
H126	H	0.499885	-0.708867	0.667138
C127	C	-0.000091	-0.292682	-0.290074
C128	C	0.499909	0.207318	0.209926
H129	H	-0.000106	-0.231950	-0.277233
H130	H	0.499894	0.268050	0.222767
H131	H	0.050092	-0.306520	-0.320943
H132	H	0.550092	0.193480	0.179057
H133	H	-0.050268	-0.300733	-0.326733
H134	H	0.449732	0.199267	0.173267
H135	H	-0.213265	-0.934166	-0.245991
H136	H	0.286735	-0.434166	0.254009
C137	C	-0.000094	-1.223265	0.640502
C138	C	0.499906	-0.723265	1.140502
H139	H	-0.000112	-1.272562	0.605655
H140	H	0.499888	-0.772562	1.105655
H141	H	0.050084	-1.228874	0.680225
H142	H	0.550084	-0.728874	1.180225
H143	H	-0.050276	-1.223055	0.674448
H144	H	0.449724	-0.723055	1.174448
C145	C	-0.000077	-0.820793	0.042978
C146	C	0.499923	-0.320793	0.542978
H147	H	-0.000074	-0.785950	0.092278
H148	H	0.499926	-0.285950	0.592278
H149	H	-0.050250	-0.854737	0.042788
H150	H	0.449750	-0.354737	0.542788
H151	H	0.050110	-0.860520	0.048565
H152	H	0.550110	-0.360520	0.548565
C153	C	-0.799848	-1.195911	0.015518
C154	C	-0.299848	-0.695911	0.515518
H155	H	-0.860275	-1.183725	0.003341
H156	H	-0.360275	-0.683725	0.503341
H157	H	-0.784996	-1.256471	0.006567
H158	H	-0.284996	-0.756471	0.506567
H159	H	-0.785014	-1.186982	0.076088
H160	H	-0.285014	-0.686982	0.576088
C161	C	-0.390519	-1.161789	-0.018554
C162	C	0.109481	-0.661789	0.481446
H163	H	-0.350577	-1.200284	0.019905
H164	H	0.149423	-0.700284	0.519905
H165	H	-0.425863	-1.127550	0.016700
H166	H	0.074137	-0.627550	0.516700
H167	H	-0.425837	-1.197016	-0.052844
H168	H	0.074163	-0.697016	0.447156
C169	C	-0.609655	-1.206870	0.026493
C170	C	-0.109655	-0.706870	0.526493
H171	H	-0.649597	-1.240748	0.060357
H172	H	-0.149597	-0.740748	0.560357
H173	H	-0.574311	-1.246171	-0.003703
H174	H	-0.074311	-0.746171	0.496297
H175	H	-0.574336	-1.176685	0.065822
H176	H	-0.074336	-0.676685	0.565822
C177	C	-0.000035	-0.881077	0.596090
C178	C	0.499965	-0.381077	1.096090
H179	H	-0.000013	-0.833331	0.548648
H180	H	0.499987	-0.333331	1.048648
H181	H	-0.050206	-0.874086	0.629161
H182	H	0.449794	-0.374086	1.129161
H183	H	0.050154	-0.879925	0.634931
H184	H	0.550154	-0.379925	1.134931
C185	C	-0.000064	-0.890215	0.112393
C186	C	0.499936	-0.390215	0.612393
H187	H	-0.000058	-0.903060	0.051663
H188	H	0.499942	-0.403060	0.551663
H189	H	-0.050235	-0.853543	0.120446
H190	H	0.449765	-0.353543	0.620446
H191	H	0.050124	-0.859360	0.126228
H192	H	0.550124	-0.359360	0.626228
H193	H	-0.786905	-0.958829	-0.221423
H194	H	-0.286905	-0.458829	0.278577
H195	H	-0.622598	-0.968295	-0.211932
H196	H	-0.122598	-0.468295	0.288068
H197	H	-0.377582	-0.924697	-0.255471
H198	H	0.122418	-0.424697	0.244529
H199	H	-0.484728	-1.135940	-0.044367
H200	H	0.015272	-0.635940	0.455633
C201	C	-0.528389	-0.959381	-0.220777
C202	C	-0.028389	-0.459381	0.279223
H203	H	-0.488451	-0.925481	-0.254626
H204	H	0.011549	-0.425481	0.245374
H205	H	-0.563731	-0.989524	-0.260113
H206	H	-0.063731	-0.489524	0.239887
H207	H	-0.563709	-0.920092	-0.190534
H208	H	-0.063709	-0.420092	0.309466
H209	H	-0.000115	-0.347413	0.028586
H210	H	0.499885	0.152587	0.528586
C211	C	-0.000049	-0.776360	-0.299206
C212	C	0.499951	-0.276360	0.200794
H213	H	-0.000057	-0.728912	-0.346949
H214	H	0.499943	-0.228912	0.153051
H215	H	0.050130	-0.815210	-0.300392
H216	H	0.550130	-0.315210	0.199608
H217	H	-0.050230	-0.809419	-0.306173
H218	H	0.449770	-0.309419	0.193827
C219	C	-0.000068	-0.580444	-0.295503
C220	C	0.499932	-0.080444	0.204497
H221	H	-0.000050	-0.615291	-0.344800
H222	H	0.499950	-0.115291	0.155200
H223	H	-0.050248	-0.540715	-0.301098
H224	H	0.449752	-0.040715	0.198902
H225	H	0.050112	-0.546503	-0.295306
H226	H	0.550112	-0.046503	0.204694
C227	C	-0.000095	-0.533031	0.048417
C228	C	0.499905	-0.033031	0.548417
H229	H	-0.000090	-0.498188	0.097718
H230	H	0.499910	0.001812	0.597718
H231	H	-0.050266	-0.566979	0.048233
H232	H	0.449734	-0.066979	0.548233
H233	H	0.050094	-0.572755	0.054000
H234	H	0.550094	-0.072755	0.554000
H235	H	-0.000070	-0.478292	-0.270243
H236	H	0.499930	0.021708	0.229757
H237	H	-0.000103	-1.203431	0.454897
H238	H	0.499897	-0.703431	0.954897
H239	H	-0.000057	-0.910044	0.298020
H240	H	0.499943	-0.410044	0.798020
