data_functionalizedCrystal
_audit_creation_method	'MofGen! by Chris Wilmer'
_symmetry_space_group_name_H-M	'P1'
_symmetry_Int_Tables_number	1
_symmetry_cell_setting	triclinic
loop_
_symmetry_equiv_pos_as_xyz
  x,y,z
_cell_length_a	17.000371
_cell_length_b	17.019294
_cell_length_c	14.586319
_cell_angle_alpha	86.117240
_cell_angle_beta	89.996083
_cell_angle_gamma	79.505866
loop_
_atom_site_label
_atom_site_type_symbol
_atom_site_fract_x
_atom_site_fract_y
_atom_site_fract_z
O1	O	1.056069	0.028426	-0.078488
O2	O	1.556069	0.528426	0.421512
O3	O	0.824304	0.057058	-0.080749
O4	O	1.324304	0.557058	0.419251
O5	O	0.946652	-0.072539	-0.070513
O6	O	1.446652	0.427461	0.429487
O7	O	0.933721	0.158023	-0.088724
O8	O	1.433721	0.658023	0.411276
O9	O	0.946644	-0.072540	0.081968
O10	O	1.446644	0.427460	0.581968
O11	O	0.824296	0.057057	0.071732
O12	O	1.324296	0.557057	0.571732
O13	O	1.056061	0.028425	0.073993
O14	O	1.556061	0.528425	0.573993
Cu15	Cu	0.940177	0.042741	0.086785
Cu16	Cu	1.440177	0.542741	0.586785
Cu17	Cu	0.940187	0.042742	-0.093541
Cu18	Cu	1.440187	0.542742	0.406459
O19	O	0.933713	0.158022	0.063757
O20	O	1.433713	0.658022	0.563757
C21	C	0.794644	0.058596	-0.004630
C22	C	1.294644	0.558596	0.495370
C23	C	0.706281	0.063169	-0.004991
C24	C	1.206281	0.563169	0.495009
C25	C	0.674335	-0.007205	0.000569
C26	C	1.174335	0.492795	0.500569
C27	C	0.591307	-0.002903	0.000223
C28	C	1.091307	0.497097	0.500223
C29	C	0.540226	0.071773	-0.005677
C30	C	1.040226	0.571773	0.494323
C31	C	0.572177	0.142151	-0.011241
C32	C	1.072177	0.642151	0.488759
C33	C	0.655203	0.137849	-0.010901
C34	C	1.155203	0.637849	0.489099
C35	C	0.289061	0.088391	-0.006996
C36	C	0.789061	0.588391	0.493004
C37	C	0.206030	0.092688	-0.007333
C38	C	0.706030	0.592688	0.492667
C39	C	0.225166	-0.052367	0.004129
C40	C	0.725166	0.447633	0.504129
C41	C	0.308193	-0.056663	0.004474
C42	C	0.808193	0.443337	0.504474
C43	C	0.340136	0.013716	-0.001095
C44	C	0.840136	0.513716	0.498905
C45	C	0.455358	0.076171	-0.006029
C46	C	0.955358	0.576171	0.493971
C47	C	0.425003	0.009316	-0.000750
C48	C	0.925003	0.509316	0.499250
C49	C	0.946158	-0.101895	0.008044
C50	C	1.446158	0.398105	0.508044
C51	C	0.944687	-0.189363	0.014947
C52	C	1.444687	0.310637	0.514947
C53	C	0.944002	-0.230451	-0.064927
C54	C	1.444002	0.269549	0.435073
C55	C	0.942615	-0.312636	-0.058438
C56	C	1.442615	0.187364	0.441562
C57	C	0.941918	-0.353732	0.027926
C58	C	1.441918	0.146268	0.527926
C59	C	0.942600	-0.312638	0.107805
C60	C	1.442600	0.187362	0.607805
C61	C	0.943982	-0.230454	0.101316
C62	C	1.443982	0.269546	0.601316
C63	C	0.937742	-0.601875	0.051679
C64	C	1.437742	-0.101875	0.551679
C65	C	0.936363	-0.684066	0.058163
C66	C	1.436363	-0.184066	0.558163
C67	C	0.936376	-0.684057	-0.108081
C68	C	1.436376	-0.184057	0.391919
C69	C	0.937762	-0.601872	-0.114563
C70	C	1.437762	-0.101872	0.385437
C71	C	0.938440	-0.560785	-0.034684
C72	C	1.438440	-0.060785	0.465316
C73	C	0.940503	-0.437739	0.034560
C74	C	1.440503	0.062261	0.534560
C75	C	0.939850	-0.476778	-0.041320
C76	C	1.439850	0.023222	0.458680
C77	C	1.085720	0.026888	-0.002128
C78	C	1.585720	0.526888	0.497872
C79	C	1.174084	0.022315	-0.001773
C80	C	1.674084	0.522315	0.498227
C81	C	0.934207	0.187378	-0.014802
C82	C	1.434207	0.687378	0.485198
C83	C	0.935678	0.274846	-0.021711
C84	C	1.435678	0.774846	0.478289
N85	N	0.940176	0.042739	0.213617
N86	N	1.440176	0.542739	0.713617
N87	N	0.940195	0.042737	-0.220373
N88	N	1.440195	0.542737	0.279627
C89	C	0.994370	-0.014630	0.453155
C90	C	1.494370	0.485370	0.953155
C91	C	0.994372	-0.014632	0.549136
C92	C	1.494372	0.485368	1.049136
C93	C	0.885996	0.100109	0.540083
C94	C	1.385996	0.600109	1.040083
C95	C	0.885990	0.100107	0.444104
C96	C	1.385990	0.600107	0.944104
C97	C	0.940182	0.042738	0.400642
C98	C	1.440182	0.542738	0.900642
C99	C	0.940189	0.042738	0.592603
C100	C	1.440189	0.542738	1.092603
C101	C	0.940192	0.042736	0.696670
C102	C	1.440192	0.542736	1.196670
C103	C	0.940179	0.042739	0.296568
C104	C	1.440179	0.542739	0.796568
H105	H	0.349778	-0.117472	0.009282
H106	H	0.849778	0.382528	0.509282
O107	O	0.517080	0.222693	-0.017600
O108	O	1.017080	0.722693	0.482400
H109	H	0.528422	0.256645	-0.082434
H110	H	1.028422	0.756645	0.417566
O111	O	1.052797	-0.076526	0.406283
O112	O	1.552797	0.423474	0.906283
H113	H	1.043690	-0.066893	0.330719
H114	H	1.543690	0.433107	0.830719
O115	O	0.935624	-0.728403	0.151313
O116	O	1.435624	-0.228403	0.651313
H117	H	0.880777	-0.755072	0.157390
H118	H	1.380777	-0.255072	0.657390
O119	O	0.939764	-0.482079	0.127703
O120	O	1.439764	0.017921	0.627703
H121	H	0.885799	-0.455528	0.165472
H122	H	1.385799	0.044472	0.665472
O123	O	0.938493	-0.557567	0.137830
O124	O	1.438493	-0.057567	0.637830
H125	H	0.937791	-0.599957	0.198972
H126	H	1.437791	-0.099957	0.698972
O127	O	0.827542	0.161981	0.387449
O128	O	1.327542	0.661981	0.887449
H129	H	0.837614	0.222787	0.401047
H130	H	1.337614	0.722787	0.901047
H131	H	0.715920	-0.068015	0.005377
H132	H	1.215920	0.431985	0.505377
H133	H	0.565302	-0.060209	0.004749
H134	H	1.065302	0.439791	0.504749
O135	O	0.940597	-0.432459	-0.134469
O136	O	1.440597	0.067541	0.365531
H137	H	0.995456	-0.405811	-0.140547
H138	H	1.495456	0.094189	0.359453
H139	H	0.466597	-0.051484	0.004049
H140	H	0.966597	0.448516	0.504049
H141	H	1.038496	-0.061347	0.591890
H142	H	1.538496	0.438653	1.091890
H143	H	0.942028	-0.346105	0.178124
H144	H	1.442028	0.153895	0.678124
H145	H	0.841875	0.146819	0.575479
H146	H	1.341875	0.646819	1.075479
H147	H	0.164441	0.153502	-0.012133
H148	H	0.664441	0.653502	0.487867
O149	O	0.190715	-0.128274	0.010126
O150	O	0.690715	0.371726	0.510126
H151	H	0.124400	-0.112741	0.008892
H152	H	0.624400	0.387259	0.508892
H153	H	0.315059	0.145699	-0.011536
H154	H	0.815059	0.645699	0.488464
O155	O	0.944729	-0.186133	0.187464
O156	O	1.444729	0.313867	0.687464
H157	H	0.944022	-0.228517	0.248609
H158	H	1.444022	0.271483	0.748609
O159	O	0.689661	0.213754	-0.016885
O160	O	1.189661	0.713754	0.483115
H161	H	0.669136	0.249363	-0.081841
H162	H	1.169136	0.749363	0.418159
O163	O	0.400256	0.156710	-0.012379
O164	O	0.900256	0.656710	0.487621
H165	H	0.411596	0.190668	-0.077211
H166	H	0.911596	0.690668	0.422789
O167	O	0.944747	-0.186124	-0.158076
O168	O	1.444747	0.313876	0.341924
H169	H	0.944028	-0.228504	-0.212527
H170	H	1.444028	0.271496	0.287473
O171	O	0.941837	-0.356947	-0.144587
O172	O	1.441837	0.143053	0.355413
H173	H	0.942549	-0.314562	-0.205730
H174	H	1.442549	0.185438	0.294270
H175	H	0.938331	-0.568417	-0.184890
H176	H	1.438331	-0.068417	0.315110
H177	H	0.935822	-0.717520	-0.173115
H178	H	1.435822	-0.217520	0.326885
