data_functionalizedCrystal
_audit_creation_method	'MofGen! by Chris Wilmer'
_symmetry_space_group_name_H-M	'P1'
_symmetry_Int_Tables_number	1
_symmetry_cell_setting	triclinic
loop_
_symmetry_equiv_pos_as_xyz
  x,y,z
_cell_length_a	14.519710
_cell_length_b	19.288865
_cell_length_c	18.366186
_cell_angle_alpha	90.011479
_cell_angle_beta	89.991899
_cell_angle_gamma	96.591804
loop_
_atom_site_label
_atom_site_type_symbol
_atom_site_fract_x
_atom_site_fract_y
_atom_site_fract_z
O1	O	1.223296	-0.091051	-0.060542
O2	O	0.954751	-0.101773	-0.060548
O3	O	1.096783	0.004690	-0.060531
O4	O	1.081264	-0.197514	-0.060560
O5	O	1.096759	0.004696	0.060569
O6	O	0.954727	-0.101768	0.060551
O7	O	1.223272	-0.091046	0.060557
Zn8	Zn	1.088995	-0.096406	0.079781
Zn9	Zn	1.089027	-0.096413	-0.079773
O10	O	1.081240	-0.197509	0.060539
C11	C	0.920382	-0.101271	0.000001
C12	C	0.818010	-0.099773	-0.000001
C13	C	1.257640	-0.091548	0.000006
C14	C	1.360012	-0.093045	0.000003
C15	C	1.096272	0.030571	0.000021
C16	C	1.094773	0.107680	0.000027
C17	C	1.734873	-0.098558	0.000002
C18	C	1.630575	-0.097027	0.000002
C19	C	1.547446	-0.095802	0.000002
C20	C	1.443141	-0.094271	0.000003
C21	C	1.081751	-0.223390	-0.000014
C22	C	1.083250	-0.300499	-0.000025
N23	N	1.088981	-0.096401	0.188672
C24	C	1.178111	0.152077	0.000033
C25	C	1.176702	0.224529	0.000021
C26	C	1.091951	0.252581	0.000019
C27	C	1.008602	0.208175	0.000009
C28	C	1.010013	0.135725	0.000014
C29	C	1.025319	0.361110	0.042436
C30	C	1.023911	0.433560	0.042436
C31	C	1.087597	0.476043	0.000003
C32	C	1.152705	0.446068	-0.042422
C33	C	1.154116	0.373618	-0.042418
C34	C	1.090412	0.331141	0.000014
C35	C	1.169414	0.599000	-0.000006
C36	C	1.168002	0.671454	-0.000022
C37	C	0.999899	0.655098	-0.000026
C38	C	1.001314	0.582647	-0.000018
C39	C	1.086073	0.554602	-0.000004
N40	N	1.089049	-0.096413	-0.188664
C41	C	1.151893	-0.049282	0.226780
C42	C	1.151899	-0.049279	0.303008
C43	C	1.089001	-0.096406	0.341125
C44	C	1.026077	-0.143529	0.303008
C45	C	1.026067	-0.143526	0.226781
C46	C	1.076656	-0.159650	0.461876
C47	C	1.076672	-0.159654	0.538101
C48	C	1.089027	-0.096415	0.576232
C49	C	1.101385	-0.033170	0.538130
C50	C	1.101375	-0.033167	0.461903
C51	C	1.089005	-0.096415	0.423780
C52	C	1.151949	-0.049289	0.696996
C53	C	1.151949	-0.049285	0.773225
C54	C	1.026131	-0.143541	0.773223
C55	C	1.026128	-0.143539	0.696995
C56	C	1.089041	-0.096414	0.658886
H57	H	1.244568	0.260683	0.000023
N58	N	1.114700	0.035040	0.420805
H59	H	1.122529	0.075104	0.456522
H60	H	1.058689	0.039189	0.389191
H61	H	1.238430	0.576166	0.000002
N62	N	0.958270	-0.194365	0.655894
H63	H	0.968682	-0.243681	0.669144
H64	H	0.967836	-0.187154	0.601834
H65	H	1.111445	0.018325	0.569175
N66	N	1.269532	0.121837	0.000043
H67	H	1.306038	0.138014	-0.044848
H68	H	1.257713	0.069207	0.000072
N69	N	0.956641	0.315297	0.088224
H70	H	0.967416	0.264852	0.081793
H71	H	0.891535	0.321641	0.072373
H72	H	0.939597	0.231020	0.000006
N73	N	1.257892	0.719343	-0.000019
H74	H	1.311797	0.690580	-0.000007
H75	H	1.260951	0.749770	0.044872
H76	H	0.930893	0.677938	-0.000032
H77	H	0.942147	0.099576	0.000009
H78	H	0.933451	0.546498	-0.000018
N79	N	1.224331	0.341286	-0.088172
H80	H	1.264465	0.379187	-0.115056
H81	H	1.190985	0.307917	-0.124409
H82	H	0.974863	-0.181900	0.334046
N83	N	1.219744	0.001546	0.185677
H84	H	1.259599	0.031397	0.221390
H85	H	1.184566	0.032316	0.154067
N86	N	1.219754	0.001546	0.344123
H87	H	1.259606	0.031400	0.308414
H88	H	1.260408	-0.025121	0.375734
N89	N	1.219770	0.001561	0.655888
H90	H	1.210216	-0.005585	0.601816
H91	H	1.285167	-0.006554	0.669190
N92	N	1.221404	0.491878	-0.088192
H93	H	1.210631	0.542323	-0.081762
H94	H	1.213040	0.478359	-0.141110
N95	N	1.219823	0.001527	0.814331
H96	H	1.259682	0.031372	0.778620
H97	H	1.260467	-0.025154	0.845936
H98	H	0.974915	-0.181911	0.804257
H99	H	1.066616	-0.211151	0.569118
H100	H	0.970893	0.457959	0.076976
H101	H	1.066579	-0.211150	0.430836
H102	H	0.974835	-0.181896	0.195753
