data_functionalizedCrystal
_audit_creation_method	'MofGen! by Chris Wilmer'
_symmetry_space_group_name_H-M	'P1'
_symmetry_Int_Tables_number	1
_symmetry_cell_setting	triclinic
loop_
_symmetry_equiv_pos_as_xyz
  x,y,z
_cell_length_a	16.120444
_cell_length_b	12.645331
_cell_length_c	16.120297
_cell_angle_alpha	87.121877
_cell_angle_beta	84.384883
_cell_angle_gamma	92.925586
loop_
_atom_site_label
_atom_site_type_symbol
_atom_site_fract_x
_atom_site_fract_y
_atom_site_fract_z
Zn1	Zn	-0.356772	1.566073	0.489466
Zn2	Zn	0.143228	2.066073	0.989466
Zn3	Zn	-0.489462	1.565936	0.356778
Zn4	Zn	0.010538	2.065936	0.856778
Zn5	Zn	-0.349706	1.398263	0.349711
Zn6	Zn	0.150294	1.898263	0.849711
Zn7	Zn	-0.496501	1.379279	0.496500
Zn8	Zn	0.003499	1.879279	0.996500
O9	O	-0.423110	1.477388	0.423113
O10	O	0.076890	1.977388	0.923113
O11	O	-0.374385	1.714400	0.471878
O12	O	0.125615	2.214400	0.971878
O13	O	-0.465020	1.551581	0.238878
O14	O	0.034980	2.051581	0.738878
O15	O	-0.233677	1.428525	0.362348
O16	O	0.266323	1.928525	0.862348
O17	O	-0.471872	1.714300	0.374393
O18	O	0.028128	2.214300	0.874393
O19	O	-0.238869	1.551815	0.465026
O20	O	0.261131	2.051815	0.965026
O21	O	-0.362342	1.428393	0.233686
O22	O	0.137658	1.928393	0.733686
O23	O	-0.369167	1.247399	0.369169
O24	O	0.130833	1.747399	0.869169
O25	O	-0.483869	1.396170	0.612528
O26	O	0.016131	1.896170	1.112528
O27	O	-0.477016	1.233452	0.477014
O28	O	0.022984	1.733452	0.977014
O29	O	-0.381210	1.533407	0.607361
O30	O	0.118790	2.033407	1.107361
O31	O	-0.607362	1.533173	0.381214
O32	O	-0.107362	2.033173	0.881214
O33	O	-0.612533	1.396037	0.483867
O34	O	-0.112533	1.896037	0.983867
C35	C	-0.423089	1.201961	0.423088
C36	C	0.076911	1.701961	0.923088
C37	C	-0.423101	1.084129	0.423098
C38	C	0.076899	1.584129	0.923098
C39	C	-0.354974	0.925300	0.355594
C40	C	0.145026	1.425300	0.855594
C41	C	-0.355127	1.047868	0.355320
C42	C	0.144873	1.547868	0.855320
C43	C	-0.509931	1.035259	0.403494
C44	C	-0.009931	1.535259	0.903494
C45	C	-0.509554	0.912714	0.403038
C46	C	-0.009554	1.412714	0.903038
C47	C	-0.405250	0.912495	0.510498
C48	C	0.094750	1.412495	1.010498
C49	C	-0.403258	1.035267	0.509906
C50	C	0.096742	1.535267	1.009906
C51	C	-0.640276	1.462558	0.434088
C52	C	-0.140276	1.962558	0.934088
C53	C	-0.733182	1.456309	0.438811
C54	C	-0.233182	1.956309	0.938811
C55	C	-0.942093	1.510052	0.398792
C56	C	-0.442093	2.010052	0.898792
C57	C	-0.903277	1.444919	0.447443
C58	C	-0.403277	1.944919	0.947443
C59	C	-0.808627	1.451258	0.442639
C60	C	-0.308627	1.951258	0.942639
C61	C	-1.036751	1.503714	0.403595
C62	C	-0.536751	2.003714	0.903595
C63	C	-0.205097	1.492303	0.412114
C64	C	0.294903	1.992303	0.912114
C65	C	-0.112193	1.498659	0.407427
C66	C	0.387807	1.998659	0.907427
C67	C	-0.434113	1.462686	0.641119
C68	C	0.065887	1.962686	1.141119
C69	C	-0.438801	1.456421	0.734021
C70	C	0.061199	1.956421	1.234021
C71	C	-0.423132	1.753890	0.423139
C72	C	0.076868	2.253890	0.923139
C73	C	-0.423141	1.871719	0.423150
C74	C	0.076859	2.371719	0.923150
C75	C	-0.412090	1.492097	0.205953
C76	C	0.087910	1.992097	0.705953
C77	C	-0.407166	1.498584	0.113040
C78	C	0.092834	1.998584	0.613040
C79	C	-0.447343	1.444945	0.904111
C80	C	0.052657	1.944945	1.404111
C81	C	-0.398627	1.510056	0.942955
C82	C	0.101373	2.010056	1.442955
C83	C	-0.403380	1.503671	1.037599
C84	C	0.096620	2.003671	1.537599
C85	C	-0.442592	1.451329	0.809458
C86	C	0.057408	1.951329	1.309458
H87	H	-0.449644	1.059527	0.562572
H88	H	0.050356	1.559527	1.062572
H89	H	-0.353349	1.570595	0.905131
H90	H	0.146651	2.070595	1.405131
H91	H	-0.941130	1.384394	0.492703
H92	H	-0.441130	1.884394	0.992703
N93	N	-0.507314	1.364769	0.954218
N94	N	-0.007314	1.864769	1.454218
H95	H	-0.566293	1.378149	0.942111
H96	H	-0.066293	1.878149	1.442111
H97	H	-0.493516	1.290945	0.938396
H98	H	0.006484	1.790945	1.438396
H99	H	-0.454954	0.877057	0.560778
H100	H	0.045046	1.377057	1.060778
H101	H	-0.904244	1.570572	0.353535
H102	H	-0.404244	2.070572	0.853535
H103	H	-0.290600	1.081382	0.367097
H104	H	0.209400	1.581382	0.867097
H105	H	-0.290242	0.899274	0.367199
H106	H	0.209758	1.399274	0.867199
H107	H	-0.525990	1.068942	0.340482
H108	H	-0.025990	1.568942	0.840482
H109	H	-0.366593	1.080587	0.290501
H110	H	0.133407	1.580587	0.790501
N111	N	-0.369927	0.888579	0.270339
N112	N	0.130073	1.388579	0.770339
H113	H	-0.426942	0.908841	0.256349
H114	H	0.073058	1.408841	0.756349
H115	H	-0.325838	0.923188	0.227263
H116	H	0.174162	1.423188	0.727263
N117	N	-0.530346	0.878861	0.318633
N118	N	-0.030346	1.378861	0.818633
H119	H	-0.539669	0.943526	0.282071
H120	H	-0.039669	1.443526	0.782071
H121	H	-0.482586	0.839829	0.291682
H122	H	0.017414	1.339829	0.791682
N123	N	-0.318654	1.078015	0.529614
N124	N	0.181346	1.578015	1.029614
H125	H	-0.281005	1.017399	0.536438
H126	H	0.218995	1.517399	1.036438
H127	H	-0.293344	1.128838	0.482495
H128	H	0.206656	1.628838	0.982495
N129	N	-0.578788	0.864904	0.465683
N130	N	-0.078788	1.364904	0.965683
H131	H	-0.569468	0.888545	0.523134
H132	H	-0.069468	1.388545	1.023134
H133	H	-0.634173	0.889149	0.449941
H134	H	-0.134173	1.389149	0.949941
N135	N	-0.578736	1.065338	0.466904
N136	N	-0.078736	1.565338	0.966904
H137	H	-0.580880	1.145081	0.465662
H138	H	-0.080880	1.645081	0.965662
H139	H	-0.633948	1.033002	0.453064
H140	H	-0.133948	1.533002	0.953064
N141	N	-0.323156	0.875315	0.535277
N142	N	0.176844	1.375315	1.035277
H143	H	-0.325069	0.795243	0.538712
H144	H	0.174931	1.295243	1.038712
H145	H	-0.276508	0.903483	0.492210
H146	H	0.223492	1.403483	0.992210
