data_functionalizedCrystal
_audit_creation_method	'MofGen! by Chris Wilmer'
_symmetry_space_group_name_H-M	'P1'
_symmetry_Int_Tables_number	1
_symmetry_cell_setting	triclinic
loop_
_symmetry_equiv_pos_as_xyz
  x,y,z
_cell_length_a	17.077404
_cell_length_b	12.759400
_cell_length_c	17.077396
_cell_angle_alpha	90.026420
_cell_angle_beta	90.017244
_cell_angle_gamma	90.014910
loop_
_atom_site_label
_atom_site_type_symbol
_atom_site_fract_x
_atom_site_fract_y
_atom_site_fract_z
Zn1	Zn	1.200082	-0.418251	0.443859
Zn2	Zn	1.700082	0.081749	0.943859
Zn3	Zn	1.200013	-0.593954	0.312599
Zn4	Zn	1.700013	-0.093954	0.812599
Zn5	Zn	1.068819	-0.418291	0.312606
Zn6	Zn	1.568819	0.081709	0.812606
Zn7	Zn	1.068800	-0.593890	0.443823
Zn8	Zn	1.568800	-0.093890	0.943823
O9	O	1.134429	-0.506097	0.378222
O10	O	1.634429	-0.006097	0.878222
O11	O	1.309920	-0.441569	0.426459
O12	O	1.809920	0.058431	0.926459
O13	O	1.182589	-0.570696	0.202753
O14	O	1.682589	-0.070696	0.702753
O15	O	1.086268	-0.271264	0.330035
O16	O	1.586268	0.228736	0.830035
O17	O	1.309869	-0.570658	0.330023
O18	O	1.809869	-0.070658	0.830023
O19	O	1.182706	-0.271236	0.426466
O20	O	1.682706	0.228764	0.926466
O21	O	1.086201	-0.441637	0.202759
O22	O	1.586201	0.058363	0.702759
O23	O	0.958970	-0.441574	0.330001
O24	O	1.458970	0.058426	0.830001
O25	O	1.086236	-0.570547	0.553674
O26	O	1.586236	-0.070547	1.053674
O27	O	0.958956	-0.570585	0.426405
O28	O	1.458956	-0.070585	0.926405
O29	O	1.182688	-0.441506	0.553701
O30	O	1.682688	0.058494	1.053701
O31	O	1.182571	-0.740967	0.329988
O32	O	1.682571	-0.240967	0.829988
O33	O	1.086170	-0.740919	0.426398
O34	O	1.586170	-0.240919	0.926398
C35	C	0.930481	-0.506077	0.378200
C36	C	1.430481	-0.006077	0.878200
C37	C	0.843231	-0.506095	0.378209
C38	C	1.343231	-0.006095	0.878209
C39	C	0.802254	-0.573372	0.428326
C40	C	1.302254	-0.073372	0.928326
C41	C	0.720274	-0.573375	0.428339
C42	C	1.220274	-0.073375	0.928339
C43	C	0.679271	-0.506104	0.378230
C44	C	1.179271	-0.006104	0.878230
C45	C	0.720254	-0.438819	0.328111
C46	C	1.220254	0.061181	0.828111
C47	C	0.802233	-0.438812	0.328103
C48	C	1.302233	0.061188	0.828103
C49	C	0.549384	-0.438839	0.328130
C50	C	1.049384	0.061161	0.828130
C51	C	0.467399	-0.438847	0.328136
C52	C	0.967399	0.061153	0.828136
C53	C	0.467425	-0.573402	0.428366
C54	C	0.967425	-0.073402	0.928366
C55	C	0.549404	-0.573395	0.428358
C56	C	1.049404	-0.073395	0.928358
C57	C	0.590380	-0.506111	0.378237
C58	C	1.090380	-0.006111	0.878237
C59	C	1.134382	-0.779064	0.378205
C60	C	1.634382	-0.279064	0.878205
C61	C	1.134434	-0.895841	0.378225
C62	C	1.634434	-0.395841	0.878225
C63	C	1.184686	-0.950692	0.328080
C64	C	1.684686	-0.450692	0.828080
C65	C	1.184734	-1.060416	0.328104
C66	C	1.684734	-0.560416	0.828104
C67	C	1.084272	-1.060427	0.428420
C68	C	1.584272	-0.560427	0.928420
C69	C	1.084228	-0.950705	0.428399
C70	C	1.584228	-0.450705	0.928399
C71	C	1.242684	-0.950687	0.270160
C72	C	1.742684	-0.450687	0.770160
C73	C	1.242733	-1.060411	0.270185
C74	C	1.742733	-0.560411	0.770185
C75	C	1.339173	-0.506116	0.378244
C76	C	1.839173	-0.006116	0.878244
C77	C	1.426423	-0.506125	0.378253
C78	C	1.926423	-0.006125	0.878253
C79	C	1.134468	-0.506015	0.582966
C80	C	1.634468	-0.006015	1.082966
C81	C	1.134485	-0.505980	0.670216
C82	C	1.634485	-0.005980	1.170216
C83	C	1.134497	-0.232063	0.378255
C84	C	1.634497	0.267937	0.878255
C85	C	1.134526	-0.115287	0.378270
C86	C	1.634526	0.384713	0.878270
C87	C	1.134434	-0.506102	0.174274
C88	C	1.634434	-0.006102	0.674274
C89	C	1.134570	-0.505840	0.087025
C90	C	1.634570	-0.005840	0.587025
C91	C	1.084311	-0.438771	0.711208
C92	C	1.584311	0.061229	1.211208
C93	C	1.084324	-0.438747	0.793189
C94	C	1.584324	0.061253	1.293189
C95	C	1.134515	-0.505928	0.834175
C96	C	1.634515	-0.005928	1.334175
C97	C	1.184691	-0.573145	0.793177
C98	C	1.684691	-0.073145	1.293177
C99	C	1.184674	-0.573173	0.711198
C100	C	1.684674	-0.073173	1.211198
C101	C	1.184725	-0.573079	0.964047
C102	C	1.684725	-0.073079	1.464047
C103	C	1.184743	-0.573050	1.046032
C104	C	1.684743	-0.073050	1.546032
C105	C	1.084375	-0.438653	1.046038
C106	C	1.584375	0.061347	1.546038
C107	C	1.084358	-0.438682	0.964059
C108	C	1.584358	0.061318	1.464059
C109	C	1.134535	-0.505897	0.923066
C110	C	1.634535	-0.005897	1.423066
H111	H	0.582786	-0.628179	0.469157
H112	H	1.082786	-0.128179	0.969157
H113	H	1.043464	-0.384023	0.826561
H114	H	1.543464	0.115977	1.326561
H115	H	1.303459	-0.920831	0.286490
H116	H	1.803459	-0.420831	0.786490
Cl117	Cl	1.209077	-0.898256	0.180969
Cl118	Cl	1.709077	-0.398256	0.680969
H119	H	1.043444	-0.384059	0.677843
H120	H	1.543444	0.115941	1.177843
H121	H	1.225536	-0.627894	0.677823
H122	H	1.725536	-0.127894	1.177823
H123	H	1.043316	-0.906045	0.469238
H124	H	1.543316	-0.406045	0.969238
H125	H	0.835632	-0.628156	0.469129
H126	H	1.335632	-0.128156	0.969129
Cl127	Cl	1.247784	-0.657608	0.844704
Cl128	Cl	1.747784	-0.157608	1.344704
Cl129	Cl	1.217666	-1.106513	0.176311
Cl130	Cl	1.717666	-0.606513	0.676311
Cl131	Cl	1.331895	-1.112832	0.303899
Cl132	Cl	1.831895	-0.612832	0.803899
H133	H	0.434058	-0.628184	0.469178
H134	H	0.934058	-0.128184	0.969178
H135	H	1.043491	-0.383972	0.930690
H136	H	1.543491	0.116028	1.430690
Cl137	Cl	0.415854	-0.354281	0.265138
Cl138	Cl	0.915854	0.145719	0.765138
Cl139	Cl	1.021297	-0.354152	1.097571
Cl140	Cl	1.521297	0.145848	1.597571
Cl141	Cl	1.247847	-0.657500	1.097557
Cl142	Cl	1.747847	-0.157500	1.597557
Cl143	Cl	1.247803	-0.657584	0.912515
Cl144	Cl	1.747803	-0.157584	1.412515
Cl145	Cl	1.021160	-1.129407	0.491494
Cl146	Cl	1.521160	-0.629407	0.991494
Cl147	Cl	0.600896	-0.354252	0.265120
Cl148	Cl	1.100896	0.145748	0.765120
Cl149	Cl	0.668764	-0.657956	0.491346
Cl150	Cl	1.168764	-0.157956	0.991346
Cl151	Cl	0.668708	-0.354242	0.265121
Cl152	Cl	1.168708	0.145758	0.765121
H153	H	0.835595	-0.384022	0.287296
H154	H	1.335595	0.115978	0.787296
