data_functionalizedCrystal
_audit_creation_method	'MofGen! by Chris Wilmer'
_symmetry_space_group_name_H-M	'P1'
_symmetry_Int_Tables_number	1
_symmetry_cell_setting	triclinic
loop_
_symmetry_equiv_pos_as_xyz
  x,y,z
_cell_length_a	17.699077
_cell_length_b	14.853567
_cell_length_c	16.176319
_cell_angle_alpha	89.996997
_cell_angle_beta	89.993140
_cell_angle_gamma	83.457753
loop_
_atom_site_label
_atom_site_type_symbol
_atom_site_fract_x
_atom_site_fract_y
_atom_site_fract_z
O1	O	1.004377	0.113983	-0.068729
O2	O	1.504377	0.613983	0.431271
O3	O	0.784037	0.128821	-0.068732
O4	O	1.284037	0.628821	0.431268
O5	O	0.900093	-0.009850	-0.068733
O6	O	1.400093	0.490150	0.431267
O7	O	0.888322	0.252653	-0.068728
O8	O	1.388322	0.752653	0.431272
O9	O	0.900077	-0.009859	0.068761
O10	O	1.400077	0.490141	0.568761
O11	O	0.784021	0.128812	0.068761
O12	O	1.284021	0.628812	0.568761
O13	O	1.004361	0.113974	0.068765
O14	O	1.504361	0.613974	0.568765
Cu15	Cu	0.894190	0.121392	0.081317
Cu16	Cu	1.394190	0.621392	0.581317
Cu17	Cu	0.894209	0.121403	-0.081284
Cu18	Cu	1.394209	0.621403	0.418716
O19	O	0.888306	0.252645	0.068765
O20	O	1.388306	0.752645	0.568765
C21	C	0.755830	0.128286	0.000014
C22	C	1.255830	0.628286	0.500014
C23	C	0.671808	0.126694	0.000013
C24	C	1.171808	0.626694	0.500013
C25	C	0.632330	0.125938	0.074961
C26	C	1.132330	0.625938	0.574961
C27	C	0.553384	0.124428	0.074962
C28	C	1.053384	0.624428	0.574962
C29	C	0.513916	0.123679	0.000014
C30	C	1.013916	0.623679	0.500014
C31	C	0.553400	0.124431	-0.074941
C32	C	1.053400	0.624431	0.425059
C33	C	0.632345	0.125935	-0.074941
C34	C	1.132345	0.625935	0.425059
C35	C	0.235021	0.118364	-0.074942
C36	C	0.735021	0.618364	0.425058
C37	C	0.156069	0.116863	-0.074937
C38	C	0.656069	0.616863	0.425063
C39	C	0.156059	0.116857	0.074960
C40	C	0.656059	0.616857	0.574960
C41	C	0.235004	0.118361	0.074960
C42	C	0.735004	0.618361	0.574960
C43	C	0.274482	0.119108	0.000007
C44	C	0.774482	0.619108	0.500007
C45	C	0.360085	0.120745	0.000007
C46	C	0.860085	0.620745	0.500007
C47	C	0.428314	0.122049	0.000013
C48	C	0.928314	0.622049	0.500013
C49	C	0.899551	-0.043441	0.000012
C50	C	1.399551	0.456559	0.500012
C51	C	0.897953	-0.143519	0.000004
C52	C	1.397953	0.356481	0.500004
C53	C	0.822257	-0.555772	0.000019
C54	C	1.322257	-0.055772	0.500019
C55	C	0.960134	-0.577564	0.000021
C56	C	1.460134	-0.077564	0.500021
C57	C	0.961637	-0.483536	0.000016
C58	C	1.461637	0.016464	0.500016
C59	C	0.893449	-0.425621	0.000014
C60	C	1.393449	0.074379	0.500014
C61	C	0.823758	-0.461735	0.000017
C62	C	1.323758	0.038265	0.500017
C63	C	1.031327	-0.447415	0.000022
C64	C	1.531327	0.052585	0.500022
C65	C	1.032832	-0.353382	0.000018
C66	C	1.532832	0.146618	0.500018
C67	C	0.964643	-0.295465	0.000010
C68	C	1.464643	0.204535	0.500010
C69	C	0.894950	-0.331584	0.000012
C70	C	1.394950	0.168416	0.500012
C71	C	0.826761	-0.273669	0.000009
C72	C	1.326761	0.226331	0.500009
C73	C	0.757067	-0.309786	0.000005
C74	C	1.257067	0.190214	0.500005
C75	C	0.755569	-0.403818	0.000009
C76	C	1.255569	0.096182	0.500009
C77	C	0.966141	-0.201433	0.000006
C78	C	1.466141	0.298567	0.500006
C79	C	0.828262	-0.179632	0.000007
C80	C	1.328262	0.320368	0.500007
C81	C	1.032568	0.114509	0.000017
C82	C	1.532568	0.614509	0.500017
C83	C	1.116590	0.116101	0.000013
C84	C	1.616590	0.616101	0.500013
C85	C	0.888847	0.286236	0.000019
C86	C	1.388847	0.786236	0.500019
C87	C	0.890445	0.386313	0.000021
C88	C	1.390445	0.886313	0.500021
N89	N	0.894182	0.121384	0.195682
N90	N	1.394182	0.621384	0.695682
N91	N	0.894222	0.121403	-0.195650
N92	N	1.394222	0.621403	0.304350
C93	C	0.945587	0.060006	0.238946
C94	C	1.445587	0.560006	0.738946
C95	C	0.945591	0.060005	0.325493
C96	C	1.445591	0.560005	0.825493
C97	C	0.894193	0.121387	0.368775
C98	C	1.394193	0.621387	0.868775
C99	C	0.842782	0.182769	0.325505
C100	C	1.342782	0.682769	0.825505
C101	C	0.842775	0.182765	0.238960
C102	C	1.342775	0.682765	0.738960
C103	C	0.842808	0.182786	0.674533
C104	C	1.342808	0.682786	1.174533
C105	C	0.842820	0.182787	0.761085
C106	C	1.342820	0.682787	1.261085
C107	C	0.945624	0.060026	0.761067
C108	C	1.445624	0.560026	1.261067
C109	C	0.945617	0.060022	0.674522
C110	C	1.445617	0.560022	1.174522
C111	C	0.894204	0.121400	0.631259
C112	C	1.394204	0.621400	1.131259
C113	C	0.894199	0.121399	0.537415
C114	C	1.394199	0.621399	1.037415
C115	C	0.894200	0.121393	0.462618
C116	C	1.394200	0.621393	0.962618
H117	H	0.123937	0.116252	-0.135972
H118	H	0.623937	0.616252	0.364028
Cl119	Cl	0.106426	0.115912	0.169190
Cl120	Cl	0.606426	0.615912	0.669190
H121	H	0.664487	0.126552	-0.135971
H122	H	1.164487	0.626552	0.364029
H123	H	0.800947	0.232763	0.639316
H124	H	1.300947	0.732763	1.139316
Cl125	Cl	0.778146	0.259927	0.184572
Cl126	Cl	1.278146	0.759927	0.684572
H127	H	0.701548	-0.262620	0.000009
H128	H	1.201548	0.237380	0.500009
H129	H	1.086842	-0.494576	0.000031
H130	H	1.586842	0.005424	0.500031
Cl131	Cl	0.667961	-0.449229	0.000001
Cl132	Cl	1.167961	0.050771	0.500001
H133	H	1.015650	-0.624723	0.000029
H134	H	1.515650	-0.124723	0.500029
Cl135	Cl	0.734646	-0.601173	0.000006
Cl136	Cl	1.234646	-0.101173	0.500006
Cl137	Cl	1.120446	-0.307986	0.000009
Cl138	Cl	1.620446	0.192014	0.500009
Cl139	Cl	0.284639	0.119306	-0.169170
Cl140	Cl	0.784639	0.619306	0.330830
Cl141	Cl	0.503755	0.123495	0.169187
Cl142	Cl	1.003755	0.623495	0.669187
H143	H	0.987472	0.010042	0.639284
H144	H	1.487472	0.510042	1.139284
H145	H	0.521260	0.123815	-0.135965
H146	H	1.021260	0.623815	0.364035
Cl147	Cl	1.053750	-0.156032	0.000027
Cl148	Cl	1.553750	0.343968	0.500027
Cl149	Cl	0.681938	0.126886	0.169188
Cl150	Cl	1.181938	0.626886	0.669188
H151	H	0.987444	0.010025	0.203712
H152	H	1.487444	0.510025	0.703712
Cl153	Cl	0.742534	-0.106832	-0.000002
Cl154	Cl	1.242534	0.393168	0.499998
Cl155	Cl	0.284616	0.119307	0.169185
Cl156	Cl	0.784616	0.619307	0.669185
Cl157	Cl	1.010256	-0.017140	0.815459
Cl158	Cl	1.510256	0.482860	1.315459
H159	H	0.987448	0.010026	0.360718
H160	H	1.487448	0.510026	0.860718
H161	H	0.800963	0.232773	0.796323
H162	H	1.300963	0.732773	1.296323
H163	H	0.800929	0.232745	0.360750
H164	H	1.300929	0.732745	0.860750
