data_functionalizedCrystal
_audit_creation_method	'MofGen! by Chris Wilmer'
_symmetry_space_group_name_H-M	'P1'
_symmetry_Int_Tables_number	1
_symmetry_cell_setting	triclinic
loop_
_symmetry_equiv_pos_as_xyz
  x,y,z
_cell_length_a	29.839134
_cell_length_b	29.839131
_cell_length_c	29.839125
_cell_angle_alpha	89.982291
_cell_angle_beta	89.978020
_cell_angle_gamma	90.036281
loop_
_atom_site_label
_atom_site_type_symbol
_atom_site_fract_x
_atom_site_fract_y
_atom_site_fract_z
Zn1	Zn	0.686720	-0.178978	-0.254125
Zn2	Zn	0.686652	-0.254090	-0.178995
Zn3	Zn	0.611602	-0.178968	-0.178995
Zn4	Zn	0.611550	-0.254075	-0.254083
O5	O	0.649131	-0.216528	-0.216549
O6	O	0.749578	-0.188952	-0.244176
O7	O	0.676690	-0.244127	-0.116128
O8	O	0.621617	-0.116102	-0.188978
O9	O	0.749528	-0.244137	-0.188979
O10	O	0.676805	-0.116109	-0.244176
O11	O	0.621551	-0.188935	-0.116127
O12	O	0.548728	-0.188921	-0.188938
O13	O	0.621528	-0.244111	-0.316956
O14	O	0.548690	-0.244101	-0.244105
O15	O	0.676755	-0.188937	-0.316987
O16	O	0.676639	-0.316955	-0.188938
O17	O	0.621462	-0.316944	-0.244105
C18	C	0.532408	-0.216509	-0.216517
C19	C	0.482474	-0.216511	-0.216514
C20	C	0.172820	-0.245303	-0.245240
C21	C	-0.014853	-0.245315	-0.245260
O22	O	-0.039127	-0.269774	-0.269665
N23	N	-0.038311	-0.216544	-0.216583
C24	C	-0.014848	-0.187766	-0.187902
O25	O	-0.039107	-0.163291	-0.163514
C26	C	0.172824	-0.187751	-0.187884
C27	C	0.196280	-0.216527	-0.216560
C28	C	0.196276	-0.274076	-0.273913
C29	C	0.243191	-0.274075	-0.273906
C30	C	0.266651	-0.245299	-0.245226
C31	C	0.243195	-0.216526	-0.216553
C32	C	0.196286	-0.158971	-0.159205
C33	C	0.243207	-0.158969	-0.159204
C34	C	0.266663	-0.187745	-0.187880
C35	C	0.313570	-0.187749	-0.187865
N36	N	0.337029	-0.216520	-0.216542
C37	C	0.313569	-0.245295	-0.245222
C38	C	-0.113379	-0.187776	-0.187912
C39	C	-0.160297	-0.187780	-0.187916
C40	C	-0.160298	-0.245329	-0.245275
C41	C	-0.113380	-0.245327	-0.245269
C42	C	-0.089921	-0.216547	-0.216589
C43	C	0.412095	-0.245290	-0.245205
C44	C	0.459014	-0.245287	-0.245194
C45	C	0.459012	-0.187736	-0.187837
C46	C	0.412096	-0.187740	-0.187846
C47	C	0.388639	-0.216519	-0.216534
O48	O	0.337873	-0.163299	-0.163477
O49	O	0.337836	-0.269759	-0.269613
C50	C	0.125905	-0.245304	-0.245247
C51	C	0.102449	-0.216531	-0.216574
C52	C	0.125909	-0.187755	-0.187893
C53	C	0.055531	-0.216535	-0.216577
C54	C	0.032071	-0.245310	-0.245258
C55	C	0.055529	-0.274082	-0.273934
C56	C	0.102445	-0.274080	-0.273927
C57	C	0.102451	-0.158984	-0.159217
C58	C	0.055535	-0.158989	-0.159226
C59	C	0.032075	-0.187764	-0.187906
C60	C	0.649050	-0.333250	-0.216527
C61	C	0.649056	-0.383185	-0.216533
C62	C	0.677914	-0.692821	-0.187866
C63	C	0.677969	-0.880494	-0.187883
O64	O	0.702441	-0.904753	-0.163493
N65	N	0.649224	-0.903970	-0.216583
C66	C	0.620465	-0.880524	-0.245283
O67	O	0.596020	-0.904798	-0.269698
C68	C	0.620412	-0.692852	-0.245268
C69	C	0.649156	-0.669379	-0.216563
C70	C	0.706656	-0.669348	-0.159164
C71	C	0.706640	-0.622433	-0.159158
C72	C	0.677882	-0.598990	-0.187854
C73	C	0.649140	-0.622463	-0.216557
C74	C	0.591656	-0.669407	-0.273969
C75	C	0.591646	-0.622486	-0.273964
C76	C	0.620390	-0.599013	-0.245259
C77	C	0.620367	-0.552106	-0.245248
N78	N	0.649112	-0.528630	-0.216548
C79	C	0.677869	-0.552072	-0.187851
C80	C	0.620494	-0.979055	-0.245289
C81	C	0.620507	-1.025973	-0.245292
C82	C	0.678012	-1.025939	-0.187893
C83	C	0.677996	-0.979021	-0.187887
C84	C	0.649239	-0.955579	-0.216589
C85	C	0.677834	-0.453547	-0.187841
C86	C	0.677814	-0.406627	-0.187836
C87	C	0.620311	-0.406664	-0.245237
C88	C	0.620329	-0.453580	-0.245240
C89	C	0.649094	-0.477020	-0.216540
O90	O	0.595912	-0.527818	-0.269629
O91	O	0.702318	-0.527791	-0.163447
C92	C	0.677930	-0.739737	-0.187872
C93	C	0.649188	-0.763210	-0.216574
C94	C	0.620430	-0.739767	-0.245271
C95	C	0.649200	-0.810128	-0.216578
C96	C	0.677958	-0.833570	-0.187881
C97	C	0.706703	-0.810094	-0.159181
C98	C	0.706687	-0.763179	-0.159175
C99	C	0.591685	-0.763243	-0.273971
C100	C	0.591703	-0.810158	-0.273974
C101	C	0.620461	-0.833601	-0.245277
C102	C	0.766309	-0.216547	-0.216582
C103	C	0.816244	-0.216555	-0.216596
C104	C	0.649143	-0.216524	-0.333728
C105	C	0.649148	-0.216522	-0.383662
C106	C	0.649225	-0.099349	-0.216582
C107	C	0.649265	-0.049415	-0.216595
C108	C	0.677935	-0.187718	-0.693325
C109	C	0.677957	-0.187680	-0.880998
O110	O	0.702399	-0.163232	-0.905279
N111	N	0.649208	-0.216402	-0.904448
C112	C	0.620449	-0.245133	-0.880976
O113	O	0.595993	-0.269559	-0.905228
C114	C	0.620424	-0.245169	-0.693304
C115	C	0.649179	-0.216448	-0.669857
C116	C	0.706687	-0.158999	-0.669877
C117	C	0.706683	-0.159011	-0.622962
C118	C	0.677927	-0.187741	-0.599494
C119	C	0.649175	-0.216460	-0.622941
C120	C	0.591663	-0.273898	-0.669833
C121	C	0.591659	-0.273903	-0.622912
C122	C	0.620414	-0.245183	-0.599465
C123	C	0.620415	-0.245202	-0.552558
N124	N	0.649164	-0.216480	-0.529108
C125	C	0.677920	-0.187749	-0.552576
C126	C	0.620464	-0.245113	-0.979507
C127	C	0.620471	-0.245105	-1.026425
C128	C	0.677979	-0.187650	-1.026443
C129	C	0.677974	-0.187661	-0.979524
C130	C	0.649214	-0.216391	-0.956057
C131	C	0.677910	-0.187776	-0.454050
C132	C	0.677904	-0.187792	-0.407130
C133	C	0.620395	-0.245244	-0.407116
C134	C	0.620401	-0.245230	-0.454032
C135	C	0.649161	-0.216493	-0.477497
O136	O	0.595982	-0.269633	-0.528248
O137	O	0.702366	-0.163320	-0.528316
C138	C	0.677939	-0.187706	-0.740240
C139	C	0.649187	-0.216425	-0.763688
C140	C	0.620431	-0.245155	-0.740219
C141	C	0.649194	-0.216417	-0.810605
C142	C	0.677950	-0.187686	-0.834074
C143	C	0.706699	-0.158964	-0.810624
C144	C	0.706695	-0.158976	-0.763708
C145	C	0.591682	-0.273877	-0.763669
C146	C	0.591689	-0.273864	-0.810585
C147	C	0.620445	-0.245133	-0.834053
C148	C	0.649145	-0.216499	-0.099827
C149	C	0.649227	-0.216374	-0.049893
H150	H	0.177180	-0.297509	-0.297271
N151	N	0.708930	-0.156786	-0.479358
H152	H	0.690695	-0.135957	-0.498821
H153	H	0.727137	-0.138627	-0.457353
H154	H	-0.179407	-0.268759	-0.268628
N155	N	0.708821	-0.381309	-0.156879
H156	H	0.690575	-0.361869	-0.136035
H157	H	0.727036	-0.403310	-0.138733
H158	H	0.568248	-0.688511	-0.297342
H159	H	0.730110	-0.135588	-0.744622
N160	N	0.708855	-0.478819	-0.156880
H161	H	0.690618	-0.498310	-0.136042
H162	H	0.729667	-0.498233	-0.175186
H163	H	0.730115	-0.135573	-0.829740
H164	H	-0.179390	-0.164352	-0.164561
H165	H	0.597044	-0.268511	-0.960404
H166	H	0.568265	-0.297274	-0.744566
N167	N	0.560662	-0.737962	-0.304919
H168	H	0.578892	-0.718468	-0.325759
H169	H	0.542462	-0.759984	-0.323068
H170	H	-0.094285	-0.268759	-0.268619
H171	H	0.596925	-0.472692	-0.268615
H172	H	0.568248	-0.297285	-0.688916
H173	H	0.478110	-0.268721	-0.268545
H174	H	0.730047	-0.603324	-0.135785
N175	N	-0.088080	-0.156728	-0.156982
H176	H	-0.110064	-0.138504	-0.138819
H177	H	-0.068630	-0.174976	-0.136153
N178	N	0.737692	-0.737865	-0.128217
H179	H	0.755911	-0.759841	-0.110043
H180	H	0.758465	-0.718373	-0.146526
H181	H	0.393001	-0.268723	-0.268566
N182	N	0.737676	-0.694628	-0.128210
H183	H	0.755879	-0.672632	-0.110030
H184	H	0.719409	-0.714117	-0.107399
H185	H	0.568233	-0.297294	-0.603808
H186	H	0.177197	-0.135539	-0.135854
H187	H	0.568274	-0.297256	-0.829671
H188	H	0.701402	-0.959912	-0.164514
H189	H	0.730097	-0.135623	-0.603875
N190	N	0.268509	-0.127924	-0.128273
H191	H	0.246528	-0.109696	-0.110111
H192	H	0.287955	-0.146175	-0.107444
H193	H	0.701321	-0.164403	-0.388042
N194	N	0.737700	-0.128004	-0.695185
H195	H	0.755909	-0.109814	-0.673205
H196	H	0.758482	-0.146286	-0.714655
H197	H	0.701427	-1.045034	-0.164527
H198	H	0.596991	-0.268621	-0.473123
H199	H	0.597097	-1.045080	-0.268662
H200	H	0.596984	-0.268637	-0.388000
N201	N	0.589474	-0.953774	-0.276245
H202	H	0.571267	-0.975769	-0.294422
H203	H	0.568690	-0.934335	-0.257933
H204	H	0.392998	-0.164309	-0.164496
N205	N	0.268487	-0.305111	-0.304835
H206	H	0.246500	-0.323338	-0.323003
H207	H	0.287973	-0.286856	-0.325659
N208	N	0.737717	-0.835383	-0.128225
H209	H	0.733361	-0.868666	-0.132587
H210	H	0.769796	-0.827152	-0.135250
N211	N	0.708995	-0.156663	-1.051759
H212	H	0.704633	-0.161018	-1.085039
H213	H	0.702024	-0.124578	-1.043563
H214	H	0.478121	-0.164309	-0.164485
H215	H	0.568229	-0.603402	-0.297337
N216	N	0.127740	-0.305118	-0.304855
H217	H	0.105753	-0.323345	-0.323022
H218	H	0.147228	-0.286864	-0.325679
H219	H	0.036441	-0.135556	-0.135871
N220	N	0.030222	-0.305121	-0.304866
H221	H	-0.003059	-0.300753	-0.300516
H222	H	0.038441	-0.298177	-0.336964
H223	H	0.121547	-0.135551	-0.135861
H224	H	0.596895	-0.387570	-0.268600
H225	H	0.568292	-0.829266	-0.297349
N226	N	0.708990	-0.156686	-0.954237
H227	H	0.690751	-0.135865	-0.934767
H228	H	0.729784	-0.174987	-0.934801
N229	N	0.589463	-0.276088	-1.051712
H230	H	0.571246	-0.294288	-1.029721
H231	H	0.568689	-0.257795	-1.071175
