data_functionalizedCrystal
_audit_creation_method	'MofGen! by Chris Wilmer'
_symmetry_space_group_name_H-M	'P1'
_symmetry_Int_Tables_number	1
_symmetry_cell_setting	triclinic
loop_
_symmetry_equiv_pos_as_xyz
  x,y,z
_cell_length_a	12.759401
_cell_length_b	12.759400
_cell_length_c	12.759393
_cell_angle_alpha	89.968436
_cell_angle_beta	89.981433
_cell_angle_gamma	90.013728
loop_
_atom_site_label
_atom_site_type_symbol
_atom_site_fract_x
_atom_site_fract_y
_atom_site_fract_z
Zn1	Zn	1.606255	-0.418231	-0.593983
Zn2	Zn	1.606150	-0.593950	-0.418303
Zn3	Zn	1.430557	-0.418283	-0.418323
Zn4	Zn	1.430546	-0.593866	-0.593945
O5	O	1.518377	-0.506082	-0.506138
O6	O	1.753262	-0.441554	-0.570687
O7	O	1.582818	-0.570704	-0.271285
O8	O	1.453913	-0.271255	-0.441648
O9	O	1.753185	-0.570654	-0.441616
O10	O	1.582998	-0.271217	-0.570706
O11	O	1.453811	-0.441642	-0.271299
O12	O	1.283535	-0.441560	-0.441611
O13	O	1.453894	-0.570511	-0.740971
O14	O	1.283527	-0.570561	-0.570640
O15	O	1.582987	-0.441473	-0.740999
O16	O	1.582807	-0.740960	-0.441579
O17	O	1.453791	-0.740898	-0.570621
C18	C	1.245410	-0.506058	-0.506124
C19	C	1.128633	-0.506072	-0.506143
C20	C	1.073805	-0.438977	-0.573454
C21	C	0.964081	-0.438997	-0.573461
C22	C	0.964023	-0.573217	-0.438841
C23	C	1.073745	-0.573191	-0.438830
C24	C	1.128692	-0.371858	-0.640766
C25	C	1.073864	-0.304758	-0.708084
C26	C	0.964140	-0.304778	-0.708091
C27	C	0.909244	-0.371899	-0.640780
C28	C	1.518315	-0.779050	-0.506117
C29	C	1.518384	-0.895826	-0.506142
C30	C	1.585637	-0.950686	-0.439024
C31	C	1.585702	-1.060410	-0.439056
C32	C	1.451252	-1.060405	-0.573328
C33	C	1.451193	-0.950683	-0.573301
C34	C	1.652828	-0.895829	-0.371866
C35	C	1.720086	-0.950688	-0.304741
C36	C	1.720150	-1.060412	-0.304774
C37	C	1.652957	-1.115277	-0.371931
C38	C	1.792410	-0.506108	-0.506154
C39	C	1.909187	-0.506119	-0.506160
C40	C	1.518451	-0.505976	-0.780172
C41	C	1.518482	-0.505931	-0.896949
C42	C	1.518468	-0.232049	-0.506183
C43	C	1.518507	-0.115272	-0.506203
C44	C	1.585710	-0.438735	-0.951827
C45	C	1.585735	-0.438697	-1.061551
C46	C	1.451301	-0.573061	-1.061509
C47	C	1.451272	-0.573093	-0.951787
C48	C	1.652920	-0.371573	-0.896989
C49	C	1.720155	-0.304372	-0.951868
C50	C	1.720180	-0.304334	-1.061592
C51	C	1.652970	-0.371497	-1.116438
C52	C	1.518364	-0.506112	-0.233171
C53	C	1.518537	-0.505861	-0.116395
H54	H	0.919501	-0.250135	-0.762897
H55	H	0.819900	-0.371887	-0.640768
H56	H	1.396545	-1.105085	-0.628004
H57	H	1.652910	-0.371599	-0.807646
H58	H	1.774917	-0.249608	-1.106271
H59	H	1.118388	-0.627826	-0.384019
O60	O	1.386177	-0.638419	-1.114829
C61	C	1.445990	-0.706245	-1.178298
H62	H	1.528724	-0.712749	-1.145232
H63	H	1.407967	-0.787096	-1.179521
H64	H	1.449644	-0.673738	-1.261464
O65	O	1.652933	-0.789244	-0.371735
C66	C	1.726637	-0.752587	-0.298050
H67	H	1.788065	-0.815778	-0.283402
H68	H	1.766445	-0.679121	-0.329761
H69	H	1.685000	-0.733218	-0.221404
O70	O	1.785517	-1.113542	-0.239478
C71	C	1.844824	-1.041591	-0.180221
H72	H	1.801748	-0.963415	-0.176528
H73	H	1.856090	-1.073351	-0.097461
H74	H	1.924592	-1.029824	-0.218755
H75	H	0.919319	-0.627865	-0.384042
H76	H	1.774798	-0.906012	-0.250070
H77	H	1.653024	-1.204622	-0.371960
O78	O	1.385772	-0.897549	-0.638538
C79	C	1.326496	-0.969492	-0.697835
H80	H	1.322906	-1.047742	-0.654818
H81	H	1.243702	-0.937835	-0.708980
H82	H	1.364947	-0.981074	-0.777657
H83	H	1.218035	-0.371834	-0.640768
O84	O	1.127232	-0.239710	-0.773576
C85	C	1.190742	-0.299595	-0.841307
H86	H	1.157674	-0.382355	-0.847654
H87	H	1.192021	-0.261693	-0.922227
H88	H	1.273885	-0.303160	-0.808812
O89	O	1.785288	-0.239076	-0.898482
C90	C	1.725479	-0.171215	-0.835045
H91	H	1.645844	-0.208268	-0.818590
H92	H	1.768261	-0.157162	-0.757897
H93	H	1.713969	-0.093344	-0.877350
O94	O	1.653160	-0.371363	-1.223024
C95	C	1.726888	-0.297629	-1.259705
H96	H	1.788258	-0.282939	-1.196481
H97	H	1.766766	-0.329316	-1.333103
H98	H	1.685261	-0.221011	-1.279194
H99	H	1.396513	-0.627794	-0.907103
