data_functionalizedCrystal
_audit_creation_method	'MofGen! by Chris Wilmer'
_symmetry_space_group_name_H-M	'P1'
_symmetry_Int_Tables_number	1
_symmetry_cell_setting	triclinic
loop_
_symmetry_equiv_pos_as_xyz
  x,y,z
_cell_length_a	15.944551
_cell_length_b	10.723024
_cell_length_c	9.798715
_cell_angle_alpha	89.998022
_cell_angle_beta	90.000805
_cell_angle_gamma	83.983304
loop_
_atom_site_label
_atom_site_type_symbol
_atom_site_fract_x
_atom_site_fract_y
_atom_site_fract_z
O1	O	-1.115445	-0.160932	0.113345
O2	O	-0.615445	0.339068	0.613345
O3	O	-0.871009	-0.180773	0.113379
O4	O	-0.371009	0.319227	0.613379
O5	O	-0.998865	0.010795	0.113356
O6	O	-0.498865	0.510795	0.613356
O7	O	-0.987588	-0.352500	0.113368
O8	O	-0.487588	0.147500	0.613368
O9	O	-0.998855	0.010795	-0.113626
O10	O	-0.498855	0.510795	0.386374
O11	O	-0.870999	-0.180773	-0.113604
O12	O	-0.370999	0.319227	0.386396
O13	O	-1.115435	-0.160931	-0.113637
O14	O	-0.615435	0.339069	0.386363
Zn15	Zn	-0.993215	-0.170852	-0.149659
Zn16	Zn	-0.493215	0.329148	0.350341
Zn17	Zn	-0.993228	-0.170853	0.149400
Zn18	Zn	-0.493228	0.329147	0.649400
O19	O	-0.987579	-0.352500	-0.113615
O20	O	-0.487579	0.147500	0.386385
C21	C	-0.998039	0.057284	-0.000133
C22	C	-0.498039	0.557284	0.499867
C23	C	-0.995584	0.195808	-0.000128
C24	C	-0.495584	0.695808	0.499872
C25	C	-0.839705	-0.179949	-0.000108
C26	C	-0.339705	0.320051	0.499892
C27	C	-0.746445	-0.177480	-0.000095
C28	C	-0.246445	0.322520	0.499905
C29	C	-1.146738	-0.161755	-0.000147
C30	C	-0.646738	0.338245	0.499853
C31	C	-1.239999	-0.164225	-0.000151
C32	C	-0.739999	0.335775	0.499849
C33	C	-0.530875	-0.052834	-0.000126
C34	C	-0.030875	0.447166	0.499874
C35	C	-0.470191	-0.110716	0.111790
C36	C	0.029809	0.389284	0.611790
C37	C	-0.575693	-0.173012	-0.000112
C38	C	-0.075693	0.326988	0.499888
C39	C	-0.470204	-0.110744	-0.111996
C40	C	0.029796	0.389256	0.388004
C41	C	-0.410756	-0.168688	-0.000133
C42	C	0.089244	0.331312	0.499867
C43	C	-0.516238	-0.230927	0.111897
C44	C	-0.016238	0.269073	0.611897
C45	C	-0.516257	-0.230938	-0.111990
C46	C	-0.016257	0.269062	0.388010
C47	C	-0.455591	-0.288907	-0.000047
C48	C	0.044409	0.211093	0.499953
C49	C	-0.670710	-0.175500	-0.000098
C50	C	-0.170710	0.324500	0.499902
C51	C	-0.315741	-0.166210	-0.000137
C52	C	0.184259	0.333790	0.499863
C53	C	-0.988404	-0.398989	-0.000122
C54	C	-0.488404	0.101011	0.499878
C55	C	-0.990859	-0.537512	-0.000118
C56	C	-0.490859	-0.037512	0.499882
N57	N	-0.993213	-0.170851	-0.353758
N58	N	-0.493213	0.329149	0.146242
C59	C	-1.067126	0.271694	-0.000136
C60	C	-0.567126	0.771694	0.499864
C61	C	-1.064590	0.414865	-0.000131
C62	C	-0.564590	0.914865	0.499869
C63	C	-1.046896	-0.090065	-0.421545
C64	C	-0.546896	0.409935	0.078455
C65	C	-1.046910	-0.090061	-0.578707
C66	C	-0.546910	0.409939	-0.078707
N67	N	-0.993237	-0.170844	0.353500
N68	N	-0.493237	0.329156	0.853500
H69	H	-0.563637	0.046904	0.000009
H70	H	-0.063637	0.546904	0.500009
Cl71	Cl	-1.164594	0.208367	-0.000141
Cl72	Cl	-0.664594	0.708367	0.499859
Cl73	Cl	-1.117653	0.016998	-0.331519
Cl74	Cl	-0.617653	0.516998	0.168481
H75	H	-0.947259	-0.240007	-0.412075
H76	H	-0.447259	0.259993	0.087925
Cl77	Cl	-1.159153	0.515533	-0.000152
Cl78	Cl	-0.659153	1.015533	0.499848
Cl79	Cl	-0.896293	0.361828	-0.000119
Cl80	Cl	-0.396293	0.861828	0.499881
H81	H	-1.092874	-0.020901	-0.637001
H82	H	-0.592874	0.479099	-0.137001
Cl83	Cl	-0.898116	0.259135	-0.000101
Cl84	Cl	-0.398116	0.759135	0.499899
H85	H	-0.449793	-0.059886	0.206404
H86	H	0.050207	0.440114	0.706404
H87	H	-0.449822	-0.059891	-0.206609
H88	H	0.050178	0.440109	0.293391
H89	H	-0.423004	-0.388748	0.000019
H90	H	0.076996	0.111252	0.500019
Cl91	Cl	-0.547547	-0.309346	0.258139
Cl92	Cl	-0.047547	0.190654	0.758139
H93	H	-0.536675	-0.281726	-0.206609
H94	H	-0.036675	0.218274	0.293391
Cl95	Cl	-0.922276	-0.277643	-0.556514
Cl96	Cl	-0.422276	0.222357	-0.056514
