data_functionalizedCrystal
_audit_creation_method	'MofGen! by Chris Wilmer'
_symmetry_space_group_name_H-M	'P1'
_symmetry_Int_Tables_number	1
_symmetry_cell_setting	triclinic
loop_
_symmetry_equiv_pos_as_xyz
  x,y,z
_cell_length_a	15.537862
_cell_length_b	14.421503
_cell_length_c	15.625429
_cell_angle_alpha	108.072852
_cell_angle_beta	66.734075
_cell_angle_gamma	90.003437
loop_
_atom_site_label
_atom_site_type_symbol
_atom_site_fract_x
_atom_site_fract_y
_atom_site_fract_z
O1	O	1.249595	-0.021371	-0.292772
O2	O	1.749595	0.478629	0.207228
O3	O	0.975460	0.013630	-0.188706
O4	O	1.475460	0.513630	0.311294
O5	O	1.119848	-0.048802	-0.374365
O6	O	1.619848	0.451198	0.125635
O7	O	1.105207	0.041061	-0.107114
O8	O	1.605207	0.541061	0.392886
O9	O	1.119824	-0.203016	-0.374337
O10	O	1.619824	0.296984	0.125663
O11	O	0.975436	-0.140584	-0.188678
O12	O	1.475436	0.359416	0.311322
O13	O	1.249571	-0.175585	-0.292744
O14	O	1.749571	0.324415	0.207256
Cu15	Cu	1.112501	-0.172165	-0.240708
Cu16	Cu	1.612501	0.327835	0.259292
Cu17	Cu	1.112530	0.010210	-0.240742
Cu18	Cu	1.612530	0.510210	0.259258
O19	O	1.105183	-0.113153	-0.107085
O20	O	1.605183	0.386847	0.392915
C21	C	0.940365	-0.059815	-0.177804
C22	C	1.440365	0.440185	0.322196
C23	C	0.835829	-0.048906	-0.145370
C24	C	1.335829	0.451094	0.354630
N25	N	1.112488	-0.300440	-0.240687
N26	N	1.612488	0.199560	0.259313
C27	C	0.677374	-0.004696	-0.013904
C28	C	1.177374	0.495304	0.486096
C29	C	0.775603	-0.014950	-0.044390
C30	C	1.275603	0.485050	0.455610
C31	C	0.797842	-0.072626	-0.215905
C32	C	1.297842	0.427374	0.284095
C33	C	0.699613	-0.062382	-0.185433
C34	C	1.199613	0.437618	0.314567
C35	C	0.639386	-0.028415	-0.084431
C36	C	1.139386	0.471585	0.415569
C37	C	0.661625	-0.086101	-0.255960
C38	C	1.161625	0.413899	0.244040
C39	C	0.563404	-0.075852	-0.225490
C40	C	1.063404	0.424148	0.274510
C41	C	0.503172	-0.041885	-0.124493
C42	C	1.003172	0.458115	0.375507
C43	C	0.541166	-0.018167	-0.053961
C44	C	1.041166	0.481833	0.446039
C45	C	0.721853	-0.120061	-0.356961
C46	C	1.221853	0.379939	0.143039
C47	C	0.683865	-0.143780	-0.427489
C48	C	1.183865	0.356220	0.072511
C49	C	0.585643	-0.133538	-0.397020
C50	C	1.085643	0.366462	0.102980
C51	C	0.525410	-0.099570	-0.296022
C52	C	1.025410	0.400430	0.203978
C53	C	0.547649	-0.157256	-0.467552
C54	C	1.047649	0.342744	0.032448
C55	C	0.449429	-0.147007	-0.437082
C56	C	0.949429	0.352993	0.062918
C57	C	0.427190	-0.089322	-0.265553
C58	C	0.927190	0.410678	0.234447
C59	C	1.045711	-0.521233	-0.154864
C60	C	1.545711	-0.021233	0.345136
C61	C	1.130821	-0.586521	-0.165221
C62	C	1.630821	-0.086521	0.334779
C63	C	1.112511	-0.489611	-0.240716
C64	C	1.612511	0.010389	0.259284
C65	C	1.027423	-0.608412	-0.230345
C66	C	1.527423	-0.108412	0.269655
C67	C	1.112526	-0.672340	-0.240740
C68	C	1.612526	-0.172340	0.259260
C69	C	1.197664	-0.553529	-0.251047
C70	C	1.697664	-0.053529	0.248953
C71	C	1.094210	-0.575420	-0.316189
C72	C	1.594210	-0.075420	0.183811
C73	C	1.179381	-0.640699	-0.326601
C74	C	1.679381	-0.140699	0.173399
C75	C	1.112501	-0.384344	-0.240700
C76	C	1.612501	0.115656	0.259300
C77	C	1.112545	-0.777606	-0.240760
C78	C	1.612545	-0.277606	0.259240
C79	C	1.284666	-0.102138	-0.303647
C80	C	1.784666	0.397862	0.196353
C81	C	1.389202	-0.113041	-0.336080
C82	C	1.889202	0.386959	0.163920
C83	C	1.119172	-0.137127	-0.407719
C84	C	1.619172	0.362873	0.092281
C85	C	1.117182	-0.170552	-0.507143
C86	C	1.617182	0.329448	-0.007143
N87	N	1.112550	0.138481	-0.240772
N88	N	1.612550	0.638481	0.259228
C89	C	1.110675	0.139796	-0.834204
C90	C	1.610675	0.639796	-0.334204
C91	C	1.108801	0.108360	-0.927625
C92	C	1.608801	0.608360	-0.427625
C93	C	1.108775	-0.059753	-0.927581
C94	C	1.608775	0.440247	-0.427581
C95	C	1.110654	-0.028332	-0.834160
C96	C	1.610654	0.471668	-0.334160
C97	C	1.111603	0.071444	-0.787478
C98	C	1.611603	0.571444	-0.287478
C99	C	1.111582	-0.096684	-0.787433
C100	C	1.611582	0.403316	-0.287433
C101	C	1.113456	-0.065264	-0.694018
C102	C	1.613456	0.434736	-0.194018
C103	C	1.114402	0.034508	-0.647329
C104	C	1.614402	0.534508	-0.147329
C105	C	1.113477	0.102864	-0.694062
C106	C	1.613477	0.602864	-0.194062
C107	C	1.110626	-0.196458	-0.834114
C108	C	1.610626	0.303542	-0.334114
C109	C	1.111554	-0.264811	-0.787388
C110	C	1.611554	0.235189	-0.287388
C111	C	1.113434	-0.233392	-0.693974
C112	C	1.613434	0.266608	-0.193974
C113	C	1.114381	-0.133620	-0.647284
C114	C	1.614381	0.366380	-0.147284
C115	C	1.114359	-0.301748	-0.647240
C116	C	1.614359	0.198252	-0.147240
C117	C	1.116233	-0.270328	-0.553824
C118	C	1.616233	0.229672	-0.053824
C119	C	1.116254	-0.102200	-0.553869
C120	C	1.616254	0.397800	-0.053869
C121	C	1.105859	-0.024826	-0.073731
C122	C	1.605859	0.475174	0.426269
C123	C	1.107849	0.008605	0.025693
C124	C	1.607849	0.508605	0.525693
H125	H	0.378149	-0.061676	-0.183307
H126	H	0.878149	0.438324	0.316693
H127	H	0.801830	-0.128386	-0.381767
H128	H	1.301830	0.371614	0.118233
H129	H	1.111457	0.221042	-0.796197
H130	H	1.611457	0.721042	-0.296197
H131	H	0.423195	-0.033538	-0.099687
H132	H	0.923195	0.466462	0.400313
H133	H	1.113577	-0.382984	-0.685258
H134	H	1.613577	0.117016	-0.185258
H135	H	0.492125	0.009479	0.028284
H136	H	0.992125	0.509479	0.528284
H137	H	0.955459	-0.632628	-0.221566
H138	H	1.455459	-0.132628	0.278434
H139	H	0.989278	-0.469713	-0.082236
H140	H	1.489278	0.030287	0.417764
F141	F	1.151074	-0.593994	-0.081816
F142	F	1.651074	-0.093994	0.418184
F143	F	1.073925	-0.567905	-0.399556
F144	F	1.573925	-0.067905	0.100444
F145	F	1.291749	-0.522000	-0.262424
F146	F	1.791749	-0.022000	0.237576
F147	F	1.114499	0.209055	-0.644381
F148	F	1.614499	0.709055	-0.144381
F149	F	1.110537	-0.370995	-0.837076
F150	F	1.610537	0.129005	-0.337076
F151	F	0.816027	0.010299	0.030684
F152	F	1.316027	0.510299	0.530684
F153	F	0.613270	0.031438	0.093595
F154	F	1.113270	0.531438	0.593595
H155	H	1.116968	-0.325984	-0.515770
H156	H	1.616968	0.174016	-0.015770
F157	F	0.861948	-0.108774	-0.323395
F158	F	1.361948	0.391226	0.176605
H159	H	0.732915	-0.171432	-0.509725
H160	H	1.232915	0.328568	-0.009725
H161	H	0.596700	-0.184902	-0.549787
H162	H	1.096700	0.315098	-0.049787
H163	H	1.235940	-0.692052	-0.399237
H164	H	1.735940	-0.192052	0.100763
H165	H	0.418499	-0.166321	-0.494513
H166	H	0.918499	0.333679	0.005487
F167	F	1.117277	0.003992	-0.504187
F168	F	1.617277	0.503992	-0.004187
F169	F	1.108629	-0.229896	-0.933535
F170	F	1.608629	0.270104	-0.433535
H171	H	1.108037	0.164030	-0.965662
H172	H	1.608037	0.664030	-0.465662
F173	F	1.116398	0.067948	-0.547907
F174	F	1.616398	0.567948	-0.047907
F175	F	1.107758	-0.165938	-0.977269
F176	F	1.607758	0.334062	-0.477269
