data_functionalizedCrystal
_audit_creation_method	'MofGen! by Chris Wilmer'
_symmetry_space_group_name_H-M	'P1'
_symmetry_Int_Tables_number	1
_symmetry_cell_setting	triclinic
loop_
_symmetry_equiv_pos_as_xyz
  x,y,z
_cell_length_a	14.519731
_cell_length_b	19.188930
_cell_length_c	12.996460
_cell_angle_alpha	89.988736
_cell_angle_beta	89.994327
_cell_angle_gamma	83.416817
loop_
_atom_site_label
_atom_site_type_symbol
_atom_site_fract_x
_atom_site_fract_y
_atom_site_fract_z
O1	O	1.223288	0.091595	-0.085581
O2	O	1.556621	0.424929	0.247752
O3	O	1.889954	0.758262	0.581086
O4	O	0.954747	0.102358	-0.085584
O5	O	1.288080	0.435691	0.247749
O6	O	1.621413	0.769025	0.581083
O7	O	1.096767	-0.004651	-0.085562
O8	O	1.430100	0.328682	0.247771
O9	O	1.763433	0.662016	0.581104
O10	O	1.081268	0.198604	-0.085603
O11	O	1.414601	0.531938	0.247731
O12	O	1.747934	0.865271	0.581064
O13	O	1.096752	-0.004657	0.085571
O14	O	1.430085	0.328676	0.418905
O15	O	1.763419	0.662010	0.752238
O16	O	0.954732	0.102352	0.085550
O17	O	1.288065	0.435685	0.418883
O18	O	1.621399	0.769019	0.752216
O19	O	1.223273	0.091589	0.085553
O20	O	1.556606	0.424923	0.418886
O21	O	1.889940	0.758256	0.752219
Cu22	Cu	1.089001	0.096970	0.101177
Cu23	Cu	1.422334	0.430303	0.434510
Cu24	Cu	1.755668	0.763637	0.767844
Cu25	Cu	1.089018	0.096977	-0.101208
Cu26	Cu	1.422352	0.430310	0.232125
Cu27	Cu	1.755685	0.763644	0.565458
O28	O	1.081253	0.198598	0.085531
O29	O	1.414586	0.531932	0.418864
O30	O	1.747920	0.865265	0.752198
C31	C	0.920383	0.101851	-0.000017
C32	C	1.253716	0.435184	0.333316
C33	C	1.587050	0.768517	0.666649
C34	C	0.818012	0.100339	-0.000018
C35	C	1.151345	0.433673	0.333316
C36	C	1.484679	0.767006	0.666649
C37	C	1.096257	-0.030667	0.000007
C38	C	1.429591	0.302667	0.333341
C39	C	1.762924	0.636000	0.666674
C40	C	1.094751	-0.108177	0.000016
C41	C	1.428084	0.225157	0.333350
C42	C	1.761417	0.558490	0.666683
C43	C	0.734876	0.099112	-0.000021
C44	C	1.068209	0.432445	0.333312
C45	C	1.401542	0.765778	0.666645
C46	C	0.630576	0.097577	-0.000022
C47	C	0.963910	0.430911	0.333312
C48	C	1.297243	0.764244	0.666645
C49	C	0.547445	0.096360	-0.000021
C50	C	0.880778	0.429693	0.333312
C51	C	1.214112	0.763026	0.666645
C52	C	0.443139	0.094826	-0.000023
C53	C	0.776472	0.428159	0.333310
C54	C	1.109806	0.761492	0.666643
C55	C	1.178083	-0.152799	0.000022
C56	C	1.511417	0.180534	0.333355
C57	C	1.844750	0.513868	0.666689
C58	C	1.176668	-0.225628	0.000006
C59	C	1.510001	0.107705	0.333339
C60	C	1.843335	0.441039	0.666672
C61	C	1.091915	-0.253831	0.000004
C62	C	1.425248	0.079502	0.333337
C63	C	1.758582	0.412835	0.666671
C64	C	1.008571	-0.209199	-0.000008
C65	C	1.341905	0.124134	0.333326
C66	C	1.675238	0.457468	0.666659
C67	C	1.009989	-0.136372	-0.000002
C68	C	1.343322	0.196962	0.333332
C69	C	1.676656	0.530295	0.666665
N70	N	1.027126	-0.362073	0.058243
N71	N	1.360460	-0.028739	0.391577
N72	N	1.693793	0.304594	0.724910
N73	N	1.025785	-0.431256	0.058240
N74	N	1.359119	-0.097923	0.391573
N75	N	1.692452	0.235410	0.724906
C76	C	1.087638	-0.473255	-0.000017
C77	C	1.420971	-0.139922	0.333316
C78	C	1.754305	0.193411	0.666650
N79	N	1.150897	-0.443459	-0.058257
N80	N	1.484230	-0.110126	0.275077
N81	N	1.817563	0.223208	0.608410
N82	N	1.152241	-0.374269	-0.058248
N83	N	1.485574	-0.040936	0.275085
N84	N	1.818907	0.292397	0.608418
C85	C	1.090368	-0.332799	-0.000003
C86	C	1.423701	0.000534	0.333330
C87	C	1.757035	0.333867	0.666663
C88	C	1.169442	-0.596848	-0.000030
C89	C	1.502775	-0.263515	0.333303
C90	C	1.836108	0.069819	0.666636
C91	C	1.168023	-0.669678	-0.000053
C92	C	1.501356	-0.336344	0.333280
C93	C	1.834689	-0.003011	0.666613
C94	C	0.999924	-0.653247	-0.000056
C95	C	1.333257	-0.319914	0.333277
C96	C	1.666590	0.013419	0.666610
C97	C	1.001345	-0.580419	-0.000044
C98	C	1.334678	-0.247086	0.333290
C99	C	1.668012	0.086248	0.666623
C100	C	1.086106	-0.552224	-0.000026
C101	C	1.419440	-0.218890	0.333307
C102	C	1.752773	0.114443	0.666641
C103	C	1.257637	0.092097	-0.000016
C104	C	1.590970	0.425430	0.333317
C105	C	1.924303	0.758763	0.666650
C106	C	1.360007	0.093608	-0.000023
C107	C	1.693341	0.426941	0.333310
C108	C	2.026674	0.760274	0.666644
C109	C	1.081762	0.224614	-0.000041
C110	C	1.415095	0.557947	0.333292
C111	C	1.748429	0.891281	0.666626
C112	C	1.083269	0.302124	-0.000057
C113	C	1.416602	0.635457	0.333277
C114	C	1.749935	0.968791	0.666610
N115	N	1.088996	0.096965	0.243524
N116	N	1.422329	0.430298	0.576858
N117	N	1.755662	0.763631	0.910191
N118	N	1.089031	0.096977	-0.243556
N119	N	1.422365	0.430310	0.089778
N120	N	1.755698	0.763644	0.423111
C121	C	1.089017	0.096978	0.663338
C122	C	1.422350	0.430311	0.996672
C123	C	1.755684	0.763645	1.330005
C124	C	1.089008	0.096977	0.546533
C125	C	1.422342	0.430310	0.879867
C126	C	1.755675	0.763643	1.213200
C127	C	1.089007	0.096972	0.453435
C128	C	1.422340	0.430305	0.786768
C129	C	1.755673	0.763639	1.120102
C130	C	1.088997	0.096969	0.336622
C131	C	1.422330	0.430303	0.669956
C132	C	1.755664	0.763636	1.003289
H133	H	1.247103	-0.129848	0.000033
H134	H	1.580436	0.203485	0.333366
H135	H	1.913769	0.536819	0.666700
H136	H	0.942127	-0.100039	-0.000006
H137	H	1.275461	0.233294	0.333327
H138	H	1.608794	0.566627	0.666661
H139	H	1.238459	-0.573890	-0.000021
H140	H	1.571793	-0.240557	0.333313
H141	H	1.905126	0.092776	0.666646
H142	H	1.244530	-0.261967	0.000006
H143	H	1.577863	0.071367	0.333340
H144	H	1.911196	0.404700	0.666673
H145	H	0.933486	-0.544086	-0.000043
H146	H	1.266820	-0.210753	0.333291
H147	H	1.600153	0.122581	0.666624
H148	H	0.939565	-0.232167	-0.000011
H149	H	1.272898	0.101166	0.333322
H150	H	1.606231	0.434500	0.666655
H151	H	1.235885	-0.706009	-0.000054
H152	H	1.569218	-0.372676	0.333279
H153	H	1.902552	-0.039343	0.666612
H154	H	0.930916	-0.676209	-0.000063
H155	H	1.264249	-0.342876	0.333271
H156	H	1.597583	-0.009543	0.666604
