data_functionalizedCrystal
_audit_creation_method	'MofGen! by Chris Wilmer'
_symmetry_space_group_name_H-M	'P1'
_symmetry_Int_Tables_number	1
_symmetry_cell_setting	triclinic
loop_
_symmetry_equiv_pos_as_xyz
  x,y,z
_cell_length_a	16.625546
_cell_length_b	10.686154
_cell_length_c	10.686551
_cell_angle_alpha	89.693980
_cell_angle_beta	85.590142
_cell_angle_gamma	85.598321
loop_
_atom_site_label
_atom_site_type_symbol
_atom_site_fract_x
_atom_site_fract_y
_atom_site_fract_z
Zn1	Zn	-0.196636	-1.972250	-0.562428
Zn2	Zn	0.303364	-1.472250	-0.062428
Zn3	Zn	-0.342578	-1.955990	-0.352652
Zn4	Zn	0.157422	-1.455990	0.147348
Zn5	Zn	-0.217256	-1.746364	-0.368736
Zn6	Zn	0.282744	-1.246364	0.131264
Zn7	Zn	-0.340938	-1.762420	-0.578424
Zn8	Zn	0.159062	-1.262420	-0.078424
O9	O	-0.274352	-1.859256	-0.465560
O10	O	0.225648	-1.359256	0.034440
O11	O	-0.208053	-2.145637	-0.521175
O12	O	0.291947	-1.645637	-0.021175
O13	O	-0.335270	-1.914658	-0.179238
O14	O	0.164730	-1.414658	0.320762
O15	O	-0.101683	-1.776414	-0.394466
O16	O	0.398317	-1.276414	0.105534
O17	O	-0.315275	-2.133691	-0.367054
O18	O	0.184725	-1.633691	0.132946
O19	O	-0.086533	-1.942372	-0.536771
O20	O	0.413467	-1.442372	-0.036771
O21	O	-0.243196	-1.760647	-0.191055
O22	O	0.256804	-1.260647	0.308945
O23	O	-0.241606	-1.572950	-0.409976
O24	O	0.258394	-1.072950	0.090024
O25	O	-0.312481	-1.803779	-0.751849
O26	O	0.187519	-1.303779	-0.251849
O27	O	-0.332475	-1.584746	-0.564033
O28	O	0.167525	-1.084746	-0.064033
O29	O	-0.206463	-1.957941	-0.740097
O30	O	0.293537	-1.457941	-0.240097
O31	O	-0.455199	-1.930227	-0.382564
O32	O	0.044801	-1.430227	0.117436
O33	O	-0.453994	-1.788012	-0.548438
O34	O	0.046006	-1.288012	-0.048438
C35	C	-0.289101	-1.533331	-0.490487
C36	C	0.210899	-1.033331	0.009513
C37	C	-0.295428	-1.393902	-0.501180
C38	C	0.204572	-0.893902	-0.001180
C39	C	-0.483851	-1.859133	-0.465516
C40	C	0.016149	-1.359133	0.034484
C41	C	-0.573468	-1.859199	-0.465531
C42	C	-0.073468	-1.359199	0.034469
C43	C	-0.901627	-1.859428	-0.465645
C44	C	-0.401627	-1.359428	0.034355
C45	C	-0.810323	-1.859360	-0.465617
C46	C	-0.310323	-1.359360	0.034383
C47	C	-0.737551	-1.859312	-0.465587
C48	C	-0.237551	-1.359312	0.034413
C49	C	-0.646241	-1.859247	-0.465560
C50	C	-0.146241	-1.359247	0.034440
C51	C	-0.064032	-1.859416	-0.465628
C52	C	0.435968	-1.359416	0.034372
C53	C	0.025594	-1.859484	-0.465657
C54	C	0.525594	-1.359484	0.034343
C55	C	-0.256989	-1.884465	-0.792763
C56	C	0.243011	-1.384465	-0.292763
C57	C	-0.249589	-1.895207	-0.932197
C58	C	0.250411	-1.395207	-0.432197
C59	C	-0.259539	-1.186453	-0.440528
C60	C	0.240461	-0.686453	0.059472
C61	C	-0.253208	-1.325883	-0.429840
C62	C	0.246792	-0.825883	0.070160
C63	C	-0.291587	-1.834218	-0.139624
C64	C	0.208413	-1.334218	0.360376
C65	C	-0.298748	-1.823719	-0.000172
C66	C	0.201252	-1.323719	0.499828
H67	H	-0.212222	-1.374317	-0.360581
H68	H	0.287778	-0.874317	0.139419
F69	F	-0.187179	-1.985962	-0.995560
F70	F	0.312821	-1.485962	-0.495560
F71	F	-0.349012	-1.330592	-0.591702
F72	F	0.150988	-0.830592	-0.091702
F73	F	-0.361162	-1.732981	-0.936813
F74	F	0.138838	-1.232981	-0.436813
