data_functionalizedCrystal
_audit_creation_method	'MofGen! by Chris Wilmer'
_symmetry_space_group_name_H-M	'P1'
_symmetry_Int_Tables_number	1
_symmetry_cell_setting	triclinic
loop_
_symmetry_equiv_pos_as_xyz
  x,y,z
_cell_length_a	16.120531
_cell_length_b	18.215407
_cell_length_c	18.215399
_cell_angle_alpha	89.985401
_cell_angle_beta	87.133706
_cell_angle_gamma	87.061810
loop_
_atom_site_label
_atom_site_type_symbol
_atom_site_fract_x
_atom_site_fract_y
_atom_site_fract_z
Zn1	Zn	0.331782	1.110184	-0.430835
Zn2	Zn	0.665115	1.443517	-0.097502
Zn3	Zn	0.998448	1.776850	0.235832
Zn4	Zn	0.471204	1.103836	-0.313997
Zn5	Zn	0.804537	1.437169	0.019336
Zn6	Zn	1.137870	1.770502	0.352669
Zn7	Zn	0.331823	0.987114	-0.307795
Zn8	Zn	0.665156	1.320448	0.025538
Zn9	Zn	0.998489	1.653781	0.358871
Zn10	Zn	0.471171	0.980827	-0.437032
Zn11	Zn	0.804505	1.314160	-0.103699
Zn12	Zn	1.137838	1.647494	0.229635
O13	O	0.401495	1.045490	-0.372415
O14	O	0.734828	1.378823	-0.039082
O15	O	1.068161	1.712157	0.294252
O16	O	0.350273	1.212326	-0.415338
O17	O	0.683606	1.545659	-0.082005
O18	O	1.016939	1.878993	0.251328
O19	O	0.452745	1.088327	-0.210192
O20	O	0.786079	1.421660	0.123142
O21	O	1.119412	1.754993	0.456475
O22	O	0.215151	1.008728	-0.318928
O23	O	0.548484	1.342061	0.014405
O24	O	0.881817	1.675394	0.347739
O25	O	0.452706	1.207662	-0.329498
O26	O	0.786039	1.540995	0.003835
O27	O	1.119372	1.874329	0.337169
O28	O	0.215120	1.099146	-0.409325
O29	O	0.548454	1.432479	-0.075991
O30	O	0.881787	1.765813	0.257342
O31	O	0.350343	1.002572	-0.205635
O32	O	0.683676	1.335905	0.127698
O33	O	1.017009	1.669239	0.461031
O34	O	0.350311	0.883296	-0.324937
O35	O	0.683644	1.216629	0.008396
O36	O	1.016978	1.549963	0.341730
O37	O	0.452650	0.998012	-0.539193
O38	O	0.785983	1.331345	-0.205860
O39	O	1.119317	1.664679	0.127474
O40	O	0.452690	0.878677	-0.419886
O41	O	0.786023	1.212010	-0.086553
O42	O	1.119357	1.545343	0.246780
O43	O	0.350241	1.093050	-0.534640
O44	O	0.683574	1.426383	-0.201307
O45	O	1.016908	1.759716	0.132027
O46	O	0.587866	1.082230	-0.335507
O47	O	0.921199	1.415564	-0.002174
O48	O	1.254533	1.748897	0.331160
O49	O	0.587842	0.991856	-0.425900
O50	O	0.921175	1.325190	-0.092567
O51	O	1.254509	1.658523	0.240767
C52	C	0.618104	1.035692	-0.382065
C53	C	0.951438	1.369026	-0.048732
C54	C	1.284771	1.702359	0.284602
C55	C	0.710771	1.031568	-0.386218
C56	C	1.044104	1.364901	-0.052885
C57	C	1.377438	1.698235	0.280449
C58	C	0.401502	0.854283	-0.372412
C59	C	0.734835	1.187617	-0.039078
C60	C	1.068169	1.520950	0.294255
C61	C	0.401525	0.772484	-0.372429
C62	C	0.734859	1.105817	-0.039095
C63	C	1.068192	1.439150	0.294238
C64	C	0.401437	1.045538	-0.564365
C65	C	0.734771	1.378871	-0.231032
C66	C	1.068104	1.712204	0.102301
C67	C	0.401413	1.045558	-0.646163
C68	C	0.734746	1.378891	-0.312830
C69	C	1.068079	1.712224	0.020503
C70	C	0.880434	1.024042	-0.393815
C71	C	1.213767	1.357376	-0.060482
C72	C	1.547100	1.690709	0.272852
C73	C	0.921715	1.066965	-0.350973
C74	C	1.255049	1.400299	-0.017640
C75	C	1.588382	1.733632	0.315694
C76	C	1.016122	1.062778	-0.355200
C77	C	1.349455	1.396112	-0.021867
C78	C	1.682788	1.729445	0.311466
C79	C	0.786019	1.028229	-0.389589
C80	C	1.119352	1.361562	-0.056256
C81	C	1.452686	1.694895	0.277078
C82	C	1.184039	1.055320	-0.362730
C83	C	1.517373	1.388653	-0.029396
C84	C	1.850706	1.721987	0.303937
C85	C	1.091373	1.059442	-0.358568
C86	C	1.424706	1.392775	-0.025235
C87	C	1.758040	1.726109	0.308099
C88	C	0.401488	1.237443	-0.372419
C89	C	0.734821	1.570777	-0.039085
C90	C	1.068155	1.904110	0.294248
C91	C	0.401485	1.319242	-0.372420
C92	C	0.734819	1.652576	-0.039087
C93	C	1.068152	1.985909	0.294246
C94	C	0.348173	1.509865	-0.417117
C95	C	0.681506	1.843198	-0.083784
C96	C	1.014839	2.176531	0.249550
C97	C	0.348181	1.586723	-0.417120
C98	C	0.681514	1.920057	-0.083787
C99	C	1.014847	2.253390	0.249546
C100	C	0.454844	1.581855	-0.327730
C101	C	0.788177	1.915189	0.005603
C102	C	1.121510	2.248522	0.338937
C103	C	0.454839	1.504998	-0.327731
C104	C	0.788173	1.838332	0.005602
C105	C	1.121506	2.171665	0.338935
C106	C	0.401499	1.469005	-0.372423
C107	C	0.734833	1.802338	-0.039090
C108	C	1.068166	2.135672	0.294243
C109	C	0.401511	1.622721	-0.372425
C110	C	0.734845	1.956054	-0.039092
C111	C	1.068178	2.289387	0.294241
C112	C	0.401520	1.706054	-0.372429
C113	C	0.734853	2.039387	-0.039095
C114	C	1.068187	2.372721	0.294238
C115	C	0.401491	1.385667	-0.372421
C116	C	0.734825	1.719000	-0.039088
C117	C	1.068158	2.052333	0.294245
C118	C	0.348039	1.095063	-0.831986
C119	C	0.681372	1.428396	-0.498652
C120	C	1.014705	1.761730	-0.165319
C121	C	0.348014	1.095073	-0.908843
C122	C	0.681348	1.428406	-0.575510
C123	C	1.014681	1.761740	-0.242177
C124	C	0.454658	0.996110	-0.913573
C125	C	0.787991	1.329444	-0.580240
C126	C	1.121325	1.662777	-0.246906
C127	C	0.454678	0.996097	-0.836717
C128	C	0.788011	1.329431	-0.503383
C129	C	1.121344	1.662764	-0.170050
C130	C	0.401369	1.045578	-0.795925
C131	C	0.734702	1.378911	-0.462591
C132	C	1.068036	1.712245	-0.129258
C133	C	0.401325	1.045601	-0.949639
C134	C	0.734659	1.378934	-0.616306
C135	C	1.067992	1.712267	-0.282972
C136	C	0.401299	1.045611	-1.032972
C137	C	0.734633	1.378944	-0.699638
C138	C	1.067966	1.712278	-0.366305
C139	C	0.401394	1.045567	-0.712587
C140	C	0.734727	1.378900	-0.379254
C141	C	1.068060	1.712234	-0.045920
C142	C	0.401492	1.045488	-0.181209
C143	C	0.734825	1.378821	0.152125
C144	C	1.068159	1.712155	0.485458
C145	C	0.401281	1.045621	-0.099401
C146	C	0.734615	1.378954	0.233933
C147	C	1.067948	1.712288	0.567266
H148	H	0.886156	1.106857	-0.311120
H149	H	1.219490	1.440191	0.022214
H150	H	1.552823	1.773524	0.355547
H151	H	0.498062	0.955827	-0.946795
H152	H	0.831395	1.289160	-0.613462
H153	H	1.164728	1.622493	-0.280128
N154	N	0.927526	0.971200	-0.446601
N155	N	1.260859	1.304533	-0.113267
N156	N	1.594193	1.637867	0.220066
H157	H	0.989268	0.975663	-0.442171
H158	H	1.322601	1.308996	-0.108837
H159	H	1.655934	1.642329	0.224496
H160	H	0.912428	0.919305	-0.434433
H161	H	1.245762	1.252638	-0.101100
H162	H	1.579095	1.585971	0.232233
H163	H	0.304740	1.480562	-0.453508
H164	H	0.638073	1.813895	-0.120175
H165	H	0.971406	2.147228	0.213159
H166	H	0.304758	1.619988	-0.453515
H167	H	0.638091	1.953321	-0.120182
H168	H	0.971424	2.286655	0.213152
H169	H	0.498105	0.955796	-0.807355
H170	H	0.831438	1.289129	-0.474022
H171	H	1.164772	1.622462	-0.140689
N172	N	0.512366	1.620674	-0.279520
N173	N	0.845699	1.954008	0.053813
N174	N	1.179032	2.287341	0.387147
H175	H	0.550995	1.650821	-0.311140
H176	H	0.884328	1.984154	0.022193
H177	H	1.217662	2.317487	0.355526
H178	H	0.478432	1.654048	-0.243917
H179	H	0.811766	1.987381	0.089417
H180	H	1.145099	2.320715	0.422750
N181	N	0.512361	1.460921	-0.279526
N182	N	0.845694	1.794255	0.053807
N183	N	1.179028	2.127588	0.387140
H184	H	0.546148	1.495384	-0.251210
H185	H	0.879481	1.828717	0.082124
H186	H	1.212815	2.162051	0.415457
H187	H	0.478431	1.430562	-0.243963
H188	H	0.811764	1.763896	0.089370
H189	H	1.145097	2.097229	0.422703
H190	H	0.304629	1.135351	-0.798775
H191	H	0.637962	1.468685	-0.465442
H192	H	0.971296	1.802018	-0.132108
H193	H	0.304586	1.135367	-0.938200
H194	H	0.637919	1.468701	-0.604867
H195	H	0.971253	1.802034	-0.271533
