data_functionalizedCrystal
_audit_creation_method	'MofGen! by Chris Wilmer'
_symmetry_space_group_name_H-M	'P1'
_symmetry_Int_Tables_number	1
_symmetry_cell_setting	triclinic
loop_
_symmetry_equiv_pos_as_xyz
  x,y,z
_cell_length_a	23.196402
_cell_length_b	17.917603
_cell_length_c	23.196401
_cell_angle_alpha	90.013379
_cell_angle_beta	60.008822
_cell_angle_gamma	57.012000
loop_
_atom_site_label
_atom_site_type_symbol
_atom_site_fract_x
_atom_site_fract_y
_atom_site_fract_z
Zr1	Zr	0.577925	0.754912	-0.049090
O2	O	0.706991	0.629761	-0.145536
O3	O	0.454963	0.793274	-0.019528
O4	O	0.575232	0.793240	-0.139794
O5	O	0.586717	0.629826	0.069603
O6	O	0.566166	0.922198	-0.135261
O7	O	0.586721	0.629796	-0.025269
O8	O	0.351026	0.922260	0.079874
O9	O	0.801858	0.629765	-0.145532
O10	O	0.496513	0.905879	-0.003532
O11	O	0.503276	0.809662	0.063887
O12	O	0.644878	0.809621	-0.077711
O13	O	0.651641	0.713404	-0.010292
Zr14	Zr	0.563460	0.960635	0.109451
Zr15	Zr	0.563466	0.960586	-0.041860
Zr16	Zr	0.577919	0.754961	0.102221
Zr17	Zr	0.729227	0.754918	-0.049083
Zr18	Zr	0.412158	0.960629	0.109444
O19	O	0.686422	0.922272	0.079889
O20	O	0.686431	0.922202	-0.135256
O21	O	0.706982	0.629831	0.069608
O22	O	0.434394	1.085786	0.205897
O23	O	0.434403	1.085716	-0.009248
O24	O	0.454954	0.793344	0.195616
O25	O	0.554668	1.085720	-0.009242
O26	O	0.566153	0.922307	0.200155
O27	O	0.575219	0.793349	0.195622
O28	O	0.554664	1.085751	0.085630
O29	O	0.790364	0.793248	-0.139785
O30	O	0.351021	0.922299	0.200145
O31	O	0.339527	1.085782	0.205892
O32	O	0.339532	1.085743	0.085621
O33	O	0.801853	0.629804	-0.025260
O34	O	0.790359	0.793287	-0.019513
O35	O	0.496507	0.905925	0.138072
O36	O	0.489744	1.002142	0.070653
O37	O	0.638109	0.905885	-0.003526
O38	O	0.644872	0.809667	0.063893
C39	C	0.381437	0.857766	0.030172
C40	C	0.317205	0.857764	0.030169
C41	C	0.588779	0.600507	0.021137
C42	C	0.594918	0.513193	0.018067
C43	C	0.283505	0.907982	-0.005026
C44	C	0.223143	0.907991	-0.005020
C45	C	0.196497	0.857764	0.030171
C46	C	0.230201	0.807544	0.065374
C47	C	0.290555	0.807544	0.065373
C48	C	0.140384	0.773615	0.021938
C49	C	0.080034	0.773612	0.021934
C50	C	0.010342	0.857765	0.030178
C51	C	0.001014	0.941920	0.038412
C52	C	0.061368	0.941920	0.038411
C53	C	0.131053	0.857758	0.030176
C54	C	-0.088811	0.907997	-0.005012
C55	C	-0.149177	0.908009	-0.005001
C56	C	-0.142111	0.807553	0.065388
C57	C	-0.081752	0.807550	0.065382
C58	C	-0.055103	0.857770	0.030178
C59	C	0.606131	0.353347	0.012462
C60	C	0.535258	0.362192	0.047897
C61	C	0.541497	0.273249	0.044778
C62	C	0.599894	0.442297	0.015580
C63	C	0.759948	0.857780	0.030189
C64	C	0.824180	0.857783	0.030192
C65	C	0.570700	0.857712	-0.159086
C66	C	0.570702	0.857691	-0.223322
C67	C	0.552606	1.115040	0.039224
C68	C	0.546467	1.202354	0.042293
C69	C	0.648145	0.807450	-0.292215
C70	C	0.648144	0.807474	-0.352570
C71	C	0.570698	0.857727	-0.344027
C72	C	0.493245	0.907979	-0.275120
C73	C	0.493247	0.907961	-0.214768
C74	C	0.514572	0.850588	-0.411597
C75	C	0.514573	0.850599	-0.471950
C76	C	0.570687	0.857787	-0.530172
C77	C	0.626815	0.864945	-0.528041
C78	C	0.626818	0.864927	-0.467688
C79	C	0.570687	0.857752	-0.409464
C80	C	0.648134	0.807570	-0.664512
C81	C	0.648130	0.807602	-0.724865
C82	C	0.493229	0.908099	-0.647414
C83	C	0.493235	0.908075	-0.587062
C84	C	0.570690	0.857805	-0.595616
C85	C	0.570685	0.857835	0.219447
C86	C	0.570683	0.857856	0.283682
C87	C	0.363350	1.115033	0.039216
C88	C	0.292980	1.202344	0.042282
C89	C	0.381429	0.857828	0.219439
C90	C	0.317195	0.857846	0.283671
C91	C	0.363343	1.115094	0.228482
C92	C	0.292970	1.202426	0.295784
C93	C	0.778042	0.600452	-0.168122
C94	C	0.848415	0.513120	-0.235423
C95	C	0.778035	0.600514	0.021145
C96	C	0.848405	0.513203	0.018079
C97	C	0.759956	0.857719	-0.159078
C98	C	0.824190	0.857700	-0.223310
C99	C	0.263466	1.193098	0.004992
C100	C	0.197355	1.275129	0.007859
C101	C	0.160754	1.366404	0.048020
C102	C	0.190273	1.375648	0.085312
C103	C	0.256388	1.293619	0.082440
C104	C	0.283497	0.908103	0.352566
C105	C	0.223151	0.908117	0.412925
C106	C	0.196500	0.857879	0.404387
C107	C	0.230204	0.807616	0.335486
C108	C	0.290554	0.807597	0.275128
C109	C	0.256391	1.293672	0.292198
C110	C	0.190276	1.375738	0.355430
C111	C	0.160737	1.366556	0.422247
C112	C	0.197323	1.275301	0.425831
C113	C	0.263440	1.193238	0.362600
C114	C	0.885001	0.421875	-0.231837
C115	C	0.951135	0.339809	-0.295069
C116	C	0.980677	0.348990	-0.361886
C117	C	0.944088	0.440245	-0.365470
C118	C	0.877959	0.522309	-0.302239
C119	C	0.877925	0.522449	0.055363
C120	C	0.944053	0.440418	0.052479
C121	C	0.980656	0.349142	0.012315
C122	C	0.951134	0.339898	-0.024973
C123	C	0.885011	0.421928	-0.022094
C124	C	0.850821	0.907948	-0.214750
C125	C	0.911166	0.907950	-0.275097
C126	C	0.944884	0.857697	-0.344003
C127	C	0.918247	0.807447	-0.352562
C128	C	0.857898	0.807452	-0.292216
H129	H	0.305199	0.948876	-0.033689
N130	N	-0.170849	0.753386	0.103352
H131	H	-0.214199	0.761008	0.098015
H132	H	-0.119819	0.683126	0.081479
N133	N	0.201461	0.753376	0.103335
H134	H	0.158114	0.760994	0.097994
H135	H	0.252492	0.683116	0.081464
N136	N	0.089438	1.454877	0.051123
H137	H	0.107661	1.494362	0.031477
H138	H	0.076326	1.435086	0.021414
N139	N	0.302880	1.094822	0.366469
H140	H	0.366015	1.058520	0.341806
H141	H	0.274065	1.101544	0.418408
N142	N	1.051990	0.260472	-0.430081
H143	H	1.065156	0.280127	-0.472957
H144	H	1.104795	0.221026	-0.431422
H145	H	0.430182	0.948874	-0.158670
H146	H	0.860953	0.414381	-0.177437
H147	H	0.932848	0.948867	-0.268115
N148	N	0.692709	0.254848	-0.030834
H149	H	0.725598	0.247097	-0.011736
H150	H	0.684877	0.204419	-0.026941
H151	H	0.672512	0.870793	-0.575448
N152	N	0.150823	1.474154	0.351554
H153	H	0.179566	1.467510	0.299630
H154	H	0.087690	1.510392	0.376259
N155	N	0.448672	0.460694	0.091183
H156	H	0.442873	0.496961	0.129623
H157	H	0.442942	0.496844	0.058478
H158	H	0.106900	1.433386	0.473728
H159	H	0.195699	0.948886	-0.033681
N160	N	0.051312	1.032678	0.047292
H161	H	-0.001993	1.085992	0.052514
H162	H	0.046347	1.051406	0.091564
N163	N	0.975895	0.450405	0.092690
H164	H	1.023347	0.384594	0.084766
H165	H	0.998323	0.486690	0.074550
H166	H	0.711215	0.766521	-0.299186
N167	N	-0.074147	1.032693	0.047302
H168	H	-0.110970	1.019929	0.046058
H169	H	-0.109134	1.084507	0.094813
N170	N	0.731671	0.753433	-0.799169
H171	H	0.768936	0.683145	-0.807317
H172	H	0.719862	0.761147	-0.836069
N173	N	0.409696	0.962310	-0.638193
H174	H	0.372450	1.032588	-0.609049
H175	H	0.421523	0.954626	-0.686908
H176	H	0.173262	1.267840	0.480242
H177	H	0.195715	0.949051	0.469022
N178	N	0.090094	0.682851	0.013060
H179	H	0.041289	0.695617	0.014307
H180	H	0.146186	0.631030	-0.034449
H181	H	-0.067114	0.948893	-0.033674
N182	N	1.051974	0.260672	0.009212
H183	H	1.065114	0.280388	0.038930
H184	H	1.033699	0.221226	0.028845
N185	N	0.829193	0.753234	-0.301457
H186	H	0.785848	0.760853	-0.252777
H187	H	0.802349	0.779599	-0.327224
H188	H	0.208496	0.766713	0.328545
N189	N	0.853165	0.411944	-0.062297
H190	H	0.805720	0.477754	-0.054382
H191	H	0.901810	0.375647	-0.115256
H192	H	-0.176621	0.948908	-0.033657
N193	N	0.131407	0.857905	0.469491
H194	H	0.114105	0.897372	0.514429
H195	H	0.079358	0.886475	0.470463
N196	N	0.954617	0.753248	-0.426884
H197	H	0.996891	0.760872	-0.463809
H198	H	0.984561	0.682990	-0.434949
H199	H	0.317995	0.766648	0.094033
H200	H	0.305189	0.949014	0.359530
H201	H	0.980946	0.265571	-0.057674
N202	N	-0.045399	0.753386	0.103342
H203	H	-0.071438	0.721569	0.125638
H204	H	0.018737	0.702871	0.067635
N205	N	0.302934	1.094659	-0.038329
H206	H	0.294972	1.058394	-0.005707
H207	H	0.274176	1.101348	-0.061508
N208	N	0.814454	0.962156	-0.140432
H209	H	0.862348	0.935819	-0.135698
H210	H	0.784458	1.032423	-0.132356
N211	N	0.215550	0.682845	0.013049
H212	H	0.212306	0.629534	0.007827
H213	H	0.270598	0.664117	-0.031224
N214	N	0.326943	0.753331	0.200819
H215	H	0.300913	0.721493	0.204576
H216	H	0.313227	0.799399	0.175748
N217	N	0.990589	0.241393	-0.291194
H218	H	0.961829	0.248037	-0.239269
H219	H	0.982641	0.205151	-0.315902
N220	N	0.731674	0.753284	-0.426888
H221	H	0.780741	0.721437	-0.423147
H222	H	0.738434	0.702790	-0.455323
N223	N	0.288235	1.303588	0.220136
H224	H	0.255024	1.373850	0.227470
H225	H	0.351061	1.271728	0.192363
H226	H	0.968149	0.447710	-0.419880
N227	N	0.687346	0.872652	-0.465384
H228	H	0.722897	0.877208	-0.511422
H229	H	0.653330	0.931935	-0.423323
N230	N	0.731665	0.753365	-0.673722
H231	H	0.768923	0.683087	-0.702872
H232	H	0.762056	0.779795	-0.699414
N233	N	0.409707	0.962261	-0.512751
H234	H	0.360643	0.994100	-0.516494
H235	H	0.409730	0.916127	-0.487737
N236	N	0.454025	0.842898	-0.474238
H237	H	0.465926	0.780794	-0.469704
H238	H	0.393069	0.898794	-0.433232
N239	N	1.009966	0.857706	-0.409088
H240	H	1.021715	0.897168	-0.393203
H241	H	1.064796	0.789639	-0.440508
N242	N	0.838498	0.620722	-0.306113
H243	H	0.867251	0.614077	-0.358037
H244	H	0.775369	0.656950	-0.281419
N245	N	0.150786	1.474095	0.128638
H246	H	0.196280	1.481796	0.109534
H247	H	0.104414	1.524593	0.124786
N248	N	0.454041	0.842841	-0.348800
H249	H	0.418491	0.838301	-0.359309
H250	H	0.488055	0.783543	-0.340778
H251	H	0.848128	0.596762	0.088073
H252	H	0.430187	0.948895	-0.268168
H253	H	0.280409	1.301160	0.112811
N254	N	0.165525	1.265146	-0.032365
H255	H	0.198742	1.194875	-0.058235
H256	H	0.102700	1.297007	0.002682
