data_functionalizedCrystal
_audit_creation_method	'MofGen! by Chris Wilmer'
_symmetry_space_group_name_H-M	'P1'
_symmetry_Int_Tables_number	1
_symmetry_cell_setting	triclinic
loop_
_symmetry_equiv_pos_as_xyz
  x,y,z
_cell_length_a	10.654550
_cell_length_b	14.044220
_cell_length_c	9.130313
_cell_angle_alpha	89.994483
_cell_angle_beta	89.999724
_cell_angle_gamma	88.836904
loop_
_atom_site_label
_atom_site_type_symbol
_atom_site_fract_x
_atom_site_fract_y
_atom_site_fract_z
O1	O	1.681228	0.133232	-0.121694
O2	O	1.317025	0.145925	-0.121721
O3	O	1.493660	0.001558	-0.121693
O4	O	1.504593	0.277599	-0.121721
O5	O	1.493646	0.001554	0.121906
O6	O	1.317011	0.145921	0.121878
O7	O	1.681214	0.133227	0.121905
Cu8	Cu	1.499112	0.139574	0.144134
Cu9	Cu	1.499128	0.139579	-0.143950
O10	O	1.504580	0.277595	0.121877
C11	C	1.270127	0.144991	0.000075
C12	C	1.130403	0.142202	0.000065
C13	C	1.059459	0.227204	0.000061
C14	C	0.928175	0.224578	0.000086
C15	C	0.938790	0.051942	0.000115
C16	C	1.070072	0.054569	0.000100
C17	C	1.488867	-0.033790	0.000106
C18	C	1.474592	-0.139110	0.000107
C19	C	1.448493	-0.331943	0.000084
C20	C	1.549741	-0.388910	0.000087
C21	C	1.535219	-0.496209	0.000074
C22	C	1.463013	-0.224634	0.000097
C23	C	1.728113	0.134162	0.000106
C24	C	1.867836	0.136950	0.000106
C25	C	1.509372	0.312943	0.000075
C26	C	1.523648	0.418262	0.000064
N27	N	1.499109	0.139570	0.346757
N28	N	1.499139	0.139575	-0.346572
C29	C	1.577355	0.075671	0.423421
C30	C	1.577367	0.075671	0.576758
C31	C	1.420885	0.203477	0.576753
C32	C	1.420867	0.203472	0.423419
H33	H	1.127837	-0.014653	0.000108
C34	C	1.681579	-0.345942	0.000121
C35	C	1.696114	-0.237073	0.000147
C36	C	1.827947	-0.194100	0.000189
C37	C	1.945244	-0.259996	0.000205
C38	C	1.930712	-0.368871	0.000179
C39	C	1.798880	-0.411845	0.000137
H40	H	1.609281	-0.188287	0.000135
H41	H	1.838703	-0.113502	0.000208
H42	H	2.042834	-0.228184	0.000236
H43	H	2.017546	-0.417658	0.000192
H44	H	1.788123	-0.492442	0.000118
C45	C	1.334831	0.273775	0.661082
C46	C	1.334923	0.273844	0.829743
C47	C	1.248870	0.344146	0.914067
C48	C	1.162725	0.414379	0.829729
C49	C	1.162630	0.414312	0.661058
C50	C	1.248683	0.344010	0.576734
H51	H	1.398695	0.221851	0.892183
H52	H	1.248940	0.344195	1.038928
H53	H	1.099023	0.466421	0.892150
H54	H	1.098858	0.466305	0.598618
H55	H	1.248612	0.343961	0.451873
C56	C	1.663409	0.005374	0.339092
C57	C	1.749471	-0.064918	0.423430
C58	C	1.835524	-0.135220	0.339106
C59	C	1.835515	-0.135231	0.170445
C60	C	1.749449	-0.064937	0.086097
C61	C	1.663396	0.005365	0.170421
H62	H	1.749480	-0.064912	0.548291
H63	H	1.899235	-0.187256	0.401546
H64	H	1.899216	-0.187273	0.108023
H65	H	1.749440	-0.064943	-0.038764
H66	H	1.599685	0.057401	0.107981
H67	H	1.108577	0.298560	0.000044
H68	H	1.350913	-0.363754	0.000073
H69	H	0.870417	0.293795	0.000086
H70	H	1.641080	0.023638	0.639173
H71	H	0.889652	-0.019406	0.000152
H72	H	1.357144	0.255506	0.360995
