data_functionalizedCrystal
_audit_creation_method	'MofGen! by Chris Wilmer'
_symmetry_space_group_name_H-M	'P1'
_symmetry_Int_Tables_number	1
_symmetry_cell_setting	triclinic
loop_
_symmetry_equiv_pos_as_xyz
  x,y,z
_cell_length_a	16.109304
_cell_length_b	14.519731
_cell_length_c	15.186229
_cell_angle_alpha	89.996550
_cell_angle_beta	89.999066
_cell_angle_gamma	83.575745
loop_
_atom_site_label
_atom_site_type_symbol
_atom_site_fract_x
_atom_site_fract_y
_atom_site_fract_z
O1	O	0.109069	1.223623	-0.073225
O2	O	0.442402	1.556956	0.260109
O3	O	0.775735	1.890290	0.593442
O4	O	0.121885	0.955122	-0.073225
O5	O	0.455218	1.288455	0.260108
O6	O	0.788551	1.621788	0.593441
O7	O	-0.005541	1.096747	-0.073226
O8	O	0.327792	1.430080	0.260108
O9	O	0.661126	1.763413	0.593441
O10	O	0.236494	1.081998	-0.073225
O11	O	0.569827	1.415331	0.260109
O12	O	0.903161	1.748664	0.593442
O13	O	-0.005543	1.096737	0.073232
O14	O	0.327791	1.430071	0.406565
O15	O	0.661124	1.763404	0.739898
O16	O	0.121883	0.955112	0.073232
O17	O	0.455216	1.288445	0.406565
O18	O	0.788549	1.621779	0.739898
O19	O	0.109067	1.223613	0.073232
O20	O	0.442400	1.556947	0.406566
O21	O	0.775733	1.890280	0.739899
Zn22	Zn	0.115474	1.089361	0.096485
Zn23	Zn	0.448808	1.422695	0.429819
Zn24	Zn	0.782141	1.756028	0.763152
Zn25	Zn	0.115477	1.089374	-0.096478
Zn26	Zn	0.448810	1.422707	0.236855
Zn27	Zn	0.782144	1.756040	0.570188
O28	O	0.236492	1.081988	0.073233
O29	O	0.569826	1.415321	0.406566
O30	O	0.903159	1.748655	0.739899
C31	C	0.121283	0.920759	0.000003
C32	C	0.454616	1.254092	0.333336
C33	C	0.787950	1.587425	0.666670
C34	C	0.119484	0.818382	0.000002
C35	C	0.452817	1.151716	0.333336
C36	C	0.786150	1.485049	0.666669
C37	C	-0.036518	1.096144	0.000001
C38	C	0.296816	1.429478	0.333334
C39	C	0.630149	1.762811	0.666668
C40	C	-0.128816	1.094352	-0.000005
C41	C	0.204517	1.427685	0.333328
C42	C	0.537850	1.761018	0.666662
C43	C	0.118022	0.735241	-0.000001
C44	C	0.451355	1.068574	0.333332
C45	C	0.784688	1.401908	0.666666
C46	C	0.116194	0.630936	-0.000001
C47	C	0.449528	0.964270	0.333332
C48	C	0.782861	1.297603	0.666665
C49	C	0.114744	0.547800	-0.000001
C50	C	0.448078	0.881134	0.333332
C51	C	0.781411	1.214467	0.666665
C52	C	0.112918	0.443489	-0.000003
C53	C	0.446251	0.776822	0.333330
C54	C	0.779584	1.110155	0.666663
C55	C	-0.341160	1.090215	-0.079836
C56	C	-0.007827	1.423549	0.253498
C57	C	0.325507	1.756882	0.586831
C58	C	-0.427883	1.088523	-0.079835
C59	C	-0.094550	1.421856	0.253499
C60	C	0.238783	1.755189	0.586832
C61	C	-0.427882	1.088517	0.079841
C62	C	-0.094549	1.421850	0.413174
C63	C	0.238784	1.755184	0.746508
C64	C	-0.341160	1.090203	0.079839
C65	C	-0.007827	1.423536	0.413173
C66	C	0.325507	1.756870	0.746506
C67	C	-0.297802	1.091057	-0.000002
C68	C	0.035532	1.424390	0.333332
C69	C	0.368865	1.757724	0.666665
C70	C	-0.471247	1.087678	0.000001
C71	C	-0.137914	1.421011	0.333334
C72	C	0.195420	1.754345	0.666668
C73	C	-0.565276	1.085843	0.000002
C74	C	-0.231943	1.419176	0.333336
C75	C	0.101390	1.752509	0.666669
C76	C	-0.203766	1.092891	-0.000003
C77	C	0.129567	1.426224	0.333330
C78	C	0.462900	1.759557	0.666663
C79	C	0.267469	1.082591	0.000004
C80	C	0.600802	1.415924	0.333337
C81	C	0.934136	1.749257	0.666671
C82	C	0.359768	1.084383	0.000004
C83	C	0.693101	1.417717	0.333338
C84	C	1.026434	1.751050	0.666671
C85	C	0.109668	1.257976	0.000002
C86	C	0.443002	1.591310	0.333335
C87	C	0.776335	1.924643	0.666669
C88	C	0.111468	1.360353	-0.000003
C89	C	0.444801	1.693686	0.333330
C90	C	0.778134	2.027019	0.666663
N91	N	0.115472	1.089360	0.228178
N92	N	0.448806	1.422693	0.561511
N93	N	0.782139	1.756026	0.894845
N94	N	0.115472	1.089383	-0.228171
N95	N	0.448806	1.422716	0.105162
N96	N	0.782139	1.756049	0.438496
C97	C	0.059067	1.152093	0.453901
C98	C	0.392401	1.485426	0.787234
C99	C	0.725734	1.818759	1.120568
C100	C	0.059065	1.152095	0.546091
C101	C	0.392399	1.485429	0.879424
C102	C	0.725732	1.818762	1.212757
C103	C	0.171880	1.026643	0.546100
C104	C	0.505213	1.359976	0.879433
C105	C	0.838547	1.693310	1.212766
C106	C	0.171877	1.026636	0.453912
C107	C	0.505211	1.359970	0.787245
C108	C	0.838544	1.693303	1.120578
C109	C	0.115472	1.089366	0.407815
C110	C	0.448805	1.422700	0.741148
C111	C	0.782139	1.756033	1.074481
C112	C	0.115473	1.089376	0.592192
C113	C	0.448806	1.422709	0.925526
C114	C	0.782139	1.756043	1.258859
C115	C	0.115471	1.089379	0.692148
C116	C	0.448804	1.422712	1.025482
C117	C	0.782138	1.756045	1.358815
C118	C	0.115472	1.089363	0.307852
C119	C	0.448806	1.422696	0.641186
C120	C	0.782139	1.756029	0.974519
H121	H	-0.305860	1.090908	-0.144847
H122	H	0.027473	1.424241	0.188486
H123	H	0.360807	1.757575	0.521819
H124	H	-0.463182	1.087835	-0.144844
H125	H	-0.129848	1.421169	0.188490
H126	H	0.203485	1.754502	0.521823
H127	H	0.217805	0.975571	0.583641
H128	H	0.551139	1.308904	0.916974
H129	H	0.884472	1.642238	1.250308
C130	C	-0.234411	1.012863	0.172473
C131	C	0.098923	1.346196	0.505807
C132	C	0.432256	1.679530	0.839140
C133	C	-0.293494	1.091127	0.167600
C134	C	0.039840	1.424460	0.500933
C135	C	0.373173	1.757793	0.834267
H136	H	-0.204988	1.013429	0.226653
H137	H	0.128346	1.346763	0.559986
H138	H	0.461679	1.680096	0.893320
H139	H	-0.196182	1.013615	0.124930
H140	H	0.137151	1.346948	0.458263
H141	H	0.470484	1.680282	0.791596
H142	H	-0.261997	0.958466	0.169157
H143	H	0.071336	1.291800	0.502490
H144	H	0.404670	1.625133	0.835823
H145	H	-0.265907	1.145524	0.170910
H146	H	0.067427	1.478857	0.504243
H147	H	0.400760	1.812190	0.837577
H148	H	-0.331728	1.090383	0.215157
H149	H	0.001606	1.423717	0.548490
H150	H	0.334939	1.757050	0.881824
H151	H	-0.463195	1.087824	0.144845
H152	H	-0.129862	1.421157	0.478178
H153	H	0.203471	1.754490	0.811511
H154	H	0.217809	0.975553	0.416386
H155	H	0.551142	1.308886	0.749719
H156	H	0.884476	1.642220	1.083052
H157	H	0.013138	1.203170	0.416371
H158	H	0.346471	1.536503	0.749704
H159	H	0.679804	1.869836	1.083037
H160	H	0.013135	1.203172	0.583611
H161	H	0.346468	1.536505	0.916945
H162	H	0.679801	1.869838	1.250278
