data_functionalizedCrystal
_audit_creation_method	'MofGen! by Chris Wilmer'
_symmetry_space_group_name_H-M	'P1'
_symmetry_Int_Tables_number	1
_symmetry_cell_setting	triclinic
loop_
_symmetry_equiv_pos_as_xyz
  x,y,z
_cell_length_a	19.288859
_cell_length_b	19.288865
_cell_length_c	17.766277
_cell_angle_alpha	89.988397
_cell_angle_beta	89.989768
_cell_angle_gamma	83.134986
loop_
_atom_site_label
_atom_site_type_symbol
_atom_site_fract_x
_atom_site_fract_y
_atom_site_fract_z
O1	O	0.921356	0.086628	-0.062618
O2	O	1.421356	0.586628	0.437382
O3	O	0.719095	0.098322	-0.062617
O4	O	1.219095	0.598322	0.437383
O5	O	0.826070	-0.008656	-0.062602
O6	O	1.326070	0.491344	0.437398
O7	O	0.814381	0.193605	-0.062632
O8	O	1.314381	0.693605	0.437368
O9	O	0.826051	-0.008661	0.062586
O10	O	1.326051	0.491339	0.562586
O11	O	0.719076	0.098316	0.062571
O12	O	1.219076	0.598316	0.562571
O13	O	0.921337	0.086623	0.062571
O14	O	1.421337	0.586623	0.562571
Cu15	Cu	0.820205	0.092469	0.074002
Cu16	Cu	1.320205	0.592469	0.574002
Cu17	Cu	0.820227	0.092475	-0.074048
Cu18	Cu	1.320227	0.592475	0.425952
O19	O	0.814362	0.193600	0.062556
O20	O	1.314362	0.693600	0.562556
C21	C	0.693209	0.097943	-0.000022
C22	C	1.193209	0.597943	0.499978
C23	C	0.616105	0.096816	-0.000022
C24	C	1.116105	0.596816	0.499978
C25	C	0.825684	-0.034535	-0.000006
C26	C	1.325684	0.465465	0.499994
C27	C	0.824555	-0.111638	0.000001
C28	C	1.324555	0.388362	0.500001
C29	C	0.052064	0.151959	-0.000031
C30	C	0.552064	0.651959	0.499969
C31	C	0.124511	0.153025	-0.000035
C32	C	0.624511	0.653025	0.499965
C33	C	0.169217	0.090255	-0.000024
C34	C	0.669217	0.590255	0.499976
C35	C	0.141472	0.026416	-0.000029
C36	C	0.641472	0.526416	0.499971
C37	C	0.069027	0.025353	-0.000032
C38	C	0.569027	0.525353	0.499968
C39	C	0.290481	0.043440	0.043845
C40	C	0.790481	0.543440	0.543845
C41	C	0.362925	0.044507	0.043853
C42	C	0.862925	0.544507	0.543853
C43	C	0.392663	0.093533	-0.000017
C44	C	0.892663	0.593533	0.499983
C45	C	0.349948	0.141505	-0.043885
C46	C	0.849948	0.641505	0.456115
C47	C	0.277502	0.140441	-0.043888
C48	C	0.777502	0.640441	0.456112
C49	C	0.247773	0.091401	-0.000021
C50	C	0.747773	0.591401	0.499979
C51	C	0.498955	0.158523	-0.000022
C52	C	0.998955	0.658523	0.499978
C53	C	0.571403	0.159586	-0.000031
C54	C	1.071403	0.659586	0.499969
C55	C	0.588364	0.032976	-0.000017
C56	C	1.088364	0.532976	0.499983
C57	C	0.515917	0.031915	-0.000016
C58	C	1.015917	0.531915	0.499984
C59	C	0.471216	0.094691	-0.000015
C60	C	0.971216	0.594691	0.499985
C61	C	0.887323	-0.156336	0.000004
C62	C	1.387323	0.343664	0.500004
C63	C	0.886262	-0.228783	-0.000008
C64	C	1.386262	0.271217	0.499992
C65	C	0.822430	-0.256529	-0.000008
C66	C	1.322430	0.243471	0.499992
C67	C	0.759654	-0.211822	-0.000016
C68	C	1.259654	0.288178	0.499984
C69	C	0.760716	-0.139376	-0.000011
C70	C	1.260716	0.360624	0.499989
C71	C	0.772244	-0.364817	0.043843
C72	C	1.272244	0.135183	0.543843
C73	C	0.771184	-0.437262	0.043843
C74	C	1.271184	0.062738	0.543843
C75	C	0.819150	-0.479975	-0.000025
C76	C	1.319150	0.020025	0.499975
C77	C	0.868189	-0.450236	-0.043883
C78	C	1.368189	0.049764	0.456117
C79	C	0.869251	-0.377790	-0.043879
C80	C	1.369251	0.122210	0.456121
C81	C	0.821271	-0.335083	-0.000013
C82	C	1.321271	0.164917	0.499987
C83	C	0.880773	-0.603228	-0.000035
C84	C	1.380773	-0.103228	0.499965
C85	C	0.879709	-0.675676	-0.000052
C86	C	1.379709	-0.175676	0.499948
C87	C	0.753099	-0.658713	-0.000052
C88	C	1.253099	-0.158713	0.499948
C89	C	0.754164	-0.586267	-0.000043
C90	C	1.254164	-0.086267	0.499957
C91	C	0.818003	-0.558529	-0.000031
C92	C	1.318003	-0.058529	0.499969
C93	C	0.947223	0.087001	-0.000025
C94	C	1.447223	0.587001	0.499975
C95	C	1.024327	0.088128	-0.000031
C96	C	1.524327	0.588128	0.499969
C97	C	0.814747	0.219479	-0.000042
C98	C	1.314747	0.719479	0.499958
C99	C	0.815876	0.296583	-0.000053
C100	C	1.315876	0.796583	0.499947
N101	N	0.820194	0.092464	0.178132
N102	N	1.320194	0.592464	0.678132
N103	N	0.820243	0.092475	-0.178178
N104	N	1.320243	0.592475	0.321822
C105	C	0.867578	0.045118	0.217526
C106	C	1.367578	0.545118	0.717526
C107	C	0.867582	0.045115	0.296327
C108	C	1.367582	0.545115	0.796327
C109	C	0.820209	0.092470	0.335733
C110	C	1.320209	0.592470	0.835733
C111	C	0.772816	0.139820	0.296330
C112	C	1.272816	0.639820	0.796330
C113	C	0.772809	0.139817	0.217530
C114	C	1.272809	0.639817	0.717530
C115	C	0.810910	0.155757	0.460562
C116	C	1.310910	0.655757	0.960562
C117	C	0.810922	0.155761	0.539360
C118	C	1.310922	0.655761	1.039360
C119	C	0.820227	0.092478	0.578779
C120	C	1.320227	0.592478	1.078779
C121	C	0.829535	0.029188	0.539389
C122	C	1.329535	0.529188	1.039389
C123	C	0.829528	0.029186	0.460589
C124	C	1.329528	0.529186	0.960589
C125	C	0.820211	0.092478	0.421179
C126	C	1.320211	0.592478	0.921179
C127	C	0.867618	0.045124	0.703618
C128	C	1.367618	0.545124	1.203618
C129	C	0.867617	0.045120	0.782422
C130	C	1.367617	0.545120	1.282422
C131	C	0.772855	0.139831	0.782423
C132	C	1.272855	0.639831	1.282423
C133	C	0.772852	0.139829	0.703621
C134	C	1.272852	0.639829	1.203621
C135	C	0.820238	0.092477	0.664224
C136	C	1.320238	0.592477	1.164224
H137	H	0.015673	0.203077	-0.000034
H138	H	0.515673	0.703077	0.499966
N139	N	0.231434	0.192168	-0.091212
N140	N	0.731434	0.692168	0.408788
H141	H	0.181029	0.184052	-0.084556
H142	H	0.681029	0.684052	0.415444
H143	H	0.237544	0.241203	-0.074825
H144	H	0.737544	0.741203	0.425175
N145	N	0.800880	0.224017	0.418049
N146	N	1.300880	0.724017	0.918049
H147	H	0.757876	0.225650	0.385367
H148	H	1.257876	0.725650	0.885367
H149	H	0.795024	0.264070	0.455005
H150	H	1.295024	0.764070	0.955005
H151	H	0.937377	-0.265183	-0.000008
H152	H	1.437377	0.234817	0.499992
N153	N	0.382003	0.194390	-0.091210
N154	N	0.882003	0.694390	0.408790
H155	H	0.408060	0.224662	-0.057621
H156	H	0.908060	0.724662	0.442379
H157	H	0.415447	0.169277	-0.128713
H158	H	0.915447	0.669277	0.371287
N159	N	0.949623	-0.573305	-0.000023
N160	N	1.449623	-0.073305	0.499977
H161	H	0.952896	-0.543608	-0.046422
H162	H	1.452896	-0.043608	0.453578
H163	H	0.952830	-0.543676	0.046423
H164	H	1.452830	-0.043676	0.546423
N165	N	0.918711	-0.005970	0.661134
N166	N	1.418711	0.494030	1.161134
H167	H	0.892257	-0.036654	0.628461
H168	H	1.392257	0.463346	1.128461
H169	H	0.949377	0.020526	0.628463
H170	H	1.449377	0.520526	1.128463
H171	H	0.906160	0.006559	0.185451
H172	H	1.406160	0.506559	0.685451
N173	N	0.919931	-0.496295	-0.091198
N174	N	1.419931	0.003705	0.408802
H175	H	0.913661	-0.482806	-0.145925
H176	H	1.413661	0.017194	0.354075
H177	H	0.968958	-0.490217	-0.074753
H178	H	1.468958	0.009783	0.425247
N179	N	0.918738	-0.005937	0.824915
N180	N	1.418738	0.494063	1.324915
H181	H	0.948759	-0.035927	0.787996
H182	H	1.448759	0.464073	1.287996
H183	H	0.949350	0.020597	0.857586
H184	H	1.449350	0.520597	1.357586
N185	N	0.947412	-0.723891	-0.000043
N186	N	1.447412	-0.223891	0.499957
H187	H	0.949807	-0.754315	-0.046454
H188	H	1.449807	-0.254315	0.453546
H189	H	0.987972	-0.695275	-0.000004
H190	H	1.487972	-0.195275	0.499996
H191	H	0.493333	-0.020063	-0.000012
H192	H	0.993333	0.479937	0.499988
N193	N	0.839563	-0.039071	0.418105
N194	N	1.339563	0.460929	0.918105
H195	H	0.882562	-0.040698	0.385401
H196	H	1.382562	0.459302	0.885401
H197	H	0.845430	-0.079122	0.455078
H198	H	1.345430	0.420878	0.955078
N199	N	0.918689	-0.005955	0.338829
N200	N	1.418689	0.494045	0.838829
H201	H	0.948704	-0.035954	0.301914
H202	H	1.448704	0.464046	0.801914
H203	H	0.949308	0.020565	0.371507
H204	H	1.449308	0.520565	0.871507
H205	H	0.734243	0.178376	0.328418
H206	H	1.234243	0.678376	0.828418
N207	N	0.839576	-0.039074	0.581892
N208	N	1.339576	0.460926	1.081892
H209	H	0.838165	-0.029472	0.637789
H210	H	1.338165	0.470528	1.137789
H211	H	0.801053	-0.067903	0.568134
H212	H	1.301053	0.432097	1.068134
N213	N	0.956175	-0.126418	0.000016
N214	N	1.456175	0.373582	0.500016
H215	H	0.995777	-0.165732	0.000016
H216	H	1.495777	0.334268	0.500016
H217	H	0.959383	-0.096720	-0.046392
H218	H	1.459383	0.403280	0.453608
N219	N	0.721753	0.190903	0.824912
N220	N	1.221753	0.690903	1.324912
H221	H	0.728945	0.183720	0.880811
H222	H	1.228945	0.683720	1.380811
H223	H	0.729616	0.240159	0.811125
H224	H	1.229616	0.740159	1.311125
N225	N	0.684251	-0.688631	-0.000041
N226	N	1.184251	-0.188631	0.499959
H227	H	0.644647	-0.649318	-0.000036
H228	H	1.144647	-0.149318	0.499964
H229	H	0.681054	-0.718311	-0.046450
H230	H	1.181054	-0.218311	0.453550
N231	N	0.922132	-0.345712	-0.091185
N232	N	1.422132	0.154288	0.408815
H233	H	0.952399	-0.319659	-0.057585
H234	H	1.452399	0.180341	0.442415
H235	H	0.952312	-0.383796	-0.118971
H236	H	1.452312	0.116204	0.381029
N237	N	0.721745	0.190896	0.661126
N238	N	1.221745	0.690896	1.161126
H239	H	0.691733	0.220895	0.698044
H240	H	1.191733	0.720895	1.198044
H241	H	0.748231	0.221535	0.628413
H242	H	1.248231	0.721535	1.128413
H243	H	0.703051	-0.549873	-0.000042
H244	H	1.203051	-0.049873	0.499958
H245	H	0.803348	0.207295	0.571425
H246	H	1.303348	0.707295	1.071425
N247	N	0.258420	-0.009438	0.091179
N248	N	0.758420	0.490562	0.591179
H249	H	0.224941	0.015632	0.128680
H250	H	0.724941	0.515632	0.628680
H251	H	0.232402	-0.039703	0.057545
H252	H	0.732402	0.460297	0.557545
N253	N	0.721698	0.190883	0.175035
N254	N	1.221698	0.690883	0.675035
H255	H	0.691684	0.220881	0.211953
H256	H	1.191684	0.720881	0.711953
H257	H	0.748186	0.221523	0.142325
H258	H	1.248186	0.721523	0.642325
N259	N	0.636580	-0.034723	-0.000003
N260	N	1.136580	0.465277	0.499997
H261	H	0.627672	-0.062586	0.046408
H262	H	1.127672	0.437414	0.546408
H263	H	0.627668	-0.062526	-0.046438
H264	H	1.127668	0.437474	0.453562
H265	H	0.593984	0.211567	-0.000037
H266	H	1.093984	0.711567	0.499963
N267	N	0.154434	0.221876	-0.000034
N268	N	0.654434	0.721876	0.499966
H269	H	0.138111	0.249357	0.046373
H270	H	0.638111	0.749357	0.546373
H271	H	0.207106	0.212966	-0.000060
H272	H	0.707106	0.712966	0.499940
N273	N	0.450740	0.226229	-0.000030
N274	N	0.950740	0.726229	0.499970
H275	H	0.459647	0.254089	-0.046443
H276	H	0.959647	0.754089	0.453557
H277	H	0.400656	0.215813	0.000001
H278	H	0.900656	0.715813	0.500001
N279	N	0.408992	-0.007224	0.091174
N280	N	0.908992	0.492776	0.591174
H281	H	0.379163	-0.038447	0.118959
H282	H	0.879163	0.461553	0.618959
H283	H	0.443051	-0.036561	0.057539
H284	H	0.943051	0.463439	0.557539
N285	N	0.189687	-0.041286	-0.000020
N286	N	0.689687	0.458714	0.499980
H287	H	0.239790	-0.030927	-0.000015
H288	H	0.739790	0.469073	0.499985
H289	H	0.180716	-0.069120	0.046390
H290	H	0.680716	0.430880	0.546390
H291	H	0.733182	-0.330045	0.079570
H292	H	1.233182	0.169955	0.579570
H293	H	0.707681	-0.234417	-0.000018
H294	H	1.207681	0.265583	0.499982
H295	H	0.046445	-0.026628	-0.000033
H296	H	0.546445	0.473372	0.499967
H297	H	0.731251	-0.461469	0.079551
H298	H	1.231251	0.038531	0.579551
H299	H	0.709601	-0.102982	-0.000014
H300	H	1.209601	0.397018	0.499986
