data_functionalizedCrystal
_audit_creation_method	'MofGen! by Chris Wilmer'
_symmetry_space_group_name_H-M	'P1'
_symmetry_Int_Tables_number	1
_symmetry_cell_setting	triclinic
loop_
_symmetry_equiv_pos_as_xyz
  x,y,z
_cell_length_a	12.837932
_cell_length_b	9.730223
_cell_length_c	12.837942
_cell_angle_alpha	89.998888
_cell_angle_beta	85.170678
_cell_angle_gamma	90.000191
loop_
_atom_site_label
_atom_site_type_symbol
_atom_site_fract_x
_atom_site_fract_y
_atom_site_fract_z
O1	O	1.402331	0.114292	-0.272145
O2	O	1.902331	0.614292	0.227855
O3	O	1.099197	0.114294	-0.258699
O4	O	1.599197	0.614294	0.241301
O5	O	1.244043	0.114285	-0.113855
O6	O	1.744043	0.614285	0.386145
O7	O	1.257486	0.114302	-0.416989
O8	O	1.757486	0.614302	0.083011
O9	O	1.244041	-0.114295	-0.113859
O10	O	1.744041	0.385705	0.386141
O11	O	1.099196	-0.114286	-0.258703
O12	O	1.599196	0.385714	0.241297
O13	O	1.402330	-0.114288	-0.272149
O14	O	1.902330	0.385712	0.227851
Zn15	Zn	1.250763	-0.150579	-0.265426
Zn16	Zn	1.750763	0.349421	0.234574
Zn17	Zn	1.250765	0.150585	-0.265421
Zn18	Zn	1.750765	0.650585	0.234579
O19	O	1.257485	-0.114278	-0.416993
O20	O	1.757485	0.385722	0.083007
C21	C	1.060127	0.000004	-0.254160
C22	C	1.560127	0.500004	0.245840
C23	C	0.943712	0.000005	-0.240614
C24	C	1.443712	0.500005	0.259386
N25	N	1.250769	-0.356115	-0.265430
N26	N	1.750769	0.143885	0.234570
C27	C	0.782686	-0.000004	-0.127402
C28	C	1.282686	0.499996	0.372598
C29	C	0.892069	-0.000002	-0.140122
C30	C	1.392069	0.499998	0.359878
C31	C	0.885965	0.000007	-0.328393
C32	C	1.385965	0.500007	0.171607
C33	C	0.776582	0.000006	-0.315673
C34	C	1.276582	0.500006	0.184327
C35	C	0.724947	0.000003	-0.215174
C36	C	1.224947	0.500003	0.284826
C37	C	0.615562	0.000011	-0.202455
C38	C	1.115562	0.500011	0.297545
C39	C	0.609460	0.000011	-0.390725
C40	C	1.109460	0.500011	0.109275
C41	C	0.718843	0.000012	-0.403445
C42	C	1.218843	0.500012	0.096555
C43	C	1.314927	-0.428045	-0.201319
C44	C	1.814927	0.071955	0.298681
C45	C	1.314923	-0.571928	-0.201306
C46	C	1.814923	-0.071928	0.298694
C47	C	1.186601	-0.571938	-0.329524
C48	C	1.686601	-0.071938	0.170476
C49	C	1.186600	-0.428058	-0.329531
C50	C	1.686600	0.071942	0.170469
C51	C	1.379096	-0.356103	-0.137218
C52	C	1.879096	0.143897	0.362782
C53	C	1.443260	-0.428033	-0.073102
C54	C	1.943260	0.071967	0.426898
C55	C	1.443256	-0.571916	-0.073089
C56	C	1.943256	-0.071916	0.426911
C57	C	1.379088	-0.643869	-0.137192
C58	C	1.879088	-0.143869	0.362808
C59	C	1.441400	0.000005	-0.276688
C60	C	1.941400	0.500005	0.223312
C61	C	1.557815	0.000013	-0.290233
C62	C	2.057815	0.500013	0.209767
C63	C	1.239501	-0.000004	-0.074788
C64	C	1.739501	0.499996	0.425212
C65	C	1.225956	-0.000002	0.041627
C66	C	1.725956	0.499998	0.541627
N67	N	1.250766	0.356122	-0.265410
N68	N	1.750766	0.856122	0.234590
C69	C	1.262027	0.000014	-0.456060
C70	C	1.762027	0.500014	0.043940
C71	C	1.275571	0.000021	-0.572475
C72	C	1.775571	0.500021	-0.072475
C73	C	1.388786	0.000026	0.266500
C74	C	1.888786	0.500026	0.766500
C75	C	1.376064	0.000028	0.375883
C76	C	1.876064	0.500028	0.875883
C77	C	1.187793	0.000015	0.369777
C78	C	1.687793	0.500015	0.869777
C79	C	1.200514	0.000013	0.260394
C80	C	1.700514	0.500013	0.760394
C81	C	1.301014	0.000016	0.208760
C82	C	1.801014	0.500016	0.708760
C83	C	1.313734	0.000004	0.099375
C84	C	1.813734	0.500004	0.599375
C85	C	1.125464	0.000000	0.093271
C86	C	1.625464	0.500000	0.593271
C87	C	1.112742	0.000003	0.202654
C88	C	1.612742	0.500003	0.702654
H89	H	0.573523	0.000014	-0.120623
H90	H	1.073523	0.500014	0.379377
Br91	Br	1.099519	-0.330434	-0.416535
Br92	Br	1.599519	0.169566	0.083465
Br93	Br	0.712604	0.000004	0.008985
Br94	Br	1.212604	0.500004	0.508985
Br95	Br	1.530321	-0.669536	0.013934
Br96	Br	2.030321	-0.169536	0.513934
Br97	Br	1.525173	-0.000012	0.196420
Br98	Br	2.025173	0.499988	0.696420
H99	H	1.447538	0.000040	0.422891
H100	H	1.947538	0.500040	0.922891
H101	H	0.939077	-0.000008	-0.068648
H102	H	1.439077	0.499992	0.431352
H103	H	1.134359	-0.630531	-0.381715
H104	H	1.634359	-0.130531	0.118285
Br105	Br	1.450124	-0.000006	0.029300
Br106	Br	1.950124	0.499994	0.529300
Br107	Br	1.051411	0.000060	0.439870
Br108	Br	1.551411	0.500060	0.939870
Br109	Br	0.976357	0.000016	0.272738
Br110	Br	1.476357	0.500016	0.772738
H111	H	0.928026	-0.000002	-0.410215
H112	H	1.428026	0.499998	0.089785
Br113	Br	0.788929	0.000016	-0.539830
Br114	Br	1.288929	0.500016	-0.039830
H115	H	1.379107	-0.238946	-0.137225
H116	H	1.879107	0.261054	0.362775
H117	H	1.053994	-0.000018	0.046247
H118	H	1.553994	0.499982	0.546247
H119	H	1.495497	-0.369442	-0.020905
H120	H	1.995497	0.130558	0.479095
H121	H	1.379083	-0.761028	-0.137168
H122	H	1.879083	-0.261028	0.362832
H123	H	0.562437	0.000017	-0.462196
H124	H	1.062437	0.500017	0.037804
