data_functionalizedCrystal
_audit_creation_method	'MofGen! by Chris Wilmer'
_symmetry_space_group_name_H-M	'P1'
_symmetry_Int_Tables_number	1
_symmetry_cell_setting	triclinic
loop_
_symmetry_equiv_pos_as_xyz
  x,y,z
_cell_length_a	13.635800
_cell_length_b	7.076148
_cell_length_c	7.190334
_cell_angle_alpha	96.844284
_cell_angle_beta	60.611776
_cell_angle_gamma	117.702381
loop_
_atom_site_label
_atom_site_type_symbol
_atom_site_fract_x
_atom_site_fract_y
_atom_site_fract_z
V1	V	-2.149221	-0.291704	0.663535
O2	O	-2.101098	0.017518	0.652430
O3	O	-2.161841	-0.581767	0.657529
O4	O	-2.167023	-0.285681	0.953595
O5	O	-2.095880	-0.280618	0.354314
V6	V	-2.380821	-0.254899	0.626728
O7	O	-2.302139	-0.372439	0.744274
O8	O	-2.453001	-0.174164	0.545989
O9	O	-2.256597	0.035164	0.632734
O10	O	-2.487642	-0.564122	0.637833
O11	O	-2.492860	-0.265986	0.935948
O12	O	-2.251415	-0.260922	0.336668
V13	V	-1.880814	-0.254899	0.626728
O14	O	-1.934154	-0.265986	0.935948
O15	O	-1.863011	-0.260922	0.336668
O16	O	-1.868193	0.035164	0.632734
O17	O	-1.928936	-0.564122	0.637833
V18	V	-1.649213	-0.291704	0.663535
O19	O	-1.727895	-0.174164	0.545989
O20	O	-1.577033	-0.372439	0.744274
O21	O	-1.778619	-0.285681	0.953595
O22	O	-1.537174	-0.280618	0.354314
O23	O	-1.542392	0.017518	0.652430
O24	O	-1.773437	-0.581767	0.657529
C25	C	-2.158178	0.105912	0.643576
C26	C	-2.095409	0.347483	0.646654
C27	C	-1.938091	0.105911	0.643583
C28	C	-1.885892	0.347485	0.646638
C29	C	-2.098554	-0.274829	1.024341
C30	C	-2.155037	-0.271764	1.265913
C31	C	-1.931475	-0.271767	0.265908
C32	C	-1.874990	-0.274821	0.024334
