data_functionalizedCrystal
_audit_creation_method	'MofGen! by Chris Wilmer'
_symmetry_space_group_name_H-M	'P1'
_symmetry_Int_Tables_number	1
_symmetry_cell_setting	triclinic
loop_
_symmetry_equiv_pos_as_xyz
  x,y,z
_cell_length_a	17.077404
_cell_length_b	12.759394
_cell_length_c	17.077396
_cell_angle_alpha	89.972850
_cell_angle_beta	89.982756
_cell_angle_gamma	90.015062
loop_
_atom_site_label
_atom_site_type_symbol
_atom_site_fract_x
_atom_site_fract_y
_atom_site_fract_z
Zn1	Zn	1.200081	-0.418252	-0.443855
Zn2	Zn	1.700081	0.081748	0.056145
Zn3	Zn	1.200012	-0.593955	-0.312593
Zn4	Zn	1.700012	-0.093955	0.187407
Zn5	Zn	1.068818	-0.418291	-0.312602
Zn6	Zn	1.568818	0.081709	0.187398
Zn7	Zn	1.068799	-0.593890	-0.443817
Zn8	Zn	1.568799	-0.093890	0.056183
O9	O	1.134428	-0.506097	-0.378217
O10	O	1.634428	-0.006097	0.121783
O11	O	1.309919	-0.441570	-0.426454
O12	O	1.809919	0.058430	0.073546
O13	O	1.182587	-0.570696	-0.202748
O14	O	1.682587	-0.070696	0.297252
O15	O	1.086267	-0.271265	-0.330033
O16	O	1.586267	0.228735	0.169967
O17	O	1.309868	-0.570658	-0.330017
O18	O	1.809868	-0.070658	0.169983
O19	O	1.182706	-0.271236	-0.426463
O20	O	1.682706	0.228764	0.073537
O21	O	1.086200	-0.441637	-0.202754
O22	O	1.586200	0.058363	0.297246
O23	O	0.958969	-0.441574	-0.329996
O24	O	1.458969	0.058426	0.170004
O25	O	1.086235	-0.570547	-0.553669
O26	O	1.586235	-0.070547	-0.053669
O27	O	0.958955	-0.570586	-0.426399
O28	O	1.458955	-0.070586	0.073601
O29	O	1.182687	-0.441507	-0.553697
O30	O	1.682687	0.058493	-0.053697
O31	O	1.182569	-0.740967	-0.329981
O32	O	1.682569	-0.240967	0.170019
O33	O	1.086168	-0.740920	-0.426391
O34	O	1.586168	-0.240920	0.073609
C35	C	0.930480	-0.506078	-0.378195
C36	C	1.430480	-0.006078	0.121805
C37	C	0.843230	-0.506095	-0.378205
C38	C	1.343230	-0.006095	0.121795
C39	C	0.802253	-0.573373	-0.428321
C40	C	1.302253	-0.073373	0.071679
C41	C	0.720273	-0.573375	-0.428334
C42	C	1.220273	-0.073375	0.071666
C43	C	0.679270	-0.506104	-0.378225
C44	C	1.179270	-0.006104	0.121775
C45	C	0.720253	-0.438819	-0.328107
C46	C	1.220253	0.061181	0.171893
C47	C	0.802232	-0.438812	-0.328099
C48	C	1.302232	0.061188	0.171901
C49	C	0.549383	-0.438839	-0.328125
C50	C	1.049383	0.061161	0.171875
C51	C	0.467398	-0.438847	-0.328132
C52	C	0.967398	0.061153	0.171868
C53	C	0.467424	-0.573402	-0.428360
C54	C	0.967424	-0.073402	0.071640
C55	C	0.549403	-0.573396	-0.428352
C56	C	1.049403	-0.073396	0.071648
C57	C	0.590379	-0.506112	-0.378233
C58	C	1.090379	-0.006112	0.121767
C59	C	1.134380	-0.779064	-0.378198
C60	C	1.634380	-0.279064	0.121802
C61	C	1.134432	-0.895841	-0.378216
C62	C	1.634432	-0.395841	0.121784
C63	C	1.234890	-0.895837	-0.277900
C64	C	1.734890	-0.395837	0.222100
C65	C	1.285139	-0.950696	-0.227751
C66	C	1.785139	-0.450696	0.272249
C67	C	1.285185	-1.060418	-0.227773
C68	C	1.785185	-0.560418	0.272227
C69	C	1.234978	-1.115283	-0.277950
C70	C	1.734978	-0.615283	0.222050
C71	C	1.184729	-1.060424	-0.328099
C72	C	1.684729	-0.560424	0.171901
C73	C	1.184687	-0.950700	-0.328070
C74	C	1.684687	-0.450700	0.171930
C75	C	1.084276	-1.060428	-0.428417
C76	C	1.584276	-0.560428	0.071583
C77	C	1.084225	-0.950706	-0.428393
C78	C	1.584225	-0.450706	0.071607
C79	C	1.034069	-1.115293	-0.478594
C80	C	1.534069	-0.615293	0.021406
C81	C	0.983814	-1.060434	-0.528740
C82	C	1.483814	-0.560434	-0.028740
C83	C	0.983770	-0.950706	-0.528716
C84	C	1.483770	-0.450706	-0.028716
C85	C	1.033975	-0.895847	-0.478542
C86	C	1.533975	-0.395847	0.021458
C87	C	1.339172	-0.506117	-0.378239
C88	C	1.839172	-0.006117	0.121761
C89	C	1.426422	-0.506125	-0.378249
C90	C	1.926422	-0.006125	0.121751
C91	C	1.134467	-0.506015	-0.582961
C92	C	1.634467	-0.006015	-0.082961
C93	C	1.134484	-0.505981	-0.670211
C94	C	1.634484	-0.005981	-0.170211
C95	C	1.134496	-0.232063	-0.378253
C96	C	1.634496	0.267937	0.121747
C97	C	1.134525	-0.115287	-0.378269
C98	C	1.634525	0.384713	0.121731
C99	C	1.084310	-0.438771	-0.711204
C100	C	1.584310	0.061229	-0.211204
C101	C	1.084323	-0.438748	-0.793185
C102	C	1.584323	0.061252	-0.293185
C103	C	1.134514	-0.505928	-0.834171
C104	C	1.634514	-0.005928	-0.334171
C105	C	1.184690	-0.573145	-0.793172
C106	C	1.684690	-0.073145	-0.293172
C107	C	1.184672	-0.573174	-0.711193
C108	C	1.684672	-0.073174	-0.211193
C109	C	1.184724	-0.573079	-0.964042
C110	C	1.684724	-0.073079	-0.464042
C111	C	1.184742	-0.573050	-1.046027
C112	C	1.684742	-0.073050	-0.546027
C113	C	1.084374	-0.438654	-1.046034
C114	C	1.584374	0.061346	-0.546034
C115	C	1.084357	-0.438682	-0.964055
C116	C	1.584357	0.061318	-0.464055
C117	C	1.134534	-0.505897	-0.923062
C118	C	1.634534	-0.005897	-0.423062
C119	C	1.134433	-0.506102	-0.174269
C120	C	1.634433	-0.006102	0.325731
C121	C	1.134569	-0.505841	-0.087020
C122	C	1.634569	-0.005841	0.412980
H123	H	0.582784	-0.628179	-0.469151
H124	H	1.082784	-0.128179	0.030849
N125	N	0.676028	-0.366281	-0.274049
N126	N	1.176028	0.133719	0.225951
H127	H	0.642024	-0.317651	-0.306004
H128	H	1.142024	0.182349	0.193996
H129	H	0.642049	-0.409019	-0.237638
H130	H	1.142049	0.090981	0.262362
H131	H	1.225552	-0.627850	-0.826549
H132	H	1.725552	-0.127850	-0.326549
H133	H	1.043519	-0.383923	-1.079414
H134	H	1.543519	0.116077	-0.579414
H135	H	1.326019	-0.906015	-0.186899
H136	H	1.826019	-0.406015	0.313101
H137	H	0.434017	-0.384057	-0.287339
H138	H	0.934017	0.115943	0.212661
H139	H	1.043490	-0.383973	-0.930686
H140	H	1.543490	0.116027	-0.430686
H141	H	0.434056	-0.628184	-0.469172
H142	H	0.934056	-0.128184	0.030828
N143	N	0.929669	-1.119615	-0.582850
N144	N	1.429669	-0.619615	-0.082850
H145	H	0.873581	-1.100601	-0.570605
H146	H	1.373581	-0.600601	-0.070605
H147	H	0.941885	-1.100426	-0.638921
H148	H	1.441885	-0.600426	-0.138921
N149	N	1.238868	-0.645530	-1.090224
N150	N	1.738868	-0.145530	-0.590224
H151	H	1.206953	-0.694193	-1.124224
H152	H	1.706953	-0.194193	-0.624224
H153	H	1.275262	-0.602767	-1.124203
H154	H	1.775262	-0.102767	-0.624203
N155	N	0.846470	-0.645939	-0.482364
N156	N	1.346470	-0.145939	0.017636
H157	H	0.832229	-0.629717	-0.538473
H158	H	1.332229	-0.129717	-0.038473
H159	H	0.904608	-0.635698	-0.474688
H160	H	1.404608	-0.135698	0.025312
H161	H	0.835594	-0.384022	-0.287293
H162	H	1.335594	0.115978	0.212707
H163	H	1.225535	-0.627894	-0.677817
H164	H	1.725535	-0.127894	-0.177817
N165	N	1.339386	-1.119595	-0.173691
N166	N	1.839386	-0.619595	0.326309
H167	H	1.371186	-1.068194	-0.141902
H168	H	1.871186	-0.568194	0.358098
H169	H	1.307469	-1.165191	-0.137349
H170	H	1.807469	-0.665191	0.362651
H171	H	1.034113	-1.204634	-0.478612
H172	H	1.534113	-0.704634	0.021388
H173	H	0.686913	-0.628160	-0.469143
H174	H	1.186913	-0.128160	0.030857
H175	H	0.582744	-0.384040	-0.287319
H176	H	1.082744	0.115960	0.212681
H177	H	1.235027	-1.204624	-0.277970
H178	H	1.735027	-0.704624	0.222030
N179	N	0.929575	-0.891539	-0.582810
N180	N	1.429575	-0.391539	-0.082810
H181	H	0.897781	-0.942948	-0.614597
H182	H	1.397781	-0.442948	-0.114597
H183	H	0.893243	-0.846088	-0.550819
H184	H	1.393243	-0.346088	-0.050819
H185	H	1.234847	-0.806496	-0.277868
H186	H	1.734847	-0.306496	0.222132
H187	H	1.033939	-0.806506	-0.478512
H188	H	1.533939	-0.306506	0.021488
N189	N	1.030183	-0.366301	-0.667001
N190	N	1.530183	0.133699	-0.167001
H191	H	0.998400	-0.323721	-0.705412
H192	H	1.498400	0.176279	-0.205412
H193	H	0.993837	-0.409070	-0.632974
H194	H	1.493837	0.090930	-0.132974
H195	H	1.043464	-0.384023	-0.826557
H196	H	1.543464	0.115977	-0.326557
H197	H	1.225590	-0.627804	-0.930668
H198	H	1.725590	-0.127804	-0.430668
