data_functionalizedCrystal
_audit_creation_method	'MofGen! by Chris Wilmer'
_symmetry_space_group_name_H-M	'P1'
_symmetry_Int_Tables_number	1
_symmetry_cell_setting	triclinic
loop_
_symmetry_equiv_pos_as_xyz
  x,y,z
_cell_length_a	9.016244
_cell_length_b	16.992694
_cell_length_c	10.540539
_cell_angle_alpha	92.403143
_cell_angle_beta	90.000067
_cell_angle_gamma	89.998176
loop_
_atom_site_label
_atom_site_type_symbol
_atom_site_fract_x
_atom_site_fract_y
_atom_site_fract_z
O1	O	0.123143	-1.041903	0.269305
O2	O	0.123187	-0.813601	0.266350
O3	O	0.123162	-0.932961	0.083573
O4	O	0.123168	-0.922543	0.452082
O5	O	-0.123519	-0.932943	0.083575
O6	O	-0.123494	-0.813584	0.266353
O7	O	-0.123538	-1.041885	0.269307
Cu8	Cu	-0.146040	-0.927733	0.267830
Cu9	Cu	0.145689	-0.927754	0.267827
O10	O	-0.123513	-0.922526	0.452085
C11	C	-0.000148	-0.784358	0.262550
C12	C	-0.000131	-0.697251	0.251210
N13	N	-0.351226	-0.927724	0.267832
C14	C	-0.000175	-0.932171	0.036203
C15	C	-0.000167	-0.929833	-0.104948
C16	C	-0.586245	-0.863679	0.365242
C17	C	-0.414354	-0.863820	0.365640
C18	C	-0.413580	-1.009748	0.305083
C19	C	-0.585525	-1.009399	0.305782
C20	C	-0.585767	-0.910559	0.132904
C21	C	-0.413813	-0.908677	0.133606
N22	N	0.350875	-0.927769	0.267815
C23	C	-0.000200	-1.071128	0.273107
C24	C	-0.000207	-1.158236	0.284447
C25	C	-0.000130	-0.647623	0.360630
C26	C	-0.000151	-0.565777	0.349967
C27	C	-0.000162	-0.533560	0.229883
C28	C	-0.000167	-0.583194	0.120454
C29	C	-0.000157	-0.665039	0.131119
C30	C	-0.000202	-0.289715	0.185683
C31	C	-0.000207	-0.207863	0.175027
C32	C	-0.000195	-0.190452	0.404541
C33	C	-0.000176	-0.272299	0.415195
C34	C	-0.000189	-0.321926	0.305766
N35	N	-0.000178	-0.449900	0.218980
N36	N	-0.000183	-0.405584	0.316670
C37	C	0.000404	-0.840273	-0.296146
C38	C	-0.000152	-0.842642	-0.149322
C39	C	-0.141042	-0.971784	-0.162963
C40	C	-0.141160	-0.968808	-0.309765
C41	C	0.139362	-0.970601	-0.310133
C42	C	0.141224	-0.971404	-0.163081
C43	C	-0.000172	-0.923316	0.499454
C44	C	-0.000171	-0.925653	0.640605
H45	H	-0.627627	-0.802541	0.342085
H46	H	0.140297	-1.033579	-0.351894
N47	N	-0.272563	-0.935213	-0.112732
N48	N	-0.397153	-0.960201	-0.147361
H49	H	-0.490039	-0.934369	-0.111889
H50	H	-0.629439	-0.874597	0.464613
N51	N	-0.000187	-0.515079	0.461733
N52	N	-0.104196	-0.467480	0.481386
H53	H	-0.104235	-0.431676	0.560328
H54	H	-0.000156	-0.705445	0.042017
H55	H	-0.626429	-0.957288	0.060305
N56	N	-0.362748	-0.877654	0.491038
N57	N	-0.453721	-0.887242	0.578531
H58	H	-0.417277	-0.897000	0.667105
N59	N	-0.000243	-0.174964	0.052349
N60	N	-0.104236	-0.189931	-0.023287
H61	H	-0.104261	-0.166695	-0.109924
H62	H	-0.000150	-0.298523	0.512980
N63	N	0.127136	-0.797079	-0.335798
N64	N	0.146323	-0.785200	-0.450872
H65	H	0.235835	-0.754696	-0.478886
N66	N	-0.127049	-0.800944	-0.100544
N67	N	-0.221464	-0.835775	-0.036621
H68	H	-0.311093	-0.806326	-0.002170
H69	H	-0.100042	-0.805963	-0.329329
N70	N	-0.000194	-0.550300	-0.002219
N71	N	-0.104180	-0.565274	-0.077860
H72	H	-0.104198	-0.542046	-0.164502
H73	H	-0.625615	-1.024450	0.404426
H74	H	-0.246455	-0.937790	-0.340655
N75	N	-0.149212	-1.047473	-0.363105
N76	N	-0.154737	-1.104394	-0.291887
H77	H	-0.160435	-1.159951	-0.329552
H78	H	-0.000187	-0.150037	0.493631
N79	N	0.151863	-1.051158	-0.125800
N80	N	0.152214	-1.106248	-0.208195
H81	H	0.159713	-1.162578	-0.181867
H82	H	-0.372198	-0.802874	0.342221
N83	N	-0.640200	-0.837099	0.090554
N84	N	-0.714148	-0.835220	-0.009582
H85	H	-0.752592	-0.783334	-0.039478
N86	N	0.273328	-0.935216	-0.352756
N87	N	0.396136	-0.963070	-0.322778
H88	H	0.490746	-0.938072	-0.352879
N89	N	-0.637690	-1.071070	0.220685
N90	N	-0.547104	-1.114235	0.160976
H91	H	-0.583938	-1.157793	0.100881
H92	H	-0.373060	-0.848336	0.105529
N93	N	-0.000106	-0.680515	0.483305
N94	N	-0.000109	-0.636191	0.580991
H95	H	-0.000095	-0.659418	0.667634
N96	N	-0.000209	-0.340389	0.073896
N97	N	-0.000210	-0.311610	-0.033311
H98	H	-0.000211	-0.347401	-0.112268
H99	H	0.245439	-0.940710	-0.124888
N100	N	0.126534	-0.801228	-0.099482
N101	N	0.215978	-0.770367	-0.173147
H102	H	0.305451	-0.741113	-0.137954
H103	H	-0.146292	-1.035814	-0.135052
H104	H	-0.372685	-1.058605	0.236359
H105	H	-0.370846	-0.952264	0.057067
N106	N	-0.359530	-1.029047	0.427485
N107	N	-0.275107	-0.982530	0.487495
H108	H	-0.236934	-0.996155	0.573944
