data_functionalizedCrystal
_audit_creation_method	'MofGen! by Chris Wilmer'
_symmetry_space_group_name_H-M	'P1'
_symmetry_Int_Tables_number	1
_symmetry_cell_setting	triclinic
loop_
_symmetry_equiv_pos_as_xyz
  x,y,z
_cell_length_a	12.759401
_cell_length_b	16.625539
_cell_length_c	12.759399
_cell_angle_alpha	90.026183
_cell_angle_beta	89.983359
_cell_angle_gamma	89.981219
loop_
_atom_site_label
_atom_site_type_symbol
_atom_site_fract_x
_atom_site_fract_y
_atom_site_fract_z
Zn1	Zn	1.606241	-0.455883	0.418222
Zn2	Zn	1.939574	-0.122549	0.751555
Zn3	Zn	2.272908	0.210784	1.084888
Zn4	Zn	1.606137	-0.321055	0.593923
Zn5	Zn	1.939471	0.012278	0.927256
Zn6	Zn	2.272804	0.345612	1.260589
Zn7	Zn	1.430546	-0.321068	0.418263
Zn8	Zn	1.763880	0.012266	0.751596
Zn9	Zn	2.097213	0.345599	1.084930
Zn10	Zn	1.430530	-0.455849	0.593864
Zn11	Zn	1.763864	-0.122516	0.927197
Zn12	Zn	2.097197	0.210818	1.260531
O13	O	1.518364	-0.388464	0.506068
O14	O	1.851697	-0.055130	0.839401
O15	O	2.185030	0.278203	1.172735
O16	O	1.753248	-0.438006	0.441536
O17	O	2.086582	-0.104673	0.774869
O18	O	2.419915	0.228660	1.108203
O19	O	1.582808	-0.208224	0.570663
O20	O	1.916142	0.125109	0.903996
O21	O	2.249475	0.458442	1.237330
O22	O	1.453903	-0.338970	0.271237
O23	O	1.787236	-0.005637	0.604570
O24	O	2.120569	0.327696	0.937903
O25	O	1.753172	-0.338949	0.570623
O26	O	2.086505	-0.005616	0.903956
O27	O	2.419839	0.327718	1.237290
O28	O	1.582985	-0.438019	0.271206
O29	O	1.916318	-0.104685	0.604539
O30	O	2.249651	0.228648	0.937873
O31	O	1.453802	-0.208233	0.441607
O32	O	1.787136	0.125100	0.774940
O33	O	2.120469	0.458433	1.108273
O34	O	1.283523	-0.338938	0.441550
O35	O	1.616856	-0.005604	0.774883
O36	O	1.950190	0.327729	1.108216
O37	O	1.453875	-0.568686	0.570523
O38	O	1.787209	-0.235353	0.903856
O39	O	2.120542	0.097981	1.237189
O40	O	1.283511	-0.437961	0.570563
O41	O	1.616845	-0.104628	0.903896
O42	O	1.950178	0.228706	1.237229
O43	O	1.582969	-0.568711	0.441479
O44	O	1.916303	-0.235377	0.774812
O45	O	2.249636	0.097956	1.108146
O46	O	1.582793	-0.338916	0.740936
O47	O	1.916126	-0.005583	1.074269
O48	O	2.249459	0.327750	1.407603
O49	O	1.453775	-0.437949	0.740893
O50	O	1.787108	-0.104616	1.074226
O51	O	2.120442	0.228718	1.407559
C52	C	1.245396	-0.388448	0.506055
C53	C	1.578730	-0.055114	0.839388
C54	C	1.912063	0.278219	1.172722
C55	C	1.128620	-0.388460	0.506075
C56	C	1.461953	-0.055127	0.839408
C57	C	1.795286	0.278207	1.172741
C58	C	1.518432	-0.598773	0.505990
C59	C	1.851765	-0.265439	0.839323
C60	C	2.185099	0.067894	1.172656
C61	C	1.518461	-0.688394	0.505956
C62	C	1.851794	-0.355060	0.839290
C63	C	2.185128	-0.021727	1.172623
C64	C	1.073779	-0.439940	0.573354
C65	C	1.407113	-0.106607	0.906687
C66	C	1.740446	0.226726	1.240021
C67	C	0.964055	-0.439956	0.573358
C68	C	1.297388	-0.106623	0.906692
C69	C	1.630722	0.226710	1.240025
C70	C	0.964022	-0.337005	0.438801
C71	C	1.297355	-0.003671	0.772134
C72	C	1.630689	0.329662	1.105467
C73	C	1.073744	-0.336993	0.438792
C74	C	1.407077	-0.003660	0.772125
C75	C	1.740411	0.329673	1.105459
C76	C	1.518510	-1.016570	0.505839
C77	C	1.851843	-0.683236	0.839172
C78	C	2.185176	-0.349903	1.172505
C79	C	1.518493	-0.925261	0.505875
C80	C	1.851827	-0.591928	0.839208
C81	C	2.185160	-0.258594	1.172541
C82	C	1.518486	-0.852485	0.505898
C83	C	1.851819	-0.519151	0.839232
C84	C	2.185153	-0.185818	1.172565
C85	C	1.518468	-0.761170	0.505933
C86	C	1.851802	-0.427837	0.839266
C87	C	2.185135	-0.094504	1.172599
C88	C	1.792397	-0.388480	0.506082
C89	C	2.125730	-0.055147	0.839415
C90	C	2.459064	0.278187	1.172748
C91	C	1.909174	-0.388487	0.506087
C92	C	2.242507	-0.055154	0.839421
C93	C	2.575840	0.278179	1.172754
C94	C	1.518299	-0.388445	0.779035
C95	C	1.851633	-0.055112	1.112369
C96	C	2.184966	0.278221	1.445702
C97	C	1.518368	-0.388464	0.895812
C98	C	1.851701	-0.055131	1.229145
C99	C	2.185035	0.278202	1.562479
C100	C	1.518356	-0.178973	0.506070
C101	C	1.851689	0.154361	0.839403
C102	C	2.185023	0.487694	1.172737
C103	C	1.518531	-0.089352	0.505807
C104	C	1.851864	0.243981	0.839141
C105	C	2.185197	0.577315	1.172474
C106	C	1.518457	-0.388500	0.232035
C107	C	1.851790	-0.055166	0.565368
C108	C	2.185124	0.278167	0.898701
C109	C	1.518497	-0.388515	0.115258
C110	C	1.851830	-0.055182	0.448591
C111	C	2.185163	0.278152	0.781925
C112	C	1.585624	-0.336957	0.950661
C113	C	1.918957	-0.003623	1.283995
C114	C	2.252291	0.329710	1.617328
C115	C	1.585692	-0.336984	1.060385
C116	C	1.919025	-0.003650	1.393719
C117	C	2.252358	0.329683	1.727052
C118	C	1.451238	-0.440028	1.060401
C119	C	1.784571	-0.106695	1.393734
C120	C	2.117904	0.226638	1.727067
C121	C	1.451176	-0.440005	0.950679
C122	C	1.784510	-0.106671	1.284012
C123	C	2.117843	0.226662	1.617345
H124	H	1.118456	-0.481850	0.628138
H125	H	1.451789	-0.148516	0.961471
H126	H	1.785123	0.184817	1.294804
H127	H	1.118396	-0.295072	0.383999
H128	H	1.451730	0.038262	0.717332
H129	H	1.785063	0.371595	1.050665
H130	H	1.396408	-0.481952	0.906017
H131	H	1.729741	-0.148619	1.239350
H132	H	2.063075	0.184714	1.572684
H133	H	1.396531	-0.481990	1.105087
H134	H	1.729864	-0.148656	1.438420
H135	H	2.063198	0.184677	1.771753
O136	O	0.904901	-0.495391	0.646040
O137	O	1.238235	-0.162058	0.979373
O138	O	1.571568	0.171276	1.312706
H139	H	0.961497	-0.531139	0.692867
H140	H	1.294831	-0.197805	1.026200
H141	H	1.628164	0.135528	1.359533
O142	O	0.904836	-0.281469	0.366267
O143	O	1.238170	0.051865	0.699601
O144	O	1.571503	0.385198	1.032934
H145	H	0.819326	-0.290110	0.377592
H146	H	1.152659	0.043223	0.710926
H147	H	1.485992	0.376556	1.044259
O148	O	1.658108	-0.281385	0.891475
O149	O	1.991441	0.051948	1.224808
O150	O	2.324774	0.385281	1.558141
H151	H	1.640164	-0.218092	0.912609
H152	H	1.973497	0.115241	1.245942
H153	H	2.306831	0.448574	1.579275
O154	O	1.658225	-0.281425	1.119549
O155	O	1.991559	0.051908	1.452882
O156	O	2.324892	0.385242	1.786216
H157	H	1.704928	-0.245580	1.062959
H158	H	2.038262	0.087753	1.396293
H159	H	2.371595	0.421087	1.729626
