data_functionalizedCrystal
_audit_creation_method	'MofGen! by Chris Wilmer'
_symmetry_space_group_name_H-M	'P1'
_symmetry_Int_Tables_number	1
_symmetry_cell_setting	triclinic
loop_
_symmetry_equiv_pos_as_xyz
  x,y,z
_cell_length_a	15.944545
_cell_length_b	14.421503
_cell_length_c	9.065218
_cell_angle_alpha	89.993057
_cell_angle_beta	95.743971
_cell_angle_gamma	90.002446
loop_
_atom_site_label
_atom_site_type_symbol
_atom_site_fract_x
_atom_site_fract_y
_atom_site_fract_z
O1	O	1.115969	0.077048	-0.190236
O2	O	0.871596	0.077062	-0.213704
O3	O	0.998834	0.077053	0.012790
O4	O	0.988732	0.077057	-0.416731
O5	O	0.998822	-0.077171	0.012815
O6	O	0.871584	-0.077161	-0.213680
O7	O	1.115957	-0.077176	-0.190212
Cu8	Cu	0.993770	-0.091250	-0.201944
Cu9	Cu	0.993784	0.091137	-0.201972
O10	O	0.988720	-0.077166	-0.416707
C11	C	0.840289	-0.000047	-0.212720
C12	C	0.747021	-0.000042	-0.209804
N13	N	0.993766	-0.219531	-0.201923
C14	C	0.475258	-0.000053	-0.060699
C15	C	0.526379	-0.076095	-0.132573
C16	C	0.411298	-0.000058	-0.199405
C17	C	0.526371	0.075957	-0.132634
C18	C	0.576250	-0.000048	-0.204507
C19	C	0.461190	-0.076162	-0.271242
C20	C	0.461179	0.075958	-0.271283
C21	C	0.512267	-0.000102	-0.343259
C22	C	0.316274	-0.000064	-0.196462
C23	C	0.671272	-0.000049	-0.207460
C24	C	1.052147	-0.530964	-0.096358
C25	C	1.070141	-0.469128	-0.229263
C26	C	0.993785	-0.591420	-0.201965
C27	C	0.975821	-0.469163	-0.069043
C28	C	0.993778	-0.408699	-0.201937
C29	C	1.011818	-0.530945	-0.334937
C30	C	0.917464	-0.530985	-0.174630
C31	C	0.935427	-0.469177	-0.307631
C32	C	0.993791	-0.696682	-0.201979
C33	C	0.993771	-0.303440	-0.201938
C34	C	1.147264	-0.000064	-0.191197
C35	C	1.240533	-0.000063	-0.194113
C36	C	0.997857	-0.000057	0.067766
C37	C	0.994954	-0.000053	0.231541
N38	N	0.993794	0.219418	-0.201982
C39	C	0.989696	-0.000054	-0.471683
C40	C	0.992599	-0.000052	-0.635458
H41	H	0.458700	-0.000128	0.058756
N42	N	0.564106	-0.161245	-0.054949
H43	H	0.627229	-0.160926	-0.058317
H44	H	0.539397	-0.218632	-0.106278
H45	H	0.432819	-0.140518	-0.329768
N46	N	0.423412	0.161111	-0.348822
H47	H	0.437533	0.161722	-0.454971
H48	H	0.447236	0.218476	-0.296207
H49	H	0.528665	-0.000145	-0.462807
H50	H	0.554850	0.140241	-0.074042
N51	N	1.155627	-0.433129	-0.259888
H52	H	1.149760	-0.394583	-0.353381
H53	H	1.194560	-0.487128	-0.272768
H54	H	0.886067	-0.442218	-0.397025
H55	H	1.101539	-0.558093	-0.007161
N56	N	1.032035	-0.566731	-0.483860
H57	H	1.031937	-0.636762	-0.482940
H58	H	1.089477	-0.543617	-0.504659
N59	N	0.831999	-0.567010	-0.143960
H60	H	0.818483	-0.544578	-0.043484
H61	H	0.832550	-0.637033	-0.145251
N62	N	0.955693	-0.433208	0.079833
H63	H	0.999821	-0.455684	0.159512
H64	H	0.898459	-0.456682	0.101157
