data_functionalizedCrystal
_audit_creation_method	'MofGen! by Chris Wilmer'
_symmetry_space_group_name_H-M	'P1'
_symmetry_Int_Tables_number	1
_symmetry_cell_setting	triclinic
loop_
_symmetry_equiv_pos_as_xyz
  x,y,z
_cell_length_a	14.971482
_cell_length_b	11.792254
_cell_length_c	13.448316
_cell_angle_alpha	89.993237
_cell_angle_beta	89.993798
_cell_angle_gamma	83.905603
loop_
_atom_site_label
_atom_site_type_symbol
_atom_site_fract_x
_atom_site_fract_y
_atom_site_fract_z
O1	O	1.187547	0.147888	-0.082679
O2	O	1.687547	0.647888	0.417321
O3	O	0.927218	0.165605	-0.082684
O4	O	1.427218	0.665605	0.417316
O5	O	1.063694	-0.008464	-0.082675
O6	O	1.563694	0.491536	0.417325
O7	O	1.051071	0.321957	-0.082689
O8	O	1.551071	0.821957	0.417311
O9	O	1.063677	-0.008474	0.082709
O10	O	1.563677	0.491526	0.582709
O11	O	0.927201	0.165594	0.082700
O12	O	1.427201	0.665594	0.582700
O13	O	1.187530	0.147878	0.082704
O14	O	1.687530	0.647878	0.582704
Cu15	Cu	1.057364	0.156735	0.097803
Cu16	Cu	1.557364	0.656735	0.597803
Cu17	Cu	1.057384	0.156748	-0.097783
Cu18	Cu	1.557384	0.656748	0.402217
O19	O	1.051054	0.321946	0.082695
O20	O	1.551054	0.821946	0.582695
C21	C	0.893882	0.164808	0.000007
C22	C	1.393882	0.664808	0.500007
C23	C	0.794575	0.162436	0.000005
C24	C	1.294575	0.662436	0.500005
C25	C	0.747916	0.161313	0.090157
C26	C	1.247916	0.661313	0.590157
C27	C	0.654609	0.159066	0.090158
C28	C	1.154609	0.659066	0.590158
C29	C	0.607961	0.157950	0.000007
C30	C	1.107961	0.657950	0.500007
C31	C	0.654626	0.159070	-0.090152
C32	C	1.154626	0.659070	0.409848
C33	C	0.747933	0.161309	-0.090152
C34	C	1.247933	0.661309	0.409848
C35	C	0.460145	0.154407	-0.090146
C36	C	0.960145	0.654407	0.409854
C37	C	0.366832	0.152170	-0.090146
C38	C	0.866832	0.652170	0.409854
C39	C	0.366821	0.152164	0.090165
C40	C	0.866821	0.652164	0.590165
C41	C	0.460128	0.154402	0.090165
C42	C	0.960128	0.654402	0.590165
C43	C	0.506787	0.155524	0.000006
C44	C	1.006787	0.655524	0.500006
C45	C	1.062891	-0.050755	0.000017
C46	C	1.562891	0.449245	0.500017
C47	C	1.060510	-0.176752	0.000016
C48	C	1.560510	0.323248	0.500016
C49	C	1.058577	-0.279076	0.000012
C50	C	1.558577	0.220924	0.500012
C51	C	1.056159	-0.407447	0.000003
C52	C	1.556159	0.092553	0.500003
C53	C	1.220867	0.148675	0.000011
C54	C	1.720867	0.648675	0.500011
C55	C	1.320173	0.151047	0.000006
C56	C	1.820173	0.651047	0.500006
C57	C	1.051858	0.364237	0.000001
C58	C	1.551858	0.864237	0.500001
C59	C	1.054238	0.490235	-0.000005
C60	C	1.554238	0.990235	0.499995
N61	N	1.057356	0.156725	0.235367
N62	N	1.557356	0.656725	0.735367
N63	N	1.057399	0.156748	-0.235347
N64	N	1.557399	0.656748	0.264653
C65	C	1.117807	0.079679	0.287412
C66	C	1.617807	0.579679	0.787412
C67	C	1.117812	0.079679	0.391515
C68	C	1.617812	0.579679	0.891515
C69	C	1.057371	0.156730	0.443572
C70	C	1.557371	0.656730	0.943572
C71	C	0.996914	0.233779	0.391520
C72	C	1.496914	0.733779	0.891520
C73	C	0.996905	0.233774	0.287418
C74	C	1.496905	0.733774	0.787418
C75	C	0.996939	0.233787	0.608500
C76	C	1.496939	0.733787	1.108500
C77	C	0.996949	0.233794	0.712608
C78	C	1.496949	0.733794	1.212608
C79	C	1.117846	0.079692	0.712596
C80	C	1.617846	0.579692	1.212596
C81	C	1.117837	0.079686	0.608495
C82	C	1.617837	0.579686	1.108495
C83	C	1.057381	0.156738	0.556450
C84	C	1.557381	0.656738	1.056450
H85	H	0.616625	0.158133	0.163569
H86	H	1.116625	0.658133	0.663569
N87	N	0.319184	0.151026	0.182274
N88	N	0.819184	0.651026	0.682274
N89	N	0.321747	0.231221	0.242627
N90	N	0.821747	0.731221	0.742627
H91	H	0.288101	0.230424	0.307679
H92	H	0.788101	0.730424	0.807679
H93	H	0.947730	0.296536	0.754988
H94	H	1.447730	0.796536	1.254988
H95	H	0.947678	0.296511	0.245045
H96	H	1.447678	0.796511	0.745045
H97	H	0.947697	0.296512	0.433910
H98	H	1.447697	0.796512	0.933910
N99	N	0.795577	0.162440	0.182238
N100	N	1.295577	0.662440	0.682238
N101	N	0.878886	0.164436	0.182229
N102	N	1.378886	0.664436	0.682229
H103	H	0.912546	0.165227	0.247264
H104	H	1.412546	0.665227	0.747264
N105	N	1.179585	0.000945	0.765734
N106	N	1.679585	0.500945	1.265734
N107	N	1.177837	-0.103960	0.754094
N108	N	1.677837	0.396040	1.254094
H109	H	1.221440	-0.159579	0.791619
H110	H	1.721440	0.340421	1.291619
N111	N	0.935188	0.312511	0.555351
N112	N	1.435188	0.812511	1.055351
N113	N	0.936928	0.417420	0.566965
N114	N	1.436928	0.917420	1.066965
H115	H	0.893321	0.473023	0.529428
H116	H	1.393321	0.973023	1.029428
H117	H	1.167035	0.016941	0.433889
H118	H	1.667035	0.516941	0.933889
N119	N	1.179576	0.001023	0.555278
N120	N	1.679576	0.501023	1.055278
N121	N	1.235239	0.037195	0.497166
N122	N	1.735239	0.537195	0.997166
H123	H	1.278842	-0.018353	0.459570
H124	H	1.778842	0.481647	0.959570
N125	N	0.795611	0.162448	-0.182231
N126	N	1.295611	0.662448	0.317769
N127	N	0.855538	0.083752	-0.202337
N128	N	1.355538	0.583752	0.297663
H129	H	0.889212	0.084551	-0.267370
H130	H	1.389212	0.584551	0.232630
H131	H	0.498106	0.155318	0.163574
H132	H	0.998106	0.655318	0.663574
N133	N	0.606981	0.157905	-0.182240
N134	N	1.106981	0.657905	0.317760
N135	N	0.562777	0.076713	-0.202349
N136	N	1.062777	0.576713	0.297651
H137	H	0.529128	0.075891	-0.267389
H138	H	1.029128	0.575891	0.232611
H139	H	0.328854	0.151262	-0.163555
H140	H	0.828854	0.651262	0.336445
H141	H	1.167029	0.016940	0.245034
H142	H	1.667029	0.516940	0.745034
N143	N	0.507795	0.155541	-0.182249
N144	N	1.007795	0.655541	0.317751
N145	N	0.466137	0.154546	-0.262736
N146	N	0.966137	0.654546	0.237264
H147	H	0.499788	0.155350	-0.327783
H148	H	0.999788	0.655350	0.172217
