data_functionalizedCrystal
_audit_creation_method	'MofGen! by Chris Wilmer'
_symmetry_space_group_name_H-M	'P1'
_symmetry_Int_Tables_number	1
_symmetry_cell_setting	triclinic
loop_
_symmetry_equiv_pos_as_xyz
  x,y,z
_cell_length_a	12.784905
_cell_length_b	12.837942
_cell_length_c	15.455313
_cell_angle_alpha	92.949088
_cell_angle_beta	87.600067
_cell_angle_gamma	83.968130
loop_
_atom_site_label
_atom_site_type_symbol
_atom_site_fract_x
_atom_site_fract_y
_atom_site_fract_z
O1	O	1.415129	0.001526	-0.072136
O2	O	1.915129	0.501526	0.427864
O3	O	1.110129	0.045518	-0.072136
O4	O	1.610129	0.545518	0.427864
O5	O	1.255866	-0.126770	-0.072131
O6	O	1.755866	0.373230	0.427869
O7	O	1.269392	0.173815	-0.072141
O8	O	1.769392	0.673815	0.427859
O9	O	1.247528	-0.116955	0.072131
O10	O	1.747528	0.383045	0.572131
O11	O	1.101792	0.055334	0.072125
O12	O	1.601792	0.555334	0.572125
O13	O	1.406791	0.011341	0.072126
O14	O	1.906791	0.511341	0.572126
Cu15	Cu	1.253530	0.034234	0.085298
Cu16	Cu	1.753530	0.534234	0.585298
Cu17	Cu	1.263390	0.022626	-0.085308
Cu18	Cu	1.763390	0.522626	0.414692
O19	O	1.261055	0.183630	0.072120
O20	O	1.761055	0.683630	0.572120
C21	C	1.066651	0.053287	-0.000006
C22	C	1.566651	0.553287	0.499994
C23	C	0.949519	0.061800	-0.000006
C24	C	1.449519	0.561800	0.499994
C25	C	0.735569	-0.111643	-0.000015
C26	C	1.235569	0.388357	0.499985
C27	C	0.625514	-0.103649	-0.000015
C28	C	1.125514	0.396351	0.499985
C29	C	0.619352	0.085780	-0.000012
C30	C	1.119352	0.585780	0.499988
C31	C	0.729407	0.077786	-0.000012
C32	C	1.229407	0.577786	0.499988
C33	C	0.787512	-0.020929	-0.000012
C34	C	1.287512	0.479071	0.499988
C35	C	0.897569	-0.028921	-0.000006
C36	C	1.397569	0.471079	0.499994
C37	C	0.891405	0.160507	-0.000009
C38	C	1.391405	0.660507	0.499991
C39	C	0.781350	0.168501	-0.000009
C40	C	1.281350	0.668501	0.499991
C41	C	1.247128	-0.160072	-0.000000
C42	C	1.747128	0.339928	0.500000
C43	C	1.233500	-0.273920	-0.000002
C44	C	1.733500	0.226080	0.499998
C45	C	1.397332	-0.529648	-0.000020
C46	C	1.897332	-0.029648	0.499980
C47	C	1.384533	-0.636620	-0.000021
C48	C	1.884533	-0.136620	0.499979
C49	C	1.195102	-0.594840	-0.000012
C50	C	1.695102	-0.094840	0.499988
C51	C	1.207902	-0.487867	-0.000011
C52	C	1.707902	0.012133	0.499989
C53	C	1.309020	-0.455276	-0.000013
C54	C	1.809020	0.044724	0.499987
C55	C	1.321818	-0.348301	-0.000006
C56	C	1.821818	0.151699	0.499994
C57	C	1.132389	-0.306524	-0.000003
C58	C	1.632389	0.193476	0.499997
C59	C	1.119590	-0.413496	-0.000005
C60	C	1.619590	0.086504	0.499995
C61	C	1.450270	0.003573	-0.000007
C62	C	1.950270	0.503573	0.499993
C63	C	1.567401	-0.004941	-0.000012
C64	C	2.067401	0.495059	0.499988
C65	C	1.269793	0.216931	-0.000012
C66	C	1.769793	0.716931	0.499988
C67	C	1.283421	0.330780	-0.000016
C68	C	1.783421	0.830780	0.499984
N69	N	1.246603	0.042396	0.205293
N70	N	1.746603	0.542396	0.705293
N71	N	1.270325	0.014455	-0.205304
N72	N	1.770325	0.514455	0.294696
C73	C	1.308543	-0.030775	0.250690
C74	C	1.808543	0.469225	0.750690
C75	C	1.303315	-0.024594	0.341497
C76	C	1.803315	0.475406	0.841497
C77	C	1.236151	0.054765	0.386907
C78	C	1.736151	0.554765	0.886907
C79	C	1.174204	0.127941	0.341504
C80	C	1.674204	0.627941	0.841504
C81	C	1.179427	0.121754	0.250698
C82	C	1.679427	0.621754	0.750698
C83	C	1.213602	0.081443	0.658487
C84	C	1.713602	0.581443	1.158487
C85	C	1.208385	0.087626	0.749300
C86	C	1.708385	0.587626	1.249300
C87	C	1.337495	-0.064910	0.749287
C88	C	1.837495	0.435090	1.249287
C89	C	1.342717	-0.071086	0.658479
C90	C	1.842717	0.428914	1.158479
C91	C	1.280766	0.002086	0.613084
C92	C	1.780766	0.502086	1.113084
N93	N	1.230807	0.061088	0.479727
N94	N	1.730807	0.561088	0.979727
N95	N	1.286105	-0.004242	0.520266
N96	N	1.786105	0.495758	1.020266
H97	H	0.933709	0.234374	-0.000002
H98	H	1.433709	0.734374	0.499998
Cl99	Cl	1.067995	-0.635834	-0.000035
Cl100	Cl	1.567995	-0.135834	0.499965
Cl101	Cl	1.427154	-0.170851	0.601393
Cl102	Cl	1.927154	0.329149	1.101393
H103	H	1.387932	-0.124484	0.786256
H104	H	1.887932	0.375516	1.286256
Cl105	Cl	0.970614	-0.153018	-0.000004
Cl106	Cl	1.470614	0.346982	0.499996
H107	H	1.479666	-0.503111	-0.000013
H108	H	1.979666	-0.003111	0.499987
Cl109	Cl	1.495559	-0.730114	-0.000032
Cl110	Cl	1.995559	-0.230114	0.499968
H111	H	1.037262	-0.440048	-0.000006
H112	H	1.537262	0.059952	0.499994
H113	H	0.782879	-0.192020	-0.000009
H114	H	1.282879	0.307980	0.499991
Cl115	Cl	0.708295	0.292592	-0.000014
Cl116	Cl	1.208295	0.792592	0.499986
Cl117	Cl	1.392987	-0.130542	0.193613
Cl118	Cl	1.892987	0.369458	0.693613
Cl119	Cl	1.381182	-0.116584	0.398569
Cl120	Cl	1.881182	0.383416	0.898569
H121	H	0.583226	-0.177519	-0.000019
H122	H	1.083226	0.322481	0.499981
H123	H	0.572025	0.166148	-0.000024
H124	H	1.072025	0.666148	0.499976
Cl125	Cl	1.123944	0.187403	0.806380
Cl126	Cl	1.623944	0.687403	1.306380
Cl127	Cl	1.448936	-0.307329	-0.000003
Cl128	Cl	1.948936	0.192671	0.499997
Cl129	Cl	1.135727	0.173432	0.601426
Cl130	Cl	1.635727	0.673432	1.101426
Cl131	Cl	1.089762	0.227704	0.398588
Cl132	Cl	1.589762	0.727704	0.898588
H133	H	1.060479	-0.245957	0.000009
H134	H	1.560479	0.254043	0.500009
H135	H	1.128987	0.181337	0.213737
H136	H	1.628987	0.681337	0.713737
