data_functionalizedCrystal
_audit_creation_method	'MofGen! by Chris Wilmer'
_symmetry_space_group_name_H-M	'P1'
_symmetry_Int_Tables_number	1
_symmetry_cell_setting	triclinic
loop_
_symmetry_equiv_pos_as_xyz
  x,y,z
_cell_length_a	10.654541
_cell_length_b	17.038272
_cell_length_c	9.730217
_cell_angle_alpha	89.996329
_cell_angle_beta	89.999932
_cell_angle_gamma	87.797742
loop_
_atom_site_label
_atom_site_type_symbol
_atom_site_fract_x
_atom_site_fract_y
_atom_site_fract_z
O1	O	1.678040	0.109868	-0.114249
O2	O	2.178040	0.609868	0.385751
O3	O	1.313533	0.120338	-0.114261
O4	O	1.813533	0.620338	0.385739
O5	O	1.493620	0.001275	-0.114245
O6	O	1.993620	0.501275	0.385755
O7	O	1.497953	0.228930	-0.114266
O8	O	1.997953	0.728930	0.385734
O9	O	1.493614	0.001274	0.114336
O10	O	1.993614	0.501274	0.614336
O11	O	1.313527	0.120337	0.114319
O12	O	1.813527	0.620337	0.614319
O13	O	1.678034	0.109867	0.114331
O14	O	2.178034	0.609867	0.614331
Zn15	Zn	1.495780	0.115102	0.150617
Zn16	Zn	1.995780	0.615102	0.650617
Zn17	Zn	1.495788	0.115103	-0.150547
Zn18	Zn	1.995788	0.615103	0.349453
O19	O	1.497947	0.228929	0.114314
O20	O	1.997947	0.728929	0.614314
C21	C	1.266661	0.119569	0.000027
C22	C	1.766661	0.619569	0.500027
C23	C	1.127004	0.117270	0.000023
C24	C	1.627004	0.617270	0.500023
C25	C	1.112253	0.259642	-0.000008
C26	C	1.612253	0.759642	0.499992
C27	C	1.039268	0.329744	-0.000029
C28	C	1.539268	0.829744	0.499971
C29	C	0.908049	0.327580	-0.000030
C30	C	1.408049	0.827580	0.499970
C31	C	0.849813	0.255304	-0.000006
C32	C	1.349813	0.755304	0.499994
C33	C	0.922798	0.185202	0.000015
C34	C	1.422798	0.685202	0.500015
C35	C	1.054019	0.187374	0.000012
C36	C	1.554019	0.687374	0.500012
C37	C	0.937548	0.042832	0.000055
C38	C	1.437548	0.542832	0.500055
C39	C	1.068768	0.044995	0.000047
C40	C	1.568768	0.544995	0.500047
C41	C	0.879312	-0.029443	0.000079
C42	C	1.379312	0.470557	0.500079
C43	C	0.952297	-0.099548	0.000090
C44	C	1.452297	0.400452	0.500090
C45	C	1.083524	-0.097380	0.000090
C46	C	1.583524	0.402620	0.500090
C47	C	1.141753	-0.025108	0.000067
C48	C	1.641753	0.474892	0.500067
C49	C	1.489677	-0.027875	0.000045
C50	C	1.989677	0.472125	0.500045
C51	C	1.477920	-0.114734	0.000044
C52	C	1.977920	0.385266	0.500044
C53	C	1.585864	-0.164246	0.000049
C54	C	2.085864	0.335754	0.500049
C55	C	1.574809	-0.245858	0.000036
C56	C	2.074809	0.254142	0.500036
C57	C	1.455809	-0.277957	0.000027
C58	C	1.955809	0.222043	0.500027
C59	C	1.347857	-0.228439	0.000018
C60	C	1.847857	0.271561	0.500018
C61	C	1.358913	-0.146828	0.000022
C62	C	1.858913	0.353172	0.500022
C63	C	1.416751	-0.523933	0.000007
C64	C	1.916751	-0.023933	0.500007
C65	C	1.405704	-0.605550	0.000008
C66	C	1.905704	-0.105550	0.500008
C67	C	1.632657	-0.622963	0.000023
C68	C	2.132657	-0.122963	0.500023
C69	C	1.643703	-0.541350	0.000035
C70	C	2.143703	-0.041350	0.500035
C71	C	1.535750	-0.491839	0.000018
C72	C	2.035750	0.008161	0.500018
C73	C	1.444507	-0.361377	0.000018
C74	C	1.944507	0.138623	0.500018
C75	C	1.547054	-0.408420	0.000018
C76	C	2.047054	0.091580	0.500018
C77	C	1.724907	0.110635	0.000039
C78	C	2.224907	0.610635	0.500039
C79	C	1.864564	0.112934	0.000034
C80	C	2.364564	0.612934	0.500034
C81	C	1.501891	0.258080	0.000021
C82	C	2.001891	0.758080	0.500021
C83	C	1.513648	0.344939	0.000013
C84	C	2.013648	0.844939	0.500013
N85	N	1.495784	0.115100	0.356153
N86	N	1.995784	0.615100	0.856153
N87	N	1.495793	0.115098	-0.356084
N88	N	1.995793	0.615098	0.143916
C89	C	1.655323	0.009701	0.356159
C90	C	2.155323	0.509701	0.856159
C91	C	1.735102	-0.042996	0.428101
C92	C	2.235102	0.457004	0.928101
C93	C	1.735115	-0.042997	0.571981
C94	C	2.235115	0.457003	1.071981
C95	C	1.655338	0.009704	0.643922
C96	C	2.155338	0.509704	1.143922
C97	C	1.575559	0.062402	0.571979
C98	C	2.075559	0.562402	1.071979
C99	C	1.575558	0.062398	0.428096
C100	C	2.075558	0.562398	0.928096
C101	C	1.416015	0.167796	0.571973
C102	C	1.916015	0.667796	1.071973
C103	C	1.416007	0.167801	0.428094
C104	C	1.916007	0.667801	0.928094
C105	C	1.336238	0.220496	0.643914
C106	C	1.836238	0.720496	1.143914
C107	C	1.256464	0.273199	0.571971
C108	C	1.756464	0.773199	1.071971
C109	C	1.256455	0.273198	0.428083
C110	C	1.756455	0.773198	0.928083
C111	C	1.336228	0.220498	0.356151
C112	C	1.836228	0.720498	0.856151
H113	H	0.742967	0.253548	0.000010
H114	H	1.242967	0.753548	0.500010
F115	F	0.830371	0.402190	-0.000040
F116	F	1.330371	0.902190	0.499960
H117	H	1.655332	0.009703	0.239004
H118	H	2.155332	0.509703	0.739004
H119	H	0.772466	-0.031201	0.000086
H120	H	1.272466	0.468799	0.500086
F121	F	0.890311	-0.176459	0.000126
F122	F	1.390311	0.323541	0.500126
H123	H	1.250964	-0.254580	0.000003
H124	H	1.750964	0.245420	0.500003
F125	F	1.161191	-0.171994	0.000122
F126	F	1.661191	0.328006	0.500122
F127	F	1.244023	-0.094134	0.000012
F128	F	1.744023	0.405866	0.500012
H129	H	1.308795	-0.631681	0.000023
H130	H	1.808795	-0.131681	0.500023
F131	F	1.673698	-0.374257	0.000019
F132	F	2.173698	0.125743	0.500019
F133	F	1.281407	-0.022794	0.000059
F134	F	1.781407	0.477206	0.500059
H135	H	1.682766	-0.138118	0.000065
H136	H	2.182766	0.361882	0.500065
F137	F	1.101256	0.406661	-0.000054
F138	F	1.601256	0.906661	0.499946
H139	H	1.328848	-0.483630	-0.000006
H140	H	1.828848	0.016370	0.499994
H141	H	1.347616	-0.387521	0.000014
H142	H	1.847616	0.112479	0.500014
F143	F	1.689700	-0.298549	0.000044
F144	F	2.189700	0.201451	0.500044
F145	F	1.336245	0.220492	0.797044
F146	F	1.836245	0.720492	1.297044
H147	H	1.740605	-0.515222	0.000042
H148	H	2.240605	-0.015222	0.500042
H149	H	1.219098	0.261412	-0.000037
H150	H	1.719098	0.761412	0.499963
F151	F	1.171535	0.329283	0.351527
F152	F	1.671535	0.829283	0.851527
F153	F	1.747539	-0.675662	0.000039
F154	F	2.247539	-0.175662	0.500039
F155	F	1.819999	-0.099085	0.351531
F156	F	2.319999	0.400915	0.851531
F157	F	1.820017	-0.099086	0.648549
F158	F	2.320017	0.400914	1.148549
H159	H	1.655342	0.009694	0.761076
H160	H	2.155342	0.509694	1.261076
F161	F	1.171561	0.329276	0.648540
F162	F	1.671561	0.829276	1.148540
F163	F	1.336232	0.220495	0.203021
F164	F	1.836232	0.720495	0.703021
