data_functionalizedCrystal
_audit_creation_method	'MofGen! by Chris Wilmer'
_symmetry_space_group_name_H-M	'P1'
_symmetry_Int_Tables_number	1
_symmetry_cell_setting	triclinic
loop_
_symmetry_equiv_pos_as_xyz
  x,y,z
_cell_length_a	16.120530
_cell_length_b	18.101397
_cell_length_c	16.120297
_cell_angle_alpha	87.130973
_cell_angle_beta	89.871860
_cell_angle_gamma	87.115827
loop_
_atom_site_label
_atom_site_type_symbol
_atom_site_fract_x
_atom_site_fract_y
_atom_site_fract_z
Zn1	Zn	1.247464	-0.375192	0.534538
Zn2	Zn	1.254422	-0.493085	0.395472
Zn3	Zn	1.115454	-0.362678	0.388457
Zn4	Zn	1.108379	-0.492403	0.527442
O5	O	1.181430	-0.430840	0.461477
O6	O	1.364754	-0.396354	0.521997
O7	O	1.241861	-0.470835	0.278177
O8	O	1.133014	-0.260709	0.407869
O9	O	1.369866	-0.482969	0.419826
O10	O	1.230001	-0.269903	0.515194
O11	O	1.139761	-0.375025	0.273023
O12	O	0.998148	-0.374364	0.400988
O13	O	1.120956	-0.481807	0.644748
O14	O	0.992950	-0.469672	0.503099
O15	O	1.223141	-0.395692	0.649962
O16	O	1.235000	-0.596624	0.412944
O17	O	1.127703	-0.596123	0.509902
C18	C	0.965377	-0.420587	0.450513
C19	C	0.872948	-0.416219	0.445842
C20	C	1.181360	-0.623245	0.461434
C21	C	1.181406	-0.705562	0.461446
C22	C	0.703717	-0.408228	0.437321
C23	C	0.659979	-0.453509	0.485695
C24	C	0.565814	-0.449063	0.480954
C25	C	0.797891	-0.412673	0.442061
C26	C	1.181508	-1.004661	0.461528
C27	C	1.248846	-0.973605	0.400344
C28	C	1.249060	-0.888004	0.400522
C29	C	1.181457	-0.856275	0.461487
C30	C	1.200770	-0.892157	0.550340
C31	C	1.201283	-0.977810	0.550014
C32	C	1.094648	-0.968039	0.434609
C33	C	1.095182	-0.882327	0.432674
C34	C	1.181427	-0.772413	0.461469
C35	C	1.181540	-1.088523	0.461552
C36	C	1.398326	-0.441134	0.472485
C37	C	1.490754	-0.445520	0.477176
C38	C	1.170483	-0.440070	0.678371
C39	C	1.165818	-0.444003	0.770798
C40	C	1.181521	-0.237685	0.461541
C41	C	1.181560	-0.155374	0.461568
C42	C	1.192381	-0.421595	0.245430
C43	C	1.197207	-0.417461	0.153012
C44	C	1.157271	-0.451166	0.940022
C45	C	1.205752	-0.410300	0.983793
C46	C	1.200996	-0.414285	1.077955
C47	C	1.162026	-0.447181	0.845851
H48	H	0.693254	-0.495614	0.530670
H49	H	1.044530	-0.988050	0.479117
O50	O	1.097566	-0.501473	0.984055
H51	H	1.062778	-0.530796	0.937467
O52	O	1.333734	-1.006938	0.424152
H53	H	1.380799	-0.984650	0.380572
O54	O	0.659653	-0.352477	0.377722
H55	H	0.591536	-0.357708	0.383291
O56	O	1.233755	-0.855613	0.313437
H57	H	1.226136	-0.901090	0.270815
O58	O	1.234272	-0.996950	0.313163
H59	H	1.178814	-1.030856	0.312485
H60	H	1.313491	-0.871185	0.418685
H61	H	1.264642	-1.001591	0.572299
H62	H	1.250829	-0.372319	0.950548
H63	H	1.042670	-0.860418	0.473617
O64	O	1.138825	-1.005294	0.612774
H65	H	1.155874	-0.988202	0.675414
O66	O	1.137546	-0.865142	0.612614
H67	H	1.091580	-0.825757	0.580819
H68	H	1.263392	-0.874491	0.572910
O69	O	1.070240	-0.991799	0.349958
H70	H	1.066565	-1.052925	0.351780
H71	H	1.080539	-0.858460	0.367264
