data_functionalizedCrystal
_audit_creation_method	'MofGen! by Chris Wilmer'
_symmetry_space_group_name_H-M	'P1'
_symmetry_Int_Tables_number	1
_symmetry_cell_setting	triclinic
loop_
_symmetry_equiv_pos_as_xyz
  x,y,z
_cell_length_a	23.532355
_cell_length_b	23.532357
_cell_length_c	14.421503
_cell_angle_alpha	89.998741
_cell_angle_beta	89.998245
_cell_angle_gamma	82.827896
loop_
_atom_site_label
_atom_site_type_symbol
_atom_site_fract_x
_atom_site_fract_y
_atom_site_fract_z
O1	O	0.755270	0.068988	-0.076997
O2	O	0.589400	0.079022	-0.077028
O3	O	0.677352	-0.008930	-0.076992
O4	O	0.667319	0.156940	-0.077032
O5	O	0.677337	-0.008916	0.077231
O6	O	0.589386	0.079035	0.077196
O7	O	0.755255	0.069001	0.077227
Cu8	Cu	0.672319	0.074019	0.091293
Cu9	Cu	0.672336	0.074004	-0.091094
O10	O	0.667304	0.156953	0.077191
C11	C	0.568177	0.078778	0.000080
C12	C	0.504958	0.078024	0.000069
C13	C	0.112937	0.073293	0.084176
C14	C	0.053538	0.072575	0.084180
O15	O	0.022813	0.072191	0.155675
N16	N	0.023837	0.072212	0.000113
C17	C	0.053540	0.072561	-0.083963
O18	O	0.022823	0.072186	-0.155468
C19	C	0.112939	0.073275	-0.083965
C20	C	0.142636	0.073643	0.000107
C21	C	0.142634	0.073661	0.168242
C22	C	0.202029	0.074379	0.168238
C23	C	0.231727	0.074730	0.084168
C24	C	0.202031	0.074362	0.000103
C25	C	0.142641	0.073619	-0.168040
C26	C	0.202044	0.074332	-0.168036
C27	C	0.231741	0.074701	-0.083964
C28	C	0.291124	0.075431	-0.083971
N29	N	0.320824	0.075794	0.000096
C30	C	0.291126	0.075443	0.084165
C31	C	-0.071201	0.071062	-0.083950
C32	C	-0.130599	0.070353	-0.083949
C33	C	-0.130597	0.070366	0.084195
C34	C	-0.071199	0.071079	0.084192
C35	C	-0.041501	0.071425	0.000116
C36	C	0.415860	0.076953	0.084151
C37	C	0.475260	0.077673	0.084139
C38	C	0.475253	0.077657	-0.084004
C39	C	0.415858	0.076939	-0.083993
C40	C	0.386163	0.076585	0.000092
O41	O	0.321887	0.075813	-0.155429
O42	O	0.321851	0.075811	0.155658
C43	C	0.677094	-0.030140	0.000122
C44	C	0.676339	-0.093358	0.000131
C45	C	0.671610	-0.485376	-0.083987
C46	C	0.670893	-0.544775	-0.083993
O47	O	0.670509	-0.575497	-0.155489
N48	N	0.670529	-0.574479	0.000073
C49	C	0.670877	-0.544780	0.084150
O50	O	0.670501	-0.575499	0.155654
C51	C	0.671590	-0.485381	0.084155
C52	C	0.671960	-0.455681	0.000083
C53	C	0.671979	-0.455675	-0.168052
C54	C	0.672697	-0.396280	-0.168046
C55	C	0.673047	-0.366585	-0.083976
C56	C	0.672678	-0.396286	0.000089
C57	C	0.671934	-0.455682	0.168231
C58	C	0.672647	-0.396279	0.168228
C59	C	0.673016	-0.366579	0.084156
C60	C	0.673746	-0.307196	0.084165
N61	N	0.674109	-0.277492	0.000099
C62	C	0.673760	-0.307187	-0.083971
C63	C	0.669378	-0.669521	0.084134
C64	C	0.668669	-0.728919	0.084131
C65	C	0.668684	-0.728910	-0.084012
C66	C	0.669397	-0.669511	-0.084008
C67	C	0.669742	-0.639817	0.000069
C68	C	0.675269	-0.182453	-0.083953
C69	C	0.675989	-0.123053	-0.083939
C70	C	0.675972	-0.123067	0.084203
C71	C	0.675254	-0.182462	0.084191
C72	C	0.674901	-0.212153	0.000105
O73	O	0.674127	-0.276435	0.155625
O74	O	0.674128	-0.276459	-0.155463
C75	C	0.776479	0.069245	0.000117
C76	C	0.839698	0.069999	0.000122
C77	C	0.667562	0.178163	0.000075
C78	C	0.668317	0.241381	0.000060
N79	N	0.672311	0.074030	0.219574
N80	N	0.672349	0.073989	-0.219375
C81	C	0.631636	0.114681	0.469212
C82	C	0.683034	0.125434	0.531021
C83	C	0.672325	0.074016	0.408736
C84	C	0.620940	0.063276	0.531020
C85	C	0.672334	0.074004	0.591457
C86	C	0.723750	0.084795	0.469184
C87	C	0.661622	0.022615	0.469178
C88	C	0.713057	0.033346	0.530960
C89	C	0.672319	0.074025	0.303475
C90	C	0.672346	0.073996	0.696716
H91	H	0.226221	0.074614	-0.236502
H92	H	0.672996	-0.372103	-0.236506
H93	H	0.671692	-0.479846	-0.236516
H94	H	0.597260	0.149097	0.442100
H95	H	0.391689	0.076669	0.152620
H96	H	0.499444	0.077945	-0.152451
H97	H	0.652544	-0.020835	0.441993
H98	H	0.692096	0.168898	0.558185
H99	H	0.767218	0.093926	0.442136
H100	H	0.747509	-0.001050	0.557901
H101	H	0.226203	0.074676	0.236698
H102	H	0.118472	0.073318	-0.236501
H103	H	0.674958	-0.206646	0.152648
H104	H	0.577480	0.054197	0.558185
H105	H	0.676259	-0.098879	0.152651
H106	H	0.676292	-0.098874	-0.152403
H107	H	0.499436	0.077976	0.152604
H108	H	0.118460	0.073374	0.236705
H109	H	0.391676	0.076649	-0.152451
H110	H	-0.047024	0.071380	0.152651
H111	H	0.672919	-0.372104	0.236695
H112	H	-0.154788	0.070080	0.152649
H113	H	-0.154775	0.070062	-0.152409
H114	H	-0.047025	0.071349	-0.152419
H115	H	0.674978	-0.206620	-0.152423
H116	H	0.668377	-0.753097	0.152591
H117	H	0.668398	-0.753098	-0.152467
H118	H	0.669697	-0.645333	-0.152466
H119	H	0.671634	-0.479854	0.236691
H120	H	0.669661	-0.645348	0.152604
