data_functionalizedCrystal
_audit_creation_method	'MofGen! by Chris Wilmer'
_symmetry_space_group_name_H-M	'P1'
_symmetry_Int_Tables_number	1
_symmetry_cell_setting	triclinic
loop_
_symmetry_equiv_pos_as_xyz
  x,y,z
_cell_length_a	19.288840
_cell_length_b	19.288865
_cell_length_c	9.130313
_cell_angle_alpha	89.990258
_cell_angle_beta	89.989255
_cell_angle_gamma	83.131131
loop_
_atom_site_label
_atom_site_type_symbol
_atom_site_fract_x
_atom_site_fract_y
_atom_site_fract_z
O1	O	0.921358	0.086565	-0.122061
O2	O	0.719095	0.098272	-0.122012
O3	O	0.826071	-0.008713	-0.122009
O4	O	0.814382	0.193549	-0.122064
O5	O	0.826064	-0.008716	0.121590
O6	O	0.719088	0.098269	0.121587
O7	O	0.921351	0.086562	0.121538
Cu8	Cu	0.820219	0.092415	0.143805
Cu9	Cu	0.820228	0.092418	-0.144279
O10	O	0.814375	0.193546	0.121535
C11	C	0.693215	0.097896	-0.000206
C12	C	0.616110	0.096774	-0.000186
C13	C	0.579911	0.096237	-0.132976
C14	C	0.507464	0.095175	-0.132993
C15	C	0.471221	0.094636	-0.000214
C16	C	0.507429	0.095178	0.132593
C17	C	0.579874	0.096247	0.132607
C18	C	0.361891	0.052257	0.101505
C19	C	0.289448	0.051184	0.101485
C20	C	0.247778	0.091342	-0.000251
C21	C	0.278560	0.132565	-0.101993
C22	C	0.351005	0.133634	-0.101979
C23	C	0.392667	0.093477	-0.000214
C24	C	0.133023	0.089654	-0.133069
C25	C	0.060574	0.088596	-0.133081
C26	C	0.060541	0.088592	0.132509
C27	C	0.132988	0.089657	0.132517
C28	C	0.169225	0.090185	-0.000276
C29	C	0.825692	-0.034591	-0.000205
C30	C	0.824563	-0.111694	-0.000192
C31	C	0.887331	-0.156396	-0.000200
C32	C	0.886270	-0.228843	-0.000223
C33	C	0.822438	-0.256585	-0.000208
C34	C	0.759661	-0.211873	-0.000209
C35	C	0.760723	-0.139428	-0.000200
C36	C	0.772255	-0.364869	0.085131
C37	C	0.771195	-0.437313	0.085132
C38	C	0.819158	-0.480030	-0.000240
C39	C	0.868192	-0.450295	-0.085594
C40	C	0.869255	-0.377850	-0.085586
C41	C	0.821278	-0.335139	-0.000218
C42	C	0.880781	-0.603288	-0.000275
C43	C	0.879717	-0.675736	-0.000307
C44	C	0.753106	-0.658764	-0.000278
C45	C	0.754171	-0.586318	-0.000261
C46	C	0.818010	-0.558584	-0.000252
C47	C	0.947232	0.086937	-0.000271
C48	C	1.024336	0.088059	-0.000300
C49	C	0.814755	0.219424	-0.000272
C50	C	0.815884	0.296527	-0.000295
N51	N	0.820218	0.092412	0.346428
N52	N	0.820234	0.092416	-0.346902
C53	C	0.867603	0.045059	0.423081
C54	C	0.867609	0.045059	0.576418
C55	C	0.772844	0.139771	0.576434
C56	C	0.772835	0.139767	0.423100
H57	H	0.477915	0.094741	0.240703
H58	H	0.909179	-0.353643	-0.155087
F59	F	0.687363	-0.538741	-0.000247
H60	H	0.701132	-0.681351	-0.000274
F61	F	0.691725	-0.241399	-0.000203
H62	H	0.734245	0.178328	0.360685
H63	H	0.395813	0.019554	0.184358
F64	F	0.022047	0.088030	-0.274422
F65	F	0.721204	-0.319412	0.176005
H66	H	0.906184	0.006498	0.360658
F67	F	0.468930	0.094603	-0.274331
H68	H	0.709608	-0.103031	-0.000193
F69	F	0.918041	-0.005342	0.657993
H70	H	0.937386	-0.265246	-0.000235
H71	H	0.609410	0.096667	-0.241106
H72	H	0.376065	0.167200	-0.184818
F73	F	0.618401	0.096819	0.273946
F74	F	0.021973	0.088025	0.273824
F75	F	0.955275	-0.126884	-0.000222
H76	H	0.734267	0.178328	0.638877
H77	H	0.244633	0.165268	-0.184832
H78	H	0.162527	0.090091	-0.241197
F79	F	0.256692	0.007324	0.209788
F80	F	0.171516	0.090225	0.273852
H81	H	0.907248	-0.485074	-0.155113
F82	F	0.948723	-0.573769	-0.000259
H83	H	0.930833	-0.712132	-0.000321
F84	F	0.719011	-0.468953	0.175978
