data_functionalizedCrystal
_audit_creation_method	'MofGen! by Chris Wilmer'
_symmetry_space_group_name_H-M	'P1'
_symmetry_Int_Tables_number	1
_symmetry_cell_setting	triclinic
loop_
_symmetry_equiv_pos_as_xyz
  x,y,z
_cell_length_a	15.995350
_cell_length_b	18.266242
_cell_length_c	15.995350
_cell_angle_alpha	90.002894
_cell_angle_beta	83.492375
_cell_angle_gamma	90.005295
loop_
_atom_site_label
_atom_site_type_symbol
_atom_site_fract_x
_atom_site_fract_y
_atom_site_fract_z
O1	O	1.110991	0.060815	0.107926
O2	O	0.867216	0.060830	0.121254
O3	O	0.995767	0.060821	-0.007297
O4	O	0.982440	0.060824	0.236478
O5	O	0.995745	-0.060940	-0.007301
O6	O	0.867194	-0.060932	0.121250
O7	O	1.110969	-0.060947	0.107923
Zn8	Zn	0.989078	-0.080272	0.114586
Zn9	Zn	0.989107	0.080155	0.114591
O10	O	0.982418	-0.060938	0.236474
C11	C	0.836010	-0.000049	0.120701
C12	C	0.743060	-0.000043	0.119049
N13	N	0.989064	-0.189759	0.114582
C14	C	0.405312	-0.000059	0.113117
C15	C	0.452746	-0.000331	0.021565
C16	C	0.549436	-0.000052	0.023217
C17	C	0.572873	-0.000052	0.116060
C18	C	0.531798	0.069478	0.161218
C19	C	0.435162	0.069531	0.158918
C20	C	0.434798	-0.068935	0.160806
C21	C	0.531744	-0.069849	0.160784
C22	C	0.667570	-0.000045	0.117727
C23	C	0.310614	-0.000060	0.111452
C24	C	1.039838	-0.228064	0.165399
C25	C	1.039852	-0.304709	0.165397
C26	C	0.989076	-0.343046	0.114587
C27	C	0.938300	-0.304731	0.063760
C28	C	0.938294	-0.228087	0.063757
N29	N	0.915740	-0.463394	0.112301
N30	N	0.915748	-0.536202	0.112308
C31	C	0.989093	-0.573968	0.114590
N32	N	1.062431	-0.536176	0.116882
N33	N	1.062422	-0.463361	0.116879
C34	C	0.989078	-0.426153	0.114584
C35	C	1.039886	-0.695381	0.165407
C36	C	1.039902	-0.772027	0.165399
C37	C	0.938342	-0.772047	0.063767
C38	C	0.938334	-0.695402	0.063771
C39	C	0.989105	-0.657074	0.114595
C40	C	1.142175	-0.000066	0.108476
C41	C	1.235125	-0.000067	0.110127
C42	C	0.995205	-0.000058	-0.038494
C43	C	0.993553	-0.000054	-0.131444
N44	N	0.989127	0.189642	0.114588
C45	C	0.987621	-0.000056	-0.469192
C46	C	0.896069	0.000223	-0.421758
C47	C	0.897721	-0.000052	-0.325068
C48	C	0.990564	-0.000054	-0.301631
C49	C	1.035708	-0.069588	-0.342711
C50	C	1.033408	-0.069646	-0.439347
C51	C	1.035324	0.068820	-0.439701
C52	C	1.035302	0.069739	-0.342755
C53	C	0.992231	-0.000056	-0.206934
C54	C	0.985956	-0.000059	-0.563890
C55	C	0.982980	-0.000057	0.267671
C56	C	0.984631	-0.000057	0.360621
H57	H	0.577856	-0.049894	-0.012280
H58	H	0.559051	-0.121287	0.127818
N59	N	1.120232	0.075006	-0.323465
N60	N	1.149300	0.027191	-0.278899
H61	H	1.209284	0.030908	-0.265271
N62	N	0.853199	0.062478	-0.289417
N63	N	0.820684	0.106626	-0.335941
H64	H	0.789234	0.150788	-0.310766
H65	H	0.897001	-0.803260	0.022396
H66	H	1.100623	-0.072803	-0.471595
H67	H	0.434215	-0.050194	-0.015032
N68	N	0.850184	0.062783	-0.445001
N69	N	0.884416	0.107894	-0.496800
H70	H	0.852010	0.152081	-0.513219
N71	N	0.428163	0.061870	-0.024129
N72	N	0.375861	0.106399	0.010439
H73	H	0.358496	0.150330	-0.021830
H74	H	0.861978	-0.049977	-0.297204
N75	N	1.091766	-0.656216	0.217291
N76	N	1.147112	-0.613442	0.184609
H77	H	1.183755	-0.585780	0.221248
H78	H	1.000470	-0.121621	-0.457650
N79	N	0.551023	-0.075113	0.245716
N80	N	0.595585	-0.027292	0.274798
H81	H	0.609201	-0.031004	0.334784
N82	N	0.886447	-0.656268	0.011885
N83	N	0.831087	-0.613509	0.044556
H84	H	0.794440	-0.585870	0.007910
H85	H	0.859630	-0.049359	-0.441353
H86	H	1.103916	-0.072176	-0.328585
H87	H	1.002296	0.121178	-0.315505
N88	N	0.997802	0.134938	-0.465476
N89	N	0.994323	0.147208	-0.541883
H90	H	0.967818	0.193901	-0.560089
H91	H	1.004335	-0.121330	-0.314331
N92	N	1.120005	0.069391	-0.479536
N93	N	1.145212	0.019346	-0.529441
H94	H	1.205017	0.019741	-0.557575
H95	H	0.545923	0.072063	0.229427
H96	H	0.577303	0.049876	-0.012516
N97	N	0.886435	-0.188942	0.011850
N98	N	0.919132	-0.146169	-0.043485
H99	H	0.882507	-0.118520	-0.080144
N100	N	0.394954	-0.069547	0.245483
N101	N	0.410039	-0.120100	0.294261
H102	H	0.381896	-0.120529	0.354062
H103	H	0.896959	-0.335949	0.022390
N104	N	0.412217	0.134729	0.117595
N105	N	0.441941	0.147069	0.043261
H106	H	0.425741	0.193115	0.014073
N107	N	0.394714	0.073489	0.243241
N108	N	0.437883	0.076208	0.303599
H109	H	0.409320	0.079006	0.363152
N110	N	1.091782	-0.811146	0.217307
N111	N	1.137107	-0.776912	0.262677
H112	H	1.173750	-0.804540	0.299338
H113	H	0.560182	0.121223	0.129856
H114	H	0.414253	-0.121637	0.130874
N115	N	1.091709	-0.188932	0.217317
N116	N	1.169735	-0.197488	0.207352
H117	H	1.206369	-0.169852	0.244023
N118	N	1.091725	-0.343837	0.217310
N119	N	1.137053	-0.309606	0.262681
H120	H	1.173689	-0.337237	0.299346
