data_functionalizedCrystal
_audit_creation_method	'MofGen! by Chris Wilmer'
_symmetry_space_group_name_H-M	'P1'
_symmetry_Int_Tables_number	1
_symmetry_cell_setting	triclinic
loop_
_symmetry_equiv_pos_as_xyz
  x,y,z
_cell_length_a	17.038278
_cell_length_b	9.730223
_cell_length_c	10.654550
_cell_angle_alpha	90.004253
_cell_angle_beta	87.797716
_cell_angle_gamma	90.003357
loop_
_atom_site_label
_atom_site_type_symbol
_atom_site_fract_x
_atom_site_fract_y
_atom_site_fract_z
O1	O	1.038890	0.114300	0.272849
O2	O	0.811235	0.114300	0.268520
O3	O	0.930296	0.114292	0.088431
O4	O	0.919828	0.114309	0.452938
O5	O	0.930289	-0.114288	0.088425
O6	O	0.811227	-0.114280	0.268514
O7	O	1.038882	-0.114280	0.272843
Zn8	Zn	0.925053	-0.150572	0.270677
Zn9	Zn	0.925063	0.150592	0.270685
O10	O	0.919820	-0.114271	0.452932
C11	C	0.782081	0.000010	0.264576
C12	C	0.695222	0.000010	0.252820
N13	N	0.925052	-0.356108	0.270672
C14	C	0.977791	-0.428038	0.190966
C15	C	0.977798	-0.571921	0.190967
C16	C	0.872326	-0.571932	0.350390
C17	C	0.872315	-0.428051	0.350382
C18	C	0.204407	0.000012	0.180598
C19	C	0.286019	0.000004	0.191654
C20	C	0.318117	0.000016	0.310654
C21	C	0.268598	0.000022	0.418606
C22	C	0.186988	0.000020	0.407549
C23	C	0.564093	0.000014	0.349715
C24	C	0.645710	0.000020	0.360764
C25	C	0.663125	0.000000	0.133811
C26	C	0.581512	0.000006	0.122764
C27	C	0.532000	0.000005	0.230716
C28	C	0.401538	0.000013	0.321958
C29	C	0.448581	-0.000001	0.219412
C30	C	1.068036	0.000013	0.276786
C31	C	1.154895	0.000022	0.288542
C32	C	0.929524	0.000002	0.041559
C33	C	0.927224	0.000004	-0.098098
N34	N	0.925071	0.356129	0.270681
C35	C	0.997326	0.000005	-0.171075
C36	C	0.995160	0.000022	-0.302297
C37	C	0.852785	0.000032	-0.287552
C38	C	0.854952	0.000025	-0.156333
C39	C	0.920593	0.000021	0.499804
C40	C	0.922892	0.000028	0.639461
H41	H	1.020731	-0.369465	0.126059
H42	H	0.703445	-0.000000	0.045923
O43	O	1.063237	0.000263	-0.373239
C44	C	1.066244	0.118638	-0.449587
H45	H	1.026505	0.201380	-0.405849
H46	H	1.129182	0.158370	-0.457585
H47	H	1.045479	0.091886	-0.547061
O48	O	0.782565	0.000285	-0.344068
C49	C	0.739785	0.118653	-0.307485
H50	H	0.782036	0.201393	-0.275717
H51	H	0.706074	0.158395	-0.390434
H52	H	0.696653	0.091888	-0.226725
H53	H	1.020742	-0.630482	0.126062
H54	H	0.829391	-0.630522	0.415291
H55	H	0.829366	-0.369482	0.415288
O56	O	0.676761	-0.000033	0.476464
C57	C	0.615562	-0.000001	0.569375
H58	H	0.559939	-0.043287	0.528235
H59	H	0.633055	-0.066356	0.651930
H60	H	0.604205	0.109661	0.603093
O61	O	0.432760	0.000270	0.437522
C62	C	0.479472	0.118631	0.450683
H63	H	0.459819	0.201372	0.382964
H64	H	0.472710	0.158377	0.551171
H65	H	0.543659	0.091856	0.428557
O66	O	0.786871	0.000268	-0.085381
C67	C	0.783884	0.118633	-0.009005
H68	H	0.823632	0.201373	-0.052730
H69	H	0.720951	0.158377	-0.000988
H70	H	0.804652	0.091864	0.088459
H71	H	0.146675	0.000023	0.495449
H72	H	0.178279	0.000011	0.083696
H73	H	0.294739	0.000023	0.515499
O74	O	0.334003	0.000055	0.086669
C75	C	0.288172	0.000017	-0.020733
H76	H	0.227447	0.043301	0.004653
H77	H	0.317847	0.066369	-0.096904
H78	H	0.282162	-0.109647	-0.056798
O79	O	0.550463	-0.000078	0.007071
C80	C	0.611666	-0.000057	-0.085835
H81	H	0.667287	-0.043323	-0.044687
H82	H	0.594175	-0.066435	-0.168387
H83	H	0.623025	0.109599	-0.119559
H84	H	0.422443	0.000005	0.122522
H85	H	1.056175	-0.000009	-0.123665
O86	O	0.515969	-0.000210	0.454535
C87	C	0.468221	-0.118573	0.454931
H88	H	0.497753	-0.201333	0.393881
H89	H	0.459590	-0.158286	0.555173
H90	H	0.408711	-0.091815	0.416062
