data_functionalizedCrystal
_audit_creation_method	'MofGen! by Chris Wilmer'
_symmetry_space_group_name_H-M	'P1'
_symmetry_Int_Tables_number	1
_symmetry_cell_setting	triclinic
loop_
_symmetry_equiv_pos_as_xyz
  x,y,z
_cell_length_a	6.817900
_cell_length_b	12.908942
_cell_length_c	16.015572
_cell_angle_alpha	78.125258
_cell_angle_beta	104.485554
_cell_angle_gamma	100.860556
loop_
_atom_site_label
_atom_site_type_symbol
_atom_site_fract_x
_atom_site_fract_y
_atom_site_fract_z
V1	V	-3.987693	-0.042573	-0.269253
O2	O	-3.989771	0.108512	-0.264622
O3	O	-3.926185	-0.186811	-0.266935
O4	O	-3.928318	0.004797	-0.386900
O5	O	-3.987624	-0.084422	-0.143826
V6	V	-4.474442	-0.030021	-0.254309
O7	O	-4.241876	-0.070106	-0.302034
O8	O	-4.670457	-0.002488	-0.221527
O9	O	-4.312744	0.114216	-0.256626
O10	O	-4.589761	-0.181107	-0.258939
O11	O	-4.591909	0.011828	-0.379735
O12	O	-4.310611	-0.077392	-0.136661
C13	C	-3.768352	-0.223432	-0.262564
C14	C	-3.799276	-0.341048	-0.261454
C15	C	-4.219846	-0.569497	-0.267982
C16	C	-4.248911	-0.680007	-0.266939
C17	C	-3.886475	-0.672579	-0.258329
C18	C	-3.857410	-0.562069	-0.259373
C19	C	-4.024103	-0.510532	-0.264198
C20	C	-3.995033	-0.400021	-0.265235
C21	C	-3.632603	-0.392594	-0.256632
C22	C	-3.661667	-0.503104	-0.255589
C23	C	-3.771072	0.020984	-0.415591
C24	C	-3.803723	0.058760	-0.511766
C25	C	-4.061886	-0.276541	-0.888294
C26	C	-4.092574	-0.241010	-0.978660
C27	C	-4.032292	-0.057186	-0.954559
C28	C	-4.001588	-0.092701	-0.864188
C29	C	-4.016391	-0.202380	-0.831063
C30	C	-3.956093	-0.018540	-0.806958
C31	C	-3.925402	-0.054054	-0.716596
C32	C	-3.940207	-0.163728	-0.683464
C33	C	-3.985700	-0.237893	-0.740701
C34	C	-3.941305	0.091137	-0.840085
C35	C	-3.895810	0.165298	-0.782855
C36	C	-3.865104	0.129786	-0.692490
C37	C	-3.879909	0.020112	-0.659358
C38	C	-3.819611	0.203952	-0.635253
C39	C	-3.788921	0.168438	-0.544891
C40	C	-3.849218	-0.015401	-0.568996
C41	C	-4.133918	0.150831	-0.260994
C42	C	-4.082233	0.268448	-0.262111
C43	C	-4.131199	-0.093583	-0.107965
C44	C	-4.077787	-0.131355	-0.011790
H45	H	-4.355569	-0.527537	-0.271898
H46	H	-3.473210	-0.344573	-0.253550
H47	H	-3.883771	0.254599	-0.809838
H48	H	-3.750774	-0.714558	-0.254409
C49	C	-3.865487	-0.136054	-0.532553
N50	N	-3.877743	-0.226925	-0.505105
C51	C	-4.015997	0.063458	-0.991007
N52	N	-4.003710	0.154329	-1.018458
H53	H	-4.408301	-0.728012	-0.270021
H54	H	-3.807584	0.293252	-0.662238
H55	H	-3.997727	-0.327204	-0.713728
H56	H	-3.751875	0.228828	-0.498292
C57	C	-4.078154	-0.397193	-0.851851
N58	N	-4.090410	-0.488065	-0.824402
H59	H	-3.525959	-0.545080	-0.251663
H60	H	-3.915221	-0.192641	-0.609884
H61	H	-4.129612	-0.301410	-1.025256
H62	H	-3.966265	0.120049	-0.913664
C63	C	-4.178402	-0.343330	-0.270552
N64	N	-4.316525	-0.300633	-0.274562
