data_functionalizedCrystal
_audit_creation_method	'MofGen! by Chris Wilmer'
_symmetry_space_group_name_H-M	'P1'
_symmetry_Int_Tables_number	1
_symmetry_cell_setting	triclinic
loop_
_symmetry_equiv_pos_as_xyz
  x,y,z
_cell_length_a	15.944493
_cell_length_b	17.019294
_cell_length_c	14.421503
_cell_angle_alpha	86.125318
_cell_angle_beta	89.992936
_cell_angle_gamma	83.434588
loop_
_atom_site_label
_atom_site_type_symbol
_atom_site_fract_x
_atom_site_fract_y
_atom_site_fract_z
O1	O	1.114433	0.101508	-0.085203
O2	O	0.869860	0.114099	-0.086213
O3	O	0.998969	-0.007029	-0.076534
O4	O	0.985324	0.222636	-0.094882
O5	O	0.998947	-0.007011	0.077688
O6	O	0.869839	0.114117	0.068009
O7	O	1.114411	0.101527	0.069019
Cu8	Cu	0.992123	0.107824	0.082596
Cu9	Cu	0.992148	0.107802	-0.099790
O10	O	0.985303	0.222654	0.059340
C11	C	0.838556	0.113594	-0.009061
C12	C	0.745309	0.112051	-0.008940
C13	C	0.509460	0.183350	-0.014637
C14	C	0.458939	0.144910	0.064479
C15	C	0.574591	0.109192	-0.008710
C16	C	0.458965	0.144875	-0.087571
C17	C	0.409685	0.106436	-0.008492
C18	C	0.525299	0.070773	0.070467
C19	C	0.525328	0.070748	-0.081652
C20	C	0.474840	0.032254	-0.002514
C21	C	0.669589	0.110782	-0.008835
C22	C	0.314690	0.104841	-0.008360
C23	C	0.998440	-0.036408	0.002923
C24	C	0.996887	-0.123978	0.009912
C25	C	0.996172	-0.165123	-0.070870
C26	C	0.994707	-0.247403	-0.064299
C27	C	0.993965	-0.288537	0.023054
C28	C	0.994678	-0.247385	0.103842
C29	C	0.996137	-0.165106	0.097271
C30	C	0.989556	-0.536966	0.047102
C31	C	0.988100	-0.619251	0.053667
C32	C	0.988127	-0.619263	-0.114475
C33	C	0.989591	-0.536983	-0.121039
C34	C	0.990300	-0.495838	-0.040251
C35	C	0.992471	-0.372640	0.029773
C36	C	0.991788	-0.411735	-0.046970
C37	C	1.145716	0.102032	-0.008135
C38	C	1.238963	0.103575	-0.008263
C39	C	0.985831	0.252034	-0.020119
C40	C	0.987384	0.339603	-0.027115
N41	N	0.992111	0.107838	0.210876
N42	N	0.992167	0.107782	-0.228069
C43	C	0.932401	0.163823	0.456056
C44	C	1.008284	0.179122	0.516638
C45	C	0.992132	0.107819	0.400039
C46	C	0.916269	0.092538	0.523549
C47	C	0.992145	0.107803	0.582761
C48	C	1.068053	0.123154	0.459257
C49	C	0.975987	0.036539	0.466165
C50	C	1.051925	0.051809	0.526722
C51	C	0.992123	0.107831	0.294776
C52	C	0.992162	0.107791	0.688021
H53	H	0.429996	0.176200	-0.154354
H54	H	0.554157	0.039481	0.137320
H55	H	0.987549	-0.652772	-0.180248
H56	H	0.994069	-0.280882	0.174967
H57	H	0.459454	-0.031673	0.002637
H58	H	0.429953	0.176235	0.126265
C59	C	0.564514	0.028476	-0.165132
C60	C	0.614649	0.073895	-0.237973
C61	C	0.653836	0.031635	-0.321465
C62	C	0.642887	-0.056044	-0.332117
C63	C	0.592749	-0.101468	-0.259274
C64	C	0.553562	-0.059208	-0.175781
H65	H	0.622757	0.138805	-0.230090
H66	H	0.690951	0.065261	-0.375388
H67	H	0.671895	-0.087327	-0.393923
H68	H	0.584642	-0.166377	-0.267157
H69	H	0.516447	-0.092834	-0.121858
H70	H	0.852107	0.079621	0.551750
C71	C	1.120239	-0.012184	0.568227
C72	C	1.117071	-0.099780	0.549338
C73	C	1.185386	-0.163769	0.590847
C74	C	1.256869	-0.140162	0.651244
C75	C	1.260039	-0.052562	0.670135
C76	C	1.191725	0.011427	0.628626
H77	H	1.064153	-0.117259	0.504626
H78	H	1.183038	-0.228616	0.576862
H79	H	1.307439	-0.187530	0.681971
H80	H	1.312958	-0.035083	0.714847
H81	H	1.194072	0.076274	0.642611
H82	H	0.525003	0.247228	-0.019669
C83	C	0.987268	-0.664482	0.149772
C84	C	1.059162	-0.730007	0.178163
C85	C	1.058327	-0.775229	0.274266
C86	C	0.985598	-0.754927	0.341979
C87	C	0.913699	-0.689399	0.313589
C88	C	0.914534	-0.644176	0.217486
H89	H	1.113005	-0.745038	0.128037
H90	H	1.111552	-0.823738	0.295282
H91	H	0.984980	-0.788404	0.413120
H92	H	0.859856	-0.674368	0.363715
H93	H	0.861309	-0.595668	0.196470
H94	H	0.996781	-0.131639	-0.142002
C95	C	1.154750	0.140710	0.421315
C96	C	1.188779	0.219255	0.440271
C97	C	1.275471	0.236815	0.402327
C98	C	1.328135	0.175829	0.345427
C99	C	1.294107	0.097278	0.326468
C100	C	1.207414	0.079719	0.364413
H101	H	1.149793	0.264405	0.482394
H102	H	1.300661	0.294963	0.416361
H103	H	1.392310	0.188827	0.317338
H104	H	1.333092	0.052128	0.284345
H105	H	1.182225	0.021570	0.350378
C106	C	0.993927	-0.292659	-0.153165
C107	C	1.067050	-0.290316	-0.222696
C108	C	1.066270	-0.335569	-0.311569
C109	C	0.992366	-0.383164	-0.330910
C110	C	0.919237	-0.385509	-0.261376
C111	C	0.920017	-0.340256	-0.172504
H112	H	1.121763	-0.255081	-0.208381
H113	H	1.120405	-0.333833	-0.363042
H114	H	0.991788	-0.416663	-0.396698
H115	H	0.864524	-0.420743	-0.275692
H116	H	0.865882	-0.341992	-0.121031
H117	H	0.990196	-0.503498	-0.192171
C118	C	0.957493	-0.044858	0.435920
C119	C	0.941608	-0.111155	0.509663
C120	C	0.923102	-0.192552	0.479415
C121	C	0.920482	-0.207651	0.375426
C122	C	0.936368	-0.141351	0.301677
C123	C	0.954874	-0.059955	0.331924
H124	H	0.943547	-0.099980	0.586648
H125	H	0.911343	-0.241631	0.534009
H126	H	0.906783	-0.267905	0.353035
H127	H	0.934429	-0.152526	0.224692
H128	H	0.966633	-0.010876	0.277330
C129	C	0.990353	-0.491720	0.135970
C130	C	0.917247	-0.494069	0.205524
C131	C	0.918050	-0.448822	0.294399
C132	C	0.991959	-0.401227	0.313721
C133	C	1.065070	-0.398877	0.244165
C134	C	1.064267	-0.444123	0.155290
H135	H	0.862531	-0.529303	0.191223
H136	H	0.863928	-0.450563	0.345888
H137	H	0.992553	-0.367733	0.379511
H138	H	1.119787	-0.363642	0.258467
H139	H	1.118389	-0.442383	0.103801
C140	C	0.864234	0.227849	0.414319
C141	C	0.851215	0.239138	0.308245
C142	C	0.783053	0.303165	0.266507
C143	C	0.727911	0.355903	0.330843
C144	C	0.740928	0.344616	0.436924
C145	C	0.809090	0.280588	0.478662
H146	H	0.892036	0.200097	0.260614
H147	H	0.773417	0.311521	0.187978
H148	H	0.677453	0.403300	0.299946
H149	H	0.700107	0.383657	0.484555
H150	H	0.818727	0.272233	0.557191
C151	C	1.026750	0.260543	0.546851
C152	C	0.967066	0.335498	0.516521
C153	C	0.985525	0.416920	0.546730
C154	C	1.063668	0.423386	0.607269
C155	C	1.123358	0.348429	0.637603
C156	C	1.104899	0.267007	0.607394
H157	H	0.909214	0.330713	0.471703
H158	H	0.941338	0.472408	0.524275
H159	H	1.077333	0.483660	0.629632
H160	H	1.181209	0.353213	0.682421
H161	H	1.149086	0.211518	0.629849
H162	H	0.996708	-0.131605	0.163052
H163	H	0.992386	-0.378240	-0.118093
H164	H	0.991869	-0.406141	0.100896
