data_functionalizedCrystal
_audit_creation_method	'MofGen! by Chris Wilmer'
_symmetry_space_group_name_H-M	'P1'
_symmetry_Int_Tables_number	1
_symmetry_cell_setting	triclinic
loop_
_symmetry_equiv_pos_as_xyz
  x,y,z
_cell_length_a	14.971486
_cell_length_b	27.732048
_cell_length_c	14.048226
_cell_angle_alpha	89.988614
_cell_angle_beta	89.998499
_cell_angle_gamma	83.128392
loop_
_atom_site_label
_atom_site_type_symbol
_atom_site_fract_x
_atom_site_fract_y
_atom_site_fract_z
O1	O	1.185952	0.062991	-0.079062
O2	O	0.925432	0.070534	-0.079089
O3	O	1.063783	-0.003597	-0.079057
O4	O	1.047601	0.137122	-0.079094
O5	O	1.063767	-0.003601	0.079265
O6	O	0.925416	0.070530	0.079232
O7	O	1.185935	0.062986	0.079259
Zn8	Zn	1.055673	0.066757	0.104383
Zn9	Zn	1.055695	0.066763	-0.104212
O10	O	1.047584	0.137117	0.079227
C11	C	0.892105	0.070195	0.000068
C12	C	0.792824	0.069184	0.000059
C13	C	1.063435	-0.021608	0.000107
C14	C	1.062412	-0.075267	0.000114
C15	C	0.734910	0.112734	0.000048
C16	C	0.641626	0.111781	0.000063
C17	C	0.606257	0.067278	0.000081
C18	C	0.664178	0.023724	0.000094
C19	C	0.757460	0.024678	0.000086
C20	C	0.469746	0.021740	0.000108
C21	C	0.376457	0.020787	0.000114
C22	C	0.353912	0.108844	0.000084
C23	C	0.447195	0.109797	0.000076
C24	C	0.505109	0.066243	0.000088
C25	C	1.137729	-0.413735	0.000073
C26	C	1.133934	-0.615412	0.000060
O27	O	1.202806	-0.646350	0.000025
N28	N	1.051898	-0.634914	0.000052
C29	C	0.970804	-0.603994	0.000042
O30	O	0.900940	-0.625209	0.000025
C31	C	0.974601	-0.402318	0.000048
C32	C	1.056642	-0.382818	0.000066
C33	C	1.219764	-0.394235	0.000090
C34	C	1.220712	-0.343819	0.000098
C35	C	1.139625	-0.312902	0.000091
C36	C	1.057590	-0.332402	0.000074
C37	C	0.893508	-0.371398	0.000031
C38	C	0.894464	-0.320976	0.000030
C39	C	0.976506	-0.301477	0.000048
C40	C	0.977451	-0.251069	0.000075
N41	N	1.059487	-0.231567	0.000083
C42	C	1.140574	-0.262483	0.000091
C43	C	0.968817	-0.709877	0.000040
C44	C	0.967868	-0.760296	0.000040
C45	C	1.130998	-0.771710	0.000056
C46	C	1.131946	-0.721291	0.000063
C47	C	1.050854	-0.690375	0.000048
C48	C	1.142559	-0.156605	0.000110
C49	C	1.143500	-0.106184	0.000122
C50	C	0.980370	-0.094773	0.000101
C51	C	0.979429	-0.145190	0.000093
C52	C	1.060530	-0.176105	0.000094
O53	O	0.908616	-0.220103	0.000099
O54	O	1.210428	-0.241258	0.000086
C55	C	1.136781	-0.464151	0.000065
C56	C	1.054746	-0.483651	0.000049
C57	C	0.973659	-0.452734	0.000041
C58	C	1.053797	-0.534070	0.000049
C59	C	1.134884	-0.564986	0.000056
C60	C	1.216921	-0.545484	0.000064
C61	C	1.217868	-0.495067	0.000072
C62	C	0.891623	-0.472237	0.000033
C63	C	0.890682	-0.522654	0.000026
C64	C	0.971769	-0.553570	0.000033
C65	C	1.219263	0.063326	0.000100
C66	C	1.318544	0.064337	0.000103
C67	C	1.047932	0.155128	0.000062
C68	C	1.048955	0.208788	0.000048
N69	N	1.055665	0.066753	0.246743
N70	N	1.055710	0.066764	-0.246573
C71	C	1.116945	0.033942	0.296576
C72	C	1.116951	0.033941	0.396234
C73	C	1.055680	0.066755	0.446057
C74	C	0.994393	0.099569	0.396217
C75	C	0.994384	0.099566	0.296562
C76	C	0.994419	0.099572	0.603932
C77	C	0.994429	0.099575	0.703594
C78	C	1.116987	0.033947	0.703604
C79	C	1.116977	0.033945	0.603948
C80	C	1.055691	0.066759	0.554115
H81	H	0.763700	0.148973	0.000033
H82	H	0.306753	0.144307	0.000079
C83	C	1.183541	-0.001735	0.550023
C84	C	1.237199	-0.030481	0.614992
C85	C	1.298517	-0.063360	0.565351
H86	H	1.220609	0.015630	0.511129
H87	H	1.151664	-0.021912	0.511183
H88	H	1.269073	-0.010307	0.653815
H89	H	1.200155	-0.047857	0.653888
H90	H	1.266640	-0.083537	0.526511
H91	H	1.335580	-0.045991	0.526459
H92	H	1.334926	-0.082871	0.609424
H93	H	0.594476	0.147244	0.000053
C94	C	1.183384	-0.001738	0.757749
C95	C	1.136164	-0.031382	0.814961
C96	C	1.197300	-0.064262	0.864846
H97	H	1.220400	0.015627	0.796691
H98	H	1.219862	-0.021307	0.713831
H99	H	1.099701	-0.011816	0.858875
H100	H	1.099152	-0.048758	0.776043
H101	H	1.233778	-0.083831	0.820928
H102	H	1.234313	-0.046893	0.903783
H103	H	1.165271	-0.084383	0.903664
H104	H	0.475989	0.146035	0.000053
C105	C	1.230707	-0.190084	0.000164
C106	C	1.302743	-0.162207	0.000206
C107	C	1.383957	-0.193031	0.000276
H108	H	1.233872	-0.209995	-0.055032
H109	H	1.233774	-0.209989	0.055395
H110	H	1.299678	-0.142310	-0.055019
H111	H	1.299608	-0.142297	0.055398
H112	H	1.387024	-0.212936	0.055507
H113	H	1.387113	-0.212940	-0.054921
H114	H	1.432843	-0.174121	0.000313
H115	H	0.804613	-0.010785	0.000094
C116	C	0.927994	0.135216	0.242332
C117	C	0.975218	0.164838	0.185077
C118	C	0.914086	0.197679	0.135099
H119	H	0.891479	0.154807	0.286166
H120	H	0.891014	0.117805	0.203416
H121	H	1.012182	0.182248	0.223989
H122	H	1.011730	0.145260	0.141225
H123	H	0.877106	0.180268	0.096183
H124	H	0.877574	0.217267	0.178940
H125	H	0.946118	0.217779	0.096239
C126	C	0.338228	-0.027579	0.000184
C127	C	0.408910	-0.065518	0.000224
C128	C	0.373728	-0.110080	0.000300
H129	H	0.302322	-0.029849	-0.055010
H130	H	0.302332	-0.029806	0.055418
H131	H	0.444791	-0.063293	-0.055004
H132	H	0.444823	-0.063264	0.055414
H133	H	0.337832	-0.112306	0.055533
H134	H	0.337822	-0.112345	-0.054895
H135	H	0.421680	-0.135826	0.000336
H136	H	1.210310	-0.090310	0.000139
C137	C	0.806321	-0.287491	0.000063
C138	C	0.734279	-0.315365	0.000070
C139	C	0.653070	-0.284536	0.000114
H140	H	0.803179	-0.267568	-0.055131
H141	H	0.803239	-0.267599	0.055297
H142	H	0.737359	-0.335248	-0.055159
H143	H	0.737391	-0.335287	0.055259
H144	H	0.649988	-0.264644	0.055348
H145	H	0.649937	-0.264615	-0.055080
H146	H	0.604179	-0.303444	0.000128
C147	C	0.927827	0.135118	0.450433
C148	C	0.873459	0.109321	0.507688
C149	C	0.812137	0.142054	0.557653
H150	H	0.891239	0.154673	0.406591
H151	H	0.959702	0.155262	0.489348
H152	H	0.841586	0.089185	0.468776
H153	H	0.910022	0.089768	0.551547
H154	H	0.844012	0.162198	0.596567
H155	H	0.775555	0.161607	0.513804
H156	H	0.775247	0.124556	0.596512
C157	C	1.309880	-0.322746	0.000059
C158	C	1.380680	-0.360620	0.000038
C159	C	1.462838	-0.341231	-0.000014
H160	H	1.313773	-0.303328	0.055255
H161	H	1.313699	-0.303324	-0.055173
H162	H	1.376863	-0.380034	0.055264
H163	H	1.376817	-0.380041	-0.055154
H164	H	1.466657	-0.321809	-0.055246
H165	H	1.466722	-0.321813	0.055183
H166	H	1.510885	-0.366925	-0.000037
H167	H	1.284675	-0.479196	0.000086
H168	H	0.944535	0.126295	0.744156
H169	H	1.285799	-0.419403	0.000092
H170	H	0.516899	-0.013726	0.000119
C171	C	1.221113	-0.700216	0.000022
C172	C	1.291916	-0.738089	0.000007
C173	C	1.374072	-0.718696	-0.000048
H174	H	1.225003	-0.680796	0.055215
H175	H	1.224930	-0.680796	-0.055213
H176	H	1.288100	-0.757500	0.055236
H177	H	1.288055	-0.757512	-0.055182
H178	H	1.377889	-0.699276	-0.055283
H179	H	1.377952	-0.699277	0.055145
H180	H	1.422121	-0.744390	-0.000067
C181	C	0.804495	-0.392625	-0.000148
C182	C	0.799205	-0.421234	-0.081596
C183	C	0.717218	-0.440798	-0.081791
H184	H	0.756272	-0.367034	-0.000208
H185	H	0.800701	-0.412089	0.055029
H186	H	0.802990	-0.401770	-0.136758
H187	H	0.847408	-0.446832	-0.081553
H188	H	0.713424	-0.460263	-0.026615
H189	H	0.669002	-0.415204	-0.081849
H190	H	0.713621	-0.460215	-0.137048
C191	C	0.625954	-0.024644	0.000158
C192	C	0.696642	-0.062579	0.000190
C193	C	0.661468	-0.107143	0.000257
H194	H	0.590047	-0.026913	-0.055035
H195	H	0.590060	-0.026874	0.055392
H196	H	0.732521	-0.060349	-0.055038
H197	H	0.732555	-0.060326	0.055380
H198	H	0.625573	-0.109374	0.055491
H199	H	0.625561	-0.109407	-0.054937
H200	H	0.709423	-0.132888	0.000288
H201	H	0.944510	0.126291	0.563361
C202	C	0.878766	-0.781435	-0.000165
C203	C	0.829814	-0.765725	-0.081637
C204	C	0.747731	-0.785192	-0.081871
H205	H	0.845294	-0.770844	0.054975
H206	H	0.889767	-0.815893	-0.000216
H207	H	0.818810	-0.731275	-0.081577
H208	H	0.863258	-0.776316	-0.136791
H209	H	0.758732	-0.819650	-0.081922
H210	H	0.714268	-0.774599	-0.026727
H211	H	0.714510	-0.774539	-0.137152
C212	C	0.880793	-0.676292	-0.000166
C213	C	0.876555	-0.647013	-0.081631
C214	C	0.795475	-0.616077	-0.081855
H215	H	0.877674	-0.656346	0.054979
H216	H	0.831782	-0.695116	-0.000220
H217	H	0.925553	-0.628191	-0.081568
H218	H	0.879658	-0.666946	-0.136789
H219	H	0.746463	-0.634901	-0.081909
H220	H	0.792363	-0.596134	-0.026707
H221	H	0.792585	-0.596211	-0.137132
H222	H	1.282944	-0.570665	0.000074
H223	H	1.197022	-0.796891	0.000063
C224	C	0.890424	-0.166432	-0.000066
C225	C	0.885134	-0.195040	-0.081516
C226	C	0.803161	-0.214618	-0.081698
H227	H	0.842189	-0.140848	-0.000114
H228	H	0.886649	-0.185901	0.055109
H229	H	0.888900	-0.175572	-0.136677
H230	H	0.933350	-0.220632	-0.081485
H231	H	0.799386	-0.234086	-0.026523
H232	H	0.754933	-0.189030	-0.081744
H233	H	0.799565	-0.234033	-0.136956
H234	H	0.914351	-0.069592	0.000098
C235	C	0.801627	-0.543848	0.000201
C236	C	0.796281	-0.572463	0.081655
C237	C	0.714257	-0.591988	0.081845
H238	H	0.797787	-0.563303	-0.054952
H239	H	0.753448	-0.518224	0.000246
H240	H	0.844447	-0.598083	0.081601
H241	H	0.800105	-0.553019	0.136821
H242	H	0.666077	-0.566364	0.081890
H243	H	0.710424	-0.611441	0.026688
H244	H	0.710615	-0.611402	0.137114
H245	H	0.825590	-0.447069	0.000025
C246	C	1.183368	-0.001775	0.242562
C247	C	1.169486	-0.049279	0.266843
C248	C	1.230650	-0.082201	0.217109
H249	H	1.243029	0.003458	0.258851
H250	H	1.174601	0.002877	0.176059
H251	H	1.178261	-0.053930	0.333331
H252	H	1.109838	-0.054528	0.250551
H253	H	1.221883	-0.077549	0.150606
H254	H	1.290306	-0.076963	0.233402
H255	H	1.221234	-0.114436	0.233570
H256	H	1.166850	0.007223	0.436807
