data_functionalizedCrystal
_audit_creation_method	'MofGen! by Chris Wilmer'
_symmetry_space_group_name_H-M	'P1'
_symmetry_Int_Tables_number	1
_symmetry_cell_setting	triclinic
loop_
_symmetry_equiv_pos_as_xyz
  x,y,z
_cell_length_a	12.759401
_cell_length_b	19.076919
_cell_length_c	12.759399
_cell_angle_alpha	92.274423
_cell_angle_beta	90.014202
_cell_angle_gamma	92.283941
loop_
_atom_site_label
_atom_site_type_symbol
_atom_site_fract_x
_atom_site_fract_y
_atom_site_fract_z
Zn1	Zn	1.582343	-0.397911	-0.442178
Zn2	Zn	1.589308	-0.280222	-0.610814
Zn3	Zn	1.413716	-0.280235	-0.435147
Zn4	Zn	1.406634	-0.397883	-0.617811
O5	O	1.498000	-0.339063	-0.526487
O6	O	1.730288	-0.382305	-0.464561
O7	O	1.571894	-0.181734	-0.581640
O8	O	1.436134	-0.295862	-0.289060
O9	O	1.735405	-0.295839	-0.588458
O10	O	1.560023	-0.382318	-0.294225
O11	O	1.442887	-0.181744	-0.452579
O12	O	1.265756	-0.295836	-0.459364
O13	O	1.424064	-0.496376	-0.600383
O14	O	1.260553	-0.382271	-0.593566
O15	O	1.553157	-0.496396	-0.471346
O16	O	1.565027	-0.295813	-0.758762
O17	O	1.430817	-0.382259	-0.763902
C18	C	1.225034	-0.339052	-0.526462
C19	C	1.108256	-0.339065	-0.526478
C20	C	0.940989	-0.384162	-0.462115
C21	C	1.050713	-0.384157	-0.462094
C22	C	1.056069	-0.293979	-0.590894
C23	C	0.946346	-0.293988	-0.590920
C24	C	1.487043	-0.522638	-0.537429
C25	C	1.482374	-0.600866	-0.542092
C26	C	1.547389	-0.637630	-0.477103
C27	C	1.542989	-0.711134	-0.481481
C28	C	1.473579	-0.747873	-0.550853
C29	C	1.408557	-0.711105	-0.615844
C30	C	1.412953	-0.637602	-0.611461
C31	C	1.453221	-0.967702	-0.571161
C32	C	1.448833	-1.041210	-0.575542
C33	C	1.583264	-1.041234	-0.441176
C34	C	1.587658	-0.967730	-0.436804
C35	C	1.522632	-0.930968	-0.501791
N36	N	1.469082	-0.823006	-0.555331
N37	N	1.527124	-0.855836	-0.497307
C38	C	1.772033	-0.339074	-0.526513
C39	C	1.888809	-0.339078	-0.526524
C40	C	1.497937	-0.339047	-0.799454
C41	C	1.498004	-0.339063	-0.916231
C42	C	1.508975	-0.156202	-0.515512
C43	C	1.513848	-0.077974	-0.510553
C44	C	1.567961	-0.294102	-0.968385
C45	C	1.568027	-0.294126	-1.078110
C46	C	1.428171	-0.384074	-1.083519
C47	C	1.428111	-0.384053	-0.973796
C48	C	1.498092	-0.339094	-0.252456
C49	C	1.498131	-0.339108	-0.135680
H50	H	1.603913	-0.607722	-0.420616
C51	C	1.118353	-0.244997	-0.660915
C52	C	1.049166	-0.205531	-0.717351
C53	C	1.106501	-0.160406	-0.781875
H54	H	1.162984	-0.214310	-0.618934
H55	H	1.159536	-0.271849	-0.708400
H56	H	1.008001	-0.178680	-0.669871
H57	H	1.004534	-0.236198	-0.759351
H58	H	1.147684	-0.187259	-0.829361
H59	H	1.151130	-0.129724	-0.739886
H60	H	1.059566	-0.133628	-0.820181
H61	H	1.093193	-0.420869	-0.409647
C62	C	0.878703	-0.433199	-0.392178
C63	C	0.947890	-0.472694	-0.335790
C64	C	0.890554	-0.517884	-0.271365
H65	H	0.837488	-0.406414	-0.344655
H66	H	0.834102	-0.463858	-0.434256
H67	H	0.992473	-0.442038	-0.293714
H68	H	0.989107	-0.499493	-0.383285
H69	H	0.845952	-0.548543	-0.313444
H70	H	0.849341	-0.491093	-0.223850
H71	H	0.937488	-0.544691	-0.233106
H72	H	0.903861	-0.257275	-0.643375
C73	C	1.663102	-0.927790	-0.361627
C74	C	1.732964	-0.885584	-0.418572
C75	C	1.802471	-0.848781	-0.349347
H76	H	1.624723	-0.899072	-0.314137
H77	H	1.701258	-0.960177	-0.323539
H78	H	1.694812	-0.853201	-0.456642
H79	H	1.771368	-0.914285	-0.466059
H80	H	1.840627	-0.881168	-0.311260
H81	H	1.764082	-0.820068	-0.301861
H82	H	1.849886	-0.820146	-0.387975
C83	C	1.613705	-0.750922	-0.410878
C84	C	1.675457	-0.703015	-0.349212
C85	C	1.740625	-0.739641	-0.284168
H86	H	1.571938	-0.779599	-0.366709
H87	H	1.657807	-0.779580	-0.452761
H88	H	1.631360	-0.674369	-0.307333
H89	H	1.717245	-0.674336	-0.393354
H90	H	1.784727	-0.768299	-0.326051
H91	H	1.698850	-0.768318	-0.240006
H92	H	1.782538	-0.707142	-0.242327
H93	H	1.352038	-0.741024	-0.672325
H94	H	1.636203	-1.071174	-0.388266
C95	C	1.643795	-0.245149	-0.906011
C96	C	1.625192	-0.175506	-0.928638
C97	C	1.695042	-0.130391	-0.871213
H98	H	1.633813	-0.251478	-0.833172
H99	H	1.713786	-0.255452	-0.924565
H100	H	1.555218	-0.165206	-0.910077
H101	H	1.635182	-0.169154	-1.001466
H102	H	1.765033	-0.140694	-0.889767
H103	H	1.685054	-0.136726	-0.798377
H104	H	1.682436	-0.083134	-0.886565
H105	H	1.392308	-1.071121	-0.632036
C106	C	1.382561	-0.927922	-0.641825
C107	C	1.320851	-0.975832	-0.703526
C108	C	1.255745	-0.939209	-0.768638
H109	H	1.338423	-0.899256	-0.600020
H110	H	1.424403	-0.899253	-0.685961
H111	H	1.279013	-1.004489	-0.659395
H112	H	1.364961	-1.004499	-0.745353
H113	H	1.297587	-0.910540	-0.812774
H114	H	1.211613	-0.910544	-0.726825
H115	H	1.213873	-0.971710	-0.810517
C116	C	1.644179	-0.245351	-1.134563
C117	C	1.747156	-0.260738	-1.108625
C118	C	1.817353	-0.215814	-1.160581
H119	H	1.634391	-0.251745	-1.208175
H120	H	1.631741	-0.198039	-1.113773
H121	H	1.759589	-0.308039	-1.129423
H122	H	1.756977	-0.254339	-1.035022
H123	H	1.804915	-0.168503	-1.139790
H124	H	1.807556	-0.222213	-1.234191
H125	H	1.887231	-0.226244	-1.142982
H126	H	1.360000	-0.607670	-0.664371
H127	H	1.371143	-0.420669	-0.931330
H128	H	1.371264	-0.420701	-1.130402
