data_functionalizedCrystal
_audit_creation_method	'MofGen! by Chris Wilmer'
_symmetry_space_group_name_H-M	'P1'
_symmetry_Int_Tables_number	1
_symmetry_cell_setting	triclinic
loop_
_symmetry_equiv_pos_as_xyz
  x,y,z
_cell_length_a	19.805407
_cell_length_b	16.959453
_cell_length_c	19.805399
_cell_angle_alpha	90.026715
_cell_angle_beta	90.017803
_cell_angle_gamma	90.017304
loop_
_atom_site_label
_atom_site_type_symbol
_atom_site_fract_x
_atom_site_fract_y
_atom_site_fract_z
Zn1	Zn	1.034766	-0.314756	0.382692
Zn2	Zn	1.534766	0.185244	0.882692
Zn3	Zn	1.034693	-0.446939	0.269505
Zn4	Zn	1.534693	0.053061	0.769505
Zn5	Zn	0.921581	-0.314772	0.269520
Zn6	Zn	1.421581	0.185228	0.769520
Zn7	Zn	0.921557	-0.446891	0.382655
Zn8	Zn	1.421557	0.053109	0.882655
O9	O	0.978149	-0.380840	0.326093
O10	O	1.478149	0.119160	0.826093
O11	O	1.129473	-0.332304	0.367686
O12	O	1.629473	0.167696	0.867686
O13	O	1.019668	-0.429433	0.174791
O14	O	1.519668	0.070567	0.674791
O15	O	0.936635	-0.204159	0.284554
O16	O	1.436635	0.295841	0.784554
O17	O	1.129420	-0.429418	0.284529
O18	O	1.629420	0.070582	0.784529
O19	O	1.019792	-0.204148	0.367701
O20	O	1.519792	0.295852	0.867701
O21	O	0.936565	-0.332331	0.174801
O22	O	1.436565	0.167669	0.674801
O23	O	0.826861	-0.332284	0.284518
O24	O	1.326861	0.167716	0.784518
O25	O	0.936595	-0.429336	0.477377
O26	O	1.436595	0.070664	0.977377
O27	O	0.826843	-0.429351	0.367639
O28	O	1.326843	0.070649	0.867639
O29	O	1.019769	-0.332258	0.477404
O30	O	1.519769	0.167742	0.977404
O31	O	1.019645	-0.557543	0.284494
O32	O	1.519645	-0.057543	0.784494
O33	O	0.936524	-0.557508	0.367625
O34	O	1.436524	-0.057508	0.867625
C35	C	0.802293	-0.380815	0.326077
C36	C	1.302293	0.119185	0.826077
C37	C	0.727061	-0.380823	0.326086
C38	C	1.227061	0.119177	0.826086
C39	C	0.691745	-0.330345	0.369452
C40	C	1.191745	0.169655	0.869452
C41	C	0.621057	-0.330350	0.369454
C42	C	1.121057	0.169650	0.869454
C43	C	0.585686	-0.380836	0.326094
C44	C	1.085686	0.119164	0.826094
C45	C	0.621006	-0.431316	0.282723
C46	C	1.121006	0.068684	0.782723
C47	C	0.691693	-0.431307	0.282717
C48	C	1.191693	0.068693	0.782717
C49	C	0.335933	-0.431352	0.282744
C50	C	0.835933	0.068648	0.782744
C51	C	0.265241	-0.431358	0.282754
C52	C	0.765241	0.068642	0.782754
C53	C	0.265296	-0.330394	0.369481
C54	C	0.765296	0.169606	0.869481
C55	C	0.335984	-0.330385	0.369475
C56	C	0.835984	0.169615	0.869475
C57	C	0.371298	-0.380862	0.326102
C58	C	0.871298	0.119138	0.826102
C59	C	0.447947	-0.380856	0.326099
C60	C	0.947947	0.119144	0.826099
C61	C	0.509038	-0.380847	0.326100
C62	C	1.009038	0.119153	0.826100
C63	C	0.978093	-0.586206	0.326068
C64	C	1.478093	-0.086206	0.826068
C65	C	0.978130	-0.674062	0.326080
C66	C	1.478130	-0.174062	0.826080
C67	C	1.021504	-1.045473	0.369469
C68	C	1.521504	-0.545473	0.869469
C69	C	0.934983	-1.045602	0.282817
C70	C	1.434983	-0.545602	0.782817
C71	C	0.934958	-0.963057	0.282802
C72	C	1.434958	-0.463057	0.782802
C73	C	0.978206	-0.921715	0.326121
C74	C	1.478206	-0.421715	0.826121
C75	C	1.021479	-0.962920	0.369457
C76	C	1.521479	-0.462920	0.869457
C77	C	0.891681	-0.921846	0.239472
C78	C	1.391681	-0.421846	0.739472
C79	C	0.891653	-0.839295	0.239455
C80	C	1.391653	-0.339295	0.739455
C81	C	0.934905	-0.797952	0.282772
C82	C	1.434905	-0.297952	0.782772
C83	C	0.978181	-0.839162	0.326109
C84	C	1.478181	-0.339162	0.826109
C85	C	1.021429	-0.797821	0.369428
C86	C	1.521429	-0.297821	0.869428
C87	C	1.064708	-0.839029	0.412762
C88	C	1.564708	-0.339029	0.912762
C89	C	1.064731	-0.921577	0.412773
C90	C	1.564731	-0.421577	0.912773
C91	C	0.934882	-0.715404	0.282761
C92	C	1.434882	-0.215404	0.782761
C93	C	1.021404	-0.715267	0.369415
C94	C	1.521404	-0.215267	0.869415
C95	C	1.154692	-0.380865	0.326110
C96	C	1.654692	0.119135	0.826110
C97	C	1.229924	-0.380876	0.326117
C98	C	1.729924	0.119124	0.826117
C99	C	0.978187	-0.380790	0.502636
C100	C	1.478187	0.119210	1.002636
C101	C	0.978203	-0.380769	0.577868
C102	C	1.478203	0.119231	1.077868
C103	C	0.978224	-0.174671	0.326133
C104	C	1.478224	0.325329	0.826133
C105	C	0.978256	-0.086815	0.326150
C106	C	1.478256	0.413185	0.826150
C107	C	0.978150	-0.380832	0.150237
C108	C	1.478150	0.119168	0.650237
C109	C	0.978265	-0.380631	0.075005
C110	C	1.478265	0.119369	0.575005
C111	C	1.021513	-0.330217	0.613227
C112	C	1.521513	0.169783	1.113227
C113	C	1.021520	-0.330194	0.683915
C114	C	1.521520	0.169806	1.183915
C115	C	0.978220	-0.380727	0.719244
C116	C	1.478220	0.119273	1.219244
C117	C	0.934905	-0.431281	0.683879
C118	C	1.434905	0.068719	1.183879
C119	C	0.934896	-0.431299	0.613192
C120	C	1.434896	0.068701	1.113192
C121	C	0.934944	-0.431207	0.968953
C122	C	1.434944	0.068793	1.468953
C123	C	0.934958	-0.431186	1.039645
C124	C	1.434958	0.068814	1.539645
C125	C	1.021568	-0.330102	1.039676
C126	C	1.521568	0.169898	1.539676
C127	C	1.021558	-0.330121	0.968989
C128	C	1.521558	0.169879	1.468989
C129	C	0.978241	-0.380671	0.933631
C130	C	1.478241	0.119329	1.433631
C131	C	0.978233	-0.380694	0.856983
C132	C	1.478233	0.119306	1.356983
C133	C	0.978231	-0.380709	0.795891
C134	C	1.478231	0.119291	1.295891
H135	H	0.720540	-0.289236	0.404763
H136	H	1.220540	0.210764	0.904763
C137	C	0.582213	-0.274822	0.417163
C138	C	1.082213	0.225178	0.917163
N139	N	0.552956	-0.232997	0.453099
N140	N	1.052956	0.267003	0.953099
C141	C	0.374770	-0.486881	0.235035
C142	C	0.874770	0.013119	0.735035
N143	N	0.404024	-0.528709	0.199099
N144	N	0.904024	-0.028709	0.699099
H145	H	0.364779	-0.289277	0.404786
H146	H	0.864779	0.210723	0.904786
C147	C	0.582095	-0.486851	0.235025
C148	C	1.082095	0.013149	0.735025
N149	N	0.552788	-0.528683	0.199099
N150	N	1.052788	-0.028683	0.699099
C151	C	0.844040	-0.793973	0.191794
C152	C	1.344040	-0.293973	0.691794
N153	N	0.808175	-0.759837	0.155896
N154	N	1.308175	-0.259837	0.655896
H155	H	0.236535	-0.289291	0.404795
H156	H	0.736535	0.210709	0.904795
H157	H	0.236443	-0.472472	0.247442
H158	H	0.736443	0.027528	0.747442
C159	C	1.112330	-0.966912	0.460440
C160	C	1.612330	-0.466912	0.960440
N161	N	1.148179	-1.001062	0.496344
N162	N	1.648179	-0.501062	0.996344
C163	C	0.730540	-0.486838	0.235013
C164	C	1.230540	0.013162	0.735013
N165	N	0.759799	-0.528665	0.199079
N166	N	1.259799	-0.028665	0.699079
H167	H	1.056624	-0.681612	0.404689
H168	H	1.556624	-0.181612	0.904689
H169	H	0.856469	-0.955512	0.204206
H170	H	1.356469	-0.455512	0.704206
H171	H	1.099918	-0.805359	0.448036
H172	H	1.599918	-0.305359	0.948036
C173	C	0.887279	-0.670079	0.235096
C174	C	1.387279	-0.170079	0.735096
N175	N	0.851424	-0.635940	0.199190
N176	N	1.351424	-0.135940	0.699190
H177	H	0.899695	-0.472338	1.068407
H178	H	1.399695	0.027662	1.568407
H179	H	1.056743	-1.079029	0.404749
H180	H	1.556743	-0.579029	0.904749
C181	C	1.069147	-0.274625	0.574373
C182	C	1.569147	0.225375	1.074373
N183	N	1.105023	-0.232749	0.545109
N184	N	1.605023	0.267251	1.045109
C185	C	0.887465	-1.091080	0.235116
C186	C	1.387465	-0.591080	0.735116
N187	N	0.851694	-1.125338	0.199165
N188	N	1.351694	-0.625338	0.699165
C189	C	1.069189	-0.274528	0.930132
C190	C	1.569189	0.225472	1.430132
N191	N	1.105062	-0.232650	0.900866
N192	N	1.605062	0.267350	1.400866
C193	C	1.069166	-0.274585	0.722807
C194	C	1.569166	0.225415	1.222807
N195	N	1.105054	-0.232698	0.752100
N196	N	1.605054	0.267302	1.252100
H197	H	1.056836	-0.288939	1.068473
H198	H	1.556836	0.211061	1.568473
H199	H	0.899682	-0.472380	0.940173
H200	H	1.399682	0.027620	1.440173
H201	H	0.899621	-0.472455	0.584404
H202	H	1.399621	0.027545	1.084404
C203	C	0.887268	-0.486860	0.722743
C204	C	1.387268	0.013140	1.222743
N205	N	0.851387	-0.528723	0.752014
N206	N	1.351387	-0.028723	1.252014
