data_functionalizedCrystal
_audit_creation_method	'MofGen! by Chris Wilmer'
_symmetry_space_group_name_H-M	'P1'
_symmetry_Int_Tables_number	1
_symmetry_cell_setting	triclinic
loop_
_symmetry_equiv_pos_as_xyz
  x,y,z
_cell_length_a	11.169417
_cell_length_b	19.805405
_cell_length_c	11.169409
_cell_angle_alpha	89.960143
_cell_angle_beta	89.980176
_cell_angle_gamma	90.027289
loop_
_atom_site_label
_atom_site_type_symbol
_atom_site_fract_x
_atom_site_fract_y
_atom_site_fract_z
Zn1	Zn	1.834828	-0.269393	-0.678480
Zn2	Zn	1.834661	-0.382602	-0.477771
Zn3	Zn	1.634114	-0.269434	-0.477814
Zn4	Zn	1.634065	-0.382547	-0.678415
O5	O	1.734417	-0.325994	-0.578120
O6	O	2.002756	-0.284416	-0.651864
O7	O	1.808009	-0.367630	-0.309827
O8	O	1.660830	-0.174712	-0.504478
O9	O	2.002633	-0.367590	-0.504404
O10	O	1.808293	-0.174681	-0.651907
O11	O	1.660668	-0.284486	-0.309859
O12	O	1.466158	-0.284433	-0.504416
O13	O	1.660746	-0.367496	-0.846374
O14	O	1.466122	-0.367536	-0.651797
O15	O	1.808246	-0.284362	-0.846421
O16	O	1.807962	-0.477311	-0.504341
O17	O	1.660585	-0.477271	-0.651754
C18	C	1.422593	-0.325983	-0.578105
C19	C	1.289193	-0.325995	-0.578127
C20	C	1.734282	-0.501850	-0.578062
C21	C	1.734334	-0.577082	-0.578077
C22	C	1.811148	-0.612424	-0.501400
C23	C	1.811199	-0.683113	-0.501426
C24	C	1.734429	-0.718457	-0.578125
C25	C	1.657612	-0.683110	-0.654811
C26	C	1.657568	-0.612422	-0.654790
C27	C	1.657789	-0.968183	-0.654900
C28	C	1.657837	-1.038875	-0.654913
C29	C	1.811420	-1.038873	-0.501537
C30	C	1.811376	-0.968186	-0.501515
C31	C	1.734564	-0.932845	-0.578205
C32	C	1.734511	-0.856196	-0.578177
C33	C	1.734475	-0.795104	-0.578148
C34	C	2.047460	-0.326004	-0.578136
C35	C	2.180860	-0.326009	-0.578143
C36	C	1.734509	-0.325919	-0.891163
C37	C	1.734549	-0.325886	-1.024563
C38	C	1.734586	-0.149451	-0.578205
C39	C	1.734657	-0.074219	-0.578241
C40	C	1.734395	-0.326020	-0.266295
C41	C	1.734588	-0.325861	-0.132896
H42	H	1.873657	-0.583652	-0.438938
H43	H	1.595020	-0.583647	-0.717230
H44	H	1.873748	-0.711886	-0.438987
F45	F	1.893177	-1.076492	-0.419921
F46	F	1.893084	-0.930574	-0.419881
F47	F	1.576125	-1.076490	-0.736552
H48	H	1.595244	-0.939413	-0.717341
H49	H	1.595110	-0.711893	-0.717266
