data_functionalizedCrystal
_audit_creation_method	'MofGen! by Chris Wilmer'
_symmetry_space_group_name_H-M	'P1'
_symmetry_Int_Tables_number	1
_symmetry_cell_setting	triclinic
loop_
_symmetry_equiv_pos_as_xyz
  x,y,z
_cell_length_a	12.759401
_cell_length_b	18.101395
_cell_length_c	18.101376
_cell_angle_alpha	89.903391
_cell_angle_beta	89.943748
_cell_angle_gamma	90.031265
loop_
_atom_site_label
_atom_site_type_symbol
_atom_site_fract_x
_atom_site_fract_y
_atom_site_fract_z
Zn1	Zn	1.606527	-0.294321	-0.418680
Zn2	Zn	2.106527	0.205679	0.081320
Zn3	Zn	1.606256	-0.418319	-0.294841
Zn4	Zn	2.106256	0.081681	0.205159
Zn5	Zn	1.430713	-0.294496	-0.294859
Zn6	Zn	1.930713	0.205504	0.205141
Zn7	Zn	1.430768	-0.418126	-0.418649
Zn8	Zn	1.930768	0.081874	0.081351
O9	O	1.518566	-0.356316	-0.356757
O10	O	2.018566	0.143684	0.143243
O11	O	1.753512	-0.310777	-0.402258
O12	O	2.253512	0.189223	0.097742
O13	O	1.582833	-0.402048	-0.191210
O14	O	2.082833	0.097952	0.308790
O15	O	1.454127	-0.190840	-0.311304
O16	O	1.954127	0.309160	0.188696
O17	O	1.753313	-0.401878	-0.311274
O18	O	2.253313	0.098122	0.188726
O19	O	1.583296	-0.190711	-0.402275
O20	O	2.083296	0.309289	0.097725
O21	O	1.453863	-0.311076	-0.191223
O22	O	1.953863	0.188924	0.308777
O23	O	1.283700	-0.310888	-0.311274
O24	O	1.783700	0.189112	0.188726
O25	O	1.454219	-0.401548	-0.522286
O26	O	1.954219	0.098452	-0.022286
O27	O	1.283739	-0.401718	-0.402222
O28	O	1.783739	0.098282	0.097778
O29	O	1.583349	-0.310590	-0.522309
O30	O	2.083349	0.189410	-0.022309
O31	O	1.582886	-0.521926	-0.311244
O32	O	2.082886	-0.021926	0.188756
O33	O	1.453955	-0.521784	-0.402205
O34	O	1.953955	-0.021784	0.097795
C35	C	1.245599	-0.356302	-0.356747
C36	C	1.745599	0.143698	0.143253
C37	C	1.128822	-0.356314	-0.356760
C38	C	1.628822	0.143686	0.143240
C39	C	1.074008	-0.403685	-0.404038
C40	C	1.574008	0.096315	0.095962
C41	C	0.964284	-0.403694	-0.404047
C42	C	1.464284	0.096306	0.095953
C43	C	0.964197	-0.308960	-0.309492
C44	C	1.464197	0.191040	0.190508
C45	C	1.073920	-0.308947	-0.309488
C46	C	1.573920	0.191053	0.190512
C47	C	1.074057	-0.458382	-0.458627
C48	C	1.574057	0.041618	0.041373
C49	C	0.964333	-0.458391	-0.458635
C50	C	1.464333	0.041609	0.041365
C51	C	1.518425	-0.548726	-0.356735
C52	C	2.018425	-0.048726	0.143265
C53	C	1.518461	-0.631040	-0.356751
C54	C	2.018461	-0.131040	0.143249
C55	C	1.518692	-0.930131	-0.356791
C56	C	2.018692	-0.430131	0.143209
C57	C	1.437761	-0.898747	-0.414163
C58	C	1.937761	-0.398747	0.085837
C59	C	1.437376	-0.813129	-0.413983
C60	C	1.937376	-0.313129	0.086017
C61	C	1.518578	-0.781749	-0.356772
C62	C	2.018578	-0.281749	0.143228
C63	C	1.488524	-0.812994	-0.278723
C64	C	1.988524	-0.312994	0.221277
C65	C	1.488002	-0.898639	-0.279066
C66	C	1.988002	-0.398639	0.220934
C67	C	1.629853	-0.898450	-0.376780
C68	C	2.129853	-0.398450	0.123220
C69	C	1.629201	-0.812797	-0.378492
C70	C	2.129201	-0.312797	0.121508
C71	C	1.518515	-0.697889	-0.356756
C72	C	2.018515	-0.197889	0.143244
C73	C	1.518752	-1.013991	-0.356801
C74	C	2.018752	-0.513991	0.143199
C75	C	1.792599	-0.356330	-0.356768
C76	C	2.292599	0.143670	0.143232
C77	C	1.909376	-0.356336	-0.356772
C78	C	2.409376	0.143664	0.143228
C79	C	1.518820	-0.356028	-0.549920
C80	C	2.018820	0.143972	-0.049920
C81	C	1.518929	-0.355905	-0.632234
C82	C	2.018929	0.144095	-0.132234
C83	C	1.518736	-0.163154	-0.356795
C84	C	2.018736	0.336846	0.143205
C85	C	1.518808	-0.080839	-0.356811
C86	C	2.018808	0.419161	0.143189
C87	C	1.518373	-0.356549	-0.164346
C88	C	2.018373	0.143451	0.335654
C89	C	1.518468	-0.356463	-0.082032
C90	C	2.018468	0.143537	0.417968
C91	C	1.518774	-0.356092	0.217058
C92	C	2.018774	0.143908	0.717058
C93	C	1.600746	-0.412753	0.185784
C94	C	2.100746	0.087247	0.685784
C95	C	1.600422	-0.413085	0.100167
C96	C	2.100422	0.086915	0.600167
C97	C	1.518623	-0.356276	0.068676
C98	C	2.018623	0.143724	0.568676
C99	C	1.408152	-0.377990	0.099953
C100	C	1.908152	0.122010	0.599953
C101	C	1.408715	-0.378296	0.185598
C102	C	1.908715	0.121704	0.685598
C103	C	1.546270	-0.277619	0.185236
C104	C	2.046270	0.222381	0.685236
C105	C	1.548632	-0.278126	0.099584
C106	C	2.048632	0.221874	0.599584
C107	C	1.518531	-0.356379	-0.015183
C108	C	2.018531	0.143621	0.484817
C109	C	1.518858	-0.355991	0.300917
C110	C	2.018858	0.144009	0.800917
H111	H	1.118545	-0.270368	-0.270995
H112	H	1.618545	0.229632	0.229005
Br113	Br	1.354516	-0.777393	-0.249990
Br114	Br	1.854516	-0.277393	0.250010
Br115	Br	1.123850	-0.432787	-0.554266
Br116	Br	1.623850	0.067213	-0.054266
H117	H	0.919483	-0.270395	-0.271005
H118	H	1.419483	0.229605	0.228995
Br119	Br	1.369717	-0.473937	0.219214
Br120	Br	1.869717	0.026063	0.719214
Br121	Br	1.581968	-0.933263	-0.205386
Br122	Br	2.081968	-0.433263	0.294614
Br123	Br	1.303514	-0.312559	0.220094
Br124	Br	1.803514	0.187441	0.720094
Br125	Br	1.130692	-0.549206	-0.424295
Br126	Br	1.630692	-0.049206	0.075705
H127	H	1.345412	-0.338075	0.079558
H128	H	1.845412	0.161925	0.579558
H129	H	0.930395	-0.437858	-0.513160
H130	H	1.430395	0.062142	-0.013160
Br131	Br	1.368368	-0.472676	0.064520
Br132	Br	1.868368	0.027324	0.564520
Br133	Br	1.570123	-0.510064	0.066321
Br134	Br	2.070123	-0.010064	0.566321
Br135	Br	1.468728	-0.777900	-0.510441
Br136	Br	1.968728	-0.277900	-0.010441
Br137	Br	0.914598	-0.553982	-0.432840
Br138	Br	1.414598	-0.053982	0.067160
H139	H	1.657238	-0.919931	-0.432723
H140	H	2.157238	-0.419931	0.067277
H141	H	1.625444	-0.257905	0.206688
H142	H	2.125444	0.242095	0.706688
Br143	Br	1.446745	-0.207249	0.218936
Br144	Br	1.946745	0.292751	0.718936
H145	H	1.456387	-0.919224	-0.472222
H146	H	1.956387	-0.419224	0.027778
Br147	Br	1.583673	-0.779136	-0.205529
Br148	Br	2.083673	-0.279136	0.294471
H149	H	1.651863	-0.792365	-0.435931
H150	H	2.151863	-0.292365	0.064069
H151	H	1.629929	-0.261759	0.079126
H152	H	2.129929	0.238241	0.579126
H153	H	1.355868	-0.920350	-0.401089
H154	H	1.855868	-0.420350	0.098911
H155	H	1.692695	-0.791432	-0.339750
H156	H	2.192695	-0.291432	0.160250
Br157	Br	1.300045	-0.779109	-0.391921
Br158	Br	1.800045	-0.279109	0.108079
Br159	Br	1.570895	-0.509094	0.221961
Br160	Br	2.070895	-0.009094	0.721961
Br161	Br	1.352564	-0.932084	-0.250842
Br162	Br	1.852564	-0.432084	0.249158
Br163	Br	1.730359	-0.932300	-0.307146
Br164	Br	2.230359	-0.432300	0.192854
Br165	Br	1.737012	-0.390373	0.064906
Br166	Br	2.237012	0.109627	0.564906
H167	H	1.682988	-0.399200	0.206244
H168	H	2.182988	0.100800	0.706244
Br169	Br	1.456208	-0.204009	0.063829
Br170	Br	1.956208	0.295991	0.563829
