data_functionalizedCrystal
_audit_creation_method	'MofGen! by Chris Wilmer'
_symmetry_space_group_name_H-M	'P1'
_symmetry_Int_Tables_number	1
_symmetry_cell_setting	triclinic
loop_
_symmetry_equiv_pos_as_xyz
  x,y,z
_cell_length_a	10.654550
_cell_length_b	17.699092
_cell_length_c	9.130313
_cell_angle_alpha	90.001219
_cell_angle_beta	89.996274
_cell_angle_gamma	83.885635
loop_
_atom_site_label
_atom_site_type_symbol
_atom_site_fract_x
_atom_site_fract_y
_atom_site_fract_z
O1	O	1.665979	0.106298	-0.121914
O2	O	1.300323	0.116426	-0.121890
O3	O	1.493476	0.001239	-0.121899
O4	O	1.472826	0.221485	-0.121904
O5	O	1.493474	0.001243	0.121700
O6	O	1.300321	0.116430	0.121709
O7	O	1.665976	0.106303	0.121685
Cu8	Cu	1.483148	0.111367	0.143940
Cu9	Cu	1.483151	0.111361	-0.144144
O10	O	1.472823	0.221490	0.121695
C11	C	1.253537	0.115684	-0.000087
C12	C	1.114133	0.113460	-0.000078
C13	C	1.033463	0.181280	-0.000101
C14	C	0.902479	0.179185	-0.000126
C15	C	0.932847	0.041443	-0.000112
C16	C	1.063828	0.043539	-0.000076
C17	C	1.015930	0.260804	-0.000116
C18	C	0.884945	0.258709	-0.000141
C19	C	1.492733	-0.026961	-0.000102
C20	C	1.490508	-0.110992	-0.000108
C21	C	1.489467	-0.150469	-0.132896
C22	C	1.487368	-0.229425	-0.132897
C23	C	1.486320	-0.268904	-0.000110
C24	C	1.487357	-0.229422	0.132688
C25	C	1.489447	-0.150466	0.132688
C26	C	1.478928	-0.547840	0.132690
C27	C	1.476841	-0.626802	0.132680
C28	C	1.476849	-0.626800	-0.132895
C29	C	1.478939	-0.547844	-0.132895
C30	C	1.479969	-0.508368	-0.000098
C31	C	1.482243	-0.422754	-0.000098
C32	C	1.484055	-0.354517	-0.000109
C33	C	1.712762	0.107044	-0.000121
C34	C	1.852167	0.109269	-0.000139
C35	C	1.473566	0.249689	-0.000106
C36	C	1.475791	0.333721	-0.000109
N37	N	1.483155	0.111371	0.346562
C38	C	1.568705	0.060384	0.423210
C39	C	1.568702	0.060376	0.576547
C40	C	1.397595	0.162348	0.576575
C41	C	1.397593	0.162352	0.423241
C42	C	1.667496	0.001513	0.423195
C43	C	1.667493	0.001505	0.576532
N44	N	1.483154	0.111359	0.653233
H45	H	0.842691	0.288670	-0.102095
Cl46	Cl	1.070309	0.299894	-0.162490
H47	H	1.490277	-0.118324	0.240817
H48	H	1.763778	0.014473	0.618142
Cl49	Cl	1.490794	-0.100847	-0.299839
Cl50	Cl	0.813772	0.295819	0.162221
H51	H	1.327921	0.203863	0.360835
Cl52	Cl	1.486062	-0.279050	-0.299838
H53	H	1.758358	0.019946	0.375630
H54	H	1.475984	-0.658943	0.240818
H55	H	1.647069	-0.056660	0.381578
H56	H	1.129506	-0.011687	-0.000036
H57	H	1.637939	-0.053468	0.624083
Cl58	Cl	1.480204	-0.498222	0.299635
H59	H	0.891872	-0.015484	-0.000133
H60	H	1.044717	0.291908	0.101835
Cl61	Cl	1.480263	-0.498218	-0.299834
H62	H	1.476003	-0.658950	-0.241024
Cl63	Cl	1.486023	-0.279051	0.299622
Cl64	Cl	1.290037	0.226435	0.672979
