data_functionalizedCrystal
_audit_creation_method	'MofGen! by Chris Wilmer'
_symmetry_space_group_name_H-M	'P1'
_symmetry_Int_Tables_number	1
_symmetry_cell_setting	triclinic
loop_
_symmetry_equiv_pos_as_xyz
  x,y,z
_cell_length_a	12.759401
_cell_length_b	10.686285
_cell_length_c	12.759393
_cell_angle_alpha	85.601997
_cell_angle_beta	89.981504
_cell_angle_gamma	85.631983
loop_
_atom_site_label
_atom_site_type_symbol
_atom_site_fract_x
_atom_site_fract_y
_atom_site_fract_z
Zn1	Zn	1.638392	-0.502271	-0.561964
Zn2	Zn	1.651790	-0.713314	-0.372831
Zn3	Zn	1.462698	-0.502337	-0.386299
Zn4	Zn	1.476180	-0.713217	-0.548479
O5	O	1.557265	-0.607785	-0.467393
O6	O	1.787191	-0.530279	-0.536882
O7	O	1.626671	-0.685396	-0.227592
O8	O	1.474756	-0.325751	-0.420881
O9	O	1.797034	-0.685332	-0.397927
O10	O	1.603837	-0.325703	-0.549942
O11	O	1.487747	-0.530392	-0.237487
O12	O	1.317465	-0.530298	-0.407805
O13	O	1.497733	-0.685167	-0.697293
O14	O	1.327370	-0.685231	-0.526958
O15	O	1.616910	-0.530185	-0.707200
O16	O	1.639744	-0.889878	-0.384851
O17	O	1.510724	-0.889807	-0.513898
C18	C	1.284296	-0.607762	-0.467380
C19	C	1.167521	-0.607782	-0.467398
C20	C	1.117852	-0.688585	-0.529321
C21	C	1.008129	-0.688601	-0.529332
C22	C	0.997753	-0.527008	-0.405486
C23	C	1.107474	-0.526986	-0.405482
C24	C	1.123842	-0.781883	-0.600819
C25	C	1.014119	-0.781899	-0.600829
C26	C	1.578179	-0.935627	-0.446473
C27	C	1.587222	-1.075879	-0.437558
C28	C	1.831300	-0.607809	-0.467406
C29	C	1.948077	-0.607819	-0.467412
C30	C	1.557331	-0.607658	-0.741435
C31	C	1.557358	-0.607603	-0.858215
C32	C	1.536298	-0.278662	-0.488418
C33	C	1.527363	-0.138410	-0.497378
C34	C	1.619422	-0.526897	-0.918238
C35	C	1.619445	-0.526851	-1.027965
C36	C	1.495336	-0.688230	-1.017635
C37	C	1.495309	-0.688268	-0.907911
C38	C	1.691079	-0.433730	-0.924202
C39	C	1.691101	-0.433684	-1.033929
C40	C	1.557255	-0.607821	-0.194423
C41	C	1.557407	-0.607519	-0.077666
H42	H	1.151983	-0.755822	-0.683887
H43	H	1.663058	-0.336009	-0.900676
H44	H	0.977889	-0.747016	-0.680405
C45	C	0.931699	-0.438144	-0.337382
H46	H	0.859239	-0.449731	-0.346249
H47	H	0.944274	-0.353383	-0.358282
H48	H	0.950825	-0.456514	-0.265588
C49	C	1.448793	-1.065790	-0.575788
H50	H	1.452828	-0.977890	-0.571706
H51	H	1.379587	-1.087408	-0.558997
H52	H	1.465508	-1.087253	-0.645046
H53	H	1.444815	-0.753901	-1.058112
H54	H	1.645384	-1.129647	-0.379512
C55	C	1.803278	-0.469048	-1.071916
H56	H	1.803289	-0.469002	-1.146377
H57	H	1.826633	-0.550491	-1.041904
H58	H	1.849113	-0.409446	-1.050917
C59	C	1.162111	-0.438093	-0.337381
H60	H	1.236056	-0.449640	-0.346253
H61	H	1.145278	-0.456446	-0.265592
H62	H	1.138715	-0.353336	-0.358303
C63	C	1.427018	-0.777021	-0.841890
H64	H	1.390073	-0.825056	-0.887205
H65	H	1.378164	-0.728743	-0.802179
H66	H	1.470689	-0.832036	-0.795566
C67	C	1.798493	-0.481037	-0.875199
H68	H	1.846347	-0.502072	-0.929305
H69	H	1.790609	-0.553419	-0.828661
H70	H	1.824799	-0.416789	-0.837410
H71	H	0.990575	-0.879603	-0.572669
C72	C	1.177820	-0.907221	-0.553278
H73	H	1.125932	-0.963054	-0.532115
H74	H	1.218740	-0.892134	-0.494004
H75	H	1.222079	-0.943813	-0.604399
C76	C	1.643765	-0.308251	-1.087930
H77	H	1.622676	-0.252420	-1.036049
H78	H	1.584471	-0.323214	-1.128874
H79	H	1.694960	-0.271724	-1.132171
