data_functionalizedCrystal
_audit_creation_method	'MofGen! by Chris Wilmer'
_symmetry_space_group_name_H-M	'P1'
_symmetry_Int_Tables_number	1
_symmetry_cell_setting	triclinic
loop_
_symmetry_equiv_pos_as_xyz
  x,y,z
_cell_length_a	35.288113
_cell_length_b	35.282844
_cell_length_c	35.277682
_cell_angle_alpha	120.000030
_cell_angle_beta	90.000425
_cell_angle_gamma	59.985448
loop_
_atom_site_label
_atom_site_type_symbol
_atom_site_fract_x
_atom_site_fract_y
_atom_site_fract_z
O1	O	-0.259855	-0.334376	-0.011290
O2	O	-0.204773	-0.256750	0.011214
O3	O	-0.204747	-0.334374	-0.066414
O4	O	-0.259881	-0.256752	0.066338
O5	O	-0.267796	-0.271323	-0.066407
O6	O	-0.267822	-0.193699	0.011221
O7	O	-0.322904	-0.271325	-0.011283
Cu8	Cu	-0.301120	-0.226755	-0.000030
Cu9	Cu	-0.226557	-0.301320	-0.000039
O10	O	-0.322930	-0.193701	0.066345
C11	C	-0.095943	0.006465	0.034094
C12	C	-0.118849	-0.016235	0.034417
C13	C	-0.027301	-0.062175	0.034097
C14	C	-0.050311	-0.084771	0.034420
C15	C	-0.095925	-0.062174	0.034099
C16	C	-0.050330	-0.016236	0.034415
C17	C	-0.137887	0.159560	0.021655
C18	C	-0.159497	0.202921	0.018138
C19	C	-0.204697	0.224672	0.016374
C20	C	-0.228128	0.271681	0.012552
C21	C	-0.228287	0.203062	0.018130
C22	C	-0.206678	0.159710	0.021653
C23	C	-0.161476	0.137959	0.023415
C24	C	-0.207065	-0.116515	0.021677
C25	C	-0.228810	-0.141634	0.018165
C26	C	-0.205351	-0.188603	0.016402
C27	C	-0.228920	-0.215846	0.012587
C28	C	-0.160145	-0.210451	0.018156
C29	C	-0.138404	-0.185328	0.021676
C30	C	-0.161869	-0.138359	0.023433
C31	C	0.138198	-0.116522	0.021668
C32	C	0.185071	-0.141646	0.018149
C33	C	0.208593	-0.188615	0.016388
C34	C	0.259415	-0.215860	0.012569
C35	C	0.185242	-0.210462	0.018142
C36	C	0.138371	-0.185338	0.021659
C37	C	0.114851	-0.138364	0.023426
C38	C	-0.138047	0.090946	0.027231
C39	C	-0.119372	0.053474	0.030274
C40	C	0.023519	-0.089416	0.030281
C41	C	0.064029	-0.111128	0.027240
C42	C	-0.119498	-0.089413	0.030284
C43	C	-0.138290	-0.111124	0.027245
C44	C	-0.364258	-0.456770	-0.023612
C45	C	-0.340857	-0.503556	-0.020399
C46	C	-0.409872	-0.434067	-0.023931
C47	C	-0.364282	-0.388121	-0.023604
C48	C	-0.340907	-0.361507	-0.020382
C49	C	-0.409896	-0.365522	-0.023922
C50	C	-0.432903	-0.388122	-0.023605
C51	C	-0.482899	-0.361511	-0.020383
C52	C	-0.341354	-0.434065	-0.023930
C53	C	-0.523291	-0.340011	-0.017779
C54	C	-0.321952	-0.541354	-0.017801
C55	C	-0.322022	-0.340006	-0.017777
C56	C	-0.573964	-0.313038	-0.014513
C57	C	-0.298234	-0.588774	-0.014544
C58	C	-0.298331	-0.313032	-0.014510
C59	C	-0.095801	-0.466212	-0.438584
C60	C	-0.050179	-0.512156	-0.461507
C61	C	-0.095801	-0.466212	-0.369941
C62	C	-0.050179	-0.512156	-0.392968
C63	C	-0.027156	-0.534859	-0.438590
C64	C	-0.118720	-0.443613	-0.392961
C65	C	-0.206997	-0.342589	-0.480488
C66	C	-0.228756	-0.317316	-0.502091
C67	C	-0.205301	-0.339009	-0.547300
C68	C	-0.228889	-0.311603	-0.570723
C69	C	-0.160085	-0.385979	-0.570907
C70	C	-0.138332	-0.411252	-0.549306
C71	C	-0.161789	-0.389555	-0.504094
C72	C	0.138377	-0.687972	-0.549793
C73	C	0.185255	-0.731338	-0.571555
C74	C	0.208773	-0.753091	-0.548104
C75	C	0.259601	-0.800105	-0.571692
C76	C	0.185407	-0.731478	-0.502888
C77	C	0.138530	-0.688121	-0.481130
C78	C	0.115018	-0.666368	-0.504588
C79	C	-0.206997	-0.342589	-0.204397
C80	C	-0.228755	-0.317311	-0.157516
C81	C	-0.205299	-0.339004	-0.134002
C82	C	-0.228887	-0.311598	-0.083170
C83	C	-0.160086	-0.385970	-0.157370
C84	C	-0.138330	-0.411243	-0.204250
C85	C	-0.161792	-0.389551	-0.227761
C86	C	-0.138195	-0.416961	-0.480674
C87	C	-0.119391	-0.438806	-0.462005
C88	C	-0.119391	-0.438806	-0.319111
C89	C	-0.138196	-0.416961	-0.278594
C90	C	0.023672	-0.581873	-0.462183
C91	C	0.064188	-0.619349	-0.480990
O92	O	0.408892	-0.271336	-0.011291
O93	O	0.276164	-0.193713	0.011202
O94	O	0.353787	-0.271346	-0.066421
O95	O	0.331268	-0.193702	0.066332
O96	O	0.353804	-0.334390	-0.066416
O97	O	0.276180	-0.256756	0.011207
O98	O	0.408908	-0.334379	-0.011287
Cu99	Cu	0.342546	-0.301324	-0.000040
Cu100	Cu	0.342526	-0.226768	-0.000045
O101	O	0.331285	-0.256745	0.066337
O102	O	-0.322789	0.397311	-0.011322
O103	O	-0.267651	0.287070	0.011181
O104	O	-0.267645	0.287053	-0.066446
O105	O	-0.322795	0.397328	0.066305
O106	O	-0.204616	0.287052	-0.066448
O107	O	-0.204623	0.287069	0.011179
O108	O	-0.259760	0.397310	-0.011323
Cu109	Cu	-0.226437	0.342189	-0.000072
Cu110	Cu	-0.300975	0.342190	-0.000070
O111	O	-0.259767	0.397327	0.066304
O112	O	0.409101	-0.925752	-0.602685
O113	O	0.276361	-0.815495	-0.547552
O114	O	0.353955	-0.815494	-0.547549
O115	O	0.331506	-0.925753	-0.602687
O116	O	0.353957	-0.815495	-0.610597
O117	O	0.276362	-0.815497	-0.610599
O118	O	0.409103	-0.925753	-0.665732
Cu119	Cu	0.342733	-0.870625	-0.643922
Cu120	Cu	0.342731	-0.870623	-0.569362
O121	O	0.331508	-0.925755	-0.665734
O122	O	-0.259884	-0.256748	-0.665371
O123	O	-0.204748	-0.334374	-0.610256
O124	O	-0.204775	-0.256748	-0.610246
O125	O	-0.259857	-0.334373	-0.665381
O126	O	-0.267823	-0.193698	-0.547193
O127	O	-0.267795	-0.271324	-0.547203
O128	O	-0.322932	-0.193698	-0.602318
Cu129	Cu	-0.301121	-0.226754	-0.569003
Cu130	Cu	-0.226559	-0.301318	-0.643571
O131	O	-0.322905	-0.271324	-0.602328
C132	C	-0.433013	-0.071311	0.293214
C133	C	-0.483015	-0.024525	0.316610
C134	C	-0.409990	-0.094014	0.316131
C135	C	-0.364367	-0.139958	0.224565
C136	C	-0.340974	-0.166571	0.174561
C137	C	-0.341449	-0.162557	0.247586
C138	C	-0.364368	-0.139958	0.293208
C139	C	-0.340975	-0.166569	0.316598
C140	C	-0.409989	-0.094015	0.247592
C141	C	-0.322076	-0.188069	0.335493
C142	C	-0.523412	0.013272	0.335510
C143	C	-0.322074	-0.188072	0.134162
C144	C	-0.298367	-0.215042	0.359199
C145	C	-0.574092	0.060691	0.359223
C146	C	-0.298364	-0.215045	0.083480
C147	C	0.318955	-0.139933	0.293205
C148	C	0.322181	-0.166539	0.316599
C149	C	0.318623	-0.093991	0.316121
C150	C	0.318954	-0.139943	0.224557
C151	C	0.322178	-0.166559	0.174553
C152	C	0.318622	-0.094001	0.247578
C153	C	0.318938	-0.071294	0.293200
C154	C	0.322144	-0.024511	0.316589
C155	C	0.318639	-0.162536	0.247583
C156	C	0.324736	0.013285	0.335484
C157	C	0.324788	-0.188034	0.335499
C158	C	0.324784	-0.188064	0.134154
C159	C	0.327987	0.060702	0.359190
C160	C	0.328058	-0.215001	0.359211
C161	C	0.328052	-0.215041	0.083473
C162	C	-0.364296	0.611920	0.293175
C163	C	-0.340922	0.638535	0.316568
C164	C	-0.409912	0.634522	0.316095
C165	C	-0.364270	0.543265	0.224529
C166	C	-0.340868	0.496473	0.174524
C167	C	-0.409885	0.565971	0.247553
C168	C	-0.432919	0.611920	0.293175
C169	C	-0.482915	0.638534	0.316567
C170	C	-0.341367	0.565971	0.247553
C171	C	-0.523308	0.660036	0.335466
C172	C	-0.322038	0.660038	0.335466
C173	C	-0.321961	0.458671	0.134125
C174	C	-0.573982	0.687011	0.359175
C175	C	-0.298347	0.687014	0.359175
C176	C	-0.298242	0.411245	0.083443
C177	C	0.376736	-0.534611	-0.438590
C178	C	0.377050	-0.511914	-0.461511
C179	C	0.376720	-0.465962	-0.369947
C180	C	0.377034	-0.443369	-0.392973
C181	C	0.376718	-0.465972	-0.438594
C182	C	0.377052	-0.511904	-0.392968
C183	C	0.364351	-0.687713	-0.480496
C184	C	0.360850	-0.731076	-0.502099
C185	C	0.359091	-0.752833	-0.547308
C186	C	0.355285	-0.799845	-0.570731
C187	C	0.360838	-0.731227	-0.570913
C188	C	0.364346	-0.687871	-0.549312
C189	C	0.366103	-0.666114	-0.504101
C190	C	0.364277	-0.411646	-0.549793
C191	C	0.360757	-0.386531	-0.571554
C192	C	0.358979	-0.339558	-0.548101
C193	C	0.355156	-0.312319	-0.571688
C194	C	0.360728	-0.317705	-0.502887
C195	C	0.364256	-0.342824	-0.481130
C196	C	0.366027	-0.389797	-0.504588
C197	C	0.364285	-0.411596	-0.204405
C198	C	0.360761	-0.386467	-0.157524
C199	C	0.358986	-0.339495	-0.134010
C200	C	0.355162	-0.312245	-0.083178
C201	C	0.360731	-0.317651	-0.157377
C202	C	0.364253	-0.342780	-0.204256
C203	C	0.366034	-0.389757	-0.227768
C204	C	0.369902	-0.619098	-0.480680
C205	C	0.372933	-0.581623	-0.462011
C206	C	0.372898	-0.438716	-0.319117
C207	C	0.369854	-0.416999	-0.278600
C208	C	0.372895	-0.438736	-0.462185
C209	C	0.369849	-0.417028	-0.480991
O210	O	0.353784	-0.271260	0.452826
O211	O	0.331275	-0.193654	0.397692
O212	O	0.408895	-0.271275	0.397688
O213	O	0.276165	-0.193638	0.452830
O214	O	0.408910	-0.334328	0.334642
O215	O	0.331290	-0.256707	0.334646
O216	O	0.353799	-0.334313	0.389780
Cu217	Cu	0.342546	-0.301267	0.356456
Cu218	Cu	0.342528	-0.226699	0.431015
O219	O	0.276180	-0.256692	0.389784
C220	C	-0.027256	-0.062279	-0.438625
C221	C	-0.050263	-0.084881	-0.461544
C222	C	-0.095904	0.006376	-0.369978
C223	C	-0.118807	-0.016330	-0.393002
C224	C	-0.095878	-0.062279	-0.438624
C225	C	-0.050289	-0.016330	-0.393002
C226	C	0.138246	-0.116629	-0.480543
C227	C	0.185118	-0.141752	-0.502150
C228	C	0.208644	-0.188731	-0.547359
C229	C	0.259468	-0.215979	-0.570786
C230	C	0.185294	-0.210584	-0.570962
C231	C	0.138424	-0.185457	-0.549358
C232	C	0.114900	-0.138478	-0.504146
C233	C	-0.137737	-0.185914	-0.549816
C234	C	-0.159327	-0.211189	-0.571575
C235	C	-0.204527	-0.189497	-0.548119
C236	C	-0.227938	-0.216902	-0.571704
C237	C	-0.228139	-0.142522	-0.502904
C238	C	-0.206553	-0.117243	-0.481150
C239	C	-0.161347	-0.138947	-0.504611
C240	C	-0.137866	0.159511	-0.204438
C241	C	-0.159479	0.202879	-0.157556
C242	C	-0.204681	0.224635	-0.134039
C243	C	-0.228118	0.271656	-0.083207
C244	C	-0.228266	0.203019	-0.157403
C245	C	-0.206650	0.159651	-0.204283
C246	C	-0.161450	0.137903	-0.227798
C247	C	0.064077	-0.111238	-0.480721
C248	C	0.023567	-0.089523	-0.462049
C249	C	-0.119338	0.053397	-0.319148
C250	C	-0.138018	0.090879	-0.278631
C251	C	-0.119285	-0.089687	-0.462213
C252	C	-0.137943	-0.111534	-0.481016
H253	H	-0.031859	0.002767	0.034933
H254	H	-0.303877	-0.453065	-0.024445
C255	C	-0.290809	-0.212500	0.222611
N256	N	-0.252668	-0.250116	0.203802
H257	H	-0.140992	-0.403639	-0.607717
C258	C	0.112687	-0.209369	0.023592
N259	N	0.093343	-0.227471	0.025047
H260	H	-0.101516	-0.449484	-0.223273
H261	H	0.365783	-0.670003	-0.443684
H262	H	-0.101082	0.141855	0.023091
H263	H	-0.428474	-0.075005	0.353619
H264	H	-0.428355	0.546965	0.229066
C265	C	-0.434893	0.684471	0.366736
N266	N	-0.453709	0.722092	0.404877
C267	C	0.366232	-0.463318	-0.575600
N268	N	0.367705	-0.502237	-0.595036
C269	C	-0.290734	0.540298	0.222582
N270	N	-0.252597	0.520959	0.203775
C271	C	-0.434831	-0.459726	-0.024613
N272	N	-0.453634	-0.479046	-0.025120
H273	H	0.377537	-0.406398	-0.374487
C274	C	0.211174	-0.262258	-0.620691
N275	N	0.230667	-0.301181	-0.658149
C276	C	-0.133350	-0.262862	-0.621306
N277	N	-0.113783	-0.301784	-0.658764
C278	C	-0.434961	-0.068346	0.222623
N279	N	-0.453768	-0.049013	0.203818
C280	C	-0.232528	-0.065573	-0.431416
N281	N	-0.252092	-0.026656	-0.393956
C282	C	-0.133533	0.226653	-0.131859
N283	N	-0.113991	0.244562	-0.112505
C284	C	0.358842	-0.410498	-0.131824
N285	N	0.357399	-0.428601	-0.112468
C286	C	-0.169479	0.009433	0.035113
N287	N	-0.207613	0.028764	0.035637
H288	H	0.365770	-0.670284	-0.568535
C289	C	0.377761	-0.537593	-0.512154
N290	N	0.378297	-0.556934	-0.550297
H291	H	-0.031696	-0.531156	-0.498992
H292	H	-0.101519	-0.449495	-0.568529
H293	H	0.318102	-0.075008	0.229089
H294	H	-0.031694	-0.531150	-0.374482
H295	H	0.318100	-0.074986	0.353607
H296	H	0.377571	-0.530900	-0.374482
H297	H	0.359332	-0.404326	-0.608366
H298	H	-0.156200	-0.406634	-0.374471
C299	C	0.112516	-0.664050	-0.575599
N300	N	0.093036	-0.646029	-0.595033
H301	H	-0.226175	-0.078271	0.023109
C302	C	0.210954	-0.755103	-0.621286
N303	N	0.230310	-0.773001	-0.658744
H304	H	0.359419	-0.748659	-0.482874
C305	C	0.317960	-0.212481	0.222613
N306	N	0.317450	-0.250100	0.203805
C307	C	0.366240	-0.463268	-0.230266
N308	N	0.367711	-0.502186	-0.249746
H309	H	-0.226102	-0.324919	-0.443676
H310	H	-0.031815	0.002671	-0.374519
C311	C	0.358900	-0.755159	-0.620640
N312	N	0.357437	-0.773182	-0.658094
H313	H	0.359287	-0.279462	-0.483793
C314	C	0.366177	-0.318784	-0.431396
N315	N	0.367622	-0.300674	-0.393935
H316	H	-0.264946	-0.124856	-0.483808
C317	C	-0.278489	-0.265649	-0.131815
N318	N	-0.315951	-0.226739	-0.112458
C319	C	-0.277991	0.226952	-0.131534
N320	N	-0.315443	0.244978	-0.112051
C321	C	0.366178	-0.318753	-0.229958
N322	N	0.367628	-0.300655	-0.249316
H323	H	0.359283	-0.279401	-0.138228
H324	H	-0.226102	-0.324920	-0.223538
C325	C	0.210754	-0.117612	0.016220
N326	N	0.230097	-0.099506	0.014770
H327	H	-0.156289	0.002680	-0.374517
H328	H	-0.265569	-0.279073	-0.482867
H329	H	-0.031767	-0.121859	-0.499027
H330	H	-0.101066	0.141815	-0.223585
C331	C	0.112372	-0.064949	-0.430814
N332	N	0.092883	-0.026023	-0.393358
H333	H	0.119051	-0.078275	0.023105
C334	C	0.210800	-0.117717	-0.476183
N335	N	0.230143	-0.099613	-0.456624
C336	C	-0.434875	-0.315578	-0.024616
N337	N	-0.453689	-0.277963	-0.025139
H338	H	0.119415	-0.203250	-0.568578
H339	H	-0.141045	-0.248691	0.016727
C340	C	0.211274	-0.755409	-0.477091
N341	N	0.230759	-0.773433	-0.457661
H342	H	-0.100931	-0.203587	-0.568923
C343	C	-0.232598	0.135881	-0.229982
N344	N	-0.252144	0.117979	-0.249338
H345	H	-0.031822	-0.121736	0.034940
H346	H	-0.140287	0.220511	0.016707
C347	C	-0.134283	-0.409835	-0.131505
N348	N	-0.114849	-0.427809	-0.112025
C349	C	-0.232627	0.135942	0.023583
N350	N	-0.252171	0.118039	0.025035
C351	C	-0.278005	0.226991	0.016189
N352	N	-0.315454	0.245012	0.014726
H353	H	-0.265616	-0.123843	0.016736
C354	C	-0.088680	-0.209363	0.023604
N355	N	-0.051226	-0.227468	0.025053
H356	H	0.204395	-0.248707	0.016709
H357	H	0.119508	-0.670528	-0.444318
