data_functionalizedCrystal
_audit_creation_method	'MofGen! by Chris Wilmer'
_symmetry_space_group_name_H-M	'P1'
_symmetry_Int_Tables_number	1
_symmetry_cell_setting	triclinic
loop_
_symmetry_equiv_pos_as_xyz
  x,y,z
_cell_length_a	17.639617
_cell_length_b	18.050590
_cell_length_c	17.640968
_cell_angle_alpha	101.233828
_cell_angle_beta	109.666032
_cell_angle_gamma	101.203438
loop_
_atom_site_label
_atom_site_type_symbol
_atom_site_fract_x
_atom_site_fract_y
_atom_site_fract_z
Zn1	Zn	1.354380	0.098231	0.721249
Zn2	Zn	1.326420	-0.057456	0.583398
Zn3	Zn	1.188673	0.035293	0.555517
Zn4	Zn	1.216510	-0.057384	0.693281
O5	O	1.271496	0.004671	0.638361
O6	O	1.466018	0.103888	0.726336
O7	O	1.284797	-0.071523	0.464354
O8	O	1.210706	0.147583	0.577538
O9	O	1.445476	-0.010495	0.625058
O10	O	1.332451	0.193823	0.699301
O11	O	1.183595	-0.003380	0.443869
O12	O	1.077019	-0.003310	0.550418
O13	O	1.258150	-0.010371	0.812337
O14	O	1.097470	-0.071400	0.651633
O15	O	1.359443	0.103958	0.832885
O16	O	1.311789	-0.161388	0.597937
O17	O	1.231038	-0.161335	0.678668
C18	C	1.057336	-0.044177	0.594965
C19	C	0.965722	-0.065088	0.576420
C20	C	0.717937	0.163590	0.779452
C21	C	0.631847	0.143919	0.762009
C22	C	0.610448	0.024935	0.656396
C23	C	0.696538	0.044594	0.673833
C24	C	0.750275	0.113923	0.735361
C25	C	0.728877	-0.005072	0.629742
C26	C	0.814958	0.014588	0.647174
C27	C	0.868701	0.083915	0.708698
C28	C	0.836357	0.133584	0.752794
C29	C	0.675137	-0.074398	0.568209
C30	C	0.707475	-0.124065	0.524118
C31	C	0.793559	-0.104408	0.541555
C32	C	0.847302	-0.035081	0.603079
C33	C	0.825903	-0.154077	0.497459
C34	C	0.911984	-0.134417	0.514892
C35	C	0.933383	-0.015421	0.620511
C36	C	1.271426	-0.188303	0.638315
C37	C	1.271477	-0.270835	0.638339
C38	C	1.315519	-0.470244	0.594538
C39	C	1.350866	-0.497806	0.673841
C40	C	1.271530	-0.421947	0.638381
C41	C	1.236274	-0.541440	0.559129
C42	C	1.271582	-0.567916	0.638416
C43	C	1.306924	-0.448404	0.717732
C44	C	1.192287	-0.492053	0.602962
C45	C	1.227616	-0.519588	0.682311
C46	C	1.271502	-0.337858	0.638361
C47	C	1.271612	-0.652001	0.638445
C48	C	1.486492	0.053709	0.681927
C49	C	1.578110	0.074606	0.700492
C50	C	1.315020	0.053822	0.853355
C51	C	1.333568	0.074767	0.944973
C52	C	1.271592	0.198408	0.638430
C53	C	1.271633	0.280967	0.638459
C54	C	1.228189	-0.044225	0.424213
C55	C	1.209801	-0.064924	0.332629
C56	C	1.130910	-0.153972	1.192805
C57	C	1.148355	-0.134277	1.278897
C58	C	1.253823	-0.015236	1.300282
C59	C	1.236383	-0.034919	1.214189
C60	C	1.174927	-0.104288	1.160457
C61	C	1.280400	0.014765	1.181842
C62	C	1.262965	-0.004919	1.095757
C63	C	1.201513	-0.074286	1.042020
C64	C	1.157491	-0.123972	1.074373
C65	C	1.341860	0.084131	1.235576
C66	C	1.385877	0.133815	1.203229
C67	C	1.368438	0.114135	1.117142
C68	C	1.306986	0.044767	1.063405
C69	C	1.412459	0.163820	1.084789
C70	C	1.395024	0.144137	0.998705
C71	C	1.289551	0.025084	0.977320
H72	H	0.977141	0.041032	0.670617
C73	C	1.441430	-0.502197	0.714335
N74	N	1.509643	-0.505504	0.744829
H75	H	1.190449	-0.541111	0.719457
C76	C	1.480059	0.240125	1.143905
N77	N	1.530973	0.297600	1.188431
H78	H	1.107427	-0.180446	1.030616
C79	C	1.365809	-0.440925	0.544523
N80	N	1.403691	-0.418837	0.506858
C81	C	1.443443	0.198793	0.963120
N82	N	1.479916	0.239960	0.936318
H83	H	1.125262	-0.488793	0.572966
H84	H	1.336711	-0.408358	0.784812
H85	H	1.239487	-0.031391	0.933564
H86	H	1.435917	0.190294	1.246989
H87	H	1.206435	-0.581579	0.492091
C88	C	1.182333	-0.095938	0.947324
N89	N	1.167885	-0.112245	0.875998
H90	H	1.080846	-0.210446	1.149049
H91	H	0.782136	-0.210520	0.447357
C92	C	0.963394	0.105541	0.727875
N93	N	1.034717	0.121828	0.742321
H94	H	0.761694	0.220043	0.829558
C95	C	1.099926	-0.188938	1.314474
N96	N	1.063450	-0.230108	1.341271
H97	H	1.356056	0.100154	1.305671
C98	C	0.895475	0.209846	0.820483
N99	N	0.940002	0.267285	0.871464
H100	H	0.566683	-0.031511	0.606297
C101	C	0.596280	0.198560	0.810521
N102	N	0.569490	0.239716	0.847060
C103	C	0.580444	-0.096024	0.549036
N104	N	0.509122	-0.112313	0.534597
H105	H	0.663710	-0.180511	0.474019
C106	C	0.947560	-0.189055	0.466392
N107	N	0.974355	-0.230209	0.429860
C108	C	1.321416	0.061073	1.359395
N109	N	1.372324	0.118553	1.403917
