data_functionalizedCrystal
_audit_creation_method	'MofGen! by Chris Wilmer'
_symmetry_space_group_name_H-M	'P1'
_symmetry_Int_Tables_number	1
_symmetry_cell_setting	triclinic
loop_
_symmetry_equiv_pos_as_xyz
  x,y,z
_cell_length_a	17.699083
_cell_length_b	10.654541
_cell_length_c	16.176319
_cell_angle_alpha	89.993456
_cell_angle_beta	89.998611
_cell_angle_gamma	83.883472
loop_
_atom_site_label
_atom_site_type_symbol
_atom_site_fract_x
_atom_site_fract_y
_atom_site_fract_z
O1	O	1.005088	0.158809	-0.068630
O2	O	1.505088	0.658809	0.431370
O3	O	0.784840	0.179471	-0.068657
O4	O	1.284840	0.679471	0.431343
O5	O	0.900029	-0.013688	-0.068638
O6	O	1.400029	0.486312	0.431362
O7	O	0.889899	0.351968	-0.068649
O8	O	1.389899	0.851968	0.431351
O9	O	0.900013	-0.013701	0.068855
O10	O	1.400013	0.486299	0.568855
O11	O	0.784824	0.179458	0.068836
O12	O	1.284824	0.679458	0.568836
O13	O	1.005072	0.158797	0.068863
O14	O	1.505072	0.658797	0.568863
Cu15	Cu	0.894946	0.169126	0.081404
Cu16	Cu	1.394946	0.669126	0.581404
Cu17	Cu	0.894965	0.169141	-0.081198
Cu18	Cu	1.394965	0.669141	0.418802
O19	O	0.889883	0.351956	0.068844
O20	O	1.389883	0.851956	0.568844
C21	C	0.756631	0.178724	0.000086
C22	C	1.256631	0.678724	0.500086
C23	C	0.672599	0.176503	0.000076
C24	C	1.172599	0.676503	0.500076
C25	C	0.624698	0.289883	0.000072
C26	C	1.124698	0.789883	0.500072
C27	C	0.545741	0.287789	0.000083
C28	C	1.045741	0.787789	0.500083
C29	C	0.514687	0.172313	0.000091
C30	C	1.014687	0.672313	0.500091
C31	C	0.562594	0.058924	0.000097
C32	C	1.062594	0.558924	0.500097
C33	C	0.641549	0.061020	0.000092
C34	C	1.141549	0.561020	0.500092
C35	C	0.244177	0.050470	0.000118
C36	C	0.744177	0.550470	0.500118
C37	C	0.165216	0.048383	0.000120
C38	C	0.665216	0.548383	0.500120
C39	C	0.148369	0.277239	0.000109
C40	C	0.648369	0.777239	0.500109
C41	C	0.227324	0.279335	0.000104
C42	C	0.727324	0.779335	0.500104
C43	C	0.275224	0.165946	0.000114
C44	C	0.775224	0.665946	0.500114
C45	C	0.360838	0.168219	0.000104
C46	C	0.860838	0.668219	0.500104
C47	C	0.429075	0.170039	0.000096
C48	C	0.929075	0.670039	0.500096
C49	C	0.899277	-0.060480	0.000108
C50	C	1.399277	0.439520	0.500108
C51	C	0.897053	-0.199884	0.000106
C52	C	1.397053	0.300116	0.500106
C53	C	1.034792	-0.230266	0.000134
C54	C	1.534792	0.269734	0.500134
C55	C	1.102614	-0.310947	0.000149
C56	C	1.602614	0.189053	0.500149
C57	C	1.100519	-0.441929	0.000146
C58	C	1.600519	0.058071	0.500146
C59	C	1.030596	-0.492230	0.000126
C60	C	1.530596	0.007770	0.500126
C61	C	0.962775	-0.411549	0.000110
C62	C	1.462775	0.088451	0.500110
C63	C	0.964876	-0.280566	0.000116
C64	C	1.464876	0.219434	0.500116
C65	C	0.825037	-0.381167	0.000077
C66	C	1.325037	0.118833	0.500077
C67	C	0.827130	-0.250185	0.000086
C68	C	1.327130	0.249815	0.500086
C69	C	0.755114	-0.431468	0.000056
C70	C	1.255114	0.068532	0.500056
C71	C	0.687291	-0.350786	0.000047
C72	C	1.187291	0.149214	0.500047
C73	C	0.689388	-0.219798	0.000051
C74	C	1.189388	0.280202	0.500051
C75	C	0.759308	-0.169504	0.000071
C76	C	1.259308	0.330496	0.500071
C77	C	1.033281	0.159543	0.000118
C78	C	1.533281	0.659543	0.500118
C79	C	1.117313	0.161764	0.000123
C80	C	1.617313	0.661764	0.500123
C81	C	0.890634	0.398747	0.000096
C82	C	1.390634	0.898747	0.500096
C83	C	0.892859	0.538151	0.000092
C84	C	1.392859	1.038151	0.500092
N85	N	0.894939	0.169115	0.195769
N86	N	1.394939	0.669115	0.695769
N87	N	0.894979	0.169142	-0.195563
N88	N	1.394979	0.669142	0.304437
C89	C	0.945960	0.083620	0.239042
C90	C	1.445960	0.583620	0.739042
C91	C	0.945964	0.083618	0.325589
C92	C	1.445964	0.583618	0.825589
C93	C	0.894949	0.169120	0.368862
C94	C	1.394949	0.669120	0.868862
C95	C	0.843923	0.254620	0.325583
C96	C	1.343923	0.754620	0.825583
C97	C	0.843916	0.254614	0.239037
C98	C	1.343916	0.754614	0.739037
C99	C	0.843949	0.254643	0.674611
C100	C	1.343949	0.754643	1.174611
C101	C	0.843961	0.254645	0.761163
C102	C	1.343961	0.754645	1.261163
C103	C	0.945997	0.083647	0.761162
C104	C	1.445997	0.583647	1.261162
C105	C	0.945990	0.083642	0.674617
C106	C	1.445990	0.583642	1.174617
C107	C	0.894961	0.169137	0.631346
C108	C	1.394961	0.669137	1.131346
C109	C	0.894956	0.169136	0.537502
C110	C	1.394956	0.669136	1.037502
C111	C	0.894957	0.169128	0.462704
C112	C	1.394957	0.669128	0.962704
H113	H	0.109359	0.369565	0.000105
H114	H	0.609359	0.869565	0.500105
Cl115	Cl	0.604121	-0.118380	0.000026
Cl116	Cl	1.104121	0.381620	0.500026
H117	H	0.649976	0.383917	0.000065
H118	H	1.149976	0.883917	0.500065
Cl119	Cl	1.037431	-0.065604	0.000156
Cl120	Cl	1.537431	0.434396	0.500156
H121	H	0.537303	-0.035099	0.000116
H122	H	1.037303	0.464901	0.500116
H123	H	0.987545	0.014029	0.796403
H124	H	1.487545	0.514029	1.296403
Cl125	Cl	0.779769	0.362096	0.184638
Cl126	Cl	1.279769	0.862096	0.684638
H127	H	1.028897	-0.598883	0.000113
H128	H	1.528897	-0.098883	0.500113
Cl129	Cl	0.779786	0.362104	0.379981
Cl130	Cl	1.279786	0.862104	0.879981
Cl131	Cl	1.190513	-0.247705	0.000170
Cl132	Cl	1.690513	0.252295	0.500170
Cl133	Cl	0.304384	-0.092076	0.000130
Cl134	Cl	0.804384	0.407924	0.500130
Cl135	Cl	0.485526	0.430331	0.000074
Cl136	Cl	0.985526	0.930331	0.500074
Cl137	Cl	1.010100	-0.023869	0.184651
Cl138	Cl	1.510100	0.476131	0.684651
Cl139	Cl	0.266359	0.424510	0.000089
Cl140	Cl	0.766359	0.924510	0.500089
Cl141	Cl	0.126178	-0.096798	0.000131
Cl142	Cl	0.626178	0.403202	0.500131
Cl143	Cl	1.010105	-0.023865	0.379990
Cl144	Cl	1.510105	0.476135	0.879990
Cl145	Cl	0.701768	-0.081522	0.000100
Cl146	Cl	1.201768	0.418478	0.500100
H147	H	1.155746	-0.507621	0.000152
H148	H	1.655746	-0.007621	0.500152
Cl149	Cl	0.599397	-0.414029	0.000011
Cl150	Cl	1.099397	0.085971	0.500011
H151	H	0.753413	-0.538121	0.000049
H152	H	1.253413	-0.038121	0.500049
Cl153	Cl	0.761951	-0.004843	0.000081
Cl154	Cl	1.261951	0.495157	0.500081
H155	H	0.987533	0.014023	0.639387
H156	H	1.487533	0.514023	1.139387
H157	H	0.802416	0.324273	0.796394
H158	H	1.302416	0.824273	1.296394
H159	H	0.802401	0.324258	0.639386
H160	H	1.302401	0.824258	1.139386
