data_functionalizedCrystal
_audit_creation_method	'MofGen! by Chris Wilmer'
_symmetry_space_group_name_H-M	'P1'
_symmetry_Int_Tables_number	1
_symmetry_cell_setting	triclinic
loop_
_symmetry_equiv_pos_as_xyz
  x,y,z
_cell_length_a	18.101398
_cell_length_b	18.101389
_cell_length_c	18.215405
_cell_angle_alpha	90.020965
_cell_angle_beta	89.976963
_cell_angle_gamma	89.985654
loop_
_atom_site_label
_atom_site_type_symbol
_atom_site_fract_x
_atom_site_fract_y
_atom_site_fract_z
Zn1	Zn	1.132153	-0.418628	0.293098
Zn2	Zn	1.132062	-0.294781	0.416148
Zn3	Zn	1.008312	-0.294811	0.293096
Zn4	Zn	1.008276	-0.418592	0.416123
O5	O	1.070201	-0.356703	0.354616
O6	O	1.235774	-0.402203	0.309432
O7	O	1.115624	-0.191152	0.399835
O8	O	1.024793	-0.311264	0.190112
O9	O	1.235707	-0.311213	0.399837
O10	O	1.115778	-0.402232	0.190113
O11	O	1.024705	-0.191174	0.309429
O12	O	0.904674	-0.311228	0.309405
O13	O	1.024732	-0.522229	0.399794
O14	O	0.904648	-0.402169	0.399792
O15	O	1.115743	-0.522256	0.309407
O16	O	1.115589	-0.311177	0.519129
O17	O	1.024644	-0.402140	0.519111
C18	C	0.877790	-0.356698	0.354596
C19	C	0.795476	-0.356713	0.354605
C20	C	0.644768	-0.356712	0.354619
C21	C	0.613422	-0.413841	0.411576
C22	C	0.527804	-0.413672	0.411806
C23	C	0.496385	-0.356712	0.354632
C24	C	0.527440	-0.278569	0.375315
C25	C	0.613085	-0.278900	0.375721
C26	C	0.613238	-0.377044	0.276838
C27	C	0.527588	-0.378765	0.277265
C28	C	0.412526	-0.356708	0.354639
C29	C	0.728627	-0.356712	0.354614
C30	C	1.070244	-0.549865	0.354598
C31	C	1.070262	-0.632179	0.354590
C32	C	1.070305	-0.931270	0.354452
C33	C	1.012846	-0.899928	0.411140
C34	C	1.013001	-0.814310	0.411403
C35	C	1.070283	-0.782888	0.354520
C36	C	1.148311	-0.813979	0.375574
C37	C	1.147990	-0.899624	0.375947
C38	C	1.050415	-0.899702	0.276584
C39	C	1.048679	-0.814051	0.277034
C40	C	1.070275	-0.699028	0.354558
C41	C	1.070318	-1.015130	0.354416
C42	C	1.263363	-0.356709	0.354637
C43	C	1.345677	-0.356711	0.354646
C44	C	1.070123	-0.356668	0.545823
C45	C	1.070157	-0.356677	0.627622
C46	C	1.070201	-0.164293	0.354582
C47	C	1.070326	-0.081979	0.354382
C48	C	1.070299	-0.356755	0.162663
C49	C	1.070342	-0.356777	0.080865
C50	C	1.117623	-0.309400	0.815801
C51	C	1.117656	-0.309418	0.892659
C52	C	1.022873	-0.404060	0.892680
C53	C	1.022844	-0.404045	0.815823
C54	C	1.070218	-0.356711	0.777385
C55	C	1.070280	-0.356743	0.931101
C56	C	1.070316	-0.356763	1.014435
C57	C	1.070184	-0.356692	0.694046
H58	H	0.634916	-0.400515	0.468885
O59	O	0.640095	-0.321944	0.220624
H60	H	0.675726	-0.280277	0.247903
H61	H	0.507288	-0.400183	0.469446
O62	O	1.100083	-0.785740	0.218119
H63	H	1.083286	-0.808787	0.164176
O64	O	0.500493	-0.220631	0.322051
H65	H	0.464590	-0.246979	0.280174
H66	H	0.984302	-0.442596	0.923985
O67	O	1.168784	-0.258393	0.934101
H68	H	1.156110	-0.200254	0.919402
H69	H	1.192254	-0.920358	0.336450
H70	H	0.633820	-0.234874	0.336008
H71	H	1.026133	-0.793823	0.469121
H72	H	1.164851	-0.919602	0.432869
H73	H	1.156199	-0.270859	0.784507
H74	H	0.984241	-0.442575	0.784543
H75	H	0.506808	-0.471604	0.398906
O76	O	0.500705	-0.454941	0.256593
H77	H	0.523000	-0.470120	0.201853
H78	H	0.634041	-0.471953	0.398825
O79	O	0.498999	-0.255410	0.449791
H80	H	0.462755	-0.299424	0.472194
H81	H	0.634862	-0.433065	0.257939
O82	O	0.639519	-0.256145	0.451019
H83	H	0.591131	-0.245013	0.486801
H84	H	1.192272	-0.793627	0.335583
O85	O	0.499276	-0.327699	0.218088
H86	H	0.438058	-0.330598	0.216163
O87	O	0.936366	-0.786454	0.393928
H88	H	0.898859	-0.834156	0.385218
H89	H	0.954811	-0.920525	0.398099
O90	O	1.030034	-0.928462	0.487124
H91	H	1.079329	-0.964863	0.484692
O92	O	1.171041	-0.785572	0.450171
H93	H	1.179786	-0.832943	0.487855
O94	O	0.976349	-0.928294	0.251183
H95	H	0.978132	-0.989502	0.247976
O96	O	0.972625	-0.787124	0.255986
H97	H	0.950299	-0.751691	0.300520
O98	O	1.105843	-0.926552	0.220632
H99	H	1.147358	-0.962208	0.248101
