data_functionalizedCrystal
_audit_creation_method	'MofGen! by Chris Wilmer'
_symmetry_space_group_name_H-M	'P1'
_symmetry_Int_Tables_number	1
_symmetry_cell_setting	triclinic
loop_
_symmetry_equiv_pos_as_xyz
  x,y,z
_cell_length_a	21.295418
_cell_length_b	25.639239
_cell_length_c	21.295420
_cell_angle_alpha	90.013058
_cell_angle_beta	90.026872
_cell_angle_gamma	90.054499
loop_
_atom_site_label
_atom_site_type_symbol
_atom_site_fract_x
_atom_site_fract_y
_atom_site_fract_z
Zn1	Zn	0.962215	-0.208023	0.356243
Zn2	Zn	0.962134	-0.295433	0.250972
Zn3	Zn	0.856969	-0.208038	0.250952
Zn4	Zn	0.856893	-0.295454	0.356168
O5	O	0.909553	-0.251737	0.303584
O6	O	1.050294	-0.219604	0.342317
O7	O	0.948181	-0.283838	0.162880
O8	O	0.870997	-0.134871	0.264942
O9	O	1.050234	-0.283824	0.264976
O10	O	0.948320	-0.134860	0.342299
O11	O	0.870917	-0.219629	0.162866
O12	O	0.768870	-0.219648	0.264870
O13	O	0.870866	-0.283858	0.444268
O14	O	0.768813	-0.283872	0.342172
O15	O	0.948246	-0.219623	0.444322
O16	O	0.948107	-0.368601	0.264904
O17	O	0.870787	-0.368616	0.342191
C18	C	0.746001	-0.251764	0.303511
C19	C	0.676033	-0.251789	0.303495
C20	C	0.643153	-0.285274	0.343686
C21	C	0.577411	-0.285262	0.343714
C22	C	0.544550	-0.251769	0.303541
C23	C	0.577438	-0.218276	0.263347
C24	C	0.643179	-0.218286	0.263324
N25	N	0.441291	-0.247671	0.248483
N26	N	0.378840	-0.247664	0.248506
C27	C	0.346476	-0.251735	0.303607
N28	N	0.378922	-0.255823	0.358686
N29	N	0.441379	-0.255832	0.358662
C30	C	0.473265	-0.251754	0.303561
C31	C	0.242311	-0.285209	0.343832
C32	C	0.176567	-0.285192	0.343862
C33	C	0.176595	-0.218210	0.263489
C34	C	0.242338	-0.218223	0.263465
C35	C	0.275191	-0.251726	0.303636
C36	C	0.909447	-0.387580	0.303555
C37	C	0.909459	-0.445694	0.303564
C38	C	0.949918	-0.806036	0.263409
C39	C	0.949943	-0.860641	0.263417
O40	O	0.984233	-0.888860	0.229245
N41	N	0.909663	-0.887976	0.303626
C42	C	0.869361	-0.860704	0.343833
O43	O	0.835103	-0.888969	0.378034
C44	C	0.869341	-0.806101	0.343827
C45	C	0.909618	-0.778768	0.303611
C46	C	0.990193	-0.778704	0.223197
C47	C	0.990167	-0.724103	0.223188
C48	C	0.949867	-0.696835	0.263391
C49	C	0.909593	-0.724168	0.303602
C50	C	0.829043	-0.778830	0.384036
C51	C	0.829026	-0.724223	0.384028
C52	C	0.869303	-0.696891	0.343812
C53	C	0.869267	-0.642299	0.343796
N54	N	0.909547	-0.614964	0.303588
C55	C	0.949847	-0.642232	0.263385
C56	C	0.869409	-0.975375	0.343842
C57	C	0.869426	-1.029977	0.343845
C58	C	0.950008	-1.029910	0.263431
C59	C	0.949987	-0.975306	0.263425
C60	C	0.909688	-0.948039	0.303634
C61	C	0.949790	-0.527567	0.263369
C62	C	0.949759	-0.472961	0.263361
C63	C	0.869180	-0.473034	0.343778
C64	C	0.869208	-0.527634	0.343783
C65	C	0.909518	-0.554900	0.303576
O66	O	0.834997	-0.614045	0.377953
O67	O	0.984105	-0.613960	0.229195
C68	C	1.073743	-0.251710	0.303657
C69	C	1.143711	-0.251698	0.303688
C70	C	0.909557	-0.251741	0.467774
C71	C	0.909558	-0.251743	0.537742
C72	C	0.909676	-0.115364	0.303627
C73	C	0.909729	-0.057250	0.303645
C74	C	0.949783	-0.285167	1.037208
C75	C	0.949782	-0.285170	0.971466
C76	C	0.909556	-0.251740	0.938582
C77	C	0.869318	-0.218314	0.971446
C78	C	0.869316	-0.218315	1.037187
N79	N	0.904772	-0.205973	0.835373
N80	N	0.904777	-0.205974	0.772921
C81	C	0.909559	-0.251737	0.740507
N82	N	0.914347	-0.297500	0.772903
N83	N	0.914345	-0.297498	0.835360
C84	C	0.909554	-0.251736	0.867296
C85	C	0.949791	-0.285168	0.636365
C86	C	0.949785	-0.285173	0.570622
C87	C	0.869324	-0.218311	0.570603
C88	C	0.869326	-0.218311	0.636345
C89	C	0.909563	-0.251739	0.669223
C90	C	0.909547	-0.251744	1.140032
C91	C	0.909552	-0.251742	1.070064
H92	H	0.982558	-0.450709	0.230611
O93	O	0.675149	-0.185704	0.224368
C94	C	0.713268	-0.151998	0.260264
H95	H	0.693503	-0.148829	0.309858
H96	H	0.714054	-0.111732	0.237584
H97	H	0.763071	-0.168178	0.262379
H98	H	0.149798	-0.312459	0.376594
H99	H	0.982543	-0.312396	0.543871
H100	H	0.982785	-0.953055	0.230679
O101	O	0.830306	-0.185855	0.538570
C102	C	0.838919	-0.193033	0.473499
H103	H	0.887485	-0.210145	0.464537
H104	H	0.834680	-0.153871	0.448521
H105	H	0.801558	-0.220885	0.454819
O106	O	0.545529	-0.317763	0.382845
C107	C	0.561644	-0.306416	0.445606
H108	H	0.609408	-0.286331	0.446944
H109	H	0.563856	-0.344188	0.473749
H110	H	0.524700	-0.279554	0.466877
H111	H	0.550679	-0.191005	0.230638
H112	H	1.023013	-0.800899	0.190459
O113	O	0.830071	-0.446595	0.382920
C114	C	0.843805	-0.459894	0.445678
H115	H	0.868010	-0.499517	0.447017
H116	H	0.798359	-0.461793	0.473858
H117	H	0.876152	-0.429125	0.466906
O118	O	0.830336	-0.185817	0.668338
C119	C	0.866200	-0.152032	0.706384
H120	H	0.913892	-0.170459	0.716248
H121	H	0.840564	-0.145037	0.752605
H122	H	0.873144	-0.113281	0.681068
H123	H	0.269062	-0.312486	0.376545
O124	O	0.675134	-0.317740	0.382746
C125	C	0.713219	-0.288030	0.423468
H126	H	0.723107	-0.248381	0.401348
H127	H	0.759425	-0.309345	0.431848
H128	H	0.687923	-0.282340	0.470135
H129	H	0.269108	-0.190958	0.230734
O130	O	0.144585	-0.185736	0.224468
C131	C	0.079509	-0.192902	0.233110
H132	H	0.070496	-0.233271	0.253663
H133	H	0.054498	-0.189312	0.185968
H134	H	0.060911	-0.161921	0.266686
O135	O	0.989036	-0.553985	0.224341
C136	C	1.051756	-0.540569	0.238189
H137	H	1.053012	-0.500919	0.262394
H138	H	1.080016	-0.538669	0.192793
H139	H	1.072955	-0.571269	0.270575
O140	O	1.029359	-0.697637	0.184109
C141	C	1.064921	-0.733422	0.148624
H142	H	1.067084	-0.772335	0.174419
H143	H	1.114521	-0.717602	0.141974
H144	H	1.041914	-0.739267	0.100784
H145	H	0.836565	-0.191095	0.944667
O146	O	0.989182	-1.056484	0.224482
C147	C	0.980573	-1.110538	0.233128
H148	H	0.959860	-1.117986	0.281661
H149	H	1.027753	-1.131226	0.229000
H150	H	0.947145	-1.126112	0.195717
O151	O	0.830317	-1.056606	0.382848
C152	C	0.838986	-1.110649	0.374254
H153	H	0.859642	-1.118104	0.325701
H154	H	0.791839	-1.131448	0.378472
H155	H	0.872486	-1.126094	0.411638
H156	H	0.836587	-0.953177	0.376583
O157	O	0.789899	-0.805292	0.423164
C158	C	0.754322	-0.769505	0.458632
H159	H	0.780094	-0.730555	0.460828
H160	H	0.747578	-0.785266	0.508227
H161	H	0.706527	-0.763754	0.435524
H162	H	0.796210	-0.702025	0.416773
O163	O	0.830167	-0.554247	0.382873
C164	C	0.865992	-0.585766	0.423594
H165	H	0.913719	-0.593899	0.401454
H166	H	0.840366	-0.624190	0.432006
H167	H	0.872860	-0.564698	0.470247
H168	H	0.982545	-0.312387	1.063973
O169	O	0.830166	-0.185918	1.069133
C170	C	0.789495	-0.215695	1.107144
H171	H	0.785576	-0.256875	1.087320
H172	H	0.741065	-0.196798	1.107871
H173	H	0.808956	-0.217490	1.156977
H174	H	0.982552	-0.312383	0.944709
O175	O	0.988890	-0.317691	0.668210
C176	C	1.024406	-0.347189	0.625109
H177	H	0.998620	-0.349005	0.578234
H178	H	1.031085	-0.388381	0.644097
H179	H	1.072232	-0.328034	0.618143
