data_functionalizedCrystal
_audit_creation_method	'MofGen! by Chris Wilmer'
_symmetry_space_group_name_H-M	'P1'
_symmetry_Int_Tables_number	1
_symmetry_cell_setting	triclinic
loop_
_symmetry_equiv_pos_as_xyz
  x,y,z
_cell_length_a	15.995363
_cell_length_b	14.472311
_cell_length_c	11.792241
_cell_angle_alpha	90.008428
_cell_angle_beta	96.154594
_cell_angle_gamma	89.998043
loop_
_atom_site_label
_atom_site_type_symbol
_atom_site_fract_x
_atom_site_fract_y
_atom_site_fract_z
O1	O	-1.111644	0.076774	0.146368
O2	O	-0.867952	0.076790	0.164419
O3	O	-0.995712	0.076775	-0.009826
O4	O	-0.983884	0.076789	0.320613
O5	O	-0.995700	-0.076907	-0.009843
O6	O	-0.867940	-0.076892	0.164402
O7	O	-1.111632	-0.076908	0.146351
Cu8	Cu	-0.989785	-0.090932	0.155375
Cu9	Cu	-0.989799	0.090814	0.155395
O10	O	-0.983872	-0.076893	0.320596
C11	C	-0.836748	-0.000048	0.163662
C12	C	-0.743788	-0.000042	0.161417
C13	C	-0.406006	-0.000065	0.153356
C14	C	-0.452876	-0.000413	0.029259
C15	C	-0.549576	-0.000059	0.031504
C16	C	-0.573584	-0.000054	0.157354
C17	C	-0.532781	0.087704	0.218571
C18	C	-0.436132	0.087770	0.215448
C19	C	-0.435791	-0.086995	0.217993
C20	C	-0.532736	-0.088147	0.217969
C21	C	-0.668291	-0.000045	0.159621
C22	C	-0.311298	-0.000068	0.151093
N23	N	-0.989781	-0.218763	0.155360
C24	C	-0.994963	-0.000065	-0.052120
C25	C	-0.992739	-0.000064	-0.178115
C26	C	-0.142837	-0.000070	0.147093
C27	C	-0.235801	-0.000077	0.149293
C28	C	-0.989791	-0.407263	0.155374
C29	C	-1.058169	-0.446473	0.062171
C30	C	-1.058419	-0.553561	0.062419
C31	C	-0.989800	-0.592854	0.155386
C32	C	-1.009058	-0.553958	0.273958
C33	C	-1.009544	-0.446836	0.273404
C34	C	-0.901953	-0.446750	0.131074
C35	C	-0.902535	-0.553878	0.128390
C36	C	-0.989803	-0.697743	0.155401
C37	C	-0.989789	-0.302375	0.155368
N38	N	-0.989809	0.218645	0.155401
C39	C	-0.988650	-0.000049	-0.408793
C40	C	-0.990922	-0.000057	-0.280427
C41	C	-0.984621	-0.000050	0.362889
C42	C	-0.986845	-0.000045	0.488884
H43	H	-0.434124	-0.063348	-0.020355
O44	O	-0.834546	-0.413155	0.221093
H45	H	-0.803783	-0.473373	0.266503
H46	H	-0.577782	-0.062968	-0.016615
H47	H	-0.883491	-0.419744	0.046433
O48	O	-0.426630	0.082476	-0.036159
H49	H	-0.380350	0.123921	0.019331
H50	H	-1.123599	-0.579185	0.077995
O51	O	-0.568640	-0.174145	0.158765
H52	H	-0.517161	-0.214365	0.126202
O53	O	-0.586203	0.083414	-0.032635
H54	H	-0.534836	0.123692	-0.065369
O55	O	-0.883166	-0.587561	0.012857
H56	H	-0.935465	-0.631881	-0.025187
O57	O	-1.144001	-0.410669	0.082358
H58	H	-1.138176	-0.365092	0.158506
H59	H	-0.961506	-0.420896	0.344700
H60	H	-1.073609	-0.421848	0.294748
H61	H	-1.072393	-0.580783	0.295814
H62	H	-1.046925	-0.579862	-0.025705
O63	O	-0.831949	-0.589299	0.212436
H64	H	-0.842866	-0.567522	0.299894
O65	O	-0.411609	0.174649	0.156308
H66	H	-0.468758	0.216219	0.130201
O67	O	-0.408361	-0.175114	0.164234
H68	H	-0.373187	-0.157930	0.090837
H69	H	-0.404297	0.091756	0.306558
O70	O	-0.553639	-0.095179	0.339533
H71	H	-0.593640	-0.035726	0.358737
H72	H	-0.960588	-0.579407	0.345006
H73	H	-0.547326	0.090971	0.311031
H74	H	-0.404445	-0.087586	0.309489
O75	O	-0.570100	0.174221	0.162268
H76	H	-0.617696	0.154938	0.090696
H77	H	-1.046870	-0.420705	-0.026245
