data_functionalizedCrystal
_audit_creation_method	'MofGen! by Chris Wilmer'
_symmetry_space_group_name_H-M	'P1'
_symmetry_Int_Tables_number	1
_symmetry_cell_setting	triclinic
loop_
_symmetry_equiv_pos_as_xyz
  x,y,z
_cell_length_a	10.686220
_cell_length_b	10.686685
_cell_length_c	10.686551
_cell_angle_alpha	89.638883
_cell_angle_beta	90.308082
_cell_angle_gamma	89.688259
loop_
_atom_site_label
_atom_site_type_symbol
_atom_site_fract_x
_atom_site_fract_y
_atom_site_fract_z
Zn1	Zn	-1.997271	0.304031	0.583828
Zn2	Zn	-1.999590	0.529747	0.389988
Zn3	Zn	-1.774011	0.335932	0.392395
Zn4	Zn	-1.805813	0.527220	0.615588
O5	O	-1.894172	0.424233	0.495450
O6	O	-2.172111	0.321680	0.543816
O7	O	-1.957328	0.518446	0.215778
O8	O	-1.789348	0.157183	0.405505
O9	O	-2.173814	0.487512	0.401403
O10	O	-1.953376	0.133745	0.546150
O11	O	-1.791596	0.376051	0.217547
O12	O	-1.603698	0.373600	0.436301
O13	O	-1.843549	0.483205	0.785904
O14	O	-1.627063	0.514138	0.600280
O15	O	-1.984213	0.319229	0.762570
O16	O	-1.988165	0.703929	0.432198
O17	O	-1.845797	0.702073	0.597945
C18	C	-1.920720	0.748247	0.518281
C19	C	-1.932194	0.886850	0.528081
C20	C	-1.570126	0.447058	0.521999
C21	C	-1.431503	0.456850	0.533388
C22	C	-1.917169	0.397377	0.820756
C23	C	-1.926970	0.385932	0.959382
C24	C	-2.219482	0.401319	0.468798
C25	C	-2.358110	0.391555	0.457441
C26	C	-1.867556	0.098948	0.472553
C27	C	-1.856214	-0.039668	0.462796
C28	C	-1.871328	0.450889	0.171397
C29	C	-1.861740	0.461965	0.032727
H30	H	-1.401326	0.328163	0.383704
H31	H	-2.006030	0.929981	0.591465
O32	O	-1.777822	0.559789	0.975441
H33	H	-1.783023	0.553721	0.871897
O34	O	-2.010888	0.288106	1.016684
H35	H	-2.057133	0.234220	0.941155
H36	H	-1.388282	0.520254	0.607122
H37	H	-1.782391	0.917207	0.399406
