data_functionalizedCrystal
_audit_creation_method	'MofGen! by Chris Wilmer'
_symmetry_space_group_name_H-M	'P1'
_symmetry_Int_Tables_number	1
_symmetry_cell_setting	triclinic
loop_
_symmetry_equiv_pos_as_xyz
  x,y,z
_cell_length_a	15.538191
_cell_length_b	10.654550
_cell_length_c	9.130313
_cell_angle_alpha	89.997153
_cell_angle_beta	89.995230
_cell_angle_gamma	65.878512
loop_
_atom_site_label
_atom_site_type_symbol
_atom_site_fract_x
_atom_site_fract_y
_atom_site_fract_z
O1	O	-1.247254	0.406667	0.121816
O2	O	-0.973940	0.262092	0.121815
O3	O	-1.116881	0.520056	0.121806
O4	O	-1.104313	0.148703	0.121825
O5	O	-1.116870	0.520051	-0.121792
O6	O	-0.973929	0.262087	-0.121784
O7	O	-1.247243	0.406662	-0.121783
Cu8	Cu	-1.110585	0.334374	-0.144026
Cu9	Cu	-1.110598	0.334380	0.144058
O10	O	-1.104302	0.148698	-0.121774
C11	C	-0.938938	0.246964	0.000016
C12	C	-0.834659	0.201907	0.000015
C13	C	-1.282246	0.421790	0.000020
C14	C	-1.386525	0.466847	0.000030
C15	C	-1.115953	0.566420	0.000008
C16	C	-1.113192	0.704573	0.000010
C17	C	-0.543944	0.649529	0.000016
C18	C	-0.445955	0.607160	0.000019
C19	C	-0.425069	0.368846	0.000030
C20	C	-0.523058	0.411195	0.000020
C21	C	-0.582488	0.551538	0.000014
C22	C	-0.561602	0.313204	0.000019
C23	C	-0.659583	0.355550	0.000016
C24	C	-0.719019	0.495886	0.000015
C25	C	-0.680469	0.593884	0.000012
C26	C	-0.502170	0.172861	0.000035
C27	C	-0.540715	0.074870	0.000033
C28	C	-0.638697	0.117216	0.000020
C29	C	-0.698133	0.257553	0.000019
C30	C	-0.677248	0.019219	0.000023
C31	C	-0.775228	0.061564	0.000021
C32	C	-0.796114	0.299898	0.000016
C33	C	-1.105231	0.102334	0.000028
C34	C	-1.107991	-0.035819	0.000035
N35	N	-1.110583	0.334374	-0.346648
C36	C	-1.197353	0.823402	0.000011
C37	C	-1.194754	0.953208	0.000029
C38	C	-1.023824	0.845339	0.000039
C39	C	-1.026424	0.715536	0.000031
C40	C	-1.168039	0.284351	-0.423291
C41	C	-1.168055	0.284365	-0.576628
C42	C	-1.053149	0.384424	-0.576666
C43	C	-1.053140	0.384418	-0.423332
N44	N	-1.110608	0.334394	0.346681
H45	H	-0.844506	0.414180	0.000003
H46	H	-0.957885	0.618775	0.000035
H47	H	-1.006351	0.425159	-0.360928
H48	H	-1.214842	0.243634	-0.639023
H49	H	-0.798801	0.530362	0.000032
H50	H	-0.422389	0.138388	0.000041
F51	F	-1.289699	0.811739	-0.000010
F52	F	-1.229181	0.231099	-0.341683
F53	F	-0.816253	-0.042728	0.000022
F54	F	-0.743724	0.743254	-0.000011
H55	H	-0.592336	0.763810	0.000002
H56	H	-0.376668	0.254578	0.000041
F57	F	-0.477456	-0.074488	0.000048
F58	F	-0.992012	0.437672	-0.658291
H59	H	-0.414577	0.686967	0.000022
F60	F	-0.613986	-0.130139	0.000051
F61	F	-1.284330	1.079672	0.000033
H62	H	-0.953180	0.854282	0.000053
