data_functionalizedCrystal
_audit_creation_method	'MofGen! by Chris Wilmer'
_symmetry_space_group_name_H-M	'P1'
_symmetry_Int_Tables_number	1
_symmetry_cell_setting	triclinic
loop_
_symmetry_equiv_pos_as_xyz
  x,y,z
_cell_length_a	19.077269
_cell_length_b	16.625545
_cell_length_c	19.077579
_cell_angle_alpha	87.676268
_cell_angle_beta	89.893860
_cell_angle_gamma	87.728639
loop_
_atom_site_label
_atom_site_type_symbol
_atom_site_fract_x
_atom_site_fract_y
_atom_site_fract_z
Zn1	Zn	1.090141	-0.354873	-0.354137
Zn2	Zn	1.085340	-0.494899	-0.236635
Zn3	Zn	0.967925	-0.354464	-0.241367
Zn4	Zn	0.972602	-0.484044	-0.358826
O5	O	1.029002	-0.422070	-0.297741
O6	O	1.187833	-0.378162	-0.334608
O7	O	1.065798	-0.480641	-0.138931
O8	O	0.984190	-0.241687	-0.256344
O9	O	1.184306	-0.481038	-0.248280
O10	O	1.073981	-0.241988	-0.339196
O11	O	0.979534	-0.377464	-0.142407
O12	O	0.870216	-0.366939	-0.260890
O13	O	0.992160	-0.462538	-0.456536
O14	O	0.873652	-0.462141	-0.347187
O15	O	1.078516	-0.367637	-0.453091
O16	O	1.070333	-0.606290	-0.252826
O17	O	0.987504	-0.598315	-0.342599
C18	C	0.846439	-0.413318	-0.305061
C19	C	0.768338	-0.409593	-0.308209
C20	C	0.729804	-0.461324	-0.264675
C21	C	0.656421	-0.457823	-0.267642
C22	C	0.621572	-0.402587	-0.314141
C23	C	0.660112	-0.350854	-0.357680
C24	C	0.733494	-0.354359	-0.354716
C25	C	0.402301	-0.386373	-0.327837
C26	C	0.328913	-0.382870	-0.330796
C27	C	0.325227	-0.489841	-0.240759
C28	C	0.398611	-0.493338	-0.237796
C29	C	0.437144	-0.441607	-0.281337
N30	N	0.546563	-0.399006	-0.317173
N31	N	0.512152	-0.445193	-0.278308
C32	C	1.028925	-0.631558	-0.297722
C33	C	1.028957	-0.721180	-0.297735
C34	C	1.028985	-0.793963	-0.297748
C35	C	1.029026	-0.885273	-0.297762
C36	C	1.029063	-0.958051	-0.297769
C37	C	1.029104	-1.049366	-0.297782
C38	C	1.212278	-0.430857	-0.290393
C39	C	1.290379	-0.434601	-0.287262
C40	C	1.036395	-0.413922	-0.481023
C41	C	1.039545	-0.410450	-0.559126
C42	C	1.029099	-0.211764	-0.297775
C43	C	1.029141	-0.122144	-0.297789
C44	C	1.062142	-0.385606	-0.998573
C45	C	1.059177	-0.388872	-0.925187
C46	C	1.012731	-0.439910	-0.890291
C47	C	0.969251	-0.487691	-0.928785
C48	C	0.972219	-0.484429	-1.002170
C49	C	0.999034	-0.454969	-0.671005
C50	C	0.996067	-0.458226	-0.597615
C51	C	1.085995	-0.359407	-0.594022
C52	C	1.088956	-0.356146	-0.667409
C53	C	1.045479	-0.403930	-0.705897
N54	N	1.009698	-0.443248	-0.815278
N55	N	1.048516	-0.400596	-0.780908
C56	C	1.021678	-0.430130	-0.115171
C57	C	1.018664	-0.433382	-0.037062
H58	H	0.426979	-0.538316	-0.199931
O59	O	0.924125	-0.537354	-0.894998
C60	C	0.886381	-0.578815	-0.944709
H61	H	0.917272	-0.580648	-0.995866
H62	H	0.878014	-0.642931	-0.923801
H63	H	0.833338	-0.546397	-0.954656
H64	H	0.764868	-0.312234	-0.390166
H65	H	0.293846	-0.531958	-0.205311
O66	O	0.950874	-0.507703	-0.563698
C67	C	0.903795	-0.461525	-0.523067
H68	H	0.900372	-0.396827	-0.545360
H69	H	0.849676	-0.488140	-0.524414
H70	H	0.923265	-0.462267	-0.466574
H71	H	0.631733	-0.305883	-0.395543
O72	O	0.956727	-0.501406	-0.708280
C73	C	0.915107	-0.547162	-0.661740
H74	H	0.910578	-0.516341	-0.609533
H75	H	0.860596	-0.552161	-0.685165
H76	H	0.940489	-0.609982	-0.652889
O77	O	1.128129	-0.312956	-0.556562
C78	C	1.086436	-0.260829	-0.515743
H79	H	1.032727	-0.287196	-0.506883
H80	H	1.112978	-0.253690	-0.462991
H81	H	1.079891	-0.199450	-0.544347
O82	O	0.295028	-0.329129	-0.375871
C83	C	0.250964	-0.276736	-0.337661
H84	H	0.270835	-0.275168	-0.281434
H85	H	0.251187	-0.213559	-0.363207
H86	H	0.195241	-0.299112	-0.337445
O87	O	0.439617	-0.336033	-0.370150
C88	C	0.393121	-0.286540	-0.411832
H89	H	0.339644	-0.282486	-0.385166
H90	H	0.414647	-0.223699	-0.418563
H91	H	0.387475	-0.313412	-0.465473
H92	H	0.936816	-0.523334	-1.033506
O93	O	1.101336	-0.342327	-0.887845
C94	C	1.086740	-0.260440	-0.906437
H95	H	1.031419	-0.252798	-0.928858
H96	H	1.090863	-0.223026	-0.857949
H97	H	1.126134	-0.239282	-0.947535
H98	H	1.126781	-0.314588	-0.695816
H99	H	1.099959	-0.344039	-1.026981
H100	H	0.625049	-0.499948	-0.232192
O101	O	0.763625	-0.515092	-0.219582
C102	C	0.746273	-0.593944	-0.235534
H103	H	0.728380	-0.594654	-0.292478
H104	H	0.794271	-0.636346	-0.227473
H105	H	0.702138	-0.614596	-0.199550
