data_functionalizedCrystal
_audit_creation_method	'MofGen! by Chris Wilmer'
_symmetry_space_group_name_H-M	'P1'
_symmetry_Int_Tables_number	1
_symmetry_cell_setting	triclinic
loop_
_symmetry_equiv_pos_as_xyz
  x,y,z
_cell_length_a	14.044220
_cell_length_b	14.853567
_cell_length_c	13.330367
_cell_angle_alpha	90.000844
_cell_angle_beta	90.002608
_cell_angle_gamma	88.411904
loop_
_atom_site_label
_atom_site_type_symbol
_atom_site_fract_x
_atom_site_fract_y
_atom_site_fract_z
O1	O	-1.257997	-0.217372	-0.083301
O2	O	-0.982018	-0.209528	-0.083327
O3	O	-1.127379	-0.082805	-0.083316
O4	O	-1.112636	-0.344096	-0.083312
O5	O	-1.127358	-0.082800	0.083531
O6	O	-0.981996	-0.209524	0.083520
O7	O	-1.257976	-0.217368	0.083546
Cu8	Cu	-1.119984	-0.213445	0.098768
Cu9	Cu	-1.120009	-0.213451	-0.098548
O10	O	-1.112614	-0.344091	0.083535
C11	C	-0.946688	-0.206092	0.000093
C12	C	-0.841449	-0.195851	0.000083
C13	C	-1.126701	-0.049161	0.000104
C14	C	-1.124699	0.051082	0.000095
C15	C	-1.293306	-0.220803	0.000124
C16	C	-1.398545	-0.231045	0.000127
C17	C	-0.648763	-0.177127	0.000102
C18	C	-0.591225	-0.249765	0.000108
C19	C	-0.484008	-0.239347	0.000119
C20	C	-0.755990	-0.187544	0.000092
C21	C	-1.113293	-0.377735	0.000113
C22	C	-1.115295	-0.477978	0.000115
N23	N	-1.119974	-0.213441	0.237549
C24	C	-1.029888	0.471127	0.000106
C25	C	-1.202581	0.478726	0.000122
C26	C	-1.204464	0.384543	0.000116
C27	C	-1.119057	0.333648	0.000107
C28	C	-1.031768	0.376935	0.000103
C29	C	-1.291751	0.341248	0.000130
C30	C	-1.293637	0.247060	0.000125
C31	C	-1.208229	0.196163	0.000109
C32	C	-1.120937	0.239456	0.000104
C33	C	-1.035530	0.188561	0.000094
C34	C	-0.948237	0.231852	0.000082
C35	C	-0.946360	0.326038	0.000086
C36	C	-1.210105	0.101977	0.000105
C37	C	-1.037410	0.094369	0.000092
N38	N	-1.120027	-0.213448	-0.237330
C39	C	-1.055640	-0.269540	0.710167
C40	C	-1.184404	-0.157357	0.710145
C41	C	-1.184393	-0.157353	0.605126
C42	C	-1.120006	-0.213445	0.552624
C43	C	-1.055630	-0.269540	0.605139
C44	C	-1.248775	-0.101266	0.552603
C45	C	-1.248767	-0.101261	0.447578
C46	C	-1.184375	-0.157348	0.395073
C47	C	-1.119995	-0.213445	0.447596
C48	C	-1.055608	-0.269536	0.395093
C49	C	-0.991223	-0.325629	0.447613
C50	C	-0.991237	-0.325627	0.552635
C51	C	-1.184361	-0.157350	0.290052
C52	C	-1.055597	-0.269536	0.290065
H53	H	-0.622488	-0.319778	0.000104
C54	C	-1.384440	0.396555	-0.000061
C55	C	-1.388427	0.450831	-0.085913
C56	C	-1.473806	0.501788	-0.086130
H57	H	-1.387371	0.433534	0.058054
H58	H	-1.436726	0.357318	-0.000105
H59	H	-1.336155	0.490064	-0.085860
H60	H	-1.385512	0.413875	-0.144042
H61	H	-1.526092	0.462551	-0.086174
H62	H	-1.476729	0.538762	-0.028011
H63	H	-1.476526	0.538615	-0.144384
H64	H	-1.364716	0.211820	0.000134
C65	C	-0.921278	-0.386627	0.390785
C66	C	-0.864909	-0.435766	0.459249
C67	C	-0.800477	-0.491974	0.406933
H68	H	-0.881690	-0.351094	0.349813
H69	H	-0.955403	-0.426969	0.349837
H70	H	-0.830786	-0.395429	0.500180
H71	H	-0.904471	-0.471317	0.500224
H72	H	-0.834602	-0.532316	0.365984
H73	H	-0.760895	-0.456434	0.365962
H74	H	-0.762229	-0.525328	0.453377
H75	H	-0.958816	0.506379	0.000092
C76	C	-1.254250	-0.096308	0.767022
C77	C	-1.238766	-0.006464	0.741465
C78	C	-1.303095	0.049805	0.793838
H79	H	-1.245099	-0.104224	0.837105
H80	H	-1.317550	-0.111158	0.749785
H81	H	-1.175481	0.008381	0.758709
H82	H	-1.247925	0.001481	0.671391
H83	H	-1.366395	0.034955	0.776601
H84	H	-1.293938	0.041881	0.863918
H85	H	-1.292604	0.110769	0.776497
C86	C	-0.607268	-0.083699	0.000144
C87	C	-0.681422	-0.018723	0.000155
C88	C	-0.643221	0.067350	0.000201
H89	H	-0.569159	-0.076510	-0.058023
H90	H	-0.569173	-0.076573	0.058352
H91	H	-0.719501	-0.025846	-0.058047
H92	H	-0.719537	-0.025883	0.058317
H93	H	-0.605126	0.074477	0.058408
H94	H	-0.605112	0.074530	-0.057967
H95	H	-0.693528	0.111447	0.000218
H96	H	-1.281178	0.066733	0.000121
H97	H	-0.938818	-0.371297	0.595403
C98	C	-0.985586	-0.330319	0.767132
C99	C	-0.892418	-0.308134	0.741612
C100	C	-0.827858	-0.364095	0.794079
H101	H	-0.995823	-0.391359	0.749965
H102	H	-0.994745	-0.322276	0.837208
H103	H	-0.883263	-0.316186	0.671551
H104	H	-0.882151	-0.247104	0.758782
H105	H	-0.837017	-0.356052	0.864156
H106	H	-0.838104	-0.425132	0.776908
H107	H	-0.764637	-0.349045	0.776779
C108	C	-1.318614	-0.040214	0.609486
C109	C	-1.303133	0.049628	0.583921
C110	C	-1.367454	0.105900	0.636302
H111	H	-1.309452	-0.048127	0.679568
H112	H	-1.381917	-0.055065	0.592262
H113	H	-1.239846	0.064473	0.601152
H114	H	-1.312303	0.057569	0.513848
H115	H	-1.430756	0.091050	0.619077
H116	H	-1.358285	0.097979	0.706381
H117	H	-1.356964	0.166863	0.618956
H118	H	-0.967860	0.052936	0.000080
H119	H	-0.878699	0.190401	0.000082
C120	C	-0.851688	0.373208	0.000136
C121	C	-0.868325	0.466585	0.000174
C122	C	-0.781137	0.510070	0.000238
H123	H	-0.816447	0.356323	-0.058034
H124	H	-0.816505	0.356259	0.058340
H125	H	-0.903493	0.483527	-0.058025
H126	H	-0.903551	0.483496	0.058339
H127	H	-0.745954	0.493121	0.058442
H128	H	-0.745903	0.493178	-0.057933
H129	H	-0.792414	0.573430	0.000273
C130	C	-1.318403	-0.040095	0.390557
C131	C	-1.267666	0.019170	0.330409
C132	C	-1.331732	0.075616	0.277912
H133	H	-1.356667	-0.006607	0.436854
H134	H	-1.358006	-0.075498	0.349431
H135	H	-1.228079	0.054569	0.371532
H136	H	-1.229405	-0.014293	0.284094
H137	H	-1.371335	0.040213	0.236786
H138	H	-1.369993	0.109097	0.324217
H139	H	-1.297317	0.115827	0.237089
C140	C	-1.295273	0.534028	-0.000072
C141	C	-1.299256	0.588312	-0.085918
C142	C	-1.384638	0.639264	-0.086138
H143	H	-1.298212	0.571003	0.058047
H144	H	-1.347556	0.494788	-0.000125
H145	H	-1.246987	0.627548	-0.085856
H146	H	-1.296334	0.551360	-0.144051
H147	H	-1.436921	0.600024	-0.086192
H148	H	-1.387569	0.676233	-0.028016
H149	H	-1.387356	0.676095	-0.144388
H150	H	-1.003162	-0.315210	0.247323
H151	H	-1.236786	-0.111684	0.247295
