data_functionalizedCrystal
_audit_creation_method	'MofGen! by Chris Wilmer'
_symmetry_space_group_name_H-M	'P1'
_symmetry_Int_Tables_number	1
_symmetry_cell_setting	triclinic
loop_
_symmetry_equiv_pos_as_xyz
  x,y,z
_cell_length_a	16.992695
_cell_length_b	17.699083
_cell_length_c	16.176319
_cell_angle_alpha	90.007696
_cell_angle_beta	89.994685
_cell_angle_gamma	93.024381
loop_
_atom_site_label
_atom_site_type_symbol
_atom_site_fract_x
_atom_site_fract_y
_atom_site_fract_z
O1	O	1.040089	-0.160469	-0.068717
O2	O	0.811807	-0.158709	-0.068725
O3	O	0.932397	-0.049802	-0.068713
O4	O	0.919498	-0.269377	-0.068728
O5	O	0.932381	-0.049793	0.068780
O6	O	0.811790	-0.158701	0.068768
O7	O	1.040072	-0.160461	0.068777
Cu8	Cu	0.925930	-0.159580	0.081326
Cu9	Cu	0.925949	-0.159590	-0.081275
O10	O	0.919482	-0.269368	0.068765
C11	C	0.782590	-0.156440	0.000020
C12	C	0.695559	-0.149683	0.000017
C13	C	1.069289	-0.162730	0.000029
C14	C	1.156320	-0.169487	0.000027
C15	C	0.931927	-0.021572	0.000033
C16	C	0.930540	0.062533	0.000034
C17	C	1.206685	-0.104290	0.000029
C18	C	1.288459	-0.110643	0.000031
C19	C	1.319867	-0.182195	0.000026
C20	C	1.269496	-0.247398	0.000027
C21	C	1.187723	-0.241043	0.000030
C22	C	1.563415	-0.208531	0.000021
C23	C	1.645194	-0.214881	0.000015
C24	C	1.664152	-0.078125	0.000021
C25	C	1.582376	-0.071777	0.000020
C26	C	1.532012	-0.136980	0.000025
N27	N	1.403454	-0.188691	0.000026
N28	N	1.448427	-0.130483	0.000031
C29	C	0.919952	-0.297598	0.000016
C30	C	0.921339	-0.381703	0.000010
N31	N	0.925922	-0.159573	0.195692
C32	C	1.001324	0.106747	0.000037
C33	C	1.000017	0.185771	0.000030
C34	C	0.927924	0.220581	0.000025
C35	C	0.857135	0.176361	0.000018
C36	C	0.858443	0.097338	0.000020
C37	C	0.851857	0.495053	0.000011
C38	C	0.850554	0.574082	0.000012
C39	C	0.993430	0.583486	0.000022
C40	C	0.994739	0.504463	0.000023
C41	C	0.923950	0.460250	0.000012
C42	C	0.925368	0.374563	0.000019
C43	C	0.926505	0.306267	0.000024
N44	N	0.925963	-0.159592	-0.195640
C45	C	0.979335	-0.111371	0.238961
C46	C	0.979339	-0.111370	0.325508
C47	C	0.925933	-0.159576	0.368784
C48	C	0.872513	-0.207781	0.325509
C49	C	0.872506	-0.207777	0.238963
C50	C	0.872540	-0.207796	0.674537
C51	C	0.872553	-0.207798	0.761089
C52	C	0.979373	-0.111390	0.761082
C53	C	0.979366	-0.111386	0.674537
C54	C	0.925944	-0.159587	0.631269
C55	C	0.925940	-0.159586	0.537424
C56	C	0.925940	-0.159582	0.462627
H57	H	1.181119	-0.046024	0.000028
C58	C	1.038115	-0.058354	0.626938
N59	N	1.082364	-0.018406	0.591087
H60	H	1.022870	-0.072139	0.796320
H61	H	0.829060	-0.247055	0.796322
H62	H	0.829011	-0.247027	0.203734
C63	C	1.080633	0.068464	0.000043
N64	N	1.140371	0.039632	0.000044
H65	H	1.146716	-0.294134	0.000032
C66	C	1.074046	0.466178	0.000029
N67	N	1.133782	0.437342	0.000030
H68	H	1.051070	0.619494	0.000026
H69	H	0.800803	0.061339	0.000016
H70	H	0.791844	0.602420	0.000010
C71	C	1.343857	-0.038920	0.000032
N72	N	1.385583	0.015106	0.000034
C73	C	1.077885	0.234404	0.000048
N74	N	1.136539	0.271033	0.000065
H75	H	1.522418	-0.261624	0.000021
H76	H	1.295075	-0.305657	0.000028
H77	H	1.556810	-0.013512	0.000024
C78	C	1.679740	-0.293597	0.000011
N79	N	1.705761	-0.352883	0.000006
H80	H	1.705166	-0.025041	0.000018
H81	H	0.794216	0.459064	0.000003
H82	H	0.798436	0.204709	0.000009
C83	C	1.038087	-0.058339	0.191366
N84	N	1.082338	-0.018391	0.155519
C85	C	0.813877	-0.260923	0.626954
N86	N	0.769724	-0.300979	0.591111
C87	C	1.038080	-0.058325	0.373101
N88	N	1.082318	-0.018361	0.408947
H89	H	0.829025	-0.247028	0.360749
