data_functionalizedCrystal
_audit_creation_method	'MofGen! by Chris Wilmer'
_symmetry_space_group_name_H-M	'P1'
_symmetry_Int_Tables_number	1
_symmetry_cell_setting	triclinic
loop_
_symmetry_equiv_pos_as_xyz
  x,y,z
_cell_length_a	10.654556
_cell_length_b	8.634740
_cell_length_c	9.130313
_cell_angle_alpha	90.000489
_cell_angle_beta	89.999332
_cell_angle_gamma	92.528858
loop_
_atom_site_label
_atom_site_type_symbol
_atom_site_fract_x
_atom_site_fract_y
_atom_site_fract_z
O1	O	1.692538	0.216903	-0.121808
O2	O	1.329413	0.237555	-0.121807
O3	O	1.493786	0.002569	-0.121804
O4	O	1.528165	0.451890	-0.121811
O5	O	1.493785	0.002575	0.121794
O6	O	1.329411	0.237561	0.121791
O7	O	1.692536	0.216910	0.121791
Cu8	Cu	1.510974	0.227236	0.144033
Cu9	Cu	1.510976	0.227229	-0.144050
O10	O	1.528163	0.451896	0.121787
C11	C	1.282441	0.236040	-0.000008
C12	C	1.142481	0.231497	-0.000008
C13	C	0.945224	0.225101	-0.132805
C14	C	1.076731	0.229361	-0.132799
C15	C	1.076717	0.229359	0.132786
C16	C	0.945211	0.225088	0.132778
C17	C	0.945233	0.225109	-0.286139
C18	C	1.076741	0.229369	-0.286133
C19	C	1.485998	-0.054961	-0.000007
C20	C	1.462777	-0.226394	-0.000014
C21	C	1.739508	0.218425	-0.000012
C22	C	1.879468	0.222968	-0.000022
C23	C	1.535952	0.509426	-0.000013
C24	C	1.559172	0.680859	-0.000016
N25	N	1.510982	0.227241	0.346656
N26	N	1.510976	0.227212	-0.346673
C27	C	1.583792	0.123224	0.423309
C28	C	1.583786	0.123206	0.576646
C29	C	1.438157	0.331233	0.576663
C30	C	1.438157	0.331243	0.423329
C31	C	1.667874	0.003126	0.423301
C32	C	1.667869	0.003107	0.576638
H33	H	0.891678	0.223320	0.240903
H34	H	0.906054	0.335070	-0.333718
H35	H	1.130261	0.231085	0.240907
H36	H	0.907991	0.116091	-0.345016
H37	H	1.115921	0.119401	-0.333710
F38	F	1.331677	-0.294031	-0.000027
F39	F	1.611280	-0.143472	0.638796
H40	H	1.378857	0.415928	0.360919
F41	F	1.797953	0.037677	0.631040
H42	H	1.378865	0.415908	0.639106
H43	H	1.632912	-0.115552	0.381683
H44	H	1.763342	0.040734	0.375742
H45	H	1.113994	0.338395	-0.344992
F46	F	1.690265	-0.251510	-0.000024
