data_functionalizedCrystal
_audit_creation_method	'MofGen! by Chris Wilmer'
_symmetry_space_group_name_H-M	'P1'
_symmetry_Int_Tables_number	1
_symmetry_cell_setting	triclinic
loop_
_symmetry_equiv_pos_as_xyz
  x,y,z
_cell_length_a	8.597340
_cell_length_b	16.109301
_cell_length_c	15.186229
_cell_angle_alpha	90.005167
_cell_angle_beta	97.698744
_cell_angle_gamma	95.596419
loop_
_atom_site_label
_atom_site_type_symbol
_atom_site_fract_x
_atom_site_fract_y
_atom_site_fract_z
O1	O	2.082339	-0.124091	0.084762
O2	O	1.625408	-0.133610	0.050091
O3	O	1.866426	-0.007923	0.068388
O4	O	1.841321	-0.249778	0.066465
O5	O	1.866410	-0.007921	0.214844
O6	O	1.625392	-0.133608	0.196547
O7	O	2.082323	-0.124089	0.231218
Zn8	Zn	1.853855	-0.128848	0.237136
Zn9	Zn	1.853876	-0.128851	0.044174
O10	O	1.841305	-0.249776	0.212921
C11	C	1.566930	-0.132587	0.118883
C12	C	1.392707	-0.129531	0.105664
C13	C	1.865401	0.023061	0.141539
C14	C	1.862352	0.115381	0.141309
C15	C	2.140801	-0.125112	0.162425
C16	C	2.315024	-0.128168	0.175638
C17	C	1.842330	-0.280760	0.139768
C18	C	1.845379	-0.373081	0.139992
N19	N	1.853852	-0.128846	0.368828
C20	C	1.998278	0.336529	0.151609
C21	C	1.995401	0.423274	0.151384
C22	C	1.709442	0.405765	0.129689
C23	C	1.712320	0.319022	0.129909
C24	C	1.856743	0.284407	0.140873
C25	C	1.850988	0.457894	0.140429
C26	C	1.847867	0.551946	0.140184
C27	C	1.859864	0.190349	0.141116
N28	N	1.853892	-0.128847	-0.087518
C29	C	1.960611	-0.073211	0.602656
C30	C	1.960616	-0.073209	0.694846
C31	C	1.747121	-0.184484	0.678647
C32	C	1.747110	-0.184481	0.586459
C33	C	1.853864	-0.128846	0.548466
C34	C	1.853880	-0.128847	0.732845
C35	C	1.853884	-0.128845	0.832801
C36	C	1.853858	-0.128846	0.448503
H37	H	1.381803	-0.129334	0.245664
H38	H	1.325922	-0.128359	0.035634
H39	H	2.115877	0.308349	0.160536
F40	F	2.146043	0.478743	0.162808
F41	F	1.555745	0.442612	0.118020
H42	H	1.597058	0.276582	0.121163
F43	F	2.074224	-0.013997	0.562224
F44	F	2.074227	-0.013994	0.752516
H45	H	1.660207	-0.229782	0.709591
H46	H	1.660176	-0.229786	0.542333
