data_functionalizedCrystal
_audit_creation_method	'MofGen! by Chris Wilmer'
_symmetry_space_group_name_H-M	'P1'
_symmetry_Int_Tables_number	1
_symmetry_cell_setting	triclinic
loop_
_symmetry_equiv_pos_as_xyz
  x,y,z
_cell_length_a	19.077105
_cell_length_b	25.639239
_cell_length_c	19.076919
_cell_angle_alpha	92.268407
_cell_angle_beta	90.076224
_cell_angle_gamma	87.734929
loop_
_atom_site_label
_atom_site_type_symbol
_atom_site_fract_x
_atom_site_fract_y
_atom_site_fract_z
Zn1	Zn	1.058187	-0.252939	-0.440398
Zn2	Zn	1.391520	0.080394	-0.107064
Zn3	Zn	1.724853	0.413728	0.226269
Zn4	Zn	1.062799	-0.337004	-0.322884
Zn5	Zn	1.396132	-0.003670	0.010449
Zn6	Zn	1.729465	0.329663	0.343782
Zn7	Zn	0.945407	-0.245935	-0.318192
Zn8	Zn	1.278740	0.087398	0.015142
Zn9	Zn	1.612073	0.420732	0.348475
Zn10	Zn	0.940620	-0.336689	-0.435637
Zn11	Zn	1.273954	-0.003355	-0.102304
Zn12	Zn	1.607287	0.329978	0.231030
O13	O	1.001753	-0.293142	-0.379278
O14	O	1.335086	0.040192	-0.045944
O15	O	1.668420	0.373525	0.287389
O16	O	1.157129	-0.267153	-0.428766
O17	O	1.490462	0.066180	-0.095432
O18	O	1.823796	0.399513	0.237901
O19	O	1.051160	-0.322124	-0.223931
O20	O	1.384493	0.011209	0.109403
O21	O	1.717826	0.344543	0.442736
O22	O	0.960440	-0.173702	-0.334431
O23	O	1.293773	0.159632	-0.001098
O24	O	1.627107	0.492965	0.332236
O25	O	1.160518	-0.328916	-0.342429
O26	O	1.493851	0.004418	-0.009096
O27	O	1.827184	0.337751	0.324238
O28	O	1.043299	-0.178848	-0.424215
O29	O	1.376632	0.154486	-0.090882
O30	O	1.709966	0.487819	0.242451
O31	O	0.964912	-0.255216	-0.220483
O32	O	1.298246	0.078117	0.112850
O33	O	1.631579	0.411451	0.446184
O34	O	0.846441	-0.254910	-0.329815
O35	O	1.179774	0.078423	0.003519
O36	O	1.513108	0.411756	0.336852
O37	O	0.952283	-0.328378	-0.534600
O38	O	1.285616	0.004955	-0.201266
O39	O	1.618949	0.338288	0.132067
O40	O	0.842925	-0.321587	-0.416101
O41	O	1.176258	0.011747	-0.082768
O42	O	1.509591	0.345080	0.250565
O43	O	1.038658	-0.266848	-0.538097
O44	O	1.371991	0.066486	-0.204764
O45	O	1.705325	0.399819	0.128569
O46	O	1.046519	-0.410124	-0.337813
O47	O	1.379852	-0.076791	-0.004479
O48	O	1.713185	0.256542	0.328854
O49	O	0.956755	-0.409893	-0.420652
O50	O	1.290088	-0.076559	-0.087318
O51	O	1.623421	0.256774	0.246015
C52	C	0.819187	-0.287455	-0.371933
C53	C	1.152520	0.045879	-0.038599
C54	C	1.485853	0.379212	0.294734
C55	C	0.741083	-0.285035	-0.368807
C56	C	1.074417	0.048298	-0.035474
C57	C	1.407750	0.381632	0.297860
C58	C	0.702581	-0.318661	-0.412193
C59	C	1.035914	0.014672	-0.078859
C60	C	1.369247	0.348005	0.254474
C61	C	0.629194	-0.316381	-0.409259
C62	C	0.962527	0.016952	-0.075926
C63	C	1.295861	0.350286	0.257407
C64	C	0.594312	-0.280476	-0.362936
C65	C	0.927645	0.052857	-0.029603
C66	C	1.260978	0.386190	0.303731
C67	C	0.632820	-0.246846	-0.319549
C68	C	0.966153	0.086487	0.013785
C69	C	1.299486	0.419820	0.347118
C70	C	0.706205	-0.249125	-0.322486
C71	C	1.039538	0.084209	0.010847
C72	C	1.372871	0.417542	0.344181
C73	C	0.375028	-0.269932	-0.349344
C74	C	0.708361	0.063401	-0.016011
C75	C	1.041695	0.396734	0.317322
C76	C	0.301638	-0.267658	-0.346409
C77	C	0.634971	0.065676	-0.013075
C78	C	0.968304	0.399009	0.320258
C79	C	0.298017	-0.337192	-0.436121
C80	C	0.631350	-0.003858	-0.102787
C81	C	0.964684	0.329475	0.230546
C82	C	0.371404	-0.339469	-0.439051
C83	C	0.704737	-0.006136	-0.105718
C84	C	1.038071	0.327198	0.227616
C85	C	0.409905	-0.305837	-0.395666
C86	C	0.743239	0.027496	-0.062333
C87	C	1.076572	0.360829	0.271001
N88	N	0.519299	-0.278146	-0.359935
N89	N	0.852632	0.055188	-0.026602
N90	N	1.185966	0.388521	0.306732
N91	N	0.484917	-0.308166	-0.398671
N92	N	0.818250	0.025168	-0.065338
N93	N	1.151583	0.358501	0.267995
C94	C	1.001636	-0.428980	-0.379241
C95	C	1.334970	-0.095646	-0.045907
C96	C	1.668303	0.237687	0.287426
C97	C	1.001650	-0.487094	-0.379251
C98	C	1.334983	-0.153761	-0.045918
C99	C	1.668316	0.179572	0.287416
C100	C	1.048607	-0.847575	-0.336225
C101	C	1.381941	-0.514242	-0.002891
C102	C	1.715274	-0.180908	0.330442
C103	C	1.048634	-0.902180	-0.336235
C104	C	1.381967	-0.568847	-0.002902
C105	C	1.715301	-0.235514	0.330431
O106	O	1.088438	-0.930513	-0.299613
O107	O	1.421771	-0.597179	0.033721
O108	O	1.755105	-0.263846	0.367054
N109	N	1.001875	-0.929386	-0.379329
N110	N	1.335208	-0.596052	-0.045996
N111	N	1.668541	-0.262719	0.287337
C112	C	0.955090	-0.901983	-0.422421
C113	C	1.288424	-0.568650	-0.089087
C114	C	1.621757	-0.235316	0.244246
O115	O	0.915321	-0.930137	-0.459077
O116	O	1.248654	-0.596804	-0.125744
O117	O	1.581987	-0.263471	0.207590
C118	C	0.955067	-0.847379	-0.422413
C119	C	1.288401	-0.514045	-0.089080
C120	C	1.621734	-0.180712	0.244253
C121	C	1.001825	-0.820176	-0.379311
C122	C	1.335158	-0.486843	-0.045978
C123	C	1.668492	-0.153509	0.287355
C124	C	1.095362	-0.820372	-0.293127
C125	C	1.428695	-0.487039	0.040207
C126	C	1.762028	-0.153706	0.373540
C127	C	1.095334	-0.765771	-0.293116
C128	C	1.428667	-0.432437	0.040218
C129	C	1.762000	-0.099104	0.373551
C130	C	1.048551	-0.738372	-0.336202
C131	C	1.381885	-0.405038	-0.002869
C132	C	1.715218	-0.071705	0.330464
C133	C	1.001797	-0.765574	-0.379300
C134	C	1.335130	-0.432241	-0.045967
C135	C	1.668464	-0.098908	0.287367
C136	C	0.908287	-0.819977	-0.465508
C137	C	1.241620	-0.486644	-0.132175
C138	C	1.574953	-0.153311	0.201159
C139	C	0.908268	-0.765369	-0.465497
C140	C	1.241602	-0.432036	-0.132164
C141	C	1.574935	-0.098703	0.201169
C142	C	0.955026	-0.738167	-0.422395
C143	C	1.288359	-0.404833	-0.089062
C144	C	1.621693	-0.071500	0.244271
C145	C	0.954987	-0.683574	-0.422375
C146	C	1.288320	-0.350240	-0.089042
C147	C	1.621653	-0.016907	0.244291
N148	N	1.001746	-0.656368	-0.379282
N149	N	1.335080	-0.323035	-0.045948
N150	N	1.668413	0.010298	0.287385
C151	C	1.048528	-0.683767	-0.336195
C152	C	1.381862	-0.350434	-0.002862
C153	C	1.715195	-0.017101	0.330472
C154	C	0.955143	-1.016656	-0.422434
C155	C	1.288476	-0.683322	-0.089100
C156	C	1.621809	-0.349989	0.244233
C157	C	0.955162	-1.071259	-0.422438
C158	C	1.288495	-0.737925	-0.089104
C159	C	1.621828	-0.404592	0.244229
C160	C	1.048707	-1.071452	-0.336253
C161	C	1.382040	-0.738119	-0.002920
C162	C	1.715373	-0.404786	0.330414
C163	C	1.048684	-1.016848	-0.336246
C164	C	1.382017	-0.683515	-0.002912
C165	C	1.715350	-0.350181	0.330421
C166	C	1.001902	-0.989450	-0.379340
C167	C	1.335235	-0.656117	-0.046006
C168	C	1.668569	-0.322784	0.287327
C169	C	1.048466	-0.569100	-0.336174
C170	C	1.381799	-0.235767	-0.002841
C171	C	1.715133	0.097567	0.330493
C172	C	1.048432	-0.514493	-0.336164
C173	C	1.381765	-0.181160	-0.002831
C174	C	1.715098	0.152173	0.330502
C175	C	0.954890	-0.514304	-0.422351
C176	C	1.288223	-0.180971	-0.089018
C177	C	1.621556	0.152362	0.244315
C178	C	0.954921	-0.568906	-0.422359
C179	C	1.288254	-0.235573	-0.089025
C180	C	1.621588	0.097761	0.244308
C181	C	1.001715	-0.596303	-0.379268
C182	C	1.335048	-0.262969	-0.045934
C183	C	1.668381	0.070364	0.287399
O184	O	0.915205	-0.655207	-0.458982
O185	O	1.248538	-0.321874	-0.125648
O186	O	1.581872	0.011459	0.207685
O187	O	1.088298	-0.655607	-0.299552
O188	O	1.421631	-0.322274	0.033782
O189	O	1.754964	0.011060	0.367115
C190	C	1.185032	-0.298851	-0.386652
C191	C	1.518366	0.034482	-0.053319
C192	C	1.851699	0.367816	0.280015
C193	C	1.263135	-0.301284	-0.389794
C194	C	1.596468	0.032049	-0.056461
C195	C	1.929802	0.365383	0.276872
C196	C	0.994422	-0.298359	-0.562557
C197	C	1.327755	0.034974	-0.229224
C198	C	1.661089	0.368308	0.104109
C199	C	0.991298	-0.300582	-0.640660
C200	C	1.324631	0.032751	-0.307327
C201	C	1.657964	0.366084	0.026006
C202	C	1.001889	-0.156774	-0.379331
C203	C	1.335222	0.176559	-0.045998
C204	C	1.668556	0.509893	0.287336
C205	C	1.001947	-0.098662	-0.379354
C206	C	1.335280	0.234671	-0.046020
C207	C	1.668614	0.568004	0.287313
C208	C	1.034799	-0.269593	-0.679175
C209	C	1.368132	0.063741	-0.345842
C210	C	1.701465	0.397074	-0.012509
C211	C	1.031855	-0.271680	-0.752561
C212	C	1.365188	0.061654	-0.419228
C213	C	1.698521	0.394987	-0.085894
C214	C	0.985413	-0.304759	-0.787430
C215	C	1.318746	0.028574	-0.454097
C216	C	1.652080	0.361907	-0.120764
C217	C	0.941907	-0.335750	-0.748910
C218	C	1.275240	-0.002417	-0.415577
C219	C	1.608574	0.330917	-0.082243
C220	C	0.944848	-0.333660	-0.675526
C221	C	1.278181	-0.000327	-0.342192
C222	C	1.611515	0.333007	-0.008859
C223	C	0.971792	-0.314442	-1.006711
C224	C	1.305125	0.018891	-0.673377
C225	C	1.638458	0.352224	-0.340044
C226	C	0.968856	-0.316531	-1.080100
C227	C	1.302189	0.016802	-0.746767
C228	C	1.635522	0.350136	-0.413434
C229	C	1.058803	-0.252460	-1.083746
C230	C	1.392136	0.080874	-0.750413
C231	C	1.725469	0.414207	-0.417080
C232	C	1.061742	-0.250375	-1.010361
C233	C	1.395076	0.082958	-0.677027
C234	C	1.728409	0.416292	-0.343694
C235	C	1.018234	-0.281364	-0.971846
C236	C	1.351567	0.051970	-0.638513
C237	C	1.684901	0.385303	-0.305180
N238	N	0.982404	-0.306894	-0.862442
N239	N	1.315737	0.026439	-0.529109
N240	N	1.649071	0.359772	-0.195776
N241	N	1.021240	-0.279226	-0.896836
N242	N	1.354573	0.054108	-0.563502
N243	N	1.687907	0.387441	-0.230169
C244	C	1.009096	-0.287908	-0.196713
C245	C	1.342430	0.045425	0.136621
C246	C	1.675763	0.378759	0.469954
C247	C	1.012356	-0.285541	-0.118616
C248	C	1.345690	0.047792	0.214718
C249	C	1.679023	0.381125	0.548051
H250	H	0.266661	-0.364572	-0.471443
H251	H	0.599995	-0.031239	-0.138110
H252	H	0.933328	0.302095	0.195224
H253	H	1.086507	-0.492346	-0.301063
H254	H	1.419841	-0.159013	0.032270
H255	H	1.753174	0.174320	0.365604
C256	C	0.263269	-0.228157	-0.295448
C257	C	0.596602	0.105176	0.037885
C258	C	0.929936	0.438509	0.371219
N259	N	0.234369	-0.198408	-0.257066
N260	N	0.567703	0.134925	0.076268
N261	N	0.901036	0.468259	0.409601
C262	C	0.417370	-0.232939	-0.301615
C263	C	0.750704	0.100394	0.031719
C264	C	1.084037	0.433728	0.365052
N265	N	0.449265	-0.205075	-0.265661
N266	N	0.782598	0.128258	0.067672
N267	N	1.115932	0.461592	0.401005
C268	C	0.594446	-0.207349	-0.268594
C269	C	0.927780	0.125984	0.064739
C270	C	1.261113	0.459317	0.398073
N271	N	0.565544	-0.177601	-0.230213
N272	N	0.898878	0.155733	0.103121
N273	N	1.232211	0.489066	0.436454
C274	C	0.740944	-0.358160	-0.463152
C275	C	1.074278	-0.024826	-0.129819
C276	C	1.407611	0.308507	0.203515
N277	N	0.769838	-0.387910	-0.501538
N278	N	1.103171	-0.054576	-0.168205
N279	N	1.436504	0.278757	0.165128
H280	H	0.870174	-0.743065	-0.500592
H281	H	1.203507	-0.409732	-0.167259
H282	H	1.536840	-0.076398	0.166075
H283	H	0.931035	-0.343470	-1.108489
H284	H	1.264368	-0.010136	-0.775155
H285	H	1.597701	0.323197	-0.441822
C286	C	0.903679	-0.986523	-0.469847
C287	C	1.237012	-0.653190	-0.136513
C288	C	1.570345	-0.319856	0.196820
N289	N	0.864920	-0.963830	-0.505562
N290	N	1.198253	-0.630497	-0.172229
N291	N	1.531586	-0.297164	0.161105
C292	C	1.112825	-0.213979	-0.972010
C293	C	1.446158	0.119354	-0.638676
C294	C	1.779492	0.452687	-0.305343
N295	N	1.151301	-0.186565	-0.943124
N296	N	1.484634	0.146768	-0.609790
N297	N	1.817967	0.480102	-0.276457
C298	C	0.748558	-0.212134	-0.274757
C299	C	1.081891	0.121199	0.058577
C300	C	1.415224	0.454533	0.391910
N301	N	0.780457	-0.184270	-0.238806
N302	N	1.113790	0.149063	0.094527
N303	N	1.447123	0.482396	0.427860
H304	H	0.597848	-0.343764	-0.444588
H305	H	0.931182	-0.010430	-0.111255
H306	H	1.264515	0.322903	0.222079
C307	C	0.903434	-0.484155	-0.469747
C308	C	1.236768	-0.150822	-0.136414
C309	C	1.570101	0.182511	0.196919
N310	N	0.864682	-0.461446	-0.505451
N311	N	1.198015	-0.128112	-0.172118
N312	N	1.531349	0.205221	0.161216
H313	H	0.399800	-0.368707	-0.476771
H314	H	0.733133	-0.035374	-0.143437
H315	H	1.066467	0.297959	0.189896
C316	C	1.085888	-0.233202	-0.640826
C317	C	1.419222	0.100132	-0.307493
C318	C	1.752555	0.433465	0.025841
N319	N	1.124368	-0.205789	-0.611943
N320	N	1.457701	0.127544	-0.278610
N321	N	1.791035	0.460878	0.054723
C322	C	1.099938	-0.599228	-0.288767
C323	C	1.433271	-0.265895	0.044566
C324	C	1.766604	0.067439	0.377899
N325	N	1.138702	-0.621920	-0.253057
N326	N	1.472035	-0.288586	0.080277
N327	N	1.805369	0.044747	0.413610
C328	C	1.146766	-0.735854	-0.245694
C329	C	1.480099	-0.402521	0.087640
C330	C	1.813433	-0.069188	0.420973
N331	N	1.185506	-0.713325	-0.209971
N332	N	1.518839	-0.379991	0.123363
N333	N	1.852172	-0.046658	0.456696
C334	C	0.890814	-0.372133	-0.787269
C335	C	1.224147	-0.038799	-0.453935
C336	C	1.557480	0.294534	-0.120602
N337	N	0.852328	-0.399537	-0.816160
N338	N	1.185662	-0.066203	-0.482826
N339	N	1.518995	0.267130	-0.149493
H340	H	1.133461	-0.842675	-0.258040
H341	H	1.466795	-0.509342	0.075293
H342	H	1.800128	-0.176008	0.408626
C343	C	1.100122	-0.986930	-0.288833
C344	C	1.433456	-0.653597	0.044500
C345	C	1.766789	-0.320264	0.377834
N346	N	1.138869	-0.964399	-0.253121
N347	N	1.472203	-0.631066	0.080213
N348	N	1.805536	-0.297732	0.413546
H349	H	1.086802	-1.093771	-0.301172
H350	H	1.420135	-0.760437	0.032161
H351	H	1.753468	-0.427104	0.365495
H352	H	0.917081	-1.093402	-0.457529
H353	H	1.250414	-0.760069	-0.124196
H354	H	1.583747	-0.426735	0.209138
H355	H	0.870208	-0.842116	-0.500603
H356	H	1.203542	-0.508783	-0.167270
H357	H	1.536875	-0.175450	0.166064
H358	H	1.067280	-0.246446	-0.783917
H359	H	1.400613	0.086887	-0.450584
H360	H	1.733946	0.420221	-0.117250
H361	H	1.094224	-0.227230	-1.115112
H362	H	1.427557	0.106104	-0.781779
H363	H	1.760890	0.439437	-0.448446
H364	H	0.916849	-0.591056	-0.457458
H365	H	1.250183	-0.257723	-0.124125
H366	H	1.583516	0.075611	0.209209
H367	H	0.936374	-0.339684	-0.975362
H368	H	1.269708	-0.006350	-0.642028
H369	H	1.603041	0.326983	-0.308695
C370	C	0.896995	-0.367752	-0.633159
C371	C	1.230328	-0.034419	-0.299826
C372	C	1.563661	0.298915	0.033507
N373	N	0.860949	-0.393430	-0.601250
N374	N	1.194282	-0.060097	-0.267917
N375	N	1.527615	0.273236	0.065417
