data_functionalizedCrystal
_audit_creation_method	'MofGen! by Chris Wilmer'
_symmetry_space_group_name_H-M	'P1'
_symmetry_Int_Tables_number	1
_symmetry_cell_setting	triclinic
loop_
_symmetry_equiv_pos_as_xyz
  x,y,z
_cell_length_a	16.109295
_cell_length_b	14.586319
_cell_length_c	16.109304
_cell_angle_alpha	90.000981
_cell_angle_beta	96.539088
_cell_angle_gamma	89.999424
loop_
_atom_site_label
_atom_site_type_symbol
_atom_site_fract_x
_atom_site_fract_y
_atom_site_fract_z
O1	O	-1.103135	0.076172	0.106844
O2	O	-0.861072	0.076187	0.120148
O3	O	-0.988752	0.076180	-0.007535
O4	O	-0.975455	0.076179	0.234527
O5	O	-0.988743	-0.076301	-0.007537
O6	O	-0.861063	-0.076294	0.120146
O7	O	-1.103126	-0.076309	0.106842
Cu8	Cu	-0.982094	-0.090224	0.113494
Cu9	Cu	-0.982104	0.090102	0.113496
O10	O	-0.975446	-0.076301	0.234525
C11	C	-0.830093	-0.000051	0.119609
C12	C	-0.737797	-0.000046	0.117996
C13	C	-0.515525	-0.000055	0.190008
C14	C	-0.428804	-0.000061	0.188485
C15	C	-0.448677	-0.000057	0.036996
C16	C	-0.535396	-0.000058	0.038520
C17	C	-0.568818	-0.000053	0.115028
C18	C	-0.395378	-0.000057	0.111982
C19	C	-0.301352	-0.000063	0.110331
C20	C	-0.662850	-0.000048	0.116679
N21	N	-0.982093	-0.217056	0.113492
C22	C	-1.038648	-0.452065	0.056973
C23	C	-1.038650	-0.548047	0.056971
C24	C	-0.925551	-0.548050	0.170013
C25	C	-0.925545	-0.452070	0.170011
C26	C	-0.982098	-0.404080	0.113491
C27	C	-0.982106	-0.596041	0.113492
C28	C	-0.982109	-0.700108	0.113490
C29	C	-0.982095	-0.300007	0.113492
C30	C	-0.134105	-0.000067	0.107386
C31	C	-0.226398	-0.000064	0.109014
C32	C	-0.988209	-0.000059	-0.038511
C33	C	-0.986592	-0.000052	-0.130806
N34	N	-0.982112	0.216934	0.113491
C35	C	-0.982864	0.083062	-0.343142
C36	C	-0.981338	0.083061	-0.429862
C37	C	-0.981332	-0.083182	-0.429862
C38	C	-0.982852	-0.083180	-0.343142
C39	C	-0.983622	-0.000056	-0.299785
C40	C	-0.980576	-0.000058	-0.473225
C41	C	-0.978921	-0.000060	-0.567251
C42	C	-0.985275	-0.000054	-0.205753
C43	C	-0.975990	-0.000061	0.265501
C44	C	-0.977606	-0.000061	0.357796
H45	H	-0.385417	-0.000065	0.249542
H46	H	-1.084696	-0.412994	0.010950
H47	H	-0.983488	0.150747	-0.307843
H48	H	-1.084697	-0.587113	0.010947
O49	O	-0.870704	-0.594811	0.224887
C50	C	-0.882821	-0.689815	0.212760
H51	H	-0.948927	-0.702919	0.181702
H52	H	-0.873559	-0.726288	0.275722
H53	H	-0.835777	-0.717061	0.171050
H54	H	-0.879492	-0.412998	0.216035
H55	H	-0.980718	0.150744	-0.465160
O56	O	-0.587136	0.000109	-0.034343
C57	C	-0.571981	0.079070	-0.080802
H58	H	-0.542328	0.134267	-0.036902
H59	H	-0.633520	0.105577	-0.114153
H60	H	-0.527842	0.061219	-0.128917
H61	H	-0.980707	-0.150859	-0.465173
O62	O	-0.983623	-0.164008	-0.301153
C63	C	-0.982603	-0.237376	-0.358012
H64	H	-1.007829	-0.213016	-0.423280
H65	H	-1.023378	-0.295510	-0.338241
H66	H	-0.915780	-0.262930	-0.358493
H67	H	-0.421455	-0.000067	-0.025294
H68	H	-0.542734	-0.000058	0.252305
