data_functionalizedCrystal
_audit_creation_method	'MofGen! by Chris Wilmer'
_symmetry_space_group_name_H-M	'P1'
_symmetry_Int_Tables_number	1
_symmetry_cell_setting	triclinic
loop_
_symmetry_equiv_pos_as_xyz
  x,y,z
_cell_length_a	14.908520
_cell_length_b	12.827893
_cell_length_c	12.827885
_cell_angle_alpha	90.021379
_cell_angle_beta	93.263527
_cell_angle_gamma	86.681073
loop_
_atom_site_label
_atom_site_type_symbol
_atom_site_fract_x
_atom_site_fract_y
_atom_site_fract_z
Zn1	Zn	-0.359156	-1.573614	-0.614872
Zn2	Zn	0.140844	-1.073614	-0.114872
Zn3	Zn	-0.510040	-1.563401	-0.450202
Zn4	Zn	-0.010040	-1.063401	0.049798
Zn5	Zn	-0.359196	-1.398852	-0.440142
Zn6	Zn	0.140804	-0.898852	0.059858
Zn7	Zn	-0.509968	-1.388739	-0.624891
Zn8	Zn	-0.009968	-0.888739	-0.124891
O9	O	-0.434590	-1.481151	-0.532527
O10	O	0.065410	-0.981151	-0.032527
O11	O	-0.379185	-1.718494	-0.593045
O12	O	0.120815	-1.218494	-0.093045
O13	O	-0.490076	-1.541531	-0.302635
O14	O	0.009924	-1.041531	0.197365
O15	O	-0.232946	-1.430541	-0.454917
O16	O	0.267054	-0.930541	0.045083
O17	O	-0.490038	-1.710990	-0.472063
O18	O	0.009962	-1.210990	0.027937
O19	O	-0.232918	-1.558938	-0.583290
O20	O	0.267082	-1.058938	-0.083290
O21	O	-0.379252	-1.420638	-0.295244
O22	O	0.120748	-0.920638	0.204756
O23	O	-0.379182	-1.251275	-0.464633
O24	O	0.120818	-0.751275	0.035367
O25	O	-0.489916	-1.413304	-0.769795
O26	O	0.010084	-0.913304	-0.269795
O27	O	-0.489954	-1.243845	-0.600367
O28	O	0.010046	-0.743845	-0.100367
O29	O	-0.379115	-1.549131	-0.762434
O30	O	0.120885	-1.049131	-0.262434
O31	O	-0.636274	-1.531724	-0.481778
O32	O	-0.136274	-1.031724	0.018222
O33	O	-0.636222	-1.403401	-0.610122
O34	O	-0.136222	-0.903401	-0.110122
C35	C	-0.434565	-1.209643	-0.532496
C36	C	0.065435	-0.709643	-0.032496
C37	C	-0.434577	-1.093489	-0.532509
C38	C	0.065423	-0.593489	-0.032509
C39	C	-0.379819	-1.045411	-0.592479
C40	C	0.120181	-0.545411	-0.092479
C41	C	-0.379829	-0.925360	-0.592494
C42	C	0.120171	-0.425360	-0.092494
C43	C	-0.668982	-1.465385	-0.548152
C44	C	-0.168982	-0.965385	-0.048152
C45	C	-0.769255	-1.458736	-0.554871
C46	C	-0.269255	-0.958736	-0.054871
C47	C	-0.957674	-1.580003	-0.433961
C48	C	-0.457674	-1.080003	0.066039
C49	C	-1.051890	-1.573759	-0.440271
C50	C	-0.551890	-1.073759	0.059729
C51	C	-1.051905	-1.440011	-0.573805
C52	C	-0.551905	-0.940011	-0.073805
C53	C	-0.957689	-1.446254	-0.567495
C54	C	-0.457689	-0.946254	-0.067495
C55	C	-0.910577	-1.516252	-0.497570
C56	C	-0.410577	-1.016252	0.002430
C57	C	-0.816359	-1.522490	-0.491255
C58	C	-0.316359	-1.022490	0.008745
C59	C	-0.816376	-1.388747	-0.624794
C60	C	-0.316376	-0.888747	-0.124794
C61	C	-0.910592	-1.382504	-0.631104
C62	C	-0.410592	-0.882504	-0.131104
C63	C	-0.199283	-1.497007	-0.516864
C64	C	0.300717	-0.997007	-0.016864
C65	C	-0.099009	-1.503764	-0.510190
C66	C	0.400991	-1.003764	-0.010190
C67	C	-0.434503	-1.481229	-0.805091
C68	C	0.065497	-0.981229	-0.305091
C69	C	-0.434466	-1.481262	-0.921242
C70	C	0.065534	-0.981262	-0.421242
C71	C	-0.434608	-0.753720	-0.532549
C72	C	0.065392	-0.253720	-0.032549
C73	C	-0.434597	-0.869874	-0.532536
C74	C	0.065403	-0.369874	-0.032536
C75	C	-0.379616	-1.421461	-0.969369
C76	C	0.120384	-0.921461	-0.469369
C77	C	-0.379577	-1.421494	-1.089417
C78	C	0.120423	-0.921494	-0.589417
C79	C	-0.434611	-1.481138	-0.261018
C80	C	0.065389	-0.981138	0.238982
C81	C	-0.434394	-1.481324	-0.144851
C82	C	0.065606	-0.981324	0.355149
H83	H	-0.778001	-1.579482	-0.434315
H84	H	-0.278001	-1.079482	0.065685
H85	H	-1.090233	-1.625673	-0.388476
H86	H	-0.590233	-1.125673	0.111524
F87	F	-0.318527	-1.107773	-0.659572
F88	F	0.181473	-0.607773	-0.159572
F89	F	-0.907532	-1.654484	-0.359529
F90	F	-0.407532	-1.154484	0.140471
F91	F	-0.495814	-1.548210	-0.983548
F92	F	0.004186	-1.048210	-0.483548
H93	H	-0.332951	-0.883999	-0.643840
H94	H	0.167049	-0.383999	-0.143840
F95	F	-0.766245	-1.320884	-0.692485
F96	F	-0.266245	-0.820884	-0.192485
F97	F	-0.495882	-0.923924	-0.465429
F98	F	0.004118	-0.423924	0.034571
F99	F	-0.495860	-1.031127	-0.465408
F100	F	0.004140	-0.531127	0.034592
H101	H	-1.090281	-1.383029	-0.630742
H102	H	-0.590281	-0.883029	-0.130742
F103	F	-0.960742	-1.308015	-0.705524
F104	F	-0.460742	-0.808015	-0.205524
H105	H	-0.332690	-1.370235	-0.921698
H106	H	0.167310	-0.870235	-0.421698
H107	H	-0.332614	-1.370302	-1.130819
H108	H	0.167386	-0.870302	-0.630819
H109	H	-0.481352	-1.532529	-1.103456
H110	H	0.018648	-1.032529	-0.603456
