data_functionalizedCrystal
_audit_creation_method	'MofGen! by Chris Wilmer'
_symmetry_space_group_name_H-M	'P1'
_symmetry_Int_Tables_number	1
_symmetry_cell_setting	triclinic
loop_
_symmetry_equiv_pos_as_xyz
  x,y,z
_cell_length_a	11.169417
_cell_length_b	12.827892
_cell_length_c	11.169409
_cell_angle_alpha	90.033086
_cell_angle_beta	90.019824
_cell_angle_gamma	90.016270
loop_
_atom_site_label
_atom_site_type_symbol
_atom_site_fract_x
_atom_site_fract_y
_atom_site_fract_z
Zn1	Zn	1.834920	-0.415924	0.678536
Zn2	Zn	2.334920	0.084076	1.178536
Zn3	Zn	1.834792	-0.590711	0.477851
Zn4	Zn	2.334792	-0.090711	0.977851
Zn5	Zn	1.634206	-0.415988	0.477871
Zn6	Zn	2.134206	0.084012	0.977871
Zn7	Zn	1.634196	-0.590626	0.678496
Zn8	Zn	2.134196	-0.090626	1.178496
O9	O	1.734528	-0.503312	0.578188
O10	O	2.234528	-0.003312	1.078188
O11	O	2.002853	-0.439119	0.651924
O12	O	2.502853	0.060881	1.151924
O13	O	1.808134	-0.567596	0.309904
O14	O	2.308134	-0.067596	0.809904
O15	O	1.660889	-0.269743	0.504515
O16	O	2.160889	0.230257	1.004515
O17	O	2.002759	-0.567534	0.504481
O18	O	2.502759	-0.067534	1.004481
O19	O	1.808353	-0.269696	0.651943
O20	O	2.308353	0.230304	1.151943
O21	O	1.660765	-0.439227	0.309918
O22	O	2.160765	0.060773	0.809918
O23	O	1.466255	-0.439145	0.504475
O24	O	1.966255	0.060855	1.004475
O25	O	1.660872	-0.567389	0.846451
O26	O	2.160872	-0.067389	1.346451
O27	O	1.466248	-0.567451	0.651874
O28	O	1.966248	-0.067451	1.151874
O29	O	1.808343	-0.439036	0.846481
O30	O	2.308343	0.060964	1.346481
O31	O	1.808124	-0.736936	0.504441
O32	O	2.308124	-0.236936	1.004441
O33	O	1.660747	-0.736874	0.651854
O34	O	2.160747	-0.236874	1.151854
C35	C	1.422704	-0.503296	0.578173
C36	C	1.922704	-0.003296	1.078173
C37	C	1.289304	-0.503315	0.578195
C38	C	1.789304	-0.003315	1.078195
C39	C	1.734453	-0.774822	0.578167
C40	C	2.234453	-0.274822	1.078167
C41	C	1.734531	-0.890975	0.578198
C42	C	2.234531	-0.390975	1.078198
C43	C	1.807545	-0.942756	0.505335
C44	C	2.307545	-0.442756	1.005335
C45	C	1.807626	-1.062807	0.505365
C46	C	2.307626	-0.562807	1.005365
C47	C	2.047571	-0.503329	0.578205
C48	C	2.547571	-0.003329	1.078205
C49	C	2.180971	-0.503336	0.578212
C50	C	2.680971	-0.003336	1.078212
C51	C	1.734621	-0.503196	0.891231
C52	C	2.234621	-0.003196	1.391231
C53	C	1.734660	-0.503147	1.024631
C54	C	2.234660	-0.003147	1.524631
C55	C	1.734637	-0.230742	0.578236
C56	C	2.234637	0.269258	1.078236
C57	C	1.734683	-0.114589	0.578256
C58	C	2.234683	0.385411	1.078256
C59	C	1.734506	-0.503352	0.266364
C60	C	2.234506	-0.003352	0.766364
C61	C	1.734699	-0.503108	0.132964
C62	C	2.234699	-0.003108	0.632964
H63	H	1.869999	-0.898214	0.442935
H64	H	2.369999	-0.398214	0.942935
H65	H	1.672165	-1.070066	0.640637
H66	H	2.172165	-0.570066	1.140637
O67	O	1.890456	-1.121778	0.422747
O68	O	2.390456	-0.621778	0.922747
H69	H	1.877539	-1.206816	0.435752
H70	H	2.377539	-0.706816	0.935752
O71	O	1.651796	-0.949972	0.660852
O72	O	2.151796	-0.449972	1.160852
H73	H	1.705561	-0.999626	0.721917
H74	H	2.205561	-0.499626	1.221917
