data_functionalizedCrystal
_audit_creation_method	'MofGen! by Chris Wilmer'
_symmetry_space_group_name_H-M	'P1'
_symmetry_Int_Tables_number	1
_symmetry_cell_setting	triclinic
loop_
_symmetry_equiv_pos_as_xyz
  x,y,z
_cell_length_a	10.967874
_cell_length_b	10.489746
_cell_length_c	10.065875
_cell_angle_alpha	98.879142
_cell_angle_beta	69.229500
_cell_angle_gamma	84.626831
loop_
_atom_site_label
_atom_site_type_symbol
_atom_site_fract_x
_atom_site_fract_y
_atom_site_fract_z
O1	O	1.740667	0.093269	-0.522869
O2	O	1.363377	0.124926	-0.434140
O3	O	1.560602	-0.076834	-0.480512
O4	O	1.543442	0.295029	-0.476497
O5	O	1.522995	-0.038211	-0.244681
O6	O	1.325771	0.163549	-0.198309
O7	O	1.703060	0.131891	-0.287038
Zn8	Zn	1.508444	0.153852	-0.205230
Zn9	Zn	1.557993	0.102965	-0.515948
O10	O	1.505835	0.333652	-0.240666
C11	C	1.296262	0.144852	-0.304863
C12	C	1.152307	0.146668	-0.271008
C13	C	1.107609	0.127470	-0.378082
C14	C	0.958825	0.129347	-0.343094
C15	C	1.540501	-0.105004	-0.362292
C16	C	1.536618	-0.246481	-0.361380
C17	C	1.408834	-0.394341	-0.331345
C18	C	1.491264	-0.338492	-0.462644
C19	C	1.454217	-0.300455	-0.230140
C20	C	1.612216	-0.442734	-0.491195
C21	C	1.575135	-0.404684	-0.258582
C22	C	1.657658	-0.348892	-0.389931
C23	C	1.770176	0.111965	-0.416319
C24	C	1.914132	0.110147	-0.450183
C25	C	1.525937	0.361821	-0.358890
C26	C	1.529821	0.503296	-0.359811
N27	N	1.474638	0.188580	0.006824
N28	N	1.591809	0.068227	-0.728004
C29	C	1.546222	0.115040	0.057771
C30	C	1.520215	0.141777	0.221054
H31	H	1.080424	0.164501	-0.153435
H32	H	1.455866	-0.309117	-0.548936
H33	H	1.672350	-0.014538	0.194738
O34	O	1.642482	0.016389	-0.034252
C35	C	1.765366	0.038909	-0.028350
H36	H	1.748680	0.105629	0.079345
H37	H	1.819486	0.087450	-0.121481
C38	C	1.869524	-0.174137	-0.173850
C39	C	1.849030	-0.092199	-0.041571
H40	H	1.921135	-0.255010	-0.182012
H41	H	1.786736	-0.189308	-0.177832
H42	H	1.914619	-0.133670	-0.251444
H43	H	1.803922	-0.132659	0.036019
H44	H	1.931813	-0.077037	-0.037577
O45	O	0.999788	0.089100	-0.590476
C46	C	0.965635	0.187485	-0.657786
H47	H	0.906839	0.277714	-0.571616
H48	H	0.903100	0.150274	-0.720333
C49	C	1.164438	0.112515	-0.869059
C50	C	1.092234	0.223340	-0.763224
H51	H	1.242529	0.134629	-0.934103
H52	H	1.187447	0.046227	-0.823714
H53	H	1.112312	0.081517	-0.921165
H54	H	1.144354	0.254326	-0.711108
H55	H	1.069237	0.289633	-0.808563
H56	H	1.678949	-0.504129	-0.601611
H57	H	1.762949	-0.328548	-0.414753
H58	H	1.394093	0.271331	0.084088
O59	O	0.873108	0.150846	-0.202789
C60	C	0.879961	0.274037	-0.129067
H61	H	0.919680	0.338706	-0.210756
H62	H	0.948662	0.261138	-0.067962
C63	C	0.692206	0.259239	0.079598
C64	C	0.740979	0.338672	-0.020732
H65	H	0.606477	0.299109	0.146429
H66	H	0.687591	0.176242	0.029933
H67	H	0.749469	0.248497	0.130504
H68	H	0.683726	0.349399	-0.071648
H69	H	0.745581	0.421673	0.028927
H70	H	1.439664	0.224533	0.298314
O71	O	1.374395	-0.227178	-0.098518
C72	C	1.243403	-0.249719	-0.068158
H73	H	1.244033	-0.348740	-0.133846
H74	H	1.186944	-0.169586	-0.098537
C75	C	1.174960	-0.127205	0.175455
C76	C	1.175733	-0.248831	0.094785
H77	H	1.133214	-0.126652	0.275967
H78	H	1.263210	-0.112015	0.155000
H79	H	1.127912	-0.060441	0.150123
H80	H	1.222794	-0.315590	0.120105
H81	H	1.087489	-0.264032	0.115249
O82	O	1.193274	0.106433	-0.518364
C83	C	1.159122	0.204822	-0.585669
H84	H	1.100316	0.295045	-0.499494
H85	H	1.096597	0.167612	-0.648229
C86	C	1.357938	0.129874	-0.796930
C87	C	1.285722	0.240691	-0.691090
H88	H	1.436029	0.151996	-0.861964
H89	H	1.380946	0.063583	-0.751589
H90	H	1.305820	0.098876	-0.849048
H91	H	1.337834	0.271677	-0.638963
H92	H	1.262726	0.306988	-0.736425
H93	H	1.303651	-0.414962	-0.306720
H94	H	1.610486	-0.434080	-0.172275
