data_functionalizedCrystal
_audit_creation_method	'MofGen! by Chris Wilmer'
_symmetry_space_group_name_H-M	'P1'
_symmetry_Int_Tables_number	1
_symmetry_cell_setting	triclinic
loop_
_symmetry_equiv_pos_as_xyz
  x,y,z
_cell_length_a	10.968094
_cell_length_b	10.489716
_cell_length_c	10.065875
_cell_angle_alpha	98.882384
_cell_angle_beta	93.118877
_cell_angle_gamma	84.620237
loop_
_atom_site_label
_atom_site_type_symbol
_atom_site_fract_x
_atom_site_fract_y
_atom_site_fract_z
O1	O	1.614771	0.222481	0.266258
O2	O	1.264764	0.226133	0.183947
O3	O	1.447748	0.039008	0.226974
O4	O	1.431787	0.409606	0.223230
O5	O	1.412857	0.074840	0.445758
O6	O	1.229872	0.261965	0.402731
O7	O	1.579880	0.258313	0.485042
Zn8	Zn	1.399337	0.265828	0.478623
Zn9	Zn	1.445307	0.218618	0.190366
O10	O	1.396896	0.445438	0.442015
C11	C	1.202500	0.241077	0.282799
C12	C	1.068956	0.232208	0.251392
C13	C	0.853312	0.237634	0.318259
C14	C	0.991334	0.246812	0.350732
C15	C	1.429104	0.009346	0.336080
C16	C	1.425518	-0.132423	0.335225
C17	C	1.537728	-0.225850	0.361625
C18	C	1.495635	-0.323120	0.239812
C19	C	1.461209	-0.287757	0.455510
C20	C	1.383487	-0.227840	0.213333
C21	C	1.349062	-0.192456	0.429132
C22	C	1.306892	-0.289685	0.307274
C23	C	1.642144	0.243368	0.386187
C24	C	1.775690	0.252236	0.417585
C25	C	1.415541	0.475099	0.332906
C26	C	1.419127	0.616867	0.333753
N27	N	1.367971	0.298047	0.675354
N28	N	1.476682	0.186389	-0.006363
C29	C	1.434387	0.229819	0.758750
C30	C	1.410257	0.254627	0.910243
H31	H	1.033237	0.212912	0.142308
C32	C	0.823945	0.278326	0.564946
N33	N	0.860288	0.297987	0.675942
H34	H	1.027055	0.266104	0.459816
H35	H	1.509108	0.153036	0.717995
C36	C	1.267015	0.401769	0.730406
N37	N	1.190972	0.479894	0.771868
H38	H	1.335522	0.331405	0.950990
H39	H	1.551407	0.109601	0.952888
H40	H	1.287190	-0.135792	0.509203
H41	H	1.494059	-0.314502	0.557848
H42	H	1.635349	-0.197498	0.384469
H43	H	1.350704	-0.201280	0.110904
C44	C	0.805055	0.211561	0.170898
N45	N	0.768710	0.191923	0.059901
H46	H	1.557548	-0.379759	0.159755
H47	H	1.209223	-0.317820	0.284244
