data_functionalizedCrystal
_audit_creation_method	'MofGen! by Chris Wilmer'
_symmetry_space_group_name_H-M	'P1'
_symmetry_Int_Tables_number	1
_symmetry_cell_setting	triclinic
loop_
_symmetry_equiv_pos_as_xyz
  x,y,z
_cell_length_a	14.519709
_cell_length_b	14.519731
_cell_length_c	13.330367
_cell_angle_alpha	89.994378
_cell_angle_beta	89.998062
_cell_angle_gamma	83.684499
loop_
_atom_site_label
_atom_site_type_symbol
_atom_site_fract_x
_atom_site_fract_y
_atom_site_fract_z
O1	O	1.223881	0.120889	-0.083295
O2	O	1.723881	0.620889	0.416705
O3	O	0.955405	0.135126	-0.083326
O4	O	1.455405	0.635126	0.416674
O5	O	1.096751	-0.006230	-0.083301
O6	O	1.596751	0.493770	0.416699
O7	O	1.082535	0.262245	-0.083321
O8	O	1.582535	0.762245	0.416679
O9	O	1.096730	-0.006233	0.083546
O10	O	1.596730	0.493767	0.583546
O11	O	0.955385	0.135123	0.083521
O12	O	1.455385	0.635123	0.583521
O13	O	1.223860	0.120886	0.083552
O14	O	1.723860	0.620886	0.583552
Cu15	Cu	1.089621	0.128004	0.098771
Cu16	Cu	1.589621	0.628004	0.598771
Cu17	Cu	1.089645	0.128008	-0.098545
Cu18	Cu	1.589645	0.628008	0.401455
O19	O	1.082514	0.262242	0.083527
O20	O	1.582514	0.762242	0.583527
C21	C	0.921035	0.134461	0.000094
C22	C	1.421035	0.634461	0.500094
C23	C	0.818654	0.132473	0.000082
C24	C	1.318654	0.632473	0.500082
C25	C	1.096075	-0.040591	0.000123
C26	C	1.596075	0.459409	0.500123
C27	C	1.094079	-0.142971	0.000123
C28	C	1.594079	0.357029	0.500123
C29	C	0.443757	0.125153	0.000128
C30	C	0.943757	0.625153	0.500128
C31	C	0.548065	0.127186	0.000115
C32	C	1.048065	0.627186	0.500115
C33	C	0.631202	0.128813	0.000104
C34	C	1.131202	0.628813	0.500104
C35	C	0.735517	0.130846	0.000093
C36	C	1.235517	0.630846	0.500093
C37	C	1.092457	-0.226115	0.000121
C38	C	1.592457	0.273885	0.500121
C39	C	1.090430	-0.330424	0.000113
C40	C	1.590430	0.169576	0.500113
C41	C	1.088822	-0.413563	0.000106
C42	C	1.588822	0.086437	0.500106
C43	C	1.086795	-0.517878	0.000100
C44	C	1.586795	-0.017878	0.500100
C45	C	1.258230	0.121551	0.000130
C46	C	1.758230	0.621551	0.500130
C47	C	1.360612	0.123539	0.000135
C48	C	1.860612	0.623539	0.500135
C49	C	1.083191	0.296603	0.000101
C50	C	1.583191	0.796603	0.500101
C51	C	1.085187	0.398983	0.000094
C52	C	1.585187	0.898983	0.500094
N53	N	1.089610	0.128001	0.237552
N54	N	1.589610	0.628001	0.737552
N55	N	1.089662	0.128004	-0.237327
N56	N	1.589662	0.628004	0.262673
C57	C	1.027054	0.190575	0.710164
C58	C	1.527054	0.690575	1.210164
C59	C	1.152260	0.065433	0.710155
C60	C	1.652260	0.565433	1.210155
C61	C	1.152250	0.065430	0.605136
C62	C	1.652250	0.565430	1.105136
C63	C	1.089642	0.128002	0.552627
C64	C	1.589642	0.628002	1.052627
C65	C	1.027044	0.190576	0.605136
C66	C	1.527044	0.690576	1.105136
C67	C	1.214853	0.002863	0.552619
C68	C	1.714853	0.502863	1.052619
C69	C	1.214846	0.002859	0.447595
C70	C	1.714846	0.502859	0.947595
C71	C	1.152232	0.065427	0.395083
C72	C	1.652232	0.565427	0.895083
C73	C	1.089631	0.128003	0.447599
C74	C	1.589631	0.628003	0.947599
C75	C	1.027023	0.190574	0.395090
C76	C	1.527023	0.690574	0.895090
C77	C	0.964416	0.253147	0.447603
C78	C	1.464416	0.753147	0.947603
C79	C	0.964430	0.253144	0.552625
C80	C	1.464430	0.753144	1.052625
C81	C	1.152219	0.065429	0.290062
C82	C	1.652219	0.565429	0.790062
C83	C	1.027012	0.190575	0.290062
C84	C	1.527012	0.690575	0.790062
H85	H	0.976025	0.241526	0.247315
H86	H	1.476025	0.741526	0.747315
H87	H	0.913459	0.304089	0.595388
H88	H	1.413459	0.804089	1.095388
C89	C	1.221075	-0.003388	0.232296
C90	C	1.721075	0.496612	0.732296
H91	H	1.212106	0.005576	0.162229
H92	H	1.712106	0.505576	0.662229
H93	H	1.210967	-0.064962	0.249518
H94	H	1.710967	0.435038	0.749518
H95	H	1.282642	0.006778	0.249495
H96	H	1.782642	0.506778	0.749495
H97	H	0.976078	0.241519	0.752923
H98	H	1.476078	0.741519	1.252923
H99	H	1.203239	0.014494	0.752911
H100	H	1.703239	0.514494	1.252911
H101	H	1.265832	-0.048076	0.595376
H102	H	1.765832	0.451924	1.095376
H103	H	0.913444	0.304097	0.404838
H104	H	1.413444	0.804097	0.904838
C105	C	1.283700	-0.065975	0.389839
C106	C	1.783700	0.434025	0.889839
H107	H	1.320983	-0.103244	0.436154
H108	H	1.820983	0.396756	0.936154
H109	H	1.322140	-0.032720	0.348853
H110	H	1.822140	0.467280	0.848853
H111	H	1.250448	-0.104443	0.348887
H112	H	1.750448	0.395557	0.848887
