data_functionalizedCrystal
_audit_creation_method	'MofGen! by Chris Wilmer'
_symmetry_space_group_name_H-M	'P1'
_symmetry_Int_Tables_number	1
_symmetry_cell_setting	triclinic
loop_
_symmetry_equiv_pos_as_xyz
  x,y,z
_cell_length_a	16.120530
_cell_length_b	18.050590
_cell_length_c	16.120256
_cell_angle_alpha	92.872767
_cell_angle_beta	90.128265
_cell_angle_gamma	87.114013
loop_
_atom_site_label
_atom_site_type_symbol
_atom_site_fract_x
_atom_site_fract_y
_atom_site_fract_z
Zn1	Zn	1.247477	-0.376264	-0.534555
Zn2	Zn	1.747477	0.123736	-0.034555
Zn3	Zn	1.254440	-0.494486	-0.395493
Zn4	Zn	1.754440	0.005514	0.104507
Zn5	Zn	1.115466	-0.363711	-0.388473
Zn6	Zn	1.615466	0.136289	0.111527
Zn7	Zn	1.108396	-0.493805	-0.527463
Zn8	Zn	1.608396	0.006195	-0.027463
O9	O	1.181445	-0.432067	-0.461496
O10	O	1.681445	0.067933	0.038504
O11	O	1.364767	-0.397485	-0.522014
O12	O	1.864767	0.102515	-0.022014
O13	O	1.241877	-0.472169	-0.278196
O14	O	1.741877	0.027831	0.221804
O15	O	1.133023	-0.261455	-0.407881
O16	O	1.633023	0.238545	0.092119
O17	O	1.369883	-0.484342	-0.419846
O18	O	1.869883	0.015658	0.080154
O19	O	1.230011	-0.270678	-0.515207
O20	O	1.730011	0.229322	-0.015207
O21	O	1.139774	-0.376089	-0.273038
O22	O	1.639774	0.123911	0.226962
O23	O	0.998161	-0.375430	-0.401004
O24	O	1.498161	0.124570	0.098996
O25	O	1.120972	-0.483182	-0.644770
O26	O	1.620972	0.016818	-0.144770
O27	O	0.992967	-0.471010	-0.503120
O28	O	1.492967	0.028990	-0.003120
O29	O	1.223155	-0.396825	-0.649980
O30	O	1.723155	0.103175	-0.149980
O31	O	1.235021	-0.598317	-0.412969
O32	O	1.735021	-0.098317	0.087031
O33	O	1.127724	-0.597817	-0.509927
O34	O	1.627724	-0.097817	-0.009927
C35	C	0.965392	-0.421784	-0.450531
C36	C	1.465392	0.078216	0.049469
C37	C	0.872962	-0.417404	-0.445860
C38	C	1.372962	0.082596	0.054140
C39	C	0.703732	-0.409390	-0.437339
C40	C	1.203732	0.090610	0.062661
C41	C	0.659995	-0.454800	-0.485714
C42	C	1.159995	0.045200	0.014286
C43	C	0.565829	-0.450341	-0.480973
C44	C	1.065829	0.049659	0.019027
C45	C	0.797906	-0.413848	-0.442079
C46	C	1.297906	0.086152	0.057921
C47	C	1.181382	-0.625014	-0.461460
C48	C	1.681382	-0.125014	0.038540
C49	C	1.181430	-0.707563	-0.461476
C50	C	1.681430	-0.207563	0.038524
C51	C	1.239891	-0.907267	-0.408834
C52	C	1.739891	-0.407267	0.091166
C53	C	1.256356	-0.960823	-0.485756
C54	C	1.756356	-0.460823	0.014244
C55	C	1.181476	-0.858697	-0.461511
C56	C	1.681476	-0.358697	0.038489
C57	C	1.165094	-0.952229	-0.384628
C58	C	1.665094	-0.452229	0.115372
C59	C	1.181522	-1.004685	-0.461539
C60	C	1.681522	-0.504685	0.038461
C61	C	1.197978	-0.911169	-0.538475
C62	C	1.697978	-0.411169	-0.038475
C63	C	1.106683	-0.902566	-0.437294
C64	C	1.606683	-0.402566	0.062706
C65	C	1.123117	-0.956100	-0.514267
C66	C	1.623117	-0.456100	-0.014267
C67	C	1.181452	-0.774597	-0.461494
C68	C	1.681452	-0.274597	0.038506
C69	C	1.181546	-1.088784	-0.461565
C70	C	1.681546	-0.588784	0.038435
C71	C	1.398341	-0.442390	-0.472505
C72	C	1.898341	0.057610	0.027495
C73	C	1.490770	-0.446789	-0.477196
C74	C	1.990770	0.053211	0.022804
C75	C	1.170498	-0.441328	-0.678391
C76	C	1.670498	0.058672	-0.178391
C77	C	1.165834	-0.445275	-0.770819
C78	C	1.665834	0.054725	-0.270819
C79	C	1.181529	-0.238367	-0.461552
C80	C	1.681529	0.261633	0.038448
C81	C	1.181565	-0.155824	-0.461576
C82	C	1.681565	0.344176	0.038424
C83	C	1.205769	-0.411465	-0.983804
C84	C	1.705769	0.088535	-0.483804
C85	C	1.157289	-0.452449	-0.940038
C86	C	1.657289	0.047551	-0.440038
C87	C	1.162045	-0.448456	-0.845876
C88	C	1.662045	0.051544	-0.345876
C89	C	1.201015	-0.415457	-1.077975
C90	C	1.701015	0.084543	-0.577975
C91	C	1.192396	-0.422790	-0.245448
C92	C	1.692396	0.077210	0.254552
C93	C	1.197222	-0.418641	-0.153029
C94	C	1.697222	0.081359	0.346971
H95	H	0.693271	-0.497025	-0.530692
H96	H	1.193271	0.002975	-0.030692
Br97	Br	0.648272	-0.339015	-0.362379
Br98	Br	1.148272	0.160985	0.137621
H99	H	1.289303	-0.885822	-0.364335
H100	H	1.789303	-0.385822	0.135665
H101	H	1.319625	-0.986266	-0.506256
H102	H	1.819625	-0.486266	-0.006256
H103	H	1.211787	-0.893084	-0.603559
H104	H	1.711787	-0.393084	-0.103559
H105	H	1.112208	-0.490530	-0.973288
H106	H	1.612208	0.009470	-0.473288
H107	H	1.043433	-0.877107	-0.416773
H108	H	1.543433	-0.377107	0.083227
Br109	Br	1.141967	-0.982527	-0.276241
Br110	Br	1.641967	-0.482527	0.223759
H111	H	1.250842	-0.373384	-0.950556
H112	H	1.750842	0.126616	-0.450556
H113	H	1.073735	-0.977415	-0.558881
H114	H	1.573735	-0.477415	-0.058881
