data_functionalizedCrystal
_audit_creation_method	'MofGen! by Chris Wilmer'
_symmetry_space_group_name_H-M	'P1'
_symmetry_Int_Tables_number	1
_symmetry_cell_setting	triclinic
loop_
_symmetry_equiv_pos_as_xyz
  x,y,z
_cell_length_a	10.654550
_cell_length_b	17.038272
_cell_length_c	9.130313
_cell_angle_alpha	89.995195
_cell_angle_beta	89.999724
_cell_angle_gamma	87.798243
loop_
_atom_site_label
_atom_site_type_symbol
_atom_site_fract_x
_atom_site_fract_y
_atom_site_fract_z
O1	O	1.678042	0.109878	-0.121691
O2	O	1.313536	0.120346	-0.121718
O3	O	1.493623	0.001285	-0.121693
O4	O	1.497955	0.228940	-0.121716
O5	O	1.493609	0.001281	0.121906
O6	O	1.313522	0.120343	0.121881
O7	O	1.678029	0.109875	0.121908
Cu8	Cu	1.495774	0.115108	0.144137
Cu9	Cu	1.495790	0.115113	-0.143947
O10	O	1.497942	0.228936	0.121883
C11	C	1.266660	0.119576	0.000078
C12	C	1.127003	0.117276	0.000068
C13	C	1.054026	0.187378	0.000065
C14	C	0.922805	0.185213	0.000091
C15	C	0.937548	0.042838	0.000116
C16	C	1.068767	0.045004	0.000101
C17	C	1.489675	-0.027867	0.000106
C18	C	1.477918	-0.114726	0.000104
C19	C	1.585862	-0.164237	0.000114
C20	C	1.574808	-0.245849	0.000099
C21	C	1.455808	-0.277949	0.000085
C22	C	1.347855	-0.228431	0.000072
C23	C	1.358911	-0.146820	0.000076
C24	C	1.416750	-0.523925	0.000063
C25	C	1.405702	-0.605542	0.000063
C26	C	1.632655	-0.622955	0.000088
C27	C	1.643701	-0.541341	0.000101
C28	C	1.535748	-0.491831	0.000079
C29	C	1.444505	-0.361369	0.000075
C30	C	1.547052	-0.408412	0.000079
C31	C	1.724905	0.110645	0.000108
C32	C	1.864561	0.112945	0.000109
C33	C	1.501889	0.258088	0.000081
C34	C	1.513646	0.344947	0.000072
N35	N	1.495772	0.115105	0.346759
N36	N	1.495802	0.115110	-0.346570
C37	C	1.575545	0.062407	0.423422
C38	C	1.575557	0.062407	0.576759
C39	C	1.416019	0.167810	0.576757
C40	C	1.416002	0.167806	0.423423
H41	H	1.682764	-0.138109	0.000134
H42	H	1.351074	0.210719	0.639191
C43	C	1.193018	0.272416	-0.125202
C44	C	1.118037	0.266820	0.000037
H45	H	1.232524	0.321464	-0.125219
H46	H	1.255260	0.230984	-0.125193
H47	H	1.142112	0.268609	-0.210131
H48	H	1.168945	0.270621	0.084967
H49	H	1.055787	0.308264	0.000041
H50	H	1.640497	0.019494	0.361007
H51	H	1.250963	-0.254573	0.000051
H52	H	1.640514	0.019495	0.639174
C53	C	1.258310	0.272003	0.438810
C54	C	1.328311	0.225739	0.339143
H55	H	1.204181	0.307768	0.386775
H56	H	1.209644	0.239180	0.498630
H57	H	1.313635	0.300449	0.498601
H58	H	1.272986	0.197288	0.279358
H59	H	1.376981	0.258566	0.279298
H60	H	0.890116	-0.016004	0.000152
C61	C	0.921421	0.326159	0.000042
C62	C	0.842589	0.262271	0.000077
H63	H	0.871897	0.373733	0.000025
H64	H	0.972913	0.324046	0.084978
H65	H	0.972903	0.324033	-0.084920
H66	H	0.791113	0.264394	0.085044
H67	H	0.791075	0.264385	-0.084868
H68	H	1.128187	-0.012085	0.000107
H69	H	1.662708	-0.286159	0.000110
C70	C	1.840560	-0.531053	-0.125106
C71	C	1.774512	-0.506063	0.000113
H72	H	1.921315	-0.509270	-0.125093
H73	H	1.849419	-0.586736	-0.125099
H74	H	1.795746	-0.514087	-0.210049
H75	H	1.819322	-0.523034	0.085057
H76	H	1.765658	-0.450368	0.000120
H77	H	1.720544	-0.663274	0.000102
H78	H	1.308794	-0.631674	0.000075
H79	H	1.328847	-0.483623	0.000045
C80	C	1.133470	-0.137801	0.000062
C81	C	1.240256	-0.092394	0.000069
H82	H	1.060216	-0.104199	0.000061
H83	H	1.133885	-0.169989	-0.084880
H84	H	1.133878	-0.170000	0.085017
H85	H	1.239852	-0.060200	-0.084892
H86	H	1.239839	-0.060192	0.085020
H87	H	1.643941	-0.382273	0.000058
H88	H	1.347615	-0.387514	0.000067
