data_functionalizedCrystal
_audit_creation_method	'MofGen! by Chris Wilmer'
_symmetry_space_group_name_H-M	'P1'
_symmetry_Int_Tables_number	1
_symmetry_cell_setting	triclinic
loop_
_symmetry_equiv_pos_as_xyz
  x,y,z
_cell_length_a	21.395364
_cell_length_b	15.299816
_cell_length_c	21.395355
_cell_angle_alpha	80.332906
_cell_angle_beta	90.024552
_cell_angle_gamma	80.365592
loop_
_atom_site_label
_atom_site_type_symbol
_atom_site_fract_x
_atom_site_fract_y
_atom_site_fract_z
Zn1	Zn	1.001018	-0.358802	0.397446
Zn2	Zn	1.501018	0.141198	0.897446
Zn3	Zn	1.019059	-0.509600	0.310818
Zn4	Zn	1.519059	-0.009600	0.810818
Zn5	Zn	0.896237	-0.358842	0.292688
Zn6	Zn	1.396237	0.141158	0.792688
Zn7	Zn	0.914342	-0.509616	0.415561
Zn8	Zn	1.414342	-0.009616	0.915561
O9	O	0.957664	-0.434215	0.354128
O10	O	1.457664	0.065785	0.854128
O11	O	1.091086	-0.378783	0.385962
O12	O	1.591086	0.121217	0.885962
O13	O	1.002740	-0.489612	0.220737
O14	O	1.502740	0.010388	0.720737
O15	O	0.895009	-0.232627	0.291415
O16	O	1.395009	0.267373	0.791415
O17	O	1.104341	-0.489573	0.322317
O18	O	1.604341	0.010427	0.822317
O19	O	0.971991	-0.232598	0.368381
O20	O	1.471991	0.267402	0.868381
O21	O	0.912503	-0.378850	0.207416
O22	O	1.412503	0.121150	0.707416
O23	O	0.810964	-0.378866	0.308980
O24	O	1.310964	0.121134	0.808980
O25	O	0.925867	-0.489601	0.500834
O26	O	1.425867	0.010399	1.000834
O27	O	0.824266	-0.489639	0.399254
O28	O	1.324266	0.010361	0.899254
O29	O	0.989547	-0.378798	0.487526
O30	O	1.489547	0.121202	0.987526
O31	O	1.020295	-0.635812	0.339881
O32	O	1.520295	-0.135812	0.839881
O33	O	0.943361	-0.635823	0.416835
O34	O	1.443361	-0.135823	0.916835
C35	C	0.794882	-0.434259	0.354116
C36	C	1.294882	0.065741	0.854116
C37	C	0.725245	-0.434300	0.354128
C38	C	1.225245	0.065700	0.854128
C39	C	0.685664	-0.376705	0.387341
C40	C	1.185664	0.123295	0.887341
C41	C	0.620226	-0.376681	0.387341
C42	C	1.120226	0.123319	0.887341
C43	C	0.594373	-0.434268	0.354136
C44	C	1.094373	0.065732	0.854136
C45	C	0.633963	-0.491866	0.320915
C46	C	1.133963	0.008134	0.820915
C47	C	0.699399	-0.491882	0.320911
C48	C	1.199399	0.008118	0.820911
C49	C	0.500419	-0.515489	0.358874
C50	C	1.000419	-0.015489	0.858874
C51	C	0.434984	-0.515475	0.358882
C52	C	0.934984	-0.015475	0.858882
C53	C	0.392547	-0.434218	0.354144
C54	C	0.892547	0.065782	0.854144
C55	C	0.415552	-0.352974	0.349410
C56	C	0.915552	0.147026	0.849410
C57	C	0.480988	-0.352989	0.349406
C58	C	0.980988	0.147011	0.849406
C59	C	0.523420	-0.434256	0.354136
C60	C	1.023420	0.065744	0.854136
C61	C	0.282009	-0.376593	0.387358
C62	C	0.782009	0.123407	0.887358
C63	C	0.216569	-0.376567	0.387353
C64	C	0.716569	0.123433	0.887353
C65	C	0.230309	-0.491760	0.320931
C66	C	0.730309	0.008240	0.820931
C67	C	0.295746	-0.491778	0.320932
C68	C	0.795746	0.008222	0.820932
C69	C	0.321593	-0.434195	0.354149
C70	C	0.821593	0.065805	0.854149
C71	C	0.985767	-0.668542	0.382305
C72	C	1.485767	-0.168542	0.882305
C73	C	0.997847	-0.768788	0.394380
C74	C	1.497847	-0.268788	0.894380
C75	C	0.871737	-1.051724	0.268039
C76	C	1.371737	-0.551724	0.768039
C77	C	0.860384	-0.957538	0.256695
C78	C	1.360384	-0.457538	0.756695
C79	C	0.894749	-0.910346	0.291115
C80	C	1.394749	-0.410346	0.791115
C81	C	0.940469	-0.957349	0.336881
C82	C	1.440469	-0.457349	0.836881
C83	C	0.951819	-1.051544	0.348229
C84	C	1.451819	-0.551544	0.848229
C85	C	0.974831	-0.910166	0.371306
C86	C	1.474831	-0.410166	0.871306
C87	C	1.020551	-0.957170	0.417072
C88	C	1.520551	-0.457170	0.917072
C89	C	1.031900	-1.051356	0.428418
C90	C	1.531900	-0.551356	0.928418
C91	C	0.997535	-1.098548	0.393998
C92	C	1.497535	-0.598548	0.893998
C93	C	0.963481	-0.815971	0.359958
C94	C	1.463481	-0.315971	0.859958
C95	C	1.043563	-0.815791	0.440148
C96	C	1.543563	-0.315791	0.940148
C97	C	1.054916	-0.909977	0.451492
C98	C	1.554916	-0.409977	0.951492
C99	C	1.121082	-0.434172	0.354141
C100	C	1.621082	0.065828	0.854141
C101	C	1.190721	-0.434153	0.354146
C102	C	1.690721	0.065847	0.854146
C103	C	0.957714	-0.434197	0.517549
C104	C	1.457714	0.065803	1.017549
C105	C	0.957735	-0.434189	0.587190
C106	C	1.457735	0.065811	1.087190
C107	C	0.929468	-0.198973	0.325855
C108	C	1.429468	0.301027	0.825855
C109	C	0.917453	-0.098727	0.313807
C110	C	1.417453	0.401273	0.813807
C111	C	0.957643	-0.434168	0.191335
C112	C	1.457643	0.065832	0.691335
C113	C	0.957712	-0.433922	0.121664
C114	C	1.457712	0.066078	0.621664
C115	C	0.990891	-0.376492	0.612974
C116	C	1.490891	0.123508	1.112974
C117	C	0.990886	-0.376453	0.678405
C118	C	1.490886	0.123547	1.178405
C119	C	0.957733	-0.434128	0.718051
C120	C	1.457733	0.065872	1.218051
C121	C	0.924569	-0.491829	0.692259
C122	C	1.424569	0.008171	1.192259
C123	C	0.924571	-0.491860	0.626829
C124	C	1.424571	0.008140	1.126829
C125	C	0.962525	-0.515337	0.831490
C126	C	1.462525	-0.015337	1.331490
C127	C	0.962528	-0.515308	0.896920
C128	C	1.462528	-0.015308	1.396920
C129	C	0.957725	-0.434032	0.919860
C130	C	1.457725	0.065968	1.419860
C131	C	0.952931	-0.352783	0.877362
C132	C	1.452931	0.147217	1.377362
C133	C	0.952933	-0.352814	0.811932
C134	C	1.452933	0.147186	1.311932
C135	C	0.957727	-0.434100	0.789000
C136	C	1.457727	0.065900	1.289000
C137	C	0.990877	-0.376288	1.016591
C138	C	1.490877	0.123712	1.516591
C139	C	0.990867	-0.376248	1.082023
C140	C	1.490867	0.123752	1.582023
C141	C	0.924554	-0.491632	1.095877
C142	C	1.424554	0.008368	1.595877
C143	C	0.924560	-0.491664	1.030446
C144	C	1.424560	0.008336	1.530446
C145	C	0.957725	-0.433993	0.990807
C146	C	1.457725	0.066007	1.490807
H147	H	0.587992	-0.329777	0.414386
H148	H	1.087992	0.170223	0.914386
C149	C	0.888086	-0.555076	1.139484
C150	C	1.388086	-0.055076	1.639484
N151	N	0.860617	-0.602863	1.172333
N152	N	1.360617	-0.102863	1.672333
C153	C	1.010021	-1.202159	0.406473
C154	C	1.510021	-0.702159	0.906473
N155	N	1.019423	-1.280200	0.415869
N156	N	1.519423	-0.780200	0.915869
C157	C	0.506291	-0.263622	0.344190
C158	C	1.006291	0.236378	0.844190
N159	N	0.525349	-0.196308	0.340258
N160	N	1.025349	0.303692	0.840258
C161	C	1.081368	-0.763884	0.478012
C162	C	1.581368	-0.263884	0.978012
N163	N	1.109840	-0.724782	0.506529
N164	N	1.609840	-0.224782	1.006529
H165	H	1.017896	-0.329531	0.580703
H166	H	1.517896	0.170469	1.080703
C167	C	0.810081	-0.905841	0.206367
C168	C	1.310081	-0.405841	0.706367
N169	N	0.772186	-0.866903	0.168462
N170	N	1.272186	-0.366903	0.668462
H171	H	0.843759	-1.090156	0.240022
H172	H	1.343759	-0.590156	0.740022
C173	C	0.605524	-0.555212	0.284390
C174	C	1.105524	-0.055212	0.784390
N175	N	0.584103	-0.602924	0.256876
N176	N	1.084103	-0.102924	0.756876
H177	H	0.949028	-0.286658	0.777333
H178	H	1.449028	0.213342	1.277333
H179	H	0.381000	-0.286807	0.345551
H180	H	0.881000	0.213193	0.845551
H181	H	1.017865	-0.329259	1.103014
H182	H	1.517865	0.170741	1.603014
C183	C	0.882262	-0.806738	0.278632
C184	C	1.382262	-0.306738	0.778632
N185	N	0.872857	-0.728697	0.269226
N186	N	1.372857	-0.228697	0.769226
H187	H	1.069125	-1.089623	0.465686
H188	H	1.569125	-0.589623	0.965686
C189	C	0.742941	-0.555247	0.284376
C190	C	1.242941	-0.055247	0.784376
N191	N	0.775738	-0.602977	0.256858
N192	N	1.275738	-0.102977	0.756858
C193	C	1.027366	-0.312985	0.706774
C194	C	1.527366	0.187015	1.206774
N195	N	1.054845	-0.265182	0.728140
N196	N	1.554845	0.234818	1.228140
C197	C	0.888089	-0.555140	1.002083
C198	C	1.388089	-0.055140	1.502083
N199	N	0.860614	-0.602951	0.980720
N200	N	1.360614	-0.102951	1.480720
C201	C	0.310441	-0.313244	0.423890
C202	C	0.810441	0.186756	0.923890
N203	N	0.331855	-0.265527	0.451405
N204	N	0.831855	0.234473	0.951405
C205	C	1.105204	-0.961693	0.501836
C206	C	1.605204	-0.461693	1.001836
N207	N	1.143080	-1.000647	0.539757
N208	N	1.643080	-0.500647	1.039757
H209	H	0.926255	-0.777709	0.322695
H210	H	1.426255	-0.277709	0.822695
H211	H	0.897573	-0.538785	0.724543
H212	H	1.397573	-0.038785	1.224543
C213	C	0.947646	-0.263372	0.902591
C214	C	1.447646	0.236628	1.402591
N215	N	0.943666	-0.196030	0.921596
N216	N	1.443666	0.303970	1.421596
C217	C	1.027352	-0.312842	0.972985
C218	C	1.527352	0.187158	1.472985
N219	N	1.054824	-0.265052	0.940142
N220	N	1.554824	0.234948	1.440142
H221	H	0.966435	-0.581466	0.931517
H222	H	1.466435	-0.081466	1.431517
C223	C	0.967822	-0.604755	0.806265
C224	C	1.467822	-0.104755	1.306265
N225	N	0.971815	-0.672102	0.787265
N226	N	1.471815	-0.172102	1.287265
C227	C	0.888096	-0.555336	0.598466
C228	C	1.388096	-0.055336	1.098466
N229	N	0.860624	-0.603149	0.577103
N230	N	1.360624	-0.103149	1.077103
H231	H	0.706704	-0.329817	0.414389
H232	H	1.206704	0.170183	0.914389
H233	H	0.416259	-0.581629	0.362740
H234	H	0.916259	-0.081629	0.862740
C235	C	0.201874	-0.555105	0.284404
C236	C	0.701874	-0.055105	0.784404
N237	N	0.180455	-0.602818	0.256890
N238	N	0.680455	-0.102818	0.756890
C239	C	0.339288	-0.555144	0.284400
C240	C	0.839288	-0.055144	0.784400
N241	N	0.372084	-0.602874	0.256882
N242	N	0.872084	-0.102874	0.756882
C243	C	0.173029	-0.313205	0.423891
C244	C	0.673029	0.186795	0.923891
N245	N	0.140234	-0.265480	0.451414
N246	N	0.640234	0.234520	0.951414
C247	C	0.547095	-0.604884	0.364090
C248	C	1.047095	-0.104884	0.864090
N249	N	0.582250	-0.672214	0.368021
N250	N	1.082250	-0.172214	0.868021
