data_functionalizedCrystal
_audit_creation_method	'MofGen! by Chris Wilmer'
_symmetry_space_group_name_H-M	'P1'
_symmetry_Int_Tables_number	1
_symmetry_cell_setting	triclinic
loop_
_symmetry_equiv_pos_as_xyz
  x,y,z
_cell_length_a	8.497374
_cell_length_b	8.497374
_cell_length_c	19.077105
_cell_angle_alpha	92.301881
_cell_angle_beta	92.300461
_cell_angle_gamma	90.004389
loop_
_atom_site_label
_atom_site_type_symbol
_atom_site_fract_x
_atom_site_fract_y
_atom_site_fract_z
Zn1	Zn	0.988989	0.725394	1.075997
Zn2	Zn	0.725254	0.989143	1.075990
Zn3	Zn	0.714621	0.714756	0.958331
Zn4	Zn	0.978390	0.978509	0.958314
O5	O	0.851813	0.851951	1.017158
O6	O	0.962889	0.769284	1.174487
O7	O	0.503081	0.952744	1.060386
O8	O	0.751003	0.495405	0.973949
O9	O	0.769124	0.963059	1.174483
O10	O	0.952579	0.503222	1.060397
O11	O	0.495270	0.751152	0.973942
O12	O	0.740725	0.740840	0.859837
O13	O	1.200558	0.944934	0.973921
O14	O	0.934515	0.934618	0.859825
O15	O	1.208345	0.758972	1.060382
O16	O	0.758847	1.208494	1.060371
O17	O	0.944825	1.200681	0.973915
C18	C	0.835317	0.835422	0.834293
C19	C	0.828298	0.828389	0.756063
C20	C	1.441934	0.851976	1.017162
C21	C	1.263289	0.851968	1.017155
C22	C	0.925737	0.926127	0.719322
C23	C	0.919149	0.919498	0.645817
C24	C	0.815112	0.815138	0.609053
C25	C	0.717669	0.717389	0.645799
C26	C	0.724266	0.724011	0.719303
C27	C	0.784586	0.784490	0.389217
C28	C	0.777993	0.777878	0.315708
C29	C	0.979476	0.979986	0.315731
C30	C	0.986057	0.986605	0.389237
C31	C	0.888620	0.888851	0.425976
N32	N	0.808372	0.808363	0.533918
N33	N	0.895369	0.895619	0.501109
C34	C	0.851835	1.261830	1.017149
C35	C	0.851811	1.440475	1.017168
C36	C	0.868375	0.868545	1.200737
C37	C	0.875433	0.875616	1.278967
H38	H	1.010450	1.011114	0.749250
F39	F	0.606954	0.606311	0.606670
F40	F	0.667248	0.666808	0.276582
F41	F	0.620561	0.619982	0.758404
F42	F	1.083166	1.084018	0.276625
H43	H	0.998493	0.999088	0.615906
F44	F	1.096784	1.097683	0.428358
F45	F	0.680888	0.680446	0.428308
