data_functionalizedCrystal
_audit_creation_method	'MofGen! by Chris Wilmer'
_symmetry_space_group_name_H-M	'P1'
_symmetry_Int_Tables_number	1
_symmetry_cell_setting	triclinic
loop_
_symmetry_equiv_pos_as_xyz
  x,y,z
_cell_length_a	33.359691
_cell_length_b	33.359654
_cell_length_c	33.359725
_cell_angle_alpha	120.004060
_cell_angle_beta	90.000336
_cell_angle_gamma	60.000176
loop_
_atom_site_label
_atom_site_type_symbol
_atom_site_fract_x
_atom_site_fract_y
_atom_site_fract_z
O1	O	-0.274985	-0.353594	-0.011930
O2	O	-0.216694	-0.271506	0.011865
O3	O	-0.216692	-0.353592	-0.070224
O4	O	-0.274987	-0.271508	0.070158
O5	O	-0.283365	-0.286917	-0.070218
O6	O	-0.283367	-0.204831	0.011871
O7	O	-0.341659	-0.286918	-0.011924
Zn8	Zn	-0.323099	-0.235289	-0.000025
Zn9	Zn	-0.235254	-0.323136	-0.000034
O10	O	-0.341661	-0.204833	0.070165
C11	C	-0.146317	-0.044926	0.028808
C12	C	-0.170555	-0.068931	0.029150
C13	C	-0.073730	-0.117512	0.028813
C14	C	-0.098078	-0.141407	0.029155
C15	C	-0.146320	-0.117510	0.028815
C16	C	-0.098075	-0.068932	0.029148
C17	C	-0.146125	0.027632	0.022910
C18	C	-0.168973	0.073485	0.019188
C19	C	-0.216775	0.096483	0.017322
C20	C	-0.241550	0.146198	0.013284
C21	C	-0.241737	0.073635	0.019182
C22	C	-0.218892	0.027787	0.022906
C23	C	-0.171086	0.004785	0.024768
C24	C	-0.219073	-0.123211	0.022926
C25	C	-0.242081	-0.149778	0.019211
C26	C	-0.217278	-0.199443	0.017350
C27	C	-0.242221	-0.228251	0.013319
C28	C	-0.169468	-0.222546	0.019207
C29	C	-0.146463	-0.195980	0.022925
C30	C	-0.171265	-0.146315	0.024782
C31	C	0.004726	-0.123217	0.022920
C32	C	0.054302	-0.149789	0.019196
C33	C	0.079164	-0.199454	0.017335
C34	C	0.132916	-0.228265	0.013302
C35	C	0.054458	-0.222556	0.019192
C36	C	0.004884	-0.195988	0.022914
C37	C	-0.019980	-0.146318	0.024778
C38	C	-0.146320	-0.440926	-0.367190
C39	C	-0.098075	-0.489510	-0.391430
C40	C	-0.146320	-0.440926	-0.294601
C41	C	-0.098075	-0.489510	-0.318951
C42	C	-0.073728	-0.513519	-0.367196
C43	C	-0.170556	-0.417028	-0.318945
C44	C	-0.219074	-0.362279	-0.366995
C45	C	-0.242082	-0.335553	-0.389843
C46	C	-0.217277	-0.358493	-0.437647
C47	C	-0.242219	-0.329516	-0.462421
C48	C	-0.169465	-0.408163	-0.462612
C49	C	-0.146460	-0.434888	-0.439766
C50	C	-0.171264	-0.411944	-0.391958
C51	C	0.004728	-0.586086	-0.439954
C52	C	0.054303	-0.631945	-0.462965
C53	C	0.079167	-0.654944	-0.438162
C54	C	0.132921	-0.704665	-0.463108
C55	C	0.054460	-0.632093	-0.390350
C56	C	0.004887	-0.586239	-0.367342
C57	C	-0.019977	-0.563235	-0.392144
C58	C	-0.219074	-0.362279	-0.216140
C59	C	-0.242079	-0.335548	-0.166562
C60	C	-0.217275	-0.358488	-0.141700
C61	C	-0.242217	-0.329511	-0.087946
C62	C	-0.169465	-0.408154	-0.166409
C63	C	-0.146458	-0.434884	-0.215985
C64	C	-0.171264	-0.411944	-0.240849
C65	C	-0.412018	-0.513526	-0.028906
C66	C	-0.460262	-0.489518	-0.029243
C67	C	-0.412021	-0.440932	-0.028899
C68	C	-0.460265	-0.417034	-0.029236
C69	C	-0.484610	-0.440933	-0.028899
C70	C	-0.387783	-0.489517	-0.029243
C71	C	-0.339263	-0.586094	-0.023023
C72	C	-0.316254	-0.631954	-0.019309
C73	C	-0.341057	-0.654954	-0.017447
C74	C	-0.316113	-0.704676	-0.013418
C75	C	-0.388868	-0.632103	-0.019301
C76	C	-0.411875	-0.586248	-0.023017
C77	C	-0.387072	-0.563244	-0.024875
C78	C	-0.563064	-0.435232	-0.023009
C79	C	-0.612639	-0.408664	-0.019289
C80	C	-0.637504	-0.358993	-0.017418
C81	C	-0.691257	-0.330182	-0.013382
C82	C	-0.612799	-0.335887	-0.019273
C83	C	-0.563226	-0.362455	-0.022995
C84	C	-0.538361	-0.412126	-0.024861
C85	C	-0.339270	-0.435228	-0.023008
C86	C	-0.316267	-0.408654	-0.019281
C87	C	-0.341073	-0.358983	-0.017410
C88	C	-0.316132	-0.330170	-0.013374
C89	C	-0.388882	-0.335878	-0.019263
C90	C	-0.411887	-0.362448	-0.022988
C91	C	-0.387079	-0.412123	-0.024860
O92	O	0.291018	-0.286930	-0.011932
O93	O	0.150642	-0.204845	0.011853
O94	O	0.232728	-0.286941	-0.070232
O95	O	0.208932	-0.204834	0.070152
O96	O	0.232725	-0.353608	-0.070225
O97	O	0.150639	-0.271512	0.011859
O98	O	0.291015	-0.353597	-0.011926
Zn99	Zn	0.220826	-0.323139	-0.000032
Zn100	Zn	0.220830	-0.235303	-0.000041
O101	O	0.208929	-0.271501	0.070159
O102	O	-0.341640	0.279049	-0.011967
O103	O	-0.283351	0.162472	0.011832
O104	O	-0.283344	0.162454	-0.070258
O105	O	-0.341647	0.279067	0.070123
O106	O	-0.216672	0.162452	-0.070260
O107	O	-0.216679	0.162470	0.011830
O108	O	-0.274968	0.279048	-0.011968
Zn109	Zn	-0.235238	0.220759	-0.000070
Zn110	Zn	-0.323081	0.220761	-0.000067
O111	O	-0.274975	0.279066	0.070122
O112	O	0.291025	-0.837534	-0.495883
O113	O	0.150647	-0.720939	-0.437582
O114	O	0.232727	-0.720938	-0.437580
O115	O	0.208945	-0.837535	-0.495885
O116	O	0.232729	-0.720940	-0.504252
O117	O	0.150648	-0.720941	-0.504254
O118	O	0.291027	-0.837535	-0.562555
Zn119	Zn	0.220838	-0.779238	-0.543990
Zn120	Zn	0.220836	-0.779236	-0.456147
O121	O	0.208946	-0.837536	-0.562557
O122	O	-0.274992	-0.271503	-0.562510
O123	O	-0.216692	-0.353591	-0.504225
O124	O	-0.216696	-0.271504	-0.504216
O125	O	-0.274988	-0.353591	-0.562519
O126	O	-0.283369	-0.204830	-0.437539
O127	O	-0.283365	-0.286918	-0.437547
O128	O	-0.341664	-0.204829	-0.495832
Zn129	Zn	-0.323100	-0.235288	-0.456103
Zn130	Zn	-0.235256	-0.323133	-0.543954
O131	O	-0.341660	-0.286917	-0.495841
C132	C	-0.484626	-0.044904	0.367136
C133	C	-0.460280	-0.068912	0.391371
C134	C	-0.412034	-0.117498	0.294542
C135	C	-0.387798	-0.141395	0.318887
C136	C	-0.412035	-0.117497	0.367131
C137	C	-0.460279	-0.068913	0.318892
C138	C	-0.563082	0.027663	0.366953
C139	C	-0.612657	0.073521	0.389806
C140	C	-0.637522	0.096521	0.437610
C141	C	-0.691275	0.146242	0.462390
C142	C	-0.612815	0.073671	0.462569
C143	C	-0.563242	0.027816	0.439718
C144	C	-0.538377	0.004812	0.391910
C145	C	-0.412224	-0.123198	0.439884
C146	C	-0.389374	-0.149767	0.462889
C147	C	-0.341571	-0.199437	0.438081
C148	C	-0.316794	-0.228248	0.463021
C149	C	-0.316609	-0.222542	0.390269
C150	C	-0.339457	-0.195974	0.367266
C151	C	-0.387265	-0.146304	0.392073
C152	C	-0.412222	-0.123201	0.216087
C153	C	-0.389373	-0.149774	0.166508
C154	C	-0.341570	-0.199444	0.141641
C155	C	-0.316792	-0.228256	0.087887
C156	C	-0.316611	-0.222549	0.166344
C157	C	-0.339457	-0.195980	0.215920
C158	C	-0.387263	-0.146305	0.240790
C159	C	0.249671	-0.513560	-0.367194
C160	C	0.250010	-0.489558	-0.391434
C161	C	0.249675	-0.440965	-0.294606
C162	C	0.250015	-0.417074	-0.318956
C163	C	0.249674	-0.440976	-0.367201
C164	C	0.250012	-0.489548	-0.318950
C165	C	0.243777	-0.586119	-0.366998
C166	C	0.240056	-0.631975	-0.389844
C167	C	0.238189	-0.654978	-0.437648
C168	C	0.234152	-0.704697	-0.462421
C169	C	0.240046	-0.632134	-0.462613
C170	C	0.243769	-0.586282	-0.439768
C171	C	0.245632	-0.563274	-0.391961
C172	C	0.243781	-0.435284	-0.439958
C173	C	0.240064	-0.408721	-0.462968
C174	C	0.238201	-0.359053	-0.438167
C175	C	0.234168	-0.330248	-0.463112
C176	C	0.240060	-0.335944	-0.390355
C177	C	0.243780	-0.362507	-0.367347
C178	C	0.245638	-0.412175	-0.392148
C179	C	0.243787	-0.435252	-0.216146
C180	C	0.240065	-0.408675	-0.166568
C181	C	0.238202	-0.359007	-0.141707
C182	C	0.234171	-0.330190	-0.087953
C183	C	0.240057	-0.335908	-0.166416
C184	C	0.243777	-0.362481	-0.215992
C185	C	0.245642	-0.412153	-0.240855
C186	C	0.191982	-0.117466	0.367128
C187	C	0.191646	-0.068884	0.391361
C188	C	0.191981	-0.117477	0.294533
C189	C	0.191644	-0.068894	0.318877
C190	C	0.191986	-0.044882	0.367121
C191	C	0.191641	-0.141368	0.318884
C192	C	0.197869	-0.196104	0.366946
C193	C	0.201587	-0.222824	0.389799
C194	C	0.203454	-0.199880	0.437602
C195	C	0.207487	-0.228850	0.462383
C196	C	0.201600	-0.150212	0.462561
C197	C	0.197881	-0.123492	0.439709
C198	C	0.196018	-0.146441	0.391902
C199	C	0.197882	0.027687	0.439871
C200	C	0.201603	0.073543	0.462875
C201	C	0.203468	0.096536	0.438066
C202	C	0.207505	0.146254	0.463005
C203	C	0.201609	0.073681	0.390255
C204	C	0.197887	0.027829	0.367253
C205	C	0.196025	0.004832	0.392062
C206	C	0.197866	-0.196126	0.216080
C207	C	0.201588	-0.222861	0.166502
C208	C	0.203454	-0.199927	0.141634
C209	C	0.207485	-0.228909	0.087881
C210	C	0.201602	-0.150264	0.166336
C211	C	0.197882	-0.123529	0.215912
C212	C	0.196014	-0.146463	0.240782
C213	C	-0.073692	-0.117598	-0.367230
C214	C	-0.098037	-0.141499	-0.391466
C215	C	-0.146287	-0.044997	-0.294638
C216	C	-0.170521	-0.069008	-0.318985
C217	C	-0.146282	-0.117598	-0.367229
C218	C	-0.098042	-0.069008	-0.318986
C219	C	0.004762	-0.123300	-0.367042
C220	C	0.054338	-0.149871	-0.389893
C221	C	0.079204	-0.199547	-0.437696
C222	C	0.132958	-0.228361	-0.462474
C223	C	0.054499	-0.222655	-0.462657
C224	C	0.004926	-0.196084	-0.439809
C225	C	-0.019941	-0.146408	-0.392001
C226	C	-0.146089	-0.196253	-0.439983
C227	C	-0.168937	-0.222981	-0.462989
C228	C	-0.216741	-0.200037	-0.438184
C229	C	-0.241516	-0.229017	-0.463126
C230	C	-0.241705	-0.150362	-0.390372
C231	C	-0.218859	-0.123634	-0.367368
C232	C	-0.171051	-0.146581	-0.392173
C233	C	-0.146103	0.027580	-0.216181
C234	C	-0.168954	0.073441	-0.166603
C235	C	-0.216758	0.096444	-0.141738
C236	C	-0.241539	0.146171	-0.087984
C237	C	-0.241716	0.073590	-0.166443
C238	C	-0.218867	0.027729	-0.216019
C239	C	-0.171061	0.004727	-0.240886
O240	O	0.208906	-0.204910	-0.495882
O241	O	0.232707	-0.286987	-0.437583
O242	O	0.150619	-0.204919	-0.437590
O243	O	0.290994	-0.286978	-0.495876
O244	O	0.150636	-0.271609	-0.504268
O245	O	0.232724	-0.353677	-0.504261
O246	O	0.208923	-0.271600	-0.562560
Zn247	Zn	0.220827	-0.323227	-0.543997
Zn248	Zn	0.220804	-0.235360	-0.456146
O249	O	0.291011	-0.353668	-0.562554
C250	C	-0.412039	0.559118	0.367093
C251	C	-0.460284	0.583019	0.391330
C252	C	-0.412033	0.486516	0.294501
C253	C	-0.460278	0.510527	0.318848
C254	C	-0.484628	0.559117	0.367093
C255	C	-0.387799	0.510528	0.318848
C256	C	-0.339286	0.564820	0.366904
C257	C	-0.316281	0.591391	0.389754
C258	C	-0.341089	0.641067	0.437557
C259	C	-0.316149	0.669881	0.462334
C260	C	-0.388902	0.664175	0.462519
C261	C	-0.411904	0.637603	0.439671
C262	C	-0.387097	0.587928	0.391863
C263	C	-0.563088	0.637772	0.439847
C264	C	-0.612663	0.664500	0.462855
C265	C	-0.637525	0.641557	0.438050
C266	C	-0.691279	0.670536	0.462992
C267	C	-0.612815	0.591882	0.390238
C268	C	-0.563241	0.565154	0.367233
C269	C	-0.538380	0.588101	0.392038
C270	C	-0.339275	0.413939	0.216044
C271	C	-0.316267	0.368079	0.166466
C272	C	-0.341069	0.345076	0.141602
C273	C	-0.316123	0.295348	0.087848
C274	C	-0.388879	0.367930	0.166307
C275	C	-0.411890	0.413790	0.215883
C276	C	-0.387085	0.436793	0.240749
H277	H	-0.239218	0.009188	0.024424
H278	H	-0.319074	0.432664	0.236289
H279	H	-0.015483	-0.082850	-0.328116
C280	C	0.081479	-0.657077	-0.515555
C281	C	0.126742	-0.657495	-0.525807
C282	C	0.153923	-0.682632	-0.578397
C283	C	0.135839	-0.707351	-0.620736
C284	C	0.090573	-0.706934	-0.610485
C285	C	0.063393	-0.681797	-0.557894
H286	H	0.140131	-0.639196	-0.494464
H287	H	0.187432	-0.682940	-0.585985
H288	H	0.155960	-0.725958	-0.659666
H289	H	0.077185	-0.725233	-0.641827
H290	H	0.029884	-0.681488	-0.550306
C291	C	-0.486681	0.483378	0.292444
C292	C	-0.505473	0.461790	0.313626
C293	C	-0.531874	0.434641	0.287223
C294	C	-0.539483	0.429079	0.239637
C295	C	-0.520690	0.450667	0.218452
C296	C	-0.494289	0.477816	0.244855
H297	H	-0.499841	0.465907	0.348855
H298	H	-0.545785	0.418660	0.302906
H299	H	-0.559026	0.408981	0.220092
H300	H	-0.526322	0.446550	0.183223
H301	H	-0.480378	0.493797	0.229172
C302	C	-0.093867	-0.489517	-0.243167
C303	C	-0.083609	-0.544622	-0.288434
C304	C	-0.031018	-0.599255	-0.315616
C305	C	0.011316	-0.598783	-0.297530
C306	C	0.001059	-0.543676	-0.252261
C307	C	-0.051532	-0.489043	-0.225079
H308	H	-0.114948	-0.544973	-0.301824
H309	H	-0.023425	-0.640048	-0.349127
H310	H	0.050247	-0.639225	-0.317652
H311	H	0.032398	-0.543325	-0.238870
H312	H	-0.059125	-0.448249	-0.191567
C313	C	0.195838	-0.068859	0.467162
C314	C	0.150989	-0.013756	0.477007
C315	C	0.148945	0.040879	0.504461
C316	C	0.191751	0.040410	0.522071
C317	C	0.236604	-0.014695	0.512226
C318	C	0.238648	-0.069329	0.484772
H319	H	0.119298	-0.013408	0.463971
H320	H	0.115741	0.081671	0.511748
H321	H	0.190238	0.080854	0.542394
H322	H	0.268295	-0.015043	0.525262
H323	H	0.271851	-0.110122	0.477485
H324	H	-0.280643	0.092322	-0.146194
C325	C	0.195839	0.002687	0.314664
C326	C	0.154063	0.040139	0.303421
C327	C	0.152015	0.014996	0.250832
C328	C	0.191744	-0.047600	0.209486
C329	C	0.233524	-0.085057	0.220728
C330	C	0.235571	-0.059913	0.273317
H331	H	0.124651	0.086480	0.334029
H332	H	0.121087	0.042723	0.242510
H333	H	0.190229	-0.066213	0.170556
H334	H	0.262936	-0.131397	0.190120
H335	H	0.266499	-0.087641	0.281639
C336	C	-0.022625	-0.560786	-0.467238
C337	C	-0.067933	-0.560322	-0.476949
C338	C	-0.095285	-0.535018	-0.504231
C339	C	-0.077328	-0.510177	-0.521803
C340	C	-0.032017	-0.510640	-0.512092
C341	C	-0.004666	-0.535944	-0.484810
H342	H	-0.081228	-0.578712	-0.463941
H343	H	-0.128827	-0.534676	-0.511420
H344	H	-0.097576	-0.491446	-0.541999
H345	H	-0.018723	-0.492250	-0.525100
H346	H	0.028876	-0.536286	-0.477622
H347	H	-0.479826	-0.048811	0.431014
C348	C	0.081806	-0.277192	0.017145
C349	C	0.063848	-0.276798	0.059949
C350	C	0.091197	-0.331431	0.057904
C351	C	0.136504	-0.386459	0.013055
C352	C	0.154465	-0.386855	-0.029752
C353	C	0.127116	-0.332222	-0.027707
H354	H	0.030306	-0.236061	0.093152
H355	H	0.077901	-0.331137	0.089593
H356	H	0.156750	-0.426902	0.011541
H357	H	0.188006	-0.427592	-0.062955
H358	H	0.140412	-0.332516	-0.059396
H359	H	0.203114	0.092147	0.501804
C360	C	-0.640170	0.098971	0.515157
C361	C	-0.644617	0.061635	0.526481
C362	C	-0.671968	0.086932	0.579068
C363	C	-0.694872	0.149566	0.620331
C364	C	-0.690425	0.186906	0.609008
C365	C	-0.663074	0.161608	0.556421
H366	H	-0.627662	0.015266	0.495935
H367	H	-0.675260	0.059291	0.587450
H368	H	-0.715119	0.168293	0.659259
H369	H	-0.707381	0.233274	0.639554
H370	H	-0.659783	0.189250	0.548039
H371	H	-0.633053	-0.295436	-0.017745
C372	C	0.245835	-0.489889	-0.243494
C373	C	0.206098	-0.491407	-0.266385
C374	C	0.208140	-0.546041	-0.293731
C375	C	0.249919	-0.599157	-0.298185
C376	C	0.289659	-0.597641	-0.275293
C377	C	0.287616	-0.543007	-0.247947
H378	H	0.175169	-0.452086	-0.263089
H379	H	0.178722	-0.547163	-0.310678
H380	H	0.251431	-0.639601	-0.318428
H381	H	0.320588	-0.636963	-0.278590
H382	H	0.317035	-0.541885	-0.231001
C383	C	0.250745	-0.516702	-0.444984
C384	C	0.208711	-0.522247	-0.458143
C385	C	0.209445	-0.549387	-0.511691
C386	C	0.252215	-0.570983	-0.552079
C387	C	0.294253	-0.565440	-0.538921
C388	C	0.293518	-0.538299	-0.485374
H389	H	0.177047	-0.506259	-0.428244
H390	H	0.178326	-0.553491	-0.521431
H391	H	0.252759	-0.591074	-0.591718
H392	H	0.325916	-0.581427	-0.568820
H393	H	0.324637	-0.534196	-0.475633
H394	H	-0.277337	0.349472	0.146356
C395	C	0.203655	-0.125032	0.138982
C396	C	0.163920	-0.106673	0.116088
C397	C	0.165971	-0.081442	0.088734
C398	C	0.207755	-0.074570	0.084274
C399	C	0.247492	-0.092929	0.107169
C400	C	0.245442	-0.118160	0.134523
H401	H	0.132986	-0.111760	0.119389
H402	H	0.136554	-0.067852	0.071785
H403	H	0.209273	-0.055892	0.064024
H404	H	0.278426	-0.087842	0.103867
H405	H	0.274858	-0.131750	0.151471
H406	H	-0.542847	0.656459	0.460049
C407	C	0.081513	-0.124457	-0.362439
C408	C	0.085840	-0.117531	-0.313741
C409	C	0.113018	-0.092116	-0.286291
C410	C	0.135869	-0.073627	-0.307539
C411	C	0.131542	-0.080552	-0.356240
C412	C	0.104364	-0.105967	-0.383690
H413	H	0.068925	-0.131218	-0.298010
H414	H	0.116221	-0.086990	-0.250239
H415	H	0.155988	-0.054813	-0.287218
H416	H	0.148458	-0.066865	-0.371971
H417	H	0.101161	-0.111094	-0.419742
C418	C	-0.294293	-0.125124	-0.363084
C419	C	-0.305627	-0.118233	-0.314417
C420	C	-0.358215	-0.092992	-0.287127
C421	C	-0.399469	-0.074642	-0.308504
C422	C	-0.388137	-0.081532	-0.357173
C423	C	-0.335549	-0.106773	-0.384463
H424	H	-0.275087	-0.131818	-0.298591
H425	H	-0.366603	-0.087892	-0.251099
H426	H	-0.438398	-0.055957	-0.288302
H427	H	-0.418676	-0.067948	-0.372999
H428	H	-0.327160	-0.111874	-0.420491
H429	H	0.196375	-0.083091	0.236023
H430	H	-0.281009	-0.130959	0.017701
H431	H	-0.149265	-0.426830	-0.146161
C432	C	-0.416833	-0.124353	0.139342
C433	C	-0.395593	-0.105865	0.116482
C434	C	-0.423057	-0.080445	0.089314
C435	C	-0.471760	-0.073512	0.085007
C436	C	-0.493003	-0.092000	0.107868
C437	C	-0.465540	-0.117420	0.135035
H438	H	-0.359537	-0.110997	0.119670
H439	H	-0.407331	-0.066759	0.072391
H440	H	-0.492091	-0.054694	0.064896
H441	H	-0.529059	-0.086868	0.104680
H442	H	-0.481265	-0.131106	0.151958
C443	C	0.238018	-0.434141	-0.515558
C444	C	0.196236	-0.441053	-0.526794
C445	C	0.194190	-0.466469	-0.579384
C446	C	0.233926	-0.484973	-0.620737
C447	C	0.275711	-0.478061	-0.609502
C448	C	0.277757	-0.452645	-0.556912
H449	H	0.166818	-0.427355	-0.496181
H450	H	0.163258	-0.471586	-0.587702
H451	H	0.232411	-0.503787	-0.659667
H452	H	0.305128	-0.491759	-0.640115
H453	H	0.308689	-0.447529	-0.548594
H454	H	-0.280664	0.092368	0.017663
C455	C	0.190905	-0.194183	0.292474
C456	C	0.148137	-0.191800	0.273680
C457	C	0.147404	-0.244614	0.247268
C458	C	0.189439	-0.299811	0.239650
C459	C	0.232210	-0.302195	0.258444
C460	C	0.232944	-0.249381	0.284856
H461	H	0.117017	-0.150939	0.279320
H462	H	0.115741	-0.242849	0.233356
H463	H	0.188896	-0.338907	0.220098
H464	H	0.263330	-0.343056	0.252805
H465	H	0.264606	-0.251146	0.298768
C466	C	0.081856	-0.277304	-0.515245
C467	C	0.104762	-0.278843	-0.556507
C468	C	0.132116	-0.333491	-0.609093
C469	C	0.136564	-0.386600	-0.620418
C470	C	0.113657	-0.385063	-0.579154
C471	C	0.086304	-0.330415	-0.526568
H472	H	0.101470	-0.239527	-0.548125
H473	H	0.149073	-0.334629	-0.639639
H474	H	0.156812	-0.427054	-0.659345
H475	H	0.116949	-0.424380	-0.587536
H476	H	0.069347	-0.329278	-0.496022
C477	C	-0.246362	-0.337044	-0.314409
C478	C	-0.295019	-0.330172	-0.303078
C479	C	-0.322306	-0.304935	-0.250490
C480	C	-0.300936	-0.286569	-0.209231
C481	C	-0.252276	-0.293440	-0.220560
C482	C	-0.224989	-0.318678	-0.273149
H483	H	-0.310841	-0.343768	-0.333621
H484	H	-0.358327	-0.299848	-0.242103
H485	H	-0.321135	-0.267886	-0.170302
H486	H	-0.236454	-0.279844	-0.190018
H487	H	-0.188968	-0.323764	-0.281535
C488	C	-0.294671	-0.280922	-0.139387
C489	C	-0.305924	-0.227901	-0.135069
C490	C	-0.358517	-0.173271	-0.107892
C491	C	-0.399858	-0.171662	-0.085033
C492	C	-0.388606	-0.224685	-0.089351
C493	C	-0.336013	-0.279315	-0.116528
H494	H	-0.275320	-0.229090	-0.151991
H495	H	-0.366846	-0.134020	-0.104696
H496	H	-0.438790	-0.131222	-0.064915
H497	H	-0.419210	-0.223496	-0.072429
H498	H	-0.327684	-0.318566	-0.119724
C499	C	-0.022627	-0.068580	0.024971
C500	C	-0.045523	-0.067065	-0.014764
C501	C	-0.072875	-0.012430	-0.012717
C502	C	-0.077331	0.040690	0.029065
C503	C	-0.054434	0.039177	0.068802
C504	C	-0.027082	-0.015458	0.066755
H505	H	-0.042225	-0.106389	-0.045695
H506	H	-0.089825	-0.011310	-0.042133
H507	H	-0.097579	0.081134	0.030580
H508	H	-0.057731	0.078501	0.099734
H509	H	-0.010132	-0.016578	0.096172
H510	H	0.074712	-0.650827	-0.370158
C511	C	-0.486678	-0.364220	-0.029969
C512	C	-0.494298	-0.309019	0.012067
C513	C	-0.520713	-0.256208	0.011333
C514	C	-0.539506	-0.258598	-0.031437
C515	C	-0.531886	-0.313801	-0.073477
C516	C	-0.505472	-0.366612	-0.072743
H517	H	-0.480386	-0.307248	0.043731
H518	H	-0.526353	-0.215343	0.042453
H519	H	-0.559060	-0.219504	-0.031980
H520	H	-0.545799	-0.315572	-0.105140
H521	H	-0.499832	-0.407477	-0.103863
H522	H	-0.107201	0.008909	0.024431
H523	H	0.203121	-0.131533	0.501488
H524	H	-0.632776	0.704945	0.501784
H525	H	-0.239189	0.009121	-0.236133
C526	C	-0.141502	0.098584	-0.139436
C527	C	-0.092797	0.061136	-0.135120
C528	C	-0.065344	0.086280	-0.107952
C529	C	-0.086596	0.148872	-0.085099
C530	C	-0.135304	0.186323	-0.089414
C531	C	-0.162757	0.161179	-0.116582
H532	H	-0.077063	0.014798	-0.152037
H533	H	-0.029288	0.058555	-0.104757
H534	H	-0.066274	0.167485	-0.064987
H535	H	-0.151038	0.232661	-0.072497
H536	H	-0.198813	0.188904	-0.119777
H537	H	-0.210164	-0.048905	-0.299438
H538	H	-0.633064	0.573202	0.370044
H539	H	-0.632768	0.092123	0.369481
C540	C	-0.311995	0.510172	0.314317
C541	C	-0.294416	0.510546	0.271899
C542	C	-0.267126	0.455900	0.219311
C543	C	-0.257415	0.400882	0.209141
C544	C	-0.274995	0.400507	0.251560
C545	C	-0.302285	0.455152	0.304149
H546	H	-0.301604	0.551275	0.279427
H547	H	-0.254112	0.456179	0.187910
H548	H	-0.237213	0.360430	0.170212
H549	H	-0.267807	0.359777	0.244033
H550	H	-0.315299	0.454874	0.335550
H551	H	-0.015188	-0.214899	-0.460134
C552	C	0.238007	-0.281268	-0.139069
C553	C	0.280807	-0.281658	-0.157031
C554	C	0.278758	-0.227020	-0.129684
C555	C	0.233911	-0.171992	-0.084375
C556	C	0.191108	-0.171600	-0.066411
C557	C	0.193156	-0.226238	-0.093758
H558	H	0.314009	-0.322394	-0.190573
H559	H	0.310444	-0.227310	-0.142982
H560	H	0.232394	-0.131546	-0.064131
H561	H	0.157906	-0.130863	-0.032868
H562	H	0.161471	-0.225947	-0.080460
C563	C	-0.486675	-0.516654	-0.029981
C564	C	-0.465502	-0.578221	-0.072748
C565	C	-0.491918	-0.605350	-0.073484
C566	C	-0.539507	-0.570914	-0.031453
C567	C	-0.560683	-0.509344	0.011318
C568	C	-0.534267	-0.482214	0.012054
H569	H	-0.430271	-0.603716	-0.103865
H570	H	-0.476242	-0.650929	-0.105146
H571	H	-0.559062	-0.590997	-0.031997
H572	H	-0.595914	-0.483848	0.042435
H573	H	-0.549943	-0.436635	0.043716
C574	C	-0.535729	0.002365	0.314367
C575	C	-0.553685	-0.022475	0.271950
C576	C	-0.526334	-0.047775	0.219362
C577	C	-0.481027	-0.048236	0.209191
C578	C	-0.463068	-0.023395	0.251609
C579	C	-0.490420	0.001905	0.304197
H580	H	-0.587227	-0.022135	0.279478
H581	H	-0.539628	-0.066164	0.187961
H582	H	-0.460780	-0.066964	0.170262
H583	H	-0.429527	-0.023735	0.244080
H584	H	-0.477125	0.020294	0.335597
C585	C	0.203664	0.098975	0.362964
C586	C	0.163936	0.161608	0.384338
C587	C	0.165989	0.186899	0.357045
C588	C	0.207770	0.149558	0.308378
C589	C	0.247500	0.086921	0.287000
C590	C	0.245447	0.061630	0.314293
H591	H	0.133005	0.189253	0.420367
H592	H	0.136578	0.233267	0.372870
H593	H	0.209290	0.168280	0.288174
H594	H	0.278432	0.059276	0.250972
H595	H	0.274859	0.015262	0.298468
C596	C	-0.486699	0.635839	0.444880
C597	C	-0.465527	0.633473	0.485272
C598	C	-0.491944	0.686292	0.538820
C599	C	-0.539533	0.741476	0.551975
C600	C	-0.560707	0.743844	0.511581
C601	C	-0.534290	0.691026	0.458034
H602	H	-0.430297	0.592620	0.475535
H603	H	-0.476270	0.684538	0.568722
H604	H	-0.559088	0.780575	0.591614
H605	H	-0.595937	0.784697	0.521319
H606	H	-0.549965	0.692779	0.428132
H607	H	-0.277339	-0.427472	-0.017774
C608	C	-0.416833	-0.124351	0.515479
C609	C	-0.426667	-0.159363	0.525729
C610	C	-0.454122	-0.133952	0.578320
C611	C	-0.471743	-0.073527	0.620660
C612	C	-0.461909	-0.038511	0.610411
C613	C	-0.434454	-0.063923	0.557820
H614	H	-0.413622	-0.204096	0.494385
H615	H	-0.461401	-0.159873	0.585907
H616	H	-0.492066	-0.054716	0.659591
H617	H	-0.474953	0.006222	0.641755
H618	H	-0.427175	-0.038002	0.550234
H619	H	0.245298	-0.475729	-0.460157
H620	H	-0.078531	-0.180496	0.029706
H621	H	-0.015229	-0.567636	-0.328413
H622	H	0.250559	-0.377978	-0.299409
H623	H	-0.543125	0.009217	0.460044
C624	C	0.238009	-0.281303	-0.363071
C625	C	0.277739	-0.279783	-0.384452
C626	C	0.275690	-0.225144	-0.357166
C627	C	0.233910	-0.172026	-0.308500
C628	C	0.194176	-0.173545	-0.287117
C629	C	0.196226	-0.228183	-0.314403
H630	H	0.308670	-0.319106	-0.420480
H631	H	0.305103	-0.224020	-0.372996
H632	H	0.232392	-0.131579	-0.288302
H633	H	0.163246	-0.134222	-0.251089
H634	H	0.166812	-0.229307	-0.298573
H635	H	-0.078484	-0.180603	-0.431104
C636	C	-0.334233	-0.516658	-0.029986
C637	C	-0.293847	-0.578225	-0.072758
C638	C	-0.240299	-0.605364	-0.073502
C639	C	-0.227136	-0.570936	-0.031475
C640	C	-0.267523	-0.509365	0.011299
C641	C	-0.321072	-0.482227	0.012044
H642	H	-0.303590	-0.603714	-0.103871
H643	H	-0.210401	-0.650943	-0.105167
H644	H	-0.187496	-0.591026	-0.032027
H645	H	-0.257780	-0.483876	0.042413
H646	H	-0.350969	-0.436648	0.043709
H647	H	-0.078528	-0.509597	-0.299402
C648	C	-0.141517	0.098614	0.017141
C649	C	-0.092820	0.061156	-0.024641
C650	C	-0.065365	0.086290	-0.026686
C651	C	-0.086607	0.148881	0.013051
C652	C	-0.135306	0.186343	0.054836
C653	C	-0.162761	0.161209	0.056881
H654	H	-0.077093	0.014819	-0.054059
H655	H	-0.029315	0.058558	-0.057618
H656	H	-0.066283	0.167486	0.011537
H657	H	-0.151033	0.232680	0.084254
H658	H	-0.198812	0.188941	0.087813
C659	C	-0.071649	-0.041852	-0.292564
C660	C	-0.064067	-0.036284	-0.244970
C661	C	-0.037680	-0.009125	-0.218542
C662	C	-0.018875	0.012465	-0.239709
C663	C	-0.026456	0.006897	-0.287306
C664	C	-0.052843	-0.020261	-0.313734
H665	H	-0.077988	-0.052267	-0.229299
H666	H	-0.032068	-0.005004	-0.183308
H667	H	0.000658	0.032570	-0.220146
H668	H	-0.012535	0.022880	-0.302977
H669	H	-0.058455	-0.024383	-0.348968
H670	H	0.245282	-0.343667	-0.236107
H671	H	0.074413	-0.130975	0.017684
H672	H	-0.543122	0.524706	0.328305
C673	C	-0.263667	-0.657086	-0.017268
C674	C	-0.221333	-0.681801	-0.060072
C675	C	-0.168743	-0.706938	-0.058033
C676	C	-0.158486	-0.707361	-0.013190
C677	C	-0.200821	-0.682645	0.029618
C678	C	-0.253412	-0.657508	0.027579
H679	H	-0.228925	-0.681489	-0.093270
H680	H	-0.137404	-0.725235	-0.089722
H681	H	-0.119556	-0.725969	-0.011680
H682	H	-0.193230	-0.682957	0.062816
H683	H	-0.284751	-0.639212	0.059268
C684	C	-0.093502	-0.221491	-0.467272
C685	C	-0.082167	-0.228374	-0.515934
C686	C	-0.029577	-0.253617	-0.543221
C687	C	0.011676	-0.271976	-0.521847
C688	C	0.000342	-0.265093	-0.473182
C689	C	-0.052247	-0.239851	-0.445894
H690	H	-0.112706	-0.214783	-0.531759
H691	H	-0.021187	-0.258711	-0.579246
H692	H	0.050606	-0.290662	-0.542047
H693	H	0.030882	-0.278684	-0.457357
H694	H	-0.060637	-0.234756	-0.409869
H695	H	-0.107178	0.008855	-0.236426
H696	H	-0.319066	-0.475678	-0.024535
C697	C	0.238033	-0.434091	-0.139395
C698	C	0.196265	-0.441025	-0.135075
C699	C	0.194233	-0.466442	-0.107899
C700	C	0.233968	-0.484924	-0.085044
C701	C	0.275738	-0.477990	-0.089364
C702	C	0.277771	-0.452573	-0.116539
H703	H	0.166848	-0.427344	-0.151994
H704	H	0.163311	-0.471575	-0.104702
H705	H	0.232463	-0.503739	-0.064928
H706	H	0.305155	-0.491672	-0.072444
H707	H	0.308692	-0.447441	-0.119736
C708	C	-0.416154	-0.657405	-0.017249
C709	C	-0.394780	-0.720038	-0.056983
C710	C	-0.422068	-0.745336	-0.054931
C711	C	-0.470729	-0.708001	-0.013146
C712	C	-0.492106	-0.645364	0.026591
C713	C	-0.464818	-0.620066	0.024539
H714	H	-0.358755	-0.747679	-0.087918
H715	H	-0.406243	-0.791705	-0.084347
H716	H	-0.490929	-0.726729	-0.011627
H717	H	-0.528131	-0.617723	0.057525
H718	H	-0.480643	-0.573698	0.053955
C719	C	-0.416174	-0.281236	-0.017206
C720	C	-0.425891	-0.226212	0.027648
C721	C	-0.453180	-0.171572	0.029703
C722	C	-0.470751	-0.171956	-0.013096
C723	C	-0.461034	-0.226982	-0.057952
C724	C	-0.433745	-0.281622	-0.060007
H725	H	-0.412884	-0.225926	0.059332
H726	H	-0.460374	-0.130838	0.062909
H727	H	-0.490952	-0.131508	-0.011574
H728	H	-0.474041	-0.227268	-0.089637
H729	H	-0.426552	-0.322356	-0.093213
H730	H	-0.239274	-0.082768	0.024445
C731	C	-0.464810	-0.068557	0.467175
C732	C	-0.476142	-0.015438	0.515837
C733	C	-0.528730	0.039201	0.543127
C734	C	-0.569986	0.040722	0.521756
C735	C	-0.558656	-0.012398	0.473092
C736	C	-0.506068	-0.067038	0.445801
H737	H	-0.445601	-0.016562	0.531659
H738	H	-0.537118	0.078525	0.579152
H739	H	-0.608915	0.081170	0.541958
H740	H	-0.589197	-0.011274	0.457269
H741	H	-0.497680	-0.106361	0.409777
C742	C	-0.246311	-0.068995	-0.314777
C743	C	-0.225065	-0.067379	-0.273433
C744	C	-0.252516	-0.012740	-0.220841
C745	C	-0.301213	0.040283	-0.209594
C746	C	-0.322462	0.038669	-0.250940
C747	C	-0.295011	-0.015970	-0.303531
H748	H	-0.189014	-0.106632	-0.281758
H749	H	-0.236786	-0.011546	-0.190235
H750	H	-0.321534	0.080730	-0.170663
H751	H	-0.358513	0.077921	-0.242615
H752	H	-0.310742	-0.017165	-0.334138
C753	C	-0.263694	0.565977	0.362297
C754	C	-0.252447	0.559054	0.313599
C755	C	-0.199856	0.533640	0.286145
C756	C	-0.158512	0.515150	0.307388
C757	C	-0.169758	0.522072	0.356088
C758	C	-0.222348	0.547486	0.383543
H759	H	-0.283053	0.572743	0.297871
H760	H	-0.191532	0.528516	0.250093
H761	H	-0.119582	0.496337	0.287064
H762	H	-0.139152	0.508384	0.371816
H763	H	-0.230673	0.552611	0.419595
H764	H	0.196359	0.008970	0.460077
H765	H	-0.149270	-0.426838	-0.501540
H766	H	-0.409098	0.704627	0.501446
C767	C	-0.639811	-0.434080	-0.017248
C768	C	-0.621724	-0.494505	-0.060055
C769	C	-0.648901	-0.519918	-0.058015
C770	C	-0.694165	-0.484907	-0.013167
C771	C	-0.712254	-0.424479	0.029644
C772	C	-0.685078	-0.399066	0.027603
H773	H	-0.588214	-0.520425	-0.093258
H774	H	-0.635509	-0.564650	-0.089707
H775	H	-0.714282	-0.503719	-0.011657
H776	H	-0.745764	-0.398559	0.062846
H777	H	-0.698469	-0.354333	0.059295
H778	H	-0.148606	-0.263426	-0.501918
H779	H	-0.348172	0.490460	0.299290
H780	H	-0.277681	-0.262989	0.370072
H781	H	-0.543113	-0.343639	-0.024502
C782	C	-0.416167	0.342628	0.138957
C783	C	-0.425878	0.342162	0.093647
C784	C	-0.453163	0.316857	0.066297
C785	C	-0.470736	0.292018	0.084255
C786	C	-0.461024	0.292484	0.129567
C787	C	-0.433740	0.317788	0.156918
H788	H	-0.412869	0.360549	0.080351
H789	H	-0.460352	0.316512	0.032754
H790	H	-0.490933	0.273286	0.064009
H791	H	-0.474033	0.274096	0.142863
H792	H	-0.426551	0.318133	0.190461
H793	H	-0.210195	-0.048832	0.029702
C794	C	-0.142184	-0.277183	0.017158
C795	C	-0.132462	-0.332211	-0.027693
C796	C	-0.105176	-0.386847	-0.029741
C797	C	-0.087611	-0.386454	0.013062
C798	C	-0.097332	-0.331425	0.057916
C799	C	-0.124618	-0.276789	0.059964
H800	H	-0.145466	-0.332503	-0.059381
H801	H	-0.097980	-0.427583	-0.062945
H802	H	-0.067411	-0.426899	0.011546
H803	H	-0.084328	-0.331132	0.089605
H804	H	-0.131814	-0.236052	0.093168
C805	C	-0.312007	-0.221380	0.314676
C806	C	-0.294394	-0.281799	0.272331
C807	C	-0.266945	-0.307204	0.219740
C808	C	-0.257109	-0.272189	0.209495
C809	C	-0.274723	-0.211767	0.251842
C810	C	-0.302171	-0.186362	0.304432
H811	H	-0.301674	-0.307723	0.279914
H812	H	-0.253906	-0.351933	0.188393
H813	H	-0.236790	-0.290995	0.170565
H814	H	-0.267442	-0.185844	0.244259
H815	H	-0.315210	-0.141633	0.335780
H816	H	0.245297	-0.567391	-0.328072
H817	H	-0.319133	-0.214795	0.236033
H818	H	-0.078531	-0.048837	0.029696
C819	C	0.203626	-0.277454	0.362348
C820	C	0.160821	-0.276982	0.344734
C821	C	0.162857	-0.331613	0.317285
C822	C	0.207699	-0.386715	0.307449
C823	C	0.250508	-0.387189	0.325062
C824	C	0.248472	-0.332559	0.352512
H825	H	0.127623	-0.236191	0.352015
H826	H	0.131167	-0.331261	0.304246
H827	H	0.209207	-0.427155	0.287129
H828	H	0.283706	-0.427981	0.317782
H829	H	0.280162	-0.332910	0.365551
H830	H	0.250555	-0.509636	-0.299401
C831	C	-0.264023	-0.277191	0.138991
C832	C	-0.253849	-0.332215	0.093682
C833	C	-0.201262	-0.386855	0.066328
C834	C	-0.158848	-0.386471	0.084283
C835	C	-0.169020	-0.331445	0.129594
C836	C	-0.221607	-0.276805	0.156948
H837	H	-0.285248	-0.332501	0.080388
H838	H	-0.193732	-0.427589	0.032785
H839	H	-0.119919	-0.426919	0.064034
H840	H	-0.137621	-0.331159	0.142888
H841	H	-0.229137	-0.236071	0.190491
H842	H	0.196349	-0.214791	0.328020
C843	C	0.238014	-0.657104	-0.362387
C844	C	0.193171	-0.657522	-0.352546
C845	C	0.191132	-0.682657	-0.325090
C846	C	0.233938	-0.707372	-0.307476
C847	C	0.278785	-0.706954	-0.317317
C848	C	0.280823	-0.681820	-0.344772
H849	H	0.161480	-0.639226	-0.365585
H850	H	0.157934	-0.682966	-0.317806
H851	H	0.232429	-0.725978	-0.287152
H852	H	0.310475	-0.725251	-0.304277
H853	H	0.314022	-0.681511	-0.352056
H854	H	-0.107537	-0.214790	0.024440
C855	C	0.237988	-0.657438	-0.515200
C856	C	0.196205	-0.620104	-0.526525
C857	C	0.194149	-0.645406	-0.579111
C858	C	0.233875	-0.708041	-0.620372
C859	C	0.275661	-0.745379	-0.609047
C860	C	0.277718	-0.720078	-0.556461
H861	H	0.166795	-0.573734	-0.495981
H862	H	0.163216	-0.617766	-0.587494
H863	H	0.232352	-0.726771	-0.659299
H864	H	0.305071	-0.791749	-0.639592
H865	H	0.308651	-0.747718	-0.548078
H866	H	-0.450836	0.656424	0.459993
H867	H	0.245289	-0.343688	-0.328417
C868	C	-0.022296	-0.221395	0.024961
C869	C	-0.045148	-0.239893	-0.014775
C870	C	-0.072328	-0.265301	-0.012728
C871	C	-0.076656	-0.272210	0.029054
C872	C	-0.053803	-0.253712	0.068793
C873	C	-0.026623	-0.228304	0.066746
H874	H	-0.041945	-0.234779	-0.045707
H875	H	-0.089245	-0.278994	-0.042145
H876	H	-0.096776	-0.291019	0.030570
H877	H	-0.057007	-0.258827	0.099725
H878	H	-0.009706	-0.214611	0.096163
C879	C	-0.294670	-0.280919	-0.362384
C880	C	-0.305916	-0.227893	-0.313685
C881	C	-0.358507	-0.173259	-0.286228
C882	C	-0.399852	-0.171652	-0.307470
C883	C	-0.388607	-0.224681	-0.356171
C884	C	-0.336016	-0.279314	-0.383628
H885	H	-0.275309	-0.229080	-0.297959
H886	H	-0.366831	-0.134004	-0.250176
H887	H	-0.438783	-0.131209	-0.287144
H888	H	-0.419214	-0.223493	-0.371897
H889	H	-0.327692	-0.318570	-0.419680
C890	C	0.203619	-0.277485	0.139335
C891	C	0.163884	-0.279093	0.116480
C892	C	0.165916	-0.333720	0.089310
C893	C	0.207683	-0.386740	0.084995
C894	C	0.247420	-0.385133	0.107851
C895	C	0.245388	-0.330506	0.135021
H896	H	0.132964	-0.239843	0.119673
H897	H	0.136500	-0.334909	0.072391
H898	H	0.209187	-0.427178	0.064883
H899	H	0.278341	-0.424383	0.104657
H900	H	0.274804	-0.329317	0.151940
H901	H	-0.078531	-0.509602	-0.431071
H902	H	-0.210191	-0.377923	-0.299393
H903	H	-0.239277	-0.343598	-0.236383
H904	H	-0.107532	-0.475330	-0.460094
H905	H	0.245283	-0.567684	-0.460096
H906	H	-0.319063	-0.567369	-0.024539
H907	H	-0.450820	0.432398	0.235997
H908	H	0.191098	-0.048786	0.431002
H909	H	-0.450803	-0.567645	-0.024528
H910	H	-0.542820	-0.475679	-0.024531
H911	H	-0.348159	-0.180491	0.299335
H912	H	-0.450817	-0.343631	-0.024494
H913	H	-0.451147	-0.082752	0.236334
H914	H	-0.479827	-0.048817	0.299349
H915	H	0.191101	-0.048809	0.299325
H916	H	0.196342	-0.214801	0.236328
