data_functionalizedCrystal
_audit_creation_method	'MofGen! by Chris Wilmer'
_symmetry_space_group_name_H-M	'P1'
_symmetry_Int_Tables_number	1
_symmetry_cell_setting	triclinic
loop_
_symmetry_equiv_pos_as_xyz
  x,y,z
_cell_length_a	27.731994
_cell_length_b	27.732048
_cell_length_c	26.809956
_cell_angle_alpha	90.024325
_cell_angle_beta	90.014414
_cell_angle_gamma	82.631595
loop_
_atom_site_label
_atom_site_type_symbol
_atom_site_fract_x
_atom_site_fract_y
_atom_site_fract_z
O1	O	0.640954	0.057401	0.041414
O2	O	0.974288	0.390734	0.374747
O3	O	1.307621	0.724068	0.708080
O4	O	0.500157	0.066174	0.041431
O5	O	0.833490	0.399507	0.374764
O6	O	1.166824	0.732841	0.708098
O7	O	0.574929	-0.008610	0.041412
O8	O	0.908262	0.324723	0.374746
O9	O	1.241595	0.658057	0.708079
O10	O	0.566183	0.132185	0.041432
O11	O	0.899516	0.465519	0.374766
O12	O	1.232850	0.798852	0.708099
O13	O	0.574902	-0.008630	-0.041547
O14	O	0.908235	0.324703	0.291787
O15	O	1.241569	0.658037	0.625120
O16	O	0.500131	0.066154	-0.041528
O17	O	0.833464	0.399487	0.291805
O18	O	1.166797	0.732821	0.625139
O19	O	0.640928	0.057381	-0.041545
O20	O	0.974261	0.390714	0.291788
O21	O	1.307595	0.724048	0.625121
Zn22	Zn	0.570525	0.061764	-0.054708
Zn23	Zn	0.903858	0.395098	0.278625
Zn24	Zn	1.237192	0.728431	0.611958
Zn25	Zn	0.570560	0.061791	0.054594
Zn26	Zn	0.903893	0.395124	0.387927
Zn27	Zn	1.237227	0.728457	0.721261
O28	O	0.566156	0.132165	-0.041527
O29	O	0.899490	0.465498	0.291807
O30	O	1.232823	0.798832	0.625140
C31	C	0.482137	0.065984	-0.000046
C32	C	0.815470	0.399317	0.333287
C33	C	1.148803	0.732651	0.666620
C34	C	0.428480	0.065442	-0.000040
C35	C	0.761814	0.398775	0.333293
C36	C	1.095147	0.732108	0.666626
C37	C	0.574732	-0.026627	-0.000069
C38	C	0.908065	0.306706	0.333265
C39	C	1.241398	0.640040	0.666598
C40	C	0.574179	-0.080282	-0.000073
C41	C	0.907512	0.253052	0.333261
C42	C	1.240846	0.586385	0.666594
C43	C	0.095747	0.062015	-0.045281
C44	C	0.429081	0.395348	0.288052
C45	C	0.762414	0.728681	0.621386
C46	C	-0.105911	0.059953	-0.045287
C47	C	0.227422	0.393287	0.288046
C48	C	0.560756	0.726620	0.621380
O49	O	-0.131996	0.059657	-0.083746
O50	O	0.201338	0.392990	0.249588
O51	O	0.534671	0.726323	0.582921
N52	N	-0.131111	0.059708	-0.000066
N53	N	0.202222	0.393041	0.333267
N54	N	0.535555	0.726375	0.666601
C55	C	-0.105894	0.059975	0.045160
C56	C	0.227440	0.393309	0.378493
C57	C	0.560773	0.726642	0.711826
O58	O	-0.131954	0.059715	0.083623
O59	O	0.201379	0.393048	0.416956
O60	O	0.534712	0.726381	0.750290
C61	C	0.095764	0.062034	0.045165
C62	C	0.429097	0.395367	0.378499
C63	C	0.762431	0.728700	0.711832
C64	C	0.120961	0.062283	-0.000059
C65	C	0.454295	0.395617	0.333275
C66	C	0.787628	0.728950	0.666608
C67	C	0.120945	0.062264	-0.090501
C68	C	0.454278	0.395598	0.242832
C69	C	0.787611	0.728931	0.576165
C70	C	0.171356	0.062782	-0.090499
C71	C	0.504689	0.396116	0.242834
C72	C	0.838022	0.729449	0.576167
C73	C	0.196570	0.063051	-0.045277
C74	C	0.529903	0.396384	0.288056
C75	C	0.863236	0.729718	0.621390
C76	C	0.171372	0.062801	-0.000057
C77	C	0.504706	0.396135	0.333276
C78	C	0.838039	0.729468	0.666610
C79	C	0.120981	0.062297	0.090390
C80	C	0.454315	0.395631	0.423724
C81	C	0.787648	0.728964	0.757057
C82	C	0.171399	0.062811	0.090388
C83	C	0.504733	0.396144	0.423721
C84	C	0.838066	0.729477	0.757054
C85	C	0.196596	0.063060	0.045164
C86	C	0.529930	0.396394	0.378497
C87	C	0.863263	0.729727	0.711830
C88	C	0.246997	0.063588	0.045167
C89	C	0.580331	0.396921	0.378501
C90	C	0.913664	0.730255	0.711834
N91	N	0.272198	0.063833	-0.000054
N92	N	0.605531	0.397167	0.333280
N93	N	0.938865	0.730500	0.666613
C94	C	0.246984	0.063565	-0.045276
C95	C	0.580317	0.396898	0.288057
C96	C	0.913651	0.730231	0.621391
C97	C	-0.211767	0.058896	0.045154
C98	C	0.121566	0.392229	0.378487
C99	C	0.454900	0.725562	0.711820
C100	C	-0.262181	0.058382	0.045152
C101	C	0.071152	0.391715	0.378486
C102	C	0.404485	0.725049	0.711819
C103	C	-0.262195	0.058359	-0.045294
C104	C	0.071138	0.391692	0.288039
C105	C	0.404472	0.725026	0.621372
C106	C	-0.211780	0.058876	-0.045293
C107	C	0.121553	0.392210	0.288041
C108	C	0.454887	0.725543	0.621374
C109	C	-0.186566	0.059141	-0.000067
C110	C	0.146767	0.392474	0.333266
C111	C	0.480100	0.725807	0.666599
C112	C	0.352851	0.064653	-0.045268
C113	C	0.686184	0.397986	0.288065
C114	C	1.019518	0.731320	0.621398
C115	C	0.403266	0.065173	-0.045262
C116	C	0.736600	0.398506	0.288071
C117	C	1.069933	0.731840	0.621404
C118	C	0.403276	0.065193	0.045184
C119	C	0.736609	0.398527	0.378517
C120	C	1.069943	0.731860	0.711851
C121	C	0.352865	0.064676	0.045179
C122	C	0.686198	0.398009	0.378512
C123	C	1.019531	0.731343	0.711845
C124	C	0.327654	0.064404	-0.000052
C125	C	0.660987	0.397737	0.333282
C126	C	0.994320	0.731071	0.666615
O127	O	0.273114	0.063880	0.083606
O128	O	0.606448	0.397213	0.416939
O129	O	0.939781	0.730546	0.750273
O130	O	0.273055	0.063815	-0.083733
O131	O	0.606388	0.397148	0.249600
O132	O	0.939722	0.730481	0.582933
C133	C	0.045336	0.061497	-0.045283
C134	C	0.378669	0.394830	0.288050
C135	C	0.712003	0.728163	0.621384
C136	C	0.020139	0.061247	-0.000063
C137	C	0.353472	0.394581	0.333271
C138	C	0.686806	0.727914	0.666604
C139	C	0.045353	0.061516	0.045160
C140	C	0.378686	0.394849	0.378493
C141	C	0.712020	0.728183	0.711826
C142	C	-0.030275	0.060734	-0.000064
C143	C	0.303058	0.394067	0.333269
C144	C	0.636391	0.727400	0.666603
C145	C	-0.055489	0.060465	-0.045286
C146	C	0.277844	0.393798	0.288047
C147	C	0.611177	0.727132	0.621381
C148	C	-0.030289	0.060710	-0.090507
C149	C	0.303044	0.394043	0.242826
C150	C	0.636378	0.727377	0.576160
C151	C	0.020122	0.061228	-0.090505
C152	C	0.353456	0.394562	0.242828
C153	C	0.686789	0.727895	0.576161
C154	C	0.020153	0.061271	0.090381
C155	C	0.353486	0.394604	0.423714
C156	C	0.686819	0.727938	0.757047
C157	C	-0.030259	0.060753	0.090375
C158	C	0.303075	0.394087	0.423708
C159	C	0.636408	0.727420	0.757042
C160	C	-0.055473	0.060485	0.045153
C161	C	0.277861	0.393818	0.378486
C162	C	0.611194	0.727152	0.711819
C163	C	0.614884	-0.419105	-0.000052
C164	C	0.948217	-0.085771	0.333281
C165	C	1.281551	0.247562	0.666615
C166	C	0.612833	-0.620764	-0.000045
C167	C	0.946166	-0.287431	0.333289
C168	C	1.279499	0.045903	0.666622
O169	O	0.650055	-0.652027	-0.000028
O170	O	0.983388	-0.318693	0.333306
O171	O	1.316721	0.014640	0.666639
N172	N	0.568496	-0.639879	-0.000040
N173	N	0.901830	-0.306546	0.333294
N174	N	1.235163	0.026788	0.666627
C175	C	0.524670	-0.608576	-0.000033
C176	C	0.858003	-0.275243	0.333300
C177	C	1.191336	0.058091	0.666633
O178	O	0.486912	-0.629462	-0.000024
O179	O	0.820245	-0.296128	0.333310
O180	O	1.153578	0.037205	0.666643
C181	C	0.526721	-0.406918	-0.000037
C182	C	0.860055	-0.073584	0.333296
C183	C	1.193388	0.259749	0.666630
C184	C	0.571060	-0.387806	-0.000047
C185	C	0.904394	-0.054472	0.333286
C186	C	1.237727	0.278861	0.666620
C187	C	0.659220	-0.399992	-0.000061
C188	C	0.992553	-0.066659	0.333272
C189	C	1.325886	0.266675	0.666605
C190	C	0.659732	-0.349580	-0.000066
C191	C	0.993065	-0.016247	0.333267
C192	C	1.326398	0.317086	0.666601
C193	C	0.615908	-0.318281	-0.000061
C194	C	0.949242	0.015052	0.333272
C195	C	1.282575	0.348386	0.666606
C196	C	0.571573	-0.337394	-0.000052
C197	C	0.904906	-0.004060	0.333282
C198	C	1.238239	0.329273	0.666615
C199	C	0.482895	-0.375615	-0.000027
C200	C	0.816228	-0.042282	0.333306
C201	C	1.149562	0.291051	0.666640
C202	C	0.483412	-0.325198	-0.000027
C203	C	0.816745	0.008135	0.333307
C204	C	1.150079	0.341468	0.666640
C205	C	0.527751	-0.306086	-0.000037
C206	C	0.861084	0.027247	0.333297
C207	C	1.194418	0.360581	0.666630
C208	C	0.528262	-0.255683	-0.000051
C209	C	0.861595	0.077651	0.333282
C210	C	1.194928	0.410984	0.666616
N211	N	0.572598	-0.236568	-0.000056
N212	N	0.905931	0.096766	0.333277
N213	N	1.239265	0.430099	0.666611
C214	C	0.616421	-0.267867	-0.000061
C215	C	0.949755	0.065467	0.333272
C216	C	1.283088	0.398800	0.666606
C217	C	0.523596	-0.714450	-0.000032
C218	C	0.856929	-0.381116	0.333301
C219	C	1.190262	-0.047783	0.666634
C220	C	0.523083	-0.764864	-0.000032
C221	C	0.856416	-0.431531	0.333301
C222	C	1.189749	-0.098197	0.666634
C223	C	0.611246	-0.777049	-0.000043
C224	C	0.944579	-0.443715	0.333290
C225	C	1.277913	-0.110382	0.666624
C226	C	0.611759	-0.726633	-0.000047
C227	C	0.945092	-0.393300	0.333287
C228	C	1.278425	-0.059967	0.666620
C229	C	0.567932	-0.695335	-0.000037
C230	C	0.901265	-0.362001	0.333296
C231	C	1.234599	-0.028668	0.666629
C232	C	0.617494	-0.161998	-0.000071
C233	C	0.950827	0.171336	0.333262
C234	C	1.284161	0.504669	0.666596
C235	C	0.618002	-0.111581	-0.000078
C236	C	0.951336	0.221752	0.333256
C237	C	1.284669	0.555086	0.666589
C238	C	0.529839	-0.099401	-0.000064
C239	C	0.863173	0.233933	0.333269
C240	C	1.196506	0.567266	0.666602
C241	C	0.529331	-0.149813	-0.000060
C242	C	0.862664	0.183520	0.333273
C243	C	1.195997	0.516854	0.666606
C244	C	0.573162	-0.181111	-0.000062
C245	C	0.906495	0.152222	0.333271
C246	C	1.239829	0.485556	0.666605
O247	O	0.491060	-0.224391	-0.000063
O248	O	0.824393	0.108942	0.333271
O249	O	1.157727	0.442275	0.666604
O250	O	0.654174	-0.246971	-0.000060
O251	O	0.987507	0.086362	0.333274
O252	O	1.320841	0.419695	0.666607
C253	C	0.614372	-0.469517	-0.000047
C254	C	0.947705	-0.136183	0.333286
C255	C	1.281038	0.197150	0.666619
C256	C	0.570036	-0.488629	-0.000038
C257	C	0.903369	-0.155296	0.333295
C258	C	1.236703	0.178037	0.666629
C259	C	0.526213	-0.457330	-0.000033
C260	C	0.859546	-0.123997	0.333300
C261	C	1.192879	0.209337	0.666634
C262	C	0.569523	-0.539044	-0.000038
C263	C	0.902856	-0.205710	0.333295
C264	C	1.236190	0.127623	0.666629
C265	C	0.613346	-0.570343	-0.000043
C266	C	0.946680	-0.237009	0.333290
C267	C	1.280013	0.096324	0.666624
C268	C	0.657683	-0.551228	-0.000048
C269	C	0.991016	-0.217894	0.333285
C270	C	1.324349	0.115439	0.666619
C271	C	0.658195	-0.500816	-0.000052
C272	C	0.991528	-0.167482	0.333281
C273	C	1.324862	0.165851	0.666614
C274	C	0.481876	-0.476445	-0.000028
C275	C	0.815209	-0.143112	0.333305
C276	C	1.148543	0.190222	0.666639
C277	C	0.481367	-0.526858	-0.000024
C278	C	0.814701	-0.193524	0.333309
C279	C	1.148034	0.139809	0.666643
C280	C	0.525191	-0.558157	-0.000029
C281	C	0.858524	-0.224823	0.333304
C282	C	1.191857	0.108510	0.666638
C283	C	0.658949	0.057571	-0.000067
C284	C	0.992282	0.390904	0.333266
C285	C	1.325615	0.724238	0.666600
C286	C	0.712605	0.058113	-0.000070
C287	C	1.045938	0.391447	0.333264
C288	C	1.379272	0.724780	0.666597
C289	C	0.566353	0.150182	-0.000045
C290	C	0.899687	0.483515	0.333289
C291	C	1.233020	0.816849	0.666622
C292	C	0.566906	0.203837	-0.000037
C293	C	0.900239	0.537170	0.333296
C294	C	1.233573	0.870503	0.666629
N295	N	0.570505	0.061746	-0.129304
N296	N	0.903838	0.395079	0.204029
N297	N	1.237171	0.728412	0.537362
C298	C	0.541454	0.032657	-0.526198
C299	C	0.874787	0.365991	-0.192865
C300	C	1.208121	0.699324	0.140469
C301	C	0.541431	0.032644	-0.317320
C302	C	0.874764	0.365977	0.016013
C303	C	1.208098	0.699311	0.349346
O304	O	0.516699	0.007871	-0.290329
O305	O	0.850032	0.341204	0.043005
O306	O	1.183365	0.674538	0.376338
N307	N	0.570524	0.061753	-0.291183
N308	N	0.903858	0.395087	0.042150
N309	N	1.237191	0.728420	0.375484
C310	C	0.599628	0.090866	-0.317268
C311	C	0.932961	0.424199	0.016065
C312	C	1.266294	0.757532	0.349399
O313	O	0.624376	0.115621	-0.290244
O314	O	0.957710	0.448954	0.043090
O315	O	1.291043	0.782287	0.376423
C316	C	0.599653	0.090876	-0.526145
C317	C	0.932986	0.424209	-0.192811
C318	C	1.266319	0.757543	0.140522
C319	C	0.570554	0.061768	-0.552280
C320	C	0.903887	0.395102	-0.218946
C321	C	1.237221	0.728435	0.114387
C322	C	0.512358	0.003552	-0.552333
C323	C	0.845691	0.336885	-0.219000
C324	C	1.179025	0.670218	0.114334
C325	C	0.512362	0.003557	-0.604549
C326	C	0.845695	0.336891	-0.271216
C327	C	1.179029	0.670224	0.062117
C328	C	0.541462	0.032668	-0.630631
C329	C	0.874795	0.366002	-0.297297
C330	C	1.208129	0.699335	0.036036
C331	C	0.570558	0.061774	-0.604496
C332	C	0.903891	0.395107	-0.271163
C333	C	1.237225	0.728441	0.062171
C334	C	0.628758	0.119985	-0.552229
C335	C	0.962091	0.453319	-0.218896
C336	C	1.295425	0.786652	0.114438
C337	C	0.628763	0.119984	-0.604451
C338	C	0.962096	0.453318	-0.271118
C339	C	1.295429	0.786651	0.062215
C340	C	0.599664	0.090877	-0.630586
C341	C	0.932997	0.424210	-0.297253
C342	C	1.266331	0.757543	0.036080
C343	C	0.599662	0.090891	-0.682794
C344	C	0.932995	0.424224	-0.349460
C345	C	1.266329	0.757557	-0.016127
N346	N	0.570569	0.061781	-0.708931
N347	N	0.903902	0.395115	-0.375598
N348	N	1.237235	0.728448	-0.042264
C349	C	0.541469	0.032670	-0.682850
C350	C	0.874802	0.366004	-0.349516
C351	C	1.208136	0.699337	-0.016183
C352	C	0.599612	0.090859	-0.207605
C353	C	0.932945	0.424192	0.125729
C354	C	1.266278	0.757525	0.459062
C355	C	0.599605	0.090857	-0.155386
C356	C	0.932938	0.424190	0.177948
C357	C	1.266271	0.757524	0.511281
C358	C	0.541409	0.032635	-0.155442
C359	C	0.874742	0.365968	0.177892
C360	C	1.208076	0.699301	0.511225
C361	C	0.541413	0.032639	-0.207662
C362	C	0.874747	0.365973	0.125672
C363	C	1.208080	0.699306	0.459005
C364	C	0.570518	0.061749	-0.233742
C365	C	0.903852	0.395083	0.099591
C366	C	1.237185	0.728416	0.432924
C367	C	0.541479	0.032685	-0.792508
C368	C	0.874812	0.366018	-0.459174
C369	C	1.208146	0.699351	-0.125841
C370	C	0.541484	0.032694	-0.844729
C371	C	0.874818	0.366028	-0.511395
C372	C	1.208151	0.699361	-0.178062
C373	C	0.599682	0.090915	-0.844668
C374	C	0.933015	0.424248	-0.511335
C375	C	1.266348	0.757581	-0.178001
C376	C	0.599675	0.090907	-0.792452
C377	C	0.933008	0.424240	-0.459118
C378	C	1.266342	0.757574	-0.125785
C379	C	0.570572	0.061788	-0.766373
C380	C	0.903906	0.395121	-0.433039
C381	C	1.237239	0.728455	-0.099706
O382	O	0.624386	0.115647	-0.709818
O383	O	0.957719	0.448980	-0.376484
O384	O	1.291052	0.782313	-0.043151
O385	O	0.516732	0.007911	-0.709883
O386	O	0.850065	0.341244	-0.376550
O387	O	1.183399	0.674577	-0.043216
C388	C	0.541450	0.032652	-0.473982
C389	C	0.874783	0.365985	-0.140648
C390	C	1.208117	0.699318	0.192685
C391	C	0.570546	0.061757	-0.447847
C392	C	0.903879	0.395090	-0.114514
C393	C	1.237213	0.728424	0.218820
C394	C	0.599646	0.090868	-0.473928
C395	C	0.932979	0.424202	-0.140595
C396	C	1.266312	0.757535	0.192738
C397	C	0.570539	0.061755	-0.395628
C398	C	0.903872	0.395089	-0.062295
C399	C	1.237206	0.728422	0.271039
C400	C	0.541439	0.032644	-0.369547
C401	C	0.874772	0.365977	-0.036213
C402	C	1.208106	0.699311	0.297120
C403	C	0.512346	0.003535	-0.395684
C404	C	0.845679	0.336868	-0.062351
C405	C	1.179013	0.670202	0.270983
C406	C	0.512350	0.003540	-0.447900
C407	C	0.845683	0.336874	-0.114567
C408	C	1.179017	0.670207	0.218766
C409	C	0.628739	0.119978	-0.447791
C410	C	0.962072	0.453311	-0.114458
C411	C	1.295406	0.786644	0.218876
C412	C	0.628732	0.119970	-0.395575
C413	C	0.962065	0.453303	-0.062241
C414	C	1.295399	0.786637	0.271092
C415	C	0.599632	0.090859	-0.369493
C416	C	0.932966	0.424192	-0.036160
C417	C	1.266299	0.757526	0.297174
N418	N	0.570584	0.061805	0.129190
N419	N	0.903917	0.395139	0.462523
N420	N	1.237251	0.728472	0.795857
H421	H	0.423779	0.065378	-0.082091
H422	H	0.757113	0.398711	0.251242
H423	H	1.090446	0.732045	0.584576
H424	H	-0.050827	0.060494	-0.127329
H425	H	0.282506	0.393827	0.206005
H426	H	0.615839	0.727161	0.539338
H427	H	0.447722	-0.299716	-0.000018
H428	H	0.781055	0.033617	0.333315
H429	H	1.114389	0.366950	0.666648
Cl430	Cl	0.425621	-0.550877	-0.000014
Cl431	Cl	0.758954	-0.217544	0.333320
Cl432	Cl	1.092287	0.115790	0.666653
H433	H	0.100421	0.062044	-0.127329
H434	H	0.433754	0.395378	0.206005
H435	H	0.767088	0.728711	0.539338
Cl436	Cl	0.712774	-0.590585	-0.000056
Cl437	Cl	1.046108	-0.257251	0.333277
Cl438	Cl	1.379441	0.076082	0.666610
Cl439	Cl	0.475767	-0.033054	-0.480748
Cl440	Cl	0.809101	0.300279	-0.147414
Cl441	Cl	1.142434	0.633612	0.185919
Cl442	Cl	0.714320	-0.439332	-0.000069
Cl443	Cl	1.047653	-0.105998	0.333265
Cl444	Cl	1.380986	0.227335	0.666598
H445	H	0.517781	0.008973	-0.771280
H446	H	0.851114	0.342307	-0.437947
H447	H	1.184448	0.675640	-0.104614
H448	H	0.100475	0.062093	0.127217
H449	H	0.433808	0.395426	0.460550
H450	H	0.767141	0.728760	0.793883
H451	H	0.695837	-0.334024	-0.000072
H452	H	1.029171	-0.000691	0.333261
H453	H	1.362504	0.332642	0.666595
H454	H	0.486977	-0.780420	-0.000033
H455	H	0.820311	-0.447087	0.333300
H456	H	1.153644	-0.113754	0.666634
Cl457	Cl	0.636202	0.127461	-0.240384
Cl458	Cl	0.969535	0.460794	0.092949
Cl459	Cl	1.302869	0.794128	0.426282
H460	H	0.646929	-0.802541	-0.000047
H461	H	0.980262	-0.469208	0.333286
H462	H	1.313595	-0.135875	0.666619
H463	H	0.652437	0.143683	-0.469021
H464	H	0.985770	0.477017	-0.135688
H465	H	1.319104	0.810350	0.197645
Cl466	Cl	0.321165	0.064311	-0.102130
Cl467	Cl	0.654498	0.397644	0.231203
Cl468	Cl	0.987832	0.730978	0.564537
H469	H	0.040633	0.061432	-0.127331
H470	H	0.373967	0.394765	0.206002
H471	H	0.707300	0.728098	0.539335
Cl472	Cl	0.203025	0.063093	-0.147356
Cl473	Cl	0.536358	0.396426	0.185978
Cl474	Cl	0.869692	0.729760	0.519311
H475	H	0.487905	-0.688970	-0.000025
H476	H	0.821238	-0.355637	0.333308
H477	H	1.154571	-0.022303	0.666642
H478	H	-0.282694	0.058186	0.081978
H479	H	0.050640	0.391520	0.415312
H480	H	0.383973	0.724853	0.748645
H481	H	0.488669	-0.020147	-0.625824
H482	H	0.822002	0.313186	-0.292490
H483	H	1.155335	0.646520	0.040843
Cl484	Cl	0.673747	-0.087558	-0.000089
Cl485	Cl	1.007081	0.245775	0.333244
Cl486	Cl	1.340414	0.579109	0.666577
Cl487	Cl	0.665331	0.156591	-0.519387
Cl488	Cl	0.998664	0.489924	-0.186053
Cl489	Cl	1.331998	0.823257	0.147280
Cl490	Cl	-0.180109	0.059189	-0.102148
Cl491	Cl	0.153225	0.392522	0.231186
Cl492	Cl	0.486558	0.725855	0.564519
H493	H	0.623373	0.114617	-0.865913
H494	H	0.956706	0.447951	-0.532580
H495	H	1.290040	0.781284	-0.199246
H496	H	-0.282733	0.058141	-0.082116
H497	H	0.050601	0.391475	0.251217
H498	H	0.383934	0.724808	0.584550
Cl499	Cl	0.672597	-0.201336	-0.000074
Cl500	Cl	1.005930	0.131997	0.333259
Cl501	Cl	1.339264	0.465331	0.666593
H502	H	-0.191243	0.059111	0.081984
H503	H	0.142091	0.392444	0.415317
H504	H	0.475424	0.725778	0.748650
H505	H	0.652465	0.143689	-0.625684
H506	H	0.985798	0.477023	-0.292350
H507	H	1.319131	0.810356	0.040983
Cl508	Cl	0.203093	0.063142	0.147246
Cl509	Cl	0.536427	0.396476	0.480580
Cl510	Cl	0.869760	0.729809	0.813913
Cl511	Cl	0.665311	0.156573	-0.362726
Cl512	Cl	0.998644	0.489906	-0.029393
Cl513	Cl	1.331978	0.823239	0.303941
H514	H	0.446789	-0.391167	-0.000016
H515	H	0.780123	-0.057834	0.333318
H516	H	1.113456	0.275499	0.666651
H517	H	0.623362	0.114616	-0.771172
H518	H	0.956696	0.447949	-0.437838
H519	H	1.290029	0.781282	-0.104505
H520	H	0.332347	0.064480	0.082004
H521	H	0.665680	0.397814	0.415337
H522	H	0.999014	0.731147	0.748670
Cl523	Cl	0.426778	-0.437104	-0.000021
Cl524	Cl	0.760111	-0.103771	0.333313
Cl525	Cl	1.093445	0.229562	0.666646
Cl526	Cl	0.475762	-0.033060	-0.362886
Cl527	Cl	0.809096	0.300273	-0.029553
Cl528	Cl	1.142429	0.633606	0.303781
H529	H	0.423814	0.065414	0.082003
H530	H	0.757147	0.398747	0.415336
H531	H	1.090481	0.732081	0.748670
H532	H	0.040677	0.061488	0.127207
H533	H	0.374010	0.394822	0.460540
H534	H	0.707343	0.728155	0.793873
Cl535	Cl	-0.061929	0.060442	0.147234
Cl536	Cl	0.271404	0.393775	0.480567
Cl537	Cl	0.604737	0.727109	0.813901
H538	H	0.493226	-0.165375	-0.000066
H539	H	0.826559	0.167959	0.333267
H540	H	1.159893	0.501292	0.666601
Cl541	Cl	0.667501	-0.702612	-0.000059
Cl542	Cl	1.000835	-0.369279	0.333275
Cl543	Cl	1.334168	-0.035946	0.666608
Cl544	Cl	0.504899	-0.003900	-0.877580
Cl545	Cl	0.838232	0.329434	-0.544247
Cl546	Cl	1.171566	0.662767	-0.210914
Cl547	Cl	0.474750	-0.060044	-0.000057
Cl548	Cl	0.808083	0.273289	0.333276
Cl549	Cl	1.141417	0.606623	0.666610
H550	H	0.694301	-0.485260	-0.000060
H551	H	1.027634	-0.151926	0.333273
H552	H	1.360967	0.181407	0.666606
H553	H	0.488661	-0.020157	-0.531103
H554	H	0.821995	0.313177	-0.197770
H555	H	1.155328	0.646510	0.135564
Cl556	Cl	0.504832	-0.003956	-0.240511
Cl557	Cl	0.838166	0.329378	0.092822
Cl558	Cl	1.171499	0.662711	0.426155
H559	H	0.623294	0.114565	-0.134111
H560	H	0.956627	0.447898	0.199222
H561	H	1.289961	0.781232	0.532555
Cl562	Cl	0.504827	-0.003963	-0.122644
Cl563	Cl	0.838161	0.329370	0.210689
Cl564	Cl	1.171494	0.662704	0.544023
