data_functionalizedCrystal
_audit_creation_method	'MofGen! by Chris Wilmer'
_symmetry_space_group_name_H-M	'P1'
_symmetry_Int_Tables_number	1
_symmetry_cell_setting	triclinic
loop_
_symmetry_equiv_pos_as_xyz
  x,y,z
_cell_length_a	10.654550
_cell_length_b	8.559649
_cell_length_c	9.730223
_cell_angle_alpha	90.000781
_cell_angle_beta	89.996251
_cell_angle_gamma	77.131784
loop_
_atom_site_label
_atom_site_type_symbol
_atom_site_fract_x
_atom_site_fract_y
_atom_site_fract_z
O1	O	1.644677	0.224178	-0.114394
O2	O	1.276992	0.245537	-0.114371
O3	O	1.493228	0.002614	-0.114383
O4	O	1.428441	0.467100	-0.114382
O5	O	1.493225	0.002620	0.114197
O6	O	1.276989	0.245543	0.114209
O7	O	1.644674	0.224184	0.114186
Zn8	Zn	1.460831	0.234864	0.150489
Zn9	Zn	1.460835	0.234856	-0.150675
O10	O	1.428438	0.467106	0.114198
C11	C	1.230355	0.243972	-0.000079
C12	C	1.091396	0.239279	-0.000070
C13	C	0.997136	0.382308	-0.000090
C14	C	0.866571	0.377890	-0.000114
C15	C	0.924542	0.087401	-0.000104
C16	C	1.055103	0.091821	-0.000070
C17	C	0.963666	0.550020	-0.000101
C18	C	0.833101	0.545601	-0.000125
C19	C	1.498136	-0.056858	-0.000096
C20	C	1.512750	-0.234076	-0.000105
C21	C	1.691311	0.225749	-0.000110
C22	C	1.830270	0.230441	-0.000128
C23	C	1.423530	0.526579	-0.000092
C24	C	1.408916	0.703797	-0.000093
N25	N	1.460838	0.234869	0.356026
N26	N	1.460839	0.234839	-0.356211
C27	C	1.556605	0.127340	0.427946
C28	C	1.556604	0.127320	0.571829
C29	C	1.365062	0.342373	0.571858
C30	C	1.365060	0.342384	0.427978
C31	C	1.667193	0.003185	0.427931
C32	C	1.667192	0.003165	0.571814
H33	H	0.993806	0.603419	-0.098789
H34	H	1.308838	-0.213815	-0.000082
N35	N	1.261771	0.458331	0.649475
H36	H	1.265279	0.571793	0.624447
H37	H	1.174578	0.438751	0.624406
H38	H	1.612835	-0.316473	-0.000100
H39	H	1.754362	0.042060	0.383299
H40	H	0.782193	0.596288	0.098559
H41	H	1.287069	0.429929	0.369421
N42	N	1.655581	-0.159314	0.376184
H43	H	1.650392	-0.231836	0.456871
H44	H	1.575198	-0.147255	0.318486
H45	H	1.648655	-0.112769	0.616431
N46	N	1.791283	0.039387	0.623550
H47	H	1.846656	0.055576	0.542858
H48	H	1.771341	0.139954	0.681265
N49	N	0.885391	-0.071633	-0.000124
H50	H	0.964920	-0.161571	-0.000108
H51	H	0.832462	-0.079791	0.084602
N52	N	1.156759	-0.062456	-0.000038
H53	H	1.212250	-0.067117	-0.084756
H54	H	1.212104	-0.066997	0.084769
H55	H	0.986220	0.615614	0.095564
N56	N	0.769162	0.629296	-0.126839
H57	H	0.834805	0.669822	-0.183373
H58	H	0.731991	0.551453	-0.183282
