data_functionalizedCrystal
_audit_creation_method	'MofGen! by Chris Wilmer'
_symmetry_space_group_name_H-M	'P1'
_symmetry_Int_Tables_number	1
_symmetry_cell_setting	triclinic
loop_
_symmetry_equiv_pos_as_xyz
  x,y,z
_cell_length_a	25.639242
_cell_length_b	25.639240
_cell_length_c	12.759387
_cell_angle_alpha	89.956399
_cell_angle_beta	89.976152
_cell_angle_gamma	90.025061
loop_
_atom_site_label
_atom_site_type_symbol
_atom_site_fract_x
_atom_site_fract_y
_atom_site_fract_z
Zn1	Zn	0.799296	-0.208231	-0.594005
Zn2	Zn	1.299296	0.291769	-0.094005
Zn3	Zn	0.799214	-0.295676	-0.418286
Zn4	Zn	1.299214	0.204324	0.081714
Zn5	Zn	0.711857	-0.208245	-0.418332
Zn6	Zn	1.211857	0.291755	0.081668
Zn7	Zn	0.711826	-0.295625	-0.593915
Zn8	Zn	1.211826	0.204375	-0.093915
O9	O	0.755548	-0.251944	-0.506135
O10	O	1.255548	0.248056	-0.006135
O11	O	0.872450	-0.219846	-0.570714
O12	O	1.372450	0.280154	-0.070714
O13	O	0.787604	-0.284106	-0.271271
O14	O	1.287604	0.215894	0.228729
O15	O	0.723504	-0.135078	-0.441692
O16	O	1.223504	0.364922	0.058308
O17	O	0.872390	-0.284092	-0.441614
O18	O	1.372390	0.215908	0.058386
O19	O	0.787744	-0.135067	-0.570758
O20	O	1.287744	0.364933	-0.070758
O21	O	0.723424	-0.219870	-0.271304
O22	O	1.223424	0.280130	0.228696
O23	O	0.638688	-0.219821	-0.441605
O24	O	1.138688	0.280179	0.058395
O25	O	0.723450	-0.284005	-0.740948
O26	O	1.223450	0.215995	-0.240948
O27	O	0.638665	-0.284018	-0.570605
O28	O	1.138665	0.215982	-0.070605
O29	O	0.787714	-0.219796	-0.741014
O30	O	1.287714	0.280204	-0.241014
O31	O	0.787574	-0.368835	-0.441527
O32	O	1.287574	0.131165	0.058473
O33	O	0.723371	-0.368797	-0.570561
O34	O	1.223371	0.131203	-0.070561
C35	C	0.619706	-0.251916	-0.506101
C36	C	1.119706	0.248084	-0.006101
C37	C	0.561592	-0.251916	-0.506111
C38	C	1.061592	0.248084	-0.006111
C39	C	0.755474	-0.387787	-0.506052
C40	C	1.255474	0.112213	-0.006052
C41	C	0.755490	-0.445901	-0.506052
C42	C	1.255490	0.054099	-0.006052
C43	C	0.310438	-0.218551	-0.573479
C44	C	0.810438	0.281449	-0.073479
C45	C	0.365042	-0.218546	-0.573473
C46	C	0.865042	0.281454	-0.073473
O47	O	0.393312	-0.190154	-0.630745
O48	O	0.893312	0.309846	-0.130745
N49	N	0.392318	-0.251938	-0.506147
N50	N	0.892318	0.248062	-0.006147
C51	C	0.364986	-0.285342	-0.438829
C52	C	0.864986	0.214658	0.061171
O53	O	0.393201	-0.313745	-0.381562
O54	O	0.893201	0.186255	0.118438
C55	C	0.310383	-0.285349	-0.438841
C56	C	0.810383	0.214651	0.061159
C57	C	0.283110	-0.251951	-0.506165
C58	C	0.783110	0.248049	-0.006165
C59	C	0.283164	-0.185155	-0.640799
C60	C	0.783164	0.314845	-0.140799
C61	C	0.228564	-0.185160	-0.640803
C62	C	0.728564	0.314840	-0.140803
C63	C	0.201236	-0.218560	-0.573488
C64	C	0.701236	0.281440	-0.073488
C65	C	0.228509	-0.251955	-0.506169
C66	C	0.728509	0.248045	-0.006169
C67	C	0.283053	-0.318755	-0.371529
C68	C	0.783053	0.181245	0.128471
C69	C	0.228446	-0.318760	-0.371548
C70	C	0.728446	0.181240	0.128452
C71	C	0.201173	-0.285362	-0.438871
C72	C	0.701173	0.214638	0.061129
C73	C	0.146581	-0.285360	-0.438858
C74	C	0.646581	0.214640	0.061142
N75	N	0.119306	-0.251967	-0.506185
N76	N	0.619306	0.248033	-0.006185
C77	C	0.146633	-0.218567	-0.573500
C78	C	0.646633	0.281433	-0.073500
C79	C	0.479657	-0.285324	-0.438810
C80	C	0.979657	0.214676	0.061190
C81	C	0.534259	-0.285315	-0.438792
C82	C	1.034259	0.214685	0.061208
C83	C	0.534311	-0.218519	-0.573438
C84	C	1.034311	0.281481	-0.073438
C85	C	0.479708	-0.218526	-0.573450
C86	C	0.979708	0.281474	-0.073450
C87	C	0.452381	-0.251932	-0.506137
C88	C	0.952381	0.248068	-0.006137
C89	C	0.031968	-0.218579	-0.573504
C90	C	0.531968	0.281421	-0.073504
C91	C	-0.022637	-0.218585	-0.573499
C92	C	0.477363	0.281415	-0.073499
C93	C	-0.022684	-0.285383	-0.438857
C94	C	0.477316	0.214617	0.061143
C95	C	0.031916	-0.285375	-0.438857
C96	C	0.531916	0.214625	0.061143
C97	C	0.059241	-0.251971	-0.506189
C98	C	0.559241	0.248029	-0.006189
O99	O	0.118277	-0.313739	-0.381619
O100	O	0.618277	0.186261	0.118381
O101	O	0.118412	-0.190174	-0.630767
O102	O	0.618412	0.309826	-0.130767
C103	C	0.789015	-0.806220	-0.573461
C104	C	1.289015	-0.306220	-0.073461
C105	C	0.789030	-0.860824	-0.573482
C106	C	1.289030	-0.360824	-0.073482
O107	O	0.817446	-0.889024	-0.630711
O108	O	1.317446	-0.389024	-0.130711
N109	N	0.755621	-0.888183	-0.506236
N110	N	1.255621	-0.388183	-0.006236
C111	C	0.722190	-0.860935	-0.438972
C112	C	1.222190	-0.360935	0.061028
O113	O	0.693774	-0.889220	-0.381777
O114	O	1.193774	-0.389220	0.118223
C115	C	0.722172	-0.806332	-0.438957
C116	C	1.222172	-0.306332	0.061043
C117	C	0.755588	-0.778976	-0.506199
C118	C	1.255588	-0.278976	-0.006199
C119	C	0.822427	-0.778864	-0.640699
C120	C	1.322427	-0.278864	-0.140699
C121	C	0.822412	-0.724263	-0.640676
C122	C	1.322412	-0.224263	-0.140676
C123	C	0.788985	-0.697019	-0.573415
C124	C	1.288985	-0.197019	-0.073415
C125	C	0.755573	-0.724375	-0.506176
C126	C	1.255573	-0.224375	-0.006176
C127	C	0.688739	-0.779085	-0.371699
C128	C	1.188739	-0.279085	0.128301
C129	C	0.688724	-0.724478	-0.371690
C130	C	1.188724	-0.224478	0.128310
C131	C	0.722139	-0.697122	-0.438932
C132	C	1.222139	-0.197122	0.061068
C133	C	0.722131	-0.642530	-0.438892
C134	C	1.222131	-0.142530	0.061108
N135	N	0.755540	-0.615171	-0.506138
N136	N	1.255540	-0.115171	-0.006138
C137	C	0.788967	-0.642416	-0.573399
C138	C	1.288967	-0.142416	-0.073399
C139	C	0.722229	-0.975606	-0.439010
C140	C	1.222229	-0.475606	0.060990
C141	C	0.722249	-1.030208	-0.439020
C142	C	1.222249	-0.530208	0.060980
C143	C	0.789089	-1.030093	-0.573531
C144	C	1.289089	-0.530093	-0.073531
C145	C	0.789071	-0.975490	-0.573516
C146	C	1.289071	-0.475490	-0.073516
C147	C	0.755638	-0.948247	-0.506256
C148	C	1.255638	-0.448247	-0.006256
C149	C	0.788934	-0.527750	-0.573345
C150	C	1.288934	-0.027750	-0.073345
C151	C	0.788918	-0.473145	-0.573313
C152	C	1.288918	0.026855	-0.073313
C153	C	0.722076	-0.473265	-0.438806
C154	C	1.222076	0.026735	0.061194
C155	C	0.722094	-0.527865	-0.438834
C156	C	1.222094	-0.027865	0.061166
C157	C	0.755525	-0.555107	-0.506112
C158	C	1.255525	-0.055107	-0.006112
O159	O	0.693728	-0.614296	-0.381696
O160	O	1.193728	-0.114296	0.118304
O161	O	0.817374	-0.614124	-0.630595
O162	O	1.317374	-0.114124	-0.130595
C163	C	0.891921	-0.251973	-0.506169
C164	C	1.391921	0.248027	-0.006169
C165	C	0.950035	-0.251985	-0.506184
C166	C	1.450035	0.248015	-0.006184
C167	C	0.755588	-0.251893	-0.780168
C168	C	1.255588	0.248107	-0.280168
C169	C	0.755604	-0.251871	-0.896945
C170	C	1.255604	0.248129	-0.396945
C171	C	0.755637	-0.115571	-0.506240
C172	C	1.255637	0.384429	-0.006240
C173	C	0.755674	-0.057457	-0.506285
C174	C	1.255674	0.442543	-0.006285
C175	C	0.822527	-0.185015	-0.897034
C176	C	1.322527	0.314985	-0.397034
C177	C	0.855995	-0.151580	-0.951939
C178	C	1.355995	0.348420	-0.451939
C179	C	0.856008	-0.151561	-1.061660
C180	C	1.356008	0.348439	-0.561660
C181	C	0.822547	-0.184980	-1.116479
C182	C	1.322547	0.315020	-0.616479
C183	C	0.789079	-0.218415	-1.061574
C184	C	1.289079	0.281585	-0.561574
C185	C	0.789071	-0.218432	-0.951850
C186	C	1.289071	0.281568	-0.451850
C187	C	0.722155	-0.285268	-1.061486
C188	C	1.222155	0.214732	-0.561486
C189	C	0.722144	-0.285290	-0.951764
C190	C	1.222144	0.214710	-0.451764
C191	C	0.688695	-0.318687	-1.116305
C192	C	1.188695	0.181313	-0.616305
C193	C	0.655228	-0.352126	-1.061400
C194	C	1.155228	0.147874	-0.561400
C195	C	0.655217	-0.352144	-0.951671
C196	C	1.155217	0.147856	-0.451671
C197	C	0.688676	-0.318726	-0.896859
C198	C	1.188676	0.181274	-0.396859
C199	C	0.755539	-0.251958	-0.233167
C200	C	1.255539	0.248042	0.266833
C201	C	0.755623	-0.251832	-0.116391
C202	C	1.255623	0.248168	0.383609
H203	H	-0.044841	-0.191386	-0.628322
H204	H	0.455159	0.308614	-0.128322
H205	H	0.556571	-0.191323	-0.628250
H206	H	1.056571	0.308677	-0.128250
H207	H	0.054123	-0.312566	-0.384027
H208	H	0.554123	0.187434	0.115973
C209	C	0.859207	-0.808824	-0.714689
C210	C	1.359207	-0.308824	-0.214689
N211	N	0.886917	-0.831386	-0.770416
N212	N	1.386917	-0.331386	-0.270416
C213	C	0.685493	-1.060294	-0.365039
C214	C	1.185493	-0.560294	0.134961
N215	N	0.657805	-1.082953	-0.309319
N216	N	1.157805	-0.582953	0.190681
C217	C	0.685306	-0.443286	-0.364827
C218	C	1.185306	0.056714	0.135173
N219	N	0.657607	-0.420704	-0.309111
N220	N	1.157607	0.079296	0.190889
H221	H	0.883237	-0.124370	-0.907293
H222	H	1.383237	0.375630	-0.407293
C223	C	0.822519	-0.185037	-0.776337
C224	C	1.322519	0.314963	-0.276337
N225	N	0.822514	-0.185052	-0.685426
N226	N	1.322514	0.314948	-0.185426
C227	C	0.062017	-0.181830	-0.647566
C228	C	0.562017	0.318170	-0.147566
N229	N	0.084650	-0.154148	-0.703343
N230	N	0.584650	0.345852	-0.203343
H231	H	0.849620	-0.701993	-0.695434
H232	H	1.349620	-0.201993	-0.195434
H233	H	0.206363	-0.157966	-0.695629
H234	H	0.706363	0.342034	-0.195629
H235	H	0.661498	-0.702299	-0.316920
H236	H	1.161498	-0.202299	0.183080
H237	H	0.822556	-0.184957	-1.205821
H238	H	1.322556	0.315043	-0.705821
H239	H	0.688705	-0.318667	-1.205646
H240	H	1.188705	0.181333	-0.705646
H241	H	0.305409	-0.157957	-0.695620
H242	H	0.805409	0.342043	-0.195620
H243	H	0.556460	-0.312506	-0.383959
H244	H	1.056460	0.187494	0.116041
C245	C	0.892824	-0.114780	-1.122058
C246	C	1.392824	0.385220	-0.622058
N247	N	0.920555	-0.087078	-1.167549
N248	N	1.420555	0.412922	-0.667549
H249	H	0.627985	-0.379330	-1.106042
H250	H	1.127985	0.120670	-0.606042
H251	H	0.627957	-0.379366	-0.906974
H252	H	1.127957	0.120634	-0.406974
H253	H	0.457506	-0.191330	-0.628270
H254	H	0.957506	0.308670	-0.128270
C255	C	0.825856	-1.060072	-0.647528
C256	C	1.325856	-0.560072	-0.147528
N257	N	0.853546	-1.082654	-0.703260
N258	N	1.353546	-0.582654	-0.203260
H259	H	0.694889	-0.550140	-0.384071
H260	H	1.194889	-0.050140	0.115929
H261	H	0.695006	-0.953427	-0.384231
H262	H	1.195006	-0.453427	0.115769
H263	H	0.816280	-0.953220	-0.628271
H264	H	1.316280	-0.453220	-0.128271
H265	H	0.688672	-0.318740	-0.807518
H266	H	1.188672	0.181260	-0.307518
H267	H	0.457411	-0.312526	-0.383986
H268	H	0.957411	0.187474	0.116014
H269	H	0.305249	-0.345952	-0.316707
H270	H	0.805249	0.154048	0.183293
H271	H	0.206199	-0.345965	-0.316734
H272	H	0.706199	0.154035	0.183266
H273	H	0.816130	-0.450873	-0.628070
H274	H	1.316130	0.049127	-0.128070
C275	C	-0.052755	-0.322122	-0.364816
C276	C	0.447245	0.177878	0.135184
N277	N	-0.075406	-0.349797	-0.309053
N278	N	0.424594	0.150203	0.190947
C279	C	0.825713	-0.557708	-0.647348
C280	C	1.325713	-0.057708	-0.147348
N281	N	0.853418	-0.580272	-0.703080
N282	N	1.353418	-0.080272	-0.203080
H283	H	0.661529	-0.801349	-0.316942
H284	H	1.161529	-0.301349	0.183058
