data_functionalizedCrystal
_audit_creation_method	'MofGen! by Chris Wilmer'
_symmetry_space_group_name_H-M	'P1'
_symmetry_Int_Tables_number	1
_symmetry_cell_setting	triclinic
loop_
_symmetry_equiv_pos_as_xyz
  x,y,z
_cell_length_a	14.971486
_cell_length_b	14.044220
_cell_length_c	14.048226
_cell_angle_alpha	89.992807
_cell_angle_beta	89.998499
_cell_angle_gamma	88.401503
loop_
_atom_site_label
_atom_site_type_symbol
_atom_site_fract_x
_atom_site_fract_y
_atom_site_fract_z
O1	O	1.196679	0.123538	-0.079053
O2	O	0.937444	0.138332	-0.079079
O3	O	1.063171	-0.007054	-0.079057
O4	O	1.070953	0.268924	-0.079075
O5	O	1.063153	-0.007063	0.079264
O6	O	0.937427	0.138323	0.079242
O7	O	1.196662	0.123529	0.079268
Zn8	Zn	1.067042	0.130925	0.104392
Zn9	Zn	1.067064	0.130936	-0.104203
O10	O	1.070936	0.268915	0.079246
C11	C	0.904059	0.137666	0.000078
C12	C	0.804606	0.135683	0.000069
C13	C	0.754109	0.221093	0.000064
C14	C	0.660662	0.219225	0.000079
C15	C	0.617714	0.131945	0.000090
C16	C	0.668218	0.046528	0.000097
C17	C	0.761663	0.048398	0.000090
C18	C	0.473449	0.042638	0.000111
C19	C	0.379997	0.040767	0.000117
C20	C	0.372448	0.213465	0.000100
C21	C	0.465893	0.215334	0.000092
C22	C	0.516390	0.129917	0.000097
C23	C	1.059755	-0.042377	0.000104
C24	C	1.049594	-0.147614	0.000104
C25	C	1.031018	-0.340297	0.000088
C26	C	1.103085	-0.397848	0.000093
C27	C	1.092748	-0.505063	0.000084
C28	C	1.041353	-0.233071	0.000097
C29	C	1.230047	0.124195	0.000109
C30	C	1.329501	0.126178	0.000112
C31	C	1.074351	0.304238	0.000083
C32	C	1.084512	0.409475	0.000077
N33	N	1.067033	0.130916	0.246753
N34	N	1.067080	0.130937	-0.246564
C35	C	1.122726	0.066566	0.296581
C36	C	1.122732	0.066566	0.396238
C37	C	1.067049	0.130921	0.446066
C38	C	1.011350	0.195274	0.396232
C39	C	1.011340	0.195269	0.296576
C40	C	1.011376	0.195281	0.603946
C41	C	1.011387	0.195287	0.703609
C42	C	1.122768	0.066577	0.703608
C43	C	1.122758	0.066573	0.603953
C44	C	1.067060	0.130927	0.554125
H45	H	0.514561	-0.026919	0.000117
H46	H	0.802776	-0.021152	0.000093
C47	C	0.945034	-0.482063	0.000087
C48	C	0.937251	-0.382476	0.000087
H49	H	0.887147	-0.508109	0.000096
H50	H	0.976606	-0.502803	-0.055121
H51	H	0.976617	-0.502817	0.055299
H52	H	0.905675	-0.361722	-0.055129
H53	H	0.905666	-0.361727	0.055302
C54	C	0.566578	0.317618	-0.081342
C55	C	0.513095	0.311278	0.000059
H56	H	0.595710	0.376854	-0.081367
H57	H	0.610026	0.267027	-0.081328
H58	H	0.530263	0.313286	-0.136537
H59	H	0.549410	0.315602	0.055254
H60	H	0.469641	0.361883	0.000054
H61	H	1.168073	0.014165	0.256017
H62	H	0.965988	0.247669	0.256007
C63	C	0.225856	0.287291	0.000111
C64	C	0.316945	0.307358	0.000095
H65	H	0.191590	0.345256	0.000109
H66	H	0.212095	0.251510	-0.055088
H67	H	0.212106	0.251509	0.055333
H68	H	0.330697	0.343134	-0.055131
H69	H	0.330712	0.343155	0.055299
C70	C	1.261494	-0.429680	0.000121
C71	C	1.196858	-0.355671	0.000115
H72	H	1.319382	-0.403637	0.000132
H73	H	1.254461	-0.467804	0.055322
H74	H	1.254480	-0.467783	-0.055099
H75	H	1.203867	-0.317572	0.055339
H76	H	1.203894	-0.317532	-0.055092
H77	H	1.168080	0.014166	0.436808
H78	H	1.168104	0.014175	0.563383
C79	C	0.901290	0.322520	0.613951
C80	C	0.950157	0.266025	0.549173
H81	H	0.863505	0.366199	0.580134
H82	H	0.865967	0.283007	0.652828
H83	H	0.941259	0.356679	0.652813
H84	H	0.910187	0.231860	0.510315
H85	H	0.985482	0.305543	0.510280
H86	H	0.619551	0.288775	0.000074
H87	H	1.168119	0.014178	0.744184
H88	H	0.789070	0.292167	0.000054
H89	H	0.966043	0.247691	0.744173
H90	H	0.345032	-0.030303	0.000127
C91	C	0.567516	-0.055758	-0.081278
C92	C	0.621012	-0.049413	0.000108
H93	H	0.538379	-0.114992	-0.081274
H94	H	0.524071	-0.005164	-0.081272
H95	H	0.603822	-0.051435	-0.136483
H96	H	0.584704	-0.053729	0.055313
H97	H	0.664462	-0.100021	0.000111
H98	H	0.966007	0.247670	0.436807
