data_functionalizedCrystal
_audit_creation_method	'MofGen! by Chris Wilmer'
_symmetry_space_group_name_H-M	'P1'
_symmetry_Int_Tables_number	1
_symmetry_cell_setting	triclinic
loop_
_symmetry_equiv_pos_as_xyz
  x,y,z
_cell_length_a	8.559649
_cell_length_b	10.489741
_cell_length_c	7.088929
_cell_angle_alpha	83.712943
_cell_angle_beta	95.325015
_cell_angle_gamma	77.158919
loop_
_atom_site_label
_atom_site_type_symbol
_atom_site_fract_x
_atom_site_fract_y
_atom_site_fract_z
O1	O	2.103400	-0.028523	-0.158957
O2	O	1.638952	0.037276	-0.158967
O3	O	1.881746	-0.182335	-0.158950
O4	O	1.860607	0.191088	-0.158973
O5	O	1.914192	-0.211743	0.159027
O6	O	1.671399	0.007868	0.159010
O7	O	2.135846	-0.057931	0.159021
Cu8	Cu	1.906585	-0.027717	0.188049
Cu9	Cu	1.868214	0.007062	-0.187996
O10	O	1.893053	0.161680	0.159004
C11	C	1.595703	0.027558	0.000020
C12	C	1.418493	0.042401	0.000017
C13	C	1.896372	-0.244403	0.000037
C14	C	1.891596	-0.385529	0.000034
C15	C	1.737113	-0.437401	0.000016
C16	C	1.826086	-0.551707	0.156797
C17	C	1.794133	-0.522692	-0.156703
C18	C	1.980646	-0.497989	0.156944
C19	C	1.948657	-0.468948	-0.156697
C20	C	2.037747	-0.583242	0.000122
C21	C	2.179096	-0.048213	0.000029
C22	C	2.356304	-0.063054	0.000020
C23	C	1.878426	0.223748	0.000012
C24	C	1.883201	0.364876	0.000003
N25	N	1.933585	-0.052180	0.452539
N26	N	1.841226	0.031513	-0.452486
H27	H	1.438631	-0.164693	0.000017
C28	C	1.307276	0.179718	0.000006
H29	H	1.198766	0.172020	0.000015
H30	H	1.315906	0.236180	-0.110878
H31	H	1.338533	0.215661	0.110907
H32	H	1.610115	-0.374390	0.000171
H33	H	1.745507	0.118244	0.465862
C34	C	2.062906	-0.169351	0.562844
H35	H	2.061058	-0.167677	0.696351
H36	H	2.166301	-0.163025	0.530110
H37	H	2.041116	-0.249645	0.530142
H38	H	2.000441	-0.432522	-0.289249
H39	H	1.774246	-0.588094	0.289341
C40	C	2.087150	-0.482214	0.336213
H41	H	2.089488	-0.392016	0.335166
H42	H	2.193669	-0.533583	0.336677
H43	H	2.043965	-0.511289	0.447405
C44	C	1.687537	-0.538677	-0.335765
H45	H	1.580765	-0.487964	-0.335561
H46	H	1.686042	-0.629002	-0.335113
H47	H	1.730026	-0.508893	-0.447094
H48	H	2.164884	-0.646061	0.000212
