data_functionalizedCrystal
_audit_creation_method	'MofGen! by Chris Wilmer'
_symmetry_space_group_name_H-M	'P1'
_symmetry_Int_Tables_number	1
_symmetry_cell_setting	triclinic
loop_
_symmetry_equiv_pos_as_xyz
  x,y,z
_cell_length_a	10.654562
_cell_length_b	10.654550
_cell_length_c	17.766277
_cell_angle_alpha	89.994852
_cell_angle_beta	89.987841
_cell_angle_gamma	84.487503
loop_
_atom_site_label
_atom_site_type_symbol
_atom_site_fract_x
_atom_site_fract_y
_atom_site_fract_z
O1	O	1.667841	0.176477	-0.062642
O2	O	1.302364	0.193266	-0.062632
O3	O	1.493505	0.002133	-0.062634
O4	O	1.476699	0.367610	-0.062639
O5	O	1.493471	0.002122	0.062554
O6	O	1.302330	0.193256	0.062556
O7	O	1.667807	0.176467	0.062547
Cu8	Cu	1.485065	0.184860	0.073982
Cu9	Cu	1.485105	0.184872	-0.074068
O10	O	1.476665	0.367600	0.062549
C11	C	1.255549	0.192025	-0.000037
C12	C	1.116107	0.188327	-0.000033
C13	C	1.050558	0.186596	0.068201
C14	C	0.919535	0.183131	0.068189
C15	C	0.919623	0.183133	-0.068299
C16	C	1.050644	0.186589	-0.068285
C17	C	1.050506	0.186601	0.147001
C18	C	0.919483	0.183136	0.146989
C19	C	1.492254	-0.044671	-0.000041
C20	C	1.488563	-0.184114	-0.000043
C21	C	1.601103	-0.263595	-0.000044
C22	C	1.597627	-0.394615	-0.000049
C23	C	1.369059	-0.366662	-0.000050
C24	C	1.372537	-0.235644	-0.000050
C25	C	1.733066	-0.279734	-0.000041
C26	C	1.729589	-0.410755	-0.000046
C27	C	1.714621	0.177708	-0.000050
C28	C	1.854064	0.181406	-0.000059
C29	C	1.477916	0.414403	-0.000046
C30	C	1.481608	0.553847	-0.000048
N31	N	1.485046	0.184851	0.178113
N32	N	1.485134	0.184872	-0.178198
C33	C	1.569712	0.100259	0.217499
C34	C	1.569719	0.100254	0.296300
C35	C	1.485073	0.184862	0.335713
C36	C	1.400391	0.269460	0.296318
C37	C	1.400378	0.269454	0.217517
C38	C	1.469613	0.299099	0.460550
C39	C	1.469635	0.299106	0.539349
C40	C	1.485106	0.184877	0.578760
C41	C	1.500582	0.070637	0.539362
C42	C	1.500569	0.070632	0.460562
C43	C	1.485077	0.184876	0.421159
C44	C	1.569784	0.100272	0.703591
C45	C	1.569783	0.100264	0.782395
C46	C	1.400461	0.269481	0.782411
C47	C	1.400457	0.269478	0.703609
C48	C	1.485125	0.184875	0.664204
H49	H	0.873189	0.269930	0.177239
Br50	Br	1.803051	-0.220341	0.090056
H51	H	0.889889	0.091540	0.171442
H52	H	1.080074	0.278194	0.171450
H53	H	0.866306	0.181718	-0.123867
Br54	Br	1.219797	-0.127779	-0.000073
H55	H	1.638724	0.031373	0.814463
Br56	Br	1.127606	0.041943	0.197441
H57	H	1.779296	-0.452517	0.052343
Br58	Br	1.211602	-0.436605	-0.000064
Br59	Br	1.521558	-0.084400	0.407095
Br60	Br	1.139605	0.188902	-0.160893
H61	H	1.769484	-0.456392	-0.054100
Br62	Br	1.819117	-0.230778	-0.087354
Br63	Br	1.684610	-0.014560	0.164020
H64	H	1.638666	0.031366	0.328374
Br65	Br	1.521595	-0.084399	0.592837
H66	H	1.638723	0.031379	0.671507
Br67	Br	1.285504	0.384277	0.349803
Br68	Br	1.285570	0.384294	0.835893
H69	H	1.331519	0.338366	0.671539
H70	H	1.457042	0.392127	0.571420
Br71	Br	1.448742	0.454143	0.407072
H72	H	1.331432	0.338340	0.185449
