data_functionalizedCrystal
_audit_creation_method	'MofGen! by Chris Wilmer'
_symmetry_space_group_name_H-M	'P1'
_symmetry_Int_Tables_number	1
_symmetry_cell_setting	triclinic
loop_
_symmetry_equiv_pos_as_xyz
  x,y,z
_cell_length_a	21.295420
_cell_length_b	21.295417
_cell_length_c	18.215384
_cell_angle_alpha	89.899621
_cell_angle_beta	89.937690
_cell_angle_gamma	90.026289
loop_
_atom_site_label
_atom_site_type_symbol
_atom_site_fract_x
_atom_site_fract_y
_atom_site_fract_z
Zn1	Zn	0.962590	-0.250263	-0.416094
Zn2	Zn	0.962423	-0.355659	-0.293018
Zn3	Zn	0.857244	-0.250400	-0.293041
Zn4	Zn	0.857282	-0.355490	-0.416043
O5	O	0.909885	-0.302953	-0.354549
O6	O	1.050657	-0.264257	-0.399779
O7	O	0.948385	-0.341824	-0.190036
O8	O	0.871272	-0.162292	-0.309395
O9	O	1.050534	-0.341691	-0.309356
O10	O	0.948669	-0.162191	-0.399801
O11	O	0.871110	-0.264491	-0.190053
O12	O	0.769159	-0.264327	-0.309346
O13	O	0.871338	-0.341403	-0.519035
O14	O	0.769188	-0.341537	-0.399715
O15	O	0.948707	-0.264093	-0.519072
O16	O	0.948422	-0.443726	-0.309307
O17	O	0.871176	-0.443602	-0.399693
C18	C	0.746333	-0.302929	-0.354528
C19	C	0.676365	-0.302934	-0.354537
C20	C	0.176970	-0.262728	-0.401720
C21	C	0.242713	-0.262723	-0.401720
C22	C	0.275526	-0.302972	-0.354566
C23	C	0.242590	-0.343240	-0.307422
C24	C	0.176849	-0.343248	-0.307429
N25	N	0.378679	-0.307783	-0.290126
N26	N	0.441131	-0.307772	-0.290122
C27	C	0.473600	-0.302951	-0.354544
N28	N	0.441259	-0.298130	-0.418973
N29	N	0.378802	-0.298138	-0.418976
C30	C	0.346811	-0.302968	-0.354554
C31	C	0.577813	-0.262684	-0.401689
C32	C	0.643557	-0.262684	-0.401690
C33	C	0.643433	-0.343197	-0.307386
C34	C	0.577691	-0.343201	-0.307391
C35	C	0.544885	-0.302941	-0.354542
C36	C	0.909802	-0.466505	-0.354508
C37	C	0.909824	-0.536473	-0.354515
C38	C	0.950082	-0.569383	-0.307499
C39	C	0.950112	-0.635126	-0.307516
C40	C	0.909872	-0.667955	-0.354541
C41	C	0.869611	-0.635037	-0.401566
C42	C	0.869588	-0.569296	-0.401553
N43	N	0.854808	-0.771211	-0.360144
N44	N	0.854833	-0.833663	-0.360152
C45	C	0.909943	-0.866030	-0.354583
N46	N	0.965028	-0.833586	-0.348992
N47	N	0.965003	-0.771129	-0.348980
C48	C	0.909894	-0.739241	-0.354560
C49	C	0.950236	-0.970226	-0.307583
C50	C	0.950267	-1.035969	-0.307604
C51	C	0.869761	-1.035879	-0.401650
C52	C	0.869736	-0.970137	-0.401632
C53	C	0.909973	-0.937314	-0.354595
C54	C	1.074075	-0.302978	-0.354570
C55	C	1.144043	-0.302988	-0.354579
C56	C	0.910045	-0.302714	-0.546502
C57	C	0.910114	-0.302612	-0.628302
C58	C	0.909985	-0.138763	-0.354606
C59	C	0.910027	-0.068794	-0.354630
C60	C	0.909761	-0.303146	-0.163342
C61	C	0.909815	-0.303070	-0.081544
C62	C	0.869949	-0.343421	0.106871
C63	C	0.869999	-0.343342	0.183730
C64	C	0.949981	-0.262257	0.183278
C65	C	0.949928	-0.262333	0.106421
C66	C	0.909913	-0.302918	0.068220
C67	C	0.910015	-0.302764	0.221935
C68	C	0.910069	-0.302679	0.305269
C69	C	0.909859	-0.303003	-0.015119
H70	H	0.150040	-0.376034	-0.269041
H71	H	0.837454	-0.376322	0.215197
Br72	Br	1.004752	-0.679800	-0.243704
Br73	Br	1.004271	-0.207167	0.235127
Br74	Br	0.815005	-0.679589	-0.465391
Br75	Br	1.004840	-0.925676	-0.243745
Br76	Br	1.004170	-0.207363	0.053960
Br77	Br	0.814948	-0.524628	-0.465367
H78	H	0.836951	-0.943340	-0.439914
Br79	Br	0.533000	-0.397834	-0.243401
H80	H	0.837366	-0.376467	0.075770
Br81	Br	1.004914	-1.080635	-0.243799
H82	H	0.269527	-0.229935	-0.440106
Br83	Br	0.815155	-1.080427	-0.465478
Br84	Br	0.132450	-0.208094	-0.465714
H85	H	0.551101	-0.229902	-0.440081
Br86	Br	0.287120	-0.397869	-0.243433
Br87	Br	1.004698	-0.524840	-0.243673
Br88	Br	0.687957	-0.397830	-0.243399
Br89	Br	0.688245	-0.208047	-0.465681
