data_functionalizedCrystal
_audit_creation_method	'MofGen! by Chris Wilmer'
_symmetry_space_group_name_H-M	'P1'
_symmetry_Int_Tables_number	1
_symmetry_cell_setting	triclinic
loop_
_symmetry_equiv_pos_as_xyz
  x,y,z
_cell_length_a	19.077105
_cell_length_b	13.897448
_cell_length_c	19.076919
_cell_angle_alpha	92.272955
_cell_angle_beta	90.076224
_cell_angle_gamma	87.714101
loop_
_atom_site_label
_atom_site_type_symbol
_atom_site_fract_x
_atom_site_fract_y
_atom_site_fract_z
Zn1	Zn	1.058310	-0.466652	-0.440425
Zn2	Zn	1.391644	-0.133319	-0.107091
Zn3	Zn	1.724977	0.200015	0.226242
Zn4	Zn	1.062963	-0.621745	-0.322920
Zn5	Zn	1.396297	-0.288412	0.010413
Zn6	Zn	1.729630	0.044921	0.343746
Zn7	Zn	0.945527	-0.453730	-0.318218
Zn8	Zn	1.278860	-0.120397	0.015115
Zn9	Zn	1.612194	0.212936	0.348449
Zn10	Zn	0.940785	-0.621164	-0.435673
Zn11	Zn	1.274118	-0.287830	-0.102340
Zn12	Zn	1.607452	0.045503	0.230994
O13	O	1.001896	-0.540823	-0.379309
O14	O	1.335230	-0.207490	-0.045976
O15	O	1.668563	0.125844	0.287358
O16	O	1.157260	-0.492877	-0.428794
O17	O	1.490593	-0.159544	-0.095461
O18	O	1.823926	0.173790	0.237872
O19	O	1.051317	-0.594293	-0.223965
O20	O	1.384650	-0.260960	0.109368
O21	O	1.717984	0.072373	0.442701
O22	O	0.960525	-0.320466	-0.334450
O23	O	1.293858	0.012867	-0.001116
O24	O	1.627192	0.346201	0.332217
O25	O	1.160678	-0.606823	-0.342464
O26	O	1.494012	-0.273490	-0.009131
O27	O	1.827345	0.059844	0.324203
O28	O	1.043386	-0.329960	-0.424235
O29	O	1.376720	0.003374	-0.090901
O30	O	1.710053	0.336707	0.242432
O31	O	0.965037	-0.470854	-0.220510
O32	O	1.298370	-0.137520	0.112823
O33	O	1.631704	0.195813	0.446156
O34	O	0.846566	-0.470290	-0.329842
O35	O	1.179899	-0.136956	0.003491
O36	O	1.513232	0.196377	0.336825
O37	O	0.952443	-0.605832	-0.534635
O38	O	1.285777	-0.272498	-0.201301
O39	O	1.619110	0.060835	0.132032
O40	O	0.843082	-0.593302	-0.416136
O41	O	1.176415	-0.259969	-0.082802
O42	O	1.509749	0.073365	0.250531
O43	O	1.038788	-0.492313	-0.538126
O44	O	1.372122	-0.158979	-0.204792
O45	O	1.705455	0.174354	0.128541
O46	O	1.046719	-0.756647	-0.337856
O47	O	1.380052	-0.423313	-0.004523
O48	O	1.713386	-0.089980	0.328810
O49	O	0.956955	-0.756219	-0.420695
O50	O	1.290289	-0.422886	-0.087362
O51	O	1.623622	-0.089553	0.245971
C52	C	0.819327	-0.530331	-0.371963
C53	C	1.152661	-0.196998	-0.038630
C54	C	1.485994	0.136335	0.294703
C55	C	0.741223	-0.525867	-0.368837
C56	C	1.074556	-0.192534	-0.035504
C57	C	1.407889	0.140800	0.297829
C58	C	0.702736	-0.587905	-0.412227
C59	C	1.036070	-0.254572	-0.078893
C60	C	1.369403	0.078762	0.254440
C61	C	0.629349	-0.583698	-0.409293
C62	C	0.962682	-0.250364	-0.075960
C63	C	1.296015	0.082969	0.257374
C64	C	0.594449	-0.517456	-0.362966
C65	C	0.927782	-0.184123	-0.029633
C66	C	1.261116	0.149210	0.303701
C67	C	0.632940	-0.455412	-0.319575
C68	C	0.966274	-0.122079	0.013758
C69	C	1.299607	0.211255	0.347092
C70	C	0.706327	-0.459615	-0.322513
C71	C	1.039660	-0.126282	0.010821
C72	C	1.372993	0.207052	0.344154
C73	C	0.375160	-0.498004	-0.349373
C74	C	0.708493	-0.164670	-0.016040
C75	C	1.041827	0.168663	0.317294
C76	C	0.301769	-0.493807	-0.346437
C77	C	0.635102	-0.160474	-0.013104
C78	C	0.968435	0.172860	0.320229
C79	C	0.298182	-0.622092	-0.436157
C80	C	0.631515	-0.288759	-0.102823
C81	C	0.964849	0.044575	0.230510
C82	C	0.371570	-0.626293	-0.439087
C83	C	0.704903	-0.292960	-0.105754
C84	C	1.038237	0.040373	0.227579
C85	C	0.410055	-0.564245	-0.395699
C86	C	0.743388	-0.230912	-0.062365
C87	C	1.076721	0.102421	0.270968
N88	N	0.519435	-0.513157	-0.359965
N89	N	0.852768	-0.179823	-0.026631
N90	N	1.186102	0.153510	0.306702
N91	N	0.485067	-0.568541	-0.398704
N92	N	0.818401	-0.235208	-0.065371
N93	N	1.151734	0.098125	0.267962
C94	C	1.001846	-0.791433	-0.379287
C95	C	1.335179	-0.458100	-0.045953
C96	C	1.668513	-0.124767	0.287380
C97	C	1.001888	-0.898650	-0.379303
C98	C	1.335221	-0.565317	-0.045970
C99	C	1.668554	-0.231984	0.287364
C100	C	1.001960	-1.094952	-0.379350
C101	C	1.335293	-0.761619	-0.046017
C102	C	1.668626	-0.428285	0.287317
C103	C	1.001918	-0.985716	-0.379326
C104	C	1.335251	-0.652383	-0.045993
C105	C	1.668584	-0.319049	0.287341
C106	C	1.185178	-0.551356	-0.386684
C107	C	1.518512	-0.218023	-0.053350
C108	C	1.851845	0.115310	0.279983
C109	C	1.263282	-0.555845	-0.389826
C110	C	1.596616	-0.222512	-0.056493
C111	C	1.929949	0.110822	0.276840
C112	C	0.994568	-0.550449	-0.562589
C113	C	1.327901	-0.217115	-0.229256
C114	C	1.661234	0.116218	0.104077
C115	C	0.991445	-0.554551	-0.640692
C116	C	1.324778	-0.221217	-0.307359
C117	C	1.658111	0.112116	0.025974
C118	C	1.001966	-0.289236	-0.379348
C119	C	1.335299	0.044097	-0.046014
C120	C	1.668632	0.377431	0.287319
C121	C	1.001995	-0.182024	-0.379364
C122	C	1.335328	0.151309	-0.046031
C123	C	1.668662	0.484642	0.287303
C124	C	1.034931	-0.497377	-0.679204
C125	C	1.368264	-0.164044	-0.345871
C126	C	1.701597	0.169289	-0.012538
C127	C	1.031988	-0.501227	-0.752590
C128	C	1.365321	-0.167894	-0.419257
C129	C	1.698654	0.165439	-0.085923
C130	C	0.985562	-0.562257	-0.787463
C131	C	1.318895	-0.228923	-0.454130
C132	C	1.652229	0.104410	-0.120796
C133	C	0.942071	-0.619432	-0.748946
C134	C	1.275405	-0.286099	-0.415613
C135	C	1.608738	0.047234	-0.082279
C136	C	0.945011	-0.615576	-0.675561
C137	C	1.278345	-0.282243	-0.342228
C138	C	1.611678	0.051090	-0.008895
C139	C	0.971945	-0.580121	-1.006744
C140	C	1.305279	-0.246788	-0.673411
C141	C	1.638612	0.086546	-0.340078
C142	C	0.969010	-0.583975	-1.080134
C143	C	1.302344	-0.250641	-0.746801
C144	C	1.635677	0.082692	-0.413468
C145	C	1.058926	-0.465768	-1.083773
C146	C	1.392259	-0.132435	-0.750440
C147	C	1.725593	0.200899	-0.417107
C148	C	1.061865	-0.461922	-1.010387
C149	C	1.395198	-0.128589	-0.677054
C150	C	1.728531	0.204745	-0.343721
C151	C	1.018372	-0.519094	-0.971877
C152	C	1.351705	-0.185760	-0.638543
C153	C	1.685038	0.147573	-0.305210
N154	N	0.982554	-0.566196	-0.862475
N155	N	1.315887	-0.232862	-0.529142
N156	N	1.649221	0.100471	-0.195808
N157	N	1.021376	-0.515149	-0.896866
N158	N	1.354710	-0.181816	-0.563532
N159	N	1.688043	0.151518	-0.230199
C160	C	1.009237	-0.531167	-0.196743
C161	C	1.342570	-0.197834	0.136590
C162	C	1.675904	0.135499	0.469923
C163	C	1.012496	-0.526801	-0.118646
C164	C	1.345829	-0.193468	0.214687
C165	C	1.679163	0.139865	0.548021
H166	H	0.737661	-0.409092	-0.287184
H167	H	1.070995	-0.075759	0.046149
H168	H	1.404328	0.257574	0.379483
H169	H	0.904268	-0.669120	-0.777345
H170	H	1.237601	-0.335787	-0.444012
H171	H	1.570935	-0.002453	-0.110678
F172	F	0.595795	-0.384907	-0.270274
F173	F	0.929129	-0.051573	0.063059
F174	F	1.262462	0.281760	0.396392
H175	H	1.094335	-0.419221	-1.115137
H176	H	1.427668	-0.085887	-0.781803
H177	H	1.761001	0.247446	-0.448470
H178	H	0.731147	-0.641849	-0.449949
H179	H	1.064480	-0.308515	-0.116616
H180	H	1.397813	0.024818	0.216718
H181	H	1.099672	-0.412228	-0.981999
H182	H	1.433005	-0.078895	-0.648666
H183	H	1.766338	0.254438	-0.315332
F184	F	0.416109	-0.431964	-0.303197
F185	F	0.749443	-0.098630	0.030137
F186	F	1.082776	0.234703	0.363470
F187	F	1.084347	-0.432426	-0.642097
F188	F	1.417681	-0.099093	-0.308763
F189	F	1.751014	0.234241	0.024570
H190	H	1.067400	-0.454673	-0.783943
H191	H	1.400733	-0.121340	-0.450610
H192	H	1.734067	0.211994	-0.117277
H193	H	0.931203	-0.633674	-1.108525
H194	H	1.264536	-0.300341	-0.775192
H195	H	1.597869	0.032992	-0.441859
F196	F	0.925656	-0.640969	-0.965768
F197	F	1.258989	-0.307636	-0.632434
F198	F	1.592322	0.025698	-0.299101
F199	F	0.898726	-0.676426	-0.634574
F200	F	1.232059	-0.343093	-0.301241
F201	F	1.565392	-0.009759	0.032092
H202	H	0.598016	-0.634216	-0.444625
H203	H	0.931350	-0.300883	-0.111291
H204	H	1.264683	0.032450	0.222042
F205	F	0.408708	-0.696798	-0.488393
F206	F	0.742041	-0.363465	-0.155060
F207	F	1.075374	-0.030132	0.178273
H208	H	0.266840	-0.672607	-0.471482
H209	H	0.600173	-0.339273	-0.138149
H210	H	0.933506	-0.005940	0.195185
H211	H	0.273355	-0.439855	-0.308716
H212	H	0.606689	-0.106521	0.024617
H213	H	0.940022	0.226812	0.357950
