data_functionalizedCrystal
_audit_creation_method	'MofGen! by Chris Wilmer'
_symmetry_space_group_name_H-M	'P1'
_symmetry_Int_Tables_number	1
_symmetry_cell_setting	triclinic
loop_
_symmetry_equiv_pos_as_xyz
  x,y,z
_cell_length_a	31.640172
_cell_length_b	31.640171
_cell_length_c	31.640172
_cell_angle_alpha	59.987848
_cell_angle_beta	90.008445
_cell_angle_gamma	59.992468
loop_
_atom_site_label
_atom_site_type_symbol
_atom_site_fract_x
_atom_site_fract_y
_atom_site_fract_z
Zr1	Zr	0.407055	0.462734	-0.055624
O2	O	0.339541	0.550940	-0.123156
O3	O	0.427769	0.374528	-0.034894
O4	O	0.427744	0.462723	-0.123103
O5	O	0.339567	0.462754	0.034601
O6	O	0.497301	0.462714	-0.123094
O7	O	0.339566	0.462745	-0.034947
O8	O	0.497346	0.304950	0.034697
O9	O	0.339522	0.620519	-0.123189
O10	O	0.488493	0.410802	-0.026080
O11	O	0.436584	0.410815	0.025816
O12	O	0.436554	0.514653	-0.078039
O13	O	0.384645	0.514666	-0.026143
Zr14	Zr	0.517992	0.462734	0.055312
Zr15	Zr	0.517991	0.462720	-0.055610
Zr16	Zr	0.407057	0.462748	0.055297
Zr17	Zr	0.407025	0.573704	-0.055677
Zr18	Zr	0.518023	0.351764	0.055364
O19	O	0.497279	0.550940	0.034581
O20	O	0.497277	0.550920	-0.123135
O21	O	0.339543	0.550960	0.034560
O22	O	0.585507	0.374528	0.122844
O23	O	0.585505	0.374508	-0.034872
O24	O	0.427771	0.374548	0.122823
O25	O	0.585481	0.462714	-0.034914
O26	O	0.497304	0.462745	0.122790
O27	O	0.427747	0.462754	0.122781
O28	O	0.585482	0.462723	0.034634
O29	O	0.427701	0.620508	-0.123177
O30	O	0.497347	0.304961	0.122865
O31	O	0.585526	0.304950	0.122876
O32	O	0.585525	0.304938	0.034709
O33	O	0.339523	0.620530	-0.035021
O34	O	0.427702	0.620519	-0.035009
O35	O	0.488494	0.410815	0.077726
O36	O	0.540403	0.410802	0.025830
O37	O	0.488464	0.514653	-0.026129
O38	O	0.436555	0.514666	0.025767
C39	C	0.462562	0.323928	-0.000091
C40	C	0.462574	0.276818	-0.000069
C41	C	0.435428	-0.059397	0.026938
C42	C	0.435456	0.117556	0.026983
O43	O	0.412432	0.140424	0.050044
N44	N	0.462555	0.139678	-0.000101
C45	C	0.489653	0.117556	-0.027196
O46	O	0.512708	0.140428	-0.050227
C47	C	0.489628	-0.059400	-0.027238
C48	C	0.462522	-0.081515	-0.000156
C49	C	0.408325	-0.081513	0.054017
C50	C	0.408316	-0.125747	0.054003
C51	C	0.435410	-0.147864	0.026910
C52	C	0.462513	-0.125749	-0.000170
C53	C	0.516728	-0.081524	-0.054329
C54	C	0.516721	-0.125767	-0.054336
C55	C	0.489615	-0.147882	-0.027255
C56	C	0.489598	-0.192100	-0.027278
N57	N	0.462499	-0.214222	-0.000194
C58	C	0.435405	-0.192104	0.026900
C59	C	0.489663	0.210461	-0.027172
C60	C	0.489669	0.254701	-0.027163
C61	C	0.435472	0.254697	0.027017
C62	C	0.435464	0.210460	0.027004
C63	C	0.462563	0.188339	-0.000088
C64	C	0.435388	-0.284997	0.026868
C65	C	0.435379	-0.329233	0.026850
C66	C	0.489578	-0.329227	-0.027327
C67	C	0.489584	-0.284993	-0.027312
C68	C	0.462488	-0.262881	-0.000210
O69	O	0.512614	-0.214999	-0.050322
O70	O	0.412362	-0.214993	0.049937
C71	C	0.435437	-0.015164	0.026952
C72	C	0.462540	0.006952	-0.000128
C73	C	0.489634	-0.015166	-0.027222
C74	C	0.462546	0.051191	-0.000119
C75	C	0.435451	0.073309	0.026975
C76	C	0.408352	0.051187	0.054059
C77	C	0.408343	0.006954	0.054045
C78	C	0.516734	0.006956	-0.054306
C79	C	0.516740	0.051190	-0.054291
C80	C	0.489646	0.073308	-0.027197
C81	C	0.323761	0.462752	-0.000175
C82	C	0.276666	0.462758	-0.000181
C83	C	0.011771	0.408519	0.026976
C84	C	-0.165214	0.408509	0.026986
O85	O	-0.165043	0.362405	0.050072
N86	N	-0.214455	0.462718	-0.000136
C87	C	-0.219449	0.516933	-0.027261
O88	O	-0.265393	0.563041	-0.050326
C89	C	-0.042465	0.516943	-0.027268
C90	C	0.006776	0.462730	-0.000147
C91	C	0.061009	0.354311	0.054095
C92	C	0.105253	0.354314	0.054090
C93	C	0.100258	0.408525	0.026966
C94	C	0.051019	0.462733	-0.000153
C95	C	-0.047459	0.571157	-0.054389
C96	C	-0.003208	0.571155	-0.054387
C97	C	0.046033	0.516943	-0.027267
C98	C	0.090268	0.516948	-0.027281
N99	N	0.139509	0.462739	-0.000159
C100	C	0.144504	0.408528	0.026965
C101	C	-0.312367	0.516924	-0.027256
C102	C	-0.356613	0.516922	-0.027255
C103	C	-0.302374	0.408497	0.026993
C104	C	-0.258128	0.408500	0.026989
C105	C	-0.263126	0.462715	-0.000133
C106	C	0.237416	0.408538	0.026952
C107	C	0.281661	0.408546	0.026943
C108	C	0.227419	0.516970	-0.027303
C109	C	0.183178	0.516963	-0.027296
C110	C	0.188180	0.462742	-0.000165
O111	O	0.090135	0.563027	-0.050350
O112	O	0.190452	0.362427	0.050036
C113	C	-0.032472	0.408516	0.026981
C114	C	-0.081711	0.462724	-0.000137
C115	C	-0.086706	0.516935	-0.027261
C116	C	-0.125957	0.462722	-0.000136
C117	C	-0.120962	0.408511	0.026987
C118	C	-0.071721	0.354302	0.054110
C119	C	-0.027477	0.354305	0.054105
C120	C	-0.135947	0.571144	-0.054383
C121	C	-0.180188	0.571137	-0.054377
C122	C	-0.175193	0.516925	-0.027253
C123	C	0.601287	0.462717	-0.000138
C124	C	0.648382	0.462711	-0.000132
C125	C	0.462522	0.462717	-0.138902
C126	C	0.462521	0.462711	-0.185991
C127	C	0.462486	0.601540	-0.000222
C128	C	0.462473	0.648650	-0.000244
C129	C	0.435417	0.516949	-0.505148
C130	C	0.435418	0.516959	-0.682144
O131	O	0.412379	0.563063	-0.728096
N132	N	0.462528	0.462750	-0.677152
C133	C	0.489643	0.408535	-0.627906
O134	O	0.512707	0.362427	-0.627722
C135	C	0.489645	0.408525	-0.450912
C136	C	0.462529	0.462738	-0.455908
C137	C	0.408304	0.571157	-0.510142
C138	C	0.408301	0.571154	-0.465896
C139	C	0.435413	0.516943	-0.416655
C140	C	0.462527	0.462735	-0.411662
C141	C	0.516763	0.354311	-0.401668
C142	C	0.516762	0.354313	-0.357419
C143	C	0.489646	0.408526	-0.362415
C144	C	0.489636	0.408520	-0.318175
N145	N	0.462526	0.462729	-0.323167
C146	C	0.435414	0.516940	-0.372407
C147	C	0.489639	0.408544	-0.720833
C148	C	0.489638	0.408546	-0.765081
C149	C	0.435413	0.516971	-0.819316
C150	C	0.435412	0.516968	-0.775066
C151	C	0.462529	0.462753	-0.725825
C152	C	0.435411	0.516930	-0.279484
C153	C	0.435410	0.516922	-0.235231
C154	C	0.489636	0.408498	-0.181001
C155	C	0.489636	0.408505	-0.225250
C156	C	0.462522	0.462726	-0.274493
O157	O	0.512667	0.362441	-0.272207
O158	O	0.412364	0.563041	-0.372581
C159	C	0.435419	0.516952	-0.549395
C160	C	0.462533	0.462744	-0.544401
C161	C	0.489645	0.408533	-0.495161
C162	C	0.462532	0.462746	-0.588649
C163	C	0.435420	0.516958	-0.637890
C164	C	0.408310	0.571166	-0.642881
C165	C	0.408308	0.571163	-0.598635
C166	C	0.516755	0.354324	-0.490169
C167	C	0.516755	0.354332	-0.534418
C168	C	0.489643	0.408543	-0.583658
C169	C	0.462526	0.462752	0.138590
C170	C	0.462527	0.462758	0.185679
C171	C	0.601325	0.323910	-0.000072
C172	C	0.648433	0.276795	-0.000044
C173	C	0.462564	0.323945	0.138655
C174	C	0.462577	0.276842	0.185766
C175	C	0.601327	0.323928	0.138673
C176	C	0.648435	0.276818	0.185791
C177	C	0.323721	0.601540	-0.138986
C178	C	0.276613	0.648650	-0.186103
C179	C	0.323723	0.601558	-0.000240
C180	C	0.276615	0.648673	-0.000269
C181	C	0.462484	0.601523	-0.138967
C182	C	0.462471	0.648626	-0.186079
C183	C	0.643458	0.254669	-0.027132
C184	C	0.687717	0.210405	-0.027115
C185	C	0.736949	0.188265	-0.000008
C186	C	0.741923	0.210395	0.027081
C187	C	0.697665	0.254661	0.027061
C188	C	0.489680	0.254722	0.234991
C189	C	0.489691	0.210469	0.279262
C190	C	0.462601	0.188334	0.274306
C191	C	0.435495	0.210459	0.225075
C192	C	0.435481	0.254714	0.180806
C193	C	0.697659	0.254688	0.180829
C194	C	0.741926	0.210430	0.225096
C195	C	0.736970	0.188300	0.274326
C196	C	0.687741	0.210434	0.279287
C197	C	0.643475	0.254695	0.235020
C198	C	0.227389	0.670785	-0.181141
C199	C	0.183122	0.715057	-0.225409
C200	C	0.188078	0.737190	-0.274638
C201	C	0.237307	0.715053	-0.279600
C202	C	0.281573	0.670785	-0.235333
C203	C	0.281589	0.670804	0.026815
C204	C	0.237331	0.715080	0.026786
C205	C	0.188099	0.737222	-0.000323
C206	C	0.183125	0.715089	-0.027410
C207	C	0.227383	0.670817	-0.027384
C208	C	0.489566	0.670747	-0.181106
C209	C	0.489563	0.715000	-0.225368
C210	C	0.462462	0.737134	-0.274602
C211	C	0.435367	0.715010	-0.279573
C212	C	0.435373	0.670754	-0.235312
H213	H	0.413304	-0.347235	0.048903
H214	H	0.538800	-0.063525	-0.076381
C215	C	0.785630	0.139567	0.000013
N216	N	0.822294	0.102885	0.000028
C217	C	0.703124	0.279027	0.126680
N218	N	0.707244	0.297359	0.085896
H219	H	0.152065	0.773271	-0.000340
C220	C	0.589330	0.279031	0.240487
N221	N	0.548549	0.297361	0.244609
H222	H	0.413302	0.733039	-0.319665
C223	C	0.405672	0.279031	0.056824
N224	N	0.383231	0.297358	0.079277
H225	H	0.321755	0.364398	0.049029
H226	H	0.773018	0.152260	0.310367
H227	H	0.386246	-0.143751	0.076058
H228	H	0.782014	0.192362	0.049151
H229	H	0.143042	0.733074	-0.221359
H230	H	0.386288	0.069206	0.076118
H231	H	-0.316444	0.561075	-0.049346
C232	C	0.242750	0.739400	-0.333757
N233	N	0.246849	0.757736	-0.374550
C234	C	0.682297	0.186079	0.333445
N235	N	0.678199	0.167730	0.374238
C236	C	0.405581	0.576562	-0.240733
N237	N	0.383116	0.621482	-0.244878
C238	C	0.139378	0.785882	-0.323329
N239	N	0.102696	0.822554	-0.360001
H240	H	-0.298314	0.364356	0.049075
C241	C	0.796072	0.186085	0.219627
N242	N	0.836854	0.167748	0.215506
C243	C	0.682235	0.186065	-0.056911
N244	N	0.678104	0.167731	-0.079351
C245	C	0.462460	0.785818	-0.323286
N246	N	0.462459	0.822487	-0.359953
H247	H	0.701722	0.272671	0.049122
C248	C	0.221924	0.646451	-0.126993
N249	N	0.217804	0.628129	-0.086209
C250	C	-0.101617	0.630797	-0.084222
N251	N	-0.142409	0.675721	-0.106693
H252	H	0.413322	-0.266997	0.048936
C253	C	0.128964	0.739443	-0.057219
N254	N	0.088169	0.757783	-0.079667
H255	H	0.511740	0.272739	0.239036
C256	C	0.519384	0.646404	-0.126953
N257	N	0.541848	0.628068	-0.086166
H258	H	0.223326	0.652799	-0.049437
H259	H	0.143083	0.561107	-0.049386
H260	H	0.321652	0.652762	-0.239379
C261	C	0.519398	-0.260663	-0.057106
N262	N	0.541860	-0.242344	-0.079543
C263	C	0.519468	0.348899	-0.666669
N264	N	0.541932	0.303974	-0.625874
H265	H	0.538798	-0.011050	-0.076369
H266	H	0.413439	0.192431	0.221048
H267	H	0.321673	0.652779	0.048893
H268	H	0.241390	0.733093	0.048845
C269	C	0.589307	0.279018	-0.056958
N270	N	0.548521	0.297358	-0.079427
C271	C	0.462627	0.139647	0.323008
N272	N	0.462650	0.102973	0.359693
H273	H	0.538811	0.069196	-0.076348
C274	C	0.405586	0.576605	-0.780568
N275	N	0.383122	0.621527	-0.784715
C276	C	0.519369	0.739332	-0.219888
N277	N	0.541818	0.757658	-0.215758
H278	H	0.413306	0.652749	-0.239368
C279	C	0.378523	-0.057197	0.083832
N280	N	0.356074	-0.038885	0.106291
C281	C	0.405656	0.186127	0.056806
N282	N	0.383208	0.167797	0.079259
H283	H	0.511731	0.192454	-0.049235
C284	C	0.242926	0.348893	0.056794
N285	N	0.247077	0.303967	0.079267
C286	C	0.546530	-0.150094	-0.084143
N287	N	0.568981	-0.168414	-0.106596
H288	H	0.413413	0.272719	0.140727
H289	H	0.511766	0.192460	0.319343
H290	H	0.511734	0.272710	-0.049221
H291	H	0.386271	-0.011048	0.076098
C292	C	0.159414	0.294676	0.083929
N293	N	0.200207	0.249753	0.106408
H294	H	0.511636	-0.347241	-0.049389
H295	H	0.065086	0.310163	0.076185
H296	H	-0.218037	0.364356	0.049077
H297	H	-0.396704	0.561067	-0.049346
H298	H	0.223360	0.561108	-0.049388
H299	H	-0.007283	0.615305	-0.076467
C300	C	0.026684	0.294666	0.083943
N301	N	0.067477	0.249743	0.106419
H302	H	-0.220281	0.615286	-0.076466
C303	C	-0.066234	0.294669	0.083947
N304	N	-0.062106	0.249757	0.106422
H305	H	0.386227	0.615309	-0.602709
C306	C	0.405579	0.576576	-0.333646
N307	N	0.383106	0.621501	-0.374441
H308	H	-0.140022	0.615290	-0.076472
C309	C	0.546594	0.294672	-0.396160
N310	N	0.569064	0.249748	-0.392008
C311	C	0.378478	0.630792	-0.471399
N312	N	0.356016	0.675715	-0.475549
H313	H	0.413336	0.561112	-0.859416
C314	C	0.546592	0.294671	-0.303253
N315	N	0.569058	0.249748	-0.262457
C316	C	0.519464	0.348869	-0.219754
N317	N	0.541936	0.303950	-0.215611
C318	C	0.378488	0.630799	-0.697054
N319	N	0.356031	0.675712	-0.737858
C320	C	0.378465	0.630799	-0.564304
N321	N	0.355981	0.675725	-0.605098
H322	H	0.511708	0.364360	-0.140902
H323	H	0.511712	0.364401	-0.761007
C324	C	0.546585	0.294689	-0.528913
N325	N	0.569057	0.249768	-0.524766
H326	H	0.538834	0.310178	-0.450078
