data_functionalizedCrystal
_audit_creation_method	'MofGen! by Chris Wilmer'
_symmetry_space_group_name_H-M	'P1'
_symmetry_Int_Tables_number	1
_symmetry_cell_setting	triclinic
loop_
_symmetry_equiv_pos_as_xyz
  x,y,z
_cell_length_a	14.044220
_cell_length_b	12.503567
_cell_length_c	8.559649
_cell_angle_alpha	93.025499
_cell_angle_beta	81.483771
_cell_angle_gamma	86.159795
loop_
_atom_site_label
_atom_site_type_symbol
_atom_site_fract_x
_atom_site_fract_y
_atom_site_fract_z
O1	O	1.236026	-0.089199	0.372906
O2	O	0.961060	-0.089227	0.359145
O3	O	1.122768	-0.089210	0.136877
O4	O	1.074319	-0.089217	0.595174
O5	O	1.110592	0.089432	0.153610
O6	O	0.948884	0.089414	0.375879
O7	O	1.223850	0.089442	0.389639
Cu8	Cu	1.085255	0.105739	0.384287
Cu9	Cu	1.099655	-0.105525	0.364498
O10	O	1.062142	0.089425	0.611908
C11	C	0.920096	0.000090	0.361489
C12	C	0.816179	0.000080	0.343524
C13	C	1.120352	0.000109	0.086237
C14	C	1.131281	0.000104	-0.089586
N15	N	1.075134	0.254331	0.398206
C16	C	0.625907	0.000101	0.310685
C17	C	0.558999	0.000104	0.438092
C18	C	0.453125	0.000116	0.419819
C19	C	0.731791	0.000089	0.328955
C20	C	1.264814	0.000122	0.387295
C21	C	1.368732	0.000126	0.405259
C22	C	1.124662	0.526769	0.330105
C23	C	1.060254	0.473439	0.418681
C24	C	1.068535	0.351516	0.407286
C25	C	1.116382	0.648703	0.341499
N26	N	1.109778	0.745884	0.350586
C27	C	1.064559	0.000103	0.662547
C28	C	1.053630	0.000101	0.838370
H29	H	0.581231	0.000097	0.560891
O30	O	0.596461	0.000107	0.148033
H31	H	0.661805	0.000109	0.057509
H32	H	0.998893	0.519348	0.503073
O33	O	1.205925	0.465972	0.218289
H34	H	1.199752	0.378363	0.226766
O35	O	1.230429	0.000122	-0.186045
H36	H	1.223747	0.000122	-0.313639
H37	H	0.978788	0.000097	-0.088801
