data_functionalizedCrystal
_audit_creation_method	'MofGen! by Chris Wilmer'
_symmetry_space_group_name_H-M	'P1'
_symmetry_Int_Tables_number	1
_symmetry_cell_setting	triclinic
loop_
_symmetry_equiv_pos_as_xyz
  x,y,z
_cell_length_a	11.169417
_cell_length_b	18.050590
_cell_length_c	11.169417
_cell_angle_alpha	90.011088
_cell_angle_beta	90.003400
_cell_angle_gamma	90.019802
loop_
_atom_site_label
_atom_site_type_symbol
_atom_site_fract_x
_atom_site_fract_y
_atom_site_fract_z
Zn1	Zn	1.834703	-0.295772	0.678485
Zn2	Zn	2.334703	0.204228	1.178485
Zn3	Zn	1.834620	-0.419928	0.477782
Zn4	Zn	2.334620	0.080072	0.977782
Zn5	Zn	1.634045	-0.295759	0.477821
Zn6	Zn	2.134045	0.204241	0.977821
Zn7	Zn	1.633968	-0.419927	0.678428
Zn8	Zn	2.133968	0.080073	1.178428
O9	O	1.734334	-0.357847	0.578129
O10	O	2.234334	0.142153	1.078129
O11	O	2.002642	-0.312247	0.651869
O12	O	2.502642	0.187753	1.151869
O13	O	1.808011	-0.403453	0.309838
O14	O	2.308011	0.096547	0.809838
O15	O	1.660730	-0.191836	0.504479
O16	O	2.160730	0.308164	1.004479
O17	O	2.002581	-0.403464	0.504414
O18	O	2.502581	0.096536	1.004414
O19	O	1.808152	-0.191845	0.651906
O20	O	2.308152	0.308155	1.151906
O21	O	1.660650	-0.312226	0.309866
O22	O	2.160650	0.187774	0.809866
O23	O	1.466085	-0.312225	0.504424
O24	O	1.966085	0.187775	1.004424
O25	O	1.660598	-0.403462	0.846385
O26	O	2.160598	0.096538	1.346385
O27	O	1.466028	-0.403450	0.651809
O28	O	1.966028	0.096550	1.151809
O29	O	1.808077	-0.312246	0.846427
O30	O	2.308077	0.187754	1.346427
O31	O	1.807936	-0.523853	0.504359
O32	O	2.307936	-0.023853	1.004359
O33	O	1.660517	-0.523852	0.651772
O34	O	2.160517	-0.023852	1.151772
C35	C	1.422509	-0.357837	0.578115
C36	C	1.922509	0.142163	1.078115
C37	C	1.289109	-0.357850	0.578138
C38	C	1.789109	0.142150	1.078138
C39	C	1.734242	-0.550799	0.578081
C40	C	2.234242	-0.050799	1.078081
C41	C	1.734312	-0.633345	0.578101
C42	C	2.234312	-0.133345	1.078101
C43	C	1.814645	-0.832769	0.498049
C44	C	2.314645	-0.332769	0.998049
C45	C	1.843938	-0.882121	0.607585
C46	C	2.343938	-0.382121	1.107585
C47	C	1.734380	-0.784475	0.578149
C48	C	2.234380	-0.284475	1.078149
C49	C	1.705209	-0.882204	0.468662
C50	C	2.205209	-0.382204	0.968662
C51	C	1.734448	-0.930460	0.578185
C52	C	2.234448	-0.430460	1.078185
C53	C	1.763730	-0.832740	0.687742
C54	C	2.263730	-0.332740	1.187742
C55	C	1.624950	-0.832818	0.548745
C56	C	2.124950	-0.332818	1.048745
C57	C	1.654201	-0.882149	0.658357
C58	C	2.154201	-0.382149	1.158357
C59	C	1.734344	-0.700377	0.578126
C60	C	2.234344	-0.200377	1.078126
C61	C	1.734484	-1.014556	0.578220
C62	C	2.234484	-0.514556	1.078220
C63	C	2.047376	-0.357857	0.578144
C64	C	2.547376	0.142143	1.078144
C65	C	2.180776	-0.357862	0.578150
C66	C	2.680776	0.142138	1.078150
C67	C	1.734338	-0.357855	0.891171
C68	C	2.234338	0.142145	1.391171
C69	C	1.734340	-0.357859	1.024571
C70	C	2.234340	0.142141	1.524571
C71	C	1.734459	-0.164141	0.578203
C72	C	2.234459	0.335859	1.078203
C73	C	1.734513	-0.081595	0.578235
C74	C	2.234513	0.418405	1.078235
C75	C	1.734325	-0.357857	1.266304
C76	C	2.234325	0.142143	1.766304
C77	C	1.734335	-0.357862	1.132904
C78	C	2.234335	0.142138	1.632904
H79	H	1.882545	-0.811087	0.430382
H80	H	2.382545	-0.311087	0.930382
H81	H	1.680508	-0.903931	0.376056
H82	H	2.180508	-0.403931	0.876056
H83	H	1.788339	-0.811105	0.780428
H84	H	2.288339	-0.311105	1.280428
H85	H	1.936510	-0.903780	0.632478
H86	H	2.436510	-0.403780	1.132478
N87	N	1.564309	-0.910679	0.748192
N88	N	2.064309	-0.410679	1.248192
H89	H	1.586518	-0.892582	0.830834
H90	H	2.086518	-0.392582	1.330834
H91	H	1.564349	-0.966627	0.747135
H92	H	2.064349	-0.466627	1.247135
H93	H	1.532404	-0.811144	0.523820
H94	H	2.032404	-0.311144	1.023820
