data_functionalizedCrystal
_audit_creation_method	'MofGen! by Chris Wilmer'
_symmetry_space_group_name_H-M	'P1'
_symmetry_Int_Tables_number	1
_symmetry_cell_setting	triclinic
loop_
_symmetry_equiv_pos_as_xyz
  x,y,z
_cell_length_a	10.685904
_cell_length_b	12.827892
_cell_length_c	10.686551
_cell_angle_alpha	94.405267
_cell_angle_beta	98.408451
_cell_angle_gamma	94.382399
loop_
_atom_site_label
_atom_site_type_symbol
_atom_site_fract_x
_atom_site_fract_y
_atom_site_fract_z
Zn1	Zn	1.995802	-0.234221	0.866714
Zn2	Zn	2.495802	0.265779	1.366714
Zn3	Zn	1.979378	-0.423535	0.654453
Zn4	Zn	2.479378	0.076465	1.154453
Zn5	Zn	1.767227	-0.263307	0.638178
Zn6	Zn	2.267227	0.236693	1.138178
Zn7	Zn	1.783500	-0.423434	0.850362
Zn8	Zn	2.283500	0.076566	1.350362
O9	O	1.881476	-0.336124	0.752427
O10	O	2.381476	0.163876	1.252427
O11	O	2.171258	-0.247204	0.852211
O12	O	2.671258	0.252796	1.352211
O13	O	1.937551	-0.414495	0.474662
O14	O	2.437551	0.085505	0.974662
O15	O	1.797611	-0.113207	0.668526
O16	O	2.297611	0.386793	1.168526
O17	O	2.159191	-0.386292	0.696264
O18	O	2.659191	0.113708	1.196264
O19	O	1.965544	-0.091837	0.836430
O20	O	2.465544	0.408163	1.336430
O21	O	1.781685	-0.296776	0.462705
O22	O	2.281685	0.203224	0.962705
O23	O	1.591750	-0.296679	0.652670
O24	O	2.091750	0.203321	1.152670
O25	O	1.825346	-0.386120	1.030163
O26	O	2.325346	0.113880	1.530163
O27	O	1.603706	-0.414323	0.808561
O28	O	2.103706	0.085677	1.308561
O29	O	1.981323	-0.247106	1.042177
O30	O	2.481323	0.252894	1.542177
O31	O	1.953330	-0.569764	0.680408
O32	O	2.453330	-0.069764	1.180408
O33	O	1.809420	-0.569689	0.824342
O34	O	2.309420	-0.069689	1.324342
C35	C	1.551670	-0.358647	0.727076
C36	C	2.051670	0.141353	1.227076
C37	C	1.410579	-0.368305	0.716261
C38	C	1.910579	0.131695	1.216261
C39	C	1.881395	-0.607641	0.752397
C40	C	2.381395	-0.107641	1.252397
C41	C	1.881480	-0.723786	0.752436
C42	C	2.381480	-0.223786	1.252436
C43	C	1.964550	-0.764911	0.835587
C44	C	2.464550	-0.264911	1.335587
C45	C	1.964639	-0.884953	0.835629
C46	C	2.464639	-0.384953	1.335629
C47	C	2.212571	-0.313514	0.777877
C48	C	2.712571	0.186486	1.277877
C49	C	2.353664	-0.303880	0.788722
C50	C	2.853664	0.196120	1.288722
C51	C	1.906982	-0.313357	1.083516
C52	C	2.406982	0.186643	1.583516
C53	C	1.917851	-0.303655	1.224606
C54	C	2.417851	0.196345	1.724606
C55	C	1.881595	-0.063543	0.752487
C56	C	2.381595	0.436457	1.252487
C57	C	1.881645	0.052615	0.752512
C58	C	2.381645	0.552615	1.252512
C59	C	1.856143	-0.358723	0.422631
C60	C	2.356143	0.141277	0.922631
C61	C	1.845520	-0.368113	0.281560
C62	C	2.345520	0.131887	0.781560
H63	H	1.412882	-0.241328	0.859031
H64	H	1.912882	0.258672	1.359031
H65	H	1.988101	-0.241047	1.283791
H66	H	2.488101	0.258953	1.783791
O67	O	1.332161	-0.451156	0.623121
O68	O	1.832161	0.048844	1.123121
H69	H	1.229933	-0.445997	0.628964
H70	H	1.729933	0.054003	1.128964
H71	H	2.035762	-0.920360	0.906813
H72	H	2.535762	-0.420360	1.406813
H73	H	2.035599	-0.711251	0.906750
H74	H	2.535599	-0.211251	1.406750
H75	H	1.775284	-0.430724	1.222383
H76	H	2.275284	0.069276	1.722383
O77	O	1.787431	-0.900509	0.658196
O78	O	2.287431	-0.400509	1.158196
H79	H	1.727186	-0.851324	0.710025
H80	H	2.227186	-0.351324	1.210025
O81	O	1.787365	-0.794866	0.658173
O82	O	2.287365	-0.294866	1.158173
H83	H	1.689348	-0.779375	0.672173
H84	H	2.189348	-0.279375	1.172173
