data_functionalizedCrystal
_audit_creation_method	'MofGen! by Chris Wilmer'
_symmetry_space_group_name_H-M	'P1'
_symmetry_Int_Tables_number	1
_symmetry_cell_setting	triclinic
loop_
_symmetry_equiv_pos_as_xyz
  x,y,z
_cell_length_a	9.065218
_cell_length_b	9.130313
_cell_length_c	9.065215
_cell_angle_alpha	90.000333
_cell_angle_beta	94.984675
_cell_angle_gamma	89.997561
loop_
_atom_site_label
_atom_site_type_symbol
_atom_site_fract_x
_atom_site_fract_y
_atom_site_fract_z
O1	O	-1.960391	0.121871	0.216352
O2	O	-1.531106	0.121857	0.234098
O3	O	-1.754624	0.121858	0.010582
O4	O	-1.736873	0.121870	0.439867
O5	O	-1.754621	-0.121741	0.010588
O6	O	-1.531103	-0.121742	0.234104
O7	O	-1.960388	-0.121728	0.216358
Cu8	Cu	-1.745745	-0.143977	0.225231
Cu9	Cu	-1.745748	0.144107	0.225224
O10	O	-1.736870	-0.121729	0.439873
C11	C	-1.476118	0.000056	0.232395
C12	C	-1.312275	0.000051	0.227296
N13	N	-1.745754	-0.346600	0.225236
C14	C	-1.844753	-0.423251	0.126297
C15	C	-1.844749	-0.576588	0.126279
C16	C	-1.646741	-0.576608	0.324152
C17	C	-1.646739	-0.423274	0.324161
C18	C	-1.943768	-0.346577	0.027371
C19	C	-2.042777	-0.423228	-0.071574
C20	C	-2.042772	-0.576565	-0.071592
C21	C	-1.943760	-0.653250	0.027336
C22	C	-1.015376	0.000068	0.218060
C23	C	-1.179219	0.000055	0.223159
C24	C	-1.752917	0.000060	-0.044402
C25	C	-1.747819	0.000065	-0.208245
N26	N	-1.745751	0.346729	0.225208
C27	C	-1.738576	0.000073	0.494857
C28	C	-1.743674	0.000078	0.658700
H29	H	-2.123382	-0.360784	-0.152126
C30	C	-2.151672	-0.660879	-0.180427
H31	H	-2.210643	-0.593249	-0.239330
H32	H	-2.097787	-0.720693	-0.242603
H33	H	-2.213799	-0.720694	-0.126479
C34	C	-1.943745	-0.821918	0.027315
H35	H	-1.870597	-0.856605	0.100398
H36	H	-2.038315	-0.856611	0.048819
H37	H	-1.922285	-0.856591	-0.067287
C38	C	-1.537842	-0.338945	0.432985
H39	H	-1.552012	-0.236644	0.418807
H40	H	-1.555162	-0.364070	0.531692
H41	H	-1.439154	-0.364080	0.415564
C42	C	-1.943774	-0.177912	0.027395
H43	H	-1.870638	-0.143242	0.100496
H44	H	-1.922341	-0.143206	-0.067193
H45	H	-2.038351	-0.143235	0.048932
H46	H	-1.566130	-0.639055	0.404696
