data_functionalizedCrystal
_audit_creation_method	'MofGen! by Chris Wilmer'
_symmetry_space_group_name_H-M	'P1'
_symmetry_Int_Tables_number	1
_symmetry_cell_setting	triclinic
loop_
_symmetry_equiv_pos_as_xyz
  x,y,z
_cell_length_a	10.489746
_cell_length_b	10.489716
_cell_length_c	12.503572
_cell_angle_alpha	93.562900
_cell_angle_beta	86.448520
_cell_angle_gamma	84.535218
loop_
_atom_site_label
_atom_site_type_symbol
_atom_site_fract_x
_atom_site_fract_y
_atom_site_fract_z
O1	O	1.701316	0.172696	-0.089238
O2	O	1.330121	0.189581	-0.089255
O3	O	1.524181	-0.004461	-0.089250
O4	O	1.507255	0.366739	-0.089243
O5	O	1.509587	0.010156	0.089392
O6	O	1.315527	0.204199	0.089387
O7	O	1.686722	0.187314	0.089404
Cu8	Cu	1.499792	0.197091	0.105707
Cu9	Cu	1.517051	0.179804	-0.105558
O10	O	1.492661	0.381356	0.089399
C11	C	1.275293	0.195613	0.000064
C12	C	1.133664	0.191792	0.000057
C13	C	1.515613	-0.044685	0.000068
C14	C	1.511809	-0.186317	0.000058
C15	C	0.980817	0.066069	0.000069
C16	C	1.051009	0.136133	0.088147
C17	C	1.065354	0.121751	-0.087979
C18	C	0.951500	0.255123	0.088233
C19	C	0.965846	0.240717	-0.087972
C20	C	1.035987	0.310870	0.000127
C21	C	1.630812	-0.283987	0.000073
C22	C	1.575123	-0.368556	-0.088007
C23	C	1.560707	-0.354109	0.088120
C24	C	1.456176	-0.269026	-0.088095
C25	C	1.441771	-0.254567	0.088111
C26	C	1.385996	-0.339089	0.000010
C27	C	1.741550	0.181282	0.000083
C28	C	1.883179	0.185102	0.000083
C29	C	1.501230	0.421580	0.000079
C30	C	1.505034	0.563211	0.000082
N31	N	1.487662	0.209249	0.254298
N32	N	1.529191	0.167636	-0.254150
C33	C	1.469818	0.227145	0.473413
C34	C	1.547031	0.149745	0.526742
C35	C	1.537102	0.159702	0.648665
C36	C	1.479745	0.217189	0.351479
H37	H	0.956098	-0.037427	0.000156
N38	N	1.097952	0.080764	0.181560
N39	N	1.153381	0.146788	0.247491
H40	H	1.186532	0.107679	0.313463
H41	H	1.114884	0.065386	-0.162444
H42	H	1.604885	-0.391487	0.162582
N43	N	1.639378	0.057282	0.469174
N44	N	1.712014	-0.015458	0.519245
H45	H	1.777252	-0.080740	0.478584
H46	H	1.412057	-0.231823	-0.162642
H47	H	1.385495	-0.204957	0.162575
N48	N	1.760679	-0.253048	-0.000038
N49	N	1.839736	-0.295428	-0.075782
H50	H	1.931454	-0.273577	-0.075866
H51	H	0.902126	0.311438	0.162782
H52	H	1.060450	0.414455	0.000177
N53	N	1.377546	0.319641	0.531014
N54	N	1.369515	0.327698	0.631412
H55	H	1.304351	0.393024	0.672105
H56	H	1.631443	-0.418143	-0.162469
N57	N	0.918912	0.296048	-0.181396
N58	N	0.958493	0.247950	-0.272789
H59	H	0.925348	0.287018	-0.338779
H60	H	1.282409	-0.363525	-0.000043
