data_functionalizedCrystal
_audit_creation_method	'MofGen! by Chris Wilmer'
_symmetry_space_group_name_H-M	'P1'
_symmetry_Int_Tables_number	1
_symmetry_cell_setting	triclinic
loop_
_symmetry_equiv_pos_as_xyz
  x,y,z
_cell_length_a	16.120530
_cell_length_b	14.908520
_cell_length_c	14.908694
_cell_angle_alpha	83.255478
_cell_angle_beta	83.963005
_cell_angle_gamma	89.416769
loop_
_atom_site_label
_atom_site_type_symbol
_atom_site_fract_x
_atom_site_fract_y
_atom_site_fract_z
Zn1	Zn	1.282142	0.464621	-0.607157
Zn2	Zn	1.782142	0.964621	-0.107157
Zn3	Zn	1.266834	0.606374	-0.463635
Zn4	Zn	1.766834	1.106374	0.036365
Zn5	Zn	1.135122	0.447353	-0.447261
Zn6	Zn	1.635122	0.947353	0.052739
Zn7	Zn	1.135087	0.607366	-0.607282
Zn8	Zn	1.635087	1.107366	-0.107282
O9	O	1.204796	0.531428	-0.531334
O10	O	1.704796	1.031428	-0.031334
O11	O	1.396777	0.490237	-0.594919
O12	O	1.896777	0.990237	-0.094919
O13	O	1.242971	0.577638	-0.334429
O14	O	1.742971	1.077638	0.165571
O15	O	1.161046	0.323353	-0.461566
O16	O	1.661046	0.823353	0.038434
O17	O	1.385530	0.594382	-0.489474
O18	O	1.885530	1.094382	0.010526
O19	O	1.269061	0.336040	-0.579042
O20	O	1.769061	0.836040	-0.079042
O21	O	1.146203	0.460806	-0.322399
O22	O	1.646203	0.960806	0.177601
O23	O	1.018453	0.461767	-0.461688
O24	O	1.518453	0.961767	0.038312
O25	O	1.160985	0.596072	-0.734300
O26	O	1.660985	1.096072	-0.234300
O27	O	1.018426	0.579328	-0.579255
O28	O	1.518426	1.079328	-0.079255
O29	O	1.269026	0.491198	-0.734208
O30	O	1.769026	0.991198	-0.234208
O31	O	1.242936	0.732796	-0.489596
O32	O	1.742936	1.232796	0.010404
O33	O	1.146142	0.733524	-0.595132
O34	O	1.646142	1.233524	-0.095132
C35	C	1.192898	0.765908	-0.544175
C36	C	1.692898	1.265908	-0.044175
C37	C	1.187886	0.866226	-0.549704
C38	C	1.687886	1.366226	-0.049704
C39	C	0.988189	0.518782	-0.518708
C40	C	1.488189	1.018782	-0.018708
C41	C	0.895524	0.513394	-0.513330
C42	C	1.395524	1.013394	-0.013330
C43	C	1.216710	0.545672	-0.768113
C44	C	1.716710	1.045672	-0.268113
C45	C	1.221786	0.551741	-0.869014
C46	C	1.721786	1.051741	-0.369014
C47	C	0.725865	0.503538	-0.503517
C48	C	1.225865	1.003538	-0.003517
C49	C	0.684568	0.559389	-0.559221
C50	C	1.184568	1.059389	-0.059221
C51	C	0.590164	0.553905	-0.553761
C52	C	1.090164	1.053905	-0.053761
C53	C	0.820278	0.509021	-0.508976
C54	C	1.320278	1.009021	-0.008976
C55	C	1.422249	0.544125	-0.544009
C56	C	1.922249	1.044125	-0.044009
C57	C	1.514915	0.549536	-0.549411
C58	C	2.014915	1.049536	-0.049411
C59	C	1.216765	0.296035	-0.518464
C60	C	1.716765	0.796035	-0.018464
C61	C	1.221865	0.195725	-0.512979
C62	C	1.721865	0.695725	-0.012979
C63	C	1.279373	1.053927	-0.450297
C64	C	1.779373	1.553927	0.049703
C65	C	1.274666	1.148184	-0.455489
C66	C	1.774666	1.648184	0.044511
C67	C	1.173770	1.149001	-0.565283
C68	C	1.673770	1.649001	-0.065283
C69	C	1.178477	1.054744	-0.560092
C70	C	1.678477	1.554744	-0.060092
C71	C	1.231279	1.007210	-0.502596
C72	C	1.731279	1.507210	-0.002596
C73	C	1.235981	0.912950	-0.497400
C74	C	1.735981	1.412950	0.002600
C75	C	1.135090	0.913769	-0.607198
C76	C	1.635090	1.413769	-0.107198
C77	C	1.130383	1.008026	-0.612390
C78	C	1.630383	1.508026	-0.112390
C79	C	1.130541	0.441490	-1.046092
C80	C	1.630541	0.941490	-0.546092
C81	C	1.135309	0.447190	-1.140897
C82	C	1.635309	0.947190	-0.640897
C83	C	1.236083	0.568844	-1.153432
C84	C	1.736083	1.068844	-0.653432
C85	C	1.231316	0.563144	-1.058626
C86	C	1.731316	1.063144	-0.558626
C87	C	1.178544	0.499464	-1.004959
C88	C	1.678544	0.999464	-0.504959
C89	C	1.173782	0.493761	-0.910153
C90	C	1.673782	0.993761	-0.410153
C91	C	1.274551	0.615419	-0.922689
C92	C	1.774551	1.115419	-0.422689
C93	C	1.279318	0.621119	-1.017494
C94	C	1.779318	1.121119	-0.517494
C95	C	1.192981	0.517178	-0.295475
C96	C	1.692981	1.017178	0.204525
C97	C	1.188079	0.510864	-0.194570
C98	C	1.688079	1.010864	0.305430
H99	H	0.720114	0.611323	-0.611013
H100	H	1.220114	1.111323	-0.111013
H101	H	1.322361	1.015223	-0.403475
H102	H	1.822361	1.515223	0.096525
H103	H	1.279035	0.620701	-1.197143
H104	H	1.779035	1.120701	-0.697143
H105	H	0.690322	0.451608	-0.451730
H106	H	1.190322	0.951608	0.048270
H107	H	1.130816	0.441906	-0.866458
H108	H	1.630816	0.941906	-0.366458
H109	H	1.278973	0.874248	-0.450581
H110	H	1.778973	1.374248	0.049419
Br111	Br	1.339943	1.211585	-0.384514
Br112	Br	1.839943	1.711585	0.115486
Br113	Br	1.102130	1.213528	-0.643323
Br114	Br	1.602130	1.713528	-0.143323
Br115	Br	1.058731	1.072545	-0.690422
Br116	Br	1.558731	1.572545	-0.190422
Br117	Br	1.070154	0.368513	-1.196717
Br118	Br	1.570154	0.868513	-0.696717
H119	H	1.095926	0.875721	-0.649781
H120	H	1.595926	1.375721	-0.149781
H121	H	1.322280	0.672968	-1.061203
H122	H	1.822280	1.172968	-0.561203
H123	H	1.087581	0.389632	-1.002395
H124	H	1.587581	0.889632	-0.502395
Br125	Br	1.339706	0.694099	-0.866863
Br126	Br	1.839706	1.194099	-0.366863
