data_functionalizedCrystal
_audit_creation_method	'MofGen! by Chris Wilmer'
_symmetry_space_group_name_H-M	'P1'
_symmetry_Int_Tables_number	1
_symmetry_cell_setting	triclinic
loop_
_symmetry_equiv_pos_as_xyz
  x,y,z
_cell_length_a	14.472310
_cell_length_b	16.109301
_cell_length_c	16.109301
_cell_angle_alpha	83.461481
_cell_angle_beta	90.002494
_cell_angle_gamma	90.010306
loop_
_atom_site_label
_atom_site_type_symbol
_atom_site_fract_x
_atom_site_fract_y
_atom_site_fract_z
O1	O	-0.076785	-1.103143	-0.106861
O2	O	-0.076801	-0.861081	-0.120161
O3	O	-0.076783	-0.988761	0.007520
O4	O	-0.076803	-0.975462	-0.234542
O5	O	0.076899	-0.988729	0.007512
O6	O	0.076881	-0.861048	-0.120168
O7	O	0.076897	-1.103110	-0.106869
Cu8	Cu	0.090921	-0.982076	-0.113519
Cu9	Cu	-0.090825	-0.982115	-0.113510
O10	O	0.076879	-0.975429	-0.234550
C11	C	0.000039	-0.830090	-0.119626
C12	C	0.000033	-0.737794	-0.118011
N13	N	0.218752	-0.982055	-0.113525
N14	N	-0.218656	-0.982143	-0.113498
C15	C	0.592844	-0.982114	-0.113507
C16	C	0.553668	-0.913565	-0.181597
C17	C	0.446580	-0.913723	-0.181846
C18	C	0.407252	-0.982084	-0.113516
C19	C	0.446093	-1.068828	-0.132440
C20	C	0.553215	-1.068443	-0.132924
C21	C	0.553379	-0.964692	-0.026291
C22	C	0.446251	-0.962702	-0.026873
C23	C	0.302364	-0.982072	-0.113519
C24	C	0.697732	-0.982131	-0.113506
C25	C	0.000058	-0.988206	0.038491
C26	C	0.000059	-0.986591	0.130786
C27	C	0.000055	-1.134101	-0.107404
C28	C	0.000055	-1.226397	-0.109019
C29	C	0.000038	-0.515522	-0.190018
C30	C	0.000044	-0.428801	-0.188494
C31	C	0.000053	-0.448676	-0.037006
C32	C	0.000053	-0.535394	-0.038530
C33	C	0.000041	-0.568815	-0.115039
C34	C	0.000047	-0.395376	-0.111990
C35	C	0.000053	-0.301350	-0.110337
C36	C	0.000036	-0.662847	-0.116693
C37	C	0.000036	-0.975984	-0.265521
C38	C	0.000028	-0.977600	-0.357816
C39	C	0.000049	-1.058599	0.353059
C40	C	0.000042	-1.057075	0.439779
C41	C	0.000036	-0.905586	0.419905
C42	C	0.000037	-0.907111	0.333186
C43	C	0.000048	-0.983620	0.299766
C44	C	0.000040	-0.980571	0.473205
C45	C	0.000031	-0.978918	0.567231
C46	C	0.000055	-0.985273	0.205734
H47	H	0.420321	-0.849244	-0.170574
H48	H	0.578186	-1.083799	-0.196529
H49	H	0.579127	-1.121043	-0.085284
H50	H	0.000028	-0.843295	0.447127
H51	H	0.000033	-0.846050	0.289792
Br52	Br	0.000065	-1.162431	0.307705
Br53	Br	0.000044	-0.356477	-0.290256
Br54	Br	0.000038	-1.158837	0.512103
Br55	Br	0.403640	-1.155881	-0.051977
Br56	Br	0.000065	-0.403314	0.066823
H57	H	0.419252	-1.084551	-0.195320
Br58	Br	0.000025	-0.560876	-0.293851
H59	H	0.579453	-0.848877	-0.170512
H60	H	0.580573	-0.924534	-0.245955
Br61	Br	0.403839	-0.932223	-0.289732
H62	H	0.580444	-0.902813	-0.008088
Br63	Br	0.401652	-1.040524	0.061537
Br64	Br	0.403945	-0.856347	-0.002932
H65	H	0.578712	-1.014681	0.024379
H66	H	0.000058	-0.578788	0.022530
