data_functionalizedCrystal
_audit_creation_method	'MofGen! by Chris Wilmer'
_symmetry_space_group_name_H-M	'P1'
_symmetry_Int_Tables_number	1
_symmetry_cell_setting	triclinic
loop_
_symmetry_equiv_pos_as_xyz
  x,y,z
_cell_length_a	6.817900
_cell_length_b	11.168121
_cell_length_c	16.015572
_cell_angle_alpha	76.765931
_cell_angle_beta	104.485554
_cell_angle_gamma	108.508496
loop_
_atom_site_label
_atom_site_type_symbol
_atom_site_fract_x
_atom_site_fract_y
_atom_site_fract_z
V1	V	-3.999072	-0.050929	-0.269395
O2	O	-3.960769	0.129811	-0.264259
O3	O	-3.976115	-0.223478	-0.267560
O4	O	-3.927036	0.005739	-0.386884
O5	O	-4.010187	-0.100993	-0.144109
V6	V	-4.482466	-0.035914	-0.254409
O7	O	-4.260614	-0.083867	-0.302268
O8	O	-4.671122	-0.002977	-0.221536
O9	O	-4.282217	0.136635	-0.256244
O10	O	-4.638166	-0.216654	-0.259545
O11	O	-4.588748	0.014149	-0.379695
O12	O	-4.331295	-0.092583	-0.136920
C13	C	-3.828070	-0.267288	-0.263312
C14	C	-3.890428	-0.407989	-0.262594
C15	C	-4.091383	-0.474945	-0.266372
C16	C	-4.155839	-0.620367	-0.265631
C17	C	-3.765464	0.025102	-0.415521
C18	C	-3.788019	0.070293	-0.511569
C19	C	-4.135798	-0.330821	-0.889218
C20	C	-4.156989	-0.288316	-0.979466
C21	C	-4.047576	-0.068411	-0.954750
C22	C	-4.026364	-0.110897	-0.864498
C23	C	-4.070481	-0.242103	-0.831740
C24	C	-3.961048	-0.022180	-0.807020
C25	C	-3.939849	-0.064663	-0.716776
C26	C	-3.983967	-0.195864	-0.684011
C27	C	-4.049283	-0.284587	-0.741497
C28	C	-3.916947	0.109026	-0.839780
C29	C	-3.851630	0.197743	-0.782302
C30	C	-3.830416	0.155261	-0.692056
C31	C	-3.874533	0.024060	-0.659291
C32	C	-3.765100	0.243983	-0.634571
C33	C	-3.743901	0.201500	-0.544327
C34	C	-3.853335	-0.018424	-0.569047
C35	C	-4.093605	0.180437	-0.260490
C36	C	-4.010484	0.321139	-0.261213
C37	C	-4.156211	-0.111952	-0.108278
C38	C	-4.112894	-0.157137	-0.012230
H39	H	-3.889232	-0.125265	-0.542374
O40	O	-4.004402	0.059077	-0.986463
C41	C	-3.792844	0.119654	-0.952738
H42	H	-3.735299	0.058895	-0.889341
H43	H	-3.780992	0.217877	-0.939276
H44	H	-3.691172	0.131177	-1.002323
H45	H	-4.327987	-0.677934	-0.268855
H46	H	-4.210170	-0.360570	-1.026264
O47	O	-3.805017	-0.610297	-0.257198
C48	C	-3.682501	-0.657238	-0.179244
H49	H	-3.787097	-0.708435	-0.129035
H50	H	-3.552776	-0.574064	-0.152500
H51	H	-3.608557	-0.727171	-0.193158
H52	H	-3.766103	-0.458324	-0.258816
O53	O	-3.963567	-0.236992	-0.596338
C54	C	-4.099588	-0.194970	-0.563582
H55	H	-4.137559	-0.107634	-0.609758
H56	H	-4.019583	-0.168427	-0.496191
H57	H	-4.251609	-0.274867	-0.558309
H58	H	-4.215712	-0.424608	-0.270160
O59	O	-4.178231	-0.458310	-0.857523
C60	C	-4.240046	-0.527504	-0.927595
H61	H	-4.302997	-0.466672	-0.989799
H62	H	-4.368657	-0.619224	-0.912418
H63	H	-4.098473	-0.552569	-0.937232
H64	H	-4.085180	-0.391428	-0.714823
H65	H	-3.934179	0.143613	-0.913263
O66	O	-3.809108	0.325152	-0.814241
C67	C	-3.991189	0.352245	-0.869856
H68	H	-4.099580	0.261781	-0.895493
H69	H	-3.944017	0.429568	-0.927148
H70	H	-4.077202	0.387295	-0.831899
H71	H	-3.729206	0.350812	-0.661257
H72	H	-3.690716	0.273743	-0.497526
