data_functionalizedCrystal
_audit_creation_method	'MofGen! by Chris Wilmer'
_symmetry_space_group_name_H-M	'P1'
_symmetry_Int_Tables_number	1
_symmetry_cell_setting	triclinic
loop_
_symmetry_equiv_pos_as_xyz
  x,y,z
_cell_length_a	21.395362
_cell_length_b	29.839131
_cell_length_c	21.395355
_cell_angle_alpha	89.979828
_cell_angle_beta	89.956060
_cell_angle_gamma	90.057297
loop_
_atom_site_label
_atom_site_type_symbol
_atom_site_fract_x
_atom_site_fract_y
_atom_site_fract_z
Zn1	Zn	0.957813	-0.178715	-0.354578
Zn2	Zn	1.291146	0.154618	-0.021245
Zn3	Zn	1.624480	0.487952	0.312088
Zn4	Zn	0.957696	-0.253830	-0.249798
Zn5	Zn	1.291029	0.079503	0.083536
Zn6	Zn	1.624362	0.412836	0.416869
Zn7	Zn	0.853028	-0.178736	-0.249780
Zn8	Zn	1.186361	0.154597	0.083554
Zn9	Zn	1.519694	0.487931	0.416887
Zn10	Zn	0.852977	-0.253840	-0.354503
Zn11	Zn	1.186311	0.079494	-0.021169
Zn12	Zn	1.519644	0.412827	0.312164
O13	O	0.905378	-0.216280	-0.302165
O14	O	1.238712	0.117053	0.031169
O15	O	1.572045	0.450386	0.364502
O16	O	1.045475	-0.188667	-0.340718
O17	O	1.378809	0.144667	-0.007385
O18	O	1.712142	0.478000	0.325948
O19	O	0.943783	-0.243874	-0.162117
O20	O	1.277117	0.089460	0.171216
O21	O	1.610450	0.422793	0.504549
O22	O	0.866998	-0.115866	-0.263706
O23	O	1.200331	0.217467	0.069628
O24	O	1.533665	0.550801	0.402961
O25	O	1.045389	-0.243853	-0.263737
O26	O	1.378723	0.089480	0.069597
O27	O	1.712056	0.422813	0.402930
O28	O	0.943983	-0.115851	-0.340701
O29	O	1.277316	0.217483	-0.007367
O30	O	1.610650	0.550816	0.325966
O31	O	0.866884	-0.188702	-0.162104
O32	O	1.200218	0.144631	0.171229
O33	O	1.533551	0.477964	0.504563
O34	O	0.765343	-0.188711	-0.263632
O35	O	1.098677	0.144622	0.069701
O36	O	1.432010	0.477955	0.403035
O37	O	0.866912	-0.243869	-0.442191
O38	O	1.200245	0.089464	-0.108857
O39	O	1.533579	0.422797	0.224476
O40	O	0.765306	-0.243889	-0.340571
O41	O	1.098640	0.089444	-0.007238
O42	O	1.431973	0.422777	0.326095
O43	O	0.943934	-0.188676	-0.442246
O44	O	1.277267	0.144658	-0.108913
O45	O	1.610601	0.477991	0.224420
O46	O	0.943735	-0.316699	-0.263663
O47	O	1.277068	0.016635	0.069670
O48	O	1.610401	0.349968	0.403004
O49	O	0.866798	-0.316705	-0.340589
O50	O	1.200132	0.016628	-0.007256
O51	O	1.533465	0.349961	0.326078
C52	C	0.742591	-0.216304	-0.302092
C53	C	1.075924	0.117029	0.031241
C54	C	1.409257	0.450363	0.364575
C55	C	0.672950	-0.216325	-0.302076
C56	C	1.006283	0.117008	0.031258
C57	C	1.339616	0.450342	0.364591
C58	C	0.640233	-0.245094	-0.342078
C59	C	0.973567	0.088239	-0.008745
C60	C	1.306900	0.421572	0.324589
C61	C	0.574798	-0.245083	-0.342106
C62	C	0.908131	0.088250	-0.008773
C63	C	1.241465	0.421583	0.324561
C64	C	0.542081	-0.216308	-0.302120
C65	C	0.875415	0.117026	0.031213
C66	C	1.208748	0.450359	0.364546
C67	C	0.574805	-0.187533	-0.262115
C68	C	0.908138	0.145801	0.071218
C69	C	1.241472	0.479134	0.404552
C70	C	0.640239	-0.187541	-0.262093
C71	C	0.973573	0.145792	0.071241
C72	C	1.306906	0.479125	0.404574
C73	C	0.438357	-0.212688	-0.245715
C74	C	0.771691	0.120645	0.087618
C75	C	1.105024	0.453978	0.420951
C76	C	0.372925	-0.212683	-0.245736
C77	C	0.706258	0.120650	0.087597
C78	C	1.039591	0.453984	0.420930
C79	C	0.340261	-0.216278	-0.302189
C80	C	0.673594	0.117055	0.031144
C81	C	1.006927	0.450388	0.364477
C82	C	0.373038	-0.219889	-0.358623
C83	C	0.706371	0.113445	-0.025290
C84	C	1.039704	0.446778	0.308044
C85	C	0.438472	-0.219897	-0.358601
C86	C	0.771805	0.113436	-0.025267
C87	C	1.105138	0.446769	0.308066
C88	C	0.471129	-0.216295	-0.302140
C89	C	0.804462	0.117039	0.031193
C90	C	1.137796	0.450372	0.364526
C91	C	0.236592	-0.245037	-0.342226
C92	C	0.569925	0.088296	-0.008892
C93	C	0.903259	0.421629	0.324441
C94	C	0.171155	-0.245023	-0.342254
C95	C	0.504489	0.088310	-0.008921
C96	C	0.837822	0.421644	0.324412
C97	C	0.171164	-0.187475	-0.262258
C98	C	0.504497	0.145859	0.071075
C99	C	0.837830	0.479192	0.404409
C100	C	0.236599	-0.187487	-0.262235
C101	C	0.569932	0.145847	0.071099
C102	C	0.903266	0.479180	0.404432
C103	C	0.269309	-0.216270	-0.302218
C104	C	0.602643	0.117063	0.031116
C105	C	0.935976	0.450396	0.364449
C106	C	0.905265	-0.333003	-0.302133
C107	C	1.238599	0.000331	0.031200
C108	C	1.571932	0.333664	0.364533
C109	C	0.905274	-0.382937	-0.302141
C110	C	1.238608	-0.049604	0.031192
C111	C	1.571941	0.283729	0.364526
C112	C	0.945512	-0.692564	-0.262168
C113	C	1.278845	-0.359231	0.071166
C114	C	1.612179	-0.025898	0.404499
C115	C	0.945589	-0.880237	-0.262192
C116	C	1.278923	-0.546904	0.071141
C117	C	1.612256	-0.213571	0.404475
O118	O	0.979711	-0.904488	-0.228181
O119	O	1.313044	-0.571155	0.105152
O120	O	1.646378	-0.237822	0.438485
N121	N	0.905508	-0.903722	-0.302212
N122	N	1.238842	-0.570389	0.031121
N123	N	1.572175	-0.237056	0.364455
C124	C	0.865408	-0.880286	-0.342231
C125	C	1.198742	-0.546953	-0.008898
C126	C	1.532075	-0.213619	0.324435
O127	O	0.831323	-0.904567	-0.376276
O128	O	1.164657	-0.571234	-0.042942
O129	O	1.497990	-0.237901	0.290391
C130	C	0.865334	-0.692614	-0.342210
C131	C	1.198668	-0.359280	-0.008876
C132	C	1.532001	-0.025947	0.324457
C133	C	0.905414	-0.669131	-0.302183
C134	C	1.238747	-0.335798	0.031151
C135	C	1.572080	-0.002465	0.364484
C136	C	0.985588	-0.669082	-0.222145
C137	C	1.318922	-0.335749	0.111189
C138	C	1.652255	-0.002415	0.444522
C139	C	0.985566	-0.622166	-0.222136
C140	C	1.318899	-0.288833	0.111197
C141	C	1.652233	0.044500	0.444530
C142	C	0.945468	-0.598733	-0.262152
C143	C	1.278801	-0.265400	0.071182
C144	C	1.612134	0.067933	0.404515
C145	C	0.905391	-0.622216	-0.302175
C146	C	1.238725	-0.288883	0.031159
C147	C	1.572058	0.044451	0.364492
C148	C	0.825238	-0.669178	-0.382232
C149	C	1.158571	-0.335845	-0.048899
C150	C	1.491905	-0.002512	0.284435
C151	C	0.825224	-0.622257	-0.382224
C152	C	1.158557	-0.288924	-0.048891
C153	C	1.491891	0.044409	0.284443
C154	C	0.865303	-0.598775	-0.342197
C155	C	1.198637	-0.265442	-0.008864
C156	C	1.531970	0.067892	0.324470
C157	C	0.865271	-0.551867	-0.342182
C158	C	1.198604	-0.218534	-0.008848
C159	C	1.531937	0.114799	0.324485
N160	N	0.905352	-0.528383	-0.302162
N161	N	1.238685	-0.195049	0.031171
N162	N	1.572018	0.138284	0.364505
C163	C	0.945450	-0.551816	-0.262147
C164	C	1.278783	-0.218482	0.071187
C165	C	1.612117	0.114851	0.404520
C166	C	0.865449	-0.978816	-0.342239
C167	C	1.198782	-0.645483	-0.008906
C168	C	1.532116	-0.312150	0.324428
C169	C	0.865466	-1.025734	-0.342244
C170	C	1.198800	-0.692401	-0.008910
C171	C	1.532133	-0.359068	0.324423
C172	C	0.945649	-1.025683	-0.262205
C173	C	1.278982	-0.692349	0.071128
C174	C	1.612315	-0.359016	0.404462
C175	C	0.945627	-0.978764	-0.262198
C176	C	1.278961	-0.645431	0.071136
C177	C	1.612294	-0.312097	0.404469
C178	C	0.905530	-0.955332	-0.302219
C179	C	1.238863	-0.621998	0.031114
C180	C	1.572196	-0.288665	0.364447
C181	C	0.945400	-0.453290	-0.262132
C182	C	1.278734	-0.119956	0.071201
C183	C	1.612067	0.213377	0.404534
C184	C	0.945373	-0.406370	-0.262126
C185	C	1.278706	-0.073037	0.071207
C186	C	1.612039	0.260296	0.404541
C187	C	0.865193	-0.406426	-0.342167
C188	C	1.198527	-0.073093	-0.008833
C189	C	1.531860	0.260241	0.324500
C190	C	0.865218	-0.453342	-0.342171
C191	C	1.198551	-0.120008	-0.008838
C192	C	1.531885	0.213325	0.324496
C193	C	0.905327	-0.476772	-0.302152
C194	C	1.238660	-0.143439	0.031181
C195	C	1.571993	0.189894	0.364515
O196	O	0.831172	-0.527587	-0.376180
O197	O	1.164505	-0.194254	-0.042846
O198	O	1.497839	0.139079	0.290487
O199	O	0.979540	-0.527526	-0.228117
O200	O	1.312873	-0.194193	0.105216
O201	O	1.646206	0.139141	0.438549
C202	C	0.945534	-0.739480	-0.262176
C203	C	1.278867	-0.406146	0.071157
C204	C	1.612201	-0.072813	0.404491
C205	C	0.905458	-0.762962	-0.302199
C206	C	1.238791	-0.429629	0.031134
C207	C	1.572125	-0.096296	0.364468
C208	C	0.865359	-0.739529	-0.342214
C209	C	1.198693	-0.406196	-0.008881
C210	C	1.532026	-0.072863	0.324453
C211	C	0.905475	-0.809880	-0.302204
C212	C	1.238809	-0.476547	0.031130
C213	C	1.572142	-0.143213	0.364463
C214	C	0.945574	-0.833313	-0.262189
C215	C	1.278907	-0.499980	0.071145
C216	C	1.612240	-0.166646	0.404478
C217	C	0.985655	-0.809828	-0.222169
C218	C	1.318988	-0.476495	0.111164
C219	C	1.652321	-0.143162	0.444498
C220	C	0.985633	-0.762913	-0.222161
C221	C	1.318966	-0.429579	0.111173
C222	C	1.652299	-0.096246	0.444506
C223	C	0.825278	-0.763014	-0.382234
C224	C	1.158612	-0.429681	-0.048900
C225	C	1.491945	-0.096347	0.284433
C226	C	0.825303	-0.809929	-0.382238
C227	C	1.158637	-0.476596	-0.048905
C228	C	1.491970	-0.143263	0.284429
C229	C	0.865402	-0.833362	-0.342223
C230	C	1.198735	-0.500029	-0.008890
C231	C	1.532069	-0.166696	0.324444
C232	C	1.068802	-0.216257	-0.302238
C233	C	1.402135	0.117077	0.031095
C234	C	1.735468	0.450410	0.364429
C235	C	1.138443	-0.216247	-0.302269
C236	C	1.471776	0.117087	0.031064
C237	C	1.805110	0.450420	0.364397
C238	C	0.905431	-0.216271	-0.465588
C239	C	1.238764	0.117062	-0.132255
C240	C	1.572097	0.450396	0.201079
C241	C	0.905453	-0.216267	-0.535229
C242	C	1.238786	0.117066	-0.201896
C243	C	1.572119	0.450399	0.131437
C244	C	0.905509	-0.099102	-0.302210
C245	C	1.238842	0.234232	0.031124
C246	C	1.572176	0.567565	0.364457
C247	C	0.905565	-0.049167	-0.302229
C248	C	1.238898	0.284166	0.031105
C249	C	1.572231	0.617499	0.364438
C250	C	0.945556	-0.187527	-0.567972
C251	C	1.278890	0.145807	-0.234639
C252	C	1.612223	0.479140	0.098694
C253	C	0.945556	-0.187507	-0.633408
C254	C	1.278889	0.145826	-0.300074
C255	C	1.612222	0.479159	0.033259
C256	C	0.905458	-0.216237	-0.666098
C257	C	1.238791	0.117097	-0.332764
C258	C	1.572124	0.450430	0.000569
C259	C	0.865346	-0.244979	-0.633347
C260	C	1.198679	0.088354	-0.300013
C261	C	1.532013	0.421688	0.033320
C262	C	0.865344	-0.244994	-0.567912
C263	C	1.198677	0.088339	-0.234579
C264	C	1.532010	0.421672	0.098754
C265	C	0.900471	-0.256689	-0.769760
C266	C	1.233804	0.076645	-0.436427
C267	C	1.567138	0.409978	-0.103093
C268	C	0.900478	-0.256674	-0.835193
C269	C	1.233811	0.076659	-0.501860
C270	C	1.567145	0.409993	-0.168526
C271	C	0.905461	-0.216189	-0.867918
C272	C	1.238795	0.117144	-0.534585
C273	C	1.572128	0.450478	-0.201252
C274	C	0.910451	-0.175717	-0.835203
C275	C	1.243785	0.157616	-0.501870
C276	C	1.577118	0.490949	-0.168536
C277	C	0.910449	-0.175733	-0.769769
C278	C	1.243782	0.157601	-0.436436
C279	C	1.577116	0.490934	-0.103102
C280	C	0.905455	-0.216223	-0.737050
C281	C	1.238789	0.117110	-0.403717
C282	C	1.572122	0.450444	-0.070383
C283	C	0.945566	-0.187425	-0.971614
C284	C	1.278900	0.145908	-0.638281
C285	C	1.612233	0.479242	-0.304948
C286	C	0.945561	-0.187405	-1.037051
C287	C	1.278894	0.145928	-0.703718
C288	C	1.612228	0.479262	-0.370384
C289	C	0.865355	-0.244881	-1.036988
C290	C	1.198688	0.088452	-0.703655
C291	C	1.532022	0.421786	-0.370322
C292	C	0.865357	-0.244897	-0.971553
C293	C	1.198690	0.088436	-0.638220
C294	C	1.532024	0.421770	-0.304886
C295	C	0.905466	-0.216170	-0.938870
C296	C	1.238799	0.117164	-0.605536
C297	C	1.572133	0.450497	-0.272203
C298	C	0.905363	-0.216257	-0.139377
C299	C	1.238696	0.117077	0.193956
C300	C	1.572029	0.450410	0.527290
C301	C	0.905462	-0.216134	-0.069736
C302	C	1.238795	0.117199	0.263597
C303	C	1.572129	0.450533	0.596931
H304	H	0.346444	-0.222815	-0.404593
H305	H	0.679777	0.110518	-0.071259
H306	H	1.013111	0.443851	0.262074
H307	H	0.144526	-0.164043	-0.229704
H308	H	0.477860	0.169290	0.103629
H309	H	0.811193	0.502624	0.436963
Cl310	Cl	0.814940	-0.280994	-1.078078
Cl311	Cl	1.148273	0.052339	-0.744745
Cl312	Cl	1.481606	0.385673	-0.411411
H313	H	0.548156	-0.268511	-0.374683
H314	H	0.881489	0.064823	-0.041350
H315	H	1.214822	0.398156	0.291984
H316	H	0.914510	-0.142779	-0.743135
H317	H	1.247843	0.190554	-0.409801
H318	H	1.581177	0.523887	-0.076468
Cl319	Cl	0.996057	-1.055150	-0.211900
Cl320	Cl	1.329390	-0.721816	0.121433
Cl321	Cl	1.662724	-0.388483	0.454767
Cl322	Cl	0.894211	-0.307552	-0.876314
Cl323	Cl	1.227544	0.025781	-0.542981
Cl324	Cl	1.560878	0.359114	-0.209647
Cl325	Cl	0.681352	-0.281277	-0.392345
Cl326	Cl	1.014685	0.052056	-0.059012
Cl327	Cl	1.348018	0.385389	0.274322
H328	H	0.792598	-0.688290	-0.414823
H329	H	1.125932	-0.354956	-0.081490
H330	H	1.459265	-0.021623	0.251844
H331	H	0.832704	-0.268303	-0.944893
H332	H	1.166037	0.065030	-0.611560
H333	H	1.499370	0.398363	-0.278227
H334	H	0.464947	-0.209759	-0.199741
H335	H	0.798280	0.123575	0.133592
H336	H	1.131614	0.456908	0.466925
Cl337	Cl	0.995975	-0.151410	-0.526888
Cl338	Cl	1.329309	0.181924	-0.193555
Cl339	Cl	1.662642	0.515257	0.139778
H340	H	0.263237	-0.164062	-0.229657
H341	H	0.596570	0.169272	0.103676
H342	H	0.929903	0.502605	0.437009
H343	H	0.548163	-0.164102	-0.229560
H344	H	0.881496	0.169231	0.103774
H345	H	1.214830	0.502564	0.437107
H346	H	0.914510	-0.142751	-0.861847
H347	H	1.247844	0.190583	-0.528514
H348	H	1.581177	0.523916	-0.195180
Cl349	Cl	0.681370	-0.151371	-0.211800
Cl350	Cl	1.014704	0.181962	0.121534
Cl351	Cl	1.348037	0.515296	0.454867
Cl352	Cl	0.995985	-0.151309	-0.930524
Cl353	Cl	1.329318	0.182024	-0.597191
Cl354	Cl	1.662651	0.515357	-0.263857
H355	H	0.144519	-0.268450	-0.374833
H356	H	0.477853	0.064884	-0.041500
H357	H	0.811186	0.398217	0.291834
H358	H	0.978010	-0.387252	-0.229529
H359	H	1.311343	-0.053919	0.103804
H360	H	1.644676	0.279414	0.437137
Cl361	Cl	0.774813	-0.592803	-0.432541
Cl362	Cl	1.108147	-0.259469	-0.099208
Cl363	Cl	1.441480	0.073864	0.234126
H364	H	0.346242	-0.209746	-0.199785
H365	H	0.679576	0.123587	0.133548
H366	H	1.012909	0.456921	0.466882
H367	H	0.832544	-0.387340	-0.374745
H368	H	1.165877	-0.054006	-0.041411
H369	H	1.499210	0.279327	0.291922
H370	H	0.832683	-0.268398	-0.541253
H371	H	1.166017	0.064935	-0.207920
H372	H	1.499350	0.398269	0.125413
H373	H	0.465156	-0.222836	-0.404551
H374	H	0.798489	0.110498	-0.071217
H375	H	1.131823	0.443831	0.262116
H376	H	0.978217	-0.163998	-1.063709
H377	H	1.311551	0.169335	-0.730376
H378	H	1.644884	0.502668	-0.397043
Cl379	Cl	0.894224	-0.307590	-0.728626
Cl380	Cl	1.227558	0.025743	-0.395293
Cl381	Cl	1.560891	0.359076	-0.061959
Cl382	Cl	0.814820	-0.482863	-0.392478
Cl383	Cl	1.148153	-0.149530	-0.059145
Cl384	Cl	1.481486	0.183804	0.274188
Cl385	Cl	0.774863	-0.733563	-0.432544
Cl386	Cl	1.108197	-0.400229	-0.099210
Cl387	Cl	1.441530	-0.066896	0.234123
H388	H	0.978062	-0.472362	-0.229546
H389	H	1.311395	-0.139028	0.103787
H390	H	1.644729	0.194305	0.437120
Cl391	Cl	1.036023	-0.733399	-0.171841
Cl392	Cl	1.369357	-0.400066	0.161492
Cl393	Cl	1.702690	-0.066732	0.494826
Cl394	Cl	1.035964	-0.592653	-0.171824
Cl395	Cl	1.369297	-0.259319	0.161510
Cl396	Cl	1.702630	0.074014	0.494843
H397	H	1.018245	-0.688156	-0.189559
H398	H	1.351578	-0.354823	0.143774
H399	H	1.684911	-0.021489	0.477107
Cl400	Cl	0.815072	-1.055249	-0.392558
Cl401	Cl	1.148405	-0.721916	-0.059225
Cl402	Cl	1.481738	-0.388583	0.274109
Cl403	Cl	0.814935	-0.281094	-0.674441
Cl404	Cl	1.148268	0.052239	-0.341108
Cl405	Cl	1.481601	0.385572	-0.007775
H406	H	0.263226	-0.268472	-0.374785
H407	H	0.596559	0.064861	-0.041452
H408	H	0.929893	0.398194	0.291882
Cl409	Cl	0.996015	-0.949248	-0.211877
Cl410	Cl	1.329348	-0.615915	0.121456
Cl411	Cl	1.662682	-0.282581	0.454789
Cl412	Cl	0.815033	-0.949365	-0.392556
Cl413	Cl	1.148367	-0.616032	-0.059222
Cl414	Cl	1.481700	-0.282699	0.274111
Cl415	Cl	0.774912	-0.839444	-0.432563
Cl416	Cl	1.108246	-0.506111	-0.099229
Cl417	Cl	1.441579	-0.172778	0.234104
Cl418	Cl	0.995963	-0.151364	-0.674579
Cl419	Cl	1.329296	0.181969	-0.341246
Cl420	Cl	1.662630	0.515302	-0.007913
Cl421	Cl	1.036062	-0.839296	-0.171864
Cl422	Cl	1.369396	-0.505963	0.161470
Cl423	Cl	1.702729	-0.172629	0.494803
