data_functionalizedCrystal
_audit_creation_method	'MofGen! by Chris Wilmer'
_symmetry_space_group_name_H-M	'P1'
_symmetry_Int_Tables_number	1
_symmetry_cell_setting	triclinic
loop_
_symmetry_equiv_pos_as_xyz
  x,y,z
_cell_length_a	14.908783
_cell_length_b	25.639239
_cell_length_c	14.908308
_cell_angle_alpha	86.738311
_cell_angle_beta	90.211273
_cell_angle_gamma	93.329934
loop_
_atom_site_label
_atom_site_type_symbol
_atom_site_fract_x
_atom_site_fract_y
_atom_site_fract_z
Zn1	Zn	1.345212	-0.182873	0.587804
Zn2	Zn	1.353747	-0.264999	0.437432
Zn3	Zn	1.203526	-0.182307	0.428775
Zn4	Zn	1.194767	-0.275011	0.579052
O5	O	1.274313	-0.226297	0.508266
O6	O	1.472174	-0.189814	0.575142
O7	O	1.341057	-0.249603	0.310461
O8	O	1.222415	-0.109215	0.449910
O9	O	1.478445	-0.250152	0.464665
O10	O	1.326511	-0.109631	0.566748
O11	O	1.230690	-0.188850	0.304101
O12	O	1.076534	-0.198558	0.441424
O13	O	1.207486	-0.267215	0.706036
O14	O	1.070099	-0.266667	0.551832
O15	O	1.318018	-0.199522	0.712465
O16	O	1.332564	-0.339494	0.456179
O17	O	1.215762	-0.346850	0.560227
C18	C	1.040690	-0.233638	0.494740
C19	C	0.940744	-0.236791	0.488975
C20	C	0.746393	-0.179985	0.593357
C21	C	0.652484	-0.182946	0.587943
C22	C	0.659017	-0.245672	0.472729
C23	C	0.752925	-0.242711	0.478143
C24	C	0.796610	-0.209867	0.538460
C25	C	0.890520	-0.206908	0.543878
C26	C	0.897051	-0.269631	0.428659
C27	C	0.803142	-0.272592	0.423245
C28	C	1.274162	-0.362143	0.508213
C29	C	1.274178	-0.420257	0.508226
C30	C	1.213484	-0.675290	0.562425
C31	C	1.213452	-0.620686	0.562412
O32	O	1.161702	-0.595717	0.608455
N33	N	1.274288	-0.589529	0.508279
C34	C	1.335167	-0.612979	0.454162
O35	O	1.386911	-0.581463	0.408118
C36	C	1.335203	-0.667581	0.454180
C37	C	1.274357	-0.698736	0.508310
C38	C	1.152643	-0.706444	0.616550
C39	C	1.152675	-0.761044	0.616561
C40	C	1.213548	-0.784489	0.562446
C41	C	1.274389	-0.753335	0.508321
C42	C	1.396086	-0.691030	0.400069
C43	C	1.396118	-0.745636	0.400092
C44	C	1.335271	-0.776791	0.454221
C45	C	1.335293	-0.831381	0.454217
N46	N	1.274457	-0.862538	0.508349
C47	C	1.213584	-0.839092	0.562464
C48	C	1.335087	-0.498310	0.454130
C49	C	1.335048	-0.443708	0.454107
C50	C	1.213333	-0.451419	0.562358
C51	C	1.213369	-0.506022	0.562376
C52	C	1.274251	-0.529466	0.508263
C53	C	1.213655	-0.953755	0.562482
C54	C	1.213690	-1.008360	0.562486
C55	C	1.335407	-1.000644	0.454238
C56	C	1.335370	-0.946044	0.454231
C57	C	1.274490	-0.922602	0.508360
O58	O	1.387019	-0.856386	0.408200
O59	O	1.161857	-0.870614	0.608510
C60	C	1.508848	-0.218929	0.521845
C61	C	1.608793	-0.215789	0.527632
C62	C	1.260823	-0.234549	0.742787
C63	C	1.255074	-0.238065	0.842726
C64	C	1.274488	-0.089921	0.508339
C65	C	1.274563	-0.031806	0.508371
C66	C	1.287802	-0.218039	0.274660
C67	C	1.293725	-0.214370	0.174731
C68	C	1.359366	-0.174171	1.037219
C69	C	1.353968	-0.177473	1.131121
C70	C	1.238875	-0.247967	1.124433
C71	C	1.244273	-0.244666	1.030531
C72	C	1.304522	-0.207767	0.986928
C73	C	1.309924	-0.204468	0.893024
C74	C	1.194828	-0.274960	0.886338
C75	C	1.189429	-0.278261	0.980240
H76	H	0.767562	-0.299331	0.374134
H77	H	1.140375	-0.308303	1.015755
H78	H	1.150172	-0.302317	0.845381
C79	C	1.425633	-0.133584	0.989252
H80	H	1.457521	-0.114046	1.032653
H81	H	1.466892	-0.151063	0.954874
H82	H	1.393360	-0.110594	0.950645
C83	C	1.146376	-0.425624	0.621891
H84	H	1.110139	-0.451996	0.654131
H85	H	1.178478	-0.404591	0.663074
H86	H	1.109191	-0.404377	0.585185
H87	H	1.164083	-0.934675	0.606560
H88	H	1.398625	-0.150114	1.172065
H89	H	0.926086	-0.180166	0.592992
C90	C	1.402365	-1.026439	0.394716
H91	H	1.438595	-1.000067	0.362469
H92	H	1.439541	-1.047688	0.431420
H93	H	1.370262	-1.047471	0.353524
C94	C	0.597248	-0.150080	0.648335
H95	H	0.636718	-0.130100	0.685036
H96	H	0.562600	-0.127216	0.611903
H97	H	0.558358	-0.172651	0.685342
H98	H	0.781961	-0.153244	0.642473
C99	C	0.610954	-0.281792	0.406381
H100	H	0.547833	-0.279274	0.411023
H101	H	0.629813	-0.271477	0.346880
H102	H	0.625552	-0.316912	0.420320
C103	C	1.146762	-1.042629	0.622033
H104	H	1.155490	-1.078507	0.614288
H105	H	1.156394	-1.035371	0.683212
H106	H	1.087108	-1.035154	0.605321
H107	H	1.384585	-0.418345	0.410019
C108	C	0.952291	-0.302502	0.368270
H109	H	1.014477	-0.296034	0.380129
H110	H	0.936115	-0.338588	0.380434
H111	H	0.940371	-0.293156	0.306989
H112	H	1.163827	-0.531385	0.606458
C113	C	1.085753	-0.795307	0.676115
H114	H	1.049506	-0.773516	0.708344
H115	H	1.048588	-0.816663	0.639439
H116	H	1.117883	-0.816872	0.717321
H117	H	1.384663	-0.517394	0.410057
H118	H	1.103074	-0.687360	0.660621
C119	C	1.463026	-0.656772	0.340533
H120	H	1.499287	-0.678563	0.308322
H121	H	1.430919	-0.635200	0.299325
H122	H	1.500187	-0.635422	0.377231
H123	H	1.445699	-0.764722	0.356028
H124	H	1.384908	-0.920677	0.410144
H125	H	1.358983	-0.174423	0.857524
C126	C	1.172600	-0.288547	1.172407
H127	H	1.177243	-0.285700	1.235534
H128	H	1.113081	-0.282252	1.153522
H129	H	1.186602	-0.322727	1.157773
