data_functionalizedCrystal
_audit_creation_method	'MofGen! by Chris Wilmer'
_symmetry_space_group_name_H-M	'P1'
_symmetry_Int_Tables_number	1
_symmetry_cell_setting	triclinic
loop_
_symmetry_equiv_pos_as_xyz
  x,y,z
_cell_length_a	10.723024
_cell_length_b	14.853567
_cell_length_c	9.198806
_cell_angle_alpha	90.000611
_cell_angle_beta	89.996352
_cell_angle_gamma	84.051400
loop_
_atom_site_label
_atom_site_type_symbol
_atom_site_fract_x
_atom_site_fract_y
_atom_site_fract_z
O1	O	1.655909	0.126445	-0.120870
O2	O	1.292634	0.138549	-0.120873
O3	O	1.483975	0.001318	-0.120876
O4	O	1.464568	0.263675	-0.120867
O5	O	1.483960	0.001318	0.120909
O6	O	1.292619	0.138548	0.120912
O7	O	1.655894	0.126445	0.120915
Cu8	Cu	1.474255	0.132497	0.142991
Cu9	Cu	1.474273	0.132497	-0.142948
O10	O	1.464553	0.263675	0.120918
C11	C	1.246136	0.137668	0.000019
C12	C	1.107608	0.135032	0.000017
C13	C	1.031849	0.211819	0.000018
C14	C	0.888673	0.209097	0.000016
C15	C	1.483088	-0.032275	0.000013
C16	C	1.480453	-0.132373	-0.000000
C17	C	1.355653	-0.545565	0.000026
C18	C	1.582971	-0.565646	0.000029
C19	C	1.585448	-0.471599	0.000020
C20	C	1.473027	-0.414531	0.000017
C21	C	1.358127	-0.451510	0.000022
C22	C	1.700345	-0.434614	0.000029
C23	C	1.702828	-0.340562	0.000022
C24	C	1.590405	-0.283491	0.000009
C25	C	1.475501	-0.320475	0.000013
C26	C	1.363079	-0.263407	0.000009
C27	C	1.248174	-0.300389	0.000003
C28	C	1.245704	-0.394440	0.000009
C29	C	1.592874	-0.189441	0.000003
C30	C	1.365554	-0.169351	0.000005
C31	C	1.702392	0.127326	0.000020
C32	C	1.840919	0.129961	0.000013
C33	C	1.465439	0.297269	0.000026
C34	C	1.468075	0.397366	0.000030
N35	N	1.474251	0.132496	0.344104
N36	N	1.474286	0.132491	-0.344062
C37	C	1.554592	0.074623	0.416300
C38	C	1.554612	0.074619	0.583713
H39	H	1.274005	-0.122892	-0.000004
H40	H	1.072985	0.279574	0.000029
F41	F	1.702610	-0.626384	0.000053
H42	H	1.156641	-0.253912	0.000010
F43	F	1.644526	0.009859	0.664859
F44	F	0.803590	0.295022	0.000008
F45	F	1.123425	-0.433805	-0.000003
F46	F	1.825118	-0.301211	0.000012
H47	H	1.686428	-0.159334	0.000018
F48	F	1.644259	0.009701	0.335099
F49	F	1.384381	0.197262	0.574800
F50	F	1.819983	-0.495353	0.000060
F51	F	0.925995	0.044033	0.000000
F52	F	1.053846	0.046468	0.000023
F53	F	1.233369	-0.584924	0.000007
F54	F	1.384356	0.197253	0.425306
