data_functionalizedCrystal
_audit_creation_method	'MofGen! by Chris Wilmer'
_symmetry_space_group_name_H-M	'P1'
_symmetry_Int_Tables_number	1
_symmetry_cell_setting	triclinic
loop_
_symmetry_equiv_pos_as_xyz
  x,y,z
_cell_length_a	14.908783
_cell_length_b	12.594510
_cell_length_c	14.908520
_cell_angle_alpha	86.740770
_cell_angle_beta	83.208414
_cell_angle_gamma	86.679600
loop_
_atom_site_label
_atom_site_type_symbol
_atom_site_fract_x
_atom_site_fract_y
_atom_site_fract_z
Zn1	Zn	1.363067	-0.713848	0.280515
Zn2	Zn	1.354222	-0.545559	0.431919
Zn3	Zn	1.211689	-0.526154	0.289295
Zn4	Zn	1.202928	-0.713763	0.440560
O5	O	1.282976	-0.624831	0.360572
O6	O	1.488564	-0.699680	0.293308
O7	O	1.335279	-0.394041	0.413057
O8	O	1.239138	-0.542967	0.161462
O9	O	1.482065	-0.576039	0.404544
O10	O	1.350355	-0.680864	0.155011
O11	O	1.230561	-0.379784	0.308272
O12	O	1.083857	-0.542885	0.316651
O13	O	1.224206	-0.862719	0.419272
O14	O	1.077420	-0.680720	0.427786
O15	O	1.341860	-0.862781	0.301687
O16	O	1.326783	-0.575957	0.559734
O17	O	1.215628	-0.699536	0.566083
C18	C	1.047795	-0.609688	0.374110
C19	C	0.947182	-0.603236	0.379923
C20	C	0.764876	-0.720079	0.275174
C21	C	0.670341	-0.714020	0.280633
C22	C	0.663576	-0.585056	0.396294
C23	C	0.758111	-0.591114	0.390835
C24	C	0.808757	-0.658629	0.330274
C25	C	0.903294	-0.664693	0.324821
C26	C	0.896528	-0.535723	0.440476
C27	C	0.801993	-0.529665	0.445935
C28	C	1.283042	-0.902449	0.360464
C29	C	1.283070	-1.020754	0.360418
C30	C	1.347081	-1.090042	0.296458
C31	C	1.265804	-1.154109	0.279061
C32	C	1.364399	-1.167484	0.377750
C33	C	1.201752	-1.083258	0.342981
C34	C	1.300401	-1.096632	0.441705
C35	C	1.219065	-1.160666	0.424342
C36	C	1.519076	-0.640034	0.346983
C37	C	1.619688	-0.646512	0.341192
C38	C	1.269320	-0.639868	0.595750
C39	C	1.263560	-0.646341	0.696356
C40	C	1.282967	-0.348292	0.360611
C41	C	1.283129	-0.229983	0.360392
C42	C	1.296711	-0.609761	0.124474
C43	C	1.302564	-0.603338	0.023863
C44	C	1.368602	-0.529941	0.878725
C45	C	1.363194	-0.536020	0.973253
C46	C	1.247340	-0.664584	0.979940
C47	C	1.252749	-0.658505	0.885412
C48	C	1.313381	-0.591180	0.834808
C49	C	1.318784	-0.585095	0.740279
C50	C	1.202935	-0.713665	0.746968
C51	C	1.197527	-0.719744	0.841496
H52	H	0.806113	-0.775057	0.225867
O53	O	0.952595	-0.730129	0.265943
C54	C	1.010630	-0.669397	0.204257
H55	H	1.022914	-0.591620	0.235296
H56	H	0.978081	-0.651196	0.139273
C57	C	1.086310	-0.828231	0.144607
C58	C	1.101404	-0.732708	0.182732
H59	H	1.142303	-0.867285	0.131326
H60	H	1.047209	-0.869148	0.186164
H61	H	1.059184	-0.813050	0.090458
H62	H	1.128520	-0.747890	0.236886
H63	H	1.140512	-0.691795	0.141184
H64	H	1.417965	-0.475114	0.837523
H65	H	1.148164	-0.774561	0.882710
H66	H	1.408163	-0.486155	1.009006
H67	H	1.197982	-0.719404	1.021158
H68	H	1.251165	-1.179577	0.210308
O69	O	1.149325	-0.773313	0.704406
C70	C	1.167746	-0.882170	0.726256
H71	H	1.198623	-0.891070	0.792848
H72	H	1.217306	-0.917638	0.670303
C73	C	1.041286	-0.930212	0.653964
C74	C	1.079203	-0.941143	0.735757
H75	H	0.986670	-0.966592	0.659821
H76	H	1.028877	-0.856874	0.639240
H77	H	1.082594	-0.959768	0.607345
H78	H	1.037900	-0.911575	0.782372
H79	H	1.091604	-1.014478	0.750490
O80	O	0.627855	-0.773824	0.227076
C81	C	0.692834	-0.834688	0.172439
H82	H	0.758073	-0.844992	0.205626
H83	H	0.706858	-0.792084	0.103079
C84	C	0.576611	-0.932150	0.120862
C85	C	0.656737	-0.944813	0.161627
H86	H	0.554345	-1.000079	0.114188
H87	H	0.532833	-0.891142	0.157669
H88	H	0.588310	-0.896643	0.063066
H89	H	0.645036	-0.980308	0.219426
H90	H	0.700513	-0.985830	0.124829
O91	O	1.119709	-1.039427	0.325505
C92	C	1.081521	-0.979433	0.398860
H93	H	1.137537	-0.954974	0.438059
H94	H	1.032525	-1.029646	0.445459
C95	C	0.961523	-0.909152	0.314947
C96	C	1.030324	-0.879103	0.363087
H97	H	0.929938	-0.847265	0.292882
H98	H	0.987248	-0.949573	0.265527
H99	H	0.920702	-0.950997	0.353787
H100	H	1.071149	-0.837270	0.324244
H101	H	1.004604	-0.838672	0.412500
O102	O	0.614322	-0.519628	0.455210
C103	C	0.556246	-0.580349	0.516863
H104	H	0.584442	-0.666359	0.520893
H105	H	0.486230	-0.577691	0.493003
C106	C	0.514667	-0.428446	0.606048
C107	C	0.549303	-0.534083	0.611003
H108	H	0.510380	-0.399906	0.664117
H109	H	0.553791	-0.387536	0.564509
H110	H	0.456324	-0.426245	0.586161
H111	H	0.607649	-0.536281	0.630879
H112	H	0.510188	-0.574993	0.652548
H113	H	0.760744	-0.474693	0.495239
H114	H	1.164900	-1.191480	0.478423
O115	O	1.318053	-1.066271	0.523663
C116	C	1.403865	-1.109366	0.541696
H117	H	1.446654	-1.127689	0.475302
H118	H	1.395617	-1.185828	0.585929
C119	C	1.398384	-1.005897	0.672874
C120	C	1.450942	-1.028393	0.591327
H121	H	1.427424	-0.955953	0.703492
H122	H	1.340570	-0.976866	0.660728
H123	H	1.391516	-1.069622	0.709724
H124	H	1.457800	-0.964672	0.554474
H125	H	1.508760	-1.057412	0.603468
H126	H	1.368152	-0.530273	0.699078
H127	H	0.932265	-0.485695	0.485350
H128	H	1.433153	-1.204261	0.392418
H129	H	1.401124	-1.059018	0.242345
