data_functionalizedCrystal
_audit_creation_method	'MofGen! by Chris Wilmer'
_symmetry_space_group_name_H-M	'P1'
_symmetry_Int_Tables_number	1
_symmetry_cell_setting	triclinic
loop_
_symmetry_equiv_pos_as_xyz
  x,y,z
_cell_length_a	10.908878
_cell_length_b	10.654550
_cell_length_c	9.130313
_cell_angle_alpha	89.998291
_cell_angle_beta	89.994442
_cell_angle_gamma	72.284847
loop_
_atom_site_label
_atom_site_type_symbol
_atom_site_fract_x
_atom_site_fract_y
_atom_site_fract_z
O1	O	1.702133	-0.193609	-0.121774
O2	O	1.329141	-0.095723	-0.121781
O3	O	1.524213	-0.329269	-0.121772
O4	O	1.507061	0.039938	-0.121783
O5	O	1.524189	-0.329263	0.121827
O6	O	1.329117	-0.095716	0.121817
O7	O	1.702110	-0.193602	0.121825
Cu8	Cu	1.515611	-0.144659	0.144063
Cu9	Cu	1.515639	-0.144666	-0.144020
O10	O	1.507038	0.039944	0.121815
C11	C	1.281369	-0.086572	0.000017
C12	C	1.139059	-0.059329	0.000014
C13	C	1.522942	-0.375790	0.000025
C14	C	1.519174	-0.514414	0.000020
C15	C	1.089165	-0.158733	0.000017
C16	C	0.942081	-0.130578	0.000014
C17	C	1.634029	-0.618867	0.000027
C18	C	1.630481	-0.749117	0.000016
C19	C	1.397213	-0.670446	-0.000001
C20	C	1.400762	-0.540199	-0.000001
C21	C	1.752441	-0.593082	0.000048
C22	C	1.867306	-0.697538	0.000056
C23	C	1.863758	-0.827788	0.000046
C24	C	1.745345	-0.853581	0.000027
C25	C	1.749882	-0.202753	0.000023
C26	C	1.892192	-0.229996	0.000016
C27	C	1.508309	0.086465	0.000014
C28	C	1.512077	0.225089	0.000010
N29	N	1.515601	-0.144656	0.346686
N30	N	1.515660	-0.144681	-0.346643
C31	C	1.594054	-0.084841	0.576666
C32	C	1.594021	-0.084824	0.423330
C33	C	1.437198	-0.204497	0.423387
C34	C	1.437224	-0.204505	0.576721
C35	C	1.672489	-0.025017	0.653302
C36	C	1.750890	0.034827	0.576611
C37	C	1.750858	0.034844	0.423275
C38	C	1.672424	-0.024983	0.346628
H39	H	1.155340	-0.264680	0.000013
H40	H	1.814739	0.083546	0.639027
C41	C	1.756355	-0.449809	0.000059
N42	N	1.759301	-0.341895	0.000070
H43	H	1.672392	-0.024950	0.221771
H44	H	0.875910	-0.024624	0.000004
C45	C	1.350993	-0.270340	0.661086
N46	N	1.286041	-0.319928	0.724629
C47	C	1.741449	-0.996863	0.000008
N48	N	1.738516	-1.104782	0.000000
C49	C	0.981579	-0.373138	0.000020
N50	N	1.048906	-0.480951	0.000025
H51	H	1.072884	0.046618	0.000004
H52	H	1.963713	-0.676527	0.000035
C53	C	1.351049	-0.270448	0.339070
N54	N	1.286205	-0.320177	0.275563
H55	H	1.957286	-0.912834	0.000038
C56	C	1.266968	-0.698827	0.000002
N57	N	1.168865	-0.720203	0.000014
H58	H	1.307237	-0.455149	-0.000005
H59	H	1.672527	-0.025028	0.778157
H60	H	1.814686	0.083583	0.360837
