data_functionalizedCrystal
_audit_creation_method	'MofGen! by Chris Wilmer'
_symmetry_space_group_name_H-M	'P1'
_symmetry_Int_Tables_number	1
_symmetry_cell_setting	triclinic
loop_
_symmetry_equiv_pos_as_xyz
  x,y,z
_cell_length_a	15.297475
_cell_length_b	12.594516
_cell_length_c	15.296720
_cell_angle_alpha	99.650531
_cell_angle_beta	91.617114
_cell_angle_gamma	80.319586
loop_
_atom_site_label
_atom_site_type_symbol
_atom_site_fract_x
_atom_site_fract_y
_atom_site_fract_z
Zn1	Zn	1.253466	-0.828402	-0.726662
Zn2	Zn	1.278741	-0.981670	-0.580189
Zn3	Zn	1.132339	-0.768606	-0.554898
Zn4	Zn	1.106966	-0.971207	-0.701317
O5	O	1.192878	-0.887471	-0.640767
O6	O	1.379399	-0.878137	-0.728424
O7	O	1.280516	-0.932761	-0.454258
O8	O	1.148448	-0.627605	-0.577705
O9	O	1.397968	-0.990742	-0.620811
O10	O	1.237439	-0.671537	-0.703900
O11	O	1.172956	-0.776223	-0.435677
O12	O	1.006393	-0.766078	-0.553130
O13	O	1.105203	-0.972910	-0.827255
O14	O	0.987752	-0.914928	-0.660703
O15	O	1.212836	-0.867992	-0.845876
O16	O	1.255913	-1.129215	-0.596235
O17	O	1.129711	-1.121528	-0.685227
C18	C	0.965289	-0.832880	-0.601422
C19	C	0.867921	-0.809554	-0.584611
C20	C	0.554794	-1.054189	-0.760920
C21	C	0.646276	-1.076112	-0.776712
C22	C	0.701692	-1.009475	-0.728689
C23	C	0.665617	-0.920910	-0.664869
C24	C	0.574127	-0.898991	-0.649070
C25	C	0.721024	-0.854276	-0.616839
C26	C	0.684949	-0.765712	-0.553020
C27	C	0.593468	-0.743795	-0.537225
C28	C	0.538052	-0.810433	-0.585248
C29	C	0.812514	-0.876196	-0.632638
C30	C	0.831847	-0.720997	-0.520789
C31	C	0.740365	-0.699074	-0.504996
C32	C	1.192822	-1.163997	-0.640748
C33	C	1.192873	-1.282320	-0.640783
C34	C	1.124233	-1.347423	-0.689144
C35	C	1.116732	-1.399680	-0.605532
C36	C	1.200452	-1.440883	-0.724423
C37	C	1.185337	-1.333002	-0.557122
C38	C	1.269085	-1.374217	-0.676073
C39	C	1.261623	-1.426440	-0.592411
C40	C	1.421356	-0.942277	-0.680265
C41	C	1.518720	-0.965632	-0.697097
C42	C	1.153370	-0.925954	-0.869237
C43	C	1.136534	-0.942353	-0.966597
C44	C	1.192955	-0.609875	-0.640809
C45	C	1.192987	-0.491580	-0.640826
C46	C	1.313239	-0.770087	-1.279821
C47	C	1.329063	-0.754682	-1.188347
C48	C	1.280932	-0.801598	-1.132905
C49	C	1.216975	-0.863922	-1.168946
C50	C	1.201155	-0.879335	-1.260430
C51	C	1.168847	-0.910847	-1.113514
C52	C	1.104891	-0.973170	-1.149555
C53	C	1.089073	-0.988580	-1.241030
C54	C	1.137203	-0.941664	-1.296472
C55	C	1.184668	-0.895433	-1.022030
C56	C	1.072583	-1.004682	-1.002639
C57	C	1.056760	-1.020086	-1.094113
C58	C	1.232282	-0.849074	-0.413194
C59	C	1.249288	-0.832416	-0.315863
H60	H	0.841877	-0.948305	-0.684601
H61	H	0.509668	-1.108442	-0.800008
N62	N	1.362412	-0.722168	-1.336437
N63	N	1.445006	-0.746895	-1.340190
H64	H	1.479741	-0.713048	-1.380175
N65	N	1.334515	-1.469577	-0.541074
N66	N	1.392503	-1.545362	-0.576653
H67	H	1.443981	-1.575831	-0.540394
N68	N	1.297075	-0.785837	-1.039464
N69	N	1.235810	-0.740307	-0.986831
H70	H	1.247209	-0.729167	-0.920833
N71	N	1.177231	-1.274465	-0.468372
N72	N	1.112845	-1.199791	-0.447443
H73	H	1.107111	-1.158447	-0.384765
N74	N	1.349844	-1.359226	-0.713531
N75	N	1.369870	-1.401837	-0.791717
H76	H	1.426906	-1.391251	-0.818182
H77	H	1.052334	-1.411643	-0.575714
H78	H	1.206818	-1.487649	-0.795139
N79	N	0.556634	-0.653325	-0.472033
N80	N	0.565840	-0.558576	-0.479749
H81	H	0.539830	-0.494679	-0.433707
H82	H	1.236741	-0.844688	-0.992695
N83	N	1.394397	-0.691031	-1.151550
N84	N	1.437367	-0.649151	-1.201057
H85	H	1.483515	-0.604195	-1.175070
N86	N	0.444601	-0.788015	-0.569127
N87	N	0.400609	-0.698343	-0.580514
H88	H	0.334607	-0.682508	-0.569135
H89	H	1.124323	-0.954203	-1.370959
N90	N	0.683110	-1.166578	-0.841897
N91	N	0.633626	-1.226068	-0.884769
H92	H	0.659639	-1.289965	-0.930810
N93	N	1.023762	-1.052276	-1.277836
N94	N	0.980802	-1.094173	-1.228332
H95	H	0.934681	-1.139166	-1.254324
H96	H	0.710979	-0.626964	-0.453034
N97	N	0.795137	-1.031882	-0.744827
N98	N	0.827335	-1.110958	-0.801810
H99	H	0.893333	-1.126786	-0.813213
N100	N	0.888456	-0.652937	-0.471731
N101	N	0.970137	-0.672520	-0.485844
H102	H	1.010123	-0.624460	-0.451199
N103	N	0.991421	-1.083728	-1.130938
N104	N	0.926793	-1.041473	-1.172339
H105	H	0.880645	-1.086415	-1.198350
H106	H	1.066111	-1.312837	-0.729954
H107	H	1.033393	-1.042887	-0.957499
