data_functionalizedCrystal
_audit_creation_method	'MofGen! by Chris Wilmer'
_symmetry_space_group_name_H-M	'P1'
_symmetry_Int_Tables_number	1
_symmetry_cell_setting	triclinic
loop_
_symmetry_equiv_pos_as_xyz
  x,y,z
_cell_length_a	18.215407
_cell_length_b	17.639999
_cell_length_c	18.215399
_cell_angle_alpha	78.774438
_cell_angle_beta	90.017368
_cell_angle_gamma	101.196378
loop_
_atom_site_label
_atom_site_type_symbol
_atom_site_fract_x
_atom_site_fract_y
_atom_site_fract_z
Zn1	Zn	1.184349	0.314728	0.356895
Zn2	Zn	1.209153	0.446906	0.208978
Zn3	Zn	1.061285	0.314746	0.233844
Zn4	Zn	1.086133	0.446855	0.332018
O5	O	1.135230	0.380809	0.282934
O6	O	1.290626	0.332275	0.337278
O7	O	1.189519	0.429404	0.109287
O8	O	1.056831	0.204139	0.270985
O9	O	1.308849	0.429386	0.228604
O10	O	1.147245	0.204125	0.361390
O11	O	1.080882	0.332307	0.127556
O12	O	0.961595	0.332258	0.246862
O13	O	1.099180	0.429299	0.438307
O14	O	0.979850	0.429317	0.318990
O15	O	1.171339	0.332225	0.456585
O16	O	1.213613	0.557505	0.204481
O17	O	1.123231	0.557467	0.294878
C18	C	0.944019	0.380785	0.282925
C19	C	0.862222	0.380793	0.282936
C20	C	0.664558	0.330332	0.339577
C21	C	0.587700	0.330338	0.339578
C22	C	0.606658	0.431308	0.226299
C23	C	0.683514	0.431297	0.226295
C24	C	0.712462	0.380810	0.282938
C25	C	0.558749	0.380828	0.282943
C26	C	0.475417	0.380836	0.282944
C27	C	0.795799	0.380801	0.282937
C28	C	1.173830	0.586165	0.244298
C29	C	1.190410	0.674017	0.227794
C30	C	1.009456	0.962991	0.408564
C31	C	1.025038	1.045542	0.393033
C32	C	1.119211	1.045515	0.298998
C33	C	1.103640	0.962963	0.314524
C34	C	1.048761	0.921708	0.369307
C35	C	1.142945	0.921680	0.275267
C36	C	1.127372	0.839135	0.290789
C37	C	1.072495	0.797874	0.345569
C38	C	1.033189	0.839163	0.384830
C39	C	1.197820	0.962937	0.220480
C40	C	1.237125	0.921653	0.181223
C41	C	1.221556	0.839107	0.196749
C42	C	1.166678	0.797845	0.251528
C43	C	1.260862	0.797817	0.157488
C44	C	1.245289	0.715272	0.173010
C45	C	1.151106	0.715300	0.267051
C46	C	1.327188	0.380834	0.282942
C47	C	1.408988	0.380845	0.282946
C48	C	1.135265	0.380754	0.474897
C49	C	1.135279	0.380731	0.556700
C50	C	1.096476	1.174651	0.321733
C51	C	1.079903	1.086799	0.338259
C52	C	1.135227	0.380806	0.091728
C53	C	1.135313	0.380607	0.009967
C54	C	1.172860	0.330138	0.754421
C55	C	1.172865	0.330115	0.831284
C56	C	1.097727	0.431203	0.812240
C57	C	1.097719	0.431221	0.735379
C58	C	1.135290	0.380690	0.706472
C59	C	1.135303	0.380648	0.860196
C60	C	1.135307	0.380624	0.943534
C61	C	1.135284	0.380713	0.623128
H62	H	1.106423	0.681709	0.311666
H63	H	1.203451	0.288990	0.730888
H64	H	1.067140	0.472345	0.835786
C65	C	0.695839	0.275428	0.401115
C66	C	0.637430	0.231209	0.450705
C67	C	0.666212	0.180615	0.507398
H68	H	0.731513	0.305614	0.427520
H69	H	0.719301	0.240905	0.379524
H70	H	0.613979	0.265728	0.472294
H71	H	0.601751	0.201008	0.424322
H72	H	0.689675	0.146092	0.485807
H73	H	0.701886	0.210806	0.533797
H74	H	0.626586	0.150601	0.541048
C75	C	0.535622	0.275664	0.401094
C76	C	0.499931	0.320486	0.439752
C77	C	0.451944	0.270144	0.496421
H78	H	0.563785	0.245578	0.434899
H79	H	0.499105	0.241201	0.379502
H80	H	0.536443	0.354935	0.461344
H81	H	0.471754	0.350570	0.405968
H82	H	0.415428	0.235682	0.474828
H83	H	0.480113	0.240062	0.530220
H84	H	0.427717	0.300549	0.522653
C85	C	0.575090	0.486097	0.164893
C86	C	0.497533	0.475320	0.177029
C87	C	0.468430	0.525788	0.120484
H88	H	0.585398	0.474512	0.117612
H89	H	0.597644	0.539232	0.165595
H90	H	0.474986	0.422197	0.176320
H91	H	0.487204	0.486910	0.224300
H92	H	0.490984	0.578923	0.121186
H93	H	0.478743	0.514199	0.073206
H94	H	0.415807	0.518488	0.128714
H95	H	0.722519	0.472403	0.180169
C96	C	1.056915	0.486198	0.683429
C97	C	1.024036	0.530467	0.725190
C98	C	0.986450	0.581122	0.677358
H99	H	1.019117	0.456054	0.659114
H100	H	1.091528	0.520687	0.646974
H101	H	0.989426	0.495982	0.761632
H102	H	1.061818	0.560627	0.749503
H103	H	1.021064	0.615611	0.640903
H104	H	0.948656	0.550972	0.653046
H105	H	0.964143	0.611170	0.705685
C106	C	1.055580	0.708252	0.362268
C107	C	1.031721	0.680986	0.297310
C108	C	1.016142	0.598433	0.312663
H109	H	1.017252	0.689494	0.400479
H110	H	1.099534	0.689506	0.378523
H111	H	0.987772	0.699724	0.281065
H112	H	1.070038	0.699723	0.259091
H113	H	1.060096	0.579686	0.328918
H114	H	0.977815	0.579682	0.350875
H115	H	0.999959	0.579922	0.268590
C116	C	0.973548	0.794267	0.444216
C117	C	0.917479	0.746918	0.411414
C118	C	0.862535	0.705543	0.466097
H119	H	0.952286	0.830588	0.465409
H120	H	0.995574	0.761984	0.482363
H121	H	0.895455	0.779199	0.373281
H122	H	0.938718	0.710583	0.390225
H123	H	0.884561	0.673260	0.504244
H124	H	0.841279	0.741870	0.487287
H125	H	0.824489	0.673407	0.443851
C126	C	1.296708	0.966306	0.121694
C127	C	1.327786	0.912480	0.090627
C128	C	1.382671	0.953583	0.035781
H129	H	1.334888	0.998472	0.143746
H130	H	1.274672	0.998526	0.083502
H131	H	1.349822	0.880274	0.128812
H132	H	1.289625	0.880313	0.068560
H133	H	1.360636	0.985804	-0.002411
H134	H	1.420846	0.985748	0.057839
H135	H	1.403759	0.917070	0.014690
C136	C	1.213734	0.275201	0.883217
C137	C	1.246648	0.230969	0.841444
C138	C	1.284311	0.180379	0.889257
H139	H	1.179184	0.240680	0.919695
H140	H	1.251519	0.305414	0.907502
H141	H	1.208867	0.200757	0.817171
H142	H	1.281209	0.265469	0.804968
H143	H	1.322097	0.210592	0.913542
H144	H	1.249756	0.145863	0.925732
H145	H	1.306654	0.150366	0.860920
C146	C	0.949831	0.918334	0.468057
C147	C	0.918733	0.972154	0.499113
C148	C	0.863804	0.931044	0.553913
H149	H	0.971811	0.886096	0.506268
H150	H	0.911674	0.886185	0.445946
H151	H	0.956884	1.004289	0.521225
H152	H	0.896738	1.004393	0.460921
H153	H	0.825647	0.898895	0.531802
H154	H	0.885791	0.898808	0.592119
H155	H	0.842693	0.967554	0.574986
H156	H	0.993036	1.079152	0.425014
C157	C	1.178780	1.090453	0.239564
C158	C	1.184013	1.171579	0.234377
C159	C	1.238884	1.212998	0.179637
H160	H	1.165549	1.077045	0.192602
H161	H	1.225689	1.076935	0.252921
H162	H	1.137114	1.185092	0.221016
H163	H	1.197254	1.185011	0.281325
H164	H	1.285793	1.199480	0.192995
H165	H	1.225648	1.199584	0.132680
H166	H	1.242447	1.268046	0.176116
H167	H	1.210499	1.030150	0.207846
H168	H	1.305539	0.831420	0.112878
H169	H	1.277295	0.681659	0.141042
