data_functionalizedCrystal
_audit_creation_method	'MofGen! by Chris Wilmer'
_symmetry_space_group_name_H-M	'P1'
_symmetry_Int_Tables_number	1
_symmetry_cell_setting	triclinic
loop_
_symmetry_equiv_pos_as_xyz
  x,y,z
_cell_length_a	15.995292
_cell_length_b	17.019294
_cell_length_c	15.072220
_cell_angle_alpha	86.119892
_cell_angle_beta	89.986330
_cell_angle_gamma	83.431263
loop_
_atom_site_label
_atom_site_type_symbol
_atom_site_fract_x
_atom_site_fract_y
_atom_site_fract_z
O1	O	1.110906	0.101456	-0.081557
O2	O	0.867109	0.114060	-0.082516
O3	O	0.995808	-0.007076	-0.073259
O4	O	0.982208	0.222591	-0.090814
O5	O	0.995776	-0.007069	0.074306
O6	O	0.867078	0.114066	0.065049
O7	O	1.110874	0.101462	0.066008
Zn8	Zn	0.988971	0.107765	0.088957
Zn9	Zn	0.989013	0.107757	-0.105465
O10	O	0.982176	0.222598	0.056751
C11	C	0.835898	0.113550	-0.008694
C12	C	0.742947	0.112012	-0.008575
C13	C	0.405216	0.106358	-0.008153
C14	C	0.428424	0.193791	-0.015165
C15	C	0.525098	0.195452	-0.014956
C16	C	0.572768	0.109164	-0.008363
C17	C	0.543700	0.065456	0.079242
C18	C	0.446911	0.064403	0.079389
C19	C	0.447093	0.062610	-0.088283
C20	C	0.543582	0.065850	-0.089640
C21	C	0.667462	0.110745	-0.008478
C22	C	0.310522	0.104775	-0.008031
C23	C	0.995275	-0.036461	0.002768
C24	C	0.993727	-0.124031	0.009457
C25	C	0.993019	-0.165171	-0.067838
C26	C	0.991559	-0.247451	-0.061551
C27	C	0.990813	-0.288591	0.022031
C28	C	0.991519	-0.247445	0.099332
C29	C	0.992973	-0.165166	0.093044
C30	C	0.986416	-0.537022	0.045041
C31	C	0.984965	-0.619307	0.051323
C32	C	0.985003	-0.619307	-0.109561
C33	C	0.986463	-0.537027	-0.115842
C34	C	0.987164	-0.495888	-0.038541
C35	C	0.989323	-0.372695	0.028460
C36	C	0.988647	-0.411784	-0.044970
C37	C	1.142085	0.101972	-0.007816
C38	C	1.235036	0.103510	-0.007941
C39	C	0.982708	0.251983	-0.019278
C40	C	0.984256	0.339553	-0.025972
N41	N	0.988948	0.107771	0.221646
N42	N	0.989042	0.107745	-0.238153
C43	C	0.989011	0.107753	0.580849
C44	C	0.919916	0.172353	0.538305
C45	C	0.920074	0.172589	0.435461
C46	C	0.988979	0.107762	0.402644
C47	C	1.076325	0.125722	0.438561
C48	C	1.075938	0.126181	0.541384
C49	C	0.971539	0.025002	0.549275
C50	C	0.969534	0.025554	0.446369
C51	C	0.988967	0.107766	0.301930
C52	C	0.989029	0.107752	0.681562
H53	H	0.544097	0.229679	-0.077978
Cl54	Cl	0.403343	0.104808	-0.190116
H55	H	0.543448	0.229895	0.042918
Cl56	Cl	0.385159	0.245823	-0.112442
H57	H	0.987071	-0.503536	-0.183903
H58	H	0.563709	0.095814	0.139632
H59	H	0.562128	0.097674	-0.154411
Cl60	Cl	0.984120	-0.671029	-0.206732
H61	H	1.016597	-0.024769	0.424507
Cl62	Cl	0.936897	0.266635	0.570970
H63	H	0.399353	0.227307	0.042363
H64	H	0.420044	0.094679	0.140066
Cl65	Cl	0.993862	-0.113447	0.190219
H66	H	0.432435	0.000298	0.088116
Cl67	Cl	0.993963	-0.113461	-0.172919
H68	H	0.984353	-0.652801	0.119389
Cl69	Cl	0.937251	0.267409	0.390204
H70	H	0.987004	-0.503538	0.107985
H71	H	1.091349	0.186531	0.560752
Cl72	Cl	0.990571	-0.299163	0.204408
Cl73	Cl	0.989590	-0.360065	-0.150042
H74	H	0.854777	0.161832	0.563872
H75	H	0.990986	-0.280944	-0.124493
Cl76	Cl	0.988381	-0.424420	0.133532
Cl77	Cl	0.819813	0.156124	0.397794
Cl78	Cl	1.157620	0.056223	0.585140
Cl79	Cl	1.157600	0.055011	0.406192
H80	H	1.092107	0.185384	0.408231
Cl81	Cl	0.594594	-0.031395	-0.090066
Cl82	Cl	0.875329	-0.001653	0.591409
Cl83	Cl	0.870333	0.004506	0.410352
Cl84	Cl	0.425612	-0.036751	-0.081568
Cl85	Cl	1.049333	-0.049220	0.592493
H86	H	0.575643	0.001959	0.087227
