data_functionalizedCrystal
_audit_creation_method	'MofGen! by Chris Wilmer'
_symmetry_space_group_name_H-M	'P1'
_symmetry_Int_Tables_number	1
_symmetry_cell_setting	triclinic
loop_
_symmetry_equiv_pos_as_xyz
  x,y,z
_cell_length_a	10.540539
_cell_length_b	14.519731
_cell_length_c	13.596369
_cell_angle_alpha	89.994584
_cell_angle_beta	89.996161
_cell_angle_gamma	84.107172
loop_
_atom_site_label
_atom_site_type_symbol
_atom_site_fract_x
_atom_site_fract_y
_atom_site_fract_z
O1	O	0.166529	1.224754	-0.081789
O2	O	0.666529	1.724754	0.418211
O3	O	0.186096	0.956385	-0.081790
O4	O	0.686096	1.456385	0.418210
O5	O	-0.008456	1.096692	-0.081788
O6	O	0.491544	1.596692	0.418212
O7	O	0.361081	1.084446	-0.081791
O8	O	0.861081	1.584446	0.418209
O9	O	-0.008466	1.096678	0.081795
O10	O	0.491534	1.596678	0.581795
O11	O	0.186086	0.956371	0.081793
O12	O	0.686086	1.456371	0.581793
O13	O	0.166518	1.224739	0.081794
O14	O	0.666518	1.724739	0.581794
Zn15	Zn	0.176300	1.090553	0.107766
Zn16	Zn	0.676300	1.590553	0.607766
Zn17	Zn	0.176314	1.090571	-0.107762
Zn18	Zn	0.676314	1.590571	0.392238
O19	O	0.361070	1.084432	0.081792
O20	O	0.861070	1.584432	0.581792
C21	C	0.185174	0.922013	0.000002
C22	C	0.685174	1.422013	0.500002
C23	C	0.182426	0.819618	0.000001
C24	C	0.682426	1.319618	0.500001
C25	C	0.180194	0.736462	-0.000003
C26	C	0.680194	1.236462	0.499997
C27	C	0.177405	0.632138	-0.000003
C28	C	0.677405	1.132138	0.499997
C29	C	0.175191	0.548987	-0.000003
C30	C	0.675191	1.048987	0.499997
C31	C	0.172402	0.444657	-0.000005
C32	C	0.672402	0.944657	0.499995
C33	C	-0.055755	1.095766	0.000002
C34	C	0.444245	1.595766	0.500002
C35	C	-0.196675	1.093019	-0.000004
C36	C	0.303325	1.593019	0.499996
C37	C	-0.379038	0.987741	-0.000371
C38	C	0.120962	1.487741	0.499629
C39	C	-0.232449	0.990526	-0.000003
C40	C	0.267551	1.490526	0.499997
C41	C	-0.258837	1.142335	0.093410
C42	C	0.241163	1.642335	0.593410
C43	C	-0.405346	1.138837	0.093489
C44	C	0.094654	1.638837	0.593489
C45	C	-0.405874	1.140938	-0.092535
C46	C	0.094126	1.640938	0.407465
C47	C	-0.258902	1.141882	-0.093770
C48	C	0.241098	1.641882	0.406230
C49	C	0.408369	1.085358	0.000001
C50	C	0.908369	1.585358	0.500001
C51	C	0.549289	1.088105	-0.000001
C52	C	1.049289	1.588105	0.499999
C53	C	0.167440	1.259111	0.000001
C54	C	0.667440	1.759111	0.500001
C55	C	0.170188	1.361506	-0.000005
C56	C	0.670188	1.861506	0.499995
N57	N	0.176290	1.090547	0.254858
N58	N	0.676290	1.590547	0.754858
N59	N	0.176314	1.090585	-0.254853
N60	N	0.676314	1.590585	0.245147
C61	C	0.176315	1.090570	0.656149
C62	C	0.676315	1.590570	1.156149
C63	C	0.176313	1.090561	0.544497
C64	C	0.676313	1.590561	1.044497
C65	C	0.176304	1.090559	0.455507
C66	C	0.676304	1.590559	0.955507
C67	C	0.176299	1.090549	0.343848
C68	C	0.676299	1.590549	0.843848
H69	H	-0.189449	0.951720	-0.066966
H70	H	0.310551	1.451720	0.433034
H71	H	-0.408843	0.947412	0.066242
H72	H	0.091157	1.447412	0.566242
H73	H	-0.407225	0.947259	-0.067360
H74	H	0.092775	1.447259	0.432640
H75	H	-0.215896	1.108066	0.162926
H76	H	0.284104	1.608066	0.662926
H77	H	-0.237244	1.217603	0.096884
H78	H	0.262756	1.717603	0.596884
H79	H	-0.217674	1.105798	-0.162875
H80	H	0.282326	1.605798	0.337125
C81	C	-0.448028	1.096133	-0.188183
C82	C	0.051972	1.596133	0.311817
H83	H	-0.493371	1.044780	-0.172574
H84	H	0.006629	1.544780	0.327426
H85	H	-0.501701	1.140277	-0.224659
H86	H	-0.001701	1.640277	0.275341
H87	H	-0.375005	1.075675	-0.226316
H88	H	0.124995	1.575675	0.273684
H89	H	-0.235435	1.216608	-0.099411
H90	H	0.264565	1.716608	0.400589
H91	H	-0.453848	1.214969	-0.093163
H92	H	0.046152	1.714969	0.406837
H93	H	-0.190302	0.951437	0.067071
H94	H	0.309698	1.451437	0.567071
C95	C	-0.471167	1.238407	0.099241
C96	C	0.028833	1.738407	0.599241
H97	H	-0.561069	1.236945	0.099325
H98	H	-0.061069	1.736945	0.599325
H99	H	-0.445937	1.266975	0.157935
H100	H	0.054063	1.766975	0.657935
H101	H	-0.447110	1.272723	0.044001
H102	H	0.052890	1.772723	0.544001
H103	H	-0.433182	1.102378	0.163318
H104	H	0.066818	1.602378	0.663318
