data_functionalizedCrystal
_audit_creation_method	'MofGen! by Chris Wilmer'
_symmetry_space_group_name_H-M	'P1'
_symmetry_Int_Tables_number	1
_symmetry_cell_setting	triclinic
loop_
_symmetry_equiv_pos_as_xyz
  x,y,z
_cell_length_a	21.395362
_cell_length_b	19.805405
_cell_length_c	21.395355
_cell_angle_alpha	89.980090
_cell_angle_beta	89.956060
_cell_angle_gamma	90.042288
loop_
_atom_site_label
_atom_site_type_symbol
_atom_site_fract_x
_atom_site_fract_y
_atom_site_fract_z
Zn1	Zn	0.957878	-0.269255	-0.354580
Zn2	Zn	1.457878	0.230745	0.145420
Zn3	Zn	0.957789	-0.382425	-0.249800
Zn4	Zn	1.457789	0.117575	0.250200
Zn5	Zn	0.853093	-0.269286	-0.249781
Zn6	Zn	1.353093	0.230714	0.250219
Zn7	Zn	0.853070	-0.382438	-0.354504
Zn8	Zn	1.353070	0.117562	0.145496
O9	O	0.905458	-0.325851	-0.302166
O10	O	1.405458	0.174149	0.197834
O11	O	1.045544	-0.284248	-0.340720
O12	O	1.545544	0.215752	0.159280
O13	O	0.943873	-0.367424	-0.162119
O14	O	1.443873	0.132576	0.337881
O15	O	0.867040	-0.174565	-0.263706
O16	O	1.367040	0.325435	0.236294
O17	O	1.045478	-0.367393	-0.263738
O18	O	1.545478	0.132607	0.236262
O19	O	0.944025	-0.174542	-0.340701
O20	O	1.444025	0.325458	0.159299
O21	O	0.866953	-0.284302	-0.162105
O22	O	1.366953	0.215698	0.337895
O23	O	0.765412	-0.284315	-0.263633
O24	O	1.265412	0.215685	0.236367
O25	O	0.867001	-0.367417	-0.442192
O26	O	1.367001	0.132583	0.057808
O27	O	0.765395	-0.367448	-0.340573
O28	O	1.265395	0.132552	0.159427
O29	O	0.944003	-0.284261	-0.442247
O30	O	1.444003	0.215739	0.057753
O31	O	0.943850	-0.477143	-0.263665
O32	O	1.443850	0.022857	0.236335
O33	O	0.866914	-0.477153	-0.340591
O34	O	1.366914	0.022847	0.159409
C35	C	0.742670	-0.325887	-0.302093
C36	C	1.242670	0.174113	0.197907
C37	C	0.673029	-0.325918	-0.302077
C38	C	1.173029	0.174082	0.197923
C39	C	0.640323	-0.369263	-0.342080
C40	C	1.140323	0.130737	0.157920
C41	C	0.574888	-0.369246	-0.342108
C42	C	1.074888	0.130754	0.157892
C43	C	0.542160	-0.325892	-0.302122
C44	C	1.042160	0.174108	0.197878
C45	C	0.574874	-0.282539	-0.262116
C46	C	1.074874	0.217461	0.237884
C47	C	0.640308	-0.282553	-0.262094
C48	C	1.140308	0.217447	0.237906
C49	C	0.438435	-0.320440	-0.245717
C50	C	0.938435	0.179560	0.254283
C51	C	0.373002	-0.320431	-0.245738
C52	C	0.873002	0.179569	0.254262
C53	C	0.340340	-0.325848	-0.302191
C54	C	0.840340	0.174152	0.197809
C55	C	0.373118	-0.331287	-0.358624
C56	C	0.873118	0.168713	0.141376
C57	C	0.438552	-0.331301	-0.358602
C58	C	0.938552	0.168699	0.141398
C59	C	0.471208	-0.325873	-0.302142
C60	C	0.971208	0.174127	0.197858
C61	C	0.236682	-0.369177	-0.342227
C62	C	0.736682	0.130823	0.157773
C63	C	0.171245	-0.369156	-0.342256
C64	C	0.671245	0.130844	0.157744
C65	C	0.171232	-0.282452	-0.262259
C66	C	0.671232	0.217548	0.237741
C67	C	0.236668	-0.282470	-0.262236
C68	C	0.736668	0.217530	0.237764
C69	C	0.269388	-0.325836	-0.302219
C70	C	0.769388	0.174164	0.197781
C71	C	0.905387	-0.501707	-0.302136
C72	C	1.405387	-0.001707	0.197864
C73	C	0.905414	-0.576939	-0.302144
C74	C	1.405414	-0.076939	0.197856
C75	C	0.945514	-0.612255	-0.262130
C76	C	1.445514	-0.112255	0.237870
C77	C	0.945540	-0.682944	-0.262144
C78	C	1.445540	-0.182944	0.237856
C79	C	0.905464	-0.718315	-0.302169
C80	C	1.405464	-0.218315	0.197831
C81	C	0.865362	-0.682993	-0.342187
C82	C	1.365362	-0.182993	0.157813
C83	C	0.865339	-0.612306	-0.342175
C84	C	1.365339	-0.112306	0.157825
C85	C	0.865455	-0.968067	-0.342233
C86	C	1.365455	-0.468067	0.157767
C87	C	0.865480	-1.038759	-0.342240
C88	C	1.365480	-0.538759	0.157760
C89	C	0.945656	-1.038704	-0.262202
C90	C	1.445656	-0.538704	0.237798
C91	C	0.945633	-0.968017	-0.262191
C92	C	1.445633	-0.468017	0.237809
C93	C	0.905534	-0.932702	-0.302210
C94	C	1.405534	-0.432702	0.197790
C95	C	0.905507	-0.856053	-0.302196
C96	C	1.405507	-0.356053	0.197804
C97	C	0.905488	-0.794962	-0.302181
C98	C	1.405488	-0.294962	0.197819
C99	C	1.068881	-0.325816	-0.302239
C100	C	1.568881	0.174184	0.197761
C101	C	1.138522	-0.325800	-0.302271
C102	C	1.638522	0.174200	0.197729
C103	C	0.905510	-0.325837	-0.465589
C104	C	1.405510	0.174163	0.034411
C105	C	0.905532	-0.325831	-0.535231
C106	C	1.405532	0.174169	-0.035231
C107	C	0.905545	-0.149308	-0.302210
C108	C	1.405545	0.350692	0.197790
C109	C	0.905583	-0.074076	-0.302229
C110	C	1.405583	0.425924	0.197771
C111	C	0.945625	-0.282530	-0.567974
C112	C	1.445625	0.217470	-0.067974
C113	C	0.945624	-0.282501	-0.633409
C114	C	1.445624	0.217499	-0.133409
C115	C	0.905537	-0.325785	-0.666099
C116	C	1.405537	0.174215	-0.166099
C117	C	0.865436	-0.369089	-0.633348
C118	C	1.365436	0.130911	-0.133348
C119	C	0.865433	-0.369112	-0.567914
C120	C	1.365433	0.130888	-0.067914
C121	C	0.900565	-0.386731	-0.769762
C122	C	1.400565	0.113269	-0.269762
C123	C	0.900572	-0.386709	-0.835195
C124	C	1.400572	0.113291	-0.335195
C125	C	0.905540	-0.325714	-0.867920
C126	C	1.405540	0.174286	-0.367920
C127	C	0.910516	-0.264738	-0.835204
C128	C	1.410516	0.235262	-0.335204
C129	C	0.910513	-0.264762	-0.769770
C130	C	1.410513	0.235238	-0.269770
C131	C	0.905534	-0.325765	-0.737051
C132	C	1.405534	0.174235	-0.237051
C133	C	0.945635	-0.282378	-0.971615
C134	C	1.445635	0.217622	-0.471615
C135	C	0.945630	-0.282347	-1.037052
C136	C	1.445630	0.217653	-0.537052
C137	C	0.865444	-0.368941	-1.036990
C138	C	1.365444	0.131059	-0.536990
C139	C	0.865446	-0.368966	-0.971555
C140	C	1.365446	0.131034	-0.471555
C141	C	0.905545	-0.325685	-0.938871
C142	C	1.405545	0.174315	-0.438871
C143	C	0.905442	-0.325816	-0.139378
C144	C	1.405442	0.174184	0.360622
C145	C	0.905541	-0.325631	-0.069738
C146	C	1.405541	0.174369	0.430262
H147	H	0.263297	-0.247178	-0.229658
H148	H	0.763297	0.252822	0.270342
N149	N	0.473662	-0.314600	-0.184824
N150	N	0.973662	0.185400	0.315176
H151	H	0.500846	-0.272897	-0.185727
H152	H	1.000846	0.227103	0.314273
H153	H	0.442930	-0.311187	-0.149112
H154	H	0.942930	0.188813	0.350888
H155	H	0.144586	-0.247150	-0.229705
H156	H	0.644586	0.252850	0.270295
N157	N	0.915868	-0.198941	-0.870486
N158	N	1.415868	0.301059	-0.370486
H159	H	0.956428	-0.175904	-0.859130
H160	H	1.456428	0.324096	-0.359130
H161	H	0.915082	-0.208224	-0.916891
H162	H	1.415082	0.291776	-0.416891
H163	H	0.978308	-1.067466	-0.229618
H164	H	1.478308	-0.567466	0.270382
N165	N	0.337651	-0.314570	-0.184874
N166	N	0.837651	0.185430	0.315126
H167	H	0.368270	-0.311132	-0.149109
H168	H	0.868270	0.188868	0.350891
H169	H	0.310537	-0.272863	-0.185858
H170	H	0.810537	0.227137	0.314142
N171	N	0.822208	-0.415625	-1.072245
N172	N	1.322208	0.084375	-0.572245
H173	H	0.831914	-0.463988	-1.060865
H174	H	1.331914	0.036012	-0.560865
H175	H	0.777463	-0.405068	-1.060811
H176	H	1.277463	0.094932	-0.560811
N177	N	0.539580	-0.235787	-0.218980
N178	N	1.039580	0.264213	0.281020
H179	H	0.493164	-0.242360	-0.225059
H180	H	0.993164	0.257640	0.274941
H181	H	0.550966	-0.246262	-0.174215
H182	H	1.050966	0.253738	0.325785
N183	N	0.988879	-0.235697	-0.936358
N184	N	1.488879	0.264303	-0.436358
H185	H	1.014275	-0.208257	-0.967033
H186	H	1.514275	0.291743	-0.467033
H187	H	0.963391	-0.204391	-0.909188
H188	H	1.463391	0.295609	-0.409188
H189	H	0.832845	-1.067556	-0.374837
H190	H	1.332845	-0.567556	0.125163
N191	N	0.473907	-0.337165	-0.419464
N192	N	0.973907	0.162835	0.080536
H193	H	0.443291	-0.340596	-0.455232
H194	H	0.943291	0.159404	0.044768
H195	H	0.501098	-0.295940	-0.425340
H196	H	1.001098	0.204060	0.074660
H197	H	0.978146	-0.583461	-0.229535
H198	H	1.478146	-0.083461	0.270465
N199	N	0.822186	-0.415825	-0.532604
N200	N	1.322186	0.084175	-0.032604
H201	H	0.847630	-0.447199	-0.505475
H202	H	1.347630	0.052801	-0.005475
H203	H	0.793171	-0.388288	-0.505470
H204	H	1.293171	0.111712	-0.005470
H205	H	0.978276	-0.247287	-0.541367
H206	H	1.478276	0.252713	-0.041367
H207	H	0.832734	-0.711798	-0.374778
H208	H	1.332734	-0.211798	0.125222
H209	H	0.978271	-0.247237	-0.660074
H210	H	1.478271	0.252763	-0.160074
H211	H	0.832794	-0.404329	-0.659969
H212	H	1.332794	0.095671	-0.159969
N213	N	0.988864	-0.235630	-1.072371
N214	N	1.488864	0.264370	-0.572371
H215	H	1.014262	-0.208215	-1.041735
H216	H	1.514262	0.291785	-0.541735
H217	H	1.017846	-0.263159	-1.099548
H218	H	1.517846	0.236841	-0.599548
N219	N	0.822202	-0.929982	-0.385390
N220	N	1.322202	-0.429982	0.114610
H221	H	0.796815	-0.963117	-0.410742
H222	H	1.296815	-0.463117	0.089258
H223	H	0.793211	-0.900703	-0.359842
H224	H	1.293211	-0.400703	0.140158
H225	H	0.144617	-0.404451	-0.374835
H226	H	0.644617	0.095549	0.125165
H227	H	0.666936	-0.247254	-0.229519
H228	H	1.166936	0.252746	0.270481
H229	H	0.978265	-0.939220	-0.229597
H230	H	1.478265	-0.439220	0.270403
N231	N	0.988790	-0.721032	-0.218984
N232	N	1.488790	-0.221032	0.281016
H233	H	0.963351	-0.750409	-0.189924
H234	H	1.463351	-0.250409	0.310076
H235	H	1.017817	-0.750270	-0.244531
H236	H	1.517817	-0.250270	0.255469
H237	H	0.832687	-0.583552	-0.374759
H238	H	1.332687	-0.083552	0.125241
H239	H	0.832802	-0.404230	-0.944895
H240	H	1.332802	0.095770	-0.444895
H241	H	0.914562	-0.215113	-0.743136
H242	H	1.414562	0.284887	-0.243136
H243	H	0.896524	-0.436359	-0.861827
H244	H	1.396524	0.063641	-0.361827
N245	N	0.895214	-0.452524	-0.734468
N246	N	1.395214	0.047476	-0.234468
H247	H	0.892072	-0.491147	-0.765120
H248	H	1.392072	0.008853	-0.265120
H249	H	0.933390	-0.458800	-0.707351
H250	H	1.433390	0.041200	-0.207351
H251	H	0.548254	-0.404542	-0.374685
H252	H	1.048254	0.095458	0.125315
N253	N	0.675615	-0.416034	-0.385202
N254	N	1.175615	0.083966	0.114798
H255	H	0.644962	-0.443490	-0.410549
H256	H	1.144962	0.056510	0.089451
H257	H	0.702819	-0.388536	-0.414237
H258	H	1.202819	0.111464	0.085763
H259	H	0.263324	-0.404485	-0.374787
H260	H	0.763324	0.095515	0.125213
N261	N	0.337900	-0.337134	-0.419519
N262	N	0.837900	0.162866	0.080481
H263	H	0.291474	-0.336298	-0.410973
H264	H	0.791474	0.163702	0.089027
H265	H	0.349405	-0.298041	-0.447592
H266	H	0.849405	0.201959	0.052408
