data_functionalizedCrystal
_audit_creation_method	'MofGen! by Chris Wilmer'
_symmetry_space_group_name_H-M	'P1'
_symmetry_Int_Tables_number	1
_symmetry_cell_setting	triclinic
loop_
_symmetry_equiv_pos_as_xyz
  x,y,z
_cell_length_a	11.026607
_cell_length_b	16.109301
_cell_length_c	9.483334
_cell_angle_alpha	80.660810
_cell_angle_beta	78.643382
_cell_angle_gamma	83.976251
loop_
_atom_site_label
_atom_site_type_symbol
_atom_site_fract_x
_atom_site_fract_y
_atom_site_fract_z
O1	O	1.591103	-0.358315	0.120914
O2	O	1.237813	-0.318674	0.120913
O3	O	1.424165	-0.218917	0.120898
O4	O	1.404750	-0.458072	0.120928
O5	O	1.461987	-0.198546	-0.120880
O6	O	1.275634	-0.298303	-0.120865
O7	O	1.628924	-0.337944	-0.120865
Cu8	Cu	1.455733	-0.316264	-0.142941
Cu9	Cu	1.411004	-0.340355	0.142990
O10	O	1.442572	-0.437701	-0.120850
C11	C	1.211515	-0.301175	0.000023
C12	C	1.076810	-0.279374	0.000023
N13	N	1.487201	-0.299320	-0.344050
C14	C	1.442290	-0.177638	0.000009
C15	C	1.439933	-0.084990	0.000007
C16	C	1.002979	-0.339571	0.000031
C17	C	0.863754	-0.317040	0.000030
C18	C	1.655221	-0.355443	0.000028
C19	C	1.789925	-0.377245	0.000038
C20	C	1.424447	-0.478980	0.000043
C21	C	1.426802	-0.571630	0.000054
C22	C	1.545025	0.121532	0.000030
C23	C	1.542799	0.208585	0.000042
C24	C	1.321701	0.221843	0.000036
C25	C	1.323927	0.134791	0.000034
C26	C	1.435594	0.084638	0.000024
C27	C	1.431141	0.258743	0.000037
C28	C	1.428727	0.353129	0.000050
C29	C	1.438008	-0.009755	0.000014
C30	C	1.420272	-0.335355	-0.416274
C31	C	1.446485	-0.321253	-0.583682
N32	N	1.379546	-0.357293	0.344098
H33	H	1.042844	-0.407786	0.000031
H34	H	1.234809	0.104751	0.000033
N35	N	0.810976	-0.226670	0.000001
H36	H	0.719001	-0.223383	-0.000002
H37	H	0.825347	-0.205641	0.089626
H38	H	1.302838	-0.398590	-0.593806
H39	H	1.230786	0.262688	0.000041
H40	H	0.829782	-0.445466	0.000037
H41	H	1.343569	-0.376649	-0.354175
N42	N	1.660825	0.248383	0.000041
H43	H	1.695526	0.222778	0.089664
H44	H	1.723473	0.237886	-0.089650
H45	H	1.563912	-0.258033	-0.406151
H46	H	1.523201	-0.279964	-0.645777
H47	H	1.635950	0.080700	0.000025
N48	N	1.024027	-0.189009	-0.000006
H49	H	0.932052	-0.185722	-0.000009
H50	H	1.038398	-0.167980	0.089618
