data_functionalizedCrystal
_audit_creation_method	'MofGen! by Chris Wilmer'
_symmetry_space_group_name_H-M	'P1'
_symmetry_Int_Tables_number	1
_symmetry_cell_setting	triclinic
loop_
_symmetry_equiv_pos_as_xyz
  x,y,z
_cell_length_a	10.723024
_cell_length_b	19.188930
_cell_length_c	9.798715
_cell_angle_alpha	89.991738
_cell_angle_beta	89.996609
_cell_angle_gamma	83.806325
loop_
_atom_site_label
_atom_site_type_symbol
_atom_site_fract_x
_atom_site_fract_y
_atom_site_fract_z
O1	O	1.655155	0.097922	-0.113499
O2	O	1.291808	0.107295	-0.113506
O3	O	1.483967	0.001021	-0.113476
O4	O	1.462996	0.204196	-0.113529
O5	O	1.483952	0.001021	0.113507
O6	O	1.291793	0.107295	0.113477
O7	O	1.655140	0.097922	0.113483
Zn8	Zn	1.473465	0.102608	0.149518
Zn9	Zn	1.473483	0.102609	-0.149541
O10	O	1.462982	0.204196	0.113453
C11	C	1.245315	0.106613	-0.000015
C12	C	1.106803	0.104572	-0.000016
C13	C	1.483280	-0.024995	0.000019
C14	C	1.481242	-0.102512	0.000031
C15	C	1.030586	0.164037	-0.000033
C16	C	0.887427	0.161930	-0.000034
C17	C	1.593994	-0.146704	0.000040
C18	C	1.592079	-0.219540	0.000018
C19	C	1.477405	-0.248182	0.000015
C20	C	1.364638	-0.203981	-0.000001
C21	C	1.366556	-0.131146	0.000007
N22	N	1.389745	-0.356756	0.077260
N23	N	1.387931	-0.425947	0.077255
C24	C	1.471618	-0.467628	-0.000013
N25	N	1.557208	-0.437506	-0.077259
N26	N	1.559026	-0.368310	-0.077248
C27	C	1.475312	-0.327158	0.000005
C28	C	1.582302	-0.590797	-0.000030
C29	C	1.580382	-0.663634	-0.000061
C30	C	1.352937	-0.648073	-0.000066
C31	C	1.354860	-0.575238	-0.000049
C32	C	1.469546	-0.546604	-0.000025
C33	C	1.701633	0.098604	-0.000011
C34	C	1.840145	0.100645	-0.000019
C35	C	1.463668	0.230211	-0.000045
C36	C	1.465706	0.307729	-0.000066
N37	N	1.473461	0.102608	0.353618
N38	N	1.473497	0.102604	-0.353640
C39	C	1.554147	0.057789	0.421407
C40	C	1.554167	0.057787	0.578570
H41	H	0.821937	0.212836	-0.000054
C42	C	1.085608	0.234926	-0.000046
N43	N	1.127048	0.288321	-0.000057
C44	C	0.928608	0.031866	0.000004
N45	N	0.995247	-0.019938	0.000025
C46	C	1.647493	0.005948	0.657323
N47	N	1.717786	-0.033100	0.716643
H48	H	1.066070	0.052101	-0.000037
H49	H	1.259567	-0.671393	-0.000075
C50	C	1.380167	0.154444	0.567615
N51	N	1.309870	0.193490	0.508295
C52	C	1.230821	-0.526625	-0.000051
N53	N	1.137390	-0.490010	-0.000058
C54	C	1.720152	-0.115211	0.000055
N55	N	1.815176	-0.091490	0.000063
C56	C	1.716120	-0.268159	0.000036
N57	N	1.809549	-0.304777	0.000053
C58	C	1.708457	-0.559298	-0.000024
N59	N	1.803478	-0.535574	-0.000024
H60	H	1.271269	-0.227305	-0.000007
H61	H	1.274736	-0.095165	0.000000
C62	C	1.647432	0.005941	0.342633
N63	N	1.717690	-0.033116	0.283302
H64	H	1.672202	-0.699615	-0.000061
H65	H	1.404392	0.140974	0.411931
