data_functionalizedCrystal
_audit_creation_method	'MofGen! by Chris Wilmer'
_symmetry_space_group_name_H-M	'P1'
_symmetry_Int_Tables_number	1
_symmetry_cell_setting	triclinic
loop_
_symmetry_equiv_pos_as_xyz
  x,y,z
_cell_length_a	9.065215
_cell_length_b	8.559649
_cell_length_c	7.540329
_cell_angle_alpha	89.998238
_cell_angle_beta	89.997574
_cell_angle_gamma	77.396681
loop_
_atom_site_label
_atom_site_type_symbol
_atom_site_fract_x
_atom_site_fract_y
_atom_site_fract_z
O1	O	1.931011	0.233881	-0.147453
O2	O	2.264345	0.567214	0.185881
O3	O	2.597678	0.900548	0.519214
O4	O	1.499315	0.253072	-0.147460
O5	O	1.832648	0.586405	0.185873
O6	O	2.165981	0.919738	0.519207
O7	O	1.753196	0.011424	-0.147454
O8	O	2.086529	0.344758	0.185880
O9	O	2.419863	0.678091	0.519213
O10	O	1.677130	0.475528	-0.147459
O11	O	2.010464	0.808862	0.185875
O12	O	2.343797	1.142195	0.519208
O13	O	1.753183	0.011421	0.147511
O14	O	2.086516	0.344755	0.480845
O15	O	2.419849	0.678088	0.814178
O16	O	1.499301	0.253068	0.147505
O17	O	1.832635	0.586402	0.480839
O18	O	2.165968	0.919735	0.814172
O19	O	1.930998	0.233878	0.147512
O20	O	2.264332	0.567211	0.480846
O21	O	2.597665	0.900544	0.814179
Cu22	Cu	1.715149	0.243473	0.174441
Cu23	Cu	2.048482	0.576806	0.507775
Cu24	Cu	2.381815	0.910140	0.841108
Cu25	Cu	1.715164	0.243477	-0.174389
Cu26	Cu	2.048498	0.576810	0.158944
Cu27	Cu	2.381831	0.910143	0.492278
O28	O	1.677117	0.475525	0.147506
O29	O	2.010450	0.808858	0.480840
O30	O	2.343784	1.142192	0.814173
C31	C	1.444553	0.251227	0.000022
C32	C	1.777886	0.584560	0.333355
C33	C	2.111220	0.917893	0.666688
C34	C	1.281402	0.245715	0.000019
C35	C	1.614736	0.579049	0.333352
C36	C	1.948069	0.912382	0.666685
C37	C	1.758954	-0.048024	0.000026
C38	C	2.092287	0.285310	0.333359
C39	C	2.425620	0.618643	0.666692
C40	C	1.776112	-0.225156	0.000016
C41	C	2.109446	0.108178	0.333349
C42	C	2.442779	0.441511	0.666683
C43	C	1.985760	0.235723	0.000027
C44	C	2.319093	0.569056	0.333360
C45	C	2.652427	0.902389	0.666694
C46	C	2.148910	0.241234	0.000018
C47	C	2.482244	0.574567	0.333352
C48	C	2.815577	0.907901	0.666685
C49	C	1.671359	0.534973	0.000023
C50	C	2.004692	0.868307	0.333356
C51	C	2.338026	1.201640	0.666690
C52	C	1.654200	0.712105	0.000021
C53	C	1.987534	1.045439	0.333354
C54	C	2.320867	1.378772	0.666688
N55	N	1.715149	0.243469	0.419790
N56	N	2.048482	0.576803	0.753123
N57	N	2.381815	0.910136	1.086457
N58	N	1.715177	0.243468	-0.419737
N59	N	2.048511	0.576801	-0.086404
N60	N	2.381844	0.910134	0.246929
H61	H	1.893621	-0.306962	0.000032
H62	H	2.226955	0.026371	0.333366
H63	H	2.560288	0.359704	0.666699
H64	H	1.536699	-0.206097	0.000025
H65	H	1.870033	0.127236	0.333358
H66	H	2.203366	0.460569	0.666691
