data_functionalizedCrystal
_audit_creation_method	'MofGen! by Chris Wilmer'
_symmetry_space_group_name_H-M	'P1'
_symmetry_Int_Tables_number	1
_symmetry_cell_setting	triclinic
loop_
_symmetry_equiv_pos_as_xyz
  x,y,z
_cell_length_a	6.817900
_cell_length_b	11.102244
_cell_length_c	16.418042
_cell_angle_alpha	93.888670
_cell_angle_beta	103.389568
_cell_angle_gamma	108.604870
loop_
_atom_site_label
_atom_site_type_symbol
_atom_site_fract_x
_atom_site_fract_y
_atom_site_fract_z
V1	V	-4.051815	-0.176871	-0.261151
O2	O	-4.011990	0.007436	-0.256182
O3	O	-4.028995	-0.349684	-0.259363
O4	O	-4.002555	-0.174617	-0.375050
O5	O	-4.038613	-0.168842	-0.139695
V6	V	-4.532240	-0.154771	-0.246625
O7	O	-4.319870	-0.225351	-0.293017
O8	O	-4.714383	-0.106292	-0.214759
O9	O	-4.331854	0.018042	-0.248413
O10	O	-4.689462	-0.339079	-0.251594
O11	O	-4.662839	-0.162800	-0.368081
O12	O	-4.358294	-0.157025	-0.132726
C13	C	-3.880246	-0.391797	-0.255243
C14	C	-3.942869	-0.533077	-0.254540
C15	C	-3.929654	-0.581007	-0.177510
C16	C	-3.988508	-0.713757	-0.176859
C17	C	-4.073781	-0.750636	-0.330276
C18	C	-4.014942	-0.617889	-0.330926
C19	C	-3.880414	-0.559716	-0.088936
C20	C	-3.939268	-0.692465	-0.088285
C21	C	-3.846518	-0.168481	-0.402811
C22	C	-3.887696	-0.167781	-0.495924
C23	C	-4.165418	-0.172509	-0.714410
C24	C	-4.204088	-0.171840	-0.801897
C25	C	-3.837992	-0.159127	-0.793354
C26	C	-3.799321	-0.159786	-0.705868
C27	C	-3.963044	-0.166484	-0.666398
C28	C	-4.040385	-0.165156	-0.841373
C29	C	-4.082311	-0.164431	-0.936230
C30	C	-3.921115	-0.167206	-0.571534
C31	C	-4.143945	0.060148	-0.252531
C32	C	-4.060561	0.201427	-0.253239
C33	C	-4.177673	-0.163166	-0.104960
C34	C	-4.115733	-0.163859	-0.011847
H35	H	-4.025724	-0.578871	-0.393651
H36	H	-4.132468	-0.819705	-0.392466
F37	F	-4.419479	-0.178253	-0.852991
F38	F	-3.583915	-0.153371	-0.654767
H39	H	-3.986076	-0.520499	-0.058308
F40	F	-4.339665	-0.179632	-0.672406
F41	F	-3.751747	-0.722366	-0.039419
F42	F	-4.132684	-0.744370	-0.056422
F43	F	-3.647070	-0.490536	-0.048953
F44	F	-3.663767	-0.152012	-0.835369
