data_functionalizedCrystal
_audit_creation_method	'MofGen! by Chris Wilmer'
_symmetry_space_group_name_H-M	'P1'
_symmetry_Int_Tables_number	1
_symmetry_cell_setting	triclinic
loop_
_symmetry_equiv_pos_as_xyz
  x,y,z
_cell_length_a	10.489716
_cell_length_b	11.792241
_cell_length_c	10.268362
_cell_angle_alpha	89.999626
_cell_angle_beta	89.998762
_cell_angle_gamma	84.361276
loop_
_atom_site_label
_atom_site_type_symbol
_atom_site_fract_x
_atom_site_fract_y
_atom_site_fract_z
O1	O	0.174835	1.507367	-0.108161
O2	O	0.192853	1.177073	-0.108190
O3	O	-0.001782	1.349750	-0.108180
O4	O	0.369469	1.334690	-0.108172
O5	O	-0.001790	1.349735	0.108421
O6	O	0.192845	1.177058	0.108410
O7	O	0.174826	1.507352	0.108439
Cu8	Cu	0.183835	1.342203	0.128202
Cu9	Cu	0.183845	1.342221	-0.127953
O10	O	0.369461	1.334674	0.108429
C11	C	0.191717	1.134771	0.000106
C12	C	0.188329	1.008749	0.000094
C13	C	0.182100	0.778020	0.000132
C14	C	0.185561	0.906415	0.000111
C15	C	-0.049314	1.348611	0.000116
C16	C	-0.190934	1.345225	0.000104
C17	C	-0.288968	1.451116	0.000125
C18	C	-0.366134	1.395169	-0.106671
C19	C	-0.366106	1.395129	0.106880
C20	C	-0.266234	1.289322	-0.106781
C21	C	-0.266201	1.289298	0.106866
C22	C	-0.343318	1.233272	0.000043
C23	C	0.416994	1.335814	0.000130
C24	C	0.558613	1.339199	0.000133
C25	C	0.175962	1.549653	0.000140
C26	C	0.179350	1.675676	0.000143
N27	N	0.183827	1.342199	0.308368
N28	N	0.183842	1.342235	-0.308119
C29	C	0.183842	1.342215	0.574039
C30	C	0.183838	1.342203	0.426201
H31	H	-0.264606	1.543223	0.000025
H32	H	-0.409778	1.439876	-0.196954
H33	H	-0.367434	1.141096	-0.000022
H34	H	-0.222534	1.244630	0.197152
H35	H	-0.409734	1.439846	0.197166
H36	H	-0.222775	1.244652	-0.197169
