data_functionalizedCrystal
_audit_creation_method	'MofGen! by Chris Wilmer'
_symmetry_space_group_name_H-M	'P1'
_symmetry_Int_Tables_number	1
_symmetry_cell_setting	triclinic
loop_
_symmetry_equiv_pos_as_xyz
  x,y,z
_cell_length_a	10.654550
_cell_length_b	17.699083
_cell_length_c	9.730223
_cell_angle_alpha	89.997786
_cell_angle_beta	89.996251
_cell_angle_gamma	83.883958
loop_
_atom_site_label
_atom_site_type_symbol
_atom_site_fract_x
_atom_site_fract_y
_atom_site_fract_z
O1	O	1.665973	0.106299	-0.114406
O2	O	1.300318	0.116427	-0.114384
O3	O	1.493476	0.001240	-0.114384
O4	O	1.472815	0.221487	-0.114407
O5	O	1.493474	0.001243	0.114196
O6	O	1.300315	0.116430	0.114196
O7	O	1.665971	0.106302	0.114174
Zn8	Zn	1.483143	0.111366	0.150477
Zn9	Zn	1.483146	0.111363	-0.150687
O10	O	1.472813	0.221490	0.114173
C11	C	1.253531	0.115685	-0.000091
C12	C	1.114127	0.113460	-0.000083
C13	C	1.033454	0.181281	-0.000110
C14	C	0.902470	0.179185	-0.000133
C15	C	0.932845	0.041443	-0.000108
C16	C	1.063826	0.043539	-0.000075
C17	C	1.015917	0.260805	-0.000130
C18	C	0.884933	0.258710	-0.000154
C19	C	1.492735	-0.026961	-0.000093
C20	C	1.490514	-0.110993	-0.000093
C21	C	1.603894	-0.158893	-0.000097
C22	C	1.601799	-0.237850	-0.000109
C23	C	1.486324	-0.268905	-0.000107
C24	C	1.372935	-0.220998	-0.000106
C25	C	1.375031	-0.142043	-0.000104
C26	C	1.364481	-0.539415	-0.000117
C27	C	1.362394	-0.618376	-0.000115
C28	C	1.591249	-0.635222	-0.000122
C29	C	1.593345	-0.556266	-0.000120
C30	C	1.479957	-0.508367	-0.000127
C31	C	1.482229	-0.422753	-0.000116
C32	C	1.484050	-0.354517	-0.000107
C33	C	1.712757	0.107044	-0.000122
C34	C	1.852161	0.109269	-0.000140
C35	C	1.473554	0.249690	-0.000120
C36	C	1.475775	0.333722	-0.000130
N37	N	1.483150	0.111369	0.356013
N38	N	1.483149	0.111355	-0.356223
C39	C	1.568702	0.060381	0.427940
C40	C	1.568699	0.060372	0.571823
C41	C	1.397587	0.162345	0.571840
C42	C	1.397585	0.162349	0.427960
C43	C	1.667496	0.001510	0.427931
C44	C	1.667493	0.001501	0.571814
H45	H	1.129507	-0.011687	-0.000033
H46	H	1.758357	0.019944	0.383297
H47	H	1.044703	0.291908	0.095532
C48	C	1.006430	0.369506	-0.148886
C49	C	1.063465	0.294992	-0.133348
H50	H	1.035793	0.390610	-0.231127
H51	H	0.917434	0.369213	-0.153447
H52	H	1.027403	0.399231	-0.072629
H53	H	1.042485	0.265265	-0.209600
H54	H	1.152482	0.295280	-0.128798
C55	C	1.890611	-0.036515	0.576545
C56	C	1.797468	0.019003	0.624538
H57	H	1.970848	-0.025707	0.609091
H58	H	1.873567	-0.084981	0.609075
H59	H	1.890600	-0.036499	0.478917
H60	H	1.797472	0.018983	0.722167
H61	H	1.814517	0.067482	0.592015
C62	C	1.629605	-0.068975	0.775788
C63	C	1.627603	-0.072707	0.632070
H64	H	1.604968	-0.114784	0.812986
H65	H	1.712499	-0.062311	0.805920
H66	H	1.572685	-0.027304	0.805923
H67	H	1.684529	-0.114374	0.601934
H68	H	1.544696	-0.079379	0.601925
C69	C	0.803199	-0.040826	-0.117635
C70	C	0.877551	-0.035412	-0.000113
H71	H	0.769074	-0.088277	-0.117641
H72	H	0.736411	-0.000740	-0.117642
H73	H	0.853698	-0.037146	-0.197325
H74	H	0.827050	-0.039086	0.079578
H75	H	0.944348	-0.075509	-0.000094
C76	C	1.323410	0.292951	0.616149
C77	C	1.303537	0.218383	0.650923
H78	H	1.265339	0.327547	0.664963
H79	H	1.407178	0.301639	0.639739
H80	H	1.311170	0.300242	0.520162
H81	H	1.315786	0.211091	0.746909
H82	H	1.219750	0.209693	0.627342
C83	C	1.530007	-0.069112	0.295275
C84	C	1.639900	-0.077014	0.375211
H85	H	1.512971	-0.117588	0.262725
H86	H	1.461153	-0.047606	0.349523
H87	H	1.541379	-0.036793	0.219350
H88	H	1.628525	-0.109330	0.451142
H89	H	1.708770	-0.098532	0.320960
H90	H	1.272153	-0.500424	-0.000122
H91	H	0.838840	0.282744	0.098528
H92	H	0.842676	0.288672	-0.095824
H93	H	1.697927	-0.133615	-0.000091
H94	H	1.694125	-0.276847	-0.000110
C95	C	1.721688	-0.733778	-0.117648
C96	C	1.715893	-0.687874	-0.000136
H97	H	1.798640	-0.766277	-0.117655
H98	H	1.652628	-0.763571	-0.117640
H99	H	1.717748	-0.702613	-0.197345
H100	H	1.719825	-0.719038	0.079561
H101	H	1.784973	-0.658078	-0.000132
C102	C	1.819358	-0.580851	-0.000145
C103	C	1.720279	-0.522132	-0.000130
H104	H	1.897721	-0.559776	-0.000163
H105	H	1.813786	-0.611295	0.079563
H106	H	1.813769	-0.611295	-0.079860
H107	H	1.725863	-0.491690	0.079591
H108	H	1.725854	-0.491675	-0.079845
H109	H	1.278912	-0.246289	-0.000113
H110	H	1.268354	-0.643658	-0.000110
H111	H	1.282705	-0.103043	-0.000100
H112	H	1.327911	0.203861	0.369399
