data_functionalizedCrystal
_audit_creation_method	'MofGen! by Chris Wilmer'
_symmetry_space_group_name_H-M	'P1'
_symmetry_Int_Tables_number	1
_symmetry_cell_setting	triclinic
loop_
_symmetry_equiv_pos_as_xyz
  x,y,z
_cell_length_a	15.995350
_cell_length_b	15.995350
_cell_length_c	14.472310
_cell_angle_alpha	90.001162
_cell_angle_beta	90.009379
_cell_angle_gamma	96.507625
loop_
_atom_site_label
_atom_site_type_symbol
_atom_site_fract_x
_atom_site_fract_y
_atom_site_fract_z
O1	O	1.110997	-0.107921	0.076758
O2	O	1.610997	0.392079	0.576758
O3	O	0.867221	-0.121248	0.076776
O4	O	1.367221	0.378752	0.576776
O5	O	0.995773	0.007303	0.076766
O6	O	1.495773	0.507303	0.576766
O7	O	0.982445	-0.236472	0.076769
O8	O	1.482445	0.263528	0.576769
O9	O	0.995740	0.007296	-0.076916
O10	O	1.495740	0.507296	0.423084
O11	O	0.867188	-0.121256	-0.076906
O12	O	1.367188	0.378744	0.423094
O13	O	1.110963	-0.107928	-0.076924
O14	O	1.610963	0.392072	0.423076
Cu15	Cu	0.989073	-0.114593	-0.090947
Cu16	Cu	1.489073	0.385407	0.409053
Cu17	Cu	0.989112	-0.114584	0.090800
Cu18	Cu	1.489112	0.385416	0.590800
O19	O	0.982412	-0.236480	-0.076913
O20	O	1.482412	0.263520	0.423087
C21	C	0.836010	-0.120701	-0.000062
C22	C	1.336010	0.379299	0.499938
C23	C	0.743060	-0.119049	-0.000055
C24	C	1.243060	0.380951	0.499945
C25	C	0.405312	-0.113117	-0.000074
C26	C	0.905312	0.386883	0.499926
C27	C	0.452746	-0.021565	-0.000418
C28	C	0.952746	0.478435	0.499582
C29	C	0.549436	-0.023217	-0.000065
C30	C	1.049436	0.476783	0.499935
C31	C	0.572873	-0.116060	-0.000065
C32	C	1.072873	0.383940	0.499935
C33	C	0.531804	-0.161212	0.087692
C34	C	1.031804	0.338788	0.587692
C35	C	0.435169	-0.158912	0.087759
C36	C	0.935169	0.341088	0.587759
C37	C	0.434792	-0.160812	-0.087007
C38	C	0.934792	0.339188	0.412993
C39	C	0.531737	-0.160790	-0.088160
C40	C	1.031737	0.339210	0.411840
C41	C	0.667570	-0.117727	-0.000057
C42	C	1.167570	0.382273	0.499943
C43	C	0.310614	-0.111452	-0.000076
C44	C	0.810614	0.388548	0.499924
C45	C	0.995205	0.038494	-0.000073
C46	C	1.495205	0.538494	0.499927
C47	C	0.993553	0.131444	-0.000068
C48	C	1.493553	0.631444	0.499932
C49	C	1.142175	-0.108476	-0.000083
C50	C	1.642175	0.391524	0.499917
C51	C	1.235125	-0.110127	-0.000084
C52	C	1.735125	0.389873	0.499916
N53	N	0.989051	-0.114598	-0.218778
N54	N	1.489051	0.385402	0.281222
C55	C	0.982980	-0.267671	-0.000072
C56	C	1.482980	0.232329	0.499928
C57	C	0.984631	-0.360621	-0.000071
C58	C	1.484631	0.139379	0.499929
C59	C	0.987621	0.469192	-0.000071
C60	C	1.487621	0.969192	0.499929
C61	C	0.896069	0.421758	0.000281
C62	C	1.396069	0.921758	0.500281
C63	C	0.897721	0.325068	-0.000066
C64	C	1.397721	0.825068	0.499934
C65	C	0.990564	0.301631	-0.000069
C66	C	1.490564	0.801631	0.499931
C67	C	1.035701	0.342705	-0.087831
C68	C	1.535701	0.842705	0.412169
C69	C	1.033401	0.439340	-0.087904
C70	C	1.533401	0.939340	0.412096
C71	C	1.035330	0.439707	0.086861
C72	C	1.535330	0.939707	0.586861
C73	C	1.035309	0.342762	0.088021
C74	C	1.535309	0.842762	0.588021
C75	C	0.992231	0.206934	-0.000071
C76	C	1.492231	0.706934	0.499929
C77	C	0.985956	0.563890	-0.000075
C78	C	1.485956	1.063890	0.499925
C79	C	0.989111	-0.114581	-0.592869
C80	C	1.489111	0.385419	-0.092869
C81	C	0.920095	-0.183135	-0.553698
C82	C	1.420095	0.316865	-0.053698
C83	C	0.920254	-0.183385	-0.446610
C84	C	1.420254	0.316615	0.053390
C85	C	0.989081	-0.114590	-0.407278
C86	C	1.489081	0.385410	0.092722
C87	C	1.076445	-0.133671	-0.446122
C88	C	1.576445	0.366329	0.053878
C89	C	1.076057	-0.134159	-0.553243
C90	C	1.576057	0.365841	-0.053243
C91	C	0.971542	-0.026741	-0.553398
C92	C	1.471542	0.473259	-0.053398
C93	C	0.969538	-0.027327	-0.446270
C94	C	1.469538	0.472673	0.053730
C95	C	0.989069	-0.114593	-0.302390
C96	C	1.489069	0.385407	0.197610
C97	C	0.989128	-0.114579	-0.697757
C98	C	1.489128	0.385421	-0.197757
N99	N	0.989140	-0.114572	0.218631
N100	N	1.489140	0.385428	0.718631
H101	H	0.414242	-0.130885	-0.153524
H102	H	0.914242	0.369115	0.346476
H103	H	0.403031	-0.228313	-0.087600
H104	H	0.903031	0.271687	0.412400
N105	N	0.429495	0.024293	-0.079405
N106	N	0.929495	0.524293	0.420595
N107	N	0.354388	0.036283	-0.091417
N108	N	0.854388	0.536283	0.408583
H109	H	0.337968	0.068655	-0.147220
H110	H	0.837968	0.568655	0.352780
H111	H	1.005412	0.460250	0.153379
H112	H	1.505412	0.960250	0.653379
H113	H	0.862239	0.296649	0.062846
H114	H	1.362239	0.796649	0.562846
N115	N	1.121270	0.324996	-0.091955
N116	N	1.621270	0.824996	0.408045
N117	N	1.179637	0.383993	-0.091677
N118	N	1.679637	0.883993	0.408323
H119	H	1.240070	0.371485	-0.094592
H120	H	1.740070	0.871485	0.405408
H121	H	0.859490	0.440293	0.063217
H122	H	1.359490	0.940293	0.563217
H123	H	1.091540	-0.198219	-0.578220
H124	H	1.591540	0.301781	-0.078220
N125	N	0.850356	0.446341	-0.078225
N126	N	1.350356	0.946341	0.421775
N127	N	0.884911	0.498642	-0.134433
N128	N	1.384911	0.998642	0.365567
H129	H	0.852628	0.516007	-0.189879
H130	H	1.352628	1.016007	0.310121
H131	H	0.559040	-0.127830	-0.153082
H132	H	1.059040	0.372170	0.346918
N133	N	0.838372	-0.169107	-0.586069
N134	N	1.338372	0.330893	-0.086069
N135	N	0.823197	-0.169804	-0.670811
N136	N	1.323197	0.330196	-0.170811
H137	H	0.765480	-0.159893	-0.693683
H138	H	1.265480	0.340107	-0.193683
N139	N	0.567392	-0.121867	0.169636
N140	N	1.067392	0.378133	0.669636
N141	N	0.542884	-0.148766	0.247251
N142	N	1.042884	0.351234	0.747251
H143	H	0.568015	-0.120975	0.305124
H144	H	1.068015	0.379025	0.805124
H145	H	0.416874	-0.125979	0.153359
H146	H	0.916874	0.374021	0.653359
H147	H	0.433166	0.014865	0.062168
H148	H	0.933166	0.514865	0.562168
N149	N	1.142411	-0.073910	-0.585777
N150	N	1.642411	0.426090	-0.085777
N151	N	1.143295	0.001984	-0.564765
N152	N	1.643295	0.501984	-0.064765
H153	H	1.190160	0.044527	-0.587747
H154	H	1.690160	0.544527	-0.087747
N155	N	0.893331	-0.003751	-0.587301
N156	N	1.393331	0.496249	-0.087301
N157	N	0.826401	-0.049586	-0.570860
N158	N	1.326401	0.450414	-0.070860
H159	H	0.771159	-0.033359	-0.594799
H160	H	1.271159	0.466641	-0.094799
H161	H	0.577308	0.012521	0.062951
H162	H	1.077308	0.512521	0.562951
N163	N	0.933978	-0.264444	-0.587462
N164	N	1.433978	0.235556	-0.087462
N165	N	0.994481	-0.272122	-0.640249
N166	N	1.494481	0.227878	-0.140249
H167	H	1.004290	-0.329546	-0.664097
H168	H	1.504290	0.170454	-0.164097
H169	H	0.402921	-0.226128	0.091741
H170	H	0.902921	0.273872	0.591741
H171	H	0.545930	-0.229421	0.090955
H172	H	1.045930	0.270579	0.590955
H173	H	0.931473	-0.248569	-0.420976
H174	H	1.431473	0.251431	0.079024
H175	H	1.129029	-0.085068	-0.420643
H176	H	1.629029	0.414932	0.079357
H177	H	0.547101	-0.228494	-0.093461
H178	H	1.047101	0.271506	0.406539
H179	H	1.092297	-0.197002	-0.419285
H180	H	1.592297	0.302998	0.080715
H181	H	0.855314	-0.172016	-0.420349
H182	H	1.355314	0.327984	0.079651
N183	N	0.585077	0.021316	-0.078980
N184	N	1.085077	0.521316	0.421020
N185	N	0.538547	0.053839	-0.134701
N186	N	1.038547	0.553839	0.365299
H187	H	0.563715	0.085298	-0.190435
H188	H	1.063715	0.585298	0.309565
H189	H	0.905272	-0.012845	-0.420883
H190	H	1.405272	0.487155	0.079117
H191	H	0.861973	0.297200	-0.063079
H192	H	1.361973	0.797200	0.436921
N193	N	1.117712	0.479815	-0.092926
N194	N	1.617712	0.979815	0.407074
N195	N	1.131033	0.558337	-0.093879
N196	N	1.631033	1.058337	0.406121
H197	H	1.190576	0.586921	-0.097431
H198	H	1.690576	1.086921	0.402569
H199	H	1.000459	0.457639	-0.153505
H200	H	1.500459	0.957639	0.346495
H201	H	1.002307	0.315516	0.152945
H202	H	1.502307	0.815516	0.652945
H203	H	1.004324	0.314320	-0.153137
H204	H	1.504324	0.814320	0.346863
N205	N	1.028501	0.039666	-0.412676
N206	N	1.528501	0.539666	0.087324
N207	N	1.086147	0.024117	-0.359215
N208	N	1.586147	0.524117	0.140785
H209	H	1.127796	0.071429	-0.335488
H210	H	1.627796	0.571429	0.164512
N211	N	1.034682	0.037252	-0.585181
N212	N	1.534682	0.537252	-0.085181
N213	N	1.092400	0.018365	-0.636676
N214	N	1.592400	0.518365	-0.136676
H215	H	1.136995	0.063554	-0.659129
H216	H	1.636995	0.563554	-0.159129
H217	H	1.102831	0.471468	0.087449
H218	H	1.602831	0.971468	0.587449
N219	N	1.120239	0.323471	0.094669
N220	N	1.620239	0.823471	0.594669
N221	N	1.149303	0.278902	0.034319
N222	N	1.649303	0.778902	0.534319
H223	H	1.209287	0.265274	0.039010
H224	H	1.709287	0.765274	0.539010
