data_functionalizedCrystal
_audit_creation_method	'MofGen! by Chris Wilmer'
_symmetry_space_group_name_H-M	'P1'
_symmetry_Int_Tables_number	1
_symmetry_cell_setting	triclinic
loop_
_symmetry_equiv_pos_as_xyz
  x,y,z
_cell_length_a	20.453700
_cell_length_b	9.582889
_cell_length_c	9.582906
_cell_angle_alpha	89.900356
_cell_angle_beta	68.792474
_cell_angle_gamma	68.792702
loop_
_atom_site_label
_atom_site_type_symbol
_atom_site_fract_x
_atom_site_fract_y
_atom_site_fract_z
V1	V	1.385455	-0.206432	-0.466330
O2	O	1.366788	0.010562	-0.457735
O3	O	1.382158	-0.409938	-0.462869
O4	O	1.382159	-0.202975	-0.669836
O5	O	1.366787	-0.197834	-0.249335
V6	V	1.543337	-0.180511	-0.440408
O7	O	1.479762	-0.263294	-0.523190
O8	O	1.599096	-0.123649	-0.383548
O9	O	1.472232	0.022995	-0.443869
O10	O	1.601137	-0.397505	-0.449003
O11	O	1.601138	-0.189109	-0.657403
O12	O	1.472231	-0.183968	-0.236902
V13	V	1.209999	-0.180511	-0.440408
O14	O	1.228668	-0.189109	-0.657403
O15	O	1.213295	-0.183968	-0.236902
O16	O	1.213296	0.022995	-0.443869
O17	O	1.228667	-0.397505	-0.449003
V18	V	1.052117	-0.206432	-0.466330
O19	O	1.115692	-0.123649	-0.383548
O20	O	0.996358	-0.263294	-0.523190
O21	O	1.123223	-0.202975	-0.669836
O22	O	0.994316	-0.197834	-0.249335
O23	O	0.994317	0.010562	-0.457735
O24	O	1.123222	-0.409938	-0.462869
V25	V	1.718788	-0.206432	-0.466330
O26	O	1.700121	0.010562	-0.457735
O27	O	1.715491	-0.409938	-0.462869
O28	O	1.715492	-0.202975	-0.669836
O29	O	1.700120	-0.197834	-0.249335
V30	V	1.876671	-0.180511	-0.440408
O31	O	1.813095	-0.263294	-0.523190
O32	O	1.932430	-0.123649	-0.383548
O33	O	1.805566	0.022995	-0.443869
O34	O	1.934470	-0.397505	-0.449003
O35	O	1.934472	-0.189109	-0.657403
O36	O	1.805564	-0.183968	-0.236902
C37	C	1.333199	-0.459557	-0.455442
C38	C	1.357684	-0.625924	-0.453970
C39	C	1.333200	-0.195554	-0.719447
C40	C	1.357685	-0.194074	-0.885813
C41	C	1.408972	0.072606	-0.451291
C42	C	1.377567	0.238971	-0.452774
C43	C	1.408971	-0.191394	-0.187283
C44	C	1.377565	-0.192866	-0.020916
C45	C	1.262254	-0.191394	-0.187283
C46	C	1.237768	-0.192868	-0.020916
C47	C	1.262256	0.072606	-0.451292
C48	C	1.237773	0.238971	-0.452778
C49	C	1.186483	-0.195553	-0.719447
C50	C	1.217889	-0.194071	-0.885812
C51	C	1.186482	-0.459557	-0.455445
C52	C	1.217889	-0.625925	-0.453978
C53	C	1.666532	-0.459557	-0.455442
C54	C	1.691018	-0.625924	-0.453970
C55	C	1.666533	-0.195554	-0.719447
C56	C	1.691018	-0.194074	-0.885813
C57	C	1.742306	0.072606	-0.451291
C58	C	1.710900	0.238971	-0.452774
C59	C	1.742304	-0.191394	-0.187283
C60	C	1.710898	-0.192866	-0.020916
