data_functionalizedCrystal
_audit_creation_method	'MofGen! by Chris Wilmer'
_symmetry_space_group_name_H-M	'P1'
_symmetry_Int_Tables_number	1
_symmetry_cell_setting	triclinic
loop_
_symmetry_equiv_pos_as_xyz
  x,y,z
_cell_length_a	10.489711
_cell_length_b	10.489741
_cell_length_c	14.472310
_cell_angle_alpha	89.999301
_cell_angle_beta	89.985402
_cell_angle_gamma	84.533091
loop_
_atom_site_label
_atom_site_type_symbol
_atom_site_fract_x
_atom_site_fract_y
_atom_site_fract_z
O1	O	1.694092	0.179779	-0.076874
O2	O	1.322892	0.196711	-0.076868
O3	O	1.516939	0.002646	-0.076866
O4	O	1.500046	0.373844	-0.076876
O5	O	1.516888	0.002657	0.076816
O6	O	1.322842	0.196722	0.076814
O7	O	1.694042	0.179790	0.076808
Cu8	Cu	1.508437	0.188257	0.090843
Cu9	Cu	1.508497	0.188244	-0.090903
O10	O	1.499995	0.373855	0.076806
C11	C	1.275334	0.195446	-0.000027
C12	C	1.133703	0.191644	-0.000024
C13	C	0.951317	0.308348	-0.000038
C14	C	1.043487	0.250047	-0.075808
C15	C	1.043410	0.250027	0.075710
C16	C	0.973536	0.126505	-0.075877
C17	C	0.973450	0.126501	0.075710
C18	C	1.065593	0.068111	-0.000079
C19	C	1.515638	-0.044880	-0.000025
C20	C	1.511820	-0.186509	-0.000027
C21	C	1.388354	-0.254636	-0.000032
C22	C	1.446654	-0.346759	0.075741
C23	C	1.446732	-0.346745	-0.075778
C24	C	1.570171	-0.276767	0.075808
C25	C	1.570232	-0.276743	-0.075778
C26	C	1.628622	-0.368839	0.000012
C27	C	1.741600	0.181055	-0.000036
C28	C	1.883231	0.184857	-0.000044
C29	C	1.501296	0.421381	-0.000037
C30	C	1.505114	0.563010	-0.000041
N31	N	1.508405	0.188265	0.218674
N32	N	1.508539	0.188226	-0.218734
C33	C	1.508495	0.188239	0.592765
C34	C	1.404310	0.291724	0.553598
C35	C	1.404556	0.292108	0.446510
C36	C	1.508449	0.188252	0.407174
C37	C	1.641814	0.218530	0.446008
C38	C	1.641230	0.219268	0.553130
C39	C	1.480500	0.054176	0.553299
C40	C	1.477455	0.055040	0.446172
C41	C	1.508432	0.188257	0.302286
C42	C	1.508521	0.188237	0.697654
H43	H	1.286841	-0.204974	0.000046
H44	H	1.422561	0.391568	0.420873
H45	H	0.942748	0.074297	-0.140010
H46	H	1.721244	0.146930	0.579037
F47	F	1.378449	-0.387243	-0.159504
H48	H	1.305462	0.273889	0.420256
F49	F	1.130249	-0.064676	-0.000126
H50	H	1.721245	0.145212	0.420526
H51	H	1.548316	-0.025671	0.419399
H52	H	1.730226	-0.418274	0.000053
F53	F	1.274364	0.268267	0.587289
F54	F	1.638487	-0.236176	-0.159516
F55	F	1.674544	0.344925	0.410927
H56	H	0.901626	0.409850	-0.000117
H57	H	1.074345	0.302305	0.139768
H58	H	1.422073	0.390624	0.580504
F59	F	1.378346	-0.387281	0.159474
F60	F	1.579787	-0.046502	0.586404
F61	F	1.638372	-0.236474	0.159632
H62	H	1.074503	0.302299	-0.139867
F63	F	1.673231	0.347109	0.585773
H64	H	1.379344	0.032090	0.420792
F65	F	0.932870	0.058265	0.159447
F66	F	1.356039	0.016531	0.588655
