data_functionalizedCrystal
_audit_creation_method	'MofGen! by Chris Wilmer'
_symmetry_space_group_name_H-M	'P1'
_symmetry_Int_Tables_number	1
_symmetry_cell_setting	triclinic
loop_
_symmetry_equiv_pos_as_xyz
  x,y,z
_cell_length_a	18.101398
_cell_length_b	18.101395
_cell_length_c	18.101389
_cell_angle_alpha	89.983159
_cell_angle_beta	90.009745
_cell_angle_gamma	89.973339
loop_
_atom_site_label
_atom_site_type_symbol
_atom_site_fract_x
_atom_site_fract_y
_atom_site_fract_z
Zn1	Zn	1.132121	0.294995	0.418559
Zn2	Zn	1.382121	0.544995	0.668559
Zn3	Zn	1.632121	0.794995	0.918559
Zn4	Zn	1.882121	1.044995	1.168559
Zn5	Zn	1.132017	0.418821	0.294721
Zn6	Zn	1.382017	0.668821	0.544721
Zn7	Zn	1.632017	0.918821	0.794721
Zn8	Zn	1.882017	1.168821	1.044721
Zn9	Zn	1.008280	0.294988	0.294751
Zn10	Zn	1.258280	0.544988	0.544751
Zn11	Zn	1.508280	0.794988	0.794751
Zn12	Zn	1.758280	1.044988	1.044751
Zn13	Zn	1.008231	0.418790	0.418541
Zn14	Zn	1.258231	0.668790	0.668541
Zn15	Zn	1.508231	0.918790	0.918541
Zn16	Zn	1.758231	1.168790	1.168541
O17	O	1.070162	0.356898	0.356643
O18	O	1.320162	0.606898	0.606643
O19	O	1.570162	0.856898	0.856643
O20	O	1.820162	1.106898	1.106643
O21	O	1.235740	0.311437	0.402126
O22	O	1.485740	0.561437	0.652126
O23	O	1.735740	0.811437	0.902126
O24	O	1.985740	1.061437	1.152126
O25	O	1.115580	0.402404	0.191092
O26	O	1.365580	0.652404	0.441092
O27	O	1.615580	0.902404	0.691092
O28	O	1.865580	1.152404	0.941092
O29	O	1.024772	0.191356	0.311195
O30	O	1.274772	0.441356	0.561195
O31	O	1.524772	0.691356	0.811195
O32	O	1.774772	0.941356	1.061195
O33	O	1.235663	0.402411	0.311143
O34	O	1.485663	0.652411	0.561143
O35	O	1.735663	0.902411	0.811143
O36	O	1.985663	1.152411	1.061143
O37	O	1.115757	0.191361	0.402156
O38	O	1.365757	0.441361	0.652156
O39	O	1.615757	0.691361	0.902156
O40	O	1.865757	0.941361	1.152156
O41	O	1.024671	0.311425	0.191114
O42	O	1.274671	0.561425	0.441114
O43	O	1.524671	0.811425	0.691114
O44	O	1.774671	1.061425	0.941114
O45	O	0.904640	0.311395	0.311178
O46	O	1.154640	0.561395	0.561178
O47	O	1.404640	0.811395	0.811178
O48	O	1.654640	1.061395	1.061178
O49	O	1.024688	0.402358	0.522176
O50	O	1.274688	0.652358	0.772176
O51	O	1.524688	0.902358	1.022176
O52	O	1.774688	1.152358	1.272176
O53	O	0.904604	0.402351	0.402125
O54	O	1.154604	0.652351	0.652125
O55	O	1.404604	0.902351	0.902125
O56	O	1.654604	1.152351	1.152125
O57	O	1.115710	0.311407	0.522189
O58	O	1.365710	0.561407	0.772189
O59	O	1.615710	0.811407	1.022189
O60	O	1.865710	1.061407	1.272189
O61	O	1.115532	0.522450	0.311125
O62	O	1.365532	0.772450	0.561125
O63	O	1.615532	1.022450	0.811125
O64	O	1.865532	1.272450	1.061125
O65	O	1.024587	0.522427	0.402095
O66	O	1.274587	0.772427	0.652095
O67	O	1.524587	1.022427	0.902095
O68	O	1.774587	1.272427	1.152095
C69	C	0.877751	0.356869	0.356653
C70	C	1.127751	0.606869	0.606653
C71	C	1.377751	0.856869	0.856653
C72	C	1.627751	1.106869	1.106653
C73	C	0.795437	0.356875	0.356675
C74	C	1.045437	0.606875	0.606675
C75	C	1.295437	0.856875	0.856675
C76	C	1.545437	1.106875	1.106675
C77	C	1.070063	0.549309	0.356621
C78	C	1.320063	0.799309	0.606621
C79	C	1.570063	1.049309	0.856621
C80	C	1.820063	1.299309	1.106621
C81	C	1.070088	0.631623	0.356637
C82	C	1.320088	0.881623	0.606637
C83	C	1.570088	1.131623	0.856637
C84	C	1.820088	1.381623	1.106637
C85	C	1.070205	0.356880	0.549805
C86	C	1.320205	0.606880	0.799805
C87	C	1.570205	0.856880	1.049805
C88	C	1.820205	1.106880	1.299805
C89	C	1.070223	0.356872	0.632119
C90	C	1.320223	0.606872	0.882119
C91	C	1.570223	0.856872	1.132119
C92	C	1.820223	1.106872	1.382119
C93	C	0.496346	0.356918	0.356644
C94	C	0.746346	0.606918	0.606644
C95	C	0.996346	0.856918	0.856644
C96	C	1.246346	1.106918	1.106644
C97	C	0.527674	0.414422	0.413583
C98	C	0.777674	0.664422	0.663583
C99	C	1.027674	0.914422	0.913583
C100	C	1.277674	1.164422	1.163583
C101	C	0.613292	0.414242	0.413817
C102	C	0.863292	0.664242	0.663817
C103	C	1.113292	0.914242	0.913817
C104	C	1.363292	1.164242	1.163817
C105	C	0.644729	0.356897	0.356660
C106	C	0.894729	0.606897	0.606660
C107	C	1.144729	0.856897	0.856660
C108	C	1.394729	1.106897	1.106660
C109	C	0.613675	0.278899	0.377985
C110	C	0.863675	0.528899	0.627985
C111	C	1.113675	0.778899	0.877985
C112	C	1.363675	1.028899	1.127985
C113	C	0.528029	0.279244	0.378390
C114	C	0.778029	0.529244	0.628390
C115	C	1.028029	0.779244	0.878390
C116	C	1.278029	1.029244	1.128390
C117	C	0.527894	0.376725	0.278242
C118	C	0.777894	0.626725	0.528242
C119	C	1.027894	0.876725	0.778242
C120	C	1.277894	1.126725	1.028242
C121	C	0.613544	0.378437	0.278661
C122	C	0.863544	0.628437	0.528661
C123	C	1.113544	0.878437	0.778661
C124	C	1.363544	1.128437	1.028661
C125	C	0.728588	0.356881	0.356667
C126	C	0.978588	0.606881	0.606667
C127	C	1.228588	0.856881	0.856667
C128	C	1.478588	1.106881	1.106667
C129	C	0.412487	0.356930	0.356639
C130	C	0.662487	0.606930	0.606639
C131	C	0.912487	0.856930	0.856639
C132	C	1.162487	1.106930	1.106639
C133	C	1.263324	0.356928	0.356633
C134	C	1.513324	0.606928	0.606633
C135	C	1.763324	0.856928	0.856633
C136	C	2.013324	1.106928	1.106633
C137	C	1.345638	0.356941	0.356629
C138	C	1.595638	0.606941	0.606629
C139	C	1.845638	0.856941	0.856629
C140	C	2.095638	1.106941	1.106629
C141	C	1.070282	0.163736	0.356681
C142	C	1.320282	0.413736	0.606681
C143	C	1.570282	0.663736	0.856681
C144	C	1.820282	0.913736	1.106681
C145	C	1.070333	0.081422	0.356697
C146	C	1.320333	0.331422	0.606697
C147	C	1.570333	0.581422	0.856697
C148	C	1.820333	0.831422	1.106697
C149	C	1.070251	0.930714	0.356676
C150	C	1.320251	1.180714	0.606676
C151	C	1.570251	1.430714	0.856676
C152	C	1.820251	1.680714	1.106676
C153	C	1.013163	0.899405	0.414054
C154	C	1.263163	1.149405	0.664054
C155	C	1.513163	1.399405	0.914054
C156	C	1.763163	1.649405	1.164054
C157	C	1.012892	0.813787	0.413875
C158	C	1.262892	1.063787	0.663875
C159	C	1.512892	1.313787	0.913875
C160	C	1.762892	1.563787	1.163875
C161	C	1.070170	0.782331	0.356657
C162	C	1.320170	1.032331	0.606657
C163	C	1.570170	1.282331	0.856657
C164	C	1.820170	1.532331	1.106657
C165	C	1.049041	0.813467	0.278611
C166	C	1.299041	1.063467	0.528611
C167	C	1.549041	1.313467	0.778611
C168	C	1.799041	1.563467	1.028611
C169	C	1.048673	0.899112	0.278955
C170	C	1.298673	1.149112	0.528955
C171	C	1.548673	1.399112	0.778955
C172	C	1.798673	1.649112	1.028955
C173	C	1.148592	0.899067	0.376658
C174	C	1.398592	1.149067	0.626658
C175	C	1.648592	1.399067	0.876658
C176	C	1.898592	1.649067	1.126658
C177	C	1.148132	0.813417	0.378369
C178	C	1.398132	1.063417	0.628369
C179	C	1.648132	1.313417	0.878369
C180	C	1.898132	1.563417	1.128369
C181	C	1.070126	0.698472	0.356642
C182	C	1.320126	0.948472	0.606642
C183	C	1.570126	1.198472	0.856642
C184	C	1.820126	1.448472	1.106642
C185	C	1.070293	1.014573	0.356687
C186	C	1.320293	1.264573	0.606687
C187	C	1.570293	1.514573	0.856687
C188	C	1.820293	1.764573	1.106687
C189	C	1.070162	0.356864	0.164232
C190	C	1.320162	0.606864	0.414232
C191	C	1.570162	0.856864	0.664232
C192	C	1.820162	1.106864	0.914232
C193	C	1.070287	0.356663	0.081919
C194	C	1.320287	0.606663	0.331919
C195	C	1.570287	0.856663	0.581919
C196	C	1.820287	1.106663	0.831919
C197	C	1.070266	0.356733	0.931210
C198	C	1.320266	0.606733	1.181210
C199	C	1.570266	0.856733	1.431210
C200	C	1.820266	1.106733	1.681210
C201	C	1.012801	0.413775	0.899877
C202	C	1.262801	0.663775	1.149877
C203	C	1.512801	0.913775	1.399877
C204	C	1.762801	1.163775	1.649877
C205	C	1.012956	0.414040	0.814258
C206	C	1.262956	0.664040	1.064258
C207	C	1.512956	0.914040	1.314258
C208	C	1.762956	1.164040	1.564258
C209	C	1.070244	0.356802	0.782827
C210	C	1.320244	0.606802	1.032827
C211	C	1.570244	0.856802	1.282827
C212	C	1.820244	1.106802	1.532827
C213	C	1.148270	0.377992	0.813914
C214	C	1.398270	0.627992	1.063914
C215	C	1.648270	0.877992	1.313914
C216	C	1.898270	1.127992	1.563914
C217	C	1.147949	0.378366	0.899559
C218	C	1.397949	0.628366	1.149559
C219	C	1.647949	0.878366	1.399559
C220	C	1.897949	1.128366	1.649559
C221	C	1.050385	0.278374	0.899637
C222	C	1.300385	0.528374	1.149637
C223	C	1.550385	0.778374	1.399637
C224	C	1.800385	1.028374	1.649637
C225	C	1.048649	0.278826	0.813987
C226	C	1.298649	0.528826	1.063987
C227	C	1.548649	0.778826	1.313987
C228	C	1.798649	1.028826	1.563987
C229	C	1.070236	0.356839	0.698968
C230	C	1.320236	0.606839	0.948968
C231	C	1.570236	0.856839	1.198968
C232	C	1.820236	1.106839	1.448968
C233	C	1.070279	0.356697	1.015070
C234	C	1.320279	0.606697	1.265070
C235	C	1.570279	0.856697	1.515070
C236	C	1.820279	1.106697	1.765070
H237	H	0.634287	0.472083	0.400452
H238	H	0.884287	0.722083	0.650452
H239	H	1.134287	0.972083	0.900452
H240	H	1.384287	1.222083	1.150452
Cl241	Cl	1.172736	0.781997	0.467049
Cl242	Cl	1.422736	1.031997	0.717049
Cl243	Cl	1.672736	1.281997	0.967049
Cl244	Cl	1.922736	1.531997	1.217049
Cl245	Cl	0.923237	0.782239	0.393445
Cl246	Cl	1.173237	1.032239	0.643445
Cl247	Cl	1.423237	1.282239	0.893445
Cl248	Cl	1.673237	1.532239	1.143445
Cl249	Cl	1.178334	0.932352	0.463026
Cl250	Cl	1.428334	1.182352	0.713026
Cl251	Cl	1.678334	1.432352	0.963026
Cl252	Cl	1.928334	1.682352	1.213026
H253	H	1.026251	0.919965	0.472113
H254	H	1.276251	1.169965	0.722113
H255	H	1.526251	1.419965	0.972113
H256	H	1.776251	1.669965	1.222113
Cl257	Cl	1.217278	0.780348	0.318553
Cl258	Cl	1.467278	1.030348	0.568553
Cl259	Cl	1.717278	1.280348	0.818553
Cl260	Cl	1.967278	1.530348	1.068553
Cl261	Cl	0.497207	0.253307	0.466881
Cl262	Cl	0.747207	0.503307	0.716881
Cl263	Cl	0.997207	0.753307	0.966881
Cl264	Cl	1.247207	1.003307	1.216881
Cl265	Cl	0.494513	0.463029	0.248313
Cl266	Cl	0.744513	0.713029	0.498313
Cl267	Cl	0.994513	0.963029	0.748313
Cl268	Cl	1.244513	1.213029	0.998313
Cl269	Cl	0.960257	0.930049	0.252821
Cl270	Cl	1.210257	1.180049	0.502821
Cl271	Cl	1.460257	1.430049	0.752821
Cl272	Cl	1.710257	1.680049	1.002821
Cl273	Cl	0.644952	0.394009	0.503506
Cl274	Cl	0.894952	0.644009	0.753506
Cl275	Cl	1.144952	0.894009	1.003506
Cl276	Cl	1.394952	1.144009	1.253506
H277	H	1.165415	0.434665	0.792469
H278	H	1.415415	0.684665	1.042469
H279	H	1.665415	0.934665	1.292469
H280	H	1.915415	1.184665	1.542469
H281	H	1.025796	0.471503	0.921400
H282	H	1.275796	0.721503	1.171400
H283	H	1.525796	0.971503	1.421400
H284	H	1.775796	1.221503	1.671400
Cl285	Cl	1.110075	0.931094	0.210695
Cl286	Cl	1.360075	1.181094	0.460695
Cl287	Cl	1.610075	1.431094	0.710695
Cl288	Cl	1.860075	1.681094	0.960695
H289	H	0.994478	0.259069	0.921237
H290	H	1.244478	0.509069	1.171237
H291	H	1.494478	0.759069	1.421237
H292	H	1.744478	1.009069	1.671237
Cl293	Cl	1.214263	0.930340	0.312149
Cl294	Cl	1.464263	1.180340	0.562149
Cl295	Cl	1.714263	1.430340	0.812149
Cl296	Cl	1.964263	1.680340	1.062149
H297	H	1.164804	0.435648	0.919540
H298	H	1.414804	0.685648	1.169540
H299	H	1.664804	0.935648	1.419540
H300	H	1.914804	1.185648	1.669540
H301	H	0.507308	0.234865	0.338820
H302	H	0.757308	0.484865	0.588820
H303	H	1.007308	0.734865	0.838820
H304	H	1.257308	0.984865	1.088820
H305	H	0.507058	0.472452	0.400367
H306	H	0.757058	0.722452	0.650367
H307	H	1.007058	0.972452	0.900367
H308	H	1.257058	1.222452	1.150367
Cl309	Cl	1.216255	0.316966	0.931565
Cl310	Cl	1.466255	0.566966	1.181565
Cl311	Cl	1.716255	0.816966	1.431565
Cl312	Cl	1.966255	1.066966	1.681565
H313	H	1.087450	0.234070	0.792592
H314	H	1.337450	0.484070	1.042592
H315	H	1.587450	0.734070	1.292592
H316	H	1.837450	0.984070	1.542592
H317	H	0.506163	0.401485	0.471339
H318	H	0.756163	0.651485	0.721339
H319	H	1.006163	0.901485	0.971339
H320	H	1.256163	1.151485	1.221339
H321	H	0.954768	0.400650	0.920477
H322	H	1.204768	0.650650	1.170477
H323	H	1.454768	0.900650	1.420477
H324	H	1.704768	1.150650	1.670477
H325	H	1.192236	0.337751	0.793556
H326	H	1.442236	0.587751	1.043556
H327	H	1.692236	0.837751	1.293556
H328	H	1.942236	1.087751	1.543556
Cl329	Cl	1.033264	0.503705	0.782627
Cl330	Cl	1.283264	0.753705	1.032627
Cl331	Cl	1.533264	1.003705	1.282627
Cl332	Cl	1.783264	1.253705	1.532627
Cl333	Cl	0.923627	0.393563	0.781804
Cl334	Cl	1.173627	0.643563	1.031804
Cl335	Cl	1.423627	0.893563	1.281804
Cl336	Cl	1.673627	1.143563	1.531804
Cl337	Cl	0.924056	0.932738	0.393895
Cl338	Cl	1.174056	1.182738	0.643895
Cl339	Cl	1.424056	1.432738	0.893895
Cl340	Cl	1.674056	1.682738	1.143895
H341	H	0.991229	0.262847	0.793669
H342	H	1.241229	0.512847	1.043669
H343	H	1.491229	0.762847	1.293669
H344	H	1.741229	1.012847	1.543669
H345	H	1.092240	0.235875	0.919901
H346	H	1.342240	0.485875	1.169901
H347	H	1.592240	0.735875	1.419901
H348	H	1.842240	0.985875	1.669901
H349	H	0.634039	0.234893	0.337807
H350	H	0.884039	0.484893	0.587807
H351	H	1.134039	0.734893	0.837807
H352	H	1.384039	0.984893	1.087807
Cl353	Cl	0.646810	0.252488	0.465515
Cl354	Cl	0.896810	0.502488	0.715515
Cl355	Cl	1.146810	0.752488	0.965515
Cl356	Cl	1.396810	1.002488	1.215515
H357	H	0.992380	0.792075	0.261380
H358	H	1.242380	1.042075	0.511380
H359	H	1.492380	1.292075	0.761380
H360	H	1.742380	1.542075	1.011380
H361	H	0.507635	0.334839	0.235817
H362	H	0.757635	0.584839	0.485817
H363	H	1.007635	0.834839	0.735817
H364	H	1.257635	1.084839	0.985817
Cl365	Cl	0.644879	0.467057	0.253832
Cl366	Cl	0.894879	0.717057	0.503832
Cl367	Cl	1.144879	0.967057	0.753832
Cl368	Cl	1.394879	1.217057	1.003832
H369	H	0.634944	0.339594	0.233959
H370	H	0.884944	0.589594	0.483959
H371	H	1.134944	0.839594	0.733959
H372	H	1.384944	1.089594	0.983959
H373	H	1.089313	0.793092	0.234695
H374	H	1.339313	1.043092	0.484695
H375	H	1.589313	1.293092	0.734695
H376	H	1.839313	1.543092	0.984695
Cl377	Cl	1.033298	0.781280	0.503224
Cl378	Cl	1.283298	1.031280	0.753224
Cl379	Cl	1.533298	1.281280	1.003224
Cl380	Cl	1.783298	1.531280	1.253224
