data_functionalizedCrystal
_audit_creation_method	'MofGen! by Chris Wilmer'
_symmetry_space_group_name_H-M	'P1'
_symmetry_Int_Tables_number	1
_symmetry_cell_setting	triclinic
loop_
_symmetry_equiv_pos_as_xyz
  x,y,z
_cell_length_a	19.805407
_cell_length_b	19.805405
_cell_length_c	12.759393
_cell_angle_alpha	90.034941
_cell_angle_beta	90.027260
_cell_angle_gamma	90.025972
loop_
_atom_site_label
_atom_site_type_symbol
_atom_site_fract_x
_atom_site_fract_y
_atom_site_fract_z
Zn1	Zn	1.034755	-0.269437	0.594202
Zn2	Zn	1.034663	-0.382642	0.418512
Zn3	Zn	0.921563	-0.269470	0.418515
Zn4	Zn	0.921532	-0.382588	0.594127
O5	O	0.978128	-0.326034	0.506339
O6	O	1.129459	-0.284462	0.570927
O7	O	1.019635	-0.367666	0.271491
O8	O	0.936630	-0.174749	0.441853
O9	O	1.129392	-0.367633	0.441848
O10	O	1.019791	-0.174725	0.570930
O11	O	0.936541	-0.284519	0.271493
O12	O	0.826843	-0.284467	0.441780
O13	O	0.936577	-0.367541	0.741158
O14	O	0.826820	-0.367574	0.570801
O15	O	1.019761	-0.284410	0.741213
O16	O	1.019604	-0.477351	0.441775
O17	O	0.936488	-0.477311	0.570798
C18	C	0.802272	-0.326019	0.506283
C19	C	0.727040	-0.326029	0.506284
C20	C	0.265255	-0.369389	0.573482
C21	C	0.335944	-0.369388	0.573460
C22	C	0.371279	-0.326050	0.506380
C23	C	0.335921	-0.282716	0.439311
C24	C	0.265234	-0.282721	0.439328
C25	C	0.620995	-0.282695	0.439237
C26	C	0.691687	-0.282692	0.439226
C27	C	0.691704	-0.369362	0.573368
C28	C	0.621017	-0.369367	0.573386
C29	C	0.585666	-0.326036	0.506313
C30	C	0.509017	-0.326038	0.506337
C31	C	0.447926	-0.326044	0.506361
C32	C	0.978051	-0.501890	0.506301
C33	C	0.978080	-0.577122	0.506320
C34	C	1.021357	-0.612395	0.573583
C35	C	1.021381	-0.683084	0.573602
C36	C	0.978132	-0.718498	0.506353
C37	C	0.934851	-0.683220	0.439087
C38	C	0.934823	-0.612533	0.439073
C39	C	0.934959	-0.968293	0.439141
C40	C	0.934991	-1.038985	0.439157
C41	C	1.021517	-1.038844	0.573670
C42	C	1.021490	-0.968157	0.573656
C43	C	0.978206	-0.932885	0.506395
C44	C	0.978179	-0.856237	0.506376
C45	C	0.978162	-0.795145	0.506366
C46	C	1.154671	-0.326050	0.506396
C47	C	1.229903	-0.326057	0.506420
C48	C	0.978176	-0.325966	0.780372
C49	C	0.978196	-0.325937	0.897149
C50	C	0.978224	-0.149491	0.506400
C51	C	0.978265	-0.074259	0.506426
C52	C	0.978120	-0.326053	0.233372
C53	C	0.978231	-0.325892	0.116596
C54	C	1.021516	-0.282646	0.952042
C55	C	1.021532	-0.282622	1.061766
C56	C	0.934906	-0.369184	1.061695
C57	C	0.934887	-0.369205	0.951973
C58	C	1.071531	-0.232672	0.952084
C59	C	1.071547	-0.232647	1.061808
H60	H	1.056578	-0.583566	0.628340
H61	H	0.899644	-0.404410	1.106346
C62	C	0.730589	-0.417033	0.647143
H63	H	0.699419	-0.442838	0.687103
H64	H	0.758136	-0.446495	0.606871
H65	H	0.758192	-0.391169	0.692987
H66	H	0.364724	-0.404675	0.628066
H67	H	0.592251	-0.404655	0.628013
C68	C	0.730554	-0.235022	0.365430
H69	H	0.699377	-0.209220	0.325479
H70	H	0.758156	-0.205558	0.405692
H71	H	0.758101	-0.260886	0.319578
H72	H	1.056709	-0.939325	0.628413
C73	C	0.887359	-0.929503	0.365142
H74	H	0.861613	-0.960720	0.325085
H75	H	0.857839	-0.901932	0.405270
H76	H	0.913263	-0.901930	0.319398
C77	C	0.887279	-0.722173	0.365111
H78	H	0.893498	-0.769324	0.374743
H79	H	0.841791	-0.710622	0.380409
H80	H	0.897211	-0.710611	0.294532
C81	C	0.887220	-0.573732	0.365083
H82	H	0.861470	-0.604946	0.325027
H83	H	0.857705	-0.546163	0.405222
H84	H	0.913120	-0.546157	0.319337
H85	H	0.592221	-0.247415	0.384618
C86	C	0.226393	-0.417038	0.647308
H87	H	0.257574	-0.442841	0.687248
H88	H	0.198858	-0.391161	0.693152
H89	H	0.198779	-0.446512	0.607072
C90	C	1.052597	-0.161866	0.911874
H91	H	1.052592	-0.161882	0.837417
H92	H	1.008929	-0.150144	0.936675
H93	H	1.084601	-0.129889	0.936713
C94	C	0.887223	-0.416812	0.891594
H95	H	0.861436	-0.442578	0.939962
H96	H	0.857745	-0.390915	0.848801
H97	H	0.913084	-0.446322	0.848781
H98	H	1.056626	-0.711800	0.628366
H99	H	0.364697	-0.247433	0.384688
H100	H	0.236451	-0.247433	0.384722
H101	H	1.121308	-0.251464	0.918058
H102	H	1.056758	-1.067571	0.628441
H103	H	0.899770	-1.067817	0.384393
H104	H	1.052801	-0.182842	1.095856
H105	H	1.123966	-0.246688	1.091597
