data_functionalizedCrystal
_audit_creation_method	'MofGen! by Chris Wilmer'
_symmetry_space_group_name_H-M	'P1'
_symmetry_Int_Tables_number	1
_symmetry_cell_setting	triclinic
loop_
_symmetry_equiv_pos_as_xyz
  x,y,z
_cell_length_a	19.077068
_cell_length_b	19.077142
_cell_length_c	19.805399
_cell_angle_alpha	92.317588
_cell_angle_beta	92.269429
_cell_angle_gamma	89.885450
loop_
_atom_site_label
_atom_site_type_symbol
_atom_site_fract_x
_atom_site_fract_y
_atom_site_fract_z
Zn1	Zn	-0.323010	-1.062983	-0.436221
Zn2	Zn	-0.440515	-1.058172	-0.327382
Zn3	Zn	-0.318299	-0.945477	-0.318328
Zn4	Zn	-0.435750	-0.940718	-0.435811
O5	O	-0.379393	-1.001838	-0.379435
O6	O	-0.342563	-1.160676	-0.425744
O7	O	-0.424326	-1.043200	-0.231464
O8	O	-0.220594	-0.965070	-0.330349
O9	O	-0.428894	-1.157141	-0.345781
O10	O	-0.224055	-1.051401	-0.416965
O11	O	-0.334534	-0.960404	-0.224812
O12	O	-0.329913	-0.846515	-0.329951
O13	O	-0.420771	-0.956959	-0.530582
O14	O	-0.416203	-0.843018	-0.416265
O15	O	-0.337942	-1.046787	-0.530883
O16	O	-0.538213	-1.038586	-0.345383
O17	O	-0.534712	-0.952294	-0.425045
C18	C	-0.372030	-0.819270	-0.372081
C19	C	-0.368897	-0.741166	-0.368952
C20	C	-0.412420	-0.702668	-0.412355
C21	C	-0.409467	-0.629282	-0.409418
C22	C	-0.362994	-0.594395	-0.363073
C23	C	-0.319467	-0.632898	-0.319668
C24	C	-0.322417	-0.706283	-0.322609
C25	C	-0.349343	-0.375110	-0.349468
C26	C	-0.346398	-0.301720	-0.346529
C27	C	-0.436398	-0.298109	-0.436280
C28	C	-0.439347	-0.371495	-0.439214
C29	C	-0.395817	-0.409992	-0.395811
N30	N	-0.359976	-0.519382	-0.360068
N31	N	-0.398832	-0.485004	-0.398820
C32	C	-0.561959	-0.994420	-0.386167
C33	C	-0.640064	-0.991311	-0.389072
C34	C	-0.678559	-1.034814	-0.348999
C35	C	-0.751947	-1.031894	-0.351735
C36	C	-0.786838	-0.985468	-0.394542
C37	C	-0.748338	-0.941964	-0.434620
C38	C	-0.674952	-0.944888	-0.431887
C39	C	-1.006127	-0.971904	-0.407164
C40	C	-1.079519	-0.968982	-0.409893
C41	C	-1.083122	-1.058914	-0.327009
C42	C	-1.009734	-1.061830	-0.324276
C43	C	-0.971240	-1.018329	-0.364357
N44	N	-0.861852	-0.982480	-0.397339
N45	N	-0.896228	-1.021321	-0.361563
C46	C	-0.196116	-1.009303	-0.372693
C47	C	-0.118014	-1.012484	-0.369820
C48	C	-0.379351	-1.001879	-0.555978
C49	C	-0.379332	-1.001896	-0.631210
C50	C	-0.386782	-0.185118	-0.386810
C51	C	-0.389921	-0.263222	-0.389932
C52	C	-0.336201	-1.048671	-0.666712
C53	C	-0.336181	-1.048679	-0.737400
C54	C	-0.379296	-1.001915	-0.772585
C55	C	-0.422430	-0.955136	-0.737078
C56	C	-0.422446	-0.955125	-0.666391
C57	C	-0.422366	-0.955178	-1.022150
C58	C	-0.422348	-0.955194	-1.092842
C59	C	-0.336101	-1.048732	-1.093160
C60	C	-0.336117	-1.048721	-1.022473
C61	C	-0.379247	-1.001940	-0.986972
C62	C	-0.379268	-1.001930	-0.910324
C63	C	-0.379280	-1.001927	-0.849232
C64	C	-0.379387	-1.001839	-0.203579
C65	C	-0.379212	-1.001966	-0.128346
H66	H	-0.308546	-0.273317	-0.308793
H67	H	-1.114471	-1.094331	-0.294378
C68	C	-0.315849	-0.789180	-0.234526
C69	C	-0.274579	-0.748607	-0.274899
H70	H	-0.286313	-0.815311	-0.205076
H71	H	-0.345270	-0.759299	-0.208566
H72	H	-0.343947	-0.820453	-0.262557
H73	H	-0.246486	-0.717330	-0.246867
H74	H	-0.245147	-0.778491	-0.300860
C75	C	-0.297926	-1.090190	-0.558497
C76	C	-0.288804	-1.100073	-0.628040
H77	H	-0.268665	-1.121926	-0.534625
H78	H	-0.285742	-1.043399	-0.544634
H79	H	-0.345556	-1.098553	-0.549069
H80	H	-0.241175	-1.091704	-0.637468
H81	H	-0.300984	-1.146875	-0.641908
C82	C	-0.599762	-1.132627	-0.340396
C83	C	-0.640208	-1.085846	-0.301943
H84	H	-0.576085	-1.164131	-0.311344
H85	H	-0.629429	-1.158347	-0.372047
H86	H	-0.566333	-1.107129	-0.363866
H87	H	-0.673641	-1.111344	-0.278476
H88	H	-0.610538	-1.060124	-0.270279
C89	C	-0.425625	-0.784838	-0.507056
C90	C	-0.463504	-0.741015	-0.463299
H91	H	-0.457164	-0.808513	-0.538505
H92	H	-0.393901	-0.757461	-0.530717
H93	H	-0.400132	-0.818267	-0.481618
H94	H	-0.488994	-0.707582	-0.488736
H95	H	-0.495240	-0.768394	-0.439636
H96	H	-0.301010	-1.086803	-0.993829
C97	C	-0.306668	-1.169118	-1.118469
C98	C	-0.288685	-1.100151	-1.132186
H99	H	-0.277399	-1.200861	-1.142565
H100	H	-0.300507	-1.175800	-1.071341
H101	H	-0.354293	-1.177470	-1.132211
H102	H	-0.241061	-1.091798	-1.118440
H103	H	-0.294840	-1.093466	-1.179324
C104	C	-0.260088	-0.371298	-0.260460
C105	C	-0.301497	-0.417420	-0.301759
H106	H	-0.230550	-0.397422	-0.231004
H107	H	-0.232106	-0.343776	-0.287858
H108	H	-0.289526	-0.341424	-0.234501
H109	H	-0.272059	-0.447290	-0.327722
H110	H	-0.329480	-0.444954	-0.274358
C111	C	-0.274982	-0.522009	-0.275308
C112	C	-0.268380	-0.594552	-0.268727
H113	H	-0.243445	-0.498338	-0.243855
H114	H	-0.264280	-0.510421	-0.319939
H115	H	-0.321699	-0.508068	-0.266582
H116	H	-0.221664	-0.608493	-0.277458
H117	H	-0.279078	-0.606144	-0.224086
H118	H	-0.783286	-1.067317	-0.319102
H119	H	-0.444909	-0.597940	-0.444761
H120	H	-0.457459	-0.917111	-1.121488
H121	H	-1.107925	-0.931185	-0.444764
C122	C	-0.830423	-0.928859	-0.528330
C123	C	-0.786692	-0.890931	-0.481674
H124	H	-0.854103	-0.897350	-0.557375
H125	H	-0.802984	-0.960593	-0.554409
H126	H	-0.863849	-0.954346	-0.504846
H127	H	-0.753262	-0.865448	-0.505158
H128	H	-0.814133	-0.859184	-0.455592
C129	C	-1.009946	-0.882702	-0.489347
C130	C	-0.963821	-0.924075	-0.451207
H131	H	-0.983824	-0.853167	-0.516532
H132	H	-1.039753	-0.912160	-0.517563
H133	H	-1.037536	-0.854710	-0.459810
H134	H	-0.936234	-0.952070	-0.480744
H135	H	-0.934002	-0.894613	-0.422988
H136	H	-0.643610	-0.909464	-0.464520
C137	C	-0.250941	-1.141148	-0.730615
C138	C	-0.288774	-1.100099	-0.776425
H139	H	-0.221676	-1.172897	-0.754709
H140	H	-0.222832	-1.111626	-0.700822
H141	H	-0.282657	-1.166769	-0.705254
H142	H	-0.257057	-1.074474	-0.801782
H143	H	-0.316885	-1.129625	-0.806229
H144	H	-0.981327	-1.099634	-0.289419
H145	H	-0.457496	-0.917096	-0.993254
H146	H	-0.457533	-0.917058	-0.765731
H147	H	-0.457560	-0.917030	-0.637485
H148	H	-0.471837	-0.266757	-0.471617
C149	C	-0.528007	-0.360552	-0.527638
C150	C	-0.490429	-0.409841	-0.490160
H151	H	-0.559542	-0.384227	-0.559091
H152	H	-0.553692	-0.330827	-0.497948
H153	H	-0.496270	-0.333181	-0.551303
H154	H	-0.522166	-0.437208	-0.466491
H155	H	-0.464743	-0.439578	-0.519854
