data_functionalizedCrystal
_audit_creation_method	'MofGen! by Chris Wilmer'
_symmetry_space_group_name_H-M	'P1'
_symmetry_Int_Tables_number	1
_symmetry_cell_setting	triclinic
loop_
_symmetry_equiv_pos_as_xyz
  x,y,z
_cell_length_a	14.519709
_cell_length_b	19.288865
_cell_length_c	18.366186
_cell_angle_alpha	90.011479
_cell_angle_beta	90.003429
_cell_angle_gamma	83.408197
loop_
_atom_site_label
_atom_site_type_symbol
_atom_site_fract_x
_atom_site_fract_y
_atom_site_fract_z
O1	O	-1.223296	-0.091051	-0.060464
O2	O	-0.954751	-0.101773	-0.060487
O3	O	-1.096783	0.004690	-0.060460
O4	O	-1.081264	-0.197514	-0.060490
O5	O	-1.096759	0.004696	0.060639
O6	O	-0.954727	-0.101768	0.060613
O7	O	-1.223272	-0.091046	0.060636
Zn8	Zn	-1.088995	-0.096406	0.079851
Zn9	Zn	-1.089027	-0.096413	-0.079702
O10	O	-1.081240	-0.197509	0.060609
C11	C	-1.096272	0.030571	0.000092
C12	C	-1.094773	0.107680	0.000098
C13	C	-0.920382	-0.101271	0.000060
C14	C	-0.818010	-0.099773	0.000052
C15	C	-1.257640	-0.091548	0.000087
C16	C	-1.360012	-0.093045	0.000091
C17	C	-0.443150	-0.094261	0.000086
C18	C	-0.547448	-0.095792	0.000076
C19	C	-0.630577	-0.097017	0.000068
C20	C	-0.734882	-0.098548	0.000060
C21	C	-1.081751	-0.223390	0.000056
C22	C	-1.083250	-0.300499	0.000045
N23	N	-1.088981	-0.096401	0.188742
C24	C	-1.178111	0.152077	0.000109
C25	C	-1.176702	0.224529	0.000097
C26	C	-1.091951	0.252581	0.000089
C27	C	-1.008602	0.208175	0.000074
C28	C	-1.010013	0.135725	0.000079
C29	C	-1.025319	0.361110	0.042502
C30	C	-1.023911	0.433560	0.042502
C31	C	-1.087597	0.476043	0.000073
C32	C	-1.152705	0.446068	-0.042348
C33	C	-1.154116	0.373618	-0.042343
C34	C	-1.090412	0.331141	0.000084
C35	C	-1.169414	0.599000	0.000070
C36	C	-1.168002	0.671454	0.000054
C37	C	-0.999899	0.655098	0.000038
C38	C	-1.001314	0.582647	0.000047
C39	C	-1.086073	0.554602	0.000066
N40	N	-1.089049	-0.096413	-0.188594
C41	C	-1.151893	-0.049282	0.226855
C42	C	-1.151899	-0.049279	0.303082
C43	C	-1.089001	-0.096406	0.341195
C44	C	-1.026077	-0.143529	0.303074
C45	C	-1.026067	-0.143526	0.226847
C46	C	-1.076656	-0.159650	0.461945
C47	C	-1.076672	-0.159654	0.538170
C48	C	-1.089027	-0.096415	0.576303
C49	C	-1.101385	-0.033170	0.538201
C50	C	-1.101375	-0.033167	0.461974
C51	C	-1.089005	-0.096415	0.423850
C52	C	-1.151949	-0.049289	0.697070
C53	C	-1.151949	-0.049285	0.773299
C54	C	-1.026131	-0.143541	0.773289
C55	C	-1.026128	-0.143539	0.697061
C56	C	-1.089041	-0.096414	0.658956
H57	H	-1.247128	0.129248	0.000122
C58	C	-1.221136	0.002553	0.655148
H59	H	-1.212127	-0.004199	0.604291
H60	H	-1.211314	0.048925	0.667653
H61	H	-1.282656	-0.005095	0.667631
H62	H	-0.930893	0.677938	0.000028
H63	H	-1.066616	-0.211151	0.569187
C64	C	-1.222768	0.492787	-0.089021
H65	H	-1.261749	0.464560	-0.114277
H66	H	-1.190348	0.517941	-0.123144
H67	H	-1.259449	0.524678	-0.058425
C68	C	-0.952296	0.466529	0.089158
H69	H	-0.960583	0.515762	0.083086
H70	H	-0.891518	0.448716	0.074229
H71	H	-0.960618	0.455454	0.138949
H72	H	-0.974915	-0.181911	0.804320
H73	H	-0.974835	-0.181896	0.195816
H74	H	-1.238430	0.576166	0.000082
H75	H	-1.066579	-0.211150	0.430904
C76	C	-0.955259	0.314386	0.089177
H77	H	-0.916292	0.342613	0.114447
H78	H	-0.918578	0.282493	0.058589
H79	H	-0.987692	0.289234	0.123300
H80	H	-0.974863	-0.181900	0.334109
H81	H	-1.235869	0.707601	0.000058
H82	H	-0.939597	0.231020	0.000066
C83	C	-0.918337	0.086887	0.000074
H84	H	-0.867659	0.113967	0.000071
H85	H	-0.915402	0.058270	-0.042152
H86	H	-0.915388	0.058298	0.042313
C87	C	-1.221085	0.002561	0.184943
H88	H	-1.258549	0.030628	0.218564
H89	H	-1.259363	-0.022485	0.155192
H90	H	-1.188023	0.031536	0.155224
H91	H	-0.933451	0.546498	0.000042
C92	C	-1.221106	0.002553	0.345015
H93	H	-1.258576	0.030616	0.311403
H94	H	-1.188063	0.031522	0.374765
H95	H	-1.259391	-0.022509	0.374737
C96	C	-1.114969	0.036396	0.580135
H97	H	-1.113193	0.027339	0.630990
H98	H	-1.173231	0.061070	0.567646
H99	H	-1.066845	0.063690	0.567651
H100	H	-1.111435	0.018329	0.430955
H101	H	-1.203177	-0.010912	0.804331
C102	C	-1.268375	0.273377	0.000114
H103	H	-1.255393	0.320542	0.000105
H104	H	-1.303127	0.264872	0.042350
H105	H	-1.303154	0.264857	-0.042115
H106	H	-1.207127	0.349216	-0.076885
C107	C	-0.956933	-0.195378	0.655136
H108	H	-0.919478	-0.223450	0.688749
H109	H	-0.918647	-0.170329	0.625409
H110	H	-0.989989	-0.224349	0.625390
