data_functionalizedCrystal
_audit_creation_method	'MofGen! by Chris Wilmer'
_symmetry_space_group_name_H-M	'P1'
_symmetry_Int_Tables_number	1
_symmetry_cell_setting	triclinic
loop_
_symmetry_equiv_pos_as_xyz
  x,y,z
_cell_length_a	18.050591
_cell_length_b	18.050589
_cell_length_c	18.050582
_cell_angle_alpha	90.018205
_cell_angle_beta	89.979078
_cell_angle_gamma	89.975773
loop_
_atom_site_label
_atom_site_type_symbol
_atom_site_fract_x
_atom_site_fract_y
_atom_site_fract_z
Zn1	Zn	1.135293	0.295786	-0.420054
Zn2	Zn	1.385293	0.545786	-0.170054
Zn3	Zn	1.635293	0.795786	0.079946
Zn4	Zn	1.885293	1.045786	0.329946
Zn5	Zn	1.135203	0.419969	-0.295873
Zn6	Zn	1.385203	0.669969	-0.045873
Zn7	Zn	1.635203	0.919969	0.204127
Zn8	Zn	1.885203	1.169969	0.454127
Zn9	Zn	1.011112	0.295789	-0.295865
Zn10	Zn	1.261112	0.545789	-0.045865
Zn11	Zn	1.511112	0.795789	0.204135
Zn12	Zn	1.761112	1.045789	0.454135
Zn13	Zn	1.011060	0.419930	-0.420009
Zn14	Zn	1.261060	0.669930	-0.170009
Zn15	Zn	1.511060	0.919930	0.079991
Zn16	Zn	1.761060	1.169930	0.329991
O17	O	1.073167	0.357868	-0.357950
O18	O	1.323167	0.607868	-0.107950
O19	O	1.573167	0.857868	0.142050
O20	O	1.823167	1.107868	0.392050
O21	O	1.239205	0.312274	-0.403603
O22	O	1.489205	0.562274	-0.153603
O23	O	1.739205	0.812274	0.096397
O24	O	1.989205	1.062274	0.346397
O25	O	1.118727	0.403514	-0.191948
O26	O	1.368727	0.653514	0.058052
O27	O	1.618727	0.903514	0.308052
O28	O	1.868727	1.153514	0.558052
O29	O	1.027644	0.191864	-0.312354
O30	O	1.277644	0.441864	-0.062354
O31	O	1.527644	0.691864	0.187646
O32	O	1.777644	0.941864	0.437646
O33	O	1.239140	0.403511	-0.312369
O34	O	1.489140	0.653511	-0.062369
O35	O	1.739140	0.903511	0.187631
O36	O	1.989140	1.153511	0.437631
O37	O	1.118879	0.191862	-0.403595
O38	O	1.368879	0.441862	-0.153595
O39	O	1.618879	0.691862	0.096405
O40	O	1.868879	0.941862	0.346405
O41	O	1.027557	0.312279	-0.191942
O42	O	1.277557	0.562279	0.058058
O43	O	1.527557	0.812279	0.308058
O44	O	1.777557	1.062279	0.558058
O45	O	0.907180	0.312241	-0.312311
O46	O	1.157180	0.562241	-0.062311
O47	O	1.407180	0.812241	0.187689
O48	O	1.657180	1.062241	0.437689
O49	O	1.027555	0.403444	-0.523940
O50	O	1.277555	0.653444	-0.273940
O51	O	1.527555	0.903444	-0.023940
O52	O	1.777555	1.153444	0.226060
O53	O	0.907142	0.403447	-0.403519
O54	O	1.157142	0.653447	-0.153519
O55	O	1.407142	0.903447	0.096481
O56	O	1.657142	1.153447	0.346481
O57	O	1.118828	0.312236	-0.523973
O58	O	1.368828	0.562236	-0.273973
O59	O	1.618828	0.812236	-0.023973
O60	O	1.868828	1.062236	0.226027
O61	O	1.118676	0.523888	-0.312325
O62	O	1.368676	0.773888	-0.062325
O63	O	1.618676	1.023888	0.187675
O64	O	1.868676	1.273888	0.437675
O65	O	1.027468	0.523860	-0.403527
O66	O	1.277468	0.773860	-0.153527
O67	O	1.527468	1.023860	0.096473
O68	O	1.777468	1.273860	0.346473
C69	C	1.073077	0.550820	-0.357938
C70	C	1.323077	0.800820	-0.107938
C71	C	1.573077	1.050820	0.142062
C72	C	1.823077	1.300820	0.392062
C73	C	1.073107	0.633366	-0.357958
C74	C	1.323107	0.883366	-0.107958
C75	C	1.573107	1.133366	0.142042
C76	C	1.823107	1.383366	0.392042
C77	C	0.880215	0.357841	-0.357909
C78	C	1.130215	0.607841	-0.107909
C79	C	1.380215	0.857841	0.142091
C80	C	1.630215	1.107841	0.392091
C81	C	0.797669	0.357847	-0.357909
C82	C	1.047669	0.607847	-0.107909
C83	C	1.297669	0.857847	0.142091
C84	C	1.547669	1.107847	0.392091
C85	C	1.073196	0.357835	-0.551656
C86	C	1.323196	0.607835	-0.301656
C87	C	1.573196	0.857835	-0.051656
C88	C	1.823196	1.107835	0.198344
C89	C	1.073208	0.357821	-0.634202
C90	C	1.323208	0.607821	-0.384202
C91	C	1.573208	0.857821	-0.134202
C92	C	1.823208	1.107821	0.115798
C93	C	0.598217	0.308191	-0.308425
C94	C	0.848217	0.558191	-0.058425
C95	C	1.098217	0.808191	0.191575
C96	C	1.348217	1.058191	0.441575
C97	C	0.548798	0.375927	-0.290154
C98	C	0.798798	0.625927	-0.040154
C99	C	1.048798	0.875927	0.209846
C100	C	1.298798	1.125927	0.459846
C101	C	0.646539	0.357869	-0.357943
C102	C	0.896539	0.607869	-0.107943
C103	C	1.146539	0.857869	0.142057
C104	C	1.396539	1.107869	0.392057
C105	C	0.548877	0.290157	-0.376212
C106	C	0.798877	0.540157	-0.126212
C107	C	1.048877	0.790157	0.123788
C108	C	1.298877	1.040157	0.373788
C109	C	0.500553	0.357885	-0.357974
C110	C	0.750553	0.607885	-0.107974
C111	C	1.000553	0.857885	0.142026
C112	C	1.250553	1.107885	0.392026
C113	C	0.598206	0.425641	-0.339637
C114	C	0.848206	0.675641	-0.089637
C115	C	1.098206	0.925641	0.160363
C116	C	1.348206	1.175641	0.410363
C117	C	0.598289	0.339825	-0.425726
C118	C	0.848289	0.589825	-0.175726
C119	C	1.098289	0.839825	0.074274
C120	C	1.348289	1.089825	0.324274
C121	C	0.548892	0.407607	-0.407481
C122	C	0.798892	0.657607	-0.157481
C123	C	1.048892	0.907607	0.092519
C124	C	1.298892	1.157607	0.342519
C125	C	0.730637	0.357859	-0.357923
C126	C	0.980637	0.607859	-0.107923
C127	C	1.230637	0.857859	0.142077
C128	C	1.480637	1.107859	0.392077
C129	C	0.416457	0.357903	-0.357994
C130	C	0.666457	0.607903	-0.107994
C131	C	0.916457	0.857903	0.142006
C132	C	1.166457	1.107903	0.392006
C133	C	1.266872	0.357897	-0.357992
C134	C	1.516872	0.607897	-0.107992
C135	C	1.766872	0.857897	0.142008
C136	C	2.016872	1.107897	0.392008
C137	C	1.349418	0.357909	-0.358010
C138	C	1.599418	0.607909	-0.108010
C139	C	1.849418	0.857909	0.141990
C140	C	2.099418	1.107909	0.391990
C141	C	1.073277	0.164163	-0.357979
C142	C	1.323277	0.414163	-0.107979
C143	C	1.573277	0.664163	0.142021
C144	C	1.823277	0.914163	0.392021
C145	C	1.073324	0.081617	-0.357991
C146	C	1.323324	0.331617	-0.107991
C147	C	1.573324	0.581617	0.142009
C148	C	1.823324	0.831617	0.392009
C149	C	1.023557	0.832828	-0.407536
C150	C	1.273557	1.082828	-0.157536
C151	C	1.523557	1.332828	0.092464
C152	C	1.773557	1.582828	0.342464
C153	C	1.005459	0.882261	-0.339767
C154	C	1.255459	1.132261	-0.089767
C155	C	1.505459	1.382261	0.160233
C156	C	1.755459	1.632261	0.410233
C157	C	1.073180	0.784497	-0.357967
C158	C	1.323180	1.034497	-0.107967
C159	C	1.573180	1.284497	0.142033
C160	C	1.823180	1.534497	0.392033
C161	C	1.091314	0.882146	-0.425744
C162	C	1.341314	1.132146	-0.175744
C163	C	1.591314	1.382146	0.074256
C164	C	1.841314	1.632146	0.324256
C165	C	1.073249	0.930482	-0.357983
C166	C	1.323249	1.180482	-0.107983
C167	C	1.573249	1.430482	0.142017
C168	C	1.823249	1.680482	0.392017
C169	C	1.055046	0.832842	-0.290162
C170	C	1.305046	1.082842	-0.040162
C171	C	1.555046	1.332842	0.209838
C172	C	1.805046	1.582842	0.459838
C173	C	1.140933	0.832722	-0.376186
C174	C	1.390933	1.082722	-0.126186
C175	C	1.640933	1.332722	0.123814
C176	C	1.890933	1.582722	0.373814
C177	C	1.122861	0.882133	-0.308370
C178	C	1.372861	1.132133	-0.058370
C179	C	1.622861	1.382133	0.191630
C180	C	1.872861	1.632133	0.441630
C181	C	1.073138	0.700398	-0.357959
C182	C	1.323138	0.950398	-0.107959
C183	C	1.573138	1.200398	0.142041
C184	C	1.823138	1.450398	0.392041
C185	C	1.073291	1.014578	-0.357983
C186	C	1.323291	1.264578	-0.107983
C187	C	1.573291	1.514578	0.142017
C188	C	1.823291	1.764578	0.392017
C189	C	1.023612	0.407353	-0.833635
C190	C	1.273612	0.657353	-0.583635
C191	C	1.523612	0.907353	-0.333635
C192	C	1.773612	1.157353	-0.083635
C193	C	1.091367	0.425511	-0.883034
C194	C	1.341367	0.675511	-0.633034
C195	C	1.591367	0.925511	-0.383034
C196	C	1.841367	1.175511	-0.133034
C197	C	1.073245	0.357765	-0.785332
C198	C	1.323245	0.607765	-0.535332
C199	C	1.573245	0.857765	-0.285332
C200	C	1.823245	1.107765	-0.035332
C201	C	1.005527	0.339586	-0.883014
C202	C	1.255527	0.589586	-0.633014
C203	C	1.505527	0.839586	-0.383014
C204	C	1.755527	1.089586	-0.133014
C205	C	1.073274	0.357711	-0.931317
C206	C	1.323274	0.607711	-0.681317
C207	C	1.573274	0.857711	-0.431317
C208	C	1.823274	1.107711	-0.181317
C209	C	1.141036	0.375958	-0.833645
C210	C	1.391036	0.625958	-0.583645
C211	C	1.641036	0.875958	-0.333645
C212	C	1.891036	1.125958	-0.083645
C213	C	1.055150	0.290002	-0.833620
C214	C	1.305150	0.540002	-0.583620
C215	C	1.555150	0.790002	-0.333620
C216	C	1.805150	1.040002	-0.083620
C217	C	1.122952	0.308134	-0.882998
C218	C	1.372952	0.558134	-0.632998
C219	C	1.622952	0.808134	-0.382998
C220	C	1.872952	1.058134	-0.132998
C221	C	1.073227	0.357797	-0.701234
C222	C	1.323227	0.607797	-0.451234
C223	C	1.573227	0.857797	-0.201234
C224	C	1.823227	1.107797	0.048766
C225	C	1.073300	0.357679	-1.015414
C226	C	1.323300	0.607679	-0.765414
C227	C	1.573300	0.857679	-0.515414
C228	C	1.823300	1.107679	-0.265414
C229	C	1.073181	0.357848	-0.164998
C230	C	1.323181	0.607848	0.085002
C231	C	1.573181	0.857848	0.335002
C232	C	1.823181	1.107848	0.585002
C233	C	1.073312	0.357652	-0.082453
C234	C	1.323312	0.607652	0.167547
C235	C	1.573312	0.857652	0.417547
C236	C	1.823312	1.107652	0.667547
H237	H	0.619875	0.266226	-0.266503
H238	H	0.869875	0.516226	-0.016503
H239	H	1.119875	0.766226	0.233497
H240	H	1.369875	1.016226	0.483497
H241	H	0.619785	0.482928	-0.324134
H242	H	0.869785	0.732928	-0.074134
H243	H	1.119785	0.982928	0.175866
H244	H	1.369785	1.232928	0.425866
H245	H	1.039807	0.232736	-0.811899
H246	H	1.289807	0.482736	-0.561899
H247	H	1.539807	0.732736	-0.311899
H248	H	1.789807	0.982736	-0.061899
H249	H	0.527370	0.449673	-0.449370
H250	H	0.777370	0.699673	-0.199370
H251	H	1.027370	0.949673	0.050630
H252	H	1.277370	1.199673	0.300630
Br253	Br	1.236357	0.796428	-0.401898
Br254	Br	1.486357	1.046428	-0.151898
Br255	Br	1.736357	1.296428	0.098102
Br256	Br	1.986357	1.546428	0.348102
H257	H	0.948195	0.904037	-0.324371
H258	H	1.198195	1.154037	-0.074371
H259	H	1.448195	1.404037	0.175629
H260	H	1.698195	1.654037	0.425629
Br261	Br	0.953516	0.796742	-0.477306
Br262	Br	1.203516	1.046742	-0.227306
Br263	Br	1.453516	1.296742	0.022694
Br264	Br	1.703516	1.546742	0.272694
H265	H	0.620045	0.324530	-0.483019
H266	H	0.870045	0.574530	-0.233019
H267	H	1.120045	0.824530	0.016981
H268	H	1.370045	1.074530	0.266981
H269	H	1.164855	0.903645	-0.266409
H270	H	1.414855	1.153645	-0.016409
H271	H	1.664855	1.403645	0.233591
H272	H	1.914855	1.653645	0.483591
H273	H	1.106690	0.482794	-0.904739
H274	H	1.356690	0.732794	-0.654739
H275	H	1.606690	0.982794	-0.404739
H276	H	1.856690	1.232794	-0.154739
H277	H	1.106625	0.903802	-0.483056
H278	H	1.356625	1.153802	-0.233056
H279	H	1.606625	1.403802	0.016944
H280	H	1.856625	1.653802	0.266944
H281	H	1.164986	0.266177	-0.904535
H282	H	1.414986	0.516177	-0.654535
H283	H	1.664986	0.766177	-0.404535
H284	H	1.914986	1.016177	-0.154535
H285	H	1.198333	0.391377	-0.812050
H286	H	1.448333	0.641377	-0.562050
H287	H	1.698333	0.891377	-0.312050
H288	H	1.948333	1.141377	-0.062050
H289	H	0.981678	0.449342	-0.811961
H290	H	1.231678	0.699342	-0.561961
H291	H	1.481678	0.949342	-0.311961
H292	H	1.731678	1.199342	-0.061961
Br293	Br	0.512751	0.194706	-0.401942
Br294	Br	0.762751	0.444706	-0.151942
Br295	Br	1.012751	0.694706	0.098058
Br296	Br	1.262751	0.944706	0.348058
Br297	Br	0.910058	0.313995	-0.919163
Br298	Br	1.160058	0.563995	-0.669163
Br299	Br	1.410058	0.813995	-0.419163
Br300	Br	1.660058	1.063995	-0.169163
Br301	Br	1.029421	0.796901	-0.194609
Br302	Br	1.279421	1.046901	0.055391
Br303	Br	1.529421	1.296901	0.305391
Br304	Br	1.779421	1.546901	0.555391
H305	H	0.527060	0.391202	-0.232844
H306	H	0.777060	0.641202	0.017156
H307	H	1.027060	0.891202	0.267156
H308	H	1.277060	1.141202	0.517156
