data_functionalizedCrystal
_audit_creation_method	'MofGen! by Chris Wilmer'
_symmetry_space_group_name_H-M	'P1'
_symmetry_Int_Tables_number	1
_symmetry_cell_setting	triclinic
loop_
_symmetry_equiv_pos_as_xyz
  x,y,z
_cell_length_a	11.792241
_cell_length_b	12.503572
_cell_length_c	11.792241
_cell_angle_alpha	86.452757
_cell_angle_beta	84.193416
_cell_angle_gamma	93.538276
loop_
_atom_site_label
_atom_site_type_symbol
_atom_site_fract_x
_atom_site_fract_y
_atom_site_fract_z
O1	O	1.513406	0.089216	0.149050
O2	O	1.846739	0.422550	0.482383
O3	O	2.180073	0.755883	0.815716
O4	O	1.183067	0.089241	0.165081
O5	O	1.516400	0.422575	0.498414
O6	O	1.849733	0.755908	0.831747
O7	O	1.356252	0.089221	-0.008105
O8	O	1.689585	0.422554	0.325228
O9	O	2.022919	0.755887	0.658562
O10	O	1.340220	0.089237	0.322235
O11	O	1.673554	0.422570	0.655568
O12	O	2.006887	0.755904	0.988902
O13	O	1.343228	-0.089420	0.004941
O14	O	1.676561	0.243914	0.338275
O15	O	2.009894	0.577247	0.671608
O16	O	1.170042	-0.089399	0.178127
O17	O	1.503376	0.243934	0.511460
O18	O	1.836709	0.577268	0.844794
O19	O	1.500381	-0.089424	0.162096
O20	O	1.833715	0.243909	0.495429
O21	O	2.167048	0.577243	0.828762
Cu22	Cu	1.334023	-0.105723	0.171303
Cu23	Cu	1.667356	0.227610	0.504636
Cu24	Cu	2.000689	0.560944	0.837969
Cu25	Cu	1.349425	0.105540	0.155874
Cu26	Cu	1.682759	0.438873	0.489207
Cu27	Cu	2.016092	0.772207	0.822541
O28	O	1.327196	-0.089403	0.335281
O29	O	1.660529	0.243930	0.668615
O30	O	1.993863	0.577263	1.001948
C31	C	1.134264	-0.000076	0.170596
C32	C	1.467597	0.333258	0.503930
C33	C	1.800930	0.666591	0.837263
C34	C	1.008251	-0.000066	0.167581
C35	C	1.341584	0.333267	0.500915
C36	C	1.674917	0.666600	0.834248
N37	N	1.323197	-0.254314	0.182154
N38	N	1.656531	0.079019	0.515487
N39	N	1.989864	0.412353	0.848820
C40	C	0.777536	-0.000097	0.162041
C41	C	1.110870	0.333236	0.495374
C42	C	1.444203	0.666569	0.828707
C43	C	0.905923	-0.000080	0.165119
C44	C	1.239256	0.333253	0.498453
C45	C	1.572589	0.666586	0.831786
C46	C	1.307273	-0.473427	0.198126
C47	C	1.640606	-0.140094	0.531459
C48	C	1.973939	0.193239	0.864792
C49	C	1.376180	-0.526763	0.129046
C50	C	1.709514	-0.193429	0.462379
C51	C	2.042847	0.139904	0.795712
C52	C	1.367320	-0.648685	0.137933
C53	C	1.700653	-0.315351	0.471266
C54	C	2.033987	0.017982	0.804599
C55	C	1.316132	-0.351494	0.189240
C56	C	1.649465	-0.018161	0.522573
C57	C	1.982799	0.315173	0.855907
C58	C	1.549185	-0.000105	0.156580
C59	C	1.882518	0.333229	0.489913
C60	C	2.215851	0.666562	0.823246
C61	C	1.675198	-0.000107	0.159594
C62	C	2.008531	0.333226	0.492928
C63	C	2.341865	0.666560	0.826261
C64	C	1.348733	-0.000099	-0.043873
C65	C	1.682066	0.333234	0.289461
C66	C	2.015399	0.666568	0.622794
C67	C	1.345718	-0.000098	-0.169886
C68	C	1.679052	0.333236	0.163447
C69	C	2.012385	0.666569	0.496780
N70	N	1.360260	0.254131	0.145014
N71	N	1.693593	0.587464	0.478347
N72	N	2.026926	0.920798	0.811680
C73	C	1.340177	-0.000079	-0.400600
C74	C	1.673510	0.333254	-0.067267
C75	C	2.006844	0.666587	0.266067
C76	C	1.343256	-0.000089	-0.272214
C77	C	1.676589	0.333244	0.061119
C78	C	2.009923	0.666577	0.394453
C79	C	1.334715	-0.000081	0.371049
C80	C	1.668049	0.333252	0.704382
C81	C	2.001382	0.666585	1.037716
C82	C	1.337730	-0.000076	0.497062
C83	C	1.671064	0.333258	0.830396
C84	C	2.004397	0.666591	1.163729
H85	H	1.241630	-0.519327	0.263938
H86	H	1.574963	-0.185993	0.597271
H87	H	1.908296	0.147340	0.930604
H88	H	1.441829	-0.480857	0.063231
H89	H	1.775163	-0.147524	0.396564
H90	H	2.108496	0.185809	0.729897
