data_functionalizedCrystal
_audit_creation_method	'MofGen! by Chris Wilmer'
_symmetry_space_group_name_H-M	'P1'
_symmetry_Int_Tables_number	1
_symmetry_cell_setting	triclinic
loop_
_symmetry_equiv_pos_as_xyz
  x,y,z
_cell_length_a	14.044220
_cell_length_b	14.044190
_cell_length_c	15.455313
_cell_angle_alpha	92.904485
_cell_angle_beta	87.080121
_cell_angle_gamma	93.190328
loop_
_atom_site_label
_atom_site_type_symbol
_atom_site_fract_x
_atom_site_fract_y
_atom_site_fract_z
O1	O	1.281001	0.226350	-0.072056
O2	O	1.781001	0.726350	0.427944
O3	O	1.004331	0.218043	-0.072077
O4	O	1.504331	0.718043	0.427923
O5	O	1.138509	0.083861	-0.072049
O6	O	1.638509	0.583861	0.427951
O7	O	1.146823	0.360532	-0.072083
O8	O	1.646823	0.860532	0.427917
O9	O	1.130833	0.091500	0.072211
O10	O	1.630833	0.591500	0.572211
O11	O	0.996655	0.225682	0.072184
O12	O	1.496655	0.725682	0.572184
O13	O	1.273325	0.233989	0.072205
O14	O	1.773325	0.733989	0.572205
Cu15	Cu	1.134289	0.230533	0.085366
Cu16	Cu	1.634289	0.730533	0.585366
Cu17	Cu	1.143367	0.221499	-0.085238
Cu18	Cu	1.643367	0.721499	0.414762
O19	O	1.139147	0.368171	0.072178
O20	O	1.639147	0.868171	0.572178
C21	C	0.964871	0.218227	0.000051
C22	C	1.464871	0.718227	0.500051
C23	C	0.858728	0.207382	0.000043
C24	C	1.358728	0.707382	0.500043
C25	C	1.131034	0.052059	0.000083
C26	C	1.631034	0.552059	0.500083
C27	C	1.120186	-0.054084	0.000090
C28	C	1.620186	0.445916	0.500090
C29	C	0.664389	0.187557	0.000063
C30	C	1.164389	0.687557	0.500063
C31	C	0.613261	0.264471	0.000057
C32	C	1.113261	0.764471	0.500057
C33	C	0.505124	0.253440	0.000068
C34	C	1.005124	0.753440	0.500068
C35	C	0.772536	0.198586	0.000052
C36	C	1.272536	0.698586	0.500052
C37	C	1.177288	-0.299544	0.000060
C38	C	1.677288	0.200456	0.500060
C39	C	1.100372	-0.248418	0.000060
C40	C	1.600372	0.251582	0.500060
C41	C	1.111400	-0.140281	0.000077
C42	C	1.611400	0.359719	0.500077
C43	C	1.166263	-0.407692	0.000044
C44	C	1.666263	0.092308	0.500044
C45	C	1.312785	0.233805	0.000075
C46	C	1.812785	0.733805	0.500075
C47	C	1.418928	0.244650	0.000077
C48	C	1.918928	0.744650	0.500077
C49	C	1.146622	0.399973	0.000043
C50	C	1.646622	0.899973	0.500043
C51	C	1.157470	0.506116	0.000031
C52	C	1.657470	1.006116	0.500031
N53	N	1.127912	0.236887	0.205361
N54	N	1.627912	0.736887	0.705361
N55	N	1.149751	0.215139	-0.205233
N56	N	1.649751	0.715139	0.294767
C57	C	1.184939	0.179906	0.250766
C58	C	1.684939	0.679906	0.750766
C59	C	1.180125	0.184721	0.341573
C60	C	1.680125	0.684721	0.841573
C61	C	1.118288	0.246521	0.386973
C62	C	1.618288	0.746521	0.886973
C63	C	1.061255	0.303504	0.341561
C64	C	1.561255	0.803504	0.841561
C65	C	1.066064	0.298684	0.250755
C66	C	1.566064	0.798684	0.750755
C67	C	1.097527	0.267301	0.658550
C68	C	1.597527	0.767301	1.158550
C69	C	1.092724	0.272119	0.749362
C70	C	1.592724	0.772119	1.249362
C71	C	1.211594	0.153334	0.749368
C72	C	1.711594	0.653334	1.249368
C73	C	1.216402	0.148523	0.658561
C74	C	1.716402	0.648523	1.158561
C75	C	1.159365	0.205502	0.613157
C76	C	1.659365	0.705502	1.113157
N77	N	1.113369	0.251446	0.479792
N78	N	1.613369	0.751446	0.979792
N79	N	1.164280	0.200572	0.520339
N80	N	1.664280	0.700572	1.020339
H81	H	0.650703	0.338604	0.000044
H82	H	1.150703	0.838604	0.500044
H83	H	1.251414	-0.262102	0.000075
H84	H	1.751414	0.237898	0.500075
Br85	Br	0.601987	0.064003	0.000082
Br86	Br	1.101987	0.564003	0.500082
H87	H	1.026240	-0.285862	0.000050
H88	H	1.526240	0.214138	0.500050
Br89	Br	1.268872	0.096037	0.189162
Br90	Br	1.768872	0.596037	0.689162
H91	H	1.226560	0.138322	0.378542
H92	H	1.726560	0.638322	0.878542
H93	H	1.010901	0.353820	0.378530
H94	H	1.510901	0.853820	0.878530
H95	H	1.051087	0.313698	0.621589
H96	H	1.551087	0.813698	1.121589
H97	H	1.266754	0.098201	0.621599
H98	H	1.766754	0.598201	1.121599
H99	H	1.258029	0.106943	0.786344
H100	H	1.758029	0.606943	1.286344
H101	H	1.042367	0.322448	0.786322
H102	H	1.542367	0.822448	1.286322
Br103	Br	0.988660	0.376011	0.189133
Br104	Br	1.488660	0.876011	0.689133
