data_functionalizedCrystal
_audit_creation_method	'MofGen! by Chris Wilmer'
_symmetry_space_group_name_H-M	'P1'
_symmetry_Int_Tables_number	1
_symmetry_cell_setting	triclinic
loop_
_symmetry_equiv_pos_as_xyz
  x,y,z
_cell_length_a	27.435584
_cell_length_b	27.434948
_cell_length_c	27.431174
_cell_angle_alpha	60.005483
_cell_angle_beta	60.011353
_cell_angle_gamma	59.993028
loop_
_atom_site_label
_atom_site_type_symbol
_atom_site_fract_x
_atom_site_fract_y
_atom_site_fract_z
O1	O	0.067437	-0.712144	0.595551
O2	O	0.025356	-0.554453	0.479848
O3	O	0.125206	-0.654236	0.479781
O4	O	-0.032412	-0.612361	0.595618
O5	O	0.158328	-0.621117	0.512835
O6	O	0.058479	-0.521333	0.512902
O7	O	0.100560	-0.679025	0.628605
Zn8	Zn	0.084778	-0.594921	0.576001
Zn9	Zn	0.041138	-0.638557	0.532452
O10	O	0.000710	-0.579241	0.628672
N11	N	0.114563	-0.565144	0.605726
N12	N	0.011358	-0.668338	0.502727
C13	C	0.156385	-0.523520	0.904506
C14	C	0.413419	-0.523497	0.647322
C15	C	0.156253	-0.523488	0.647384
C16	C	0.156238	-0.266354	0.647407
C17	C	0.197637	-0.390463	0.688753
C18	C	0.197646	-0.482126	0.688741
C19	C	0.220575	-0.459215	0.711654
C20	C	0.320555	-0.441991	0.659023
C21	C	0.383051	-0.462825	0.638179
C22	C	0.383069	-0.563942	0.676737
C23	C	0.320575	-0.543107	0.697583
C24	C	0.212704	-0.359206	0.627313
C25	C	0.191849	-0.296705	0.606496
C26	C	0.140866	-0.296722	0.708562
C27	C	0.161721	-0.359223	0.729379
C28	C	0.136200	-0.467030	0.703858
C29	C	0.115361	-0.487857	0.683021
C30	C	0.217408	-0.538877	0.631968
C31	C	0.238249	-0.518050	0.652796
C32	C	0.136259	-0.467047	0.811668
C33	C	0.115461	-0.487892	0.874167
C34	C	0.217537	-0.538923	0.874131
C35	C	0.238333	-0.518080	0.811631
C36	C	0.197693	-0.482140	0.780401
C37	C	0.289320	-0.482131	0.688723
C38	C	0.132699	-0.546027	0.973247
C39	C	0.482158	-0.545613	0.624075
C40	C	0.132521	-0.546006	0.624886
C41	C	0.132917	-0.197607	0.625310
C42	C	-0.098217	-0.686189	0.484419
C43	C	-0.006438	-0.686322	0.392891
C44	C	-0.006621	-0.777944	0.484592
C45	C	-0.006606	-0.686315	0.484649
C46	C	-0.029470	-0.709193	0.461638
N47	N	0.538410	-0.565162	0.605628
O48	O	0.742647	-0.575135	0.458625
O49	O	0.742821	-0.691181	0.616169
O50	O	0.742757	-0.690917	0.516248
O51	O	0.742711	-0.575399	0.558546
O52	O	0.643472	-0.657878	0.549405
O53	O	0.643536	-0.658142	0.649326
O54	O	0.643362	-0.542096	0.491782
Zn55	Zn	0.627685	-0.594873	0.575818
Zn56	Zn	0.758498	-0.638404	0.532133
O57	O	0.643426	-0.542360	0.591702
N58	N	0.847774	-0.668115	0.502317
N59	N	0.114542	-0.141354	0.605766
O60	O	-0.032397	0.062987	0.595660
O61	O	0.125155	0.062987	0.479633
O62	O	0.025219	0.062974	0.479910
O63	O	0.067539	0.063001	0.595383
O64	O	0.058343	-0.036320	0.513009
O65	O	0.158279	-0.036306	0.512732
O66	O	0.000728	-0.036306	0.628759
Zn67	Zn	0.084763	-0.052071	0.576000
Zn68	Zn	0.041120	0.078752	0.532392
O69	O	0.100664	-0.036292	0.628482
N70	N	0.011333	0.168036	0.502628
N71	N	0.114782	-0.565197	1.029501
O72	O	0.104681	-0.712124	1.233827
O73	O	-0.011334	-0.554523	1.233839
O74	O	-0.011066	-0.654443	1.233797
O75	O	0.104414	-0.612204	1.233869
O76	O	0.022028	-0.621336	1.134509
O77	O	0.021760	-0.521417	1.134551
O78	O	0.137775	-0.679018	1.134539
Zn79	Zn	0.085022	-0.594961	1.118780
Zn80	Zn	0.041420	-0.638580	1.249597
O81	O	0.137508	-0.579098	1.134580
N82	N	0.011658	-0.668350	1.338876
C83	C	0.037974	-0.518023	0.480435
C84	C	0.161625	-0.641592	0.480351
C85	C	0.087941	-0.715455	0.628017
C86	C	-0.035710	-0.591885	0.628101
C87	C	0.693199	-0.690642	0.652596
C88	C	0.693122	-0.690315	0.528855
C89	C	0.692981	-0.542634	0.455356
C90	C	0.693062	-0.542961	0.579095
C91	C	0.161524	0.013463	0.480164
C92	C	0.037807	0.013324	0.480547
C93	C	-0.035683	0.013341	0.628188
C94	C	0.088076	0.013357	0.627845
C95	C	-0.010764	-0.518114	1.184196
C96	C	-0.010426	-0.641846	1.184125
C97	C	0.137205	-0.715426	1.184182
C98	C	0.136875	-0.591687	1.184231
H99	H	0.103160	-0.437777	0.786243
H100	H	0.173631	-0.760687	1.184171
H101	H	-0.080930	0.013340	0.664614
O102	O	-0.054275	-0.464141	1.184171
C103	C	-0.105659	-0.464147	1.184162
H104	H	-0.092420	-0.499501	1.165353
H105	H	-0.138112	-0.474567	1.231790
C106	C	-0.152094	-0.358897	1.168325
C107	C	-0.135833	-0.402316	1.145218
H108	H	-0.170709	-0.320756	1.144305
H109	H	-0.117477	-0.358893	1.168333
H110	H	-0.179135	-0.367588	1.208015
H111	H	-0.108787	-0.393628	1.105532
H112	H	-0.170447	-0.402317	1.145203
H113	H	0.028987	-0.472723	0.444098
H114	H	0.097136	0.013366	0.664120
H115	H	-0.046689	-0.650868	1.184063
H116	H	0.096930	-0.760753	0.664356
O117	O	0.692940	-0.499239	0.401340
C118	C	0.692911	-0.520728	0.364192
H119	H	0.711754	-0.571581	0.380336
H120	H	0.645269	-0.505580	0.365838
C121	C	0.708641	-0.433508	0.279752
C122	C	0.731789	-0.495967	0.299577
H123	H	0.732620	-0.418233	0.239894
H124	H	0.708658	-0.419029	0.304780
H125	H	0.668939	-0.420893	0.281129
H126	H	0.771486	-0.508581	0.298207
H127	H	0.731779	-0.510448	0.274548
O128	O	0.215673	-0.652328	0.437025
C129	C	0.252761	-0.710997	0.458607
H130	H	0.236553	-0.726804	0.509458
H131	H	0.251121	-0.741869	0.443480
C132	C	0.337288	-0.692616	0.371466
C133	C	0.317385	-0.712028	0.433923
H134	H	0.377152	-0.693253	0.356238
H135	H	0.312301	-0.653089	0.356925
H136	H	0.335917	-0.718345	0.358869
H137	H	0.318749	-0.686295	0.446519
H138	H	0.342373	-0.751550	0.448465
O139	O	-0.089740	-0.581133	0.671444
C140	C	-0.126839	-0.522474	0.649852
H141	H	-0.098087	-0.494128	0.611514
H142	H	-0.156987	-0.523379	0.633269
C143	C	-0.200788	-0.530281	0.747545
C144	C	-0.165475	-0.495465	0.700460
H145	H	-0.224622	-0.513621	0.778762
H146	H	-0.175795	-0.569802	0.762092
H147	H	-0.225906	-0.531033	0.733718
H148	H	-0.140351	-0.494720	0.714285
H149	H	-0.190464	-0.455943	0.685916
H150	H	0.173154	-0.582650	1.184245
H151	H	0.065433	-0.475593	0.899616
H152	H	0.250633	-0.568176	0.899553
H153	H	0.693053	-0.506675	0.588146
O154	O	0.693281	-0.734050	0.706598
C155	C	0.693272	-0.712549	0.743759
H156	H	0.712030	-0.674208	0.715058
H157	H	0.645648	-0.695995	0.773928
C158	C	0.709221	-0.810310	0.817620
C159	C	0.732264	-0.763221	0.782368
H160	H	0.733271	-0.841567	0.841438
H161	H	0.709225	-0.824796	0.792585
H162	H	0.669534	-0.796507	0.842755
H163	H	0.771947	-0.777023	0.757228
H164	H	0.732268	-0.748739	0.807400
H165	H	0.693140	-0.726605	0.519802
H166	H	0.028745	0.013321	0.444270
O167	O	0.298034	-0.532778	0.781353
C168	C	0.329441	-0.568978	0.822321
H169	H	0.299652	-0.561006	0.866878
H170	H	0.342923	-0.617932	0.828959
C171	C	0.422363	-0.562950	0.743192
C172	C	0.385777	-0.553156	0.797916
H173	H	0.457116	-0.553193	0.728138
H174	H	0.401205	-0.538564	0.715590
H175	H	0.433592	-0.603746	0.748732
H176	H	0.374543	-0.512360	0.792375
H177	H	0.406936	-0.577535	0.825517
O178	O	0.215341	0.013865	0.436521
C179	C	0.207172	0.065402	0.386381
H180	H	0.159513	0.082354	0.387191
H181	H	0.215552	0.101474	0.387543
C182	C	0.309846	0.029251	0.327951
C183	C	0.251311	0.050069	0.328943
H184	H	0.337073	0.019795	0.292521
H185	H	0.315350	-0.005469	0.361732
H186	H	0.316820	0.059315	0.328922
H187	H	0.244334	0.020003	0.327980
H188	H	0.245806	0.084784	0.295161
H189	H	0.103135	-0.437780	0.733124
H190	H	0.250475	-0.568133	0.602707
O191	O	0.055669	-0.473271	0.697805
C192	C	0.029746	-0.494649	0.760405
H193	H	0.065352	-0.533196	0.780534
H194	H	0.010015	-0.457160	0.778928
C195	C	-0.063743	-0.469229	0.751853
C196	C	-0.020013	-0.516576	0.776574
H197	H	-0.094439	-0.482752	0.761827
H198	H	-0.046280	-0.454824	0.709678
H199	H	-0.080179	-0.437992	0.767291
H200	H	-0.003573	-0.547808	0.761130
H201	H	-0.037475	-0.530987	0.818747
O202	O	0.297957	-0.532772	0.638066
C203	C	0.329328	-0.568924	0.601851
H204	H	0.299535	-0.591663	0.609841
H205	H	0.342753	-0.540071	0.552902
C206	C	0.422300	-0.588744	0.607808
C207	C	0.385710	-0.616676	0.617625
H208	H	0.457080	-0.618198	0.617536
H209	H	0.401165	-0.564386	0.632205
H210	H	0.433481	-0.564701	0.567017
H211	H	0.374524	-0.640712	0.658417
H212	H	0.406844	-0.641039	0.593236
H213	H	0.295144	-0.575796	0.721768
H214	H	0.408481	-0.430137	0.613993
O215	O	0.413528	-0.623152	0.685267
C216	C	0.475386	-0.632935	0.660513
H217	H	0.483903	-0.589924	0.624690
H218	H	0.493140	-0.647340	0.697089
C219	C	0.497005	-0.735093	0.676455
C220	C	0.507466	-0.682266	0.632453
H221	H	0.516795	-0.765524	0.659149
H222	H	0.455330	-0.728503	0.693134
H223	H	0.511801	-0.747088	0.706932
H224	H	0.492664	-0.670268	0.601981
H225	H	0.549140	-0.688855	0.615768
H226	H	0.295112	-0.392340	0.651807
H227	H	0.204115	-0.271255	0.556464
O228	O	0.247562	-0.389461	0.587771
C229	C	0.256393	-0.348468	0.529077
H230	H	0.218707	-0.303918	0.529204
H231	H	0.300911	-0.341818	0.511157
C232	C	0.303098	-0.427570	0.488843
C233	C	0.256808	-0.372854	0.488998
H234	H	0.303357	-0.442613	0.464119
H235	H	0.297151	-0.455188	0.528386
H236	H	0.340192	-0.422021	0.473910
H237	H	0.219716	-0.378405	0.503937
H238	H	0.262750	-0.345237	0.449456
H239	H	0.111630	-0.271286	0.741644
H240	H	0.149444	-0.384673	0.779411
