data_functionalizedCrystal
_audit_creation_method	'MofGen! by Chris Wilmer'
_symmetry_space_group_name_H-M	'P1'
_symmetry_Int_Tables_number	1
_symmetry_cell_setting	triclinic
loop_
_symmetry_equiv_pos_as_xyz
  x,y,z
_cell_length_a	12.827893
_cell_length_b	14.908520
_cell_length_c	12.827885
_cell_angle_alpha	93.263516
_cell_angle_beta	89.980918
_cell_angle_gamma	93.320754
loop_
_atom_site_label
_atom_site_type_symbol
_atom_site_fract_x
_atom_site_fract_y
_atom_site_fract_z
Zn1	Zn	1.573615	-0.359110	-0.614811
Zn2	Zn	1.563402	-0.509994	-0.450142
Zn3	Zn	1.398853	-0.359155	-0.440088
Zn4	Zn	1.388739	-0.509927	-0.624838
O5	O	1.481152	-0.434546	-0.532470
O6	O	1.718496	-0.379134	-0.592978
O7	O	1.541533	-0.490031	-0.302575
O8	O	1.430543	-0.232904	-0.454862
O9	O	1.710992	-0.489988	-0.471996
O10	O	1.558939	-0.232872	-0.583230
O11	O	1.420640	-0.379210	-0.295189
O12	O	1.251276	-0.379146	-0.464584
O13	O	1.413305	-0.489875	-0.769741
O14	O	1.243845	-0.489918	-0.600319
O15	O	1.549132	-0.379070	-0.762374
O16	O	1.531726	-0.636229	-0.481719
O17	O	1.403402	-0.636180	-0.610067
C18	C	1.209644	-0.434530	-0.532449
C19	C	1.093489	-0.434544	-0.532467
C20	C	0.918004	-0.489457	-0.599557
C21	C	1.038056	-0.489444	-0.599541
C22	C	1.465386	-0.668939	-0.548095
C23	C	1.458737	-0.769212	-0.554814
C24	C	1.580004	-0.957628	-0.433900
C25	C	1.573760	-1.051844	-0.440210
C26	C	1.440012	-1.051863	-0.573750
C27	C	1.446255	-0.957647	-0.567439
C28	C	1.516253	-0.910532	-0.497511
C29	C	1.522491	-0.816314	-0.491196
C30	C	1.388748	-0.816335	-0.624741
C31	C	1.382504	-0.910551	-0.631051
C32	C	1.753721	-0.434564	-0.532490
C33	C	1.869874	-0.434571	-0.532499
C34	C	1.481229	-0.434460	-0.805034
C35	C	1.481262	-0.434423	-0.921185
C36	C	1.497008	-0.199239	-0.516806
C37	C	1.503765	-0.098965	-0.510131
C38	C	1.548481	-0.379582	-0.969324
C39	C	1.548517	-0.379543	-1.089372
C40	C	1.481140	-0.434568	-0.260961
C41	C	1.481327	-0.434350	-0.144794
H42	H	1.079461	-0.536429	-0.656956
H43	H	1.423779	-0.481307	-1.103389
O44	O	1.412493	-0.490308	-0.977984
C45	C	1.309634	-0.470634	-0.950055
H46	H	1.309173	-0.398597	-0.915184
H47	H	1.257575	-0.478322	-1.022392
H48	H	1.278980	-0.519072	-0.890007
H49	H	1.606000	-0.332658	-0.921662
O50	O	0.860987	-0.545447	-0.668027
C51	C	0.753814	-0.533008	-0.652788
H52	H	0.743674	-0.463341	-0.614039
H53	H	0.711880	-0.539179	-0.731431
H54	H	0.719226	-0.586442	-0.600575
O55	O	1.590542	-0.770447	-0.423410
C56	C	1.661634	-0.715876	-0.479317
H57	H	1.625663	-0.701736	-0.557527
H58	H	1.680058	-0.649640	-0.432326
H59	H	1.736666	-0.752121	-0.493304
O60	O	1.044159	-0.378356	-0.464072
C61	C	1.076814	-0.288438	-0.481032
H62	H	1.107232	-0.283934	-0.564191
H63	H	1.007967	-0.243929	-0.469223
H64	H	1.141647	-0.264742	-0.423399
O65	O	1.372047	-1.097778	-0.641584
C66	C	1.380234	-1.191033	-0.633531
H67	H	1.413658	-1.203921	-0.553780
H68	H	1.299581	-1.226903	-0.642946
H69	H	1.434082	-1.217685	-0.697355
O70	O	1.617073	-0.323554	-1.138930
C71	C	1.601857	-0.335989	-1.247758
H72	H	1.519211	-0.365541	-1.264523
H73	H	1.613466	-0.268432	-1.284816
H74	H	1.660588	-0.384045	-1.281939
O75	O	0.926843	-0.378623	-0.463946
C76	C	0.986478	-0.429962	-0.399808
H77	H	0.998144	-0.498379	-0.441108
H78	H	1.065734	-0.393254	-0.383485
H79	H	0.943783	-0.439765	-0.322968
O80	O	1.314650	-0.956422	-0.699031
C81	C	1.370498	-1.010815	-0.770247
H82	H	1.448785	-1.024890	-0.734414
H83	H	1.323532	-1.077093	-0.788647
H84	H	1.384335	-0.974447	-0.845265
H85	H	1.625675	-1.090186	-0.388413
O86	O	1.648076	-0.911995	-0.365944
C87	C	1.702981	-0.973767	-0.311123
H88	H	1.702136	-1.040898	-0.358426
H89	H	1.787129	-0.946485	-0.298213
H90	H	1.664080	-0.983868	-0.232403
H91	H	1.336834	-0.777979	-0.676534
