data_functionalizedCrystal
_audit_creation_method	'MofGen! by Chris Wilmer'
_symmetry_space_group_name_H-M	'P1'
_symmetry_Int_Tables_number	1
_symmetry_cell_setting	triclinic
loop_
_symmetry_equiv_pos_as_xyz
  x,y,z
_cell_length_a	17.699083
_cell_length_b	14.971494
_cell_length_c	13.448316
_cell_angle_alpha	89.995115
_cell_angle_beta	89.999267
_cell_angle_gamma	83.450286
loop_
_atom_site_label
_atom_site_type_symbol
_atom_site_fract_x
_atom_site_fract_y
_atom_site_fract_z
O1	O	1.004359	0.113112	-0.082549
O2	O	1.504359	0.613112	0.417451
O3	O	0.784018	0.127828	-0.082581
O4	O	1.284018	0.627828	0.417419
O5	O	0.900091	-0.009750	-0.082562
O6	O	1.400091	0.490250	0.417438
O7	O	0.888286	0.250690	-0.082568
O8	O	1.388286	0.750690	0.417432
O9	O	0.900076	-0.009758	0.082822
O10	O	1.400076	0.490242	0.582822
O11	O	0.784003	0.127820	0.082803
O12	O	1.284003	0.627820	0.582803
O13	O	1.004345	0.113104	0.082835
O14	O	1.504345	0.613104	0.582835
Cu15	Cu	0.894173	0.120461	0.097920
Cu16	Cu	1.394173	0.620461	0.597920
Cu17	Cu	0.894190	0.120471	-0.097666
Cu18	Cu	1.394190	0.620471	0.402334
O19	O	0.888271	0.250682	0.082816
O20	O	1.388271	0.750682	0.582816
C21	C	0.755812	0.127297	0.000107
C22	C	1.255812	0.627297	0.500107
C23	C	0.671790	0.125715	0.000095
C24	C	1.171790	0.625715	0.500095
C25	C	0.899555	-0.043077	0.000129
C26	C	1.399555	0.456923	0.500129
C27	C	0.897969	-0.142368	0.000124
C28	C	1.397969	0.357632	0.500124
C29	C	0.897234	-0.189006	-0.090028
C30	C	1.397234	0.310994	0.409972
C31	C	0.895739	-0.282299	-0.090030
C32	C	1.395739	0.217701	0.409970
C33	C	0.894985	-0.328955	0.000122
C34	C	1.394985	0.171045	0.500122
C35	C	0.895718	-0.282310	0.090281
C36	C	1.395718	0.217690	0.590281
C37	C	0.897207	-0.189017	0.090281
C38	C	1.397207	0.310983	0.590281
C39	C	0.892616	-0.476763	0.090274
C40	C	1.392616	0.023237	0.590274
C41	C	0.891128	-0.570063	0.090274
C42	C	1.391128	-0.070063	0.590274
C43	C	0.891148	-0.570045	-0.090037
C44	C	1.391148	-0.070045	0.409963
C45	C	0.892637	-0.476752	-0.090037
C46	C	1.392637	0.023248	0.409963
C47	C	0.893372	-0.430114	0.000123
C48	C	1.393372	0.069886	0.500123
C49	C	0.623370	0.206470	0.000093
C50	C	1.123370	0.706470	0.500093
C51	C	0.544423	0.204978	0.000106
C52	C	1.044423	0.704978	0.500106
C53	C	0.513897	0.122730	0.000113
C54	C	1.013897	0.622730	0.500113
C55	C	0.562324	0.041969	0.000118
C56	C	1.062324	0.541969	0.500118
C57	C	0.641269	0.043461	0.000112
C58	C	1.141269	0.543461	0.500112
C59	C	0.243946	0.035947	0.000143
C60	C	0.743946	0.535947	0.500143
C61	C	0.164994	0.034461	0.000145
C62	C	0.664994	0.534461	0.500145
C63	C	0.147099	0.197464	0.000136
C64	C	0.647099	0.697464	0.500136
C65	C	0.226045	0.198957	0.000131
C66	C	0.726045	0.698957	0.500131
C67	C	0.274464	0.118196	0.000141
C68	C	0.774464	0.618196	0.500141
C69	C	0.360067	0.119814	0.000128
C70	C	0.860067	0.619814	0.500128
C71	C	0.428296	0.121111	0.000118
C72	C	0.928296	0.621111	0.500118
C73	C	1.032550	0.113635	0.000145
C74	C	1.532550	0.613635	0.500145
C75	C	1.116572	0.115217	0.000151
C76	C	1.616572	0.615217	0.500151
C77	C	0.888808	0.284009	0.000124
C78	C	1.388808	0.784009	0.500124
C79	C	0.890393	0.383300	0.000122
C80	C	1.390393	0.883300	0.500122
N81	N	0.894166	0.120453	0.235484
N82	N	1.394166	0.620453	0.735484
N83	N	0.894202	0.120471	-0.235230
N84	N	1.394202	0.620471	0.264770
C85	C	0.945579	0.059559	0.287533
C86	C	1.445579	0.559559	0.787533
C87	C	0.945584	0.059558	0.391636
C88	C	1.445584	0.559558	0.891636
C89	C	0.894178	0.120457	0.443689
C90	C	1.394178	0.620457	0.943689
C91	C	0.842760	0.181354	0.391633
C92	C	1.342760	0.681354	0.891633
C93	C	0.842752	0.181350	0.287531
C94	C	1.342752	0.681350	0.787531
C95	C	0.842781	0.181360	0.608613
C96	C	1.342781	0.681360	1.108613
C97	C	0.842789	0.181366	0.712721
C98	C	1.342789	0.681366	1.212721
C99	C	0.945613	0.059568	0.712718
C100	C	1.445613	0.559568	1.212718
C101	C	0.945605	0.059564	0.608616
C102	C	1.445605	0.559564	1.108616
C103	C	0.894187	0.120463	0.556567
C104	C	1.394187	0.620463	1.056567
H105	H	0.897852	-0.151026	-0.163440
H106	H	1.397852	0.348974	0.336560
O107	O	0.890319	-0.620374	0.187516
O108	O	1.390319	-0.120374	0.687516
H109	H	0.941195	-0.670949	0.191841
H110	H	1.441195	-0.170949	0.691841
O111	O	0.094877	0.284577	0.000147
O112	O	0.594877	0.784577	0.500147
H113	H	0.034852	0.269727	0.000168
H114	H	0.534852	0.769727	0.500168
H115	H	0.987479	0.009982	0.755102
H116	H	1.487479	0.509982	1.255102
O117	O	0.296159	-0.051159	0.000152
O118	O	0.796159	0.448841	0.500152
H119	H	0.332560	-0.054380	-0.067252
H120	H	0.832560	0.445620	0.432748
O121	O	0.893416	-0.426456	0.187514
O122	O	1.393416	0.073544	0.687514
H123	H	0.892652	-0.474572	0.250203
H124	H	1.392652	0.025428	0.750203
O125	O	0.898003	-0.138716	0.187520
O126	O	1.398003	0.361284	0.687520
H127	H	0.899158	-0.066005	0.172376
H128	H	1.399158	0.433995	0.672376
H129	H	0.648217	0.273446	0.000086
H130	H	1.148217	0.773446	0.500086
O131	O	0.894908	-0.332599	-0.187264
O132	O	1.394908	0.167401	0.312736
H133	H	0.895678	-0.284483	-0.249951
H134	H	1.395678	0.215517	0.250049
H135	H	0.893257	-0.438768	-0.163446
H136	H	1.393257	0.061232	0.336554
O137	O	0.787331	0.247029	0.768870
O138	O	1.287331	0.747029	1.268870
H139	H	0.751564	0.289361	0.715191
H140	H	1.251564	0.789361	1.215191
O141	O	0.492195	0.292078	0.000105
O142	O	0.992195	0.792078	0.500105
H143	H	0.526684	0.349520	0.000087
H144	H	1.026684	0.849520	0.500087
H145	H	0.250894	0.265932	0.000120
H146	H	0.750894	0.765932	0.500120
O147	O	0.894918	-0.332636	0.187514
O148	O	1.394918	0.167364	0.687514
H149	H	0.842701	-0.367072	0.191821
H150	H	1.342701	0.132928	0.691821
O151	O	0.132066	-0.054253	0.000171
O152	O	0.632066	0.445747	0.500171
H153	H	0.178997	-0.110161	0.000190
H154	H	0.678997	0.389839	0.500190
O155	O	0.529406	-0.046746	0.000130
O156	O	1.029406	0.453254	0.500130
H157	H	0.466375	-0.034218	0.000124
H158	H	0.966375	0.465782	0.500124
H159	H	0.987448	0.009973	0.434014
H160	H	1.487448	0.509973	0.934014
H161	H	0.890549	-0.608022	-0.163448
H162	H	1.390549	-0.108022	0.336552
O163	O	0.787328	0.247046	0.552468
O164	O	1.287328	0.747046	1.052468
H165	H	0.751590	0.289402	0.606150
H166	H	1.251590	0.789402	1.106150
H167	H	0.987467	0.009980	0.566235
H168	H	1.487467	0.509980	1.066235
O169	O	0.693500	-0.043638	0.000111
O170	O	1.193500	0.456362	0.500111
H171	H	0.659013	-0.101082	0.000108
H172	H	1.159013	0.398918	0.500108
O173	O	1.001021	-0.006129	0.231391
O174	O	1.501021	0.493871	0.731391
H175	H	1.036766	-0.048479	0.285078
H176	H	1.536766	0.451521	0.785078
O177	O	0.787318	0.247048	0.447768
O178	O	1.287318	0.747048	0.947768
H179	H	0.750508	0.209459	0.495220
H180	H	1.250508	0.709459	0.995220
O181	O	0.787303	0.247033	0.231385
O182	O	1.287303	0.747033	0.731385
H183	H	0.751564	0.289387	0.285067
H184	H	1.251564	0.789387	0.785067
