data_functionalizedCrystal
_audit_creation_method	'MofGen! by Chris Wilmer'
_symmetry_space_group_name_H-M	'P1'
_symmetry_Int_Tables_number	1
_symmetry_cell_setting	triclinic
loop_
_symmetry_equiv_pos_as_xyz
  x,y,z
_cell_length_a	13.339070
_cell_length_b	12.996460
_cell_length_c	14.519709
_cell_angle_alpha	90.006927
_cell_angle_beta	80.345281
_cell_angle_gamma	89.994030
loop_
_atom_site_label
_atom_site_type_symbol
_atom_site_fract_x
_atom_site_fract_y
_atom_site_fract_z
O1	O	1.343122	-0.085613	-0.462554
O2	O	1.048485	-0.085606	-0.401841
O3	O	1.203615	-0.085600	-0.299946
O4	O	1.187991	-0.085618	-0.564449
O5	O	1.203597	0.085534	-0.299934
O6	O	1.048467	0.085528	-0.401829
O7	O	1.343104	0.085521	-0.462542
Cu8	Cu	1.195784	0.101150	-0.432185
Cu9	Cu	1.195805	-0.101235	-0.432199
O10	O	1.187973	0.085515	-0.564437
C11	C	1.010768	-0.000038	-0.391580
C12	C	0.898411	-0.000035	-0.361010
N13	N	1.195776	0.243498	-0.432176
C14	C	0.534048	-0.000067	-0.598702
C15	C	0.639613	-0.000073	-0.627426
C16	C	0.704317	-0.000063	-0.560825
C17	C	0.663447	-0.000048	-0.465494
C18	C	0.557872	-0.000050	-0.436767
C19	C	0.728141	-0.000046	-0.398889
C20	C	0.687271	-0.000030	-0.303559
C21	C	0.581706	-0.000032	-0.274836
C22	C	0.517002	-0.000042	-0.341438
C23	C	0.833716	-0.000044	-0.427617
C24	C	0.857541	-0.000027	-0.265682
C25	C	0.751976	-0.000020	-0.236957
C26	C	1.195796	0.663312	-0.432200
C27	C	1.195788	0.546507	-0.432196
C28	C	1.195787	0.453408	-0.432189
C29	C	1.195777	0.336596	-0.432183
C30	C	1.380820	-0.000049	-0.472804
C31	C	1.493178	-0.000059	-0.503373
C32	C	1.202878	-0.000033	-0.265395
C33	C	1.200696	-0.000032	-0.162459
N34	N	1.195811	0.756418	-0.432203
C35	C	1.188711	-0.000054	-0.598988
C36	C	1.190892	-0.000061	-0.701924
C37	C	1.192663	-0.000059	0.214480
C38	C	1.194894	-0.000051	0.109605
C39	C	1.196679	-0.000045	0.026014
C40	C	1.198911	-0.000039	-0.078868
H41	H	0.790272	-0.000071	-0.584218
C42	C	0.878668	-0.000057	-0.532470
H43	H	0.950807	-0.000063	-0.540045
H44	H	0.856460	0.059615	-0.561029
H45	H	0.856478	-0.059748	-0.561028
C46	C	0.707011	-0.000015	-0.132099
H47	H	0.634872	-0.000025	-0.124535
H48	H	0.729195	0.059665	-0.103531
H49	H	0.729213	-0.059699	-0.103545
C50	C	0.684564	-0.000078	-0.732280
H51	H	0.630911	-0.000073	-0.767831
H52	H	0.725262	-0.059754	-0.746860
H53	H	0.725239	0.059610	-0.746843
C54	C	0.928705	-0.000013	-0.192415
H55	H	0.997431	-0.000003	-0.223176
H56	H	0.916311	-0.059688	-0.154443
H57	H	0.916290	0.059676	-0.154438
C58	C	0.462879	-0.000091	-0.671954
H59	H	0.502336	-0.000105	-0.732844
H60	H	0.421184	0.059581	-0.664114
H61	H	0.421220	-0.059783	-0.664109
C62	C	0.400879	-0.000035	-0.309843
H63	H	0.368202	-0.000044	-0.363164
H64	H	0.381391	0.059645	-0.273437
H65	H	0.381402	-0.059719	-0.273449
H66	H	0.548434	-0.000031	-0.197212
