data_functionalizedCrystal
_audit_creation_method	'MofGen! by Chris Wilmer'
_symmetry_space_group_name_H-M	'P1'
_symmetry_Int_Tables_number	1
_symmetry_cell_setting	triclinic
loop_
_symmetry_equiv_pos_as_xyz
  x,y,z
_cell_length_a	17.699104
_cell_length_b	10.540510
_cell_length_c	16.176319
_cell_angle_alpha	89.995706
_cell_angle_beta	89.991696
_cell_angle_gamma	83.902414
loop_
_atom_site_label
_atom_site_type_symbol
_atom_site_fract_x
_atom_site_fract_y
_atom_site_fract_z
O1	O	1.005103	0.160649	-0.068759
O2	O	0.784861	0.181506	-0.068756
O3	O	0.900019	-0.013723	-0.068757
O4	O	0.889946	0.355878	-0.068758
O5	O	0.900002	-0.013736	0.068736
O6	O	0.784845	0.181493	0.068737
O7	O	1.005087	0.160636	0.068734
Cu8	Cu	0.894965	0.171064	0.081290
Cu9	Cu	0.894984	0.171078	-0.081312
O10	O	0.889930	0.355865	0.068735
C11	C	0.756652	0.180747	-0.000009
C12	C	0.672620	0.178492	-0.000009
C13	C	0.148405	0.280367	-0.000017
C14	C	0.227362	0.282479	-0.000020
C15	C	0.275242	0.167872	-0.000019
C16	C	0.244160	0.051146	-0.000025
C17	C	0.165204	0.049036	-0.000029
C18	C	0.562581	0.059654	-0.000012
C19	C	0.641542	0.061774	-0.000006
C20	C	0.624739	0.293097	-0.000003
C21	C	0.545783	0.290987	-0.000007
C22	C	0.514708	0.174262	-0.000017
C23	C	0.429094	0.171973	-0.000016
C24	C	0.360855	0.170159	-0.000014
C25	C	0.899260	-0.061019	-0.000012
C26	C	0.897014	-0.201929	-0.000017
C27	C	0.977014	-0.420837	0.000297
C28	C	0.979409	-0.274285	-0.000018
C29	C	0.854845	-0.245914	-0.078530
C30	C	0.853033	-0.392642	-0.078592
C31	C	0.851299	-0.392433	0.077764
C32	C	0.855207	-0.246163	0.078797
C33	C	1.033297	0.161394	-0.000014
C34	C	1.117328	0.163650	-0.000021
C35	C	0.890688	0.403161	-0.000011
C36	C	0.892934	0.544070	-0.000012
N37	N	0.894957	0.171053	0.195655
N38	N	0.894997	0.171079	-0.195677
C39	C	0.945964	0.084640	0.238919
C40	C	0.945968	0.084639	0.325466
C41	C	0.894967	0.171057	0.368748
C42	C	0.843955	0.257473	0.325478
C43	C	0.843948	0.257467	0.238932
C44	C	0.843981	0.257497	0.674506
C45	C	0.843993	0.257498	0.761058
C46	C	0.946001	0.084669	0.761040
C47	C	0.945994	0.084663	0.674494
C48	C	0.894979	0.171074	0.631232
C49	C	0.894974	0.171073	0.537388
C50	C	0.894975	0.171065	0.462590
H51	H	0.680525	-0.031559	-0.000008
H52	H	0.537290	-0.035390	-0.000018
O53	O	1.023373	-0.237429	-0.074704
H54	H	1.042998	-0.324331	-0.110742
H55	H	0.283151	-0.042169	-0.000030
O56	O	0.131680	-0.076851	-0.000023
H57	H	0.178237	-0.156191	-0.000013
H58	H	0.506802	0.384312	-0.000003
H59	H	0.877476	-0.435096	0.137277
O60	O	1.023130	-0.236218	0.074522
H61	H	0.994644	-0.264823	0.131676
O62	O	0.658252	0.419002	-0.000003
H63	H	0.721199	0.401223	-0.000010
O64	O	0.096771	0.403987	-0.000016
H65	H	0.060394	0.408561	0.056028
H66	H	1.009107	-0.463380	0.056603
H67	H	1.008935	-0.464918	-0.055691
O68	O	0.774496	-0.181689	-0.082400
H69	H	0.745963	-0.214398	-0.138410
O70	O	0.891594	-0.446694	-0.156110
H71	H	0.911320	-0.367985	-0.193222
H72	H	0.802459	0.327873	0.796296
H73	H	0.802425	0.327832	0.360723
H74	H	0.885891	-0.218114	0.136880
H75	H	0.791407	-0.414517	-0.082148
H76	H	0.795052	-0.196004	0.083539
O77	O	0.788937	0.350674	0.192263
H78	H	0.753479	0.410776	0.236897
O79	O	0.893885	-0.206008	-0.155848
H80	H	0.893088	-0.100582	-0.156843
O81	O	0.260883	0.408365	0.000003
H82	H	0.214325	0.487703	0.000019
H83	H	0.789436	-0.413460	0.078293
H84	H	0.987501	0.014275	0.360691
H85	H	0.987498	0.014275	0.203684
O86	O	1.000997	-0.008550	0.627809
H87	H	1.036461	-0.068650	0.672434
O88	O	0.788967	0.350704	0.627849
H89	H	0.753513	0.410805	0.672488
H90	H	0.987538	0.014304	0.796273
