data_functionalizedCrystal
_audit_creation_method	'MofGen! by Chris Wilmer'
_symmetry_space_group_name_H-M	'P1'
_symmetry_Int_Tables_number	1
_symmetry_cell_setting	triclinic
loop_
_symmetry_equiv_pos_as_xyz
  x,y,z
_cell_length_a	10.685727
_cell_length_b	10.686285
_cell_length_c	10.686551
_cell_angle_alpha	80.915481
_cell_angle_beta	80.924363
_cell_angle_gamma	80.941179
loop_
_atom_site_label
_atom_site_type_symbol
_atom_site_fract_x
_atom_site_fract_y
_atom_site_fract_z
Zn1	Zn	-2.038245	0.595538	0.823940
Zn2	Zn	-1.538245	1.095538	1.323940
Zn3	Zn	-2.038142	0.824111	0.595430
Zn4	Zn	-1.538142	1.324111	1.095430
Zn5	Zn	-1.809683	0.595590	0.595449
Zn6	Zn	-1.309683	1.095590	1.095449
Zn7	Zn	-1.840094	0.793603	0.793551
Zn8	Zn	-1.340094	1.293603	1.293551
O9	O	-1.931541	0.702211	0.702092
O10	O	-1.431541	1.202211	1.202092
O11	O	-2.216770	0.638605	0.806337
O12	O	-1.716770	1.138605	1.306337
O13	O	-1.995066	0.806587	0.416894
O14	O	-1.495066	1.306587	0.916894
O15	O	-1.827318	0.417056	0.638485
O16	O	-1.327318	0.917056	1.138485
O17	O	-2.216694	0.806536	0.638452
O18	O	-1.716694	1.306536	1.138452
O19	O	-1.995242	0.417018	0.806356
O20	O	-1.495242	0.917018	1.306356
O21	O	-1.827218	0.638694	0.416908
O22	O	-1.327218	1.138694	0.916908
O23	O	-1.635179	0.609111	0.609018
O24	O	-1.135179	1.109111	1.109018
O25	O	-1.879149	0.754539	0.976120
O26	O	-1.379149	1.254539	1.476120
O27	O	-1.657522	0.754590	0.754563
O28	O	-1.157522	1.254590	1.254563
O29	O	-2.024730	0.609022	0.998447
O30	O	-1.524730	1.109022	1.498447
O31	O	-2.024554	0.998591	0.608985
O32	O	-1.524554	1.498591	1.108985
O33	O	-1.879049	0.976177	0.754544
O34	O	-1.379049	1.476177	1.254544
C35	C	-1.600058	0.678546	0.678496
C36	C	-1.100058	1.178546	1.178496
C37	C	-1.458252	0.668451	0.668429
C38	C	-0.958252	1.168451	1.168429
C39	C	-1.955343	0.678372	1.034871
C40	C	-1.455343	1.178372	1.534871
C41	C	-1.965487	0.668213	1.176681
C42	C	-1.465487	1.168213	1.676681
C43	C	-1.955127	1.033675	0.678495
C44	C	-1.455127	1.533675	1.178495
C45	C	-1.965337	1.175482	0.668451
C46	C	-1.465337	1.675482	1.168451
C47	C	-1.264318	0.725960	0.725770
C48	C	-0.764318	1.225960	1.225770
C49	C	-1.406123	0.736062	0.735831
C50	C	-0.906123	1.236062	1.235831
C51	C	-1.907900	0.369453	0.725812
C52	C	-1.407900	0.869453	1.225812
C53	C	-1.897825	0.227651	0.735920
C54	C	-1.397825	0.727651	1.235920
C55	C	-1.907898	0.725869	0.370620
C56	C	-1.407898	1.225869	0.870620
C57	C	-1.897977	0.735686	0.228854
C58	C	-1.397977	1.235686	0.728854
H59	H	-1.394395	0.602835	0.603031
H60	H	-0.894395	1.102835	1.103031
Cl61	Cl	-1.504715	0.837361	0.836825
Cl62	Cl	-1.004715	1.337361	1.336825
Cl63	Cl	-1.796526	1.129118	0.836972
Cl64	Cl	-1.296526	1.629118	1.336972
H65	H	-2.030942	1.239311	0.602989
H66	H	-1.530942	1.739311	1.102989
H67	H	-1.832422	0.801228	1.165031
H68	H	-1.332422	1.301228	1.665031
Cl69	Cl	-2.066721	0.567029	1.275221
Cl70	Cl	-1.566721	1.067029	1.775221
