data_functionalizedCrystal
_audit_creation_method	'MofGen! by Chris Wilmer'
_symmetry_space_group_name_H-M	'P1'
_symmetry_Int_Tables_number	1
_symmetry_cell_setting	triclinic
loop_
_symmetry_equiv_pos_as_xyz
  x,y,z
_cell_length_a	14.044191
_cell_length_b	19.188924
_cell_length_c	12.503572
_cell_angle_alpha	93.509187
_cell_angle_beta	86.162165
_cell_angle_gamma	88.166870
loop_
_atom_site_label
_atom_site_type_symbol
_atom_site_fract_x
_atom_site_fract_y
_atom_site_fract_z
O1	O	1.262484	0.164611	-0.089277
O2	O	1.762484	0.664611	0.410723
O3	O	0.986540	0.158532	-0.089291
O4	O	1.486540	0.658532	0.410709
O5	O	1.132478	0.060430	-0.089271
O6	O	1.632478	0.560430	0.410729
O7	O	1.116546	0.262713	-0.089297
O8	O	1.616546	0.762713	0.410703
O9	O	1.121502	0.067821	0.089369
O10	O	1.621502	0.567821	0.589369
O11	O	0.975565	0.165924	0.089350
O12	O	1.475565	0.665924	0.589350
O13	O	1.251508	0.172002	0.089363
O14	O	1.751508	0.672002	0.589363
Cu15	Cu	1.112535	0.169638	0.105668
Cu16	Cu	1.612535	0.669638	0.605668
Cu17	Cu	1.125514	0.160897	-0.105595
Cu18	Cu	1.625514	0.660897	0.394405
O19	O	1.105571	0.270104	0.089343
O20	O	1.605571	0.770104	0.589343
C21	C	0.945749	0.159569	0.000028
C22	C	1.445749	0.659569	0.500028
C23	C	0.840557	0.151638	0.000023
C24	C	1.340557	0.651638	0.500023
C25	C	1.126475	0.038082	0.000050
C26	C	1.626475	0.538082	0.500050
C27	C	1.124929	-0.039523	0.000053
C28	C	1.624929	0.460477	0.500053
C29	C	0.590096	0.193386	0.000029
C30	C	1.090096	0.693386	0.500029
C31	C	0.647959	0.137151	0.000034
C32	C	1.147959	0.637151	0.500034
C33	C	0.755130	0.145213	0.000028
C34	C	1.255130	0.645213	0.500028
C35	C	0.482915	0.185325	0.000035
C36	C	0.982915	0.685325	0.500035
C37	C	1.130191	-0.079997	-0.097324
C38	C	1.630191	0.420003	0.402676
C39	C	1.128726	-0.152915	-0.097332
C40	C	1.628726	0.347085	0.402668
C41	C	1.122018	-0.185356	0.000042
C42	C	1.622018	0.314644	0.500042
C43	C	1.116750	-0.144872	0.097432
C44	C	1.616750	0.355128	0.597432
C45	C	1.118206	-0.071955	0.097438
C46	C	1.618206	0.428045	0.597438
N47	N	1.169205	-0.298687	0.072518
N48	N	1.669205	0.201313	0.572518
N49	N	1.167825	-0.367955	0.072506
N50	N	1.667825	0.132045	0.572506
C51	C	1.117629	-0.405049	0.000032
C52	C	1.617629	0.094951	0.500032
N53	N	1.068879	-0.370259	-0.072447
N54	N	1.568879	0.129741	0.427553
N55	N	1.070264	-0.300985	-0.072439
N56	N	1.570264	0.199015	0.427561
C57	C	1.120438	-0.264421	0.000047
C58	C	1.620438	0.235579	0.500047
C59	C	1.121301	-0.524589	-0.097361
C60	C	1.621301	-0.024589	0.402639
C61	C	1.119829	-0.597508	-0.097365
C62	C	1.619829	-0.097508	0.402635
C63	C	1.107864	-0.589463	0.097402
C64	C	1.607864	-0.089463	0.597402
C65	C	1.109325	-0.516546	0.097403
C66	C	1.609325	-0.016546	0.597403
C67	C	1.116049	-0.484113	0.000019
C68	C	1.616049	0.015887	0.500019
C69	C	1.292300	0.170965	0.000042
C70	C	1.792300	0.670965	0.500042
C71	C	1.397492	0.178896	0.000040
C72	C	1.897492	0.678896	0.500040
N73	N	1.103412	0.175785	0.254259
N74	N	1.603412	0.675785	0.754259
C75	C	1.111574	0.292452	0.000020
C76	C	1.611574	0.792452	0.500020
C77	C	1.113120	0.370057	0.000010
C78	C	1.613120	0.870057	0.500010
N79	N	1.134644	0.154744	-0.254186
N80	N	1.634644	0.654744	0.245814
C81	C	1.089993	0.184835	0.473372
C82	C	1.589993	0.684835	0.973372
C83	C	1.148060	0.145696	0.526707
C84	C	1.648060	0.645696	1.026707
C85	C	1.140594	0.150731	0.648629
C86	C	1.640594	0.650731	1.148629
C87	C	1.097458	0.179801	0.351439
C88	C	1.597458	0.679801	0.851439
H89	H	0.617015	0.082947	-0.000034
H90	H	1.117015	0.582947	0.499966
F91	F	1.017690	0.233574	0.533368
F92	F	1.517690	0.733574	1.033368
F93	F	0.630547	0.264225	0.000010
F94	F	1.130547	0.764225	0.500010
F95	F	1.220652	0.097182	0.466710
F96	F	1.720652	0.597182	0.966710
H97	H	1.124109	-0.630461	-0.176665
H98	H	1.624109	-0.130461	0.323335
H99	H	1.135663	-0.053595	-0.176622
H100	H	1.635663	0.446405	0.323378
F101	F	1.134325	-0.195999	-0.200979
F102	F	1.634325	0.304001	0.299021
H103	H	1.111286	-0.171290	0.176715
H104	H	1.611286	0.328710	0.676715
H105	H	1.113918	-0.039001	0.176736
H106	H	1.613918	0.460999	0.676736
F107	F	1.128450	-0.490069	-0.201005
F108	F	1.628450	0.009931	0.298995
H109	H	1.102395	-0.615876	0.176686
H110	H	1.602395	-0.115876	0.676686
H111	H	1.105049	-0.483591	0.176698
H112	H	1.605049	0.016409	0.676698
