data_functionalizedCrystal
_audit_creation_method	'MofGen! by Chris Wilmer'
_symmetry_space_group_name_H-M	'P1'
_symmetry_Int_Tables_number	1
_symmetry_cell_setting	triclinic
loop_
_symmetry_equiv_pos_as_xyz
  x,y,z
_cell_length_a	27.731994
_cell_length_b	16.992701
_cell_length_c	16.053802
_cell_angle_alpha	87.243340
_cell_angle_beta	87.447974
_cell_angle_gamma	93.356008
loop_
_atom_site_label
_atom_site_type_symbol
_atom_site_fract_x
_atom_site_fract_y
_atom_site_fract_z
O1	O	-0.100535	1.042449	-0.069409
O2	O	0.399465	1.542449	0.430591
O3	O	-0.099412	0.814178	-0.069410
O4	O	0.400588	1.314178	0.430590
O5	O	-0.029882	0.935425	-0.069422
O6	O	0.470118	1.435425	0.430578
O7	O	-0.170065	0.921201	-0.069397
O8	O	0.329935	1.421201	0.430603
O9	O	-0.033692	0.928752	0.069437
O10	O	0.466308	1.428752	0.569437
O11	O	-0.103222	0.807504	0.069449
O12	O	0.396778	1.307504	0.569449
O13	O	-0.104345	1.035775	0.069450
O14	O	0.395655	1.535775	0.569450
Zn15	Zn	-0.104388	0.920580	0.091497
Zn16	Zn	0.395612	1.420580	0.591497
Zn17	Zn	-0.099368	0.929373	-0.091457
Zn18	Zn	0.400632	1.429373	0.408543
O19	O	-0.173875	0.914528	0.069462
O20	O	0.326125	1.414528	0.569462
C21	C	-0.099871	0.781646	0.000019
C22	C	0.400129	1.281646	0.500019
C23	C	-0.095558	0.694656	0.000018
C24	C	0.404442	1.194656	0.500018
C25	C	-0.066575	0.206057	0.000010
C26	C	0.433425	0.706057	0.500010
C27	C	-0.070632	0.287792	0.000016
C28	C	0.429368	0.787792	0.500016
C29	C	-0.116313	0.318768	0.000020
C30	C	0.383687	0.818768	0.500020
C31	C	-0.157940	0.268002	0.000027
C32	C	0.342060	0.768002	0.500027
C33	C	-0.153882	0.186268	0.000027
C34	C	0.346118	0.686268	0.500027
C35	C	-0.133128	0.562156	0.000025
C36	C	0.366872	1.062156	0.500025
C37	C	-0.137182	0.643897	0.000023
C38	C	0.362818	1.143897	0.500023
C39	C	-0.049873	0.663681	0.000013
C40	C	0.450127	1.163681	0.500013
C41	C	-0.045820	0.581945	0.000008
C42	C	0.454180	1.081945	0.500008
C43	C	-0.087447	0.531186	0.000019
C44	C	0.412553	1.031186	0.500019
N45	N	-0.120460	0.402315	0.000023
N46	N	0.379540	0.902315	0.500023
N47	N	-0.083299	0.447640	0.000022
N48	N	0.416701	0.947640	0.500022
C49	C	-0.189990	0.918156	0.000036
C50	C	0.310010	1.418156	0.500036
C51	C	-0.243685	0.919035	0.000045
C52	C	0.256315	1.419035	0.500045
C53	C	-0.574564	0.928212	-0.075684
C54	C	-0.074564	1.428212	0.424316
C55	C	-0.776367	0.931555	-0.075696
C56	C	-0.276367	1.431555	0.424304
O57	O	-0.800693	0.935115	-0.140070
O58	O	-0.300693	1.435115	0.359930
N59	N	-0.803676	0.928332	-0.000004
N60	N	-0.303676	1.428332	0.499996
C61	C	-0.780533	0.924279	0.075696
C62	C	-0.280533	1.424279	0.575696
O63	O	-0.808391	0.921623	0.140076
O64	O	-0.308391	1.421623	0.640076
C65	C	-0.578731	0.920942	0.075707
C66	C	-0.078731	1.420942	0.575707
C67	C	-0.551424	0.924157	0.000011
C68	C	-0.051424	1.424157	0.500011
C69	C	-0.547257	0.931428	-0.151375
C70	C	-0.047257	1.431428	0.348625
C71	C	-0.496810	0.930588	-0.151371
C72	C	0.003190	1.430588	0.348629
C73	C	-0.473670	0.926532	-0.075676
C74	C	0.026330	1.426532	0.424324
C75	C	-0.500977	0.923317	0.000014
C76	C	-0.000977	1.423317	0.500014
C77	C	-0.555588	0.916894	0.151407
C78	C	-0.055588	1.416894	0.651407
C79	C	-0.505134	0.916062	0.151403
C80	C	-0.005134	1.416062	0.651403
C81	C	-0.477827	0.919277	0.075706
C82	C	0.022173	1.419277	0.575706
C83	C	-0.427389	0.918421	0.075713
C84	C	0.072611	1.418421	0.575713
N85	N	-0.400079	0.921644	0.000021
N86	N	0.099921	1.421644	0.500021
C87	C	-0.423219	0.925699	-0.075674
C88	C	0.076781	1.425699	0.424326
C89	C	-0.886481	0.926030	0.075685
C90	C	-0.386481	1.426030	0.575685
C91	C	-0.936931	0.926862	0.075682
C92	C	-0.436931	1.426862	0.575682
C93	C	-0.932762	0.934140	-0.075711
C94	C	-0.432762	1.434140	0.424289
C95	C	-0.882311	0.933302	-0.075707
C96	C	-0.382311	1.433302	0.424293
C97	C	-0.859171	0.929252	-0.000007
C98	C	-0.359171	1.429252	0.499993
C99	C	-0.317276	0.923934	-0.075660
C100	C	0.182724	1.423934	0.424340
C101	C	-0.266825	0.923091	-0.075649
C102	C	0.233175	1.423091	0.424351
C103	C	-0.270999	0.915817	0.075743
C104	C	0.229001	1.415817	0.575743
C105	C	-0.321446	0.916657	0.075733
C106	C	0.178554	1.416657	0.575733
C107	C	-0.344583	0.920718	0.000025
C108	C	0.155417	1.420718	0.500025
O109	O	-0.403030	0.914872	0.140053
O110	O	0.096970	1.414872	0.640053
O111	O	-0.395351	0.928373	-0.140044
O112	O	0.104649	1.428373	0.359956
C113	C	-0.625012	0.929052	-0.075688
C114	C	-0.125012	1.429052	0.424312
C115	C	-0.652319	0.925837	0.000003
C116	C	-0.152319	1.425837	0.500003
C117	C	-0.629178	0.921781	0.075697
C118	C	-0.129178	1.421781	0.575697
C119	C	-0.702769	0.926670	0.000000
C120	C	-0.202769	1.426670	0.500000
C121	C	-0.725909	0.930725	-0.075694
C122	C	-0.225909	1.430725	0.424306
C123	C	-0.698600	0.933948	-0.151386
C124	C	-0.198600	1.433948	0.348614
C125	C	-0.648152	0.933108	-0.151382
C126	C	-0.148152	1.433108	0.348618
C127	C	-0.656488	0.918558	0.151389
C128	C	-0.156488	1.418558	0.651389
C129	C	-0.706935	0.919398	0.151379
C130	C	-0.206935	1.419398	0.651379
C131	C	-0.730076	0.923453	0.075685
C132	C	-0.230076	1.423453	0.575685
C133	C	-0.013767	0.931797	0.000002
C134	C	0.486233	1.431797	0.500002
C135	C	0.039928	0.930918	-0.000013
C136	C	0.539928	1.430918	0.499987
C137	C	-0.103885	1.068307	0.000019
C138	C	0.396115	1.568307	0.500019
C139	C	-0.108199	1.155298	0.000014
C140	C	0.391801	1.655298	0.500014
N141	N	-0.107815	0.914585	0.216358
N142	N	0.392185	1.414585	0.716358
N143	N	-0.095939	0.935374	-0.216318
N144	N	0.404061	1.435374	0.283682
C145	C	-0.078241	0.966195	0.260046
C146	C	0.421759	1.466195	0.760046
C147	C	-0.080643	0.962008	0.347454
C148	C	0.419357	1.462008	0.847454
C149	C	-0.112620	0.906215	0.391170
C150	C	0.387380	1.406215	0.891170
C151	C	-0.142195	0.854600	0.347476
C152	C	0.357805	1.354600	0.847476
C153	C	-0.139790	0.858783	0.260070
C154	C	0.360210	1.358783	0.760070
C155	C	-0.123109	0.887942	0.652582
C156	C	0.376891	1.387942	1.152582
C157	C	-0.125512	0.883765	0.739994
C158	C	0.374488	1.383765	1.239994
C159	C	-0.063959	0.991172	0.739966
C160	C	0.436041	1.491172	1.239966
C161	C	-0.061560	0.995353	0.652558
C162	C	0.438440	1.495353	1.152558
C163	C	-0.091132	0.943736	0.608871
C164	C	0.408868	1.443736	1.108871
N165	N	-0.115077	0.901936	0.480515
N166	N	0.384923	1.401936	0.980515
N167	N	-0.088673	0.948011	0.519528
N168	N	0.411327	1.448011	1.019528
H169	H	-0.167023	0.520837	0.000031
H170	H	0.332977	1.020837	0.500031
H171	H	-0.195134	0.293228	0.000036
H172	H	0.304866	0.793228	0.500036
C173	C	-0.199130	0.131286	-0.000014
C174	C	0.300870	0.631286	0.499986
C175	C	-0.240004	0.175906	-0.000034
C176	C	0.259996	0.675906	0.499966
C177	C	-0.281696	0.125286	-0.000080
C178	C	0.218304	0.625286	0.499920
H179	H	-0.200761	0.096646	0.048397
H180	H	0.299239	0.596646	0.548397
H181	H	-0.198058	0.101329	-0.048456
H182	H	0.301942	0.601329	0.451544
H183	H	-0.241076	0.205850	0.048404
H184	H	0.258924	0.705850	0.548404
H185	H	-0.238390	0.210544	-0.048441
H186	H	0.261610	0.710544	0.451559
H187	H	-0.280624	0.095328	-0.048522
H188	H	0.219376	0.595328	0.451478
H189	H	-0.283321	0.090647	0.048332
H190	H	0.216679	0.590647	0.548332
H191	H	-0.309433	0.155553	-0.000101
H192	H	0.190567	0.655553	0.499899
C193	C	-0.171926	0.802881	0.212526
C194	C	0.328074	1.302881	0.712526
C195	C	-0.201740	0.846658	0.162318
C196	C	0.298260	1.346658	0.662318
C197	C	-0.231344	0.795184	0.118501
C198	C	0.268656	1.295184	0.618501
H199	H	-0.191359	0.769036	0.250983
H200	H	0.308641	1.269036	0.750983
H201	H	-0.152347	0.772122	0.178390
H202	H	0.347653	1.272122	0.678390
H203	H	-0.221317	0.877404	0.196450
H204	H	0.278683	1.377404	0.696450
H205	H	-0.182320	0.880501	0.123845
H206	H	0.317680	1.380501	0.623845
H207	H	-0.211765	0.764425	0.084365
H208	H	0.288235	1.264425	0.584365
H209	H	-0.250774	0.761342	0.156964
H210	H	0.249226	1.261342	0.656964
H211	H	-0.251573	0.824879	0.084424
H212	H	0.248427	1.324879	0.584424
H213	H	-0.959161	0.924229	0.137322
H214	H	-0.459161	1.424229	0.637322
H215	H	-0.008622	0.556731	0.000004
H216	H	0.491378	1.056731	0.500004
C217	C	-0.016935	0.172581	0.000046
C218	C	0.483065	0.672581	0.500046
C219	C	0.018648	0.234531	0.000066
C220	C	0.518648	0.734531	0.500066
C221	C	0.064382	0.203726	0.000112
C222	C	0.564382	0.703726	0.500112
H223	H	-0.012138	0.143447	-0.048365
H224	H	0.487862	0.643447	0.451635
H225	H	-0.014843	0.138802	0.048488
H226	H	0.485157	0.638802	0.548488
H227	H	0.016557	0.268296	-0.048372
H228	H	0.516557	0.768296	0.451628
H229	H	0.013867	0.263670	0.048473
H230	H	0.513867	0.763670	0.548473
H231	H	0.066474	0.169947	0.048554
H232	H	0.566474	0.669947	0.548554
H233	H	0.069174	0.174593	-0.048300
H234	H	0.569174	0.674593	0.451700
H235	H	0.088530	0.245753	0.000133
H236	H	0.588530	0.745753	0.500133
C237	C	-0.723704	0.938185	-0.233602
C238	C	-0.223704	1.438185	0.266398
C239	C	-0.713022	0.872713	-0.279256
C240	C	-0.213022	1.372713	0.220744
C241	C	-0.736144	0.876586	-0.354990
C242	C	-0.236144	1.376586	0.145010
H243	H	-0.712677	0.985213	-0.264805
H244	H	-0.212677	1.485213	0.235195
H245	H	-0.757667	0.938182	-0.222801
H246	H	-0.257667	1.438182	0.277199
H247	H	-0.679066	0.872724	-0.290059
H248	H	-0.179066	1.372724	0.209941
H249	H	-0.724050	0.825676	-0.248078
H250	H	-0.224050	1.325676	0.251922
H251	H	-0.770107	0.876583	-0.344189
H252	H	-0.270107	1.376583	0.155811
H253	H	-0.725115	0.923616	-0.386185
H254	H	-0.225115	1.423616	0.113815
H255	H	-0.728903	0.832162	-0.385972
H256	H	-0.228903	1.332162	0.114028
H257	H	-0.729165	0.916772	0.213026
H258	H	-0.229165	1.416772	0.713026
C259	C	-0.618490	0.936440	-0.233544
C260	C	-0.118490	1.436440	0.266456
C261	C	-0.592252	0.868714	-0.237984
C262	C	-0.092252	1.368714	0.262016
C263	C	-0.564930	0.871753	-0.313667
C264	C	-0.064930	1.371753	0.186333
H265	H	-0.596760	0.981935	-0.236776
H266	H	-0.096760	1.481935	0.263224
H267	H	-0.639489	0.938935	-0.278644
H268	H	-0.139489	1.438935	0.221356
H269	H	-0.571255	0.866227	-0.192897
H270	H	-0.071255	1.366227	0.307103
H271	H	-0.613969	0.823208	-0.234767
H272	H	-0.113969	1.323208	0.265233
H273	H	-0.585929	0.874247	-0.358767
H274	H	-0.085929	1.374247	0.141233
H275	H	-0.543203	0.917250	-0.316892
H276	H	-0.043203	1.417250	0.183108
H277	H	-0.547128	0.825798	-0.316693
H278	H	-0.047128	1.325798	0.183307
C279	C	-0.031766	1.047168	0.787294
C280	C	0.468234	1.547168	1.287294
C281	C	0.016790	1.036077	0.766018
C282	C	0.516790	1.536077	1.266018
C283	C	0.046463	1.087652	0.809593
C284	C	0.546463	1.587652	1.309593
H285	H	-0.037711	1.036742	0.845623
H286	H	0.462289	1.536742	1.345623
H287	H	-0.038625	1.100111	0.772943
H288	H	0.461375	1.600111	1.272943
H289	H	0.023646	0.983147	0.780375
H290	H	0.523646	1.483147	1.280375
H291	H	0.022750	1.046510	0.707697
H292	H	0.522750	1.546510	1.207697
H293	H	0.039604	1.140594	0.795241
H294	H	0.539604	1.640594	1.295241
H295	H	0.040514	1.077221	0.867920
H296	H	0.540514	1.577221	1.367920
H297	H	0.079411	1.080138	0.795157
H298	H	0.579411	1.580138	1.295157
H299	H	-0.036737	0.329118	0.000015
H300	H	0.463263	0.829118	0.500015
H301	H	-0.151554	0.838329	0.775584
H302	H	0.348446	1.338329	1.275584
H303	H	-0.147189	0.845914	0.617019
H304	H	0.352811	1.345914	1.117019
H305	H	-0.244594	0.925706	-0.137294
H306	H	0.255406	1.425706	0.362706
H307	H	-0.035521	1.040784	0.616966
H308	H	0.464479	1.540784	1.116966
H309	H	-0.637652	0.915258	0.213030
H310	H	-0.137652	1.415258	0.713030
H311	H	-0.336109	0.927242	-0.137309
H312	H	0.163891	1.427242	0.362691
C313	C	-0.467235	0.933987	-0.233625
C314	C	0.032765	1.433987	0.266375
C315	C	-0.481097	0.868956	-0.279318
C316	C	0.018903	1.368956	0.220682
C317	C	-0.453873	0.872078	-0.355105
C318	C	0.046127	1.372078	0.144895
H319	H	-0.433863	0.932881	-0.222921
H320	H	0.066137	1.432881	0.277079
H321	H	-0.472746	0.981324	-0.264752
H322	H	0.027254	1.481324	0.235248
H323	H	-0.475582	0.821632	-0.248198
H324	H	0.024418	1.321632	0.251802
H325	H	-0.514465	0.870050	-0.290044
H326	H	-0.014465	1.370050	0.209956
H327	H	-0.459384	0.919415	-0.386232
H328	H	0.040616	1.419415	0.113768
H329	H	-0.420502	0.870974	-0.344393
H330	H	0.079498	1.370974	0.155607
H331	H	-0.463277	0.827961	-0.386121
H332	H	0.036723	1.327961	0.113879
H333	H	-0.566093	0.934733	-0.213018
H334	H	-0.066093	1.434733	0.286982
C335	C	-0.852749	0.936827	-0.157980
C336	C	-0.352749	1.436827	0.342020
C337	C	-0.883819	0.940566	-0.224264
C338	C	-0.383819	1.440566	0.275736
C339	C	-0.856607	0.943819	-0.300069
C340	C	-0.356607	1.443819	0.199931
H341	H	-0.834902	0.890948	-0.161236
H342	H	-0.334902	1.390948	0.338764
H343	H	-0.831066	0.982390	-0.161187
H344	H	-0.331066	1.482390	0.338813
H345	H	-0.905494	0.895007	-0.221059
H346	H	-0.405494	1.395007	0.278941
H347	H	-0.901667	0.986443	-0.221036
H348	H	-0.401667	1.486443	0.278964
H349	H	-0.834923	0.989382	-0.303277
H350	H	-0.334923	1.489382	0.196723
H351	H	-0.838761	0.897938	-0.303317
H352	H	-0.338761	1.397938	0.196683
H353	H	-0.877683	0.946363	-0.345052
H354	H	-0.377683	1.446363	0.154948
H355	H	-0.951612	0.937437	-0.137344
H356	H	-0.451612	1.437437	0.362656
C357	C	-0.861454	0.921583	0.157967
C358	C	-0.361454	1.421583	0.657967
C359	C	-0.896175	0.918916	0.224244
C360	C	-0.396175	1.418916	0.724244
C361	C	-0.873141	0.914805	0.300055
C362	C	-0.373141	1.414805	0.800055
H363	H	-0.839939	0.966806	0.161244
H364	H	-0.339939	1.466806	0.661244
H365	H	-0.843796	0.875365	0.161163
H366	H	-0.343796	1.375365	0.661163
H367	H	-0.913825	0.965129	0.221050
H368	H	-0.413825	1.465129	0.721050
H369	H	-0.917691	0.873695	0.220996
H370	H	-0.417691	1.373695	0.720996
H371	H	-0.855483	0.868587	0.303250
H372	H	-0.355483	1.368587	0.803250
H373	H	-0.851628	0.960029	0.303323
H374	H	-0.351628	1.460029	0.803323
H375	H	-0.896696	0.912988	0.345033
H376	H	-0.396696	1.412988	0.845033
H377	H	-0.577812	0.914284	0.213048
H378	H	-0.077812	1.414284	0.713048
H379	H	-0.486296	0.912765	0.213049
H380	H	0.013704	1.412765	0.713049
H381	H	-0.343682	0.914008	0.137371
H382	H	0.156318	1.414008	0.637371
C383	C	-0.043473	1.026800	0.212737
C384	C	0.456527	1.526800	0.712737
C385	C	-0.018079	1.071086	0.269711
C386	C	0.481921	1.571086	0.769711
C387	C	0.013960	1.126915	0.226163
C388	C	0.513960	1.626915	0.726163
H389	H	-0.061133	1.060914	0.178629
H390	H	0.438867	1.560914	0.678629
H391	H	-0.021299	1.000511	0.178666
H392	H	0.478701	1.500511	0.678666
H393	H	-0.040251	1.097373	0.303768
H394	H	0.459749	1.597373	0.803768
H395	H	-0.000410	1.036994	0.303821
H396	H	0.499590	1.536994	0.803821
H397	H	0.036134	1.100626	0.192092
H398	H	0.536134	1.600626	0.692092
H399	H	-0.003703	1.161023	0.192056
H400	H	0.496297	1.661023	0.692056
H401	H	0.031197	1.156965	0.264813
H402	H	0.531197	1.656965	0.764813
C403	C	-0.186806	0.677433	-0.000095
C404	C	0.313194	1.177433	0.499905
C405	C	-0.210206	0.655002	-0.071516
C406	C	0.289794	1.155002	0.428484
C407	C	-0.255920	0.685876	-0.071648
C408	C	0.244080	1.185876	0.428352
H409	H	-0.183323	0.733379	-0.000142
H410	H	0.316677	1.233379	0.499858
H411	H	-0.205432	0.657631	0.048309
H412	H	0.294568	1.157631	0.548309
H413	H	-0.191585	0.674808	-0.119907
H414	H	0.308415	1.174808	0.380093
H415	H	-0.213702	0.599061	-0.071484
H416	H	0.286298	1.099061	0.428516
H417	H	-0.274545	0.666074	-0.023243
H418	H	0.225455	1.166074	0.476757
H419	H	-0.252431	0.741821	-0.071693
H420	H	0.247569	1.241821	0.428307
H421	H	-0.271804	0.670655	-0.120102
H422	H	0.228196	1.170655	0.379898
H423	H	-0.168230	0.809168	0.383075
H424	H	0.331770	1.309168	0.883075
C425	C	-0.048476	1.017922	0.394926
C426	C	0.451524	1.517922	0.894926
C427	C	-0.018638	0.974155	0.445098
C428	C	0.481362	1.474155	0.945098
C429	C	0.011006	1.025639	0.488830
C430	C	0.511006	1.525639	0.988830
H431	H	-0.068012	1.048712	0.429084
H432	H	0.431988	1.548712	0.929084
H433	H	-0.029063	1.051738	0.356393
H434	H	0.470937	1.551738	0.856393
H435	H	-0.038049	0.940353	0.483626
H436	H	0.461951	1.440353	0.983626
H437	H	0.000908	0.943367	0.410961
H438	H	0.500908	1.443367	0.910961
H439	H	0.030419	1.059455	0.450297
H440	H	0.530419	1.559455	0.950297
H441	H	-0.008533	1.056427	0.522983
H442	H	0.491467	1.556427	1.022983
H443	H	0.031258	0.995951	0.522870
H444	H	0.531258	1.495951	1.022870
C445	C	-0.004718	0.718890	-0.000122
C446	C	0.495282	1.218890	0.499878
C447	C	-0.002539	0.769839	-0.071550
C448	C	0.497461	1.269839	0.428450
C449	C	0.039050	0.820715	-0.071694
C450	C	0.539050	1.320715	0.428306
H451	H	0.023106	0.688838	-0.000166
H452	H	0.523106	1.188838	0.499834
H453	H	-0.005815	0.748906	0.048277
H454	H	0.494185	1.248906	0.548277
H455	H	-0.001438	0.739827	-0.119937
H456	H	0.498562	1.239827	0.380063
H457	H	-0.030353	0.799909	-0.071521
H458	H	0.469647	1.299909	0.428479
H459	H	0.037953	0.850731	-0.023295
H460	H	0.537953	1.350731	0.476705
H461	H	0.066870	0.790656	-0.071736
H462	H	0.566870	1.290656	0.428264
H463	H	0.040532	0.855295	-0.120153
H464	H	0.540532	1.355295	0.379847
H465	H	-0.252149	0.912512	0.137371
H466	H	0.247851	1.412512	0.637371
