data_functionalizedCrystal
_audit_creation_method	'MofGen! by Chris Wilmer'
_symmetry_space_group_name_H-M	'P1'
_symmetry_Int_Tables_number	1
_symmetry_cell_setting	triclinic
loop_
_symmetry_equiv_pos_as_xyz
  x,y,z
_cell_length_a	14.044191
_cell_length_b	14.044220
_cell_length_c	10.268362
_cell_angle_alpha	89.993803
_cell_angle_beta	89.997935
_cell_angle_gamma	93.190327
loop_
_atom_site_label
_atom_site_type_symbol
_atom_site_fract_x
_atom_site_fract_y
_atom_site_fract_z
O1	O	1.277173	0.230201	-0.108243
O2	O	1.000500	0.221888	-0.108259
O3	O	1.134684	0.087708	-0.108239
O4	O	1.142989	0.364380	-0.108264
O5	O	1.134670	0.087701	0.108362
O6	O	1.000487	0.221881	0.108341
O7	O	1.277159	0.230194	0.108358
Cu8	Cu	1.138822	0.226037	0.128127
Cu9	Cu	1.138838	0.226045	-0.128029
O10	O	1.142976	0.364373	0.108337
C11	C	0.964872	0.218248	0.000039
C12	C	0.858728	0.207401	0.000033
C13	C	0.613270	0.264501	0.000041
C14	C	0.664395	0.187585	0.000046
C15	C	0.772532	0.198613	0.000039
C16	C	0.505123	0.253474	0.000048
C17	C	1.131041	0.052083	0.000062
C18	C	1.120197	-0.054060	0.000063
C19	C	1.100370	-0.248398	0.000043
C20	C	1.177285	-0.299526	0.000044
C21	C	1.166253	-0.407663	0.000033
C22	C	1.111400	-0.140252	0.000054
C23	C	1.312788	0.233834	0.000056
C24	C	1.418931	0.244681	0.000054
C25	C	1.146618	0.399998	0.000033
C26	C	1.157463	0.506142	0.000024
N27	N	1.138818	0.226031	0.308293
N28	N	1.138849	0.226044	-0.308194
C29	C	1.138833	0.226043	0.573963
C30	C	1.138822	0.226039	0.426125
H31	H	0.650711	0.338628	0.000030
N32	N	1.275485	-0.249938	0.000082
H33	H	1.325280	-0.299128	0.000087
H34	H	1.283412	-0.208711	-0.080205
N35	N	1.002176	-0.297983	0.000036
H36	H	1.008116	-0.369323	0.000033
H37	H	0.966364	-0.278862	0.080337
H38	H	0.626952	0.113452	-0.000039
