data_functionalizedCrystal
_audit_creation_method	'MofGen! by Chris Wilmer'
_symmetry_space_group_name_H-M	'P1'
_symmetry_Int_Tables_number	1
_symmetry_cell_setting	triclinic
loop_
_symmetry_equiv_pos_as_xyz
  x,y,z
_cell_length_a	19.188930
_cell_length_b	19.188924
_cell_length_c	14.472310
_cell_angle_alpha	89.996838
_cell_angle_beta	89.973109
_cell_angle_gamma	83.143372
loop_
_atom_site_label
_atom_site_type_symbol
_atom_site_fract_x
_atom_site_fract_y
_atom_site_fract_z
O1	O	0.926152	0.087163	-0.077142
O2	O	1.426152	0.587163	0.422858
O3	O	0.722840	0.098897	-0.077079
O4	O	1.222840	0.598897	0.422921
O5	O	0.830366	-0.008626	-0.077102
O6	O	1.330366	0.491374	0.422898
O7	O	0.818626	0.194686	-0.077120
O8	O	1.318626	0.694686	0.422880
O9	O	0.830338	-0.008619	0.076580
O10	O	1.330338	0.491381	0.576580
O11	O	0.722813	0.098904	0.076603
O12	O	1.222813	0.598904	0.576603
O13	O	0.926124	0.087169	0.076540
O14	O	1.426124	0.587169	0.576540
Cu15	Cu	0.824466	0.093037	0.090604
Cu16	Cu	1.324466	0.593037	0.590604
Cu17	Cu	0.824499	0.093030	-0.091143
Cu18	Cu	1.324499	0.593030	0.408857
O19	O	0.818599	0.194693	0.076562
O20	O	1.318599	0.694693	0.576562
C21	C	0.696815	0.098521	-0.000230
C22	C	1.196815	0.598521	0.499770
C23	C	0.619311	0.097380	-0.000206
C24	C	1.119311	0.597380	0.499794
C25	C	0.574386	0.160471	-0.000226
C26	C	1.074386	0.660471	0.499774
C27	C	0.501562	0.159399	-0.000236
C28	C	1.001562	0.659399	0.499764
C29	C	0.473667	0.095233	-0.000245
C30	C	0.973667	0.595233	0.499755
C31	C	0.518602	0.032134	-0.000219
C32	C	1.018602	0.532134	0.499781
C33	C	0.591424	0.033207	-0.000200
C34	C	1.091424	0.533207	0.499800
N35	N	0.365697	0.046184	-0.052582
N36	N	0.865697	0.546184	0.447418
N37	N	0.296519	0.045168	-0.052602
N38	N	0.796519	0.545168	0.447398
C39	C	0.254258	0.091995	-0.000301
C40	C	0.754258	0.591995	0.499699
N41	N	0.283788	0.139886	0.052010
N42	N	0.783788	0.639886	0.552010
N43	N	0.352973	0.140903	0.052027
N44	N	0.852973	0.640903	0.552027
C45	C	0.394704	0.094062	-0.000265
C46	C	0.894704	0.594062	0.499735
C47	C	0.130368	0.153928	-0.000330
C48	C	0.630368	0.653928	0.499670
C49	C	0.057543	0.152854	-0.000335
C50	C	0.557543	0.652854	0.499665
C51	C	0.074586	0.025586	-0.000327
C52	C	0.574586	0.525586	0.499673
C53	C	0.147409	0.026663	-0.000314
C54	C	0.647409	0.526663	0.499686
C55	C	0.175295	0.090835	-0.000320
C56	C	0.675295	0.590835	0.499680
C57	C	0.829973	-0.034634	-0.000260
C58	C	1.329973	0.465366	0.499740
C59	C	0.828834	-0.112138	-0.000257
C60	C	1.328834	0.387862	0.499743
C61	C	0.828317	-0.148541	-0.084029
C62	C	1.328317	0.351459	0.415971
C63	C	0.827237	-0.221363	-0.084036
C64	C	1.327237	0.278637	0.415964
C65	C	0.826688	-0.257783	-0.000265
C66	C	1.326688	0.242217	0.499735
C67	C	0.827201	-0.221371	0.083518
C68	C	1.327201	0.278629	0.583518
C69	C	0.828273	-0.148549	0.083522
C70	C	1.328273	0.351451	0.583522
N71	N	0.864725	-0.377444	0.062071
N72	N	1.364725	0.122556	0.562071
N73	N	0.863707	-0.446622	0.062061
N74	N	1.363707	0.053378	0.562061
C75	C	0.823454	-0.477192	-0.000273
C76	C	1.323454	0.022808	0.499727
N77	N	0.784266	-0.435972	-0.062612
N78	N	1.284266	0.064028	0.437388
N79	N	0.785287	-0.366788	-0.062605
N80	N	1.285287	0.133212	0.437395
C81	C	0.825524	-0.336746	-0.000261
C82	C	1.325524	0.163254	0.499739
C83	C	0.821766	-0.592557	-0.084059
C84	C	1.321766	-0.092557	0.415941
C85	C	0.820681	-0.665380	-0.084062
C86	C	1.320681	-0.165380	0.415938
C87	C	0.820652	-0.665388	0.083494
C88	C	1.320652	-0.165388	0.583494
C89	C	0.821729	-0.592565	0.083495
C90	C	1.321729	-0.092565	0.583495
C91	C	0.822289	-0.556154	-0.000284
C92	C	1.322289	-0.056154	0.499716
C93	C	0.952149	0.087546	-0.000311
C94	C	1.452149	0.587546	0.499689
C95	C	1.029654	0.088687	-0.000342
C96	C	1.529654	0.588687	0.499658
C97	C	0.818992	0.220700	-0.000282
C98	C	1.318992	0.720700	0.499718
C99	C	0.820131	0.298205	-0.000291
C100	C	1.320131	0.798205	0.499709
N101	N	0.824448	0.093042	0.218435
N102	N	1.324448	0.593042	0.718435
N103	N	0.824522	0.093019	-0.218974
N104	N	1.324522	0.593019	0.281026
C105	C	0.824498	0.093027	0.592526
C106	C	1.324498	0.593027	1.092526
C107	C	0.766771	0.150369	0.553372
C108	C	1.266771	0.650369	1.053372
C109	C	0.766903	0.150577	0.446284
C110	C	1.266903	0.650577	0.946284
C111	C	0.824472	0.093034	0.406935
C112	C	1.324472	0.593034	0.906935
C113	C	0.897274	0.108724	0.445747
C114	C	1.397274	0.608724	0.945747
C115	C	0.896950	0.109131	0.552869
C116	C	1.396950	0.609131	1.052869
C117	C	0.810073	0.019824	0.553067
C118	C	1.310073	0.519824	1.053067
C119	C	0.808400	0.020318	0.445941
C120	C	1.308400	0.520318	0.945941
C121	C	0.824463	0.093037	0.302047
C122	C	1.324463	0.593037	0.802047
C123	C	0.824512	0.093026	0.697414
C124	C	1.324512	0.593026	1.197414
H125	H	0.597086	0.212725	-0.000233
H126	H	1.097086	0.712725	0.499767
H127	H	0.712781	0.141262	0.420046
H128	H	1.212781	0.641262	0.920046
F129	F	0.195224	-0.040489	-0.000297
F130	F	0.695224	0.459511	0.499703
H131	H	0.758151	0.004683	0.580153
H132	H	1.258151	0.504683	1.080153
F133	F	0.044902	-0.042705	-0.000327
F134	F	0.544902	0.457295	0.499673
H135	H	0.020965	0.204232	-0.000346
H136	H	0.520965	0.704232	0.499654
F137	F	0.453740	0.226552	-0.000255
F138	F	0.953740	0.726552	0.499745
F139	F	0.913609	0.178901	0.585504
F140	F	1.413609	0.678901	1.085504
H141	H	0.628003	-0.018171	-0.000184
H142	H	1.128003	0.481829	0.499816
H143	H	0.828772	-0.118899	-0.152248
H144	H	1.328772	0.381101	0.347752
F145	F	0.822358	-0.553803	-0.173222
F146	F	1.322358	-0.053803	0.326778
H147	H	0.153075	0.206181	-0.000322
H148	H	0.653075	0.706181	0.499678
F149	F	0.820063	-0.704143	0.172649
F150	F	1.320063	-0.204143	0.672649
H151	H	0.826813	-0.251007	-0.152255
H152	H	1.326813	0.248993	0.347745
H153	H	0.852173	-0.022845	0.578385
H154	H	1.352173	0.477155	1.078385
F155	F	0.822278	-0.553821	0.172658
F156	F	1.322278	-0.053821	0.672658
F157	F	0.826611	-0.260132	0.172672
F158	F	1.326611	0.239868	0.672672
F159	F	0.828822	-0.109806	0.172688
F160	F	1.328822	0.390194	0.672688
F161	F	0.820127	-0.704122	-0.173229
F162	F	1.320127	-0.204122	0.326771
F163	F	0.695795	0.138390	0.587084
F164	F	1.195795	0.638390	1.087084
F165	F	0.778619	0.220981	0.588517
F166	F	1.278619	0.720981	1.088517
H167	H	0.495885	-0.020111	-0.000239
H168	H	0.995885	0.479889	0.499761
F169	F	0.778890	0.221592	0.412762
F170	F	1.278890	0.721592	0.912762
F171	F	0.954717	0.056549	0.586721
F172	F	1.454717	0.556549	1.086721
F173	F	0.954752	0.055574	0.412431
F174	F	1.454752	0.555574	0.912431
F175	F	0.738403	0.004747	0.412790
F176	F	1.238403	0.504747	0.912790
F177	F	0.914342	0.177697	0.410658
F178	F	1.414342	0.677697	0.910658
F179	F	0.859814	-0.038048	0.410945
F180	F	1.359814	0.461952	0.910945
