data_functionalizedCrystal
_audit_creation_method	'MofGen! by Chris Wilmer'
_symmetry_space_group_name_H-M	'P1'
_symmetry_Int_Tables_number	1
_symmetry_cell_setting	triclinic
loop_
_symmetry_equiv_pos_as_xyz
  x,y,z
_cell_length_a	15.944545
_cell_length_b	27.732064
_cell_length_c	14.421503
_cell_angle_alpha	90.008357
_cell_angle_beta	89.995153
_cell_angle_gamma	83.072798
loop_
_atom_site_label
_atom_site_type_symbol
_atom_site_fract_x
_atom_site_fract_y
_atom_site_fract_z
O1	O	1.113724	0.062319	-0.077043
O2	O	0.869074	0.070008	-0.077057
O3	O	0.998990	-0.004200	-0.077053
O4	O	0.983808	0.136527	-0.077047
O5	O	0.998968	-0.004189	0.077170
O6	O	0.869052	0.070019	0.077166
O7	O	1.113702	0.062330	0.077180
Cu8	Cu	0.991375	0.066175	0.091255
Cu9	Cu	0.991401	0.066162	-0.091132
O10	O	0.983786	0.136538	0.077177
C11	C	0.837773	0.069695	0.000053
C12	C	0.744539	0.068739	0.000047
C13	C	0.474540	0.019887	0.000055
C14	C	0.524806	0.043445	0.076098
C15	C	0.408940	0.065332	0.000063
C16	C	0.524807	0.043446	-0.075954
C17	C	0.573832	0.067004	0.000053
C18	C	0.457977	0.088878	0.076169
C19	C	0.457975	0.088873	-0.075951
C20	C	0.508208	0.112464	0.000111
C21	C	0.313950	0.064368	0.000069
C22	C	0.668818	0.067972	0.000054
C23	C	0.998658	-0.022203	0.000056
C24	C	0.997692	-0.075861	0.000047
C25	C	0.914342	-0.453294	0.000038
C26	C	0.917897	-0.251618	0.000037
O27	O	0.853220	-0.220645	-0.000003
N28	N	0.994935	-0.232158	0.000042
C29	C	1.071090	-0.263121	0.000040
O30	O	1.136697	-0.241941	0.000034
C31	C	1.067533	-0.464795	0.000035
C32	C	0.990490	-0.484252	0.000040
C33	C	0.837305	-0.472752	0.000043
C34	C	0.836417	-0.523168	0.000048
C35	C	0.912566	-0.554126	0.000049
C36	C	0.989602	-0.534668	0.000045
C37	C	1.143687	-0.495756	0.000026
C38	C	1.142791	-0.546178	0.000023
C39	C	1.065748	-0.565635	0.000028
C40	C	1.064863	-0.616042	0.000052
N41	N	0.987825	-0.635503	0.000047
C42	C	0.911676	-0.604544	0.000046
C43	C	1.072951	-0.157238	0.000045
C44	C	1.073841	-0.106820	0.000048
C45	C	0.920648	-0.095321	0.000044
C46	C	0.919760	-0.145740	0.000047
C47	C	0.995914	-0.176698	0.000041
C48	C	0.909817	-0.710422	0.000058
C49	C	0.908936	-0.760843	0.000067
C50	C	1.062128	-0.772337	0.000067
C51	C	1.063010	-0.721921	0.000062
C52	C	0.986847	-0.690964	0.000055
O53	O	1.129505	-0.647044	0.000082
O54	O	0.846079	-0.625733	0.000031
C55	C	0.915230	-0.402878	0.000033
C56	C	0.992266	-0.383420	0.000029
C57	C	1.068415	-0.414379	0.000030
C58	C	0.993156	-0.333002	0.000032
C59	C	0.917007	-0.302044	0.000031
C60	C	0.839969	-0.321504	0.000027
C61	C	0.839081	-0.371920	0.000032
C62	C	1.145453	-0.394919	0.000035
C63	C	1.146335	-0.344502	0.000030
C64	C	1.070186	-0.313544	0.000029
C65	C	1.145003	0.062643	0.000069
C66	C	1.238237	0.063598	0.000068
C67	C	0.984118	0.154540	0.000066
C68	C	0.985084	0.208199	0.000068
N69	N	0.991364	0.066184	0.219536
N70	N	0.991419	0.066150	-0.219413
C71	C	0.931280	0.100483	0.469188
C72	C	1.007059	0.109866	0.530996
C73	C	0.991384	0.066173	0.408698
C74	C	0.915625	0.056801	0.530984
C75	C	0.991397	0.066163	0.591419
C76	C	1.067201	0.075578	0.469145
C77	C	0.975718	0.022494	0.469127
C78	C	1.051551	0.031858	0.530907
C79	C	0.991376	0.066180	0.303437
C80	C	0.991415	0.066155	0.696678
H81	H	0.553977	0.024257	0.140385
O82	O	0.563467	0.017997	-0.161089
H83	H	0.632786	0.019234	-0.160628
O84	O	1.226783	-0.474777	0.000016
H85	H	1.230851	-0.452085	-0.062842
O86	O	0.755985	-0.392903	0.000037
H87	H	0.719439	-0.380475	-0.062826
H88	H	1.102440	0.002838	0.557836
H89	H	0.428910	0.108061	0.140527
H90	H	1.134969	-0.182440	0.000041
H91	H	0.851552	0.048879	0.558150
O92	O	0.825837	-0.781830	0.000070
H93	H	0.773038	-0.751829	0.000059
H94	H	0.777967	-0.296289	0.000031
O95	O	0.753318	-0.544148	0.000049
H96	H	0.749252	-0.566851	-0.062807
O97	O	0.454462	-0.031952	0.000144
H98	H	0.481361	-0.050703	0.063363
O99	O	0.528072	0.164343	0.000166
H100	H	0.501053	0.183093	0.063349
H101	H	0.880503	0.129521	0.442089
H102	H	1.136577	-0.090982	0.000058
H103	H	0.428789	0.108044	-0.140241
H104	H	0.847798	-0.685222	0.000052
H105	H	1.124126	-0.797552	0.000072
O106	O	0.755167	-0.439364	0.000056
H107	H	0.701458	-0.461373	0.000068
O108	O	0.836666	-0.166726	0.000044
H109	H	0.783869	-0.136724	0.000039
H110	H	1.020322	0.146799	0.558171
H111	H	0.858645	-0.070106	0.000047
O112	O	1.224929	-0.579569	0.000026
H113	H	1.278645	-0.557565	0.000032
O114	O	1.229436	-0.323518	0.000014
H115	H	1.282233	-0.353520	0.000002
H116	H	1.207464	-0.420121	0.000035
H117	H	0.962430	-0.014428	0.441931
O118	O	1.146102	-0.700929	0.000060
H119	H	1.198903	-0.730929	0.000058
O120	O	1.152094	0.086133	0.433328
H121	H	1.151410	0.086074	0.356368
