data_functionalizedCrystal
_audit_creation_method	'MofGen! by Chris Wilmer'
_symmetry_space_group_name_H-M	'P1'
_symmetry_Int_Tables_number	1
_symmetry_cell_setting	triclinic
loop_
_symmetry_equiv_pos_as_xyz
  x,y,z
_cell_length_a	10.967926
_cell_length_b	10.654551
_cell_length_c	10.065875
_cell_angle_alpha	98.877446
_cell_angle_beta	93.120479
_cell_angle_gamma	84.600089
loop_
_atom_site_label
_atom_site_type_symbol
_atom_site_fract_x
_atom_site_fract_y
_atom_site_fract_z
O1	O	1.614716	0.219080	0.266289
O2	O	1.264702	0.222667	0.183966
O3	O	1.447756	0.038438	0.227019
O4	O	1.431662	0.403309	0.223236
O5	O	1.412851	0.073716	0.445799
O6	O	1.229797	0.257945	0.402745
O7	O	1.579811	0.254358	0.485069
Zn8	Zn	1.399262	0.261752	0.478643
Zn9	Zn	1.445251	0.215273	0.190392
O10	O	1.396757	0.438587	0.442015
C11	C	1.202431	0.237380	0.282814
C12	C	1.068888	0.228644	0.251404
C13	C	0.991269	0.243024	0.350735
C14	C	0.853245	0.233996	0.318274
C15	C	1.429122	0.009234	0.336128
C16	C	1.425587	-0.130344	0.335287
C17	C	1.442954	-0.215148	0.215643
C18	C	1.439620	-0.346293	0.214865
C19	C	1.401555	-0.307818	0.453388
C20	C	1.404881	-0.176674	0.454162
C21	C	1.463660	-0.168818	0.096768
C22	C	1.481031	-0.253624	-0.022886
C23	C	1.477697	-0.384769	-0.023664
C24	C	1.456993	-0.431109	0.095212
C25	C	1.642082	0.239645	0.386217
C26	C	1.775626	0.248379	0.417618
C27	C	1.415391	0.467790	0.332903
C28	C	1.418928	0.607367	0.333735
N29	N	1.367885	0.293473	0.675368
N30	N	1.476637	0.183542	-0.006332
C31	C	1.434326	0.226301	0.758774
C32	C	1.410187	0.250724	0.910264
H33	H	1.466381	-0.062035	0.097389
O34	O	0.805934	0.208803	0.173785
H35	H	0.883790	0.199624	0.105960
O36	O	1.575664	0.083404	0.939718
H37	H	1.555070	-0.010969	0.962224
O38	O	1.503354	-0.203655	-0.151101
H39	H	1.502766	-0.098216	-0.130461
H40	H	1.027000	0.262012	0.459807
H41	H	1.293127	0.369058	0.716112
H42	H	1.335424	0.326314	0.951001
O43	O	1.533343	0.126167	0.704810
H44	H	1.578335	0.080669	0.788949
O45	O	0.822926	0.273549	0.562113
H46	H	0.923910	0.276702	0.564939
O47	O	1.021592	0.203473	0.106914
H48	H	0.955317	0.283897	0.085472
H49	H	1.454262	-0.537896	0.094565
H50	H	1.491828	-0.453814	-0.121094
O51	O	1.379257	-0.357793	0.581607
H52	H	1.379881	-0.463234	0.560972
H53	H	1.390713	-0.107622	0.551581
