data_functionalizedCrystal
_audit_creation_method	'MofGen! by Chris Wilmer'
_symmetry_space_group_name_H-M	'P1'
_symmetry_Int_Tables_number	1
_symmetry_cell_setting	triclinic
loop_
_symmetry_equiv_pos_as_xyz
  x,y,z
_cell_length_a	14.519709
_cell_length_b	15.995350
_cell_length_c	13.596369
_cell_angle_alpha	89.996243
_cell_angle_beta	90.000291
_cell_angle_gamma	83.586260
loop_
_atom_site_label
_atom_site_type_symbol
_atom_site_fract_x
_atom_site_fract_y
_atom_site_fract_z
O1	O	1.223669	0.109760	-0.081658
O2	O	1.723669	0.609760	0.418342
O3	O	0.955169	0.122685	-0.081688
O4	O	1.455169	0.622685	0.418312
O5	O	1.096759	-0.005654	-0.081671
O6	O	1.596759	0.494346	0.418329
O7	O	1.082079	0.238099	-0.081675
O8	O	1.582079	0.738099	0.418325
O9	O	1.096744	-0.005661	0.081912
O10	O	1.596744	0.494339	0.581912
O11	O	0.955155	0.122679	0.081895
O12	O	1.455155	0.622679	0.581895
O13	O	1.223655	0.109753	0.081925
O14	O	1.723655	0.609753	0.581925
Zn15	Zn	1.089403	0.116215	0.107882
Zn16	Zn	1.589403	0.616215	0.607882
Zn17	Zn	1.089421	0.116224	-0.107645
Zn18	Zn	1.589421	0.616224	0.392355
O19	O	1.082065	0.238093	0.081908
O20	O	1.582065	0.738093	0.581908
C21	C	0.920803	0.122080	0.000100
C22	C	1.420803	0.622080	0.500100
C23	C	0.818425	0.120275	0.000088
C24	C	1.318425	0.620275	0.500088
C25	C	1.096145	-0.036853	0.000118
C26	C	1.596145	0.463147	0.500118
C27	C	1.094325	-0.129806	0.000112
C28	C	1.594325	0.370194	0.500112
C29	C	0.443541	0.113629	0.000133
C30	C	0.943541	0.613629	0.500133
C31	C	0.547846	0.115475	0.000120
C32	C	1.047846	0.615475	0.500120
C33	C	0.630980	0.116952	0.000110
C34	C	1.130980	0.616952	0.500110
C35	C	0.735291	0.118797	0.000099
C36	C	1.235291	0.618797	0.500099
C37	C	1.087791	-0.467563	0.000115
C38	C	1.587791	0.032437	0.500115
C39	C	0.986954	-0.420280	-0.000263
C40	C	1.486954	0.079720	0.499737
C41	C	0.988773	-0.323587	0.000106
C42	C	1.488773	0.176413	0.500106
C43	C	1.091032	-0.299998	0.000113
C44	C	1.591032	0.200002	0.500113
C45	C	1.140761	-0.341005	0.093531
C46	C	1.640761	0.158995	0.593531
C47	C	1.138228	-0.437644	0.093609
C48	C	1.638228	0.062356	0.593609
C49	C	1.140327	-0.437992	-0.092415
C50	C	1.640327	0.062008	0.407585
C51	C	1.140303	-0.341046	-0.093650
C52	C	1.640303	0.158954	0.406350
C53	C	1.092869	-0.205298	0.000115
C54	C	1.592869	0.294702	0.500115
C55	C	1.085957	-0.562264	0.000119
C56	C	1.585957	-0.062264	0.500119
C57	C	1.258021	0.110359	0.000135
C58	C	1.758021	0.610359	0.500135
C59	C	1.360399	0.112164	0.000140
C60	C	1.860399	0.612164	0.500140
C61	C	1.082679	0.269292	0.000116
C62	C	1.582679	0.769292	0.500116
C63	C	1.084498	0.362245	0.000116
C64	C	1.584498	0.862245	0.500116
N65	N	1.089397	0.116208	0.254974
N66	N	1.589397	0.616208	0.754974
N67	N	1.089434	0.116224	-0.254737
N68	N	1.589434	0.616224	0.245263
C69	C	1.089420	0.116225	0.656265
C70	C	1.589420	0.616225	1.156265
C71	C	1.089411	0.116223	0.544614
C72	C	1.589411	0.616223	1.044614
C73	C	1.089409	0.116217	0.455623
C74	C	1.589409	0.616217	0.955623
C75	C	1.089399	0.116214	0.343965
C76	C	1.589399	0.616214	0.843965
H77	H	0.949683	-0.295221	-0.066860
H78	H	1.449683	0.204779	0.433140
F79	F	1.237774	-0.320817	-0.101022
F80	F	1.737774	0.179183	0.398978
F81	F	0.937318	-0.287243	0.087771
F82	F	1.437318	0.212757	0.587771
H83	H	1.214674	-0.469641	-0.093038
H84	H	1.714674	0.030359	0.406962
H85	H	0.946656	-0.438870	-0.067255
H86	H	1.446656	0.061130	0.432745
H87	H	0.946823	-0.439937	0.066347
H88	H	1.446823	0.060063	0.566347
H89	H	1.101954	-0.456003	0.163434
H90	H	1.601954	0.043997	0.663434
H91	H	1.212261	-0.469782	0.097852
H92	H	1.712261	0.030218	0.597852
F93	F	1.238958	-0.322397	0.098082
F94	F	1.738958	0.177603	0.598082
F95	F	1.095602	-0.303983	0.184391
F96	F	1.595602	0.196017	0.684391
F97	F	1.097236	-0.464890	-0.184963
F98	F	1.597236	0.035110	0.315037
F99	F	1.093146	-0.305109	-0.183993
F100	F	1.593146	0.194891	0.316007
