data_functionalizedCrystal
_audit_creation_method	'MofGen! by Chris Wilmer'
_symmetry_space_group_name_H-M	'P1'
_symmetry_Int_Tables_number	1
_symmetry_cell_setting	triclinic
loop_
_symmetry_equiv_pos_as_xyz
  x,y,z
_cell_length_a	9.065215
_cell_length_b	16.109304
_cell_length_c	15.186229
_cell_angle_alpha	90.000934
_cell_angle_beta	90.002823
_cell_angle_gamma	84.238668
loop_
_atom_site_label
_atom_site_type_symbol
_atom_site_fract_x
_atom_site_fract_y
_atom_site_fract_z
O1	O	1.957455	0.121894	0.073212
O2	O	2.457455	0.621894	0.573212
O3	O	1.527927	0.131895	0.073216
O4	O	2.027927	0.631895	0.573216
O5	O	1.754488	0.005954	0.073214
O6	O	2.254488	0.505954	0.573214
O7	O	1.730894	0.247835	0.073213
O8	O	2.230894	0.747835	0.573213
O9	O	1.754473	0.005952	-0.073243
O10	O	2.254473	0.505952	0.426757
O11	O	1.527912	0.131893	-0.073242
O12	O	2.027912	0.631893	0.426758
O13	O	1.957439	0.121892	-0.073245
O14	O	2.457439	0.621892	0.426755
Zn15	Zn	1.742673	0.126892	-0.096497
Zn16	Zn	2.242673	0.626892	0.403503
Zn17	Zn	1.742693	0.126895	0.096467
Zn18	Zn	2.242693	0.626895	0.596467
O19	O	1.730879	0.247833	-0.073244
O20	O	2.230879	0.747833	0.426756
C21	C	1.472956	0.130934	-0.000013
C22	C	1.972956	0.630934	0.499987
C23	C	1.309183	0.128061	-0.000011
C24	C	1.809183	0.628061	0.499989
C25	C	1.753524	-0.025029	-0.000012
C26	C	2.253524	0.474971	0.499988
C27	C	1.750657	-0.117346	-0.000006
C28	C	2.250657	0.382654	0.499994
C29	C	1.744040	-0.329733	0.079824
C30	C	2.244040	0.170267	0.579824
C31	C	1.741332	-0.416474	0.079824
C32	C	2.241332	0.083526	0.579824
C33	C	1.741323	-0.416473	-0.079852
C34	C	2.241323	0.083527	0.420148
C35	C	1.744020	-0.329733	-0.079851
C36	C	2.244020	0.170267	0.420149
C37	C	1.745386	-0.286366	-0.000010
C38	C	2.245386	0.213634	0.499990
C39	C	1.739981	-0.459847	-0.000012
C40	C	2.239981	0.040153	0.499988
C41	C	1.737045	-0.553895	-0.000014
C42	C	2.237045	-0.053895	0.499986
C43	C	1.748320	-0.192311	-0.000008
C44	C	2.248320	0.307689	0.499992
C45	C	2.012410	0.122853	-0.000015
C46	C	2.512410	0.622853	0.499985
C47	C	2.176184	0.125726	-0.000011
C48	C	2.676184	0.625726	0.499989
C49	C	1.731843	0.278816	-0.000015
C50	C	2.231843	0.778816	0.499985
C51	C	1.734710	0.371133	-0.000015
C52	C	2.234710	0.871133	0.499985
N53	N	1.742671	0.126890	-0.228189
N54	N	2.242671	0.626890	0.271811
C55	C	1.843026	0.071143	-0.453913
C56	C	2.343026	0.571143	0.046087
C57	C	1.843031	0.071141	-0.546102
C58	C	2.343031	0.571141	-0.046102
C59	C	1.642342	0.182641	-0.546110
C60	C	2.142342	0.682641	-0.046110
C61	C	1.642331	0.182638	-0.453922
C62	C	2.142331	0.682638	0.046078
C63	C	1.742682	0.126890	-0.407826
C64	C	2.242682	0.626890	0.092174
C65	C	1.742697	0.126891	-0.592204
C66	C	2.242697	0.626891	-0.092204
C67	C	1.742701	0.126889	-0.692160
C68	C	2.242701	0.626889	-0.192160
C69	C	1.742676	0.126890	-0.307863
C70	C	2.242676	0.626890	0.192137
N71	N	1.742708	0.126890	0.228160
N72	N	2.242708	0.626890	0.728160
H73	H	1.745148	-0.294426	0.144836
H74	H	2.245148	0.205574	0.644836
H75	H	1.560612	0.228034	-0.416396
H76	H	2.060612	0.728034	0.083604
H77	H	1.740232	-0.451780	0.144832
H78	H	2.240232	0.048220	0.644832
H79	H	1.560641	0.228030	-0.583651
H80	H	2.060641	0.728030	-0.083651
H81	H	1.740214	-0.451794	-0.144856
H82	H	2.240214	0.048206	0.355144
H83	H	1.745108	-0.294422	-0.144865
H84	H	2.245108	0.205578	0.355135
H85	H	1.924735	0.025748	-0.416383
H86	H	2.424735	0.525748	0.083617
H87	H	1.924738	0.025745	-0.583624
H88	H	2.424738	0.525745	-0.083624
