data_functionalizedCrystal
_audit_creation_method	'MofGen! by Chris Wilmer'
_symmetry_space_group_name_H-M	'P1'
_symmetry_Int_Tables_number	1
_symmetry_cell_setting	triclinic
loop_
_symmetry_equiv_pos_as_xyz
  x,y,z
_cell_length_a	19.076808
_cell_length_b	12.594517
_cell_length_c	19.076919
_cell_angle_alpha	87.709341
_cell_angle_beta	90.121640
_cell_angle_gamma	92.319696
loop_
_atom_site_label
_atom_site_type_symbol
_atom_site_fract_x
_atom_site_fract_y
_atom_site_fract_z
Zn1	Zn	-0.295811	1.585738	0.385879
Zn2	Zn	-0.408606	1.586186	0.263648
Zn3	Zn	-0.291103	1.415178	0.268406
Zn4	Zn	-0.413279	1.400846	0.381136
O5	O	-0.352200	1.496987	0.324767
O6	O	-0.310788	1.734743	0.369658
O7	O	-0.389092	1.569687	0.165947
O8	O	-0.193391	1.443613	0.287965
O9	O	-0.393657	1.735072	0.279856
O10	O	-0.196850	1.568923	0.374272
O11	O	-0.302763	1.444048	0.169443
O12	O	-0.307295	1.264332	0.283366
O13	O	-0.401623	1.419187	0.480097
O14	O	-0.397058	1.253802	0.366188
O15	O	-0.315320	1.555026	0.483581
O16	O	-0.507562	1.555790	0.275257
O17	O	-0.510996	1.419622	0.361575
C18	C	-0.352173	1.220447	0.324779
C19	C	-0.352180	1.102140	0.324800
C20	C	-0.401090	1.027191	0.369752
C21	C	-0.337714	0.959040	0.389615
C22	C	-0.415608	0.959490	0.304919
C23	C	-0.288771	1.035547	0.344698
C24	C	-0.366707	1.036002	0.259970
C25	C	-0.303286	0.967887	0.279810
C26	C	-0.534777	1.486228	0.317400
C27	C	-0.612885	1.481721	0.314272
C28	C	-0.651323	1.544792	0.357774
C29	C	-0.724714	1.540553	0.354836
C30	C	-0.759666	1.473247	0.308392
C31	C	-0.721223	1.410168	0.264888
C32	C	-0.647834	1.414403	0.267830
C33	C	-0.978971	1.453588	0.294774
C34	C	-1.052365	1.449360	0.291834
C35	C	-1.055851	1.579743	0.381783
C36	C	-0.982459	1.583976	0.384718
C37	C	-0.944023	1.520894	0.341217
N38	N	-0.834683	1.468914	0.305387
N39	N	-0.869007	1.525222	0.344227
C40	C	-0.168910	1.507817	0.332178
C41	C	-0.090803	1.512432	0.335336
C42	C	-0.359518	1.485458	0.508048
C43	C	-0.362637	1.480545	0.586152
C44	C	-0.352226	1.774607	0.324756
C45	C	-0.352238	1.892912	0.324751
C46	C	-0.344859	1.508535	0.142201
C47	C	-0.341542	1.513666	0.064106
C48	C	-0.319170	1.548957	0.624660
C49	C	-0.322098	1.544328	0.698047
C50	C	-0.368496	1.471291	0.732924
C51	C	-0.411964	1.402872	0.694410
C52	C	-0.409033	1.407496	0.621025
C53	C	-0.382079	1.449871	0.952207
C54	C	-0.385009	1.445254	1.025597
C55	C	-0.295141	1.586710	1.029229
C56	C	-0.292216	1.591332	0.955843
C57	C	-0.335682	1.522909	0.917335
N58	N	-0.371491	1.466560	0.807936
N59	N	-0.332683	1.527636	0.842324
H60	H	-0.756006	1.591921	0.390255
H61	H	-0.449740	1.343400	0.722812
H62	H	-0.235142	1.068736	0.361553
H63	H	-0.616539	1.363042	0.232407
H64	H	-1.080821	1.394547	0.254013
H65	H	-0.325447	0.925336	0.444420
H66	H	-0.444421	1.351777	0.589672
O67	O	-0.455785	1.061929	0.420174
H68	H	-0.494734	1.109819	0.391066
H69	H	-0.254436	1.650810	0.927451
O70	O	-0.486627	0.915349	0.282671
H71	H	-0.480874	0.870168	0.234379
O72	O	-0.435044	1.366459	1.063218
H73	H	-0.472144	1.409870	1.095203
H74	H	-0.947682	1.402225	0.259352
H75	H	-0.261903	0.941860	0.241777
O76	O	-0.613624	1.617396	0.407862
H77	H	-0.652685	1.660537	0.437620
H78	H	-0.749687	1.355362	0.227075
H79	H	-0.281390	1.608435	0.596269
H80	H	-0.286705	1.600039	0.729397
H81	H	-0.954003	1.638782	0.422537
O82	O	-0.428921	1.376024	0.910679
H83	H	-0.461667	1.324450	0.947263
O84	O	-1.097305	1.647774	0.428705
H85	H	-1.085403	1.626797	0.484408
O86	O	-0.248241	1.660477	1.070761
H87	H	-0.258062	1.644981	1.127650
H88	H	-0.378994	1.069728	0.205181
