data_functionalizedCrystal
_audit_creation_method	'MofGen! by Chris Wilmer'
_symmetry_space_group_name_H-M	'P1'
_symmetry_Int_Tables_number	1
_symmetry_cell_setting	triclinic
loop_
_symmetry_equiv_pos_as_xyz
  x,y,z
_cell_length_a	10.723022
_cell_length_b	15.944493
_cell_length_c	9.798715
_cell_angle_alpha	90.002726
_cell_angle_beta	89.996609
_cell_angle_gamma	83.971135
loop_
_atom_site_label
_atom_site_type_symbol
_atom_site_fract_x
_atom_site_fract_y
_atom_site_fract_z
O1	O	1.655664	0.117805	-0.113463
O2	O	1.292365	0.129083	-0.113465
O3	O	1.483973	0.001223	-0.113475
O4	O	1.464056	0.245665	-0.113453
O5	O	1.483959	0.001222	0.113507
O6	O	1.292351	0.129083	0.113517
O7	O	1.655649	0.117804	0.113520
Zn8	Zn	1.473998	0.123444	0.149557
Zn9	Zn	1.474017	0.123444	-0.149502
O10	O	1.464042	0.245665	0.113529
C11	C	1.245869	0.128262	0.000025
C12	C	1.107346	0.125808	0.000023
C13	C	0.888275	0.194813	0.000027
C14	C	1.031445	0.197351	0.000029
C15	C	1.483152	-0.030077	0.000010
C16	C	1.480711	-0.123339	-0.000007
C17	C	1.593496	-0.358454	0.000019
C18	C	1.532682	-0.409370	-0.111894
C19	C	1.476189	-0.294086	0.000009
C20	C	1.532641	-0.409347	0.111892
C21	C	1.471830	-0.459021	0.000031
C22	C	1.415407	-0.343774	-0.111997
C23	C	1.415383	-0.343747	0.111890
C24	C	1.354483	-0.394630	-0.000051
C25	C	1.478704	-0.199072	-0.000005
C26	C	1.469306	-0.554032	0.000036
C27	C	1.702146	0.118625	0.000026
C28	C	1.840668	0.121080	0.000019
C29	C	1.464863	0.276964	0.000041
C30	C	1.467303	0.370227	0.000050
N31	N	1.473994	0.123443	0.353656
N32	N	1.474030	0.123438	-0.353602
C33	C	1.554448	0.069521	0.421429
C34	C	1.554468	0.069518	0.578592
H35	H	0.823040	0.256058	0.000024
H36	H	1.405125	0.169602	0.411984
C37	C	1.380969	0.185809	0.567673
N38	N	1.310874	0.232785	0.508368
H39	H	1.066360	0.062675	-0.000019
C40	C	1.086823	0.282640	0.000039
N41	N	1.128536	0.346881	0.000045
H42	H	0.905903	0.059834	0.000006
C43	C	1.599619	-0.448100	-0.239709
N44	N	1.650044	-0.477271	-0.335972
C45	C	1.730001	-0.336556	-0.000130
N46	N	1.832814	-0.320061	-0.000249
C47	C	1.599587	-0.448039	0.239713
N48	N	1.650019	-0.477179	0.335984
H49	H	1.365901	-0.315237	-0.206712
H50	H	1.623310	0.023355	0.363103
H51	H	1.253360	-0.410675	-0.000113
H52	H	1.365879	-0.315069	0.206509
H53	H	1.623353	0.023357	0.636873
