data_functionalizedCrystal
_audit_creation_method	'MofGen! by Chris Wilmer'
_symmetry_space_group_name_H-M	'P1'
_symmetry_Int_Tables_number	1
_symmetry_cell_setting	triclinic
loop_
_symmetry_equiv_pos_as_xyz
  x,y,z
_cell_length_a	23.532407
_cell_length_b	23.532407
_cell_length_c	13.596369
_cell_angle_alpha	89.989360
_cell_angle_beta	89.997347
_cell_angle_gamma	82.848712
loop_
_atom_site_label
_atom_site_type_symbol
_atom_site_fract_x
_atom_site_fract_y
_atom_site_fract_z
O1	O	0.755260	0.069136	-0.081739
O2	O	0.589397	0.079139	-0.081756
O3	O	0.677330	-0.008794	-0.081729
O4	O	0.667327	0.157069	-0.081766
O5	O	0.677321	-0.008798	0.081854
O6	O	0.589388	0.079135	0.081827
O7	O	0.755251	0.069132	0.081844
Zn8	Zn	0.672318	0.074132	0.107808
Zn9	Zn	0.672330	0.074138	-0.107720
O10	O	0.667318	0.157065	0.081817
C11	C	0.568176	0.078882	0.000033
C12	C	0.504959	0.078116	0.000028
C13	C	0.238792	0.022921	0.000067
C14	C	0.298192	0.023632	0.000066
O15	O	0.334937	-0.020153	0.000110
N16	N	0.320818	0.075909	0.000048
C17	C	0.284041	0.127477	0.000040
O18	O	0.308740	0.172007	0.000025
C19	C	0.224642	0.126765	0.000047
C20	C	0.202019	0.074485	0.000056
C21	C	0.216169	-0.029354	0.000076
C22	C	0.156772	-0.030066	0.000075
C23	C	0.119999	0.021499	0.000064
C24	C	0.142623	0.073774	0.000054
C25	C	0.187865	0.178333	0.000047
C26	C	0.128463	0.177616	0.000055
C27	C	0.105840	0.125336	0.000063
C28	C	0.046454	0.124627	0.000042
N29	N	0.023828	0.072351	0.000061
C30	C	0.060600	0.020787	0.000071
C31	C	0.408783	0.128968	0.000026
C32	C	0.468181	0.129681	0.000012
C33	C	0.482328	0.025836	0.000040
C34	C	0.422929	0.025124	0.000047
C35	C	0.386157	0.076692	0.000044
C36	C	-0.064136	0.019297	0.000068
C37	C	-0.123538	0.018590	0.000062
C38	C	-0.137680	0.122435	0.000039
C39	C	-0.078284	0.123142	0.000039
C40	C	-0.041512	0.071568	0.000057
O41	O	0.009675	0.168390	0.000002
O42	O	0.035892	-0.023737	0.000099
C43	C	0.677071	-0.030012	0.000065
C44	C	0.676305	-0.093229	0.000072
C45	C	0.723538	-0.492332	0.000023
C46	C	0.722827	-0.551733	0.000016
O47	O	0.766613	-0.588477	-0.000016
N48	N	0.670551	-0.574359	0.000011
C49	C	0.618982	-0.537581	0.000004
O50	O	0.574452	-0.562281	-0.000002
C51	C	0.619695	-0.478182	0.000004
C52	C	0.671974	-0.455559	0.000019
C53	C	0.775814	-0.469709	0.000037
C54	C	0.776525	-0.410313	0.000046
C55	C	0.724961	-0.373540	0.000042
C56	C	0.672685	-0.396163	0.000028
C57	C	0.568127	-0.441406	-0.000010
C58	C	0.568843	-0.382003	-0.000010
C59	C	0.621123	-0.359381	0.000005
C60	C	0.621832	-0.299994	0.000034
N61	N	0.674109	-0.277368	0.000038
C62	C	0.725673	-0.314141	0.000042
C63	C	0.617491	-0.662324	0.000001
C64	C	0.616778	-0.721722	0.000008
C65	C	0.720623	-0.735869	0.000018
C66	C	0.721335	-0.676470	0.000018
C67	C	0.669767	-0.639698	0.000006
C68	C	0.727163	-0.189404	0.000063
C69	C	0.727869	-0.130002	0.000076
C70	C	0.624025	-0.115860	0.000061
C71	C	0.623318	-0.175257	0.000053
C72	C	0.674891	-0.212028	0.000051
O73	O	0.578069	-0.263215	0.000061
O74	O	0.770196	-0.289433	0.000035
C75	C	0.776472	0.069389	0.000052
C76	C	0.839689	0.070155	0.000051
C77	C	0.667577	0.178283	0.000021
C78	C	0.668343	0.241500	0.000007
N79	N	0.672315	0.074128	0.254899
N80	N	0.672338	0.074138	-0.254812
C81	C	0.672329	0.074139	0.656190
C82	C	0.672323	0.074138	0.544539
C83	C	0.672322	0.074134	0.455548
C84	C	0.672316	0.074132	0.343890
H85	H	-0.059864	0.165712	0.000031
O86	O	0.400929	-0.025645	-0.000112
C87	C	0.342055	-0.086707	-0.084802
C88	C	0.366939	-0.029194	-0.084759
H89	H	0.314559	-0.089590	-0.153221
H90	H	0.378524	-0.123458	-0.084862
H91	H	0.314627	-0.089633	-0.016306
H92	H	0.394360	-0.026212	-0.153243
H93	H	0.330443	0.007530	-0.084648
O94	O	0.373007	0.179028	-0.000125
C95	C	0.297765	0.238516	-0.084925
C96	C	0.338235	0.181797	-0.084865
H97	H	0.269650	0.240778	-0.153440
H98	H	0.269561	0.240793	-0.016512
H99	H	0.324158	0.275987	-0.084894
H100	H	0.311888	0.144294	-0.084930
H101	H	0.366441	0.179570	-0.153271
H102	H	0.512280	-0.016150	0.000049
H103	H	-0.141954	-0.023984	0.000066
O104	O	0.827295	-0.388313	0.000221
C105	C	0.888361	-0.329452	0.084930
C106	C	0.830848	-0.354334	0.084873
H107	H	0.891247	-0.301965	0.153353
H108	H	0.925112	-0.365921	0.084990
H109	H	0.891285	-0.302015	0.016438
H110	H	0.827868	-0.381764	0.153353
H111	H	0.794124	-0.317838	0.084761
O112	O	0.825960	-0.505344	0.000088
C113	C	0.929034	-0.513087	0.000058
C114	C	0.872281	-0.472671	0.000012
H115	H	0.966499	-0.486687	-0.000024
H116	H	0.931335	-0.541245	0.068536
H117	H	0.931279	-0.541257	-0.068383
H118	H	0.869998	-0.444465	0.068406
H119	H	0.870004	-0.444553	-0.068511
H120	H	0.769159	-0.219337	0.000057
O121	O	-0.028445	-0.030816	-0.000097
C122	C	0.001784	-0.119365	-0.084811
C123	C	-0.038658	-0.062629	-0.084748
H124	H	-0.006467	-0.145107	-0.153233
H125	H	0.048139	-0.109919	-0.084878
H126	H	-0.006406	-0.145088	-0.016318
H127	H	-0.030519	-0.036877	-0.153229
H128	H	-0.084999	-0.072115	-0.084630
H129	H	0.246104	-0.071347	0.000088
O130	O	0.134896	-0.080901	0.000140
C131	C	0.155219	-0.183824	0.000125
C132	C	0.180065	-0.126291	0.000068
H133	H	0.191726	-0.220536	0.000046
H134	H	0.127788	-0.186794	0.068606
H135	H	0.127744	-0.186730	-0.068312
H136	H	0.207566	-0.123346	0.068459
H137	H	0.207464	-0.123345	-0.068458
O138	O	0.772105	-0.654470	0.000197
C139	C	0.833166	-0.595607	0.084913
C140	C	0.775653	-0.620489	0.084848
H141	H	0.836049	-0.568118	0.153336
H142	H	0.869918	-0.632076	0.084981
H143	H	0.836094	-0.568171	0.016420
H144	H	0.772670	-0.647918	0.153329
H145	H	0.738929	-0.583993	0.084729
O146	O	0.778671	-0.108055	-0.000088
C147	C	0.867663	-0.101997	-0.084797
C148	C	0.810148	-0.126877	-0.084742
H149	H	0.893134	-0.117214	-0.153221
H150	H	0.859353	-0.053224	-0.084853
H151	H	0.893100	-0.117167	-0.016306
H152	H	0.784682	-0.111750	-0.153221
H153	H	0.818499	-0.175647	-0.084634
O154	O	0.092662	0.227659	0.000091
C155	C	-0.005114	0.272593	0.000021
C156	C	0.035363	0.215879	0.000006
H157	H	-0.051449	0.263089	-0.000069
H158	H	0.003032	0.298341	0.068491
H159	H	0.003114	0.298339	-0.068427
H160	H	0.027158	0.190088	0.068408
H161	H	0.027208	0.190175	-0.068509
H162	H	-0.167631	0.164417	0.000025
H163	H	0.762610	-0.765821	0.000017
O164	O	0.565944	-0.743599	-0.000039
C165	C	0.463020	-0.723281	0.000009
C166	C	0.520552	-0.698432	0.000047
H167	H	0.426306	-0.686776	0.000100
H168	H	0.460052	-0.750704	-0.068470
H169	H	0.460115	-0.750766	0.068448
H170	H	0.523495	-0.670922	-0.068345
H171	H	0.523496	-0.671042	0.068572
H172	H	0.575496	-0.632386	-0.000000
H173	H	0.525555	-0.459814	-0.000028
H174	H	0.486595	0.172252	-0.000009
H175	H	0.526850	-0.352065	-0.000021
O176	O	0.572485	-0.197141	-0.000001
C177	C	0.469560	-0.176833	0.000033
C178	C	0.527089	-0.151978	0.000087
H179	H	0.432843	-0.140331	0.000125
H180	H	0.466598	-0.204252	-0.068454
H181	H	0.466654	-0.204323	0.068465
H182	H	0.530034	-0.124463	-0.068299
H183	H	0.530026	-0.124592	0.068619
H184	H	0.206274	0.220904	0.000035
H185	H	0.582043	-0.085909	0.000061
