data_functionalizedCrystal
_audit_creation_method	'MofGen! by Chris Wilmer'
_symmetry_space_group_name_H-M	'P1'
_symmetry_Int_Tables_number	1
_symmetry_cell_setting	triclinic
loop_
_symmetry_equiv_pos_as_xyz
  x,y,z
_cell_length_a	13.897449
_cell_length_b	13.897447
_cell_length_c	19.076919
_cell_angle_alpha	92.274152
_cell_angle_beta	92.282068
_cell_angle_gamma	90.020810
loop_
_atom_site_label
_atom_site_type_symbol
_atom_site_fract_x
_atom_site_fract_y
_atom_site_fract_z
Zn1	Zn	1.452734	-0.405914	-0.397943
Zn2	Zn	1.459116	-0.560741	-0.280254
Zn3	Zn	1.297916	-0.399465	-0.280264
Zn4	Zn	1.291401	-0.567171	-0.397912
O5	O	1.375292	-0.483323	-0.339093
O6	O	1.588561	-0.426460	-0.382340
O7	O	1.443130	-0.533957	-0.181766
O8	O	1.318508	-0.265340	-0.295892
O9	O	1.593250	-0.540210	-0.295875
O10	O	1.432252	-0.270078	-0.382350
O11	O	1.324697	-0.415469	-0.181774
O12	O	1.162070	-0.421704	-0.295862
O13	O	1.307405	-0.551170	-0.496406
O14	O	1.157284	-0.544917	-0.382297
O15	O	1.425935	-0.432695	-0.496428
O16	O	1.436813	-0.696574	-0.295845
O17	O	1.313593	-0.701299	-0.382288
C18	C	1.375214	-0.733936	-0.339077
C19	C	1.375268	-0.841151	-0.339094
C20	C	1.124678	-0.483309	-0.339077
C21	C	1.017464	-0.483327	-0.339087
C22	C	0.821168	-0.483332	-0.339106
C23	C	0.930401	-0.483326	-0.339093
C24	C	1.375314	-0.928222	-0.339110
C25	C	1.375380	-1.037455	-0.339128
C26	C	1.626884	-0.483337	-0.339110
C27	C	1.734097	-0.483343	-0.339117
C28	C	1.365231	-0.493369	-0.522668
C29	C	1.360944	-0.497650	-0.600897
C30	C	1.375395	-0.231731	-0.339125
C31	C	1.375439	-0.124518	-0.339139
C32	C	1.420639	-0.437981	-0.637662
C33	C	1.416599	-0.442000	-0.711166
C34	C	1.352868	-0.505694	-0.747904
C35	C	1.293167	-0.565366	-0.711134
C36	C	1.297202	-0.561341	-0.637631
C37	C	1.334176	-0.524340	-0.967732
C38	C	1.330147	-0.528362	-1.041240
C39	C	1.453579	-0.404995	-1.041267
C40	C	1.457613	-0.400980	-0.967763
C41	C	1.397908	-0.460648	-0.930999
N42	N	1.348740	-0.509806	-0.823037
N43	N	1.402033	-0.456531	-0.855868
C44	C	1.385368	-0.473246	-0.156233
C45	C	1.389842	-0.468693	-0.078005
H46	H	1.472539	-0.386118	-0.607755
H47	H	1.278247	-0.580231	-1.071150
H48	H	1.285574	-0.572940	-0.937808
H49	H	1.509512	-0.349116	-0.937856
H50	H	1.241272	-0.617223	-0.741051
H51	H	1.465212	-0.393413	-0.741097
H52	H	1.502186	-0.356415	-1.071208
Br53	Br	1.216178	-0.642318	-0.587734
