data_functionalizedCrystal
_audit_creation_method	'MofGen! by Chris Wilmer'
_symmetry_space_group_name_H-M	'P1'
_symmetry_Int_Tables_number	1
_symmetry_cell_setting	triclinic
loop_
_symmetry_equiv_pos_as_xyz
  x,y,z
_cell_length_a	16.120530
_cell_length_b	18.050589
_cell_length_c	18.050582
_cell_angle_alpha	89.981795
_cell_angle_beta	87.088397
_cell_angle_gamma	87.123928
loop_
_atom_site_label
_atom_site_type_symbol
_atom_site_fract_x
_atom_site_fract_y
_atom_site_fract_z
Zn1	Zn	1.274469	-0.353358	-0.477436
Zn2	Zn	1.774469	0.146642	0.022564
Zn3	Zn	1.274369	-0.477536	-0.353251
Zn4	Zn	1.774369	0.022464	0.146749
Zn5	Zn	1.135065	-0.347063	-0.346971
Zn6	Zn	1.635065	0.152937	0.153029
Zn7	Zn	1.135006	-0.471202	-0.471112
Zn8	Zn	1.635006	0.028798	0.028888
O9	O	1.204727	-0.412290	-0.412192
O10	O	1.704727	0.087710	0.087808
O11	O	1.391120	-0.375115	-0.466238
O12	O	1.891120	0.124885	0.033762
O13	O	1.255872	-0.460246	-0.248492
O14	O	1.755872	0.039754	0.251508
O15	O	1.153623	-0.243977	-0.364295
O16	O	1.653623	0.256023	0.135705
O17	O	1.391047	-0.466349	-0.374999
O18	O	1.891047	0.033651	0.125001
O19	O	1.256043	-0.248601	-0.460148
O20	O	1.756043	0.251399	0.039852
O21	O	1.153526	-0.364388	-0.243878
O22	O	1.653526	0.135612	0.256122
O23	O	1.018392	-0.358245	-0.358163
O24	O	1.518392	0.141755	0.141837
O25	O	1.153524	-0.455552	-0.575876
O26	O	1.653524	0.044448	-0.075876
O27	O	1.018349	-0.449449	-0.449369
O28	O	1.518349	0.050551	0.050631
O29	O	1.255986	-0.368973	-0.580523
O30	O	1.755986	0.131027	-0.080523
O31	O	1.255816	-0.580618	-0.368867
O32	O	1.755816	-0.080618	0.131133
O33	O	1.153427	-0.575964	-0.455459
O34	O	1.653427	-0.075964	0.044541
C35	C	0.988121	-0.402477	-0.402399
C36	C	1.488121	0.097523	0.097601
C37	C	0.895456	-0.398297	-0.398227
C38	C	1.395456	0.101703	0.101773
C39	C	0.725795	-0.390648	-0.390616
C40	C	1.225795	0.109352	0.109384
C41	C	0.684499	-0.433986	-0.433823
C42	C	1.184499	0.066014	0.066177
C43	C	0.590094	-0.429730	-0.429588
C44	C	1.090094	0.070270	0.070412
C45	C	0.820209	-0.394903	-0.394849
C46	C	1.320209	0.105097	0.105151
C47	C	1.204626	-0.605237	-0.412175
C48	C	1.704626	-0.105237	0.087825
C49	C	1.204660	-0.687785	-0.412197
C50	C	1.704660	-0.187785	0.087803
C51	C	1.149035	-0.884734	-0.459270
C52	C	1.649035	-0.384734	0.040730
C53	C	1.128719	-0.933249	-0.390586
C54	C	1.628719	-0.433249	0.109414
C55	C	1.204742	-0.838919	-0.412210
C56	C	1.704742	-0.338919	0.087790
C57	C	1.225099	-0.937487	-0.480903
C58	C	1.725099	-0.437487	0.019097
C59	C	1.204819	-0.984907	-0.412229
C60	C	1.704819	-0.484907	0.087771
C61	C	1.184385	-0.886344	-0.343488
C62	C	1.684385	-0.386344	0.156512
C63	C	1.280801	-0.890580	-0.433853
C64	C	1.780801	-0.390580	0.066147
C65	C	1.260513	-0.939074	-0.365123
C66	C	1.760513	-0.439074	0.134877
C67	C	1.204695	-0.754818	-0.412200
C68	C	1.704695	-0.254818	0.087800
C69	C	1.204866	-1.069006	-0.412231
C70	C	1.704866	-0.569006	0.087769
C71	C	1.422179	-0.422141	-0.422025
C72	C	1.922179	0.077859	0.077975
C73	C	1.514844	-0.426339	-0.426215
C74	C	2.014844	0.073661	0.073785
C75	C	1.204760	-0.412258	-0.605899
C76	C	1.704760	0.087742	-0.105899
C77	C	1.204774	-0.412245	-0.688446
C78	C	1.704774	0.087755	-0.188446
C79	C	1.204851	-0.218590	-0.412227
C80	C	1.704851	0.281410	0.087773
C81	C	1.204904	-0.136046	-0.412241
C82	C	1.704904	0.363954	0.087759
C83	C	1.149097	-0.459261	-0.885372
C84	C	1.649097	0.040739	-0.385372
C85	C	1.225159	-0.480855	-0.938196
C86	C	1.725159	0.019145	-0.438196
C87	C	1.204815	-0.412190	-0.839578
C88	C	1.704815	0.087810	-0.339578
C89	C	1.128795	-0.390577	-0.933837
C90	C	1.628795	0.109423	-0.433837
C91	C	1.204848	-0.412138	-0.985565
C92	C	1.704848	0.087862	-0.485565
C93	C	1.280916	-0.433821	-0.891317
C94	C	1.780916	0.066179	-0.391317
C95	C	1.184501	-0.343510	-0.886952
C96	C	1.684501	0.156490	-0.386952
C97	C	1.260615	-0.365080	-0.939756
C98	C	1.760615	0.134920	-0.439756
C99	C	1.204795	-0.412222	-0.755479
C100	C	1.704795	0.087778	-0.255479
C101	C	1.204877	-0.412107	-1.069663
C102	C	1.704877	0.087893	-0.569663
C103	C	1.204743	-0.412270	-0.219241
C104	C	1.704743	0.087730	0.280759
C105	C	1.204890	-0.412081	-0.136702
C106	C	1.704890	0.087919	0.363298
H107	H	0.690252	-0.350354	-0.350447
H108	H	1.190252	0.149646	0.149553
Br109	Br	1.253744	-0.974884	-0.577714
Br110	Br	1.753744	-0.474884	-0.077714
H111	H	0.720045	-0.474283	-0.473995
H112	H	1.220045	0.025717	0.026005
H113	H	1.307655	-0.962716	-0.325286
H114	H	1.807655	-0.462716	0.174714
H115	H	1.101857	-0.860953	-0.499005
H116	H	1.601857	-0.360953	0.000995
H117	H	1.345070	-0.871709	-0.452174
H118	H	1.845070	-0.371709	0.047826
Br119	Br	1.070635	-0.525697	-0.845711
Br120	Br	1.570635	-0.025697	-0.345711
Br121	Br	1.021622	-0.360145	-0.965161
Br122	Br	1.521622	0.139855	-0.465161
H123	H	1.242360	-0.538915	-0.960676
H124	H	1.742360	-0.038915	-0.460676
Br125	Br	1.388122	-0.464370	-0.860157
Br126	Br	1.888122	0.035630	-0.360157
H127	H	1.307802	-0.325254	-0.963418
H128	H	1.807802	0.174746	-0.463418
H129	H	1.064434	-0.952121	-0.372297
H130	H	1.564434	-0.452121	0.127703
H131	H	1.167278	-0.285465	-0.864455
H132	H	1.667278	0.214535	-0.364455
H133	H	1.167123	-0.863997	-0.285383
H134	H	1.667123	-0.363997	0.214617
