data_functionalizedCrystal
_audit_creation_method	'MofGen! by Chris Wilmer'
_symmetry_space_group_name_H-M	'P1'
_symmetry_Int_Tables_number	1
_symmetry_cell_setting	triclinic
loop_
_symmetry_equiv_pos_as_xyz
  x,y,z
_cell_length_a	14.971486
_cell_length_b	23.532407
_cell_length_c	14.048226
_cell_angle_alpha	89.988910
_cell_angle_beta	89.998499
_cell_angle_gamma	83.231404
loop_
_atom_site_label
_atom_site_type_symbol
_atom_site_fract_x
_atom_site_fract_y
_atom_site_fract_z
O1	O	1.186163	0.074216	-0.079061
O2	O	0.925669	0.083104	-0.079088
O3	O	1.063771	-0.004238	-0.079057
O4	O	1.048061	0.161558	-0.079093
O5	O	1.063755	-0.004243	0.079265
O6	O	0.925652	0.083099	0.079233
O7	O	1.186146	0.074211	0.079260
Zn8	Zn	1.055897	0.078654	0.104383
Zn9	Zn	1.055919	0.078661	-0.104212
O10	O	1.048044	0.161553	0.079228
C11	C	0.892340	0.082704	0.000069
C12	C	0.793056	0.081513	0.000059
C13	C	0.735288	0.132824	0.000050
C14	C	0.642001	0.131701	0.000064
C15	C	0.606482	0.079267	0.000082
C16	C	0.664257	0.027952	0.000094
C17	C	0.757543	0.029075	0.000087
C18	C	0.469819	0.025615	0.000108
C19	C	0.376527	0.024491	0.000114
C20	C	0.354277	0.128241	0.000085
C21	C	0.447563	0.129364	0.000078
C22	C	0.505331	0.078049	0.000089
C23	C	1.063363	-0.025458	0.000107
C24	C	1.062160	-0.088680	0.000114
C25	C	1.136342	-0.487466	0.000069
C26	C	1.135224	-0.546871	0.000062
O27	O	1.203992	-0.583321	0.000034
N28	N	1.053123	-0.569849	0.000054
C29	C	0.972133	-0.533418	0.000044
O30	O	0.902196	-0.558417	0.000036
C31	C	0.973251	-0.474014	0.000044
C32	C	1.055358	-0.451040	0.000062
C33	C	1.218442	-0.464491	0.000086
C34	C	1.219559	-0.405090	0.000095
C35	C	1.138576	-0.368664	0.000087
C36	C	1.056475	-0.391639	0.000071
C37	C	0.892263	-0.437584	0.000027
C38	C	0.893388	-0.378177	0.000027
C39	C	0.975495	-0.355203	0.000045
C40	C	0.976609	-0.295812	0.000073
N41	N	1.058711	-0.272834	0.000081
C42	C	1.139694	-0.309260	0.000088
C43	C	0.969791	-0.658170	0.000041
C44	C	0.968671	-0.717573	0.000047
C45	C	1.131763	-0.731022	0.000064
C46	C	1.132882	-0.671618	0.000064
C47	C	1.051892	-0.635193	0.000049
C48	C	1.142034	-0.184513	0.000108
C49	C	1.143143	-0.125106	0.000121
C50	C	0.980052	-0.111663	0.000100
C51	C	0.978942	-0.171064	0.000092
C52	C	1.059940	-0.207489	0.000093
O53	O	0.907878	-0.259327	0.000097
O54	O	1.209619	-0.284253	0.000084
C55	C	1.219475	0.074611	0.000101
C56	C	1.318760	0.075802	0.000104
C57	C	1.048453	0.182773	0.000063
C58	C	1.049655	0.245996	0.000050
N59	N	1.055889	0.078649	0.246744
N60	N	1.055934	0.078661	-0.246572
C61	C	1.117059	0.039990	0.296576
C62	C	1.117065	0.039990	0.396234
C63	C	1.055904	0.078652	0.446058
C64	C	0.994727	0.117313	0.396218
C65	C	0.994717	0.117310	0.296563
C66	C	0.994753	0.117317	0.603933
C67	C	0.994763	0.117320	0.703595
C68	C	1.117101	0.039997	0.703604
C69	C	1.117091	0.039994	0.603948
C70	C	1.055915	0.078656	0.554116
H71	H	1.210008	-0.106405	0.000138
O72	O	1.297057	-0.499929	0.000221
C73	C	1.301298	-0.534690	0.082231
H74	H	1.230329	-0.537761	0.109555
H75	H	1.341953	-0.515115	0.139654
C76	C	1.434044	-0.591185	0.023774
C77	C	1.346879	-0.594961	0.057330
H78	H	1.462164	-0.628362	0.008416
H79	H	1.431190	-0.567764	-0.031476
H80	H	1.467912	-0.574870	0.071632
H81	H	1.313009	-0.611269	0.009468
H82	H	1.349728	-0.618386	0.112572
O83	O	1.176507	0.002379	0.248329
C84	C	1.230512	-0.031733	0.313688
H85	H	1.193853	-0.032412	0.384731
H86	H	1.296789	-0.013171	0.324270
C87	C	1.294518	-0.092319	0.187563
C88	C	1.249490	-0.093157	0.274817
H89	H	1.306229	-0.130207	0.163586
H90	H	1.258137	-0.069336	0.143529
H91	H	1.349744	-0.076848	0.196394
H92	H	1.194261	-0.108621	0.265984
H93	H	1.285863	-0.116144	0.318849
H94	H	1.199740	-0.652917	0.000078
H95	H	0.912084	-0.189771	0.000104
O96	O	1.299397	-0.382872	0.000062
C97	C	1.370625	-0.427770	0.000089
H98	H	1.345913	-0.468136	-0.029888
H99	H	1.395573	-0.436167	0.076045
C100	C	1.478466	-0.361364	-0.025176
C101	C	1.448115	-0.410941	-0.062001
H102	H	1.526267	-0.350983	-0.063472
H103	H	1.430479	-0.331115	-0.025190
H104	H	1.499249	-0.368368	0.038121
H105	H	1.427322	-0.403934	-0.125291
H106	H	1.496101	-0.441189	-0.061998
O107	O	1.176414	0.002303	0.555700
C108	C	1.162280	-0.054044	0.580249
H109	H	1.090639	-0.054320	0.607589
H110	H	1.211929	-0.070682	0.638190
C111	C	1.264536	-0.092408	0.458284
C112	C	1.176543	-0.092747	0.491856
H113	H	1.273338	-0.116283	0.403761
H114	H	1.274061	-0.054446	0.441747
H115	H	1.305901	-0.106272	0.506577
H116	H	1.135181	-0.078877	0.443568
H117	H	1.167011	-0.130708	0.508383
H118	H	1.166912	0.008517	0.744183
H119	H	1.207990	-0.214164	0.000105
O120	O	0.769679	0.183795	-0.000096
C121	C	0.740125	0.215074	-0.082108
H122	H	0.675558	0.199508	-0.109436
H123	H	0.794167	0.208519	-0.139528
C124	C	0.801363	0.298244	-0.023650
C125	C	0.722056	0.279128	-0.057210
H126	H	0.790221	0.337755	-0.008294
H127	H	0.821277	0.277170	0.031602
H128	H	0.846390	0.292776	-0.071506
H129	H	0.677034	0.284589	-0.009350
H130	H	0.702133	0.300204	-0.112453
H131	H	0.476478	0.172060	0.000054
H132	H	0.804577	-0.012707	0.000094
O133	O	0.935294	0.154928	0.555672
C134	C	0.881301	0.189046	0.621014
H135	H	0.917971	0.189728	0.692048
H136	H	0.815024	0.170487	0.631628
C137	C	0.817280	0.249625	0.494854
C138	C	0.862322	0.250467	0.582097
H139	H	0.805568	0.287512	0.470847
H140	H	0.853654	0.226639	0.450830
H141	H	0.762054	0.234157	0.503711
H142	H	0.917551	0.265929	0.573237
H143	H	0.825957	0.273458	0.626118
H144	H	0.903835	-0.628515	0.000037
H145	H	1.197704	-0.760691	0.000066
H146	H	0.594969	0.173484	0.000055
H147	H	0.901812	-0.736273	0.000050
H148	H	1.166874	0.008511	0.436807
O149	O	0.812424	-0.459798	-0.000036
C150	C	0.741198	-0.414898	-0.000025
H151	H	0.765922	-0.374525	-0.029987
H152	H	0.716229	-0.406520	0.075924
C153	C	0.633361	-0.481295	-0.025335
C154	C	0.663725	-0.431708	-0.062142
H155	H	0.585569	-0.491664	-0.063648
H156	H	0.681346	-0.511545	-0.025339
H157	H	0.612560	-0.474306	0.037956
H158	H	0.684535	-0.438699	-0.125427
H159	H	0.615741	-0.401460	-0.062151
H160	H	0.827435	-0.348522	0.000013
O161	O	0.525810	-0.024285	0.000071
C162	C	0.474459	-0.070806	0.000106
H163	H	0.404696	-0.056397	-0.029859
H164	H	0.467968	-0.086883	0.076063
C165	C	0.607058	-0.137069	-0.025179
C166	C	0.521376	-0.119373	-0.061991
H167	H	0.635999	-0.167028	-0.063479
H168	H	0.641655	-0.105727	-0.025199
H169	H	0.601637	-0.150462	0.038118
H170	H	0.526799	-0.105973	-0.125282
H171	H	0.486781	-0.150713	-0.061983
O172	O	0.935264	0.154920	0.248300
C173	C	0.881269	0.189036	0.313643
H174	H	0.917940	0.189721	0.384675
H175	H	0.814996	0.170473	0.324260
C176	C	0.817237	0.249610	0.187481
C177	C	0.862280	0.250456	0.274722
H178	H	0.805519	0.287496	0.163472
H179	H	0.853612	0.226624	0.143457
H180	H	0.762014	0.234138	0.196341
H181	H	0.917507	0.265920	0.265859
H182	H	0.825914	0.273445	0.318743
H183	H	0.914118	-0.081994	0.000097
H184	H	0.307237	0.170023	0.000080
H185	H	0.944959	0.148802	0.744157
H186	H	0.347612	-0.018205	0.000129
H187	H	0.635331	-0.014741	0.000122
H188	H	0.944924	0.148790	0.436791
