data_functionalizedCrystal
_audit_creation_method	'MofGen! by Chris Wilmer'
_symmetry_space_group_name_H-M	'P1'
_symmetry_Int_Tables_number	1
_symmetry_cell_setting	triclinic
loop_
_symmetry_equiv_pos_as_xyz
  x,y,z
_cell_length_a	19.077105
_cell_length_b	29.839131
_cell_length_c	19.077569
_cell_angle_alpha	87.673679
_cell_angle_beta	85.299277
_cell_angle_gamma	87.737628
loop_
_atom_site_label
_atom_site_type_symbol
_atom_site_fract_x
_atom_site_fract_y
_atom_site_fract_z
Zn1	Zn	1.093625	-0.195626	-0.441828
Zn2	Zn	1.426958	0.137707	-0.108495
Zn3	Zn	1.760292	0.471041	0.224838
Zn4	Zn	1.088771	-0.273652	-0.323930
Zn5	Zn	1.422104	0.059681	0.009404
Zn6	Zn	1.755438	0.393015	0.342737
Zn7	Zn	0.971007	-0.195633	-0.319224
Zn8	Zn	1.304341	0.137701	0.014109
Zn9	Zn	1.637674	0.471034	0.347443
Zn10	Zn	0.975670	-0.267822	-0.437050
Zn11	Zn	1.309004	0.065511	-0.103717
Zn12	Zn	1.642337	0.398844	0.229617
O13	O	1.032268	-0.233183	-0.380508
O14	O	1.365602	0.100150	-0.047175
O15	O	1.698935	0.433483	0.286159
O16	O	1.191630	-0.208413	-0.430158
O17	O	1.524964	0.124920	-0.096825
O18	O	1.858297	0.458253	0.236509
O19	O	1.069167	-0.265745	-0.224654
O20	O	1.402500	0.067588	0.108679
O21	O	1.735833	0.400922	0.442013
O22	O	0.987353	-0.132766	-0.335518
O23	O	1.320686	0.200568	-0.002185
O24	O	1.654019	0.533901	0.331149
O25	O	1.188064	-0.265739	-0.343538
O26	O	1.521397	0.067595	-0.010205
O27	O	1.854731	0.400928	0.323128
O28	O	1.077440	-0.132761	-0.425595
O29	O	1.410773	0.200572	-0.092262
O30	O	1.744106	0.533906	0.241072
O31	O	0.982646	-0.208424	-0.221196
O32	O	1.315979	0.124909	0.112137
O33	O	1.649313	0.458242	0.445470
O34	O	0.872977	-0.202772	-0.330885
O35	O	1.206310	0.130562	0.002449
O36	O	1.539643	0.463895	0.335782
O37	O	0.995300	-0.255803	-0.536336
O38	O	1.328633	0.077530	-0.203002
O39	O	1.661967	0.410864	0.130331
O40	O	0.876403	-0.255809	-0.417451
O41	O	1.209736	0.077524	-0.084118
O42	O	1.543069	0.410857	0.249216
O43	O	1.081961	-0.202761	-0.539846
O44	O	1.415294	0.130573	-0.206513
O45	O	1.748628	0.463906	0.126820
O46	O	1.073688	-0.335745	-0.338905
O47	O	1.407021	-0.002411	-0.005572
O48	O	1.740355	0.330922	0.327762
O49	O	0.990593	-0.331462	-0.422014
O50	O	1.323927	0.001872	-0.088681
O51	O	1.657260	0.335205	0.244652
C52	C	0.849111	-0.228659	-0.373139
C53	C	1.182444	0.104674	-0.039806
C54	C	1.515778	0.438008	0.293528
C55	C	0.770756	-0.226734	-0.370003
C56	C	1.104090	0.106599	-0.036670
C57	C	1.437423	0.439933	0.296663
C58	C	1.032140	-0.349904	-0.380468
C59	C	1.365473	-0.016570	-0.047135
C60	C	1.698806	0.316763	0.286199
C61	C	1.032150	-0.399838	-0.380477
C62	C	1.365483	-0.066505	-0.047144
C63	C	1.698817	0.266829	0.286190
C64	C	0.735744	-0.253488	-0.413530
C65	C	1.069077	0.079845	-0.080197
C66	C	1.402411	0.413178	0.253137
C67	C	0.662122	-0.251674	-0.410587
C68	C	0.995455	0.081660	-0.077254
C69	C	1.328788	0.414993	0.256080
C70	C	0.623512	-0.223106	-0.364113
C71	C	0.956846	0.110227	-0.030780
C72	C	1.290179	0.443560	0.302553
C73	C	0.658529	-0.196349	-0.320585
C74	C	0.991863	0.136985	0.012748
C75	C	1.325196	0.470318	0.346081
C76	C	0.732151	-0.198162	-0.323532
C77	C	1.065484	0.135172	0.009801
C78	C	1.398817	0.468505	0.343134
C79	C	0.403135	-0.214716	-0.350478
C80	C	0.736468	0.118617	-0.017144
C81	C	1.069802	0.451950	0.316189
C82	C	0.329509	-0.212907	-0.347532
C83	C	0.662842	0.120427	-0.014199
C84	C	0.996175	0.453760	0.319134
C85	C	0.333106	-0.268231	-0.437535
C86	C	0.666439	0.065102	-0.104202
C87	C	0.999772	0.398436	0.229131
C88	C	0.406728	-0.270043	-0.440475
C89	C	0.740062	0.063290	-0.107142
C90	C	1.073395	0.396623	0.226191
C91	C	0.441739	-0.243284	-0.396950
C92	C	0.775072	0.090049	-0.063616
C93	C	1.108406	0.423383	0.269717
N94	N	0.548258	-0.221252	-0.361103
N95	N	0.881591	0.112082	-0.027769
N96	N	1.214925	0.445415	0.305564
N97	N	0.516992	-0.245137	-0.399965
N98	N	0.850326	0.088197	-0.066631
N99	N	1.183659	0.421530	0.266702
C100	C	1.075620	-0.711701	-0.337302
C101	C	1.408954	-0.378368	-0.003969
C102	C	1.742287	-0.045035	0.329364
C103	C	1.075709	-0.899376	-0.337333
C104	C	1.409042	-0.566043	-0.004000
C105	C	1.742375	-0.232709	0.329333
O106	O	1.112566	-0.925527	-0.300594
O107	O	1.445900	-0.592193	0.032740
O108	O	1.779233	-0.258860	0.366073
N109	N	1.032417	-0.920628	-0.380567
N110	N	1.365750	-0.587294	-0.047234
N111	N	1.699083	-0.253961	0.286100
C112	C	0.989103	-0.894957	-0.423800
C113	C	1.322437	-0.561624	-0.090466
C114	C	1.655770	-0.228291	0.242867
O115	O	0.952288	-0.917340	-0.460579
O116	O	1.285622	-0.584006	-0.127245
O117	O	1.618955	-0.250673	0.206088
C118	C	0.989019	-0.707284	-0.423772
C119	C	1.322353	-0.373951	-0.090439
C120	C	1.655686	-0.040617	0.242895
C121	C	1.032309	-0.686035	-0.380530
C122	C	1.365642	-0.352702	-0.047197
C123	C	1.698975	-0.019368	0.286137
C124	C	1.118907	-0.690452	-0.294064
C125	C	1.452240	-0.357119	0.039269
C126	C	1.785574	-0.023786	0.372602
C127	C	1.118882	-0.643536	-0.294054
C128	C	1.452215	-0.310203	0.039279
C129	C	1.785548	0.023130	0.372612
C130	C	1.075570	-0.617870	-0.337282
C131	C	1.408903	-0.284536	-0.003949
C132	C	1.742237	0.048797	0.329385
C133	C	1.032283	-0.639119	-0.380520
C134	C	1.365617	-0.305786	-0.047187
C135	C	1.698950	0.027548	0.286147
C136	C	0.945710	-0.681615	-0.467008
C137	C	1.279043	-0.348281	-0.133675
C138	C	1.612377	-0.014948	0.199659
C139	C	0.945694	-0.634693	-0.466998
C140	C	1.279027	-0.301360	-0.133665
C141	C	1.612361	0.031973	0.199668
C142	C	0.988984	-0.613444	-0.423757
C143	C	1.322317	-0.280111	-0.090423
C144	C	1.655650	0.053222	0.242910
C145	C	0.988946	-0.566537	-0.423738
C146	C	1.322280	-0.233203	-0.090404
C147	C	1.655613	0.100130	0.242929
N148	N	1.032238	-0.545285	-0.380504
N149	N	1.365572	-0.211952	-0.047170
N150	N	1.698905	0.121382	0.286163
C151	C	1.075550	-0.570952	-0.337276
C152	C	1.408883	-0.237618	-0.003943
C153	C	1.742217	0.095715	0.329391
C154	C	0.989149	-0.993489	-0.423810
C155	C	1.322483	-0.660156	-0.090477
C156	C	1.655816	-0.326822	0.242857
C157	C	0.989169	-1.040407	-0.423816
C158	C	1.322503	-0.707074	-0.090483
C159	C	1.655836	-0.373741	0.242850
C160	C	1.075776	-1.044822	-0.337351
C161	C	1.409109	-0.711489	-0.004017
C162	C	1.742442	-0.378156	0.329316
C163	C	1.075752	-0.997903	-0.337341
C164	C	1.409085	-0.664570	-0.004008
C165	C	1.742418	-0.331237	0.329325
C166	C	1.032441	-0.972237	-0.380576
C167	C	1.365774	-0.638904	-0.047243
C168	C	1.699108	-0.305571	0.286090
C169	C	1.075493	-0.472425	-0.337258
C170	C	1.408826	-0.139091	-0.003924
C171	C	1.742160	0.194242	0.329409
C172	C	1.075462	-0.425505	-0.337249
C173	C	1.408795	-0.092171	-0.003916
C174	C	1.742128	0.241162	0.329417
C175	C	0.988858	-0.421093	-0.423717
C176	C	1.322192	-0.087760	-0.090384
C177	C	1.655525	0.245573	0.242949
C178	C	0.988887	-0.468010	-0.423723
C179	C	1.322220	-0.134676	-0.090390
C180	C	1.655553	0.198657	0.242943
C181	C	1.032210	-0.493674	-0.380491
C182	C	1.365543	-0.160341	-0.047158
C183	C	1.698876	0.172992	0.286175
O184	O	0.952114	-0.540358	-0.460464
O185	O	1.285447	-0.207025	-0.127130
O186	O	1.618780	0.126309	0.206203
O187	O	1.112371	-0.548561	-0.300514
O188	O	1.445704	-0.215228	0.032819
O189	O	1.779038	0.118106	0.366153
C190	C	1.075646	-0.758617	-0.337312
C191	C	1.408979	-0.425284	-0.003979
C192	C	1.742312	-0.091951	0.329354
C193	C	1.032359	-0.779867	-0.380550
C194	C	1.365693	-0.446533	-0.047217
C195	C	1.699026	-0.113200	0.286116
C196	C	0.989047	-0.754200	-0.423778
C197	C	1.322381	-0.420867	-0.090445
C198	C	1.655714	-0.087533	0.242889
C199	C	1.032379	-0.826785	-0.380556
C200	C	1.365712	-0.493451	-0.047223
C201	C	1.699046	-0.160118	0.286110
C202	C	1.075691	-0.852451	-0.337329
C203	C	1.409024	-0.519118	-0.003995
C204	C	1.742358	-0.185785	0.329338
C205	C	1.118983	-0.831200	-0.294095
C206	C	1.452316	-0.497866	0.039239
C207	C	1.785649	-0.164533	0.372572
C208	C	1.118957	-0.784284	-0.294085
C209	C	1.452291	-0.450951	0.039249
C210	C	1.785624	-0.117617	0.372582
C211	C	0.945756	-0.775451	-0.467012
C212	C	1.279089	-0.442118	-0.133679
C213	C	1.612422	-0.108785	0.199655
C214	C	0.945784	-0.822368	-0.467018
C215	C	1.279117	-0.489034	-0.133685
C216	C	1.612451	-0.155701	0.199649
C217	C	0.989096	-0.848034	-0.423790
C218	C	1.322429	-0.514701	-0.090457
C219	C	1.655762	-0.181367	0.242877
C220	C	1.216141	-0.237725	-0.387906
C221	C	1.549474	0.095608	-0.054573
C222	C	1.882808	0.428941	0.278761
C223	C	1.294496	-0.239661	-0.391059
C224	C	1.627830	0.093672	-0.057725
C225	C	1.961163	0.427006	0.275608
C226	C	1.039692	-0.228631	-0.564385
C227	C	1.373025	0.104702	-0.231052
C228	C	1.706359	0.438036	0.102281
C229	C	1.042856	-0.226691	-0.642743
C230	C	1.376189	0.106642	-0.309410
C231	C	1.709522	0.439976	0.023924
C232	C	1.032417	-0.116007	-0.380564
C233	C	1.365751	0.217326	-0.047231
C234	C	1.699084	0.550659	0.286102
C235	C	1.032481	-0.066074	-0.380589
C236	C	1.365814	0.267260	-0.047255
C237	C	1.699148	0.600593	0.286078
C238	C	0.999223	-0.253394	-0.677729
C239	C	1.332557	0.079940	-0.344396
C240	C	1.665890	0.413273	-0.011062
C241	C	1.002202	-0.251571	-0.751354
C242	C	1.335535	0.081762	-0.418021
C243	C	1.668868	0.415096	-0.084688
C244	C	1.048809	-0.223043	-0.789993
C245	C	1.382143	0.110290	-0.456659
C246	C	1.715476	0.443624	-0.123326
C247	C	1.092447	-0.196339	-0.755002
C248	C	1.425780	0.136994	-0.421668
C249	C	1.759113	0.470328	-0.088335
C250	C	1.089471	-0.198164	-0.681378
C251	C	1.422805	0.135169	-0.348044
C252	C	1.756138	0.468502	-0.014711
C253	C	1.062549	-0.214625	-1.010381
C254	C	1.395883	0.118709	-0.677048
C255	C	1.729216	0.452042	-0.343714
C256	C	1.065520	-0.212800	-1.084010
C257	C	1.398853	0.120533	-0.750677
C258	C	1.732186	0.453866	-0.417343
C259	C	0.975275	-0.268033	-1.080358
C260	C	1.308609	0.065300	-0.747024
C261	C	1.641942	0.398633	-0.413691
C262	C	0.972301	-0.269854	-1.006732
C263	C	1.305634	0.063479	-0.673399
C264	C	1.638968	0.396813	-0.340066
C265	C	1.015941	-0.243152	-0.971748
C266	C	1.349274	0.090181	-0.638415
C267	C	1.682608	0.423515	-0.305081
N268	N	1.051853	-0.221178	-0.865250
N269	N	1.385187	0.112155	-0.531916
N270	N	1.718520	0.445489	-0.198583
N271	N	1.012900	-0.245019	-0.896492
N272	N	1.346233	0.088314	-0.563159
N273	N	1.679567	0.421647	-0.229826
C274	C	1.024914	-0.237686	-0.197348
C275	C	1.358247	0.095647	0.135986
C276	C	1.691581	0.428980	0.469319
C277	C	1.021887	-0.239503	-0.118996
C278	C	1.355221	0.093830	0.214337
C279	C	1.688554	0.427163	0.547671
H280	H	0.767175	-0.276753	-0.451371
H281	H	1.100508	0.056581	-0.118038
H282	H	1.433841	0.389914	0.215295
H283	H	0.966672	-0.273316	-0.779837
H284	H	1.300005	0.060017	-0.446503
H285	H	1.633339	0.393351	-0.113170
H286	H	0.438159	-0.293307	-0.478317
H287	H	0.771493	0.040027	-0.144984
H288	H	1.104826	0.373360	0.188349
Cl289	Cl	0.289088	-0.301870	-0.492249
Cl290	Cl	0.622421	0.031464	-0.158915
Cl291	Cl	0.955755	0.364797	0.174418
H292	H	1.125001	-0.176420	-0.652893
H293	H	1.458335	0.156913	-0.319560
H294	H	1.791668	0.490247	0.013774
Cl295	Cl	0.934450	-0.494723	-0.478070
Cl296	Cl	1.267783	-0.161390	-0.144737
Cl297	Cl	1.601117	0.171943	0.188596
H298	H	0.633618	-0.273460	-0.446030
H299	H	0.966952	0.059873	-0.112697
H300	H	1.300285	0.393206	0.220637
Cl301	Cl	0.280971	-0.176994	-0.289099
Cl302	Cl	0.614305	0.156339	0.044235
Cl303	Cl	0.947638	0.489672	0.377568
Cl304	Cl	0.891301	-0.743192	-0.521361
Cl305	Cl	1.224634	-0.409858	-0.188028
Cl306	Cl	1.557967	-0.076525	0.145306
Cl307	Cl	1.173430	-0.863475	-0.239750
Cl308	Cl	1.506763	-0.530142	0.093583
Cl309	Cl	1.840096	-0.196809	0.426916
H310	H	0.760657	-0.176373	-0.288092
H311	H	1.093990	0.156961	0.045241
H312	H	1.427323	0.490294	0.378575
H313	H	0.431632	-0.192931	-0.315031
H314	H	0.764965	0.140403	0.018303
H315	H	1.098298	0.473736	0.351636
H316	H	0.627088	-0.173087	-0.282749
H317	H	0.960421	0.160247	0.050585
H318	H	1.293755	0.493580	0.383918
H319	H	0.961262	-0.276619	-0.646275
H320	H	1.294595	0.056714	-0.312941
H321	H	1.627928	0.390048	0.020392
Cl322	Cl	0.934416	-0.388818	-0.478062
Cl323	Cl	1.267749	-0.055485	-0.144728
Cl324	Cl	1.601083	0.277848	0.188605
H325	H	1.110713	-0.408205	-0.302034
H326	H	1.444046	-0.074872	0.031299
H327	H	1.777380	0.258461	0.364633
H328	H	0.910426	-0.613798	-0.502208
H329	H	1.243760	-0.280465	-0.168875
H330	H	1.577093	0.052868	0.164459
H331	H	1.110772	-0.493316	-0.302056
H332	H	1.444106	-0.159982	0.031278
H333	H	1.777439	0.173351	0.364611
H334	H	1.154134	-0.626238	-0.258845
H335	H	1.487467	-0.292905	0.074488
H336	H	1.820800	0.040428	0.407821
H337	H	0.934359	-0.293092	-0.975279
H338	H	1.267693	0.040241	-0.641945
H339	H	1.601026	0.373575	-0.308612
Cl340	Cl	1.173364	-0.722711	-0.239714
Cl341	Cl	1.506697	-0.389377	0.093620
Cl342	Cl	1.840030	-0.056044	0.426953
H343	H	1.103471	-0.189565	-1.115467
H344	H	1.436804	0.143768	-0.782134
H345	H	1.770138	0.477101	-0.448801
Cl346	Cl	1.130175	-0.971195	-0.282979
Cl347	Cl	1.463509	-0.637862	0.050354
Cl348	Cl	1.796842	-0.304529	0.383688
H349	H	1.111042	-1.065728	-0.302153
H350	H	1.444375	-0.732395	0.031180
H351	H	1.777709	-0.399062	0.364514
H352	H	1.154208	-0.766987	-0.258873
H353	H	1.487541	-0.433653	0.074460
H354	H	1.820875	-0.100320	0.407793
H355	H	0.939746	-0.289773	-1.108850
H356	H	1.273080	0.043561	-0.775517
H357	H	1.606413	0.376894	-0.442183
H358	H	0.910526	-0.839664	-0.502230
H359	H	1.243860	-0.506331	-0.168897
H360	H	1.577193	-0.172997	0.164437
Cl361	Cl	0.934737	-1.067114	-0.478171
Cl362	Cl	1.268071	-0.733781	-0.144838
Cl363	Cl	1.601404	-0.400448	0.188495
H364	H	1.098084	-0.192882	-0.981906
H365	H	1.431417	0.140451	-0.648572
H366	H	1.764751	0.473784	-0.315239
Cl367	Cl	1.151043	-0.160477	-0.803576
Cl368	Cl	1.484377	0.172856	-0.470242
Cl369	Cl	1.817710	0.506189	-0.136909
H370	H	0.953879	-0.972595	-0.459018
H371	H	1.287212	-0.639261	-0.125685
H372	H	1.620546	-0.305928	0.207648
Cl373	Cl	0.891294	-0.708316	-0.521382
Cl374	Cl	1.224627	-0.374983	-0.188048
Cl375	Cl	1.557960	-0.041649	0.145285
