data_functionalizedCrystal
_audit_creation_method	'MofGen! by Chris Wilmer'
_symmetry_space_group_name_H-M	'P1'
_symmetry_Int_Tables_number	1
_symmetry_cell_setting	triclinic
loop_
_symmetry_equiv_pos_as_xyz
  x,y,z
_cell_length_a	10.685904
_cell_length_b	16.625546
_cell_length_c	10.686551
_cell_angle_alpha	94.409858
_cell_angle_beta	98.408451
_cell_angle_gamma	94.389060
loop_
_atom_site_label
_atom_site_type_symbol
_atom_site_fract_x
_atom_site_fract_y
_atom_site_fract_z
Zn1	Zn	1.995765	-0.180723	0.866686
Zn2	Zn	2.495765	0.319277	1.366686
Zn3	Zn	1.979310	-0.326796	0.654401
Zn4	Zn	2.479310	0.173204	1.154401
Zn5	Zn	1.767185	-0.203165	0.638146
Zn6	Zn	2.267185	0.296835	1.138146
Zn7	Zn	1.783433	-0.326718	0.850311
Zn8	Zn	2.283433	0.173282	1.350311
O9	O	1.881423	-0.259350	0.752386
O10	O	2.381423	0.240650	1.252386
O11	O	2.171219	-0.190740	0.852181
O12	O	2.671219	0.309260	1.352181
O13	O	1.937486	-0.319821	0.474612
O14	O	2.437486	0.180179	0.974612
O15	O	1.797593	-0.087349	0.668512
O16	O	2.297593	0.412651	1.168512
O17	O	2.159130	-0.298059	0.696217
O18	O	2.659130	0.201941	1.196217
O19	O	1.965530	-0.070861	0.836419
O20	O	2.465530	0.429139	1.336419
O21	O	1.781638	-0.228990	0.462669
O22	O	2.281638	0.271010	0.962669
O23	O	1.591703	-0.228915	0.652634
O24	O	2.091703	0.271085	1.152634
O25	O	1.825285	-0.297926	1.030117
O26	O	2.325285	0.202074	1.530117
O27	O	1.603640	-0.319688	0.808511
O28	O	2.103640	0.180312	1.308511
O29	O	1.981284	-0.190665	1.042147
O30	O	2.481284	0.309335	1.542147
O31	O	1.953240	-0.439624	0.680339
O32	O	2.453240	0.060376	1.180339
O33	O	1.809330	-0.439567	0.824273
O34	O	2.309330	0.060433	1.324273
C35	C	1.551613	-0.276729	0.727033
C36	C	2.051613	0.223271	1.227033
C37	C	1.410521	-0.284181	0.716217
C38	C	1.910521	0.215819	1.216217
C39	C	1.881299	-0.468850	0.752324
C40	C	2.381299	0.031150	1.252324
C41	C	1.881365	-0.558467	0.752348
C42	C	2.381365	-0.058467	1.252348
C43	C	1.881597	-0.886624	0.752498
C44	C	2.381597	-0.386624	1.252498
C45	C	1.881529	-0.795321	0.752459
C46	C	2.381529	-0.295321	1.252459
C47	C	1.881480	-0.722549	0.752422
C48	C	2.381480	-0.222549	1.252422
C49	C	1.881414	-0.631239	0.752385
C50	C	2.381414	-0.131239	1.252385
C51	C	2.212522	-0.241905	0.777839
C52	C	2.712522	0.258095	1.277839
C53	C	2.353616	-0.234471	0.788686
C54	C	2.853616	0.265529	1.288686
C55	C	1.906932	-0.241783	1.083478
C56	C	2.406932	0.258217	1.583478
C57	C	1.917803	-0.234297	1.224570
C58	C	2.417803	0.265703	1.724570
C59	C	1.881585	-0.049029	0.752479
C60	C	2.381585	0.450971	1.252479
C61	C	1.881653	0.040597	0.752519
C62	C	2.381653	0.540597	1.252519
C63	C	1.856086	-0.276787	0.422588
C64	C	2.356086	0.223213	0.922588
C65	C	1.845462	-0.284033	0.281516
C66	C	2.345462	0.215967	0.781516
H67	H	1.351299	-0.332437	0.645897
H68	H	1.851299	0.167563	1.145897
C69	C	1.750554	-0.349292	1.201569
C70	C	2.250554	0.150708	1.701569
H71	H	1.755445	-0.345928	1.114046
H72	H	2.255445	0.154072	1.614046
H73	H	1.770735	-0.401356	1.224637
H74	H	2.270735	0.098644	1.724637
H75	H	1.666919	-0.340841	1.216683
H76	H	2.166919	0.159159	1.716683
H77	H	1.988063	-0.185990	1.283762
H78	H	2.488063	0.314010	1.783762
H79	H	1.412844	-0.186206	0.859001
H80	H	1.912844	0.313794	1.359001
