data_functionalizedCrystal
_audit_creation_method	'MofGen! by Chris Wilmer'
_symmetry_space_group_name_H-M	'P1'
_symmetry_Int_Tables_number	1
_symmetry_cell_setting	triclinic
loop_
_symmetry_equiv_pos_as_xyz
  x,y,z
_cell_length_a	11.169417
_cell_length_b	17.077402
_cell_length_c	17.077396
_cell_angle_alpha	90.029784
_cell_angle_beta	90.016250
_cell_angle_gamma	90.023762
loop_
_atom_site_label
_atom_site_type_symbol
_atom_site_fract_x
_atom_site_fract_y
_atom_site_fract_z
Zn1	Zn	-1.834815	0.312490	-0.443768
Zn2	Zn	-1.334815	0.812490	0.056232
Zn3	Zn	-1.834673	0.443765	-0.312499
Zn4	Zn	-1.334673	0.943765	0.187501
Zn5	Zn	-1.634114	0.312519	-0.312523
Zn6	Zn	-1.134114	0.812519	0.187477
Zn7	Zn	-1.634065	0.443720	-0.443730
Zn8	Zn	-1.134065	0.943720	0.056270
O9	O	-1.734417	0.378123	-0.378130
O10	O	-1.234417	0.878123	0.121870
O11	O	-2.002746	0.329910	-0.426360
O12	O	-1.502746	0.829910	0.073640
O13	O	-1.808030	0.426386	-0.202655
O14	O	-1.308030	0.926386	0.297345
O15	O	-1.660817	0.202668	-0.329959
O16	O	-1.160817	0.702668	0.170041
O17	O	-2.002642	0.426357	-0.329917
O18	O	-1.502642	0.926357	0.170083
O19	O	-1.808272	0.202647	-0.426384
O20	O	-1.308272	0.702647	0.073616
O21	O	-1.660679	0.329960	-0.202673
O22	O	-1.160679	0.829960	0.297327
O23	O	-1.466158	0.329916	-0.329922
O24	O	-0.966158	0.829916	0.170078
O25	O	-1.660734	0.426281	-0.553582
O26	O	-1.160734	0.926281	-0.053582
O27	O	-1.466122	0.426309	-0.426319
O28	O	-0.966122	0.926309	0.073681
O29	O	-1.808224	0.329867	-0.553609
O30	O	-1.308224	0.829867	-0.053609
O31	O	-1.807982	0.553606	-0.329881
O32	O	-1.307982	1.053606	0.170119
O33	O	-1.660596	0.553572	-0.426295
O34	O	-1.160596	1.053572	0.073705
C35	C	-1.734301	0.582071	-0.378098
C36	C	-1.234301	1.082071	0.121902
C37	C	-1.734361	0.669321	-0.378111
C38	C	-1.234361	1.169321	0.121889
C39	C	-1.422592	0.378111	-0.378120
C40	C	-0.922592	0.878111	0.121880
C41	C	-1.289192	0.378125	-0.378134
C42	C	-0.789192	0.878125	0.121866
C43	C	-2.047459	0.378136	-0.378140
C44	C	-1.547459	0.878136	0.121860
C45	C	-2.180859	0.378141	-0.378145
C46	C	-1.680859	0.878141	0.121855
C47	C	-1.734489	0.378065	-0.582874
C48	C	-1.234489	0.878065	-0.082874
C49	C	-1.734520	0.378041	-0.670124
C50	C	-1.234520	0.878041	-0.170124
C51	C	-1.734566	0.173379	-0.378178
C52	C	-1.234566	0.673379	0.121822
C53	C	-1.734629	0.086129	-0.378199
C54	C	-1.234629	0.586129	0.121801
C55	C	-1.811184	0.710302	-0.327962
C56	C	-1.311184	1.210302	0.172038
C57	C	-1.811242	0.792283	-0.327982
C58	C	-1.311242	1.292283	0.172018
C59	C	-1.734472	0.833280	-0.378148
C60	C	-1.234472	1.333280	0.121852
C61	C	-1.657646	0.792293	-0.428303
C62	C	-1.157646	1.292293	0.071697
C63	C	-1.657594	0.710314	-0.428286
C64	C	-1.157594	1.210314	0.071714
C65	C	-1.657757	0.963163	-0.428332
C66	C	-1.157757	1.463163	0.071668
C67	C	-1.657807	1.045148	-0.428348
C68	C	-1.157807	1.545148	0.071652
C69	C	-1.811405	1.045132	-0.328028
C70	C	-1.311405	1.545132	0.171972
C71	C	-1.811353	0.963153	-0.328012
C72	C	-1.311353	1.463153	0.171988
C73	C	-1.734526	0.922171	-0.378166
C74	C	-1.234526	1.422171	0.121834
C75	C	-1.811321	0.327834	-0.711130
C76	C	-1.311321	0.827834	-0.211130
C77	C	-1.811336	0.327808	-0.793110
C78	C	-1.311336	0.827808	-0.293110
C79	C	-1.734554	0.377993	-0.834083
C80	C	-1.234554	0.877993	-0.334083
C81	C	-1.657745	0.428202	-0.793072
C82	C	-1.157745	0.928202	-0.293072
C83	C	-1.657725	0.428224	-0.711093
C84	C	-1.157725	0.928224	-0.211093
C85	C	-1.657793	0.428155	-0.963942
C86	C	-1.157793	0.928155	-0.463942
C87	C	-1.657814	0.428135	-1.045926
C88	C	-1.157814	0.928135	-0.545926
C89	C	-1.811404	0.327739	-1.045959
C90	C	-1.311404	0.827739	-0.545959
C91	C	-1.811384	0.327760	-0.963980
C92	C	-1.311384	0.827760	-0.463980
C93	C	-1.734576	0.377971	-0.922974
C94	C	-1.234576	0.877971	-0.422974
C95	C	-1.734414	0.378124	-0.174182
C96	C	-1.234414	0.878124	0.325818
C97	C	-1.734615	0.377928	-0.086932
C98	C	-1.234615	0.877928	0.413068
H99	H	-1.873694	0.676927	-0.287108
H100	H	-1.373694	1.176927	0.212892
H101	H	-1.595200	0.929799	-0.469176
H102	H	-1.095200	1.429799	0.030824
C103	C	-1.895927	1.090213	-0.272865
C104	C	-1.395927	1.590213	0.227135
N105	N	-1.959586	1.124171	-0.231317
N106	N	-1.459586	1.624171	0.268683
C107	C	-1.573193	0.837394	-0.483483
C108	C	-1.073193	1.337394	0.016517
N109	N	-1.509576	0.871362	-0.525043
N110	N	-1.009576	1.371362	-0.025043
H111	H	-1.873798	0.825646	-0.287145
H112	H	-1.373798	1.325646	0.212855
H113	H	-1.873913	0.286900	-0.930622
H114	H	-1.373913	0.786900	-0.430622
H115	H	-1.873860	0.929773	-0.287159
H116	H	-1.373860	1.429773	0.212841
C117	C	-1.573084	0.665235	-0.483455
C118	C	-1.073084	1.165235	0.016545
N119	N	-1.509432	0.631283	-0.525012
N120	N	-1.009432	1.131283	-0.025012
H121	H	-1.873942	0.286854	-1.079350
H122	H	-1.373942	0.786854	-0.579350
C123	C	-1.573343	0.483336	-1.090995
C124	C	-1.073343	0.983336	-0.590995
N125	N	-1.509716	0.524914	-1.124941
N126	N	-1.009716	1.024914	-0.624941
C127	C	-1.573304	0.483392	-0.918837
C128	C	-1.073304	0.983392	-0.418837
N129	N	-1.509673	0.525000	-0.884864
N130	N	-1.009673	1.025000	-0.384864
C131	C	-1.895788	0.272624	-0.666067
C132	C	-1.395788	0.772624	-0.166067
N133	N	-1.959406	0.231036	-0.632128
N134	N	-1.459406	0.731036	-0.132128
C135	C	-1.573368	1.090244	-0.483542
C136	C	-1.073368	1.590244	0.016458
N137	N	-1.509771	1.124210	-0.525117
N138	N	-1.009771	1.624210	-0.025117
H139	H	-1.873878	0.286926	-0.826494
H140	H	-1.373878	0.786926	-0.326494
H141	H	-1.595224	0.469061	-0.826438
H142	H	-1.095224	0.969061	-0.326438
H143	H	-1.595174	0.469099	-0.677707
H144	H	-1.095174	0.969099	-0.177707
