data_functionalizedCrystal
_audit_creation_method	'MofGen! by Chris Wilmer'
_symmetry_space_group_name_H-M	'P1'
_symmetry_Int_Tables_number	1
_symmetry_cell_setting	triclinic
loop_
_symmetry_equiv_pos_as_xyz
  x,y,z
_cell_length_a	6.817900
_cell_length_b	11.102188
_cell_length_c	14.125465
_cell_angle_alpha	94.635462
_cell_angle_beta	100.398878
_cell_angle_gamma	108.603875
loop_
_atom_site_label
_atom_site_type_symbol
_atom_site_fract_x
_atom_site_fract_y
_atom_site_fract_z
V1	V	-4.017258	-0.174747	-0.299976
O2	O	-3.978095	0.009521	-0.294266
O3	O	-3.994670	-0.347575	-0.297925
O4	O	-3.952928	-0.171566	-0.430807
O5	O	-4.020126	-0.167706	-0.160465
V6	V	-4.499605	-0.152765	-0.283290
O7	O	-4.281095	-0.222967	-0.336580
O8	O	-4.685966	-0.104545	-0.246686
O9	O	-4.298986	0.020063	-0.285341
O10	O	-4.656165	-0.337033	-0.289000
O11	O	-4.614134	-0.159806	-0.422802
O12	O	-4.340729	-0.155946	-0.152460
C13	C	-3.846466	-0.389722	-0.293193
C14	C	-3.909178	-0.531007	-0.292387
C15	C	-3.906158	-0.579555	-0.203903
C16	C	-3.965106	-0.712309	-0.203150
C17	C	-4.030084	-0.747957	-0.379374
C18	C	-3.971151	-0.615206	-0.380126
C19	C	-3.793218	-0.165204	-0.462695
C20	C	-3.822076	-0.163747	-0.569649
C21	C	-3.874969	-0.161074	-0.765472
C22	C	-4.061262	-0.166435	-0.817794
C23	C	-4.090695	-0.164948	-0.926756
C24	C	-3.845529	-0.162561	-0.656500
C25	C	-4.110534	0.062203	-0.290071
C26	C	-4.027059	0.203487	-0.290882
C27	C	-4.163782	-0.162312	-0.120566
C28	C	-4.114162	-0.163763	-0.013611
H29	H	-3.962644	-0.751829	-0.131097
H30	H	-3.855699	-0.511003	-0.132461
H31	H	-4.198655	-0.172154	-0.780755
H32	H	-4.080545	-0.816527	-0.450807
H33	H	-3.973625	-0.575680	-0.452185
H34	H	-3.737595	-0.155370	-0.802510
