data_functionalizedCrystal
_audit_creation_method	'MofGen! by Chris Wilmer'
_symmetry_space_group_name_H-M	'P1'
_symmetry_Int_Tables_number	1
_symmetry_cell_setting	triclinic
loop_
_symmetry_equiv_pos_as_xyz
  x,y,z
_cell_length_a	27.732048
_cell_length_b	11.026607
_cell_length_c	9.482900
_cell_angle_alpha	78.599815
_cell_angle_beta	99.205703
_cell_angle_gamma	95.614336
loop_
_atom_site_label
_atom_site_type_symbol
_atom_site_fract_x
_atom_site_fract_y
_atom_site_fract_z
O1	O	-0.659761	-0.125077	-0.120700
O2	O	-0.520943	-0.146989	-0.120742
O3	O	-0.578847	0.040404	-0.120719
O4	O	-0.601858	-0.312470	-0.120723
O5	O	-0.567098	0.002189	0.121069
O6	O	-0.509194	-0.185204	0.121045
O7	O	-0.648013	-0.163292	0.121088
Cu8	Cu	-0.577531	-0.177738	0.143144
Cu9	Cu	-0.591425	-0.132543	-0.142798
O10	O	-0.590109	-0.350685	0.121065
C11	C	-0.497020	-0.165636	0.000146
C12	C	-0.443242	-0.164248	0.000129
C13	C	-0.568728	0.066428	0.000172
C14	C	-0.556073	0.200906	0.000163
C15	C	-0.671935	-0.144645	0.000197
C16	C	-0.725715	-0.146031	0.000204
C17	C	-0.113604	-0.266274	0.000191
C18	C	0.088519	-0.261136	0.000204
O19	O	0.111382	-0.354433	0.000266
N20	N	0.117642	-0.150017	0.000203
C21	C	0.096233	-0.040177	0.000208
O22	O	0.125642	0.054452	0.000222
C23	C	-0.105889	-0.045318	0.000205
C24	C	-0.135011	-0.156442	0.000192
C25	C	-0.142726	-0.377389	0.000180
C26	C	-0.193254	-0.378671	0.000168
C27	C	-0.214660	-0.268839	0.000169
C28	C	-0.185539	-0.157724	0.000181
C29	C	-0.127297	0.064520	0.000220
C30	C	-0.177831	0.063224	0.000223
C31	C	-0.206953	-0.047900	0.000210
C32	C	-0.257473	-0.049173	0.000170
N33	N	-0.286597	-0.160292	0.000171
C34	C	-0.265190	-0.270125	0.000171
C35	C	0.202349	-0.037485	0.000206
C36	C	0.252879	-0.036199	0.000204
C37	C	0.245161	-0.257159	0.000204
C38	C	0.194630	-0.258442	0.000195
C39	C	0.173225	-0.148603	0.000208
C40	C	-0.371303	-0.272809	0.000146
C41	C	-0.421835	-0.274080	0.000129
C42	C	-0.414113	-0.053122	0.000137
C43	C	-0.363585	-0.051849	0.000147
C44	C	-0.342182	-0.161703	0.000156
O45	O	-0.280369	0.044071	0.000124
O46	O	-0.294607	-0.364745	0.000189
C47	C	-0.063076	-0.264992	0.000202
C48	C	-0.033955	-0.153877	0.000214
C49	C	-0.055361	-0.044045	0.000215
C50	C	0.016575	-0.152591	0.000212
C51	C	0.037982	-0.262424	0.000212
C52	C	0.008858	-0.373543	0.000213
C53	C	-0.041670	-0.374825	0.000202
C54	C	-0.026238	0.067074	0.000213
C55	C	0.024290	0.068348	0.000223
C56	C	0.045696	-0.041485	0.000222
C57	C	-0.600228	-0.376709	0.000171
C58	C	-0.612883	-0.511185	0.000171
N59	N	-0.567762	-0.209524	0.344260
C60	C	-0.591015	0.275366	0.000171
C61	C	-0.577937	0.414357	0.000162
N62	N	-0.601197	-0.100747	-0.343914
C63	C	-0.588540	-0.141913	0.416468
C64	C	-0.580416	-0.168369	0.583882
H65	H	-0.445545	-0.364574	0.000117
H66	H	-0.556610	-0.245840	0.645997
C67	C	-0.225280	-0.500922	0.000185
N68	N	-0.249399	-0.593010	0.000209
H69	H	-0.353882	-0.362263	0.000158
H70	H	-0.624998	-0.023267	0.593971
H71	H	-0.543958	-0.286990	0.406381
H72	H	-0.630611	0.236214	0.000192
C73	C	-0.620686	-0.037230	0.332551
N74	N	-0.644897	0.041625	0.269346
C75	C	-0.524439	0.467235	0.000147
N76	N	-0.484146	0.507065	0.000141
C77	C	-0.666380	0.435938	0.000189
N78	N	-0.706674	0.396110	0.000205
C79	C	0.162601	-0.380688	0.000196
N80	N	0.138480	-0.472770	0.000204
C81	C	-0.119187	-0.498226	0.000184
N82	N	-0.101462	-0.589247	0.000180
H83	H	0.262599	-0.346589	0.000204
C84	C	0.284907	0.086047	0.000209
N85	N	0.309030	0.178126	0.000225
C86	C	-0.502579	0.253791	0.000148
N87	N	-0.462285	0.293620	0.000141
H88	H	-0.431552	0.036302	0.000132
C89	C	0.178810	0.083357	0.000209
N90	N	0.161082	0.174377	0.000203
H91	H	-0.195255	0.152670	0.000234
C92	C	-0.095272	0.186762	0.000263
N93	N	-0.071152	0.278841	0.000308
H94	H	-0.065377	-0.465314	0.000193
C95	C	0.032415	-0.494360	0.000218
N96	N	0.050162	-0.585355	0.000232
C97	C	-0.331551	0.070395	0.000143
N98	N	-0.307426	0.162470	0.000152
H99	H	0.047997	0.158846	0.000222
H100	H	-0.043661	0.156515	0.000217
