data_functionalizedCrystal
_audit_creation_method	'MofGen! by Chris Wilmer'
_symmetry_space_group_name_H-M	'P1'
_symmetry_Int_Tables_number	1
_symmetry_cell_setting	triclinic
loop_
_symmetry_equiv_pos_as_xyz
  x,y,z
_cell_length_a	14.044191
_cell_length_b	10.654554
_cell_length_c	9.130313
_cell_angle_alpha	89.997363
_cell_angle_beta	90.001968
_cell_angle_gamma	88.839310
loop_
_atom_site_label
_atom_site_type_symbol
_atom_site_fract_x
_atom_site_fract_y
_atom_site_fract_z
O1	O	1.259699	0.303022	-0.121737
O2	O	0.983657	0.292079	-0.121755
O3	O	1.128023	0.115450	-0.121731
O4	O	1.115334	0.479652	-0.121761
O5	O	1.128021	0.115455	0.121868
O6	O	0.983656	0.292084	0.121844
O7	O	1.259697	0.303027	0.121862
Cu8	Cu	1.121676	0.297556	0.144095
Cu9	Cu	1.121678	0.297550	-0.143988
O10	O	1.115332	0.479657	0.121838
C11	C	1.127089	0.068560	0.000069
C12	C	1.124299	-0.071163	0.000071
C13	C	0.948310	0.287295	0.000042
C14	C	0.842990	0.273016	0.000036
C15	C	1.034052	-0.262797	0.000033
C16	C	1.036673	-0.131512	0.000052
C17	C	1.209309	-0.142107	0.000057
C18	C	1.206687	-0.273389	0.000027
C19	C	0.934382	-0.256679	0.000037
C20	C	0.937003	-0.125394	0.000056
C21	C	0.593199	0.348181	0.000044
C22	C	0.650161	0.246931	0.000050
C23	C	0.757461	0.261448	0.000042
C24	C	0.485889	0.333666	0.000052
C25	C	1.295044	0.307811	0.000062
C26	C	1.400364	0.322091	0.000058
C27	C	1.116265	0.526546	0.000034
C28	C	1.119056	0.666269	0.000023
N29	N	1.121682	0.297560	0.346718
N30	N	1.121680	0.297537	-0.346611
C31	C	1.185623	0.219379	0.423381
C32	C	1.185621	0.219364	0.576718
C33	C	1.057732	0.375721	0.576716
C34	C	1.057731	0.375729	0.423381
C35	C	1.259461	0.129111	0.423383
C36	C	1.259459	0.129096	0.576720
H37	H	1.275905	-0.331139	0.000003
H38	H	0.902635	-0.295522	0.105200
C39	C	1.351278	0.178955	0.359724
C40	C	1.395227	0.085882	0.273435
C41	C	1.479791	0.131780	0.214738
H42	H	1.392824	0.201523	0.437042
H43	H	1.337277	0.250651	0.301094
H44	H	1.409230	0.014209	0.332062
H45	H	1.353708	0.063304	0.196094
H46	H	1.465791	0.203476	0.156109
H47	H	1.521329	0.154348	0.292066
H48	H	1.509617	0.068642	0.156174
H49	H	1.280656	-0.092960	0.000035
H50	H	0.899451	-0.087435	0.102009
H51	H	1.243265	0.030951	0.381770
C52	C	1.228790	0.004246	0.639861
C53	C	1.208458	-0.078444	0.525390
C54	C	1.180229	-0.193473	0.583501
H55	H	1.173524	0.016940	0.698411
H56	H	1.278712	-0.030398	0.698364
H57	H	1.158540	-0.043807	0.466911
H58	H	1.263711	-0.091174	0.466830
H59	H	1.230151	-0.228117	0.642005
H60	H	1.124965	-0.180767	0.642051
H61	H	1.166439	-0.249596	0.505843
C62	C	0.896762	-0.068767	-0.140249
C63	C	0.867438	-0.165075	-0.233226
C64	C	0.830356	-0.112956	-0.362476
H65	H	0.944416	-0.021502	-0.187627
H66	H	0.843827	-0.015359	-0.117473
H67	H	0.920366	-0.218462	-0.256004
H68	H	0.819775	-0.212347	-0.185893
H69	H	0.777422	-0.059547	-0.339700
H70	H	0.878015	-0.065692	-0.409841
H71	H	0.810448	-0.178291	-0.425570
H72	H	0.895399	-0.289936	-0.101912
C73	C	1.356601	0.167476	0.632519
C74	C	1.356352	0.167325	0.785867
C75	C	1.445820	0.202658	0.837320
H76	H	1.370200	0.249288	0.598010
H77	H	1.403864	0.109712	0.597924
H78	H	1.309104	0.225086	0.820448
H79	H	1.342770	0.085525	0.820415
H80	H	1.493083	0.144895	0.802725
H81	H	1.459412	0.284469	0.802801
H82	H	1.445666	0.202550	0.941371
C83	C	0.607875	0.116730	-0.000179
C84	C	0.638252	0.051623	-0.125490
C85	C	0.599325	-0.068322	-0.125748
H86	H	0.540351	0.123954	-0.000255
H87	H	0.628405	0.072293	0.084723
H88	H	0.617717	0.096049	-0.210370
H89	H	0.705771	0.044364	-0.125441
H90	H	0.619854	-0.112758	-0.040846
H91	H	0.531801	-0.061085	-0.125820
H92	H	0.619936	-0.112516	-0.210763
H93	H	0.625015	0.445759	0.000032
C94	C	0.988411	0.460821	0.340230
C95	C	1.004608	0.586056	0.377507
C96	C	0.940774	0.664482	0.300925
H97	H	0.924979	0.440182	0.365297
H98	H	0.997568	0.449721	0.237914
H99	H	0.995443	0.597150	0.479800
H100	H	1.068027	0.606733	0.352436
H101	H	0.949931	0.653382	0.198610
H102	H	0.877346	0.643832	0.325999
H103	H	0.951760	0.749463	0.326197
C104	C	0.988152	0.460427	0.659879
C105	C	0.894811	0.429501	0.622598
C106	C	0.830687	0.507495	0.699191
H107	H	0.998869	0.545510	0.634822
H108	H	0.997243	0.449209	0.762193
H109	H	0.885723	0.440731	0.520307
H110	H	0.884064	0.344432	0.647659
H111	H	0.839779	0.496277	0.801505
H112	H	0.841413	0.592574	0.674128
H113	H	0.767349	0.486516	0.673917
