data_functionalizedCrystal
_audit_creation_method	'MofGen! by Chris Wilmer'
_symmetry_space_group_name_H-M	'P1'
_symmetry_Int_Tables_number	1
_symmetry_cell_setting	triclinic
loop_
_symmetry_equiv_pos_as_xyz
  x,y,z
_cell_length_a	10.654553
_cell_length_b	16.992695
_cell_length_c	15.455313
_cell_angle_alpha	87.152573
_cell_angle_beta	87.292608
_cell_angle_gamma	92.421488
loop_
_atom_site_label
_atom_site_type_symbol
_atom_site_fract_x
_atom_site_fract_y
_atom_site_fract_z
O1	O	1.682524	-0.106824	-0.072136
O2	O	1.317953	-0.117314	-0.072137
O3	O	1.498777	0.002081	-0.072129
O4	O	1.501701	-0.226219	-0.072143
O5	O	1.488434	-0.004718	0.072133
O6	O	1.307610	-0.124114	0.072125
O7	O	1.672181	-0.113623	0.072126
Cu8	Cu	1.488951	-0.119489	0.085298
Cu9	Cu	1.501183	-0.111448	-0.085308
O10	O	1.491358	-0.233019	0.072119
C11	C	1.265917	-0.119942	-0.000006
C12	C	1.126275	-0.117633	-0.000006
C13	C	1.489845	0.027915	0.000002
C14	C	1.478626	0.115020	0.000001
C15	C	1.724217	-0.110995	-0.000007
C16	C	1.863860	-0.113304	-0.000012
C17	C	1.875144	-0.105901	-0.157291
C18	C	1.946389	-0.103287	-0.235929
C19	C	2.077595	-0.105455	-0.235929
C20	C	2.137559	-0.110236	-0.157283
C21	C	2.066314	-0.112850	-0.078644
C22	C	1.935105	-0.110684	-0.078652
C23	C	2.055030	-0.120247	0.078632
C24	C	1.923823	-0.118085	0.078635
C25	C	2.114994	-0.125028	0.157279
C26	C	2.043748	-0.127649	0.235920
C27	C	1.912534	-0.125481	0.235917
C28	C	1.852578	-0.120700	0.157273
C29	C	1.500289	-0.258852	-0.000014
C30	C	1.511509	-0.345957	-0.000019
N31	N	1.480357	-0.125144	0.205293
C32	C	1.586876	0.164670	0.000003
C33	C	1.576328	0.246514	-0.000006
C34	C	1.457527	0.278707	-0.000009
C35	C	1.349269	0.229052	-0.000013
C36	C	1.359819	0.147209	-0.000011
C37	C	1.413801	0.522544	-0.000021
C38	C	1.403259	0.604393	-0.000021
C39	C	1.630319	0.621850	-0.000015
C40	C	1.640858	0.540005	-0.000008
C41	C	1.532600	0.490357	-0.000016
N42	N	1.446742	0.362365	-0.000015
N43	N	1.543387	0.406701	-0.000017
N44	N	1.509787	-0.105787	-0.205303
C45	C	1.557207	-0.074440	0.250690
C46	C	1.550720	-0.078724	0.341498
C47	C	1.467388	-0.133717	0.386907
C48	C	1.390529	-0.184423	0.341503
C49	C	1.397011	-0.180135	0.250697
C50	C	1.439409	-0.152205	0.658487
C51	C	1.432936	-0.156492	0.749299
C52	C	1.593126	-0.050791	0.749288
C53	C	1.599606	-0.046510	0.658480
C54	C	1.522742	-0.097214	0.613085
N55	N	1.460758	-0.138098	0.479727
N56	N	1.529367	-0.092828	0.520266
H57	H	1.768309	-0.104146	-0.157298
O58	O	1.309399	-0.237760	0.385574
C59	C	1.093549	-0.283793	0.413348
C60	C	1.185286	-0.223330	0.363401
H61	H	0.993187	-0.272158	0.395426
H62	H	1.102010	-0.278149	0.486058
H63	H	1.117555	-0.345878	0.395490
H64	H	1.161340	-0.161219	0.381186
H65	H	1.176809	-0.229043	0.290704
H66	H	1.718456	0.662282	-0.000010
H67	H	2.244395	-0.111991	-0.157290
O68	O	1.702380	0.133532	-0.000035
C69	C	1.926474	0.159493	0.000010
C70	C	1.795743	0.194857	0.000037
H71	H	2.001992	0.209056	0.000086
H72	H	1.941500	0.124484	-0.060378
H73	H	1.932703	0.118745	0.060369
H74	H	1.789422	0.235639	-0.060281
H75	H	1.780773	0.229819	0.060464
O76	O	1.681460	0.294780	-0.000159
C77	C	1.806662	0.400854	-0.074878
C78	C	1.687564	0.346234	-0.074819
H79	H	1.811623	0.442480	-0.135225
H80	H	1.893428	0.363824	-0.074927
H81	H	1.803061	0.436733	-0.014481
H82	H	1.691043	0.310344	-0.135205
H83	H	1.600850	0.383309	-0.074725
H84	H	1.897553	-0.099391	-0.299962
H85	H	1.365074	-0.201276	0.786267
O86	O	1.625516	-0.029443	0.385462
C87	C	1.785066	0.075861	0.375868
C88	C	1.700443	0.020087	0.325972
H89	H	1.845647	0.115932	0.327792
H90	H	1.848273	0.039647	0.418337
H91	H	1.723850	0.113334	0.418424
H92	H	1.761561	-0.017397	0.283368
H93	H	1.637228	0.056348	0.283557
H94	H	2.135603	-0.103325	-0.299964
O95	O	1.364704	-0.201543	0.614532
C96	C	1.205086	-0.306807	0.624134
C97	C	1.289641	-0.250989	0.674026
H98	H	1.144357	-0.346787	0.672213
H99	H	1.266233	-0.344364	0.581627
H100	H	1.142005	-0.270548	0.581616
H101	H	1.352736	-0.287186	0.716591
H102	H	1.228420	-0.213430	0.716478
H103	H	1.737598	0.513800	-0.000005
O104	O	2.101799	-0.132255	0.312386
C105	C	2.076768	-0.139414	0.468388
C106	C	2.010862	-0.134178	0.381852
H107	H	2.003274	-0.140987	0.524574
H108	H	2.143857	-0.085792	0.472376
H109	H	2.131974	-0.195401	0.472274
H110	H	1.955588	-0.078224	0.377908
H111	H	1.943846	-0.187839	0.377901
O112	O	1.843184	-0.128119	0.312253
C113	C	1.681148	-0.197835	0.403566
C114	C	1.759573	-0.194934	0.317075
H115	H	1.613548	-0.251858	0.407501
H116	H	1.625337	-0.142235	0.407504
H117	H	1.746576	-0.201583	0.459756
H118	H	1.694235	-0.191212	0.260836
H119	H	1.815398	-0.250532	0.313212
H120	H	1.625071	-0.029662	0.213725
H121	H	2.221829	-0.126788	0.157273
O122	O	1.287756	0.635539	-0.000072
C123	C	1.063653	0.609591	-0.000045
C124	C	1.194372	0.574214	-0.000007
H125	H	0.988116	0.560026	0.000025
H126	H	1.057303	0.650287	-0.060434
H127	H	1.048767	0.644657	0.060313
H128	H	1.209345	0.539111	-0.060324
H129	H	1.200660	0.533562	0.060422
O130	O	1.308687	0.474301	-0.000177
C131	C	1.194195	0.375260	-0.074892
C132	C	1.313289	0.429872	-0.074834
H133	H	1.197888	0.339314	-0.135236
H134	H	1.107440	0.412299	-0.074947
H135	H	1.189130	0.333698	-0.014492
H136	H	1.318475	0.471444	-0.135223
H137	H	1.399986	0.392785	-0.074734
O138	O	1.322495	-0.229502	0.206634
C139	C	1.264472	-0.364177	0.178871
C140	C	1.348965	-0.308359	0.228809
H141	H	1.285824	-0.427945	0.196795
H142	H	1.283422	-0.351732	0.106160
H143	H	1.161542	-0.354168	0.196734
H144	H	1.451923	-0.318336	0.211019
H145	H	1.329907	-0.320816	0.301508
O146	O	1.233943	0.260421	-0.000132
C147	C	1.095591	0.346173	-0.074897
C148	C	1.226255	0.310722	-0.074863
H149	H	1.089324	0.386835	-0.135319
H150	H	1.080625	0.381263	-0.014564
H151	H	1.020051	0.296612	-0.074856
H152	H	1.301876	0.360233	-0.074933
H153	H	1.241114	0.275611	-0.135190
O154	O	1.254582	0.099062	-0.000126
C155	C	1.069150	0.062581	-0.074899
C156	C	1.188273	0.117169	-0.074860
H157	H	1.015520	0.077190	-0.135324
H158	H	1.006672	0.071533	-0.014569
H159	H	1.097125	-0.001439	-0.074858
H160	H	1.160413	0.181209	-0.074931
H161	H	1.250721	0.108149	-0.135185
H162	H	1.745744	-0.118939	0.157263
H163	H	1.655703	-0.009509	0.786257
H164	H	1.667461	-0.001731	0.621510
