data_functionalizedCrystal
_audit_creation_method	'MofGen! by Chris Wilmer'
_symmetry_space_group_name_H-M	'P1'
_symmetry_Int_Tables_number	1
_symmetry_cell_setting	triclinic
loop_
_symmetry_equiv_pos_as_xyz
  x,y,z
_cell_length_a	21.395362
_cell_length_b	16.120484
_cell_length_c	21.395356
_cell_angle_alpha	92.871514
_cell_angle_beta	89.957023
_cell_angle_gamma	92.942400
loop_
_atom_site_label
_atom_site_type_symbol
_atom_site_fract_x
_atom_site_fract_y
_atom_site_fract_z
Zn1	Zn	0.945241	-0.331581	-0.367212
Zn2	Zn	1.445241	0.168419	0.132788
Zn3	Zn	0.939842	-0.471001	-0.267744
Zn4	Zn	1.439842	0.028999	0.232256
Zn5	Zn	0.840456	-0.331642	-0.262416
Zn6	Zn	1.340456	0.168358	0.237584
Zn7	Zn	0.835123	-0.470995	-0.372448
Zn8	Zn	1.335123	0.029005	0.127552
O9	O	0.890165	-0.401305	-0.317455
O10	O	1.390165	0.098695	0.182545
O11	O	1.032204	-0.350051	-0.354056
O12	O	1.532204	0.149949	0.145944
O13	O	0.926631	-0.452542	-0.179360
O14	O	1.426631	0.047458	0.320640
O15	O	0.858847	-0.214966	-0.271896
O16	O	1.358847	0.285034	0.228104
O17	O	1.028237	-0.452483	-0.280977
O18	O	1.528237	0.047517	0.219023
O19	O	0.935833	-0.214921	-0.348890
O20	O	1.435833	0.285079	0.151110
O21	O	0.853612	-0.350156	-0.175446
O22	O	1.353612	0.149844	0.324554
O23	O	0.752069	-0.350151	-0.276973
O24	O	1.252069	0.149849	0.223027
O25	O	0.849758	-0.452474	-0.459431
O26	O	1.349758	0.047526	0.040569
O27	O	0.748151	-0.452533	-0.357814
O28	O	1.248151	0.047467	0.142186
O29	O	0.930661	-0.350046	-0.455584
O30	O	1.430661	0.149954	0.044416
O31	O	0.921460	-0.587668	-0.286054
O32	O	1.421460	-0.087668	0.213946
O33	O	0.844522	-0.587664	-0.362980
O34	O	1.344522	-0.087664	0.137020
C35	C	0.727376	-0.401349	-0.317384
C36	C	1.227376	0.098651	0.182616
C37	C	0.657733	-0.401388	-0.317369
C38	C	1.157733	0.098612	0.182631
C39	C	0.622994	-0.454769	-0.359406
C40	C	1.122994	0.045231	0.140594
C41	C	0.557559	-0.454748	-0.359433
C42	C	1.057559	0.045252	0.140567
C43	C	0.526866	-0.401355	-0.317413
C44	C	1.026866	0.098645	0.182587
C45	C	0.561614	-0.347964	-0.275373
C46	C	1.061614	0.152036	0.224627
C47	C	0.627048	-0.347980	-0.275352
C48	C	1.127048	0.152020	0.224648
C49	C	0.423398	-0.394651	-0.260752
C50	C	0.923398	0.105349	0.239248
C51	C	0.357965	-0.394641	-0.260773
C52	C	0.857965	0.105359	0.239227
C53	C	0.325048	-0.401301	-0.317480
C54	C	0.825048	0.098699	0.182520
C55	C	0.357570	-0.407989	-0.374168
C56	C	0.857570	0.092011	0.125832
C57	C	0.423004	-0.408005	-0.374146
C58	C	0.923004	0.091995	0.125854
C59	C	0.455915	-0.401332	-0.317432
C60	C	0.955915	0.098668	0.182568
C61	C	0.219356	-0.454663	-0.359549
C62	C	0.719356	0.045337	0.140451
C63	C	0.153921	-0.454637	-0.359577
C64	C	0.653921	0.045363	0.140423
C65	C	0.157977	-0.347857	-0.275512
C66	C	0.657977	0.152143	0.224488
C67	C	0.223411	-0.347878	-0.275490
C68	C	0.723411	0.152122	0.224510
C69	C	0.254097	-0.401286	-0.317507
C70	C	0.754097	0.098714	0.182493
C71	C	0.881844	-0.617916	-0.325677
C72	C	1.381844	-0.117916	0.174323
C73	C	0.878341	-0.710584	-0.329216
C74	C	1.378341	-0.210584	0.170784
C75	C	0.871949	-0.880248	-0.335689
C76	C	1.371949	-0.380248	0.164311
C77	C	0.908494	-0.921520	-0.299232
C78	C	1.408494	-0.421520	0.200768
C79	C	0.904938	-1.015927	-0.302833
C80	C	1.404938	-0.515927	0.197167
C81	C	0.875505	-0.785832	-0.332088
C82	C	1.375505	-0.285832	0.167912
C83	C	1.053590	-0.401261	-0.317527
C84	C	1.553590	0.098739	0.182473
C85	C	1.123232	-0.401242	-0.317557
C86	C	1.623232	0.098758	0.182443
C87	C	0.890217	-0.401253	-0.480876
C88	C	1.390217	0.098747	0.019124
C89	C	0.890239	-0.401231	-0.550517
C90	C	1.390239	0.098769	-0.050517
C91	C	0.898537	-0.183847	-0.309214
C92	C	1.398537	0.316153	0.190786
C93	C	0.902104	-0.091179	-0.305703
C94	C	1.402104	0.408821	0.194297
C95	C	0.852229	-0.347912	-0.581182
C96	C	1.352229	0.152088	-0.081182
C97	C	0.852227	-0.347897	-0.646617
C98	C	1.352227	0.152103	-0.146617
C99	C	0.890247	-0.401191	-0.681384
C100	C	1.390247	0.098809	-0.181384
C101	C	0.928260	-0.454520	-0.650712
C102	C	1.428260	0.045480	-0.150712
C103	C	0.928255	-0.454540	-0.585278
C104	C	1.428255	0.045460	-0.085278
C105	C	0.946450	-0.407725	-0.785338
C106	C	1.446450	0.092275	-0.285338
C107	C	0.946456	-0.407699	-0.850770
C108	C	1.446456	0.092301	-0.350770
C109	C	0.890259	-0.401135	-0.883203
C110	C	1.390259	0.098865	-0.383203
C111	C	0.834056	-0.394579	-0.850194
C112	C	1.334056	0.105421	-0.350194
C113	C	0.834052	-0.394598	-0.784761
C114	C	1.334052	0.105402	-0.284761
C115	C	0.890256	-0.401176	-0.752336
C116	C	1.390256	0.098824	-0.252336
C117	C	0.852244	-0.347797	-0.984819
C118	C	1.352244	0.152203	-0.484819
C119	C	0.852242	-0.347787	-1.050255
C120	C	1.352242	0.152213	-0.550255
C121	C	0.928280	-0.454406	-1.054349
C122	C	1.428280	0.045594	-0.554349
C123	C	0.928277	-0.454420	-0.988914
C124	C	1.428277	0.045580	-0.488914
C125	C	0.890260	-0.401111	-0.954153
C126	C	1.390260	0.098889	-0.454153
C127	C	0.890153	-0.401296	-0.154667
C128	C	1.390153	0.098704	0.345333
C129	C	0.890261	-0.401083	-0.085018
C130	C	1.390261	0.098917	0.414982
H131	H	0.331490	-0.389200	-0.214614
H132	H	0.831490	0.110800	0.285386
H133	H	0.132988	-0.304379	-0.241301
H134	H	0.632988	0.195621	0.258699
Cl135	Cl	0.804454	-0.280844	-0.685174
Cl136	Cl	1.304454	0.219156	-0.185174
H137	H	0.837993	-0.915814	-0.369603
H138	H	1.337993	-0.415814	0.130397
Cl139	Cl	0.804433	-0.280899	-0.537485
Cl140	Cl	1.304433	0.219101	-0.037485
Cl141	Cl	0.960921	-0.866610	-0.246863
Cl142	Cl	1.460921	-0.366610	0.253137
Cl143	Cl	0.464772	-0.386281	-0.189456
Cl144	Cl	0.964772	0.113719	0.310544
H145	H	0.536620	-0.304489	-0.241161
H146	H	1.036620	0.195511	0.258839
H147	H	0.788290	-0.389262	-0.757888
H148	H	1.288290	0.110738	-0.257888
Cl149	Cl	0.763405	-0.386321	-0.890959
Cl150	Cl	1.263405	0.113679	-0.390959
H151	H	0.449481	-0.413448	-0.420304
H152	H	0.949481	0.086552	0.079696
Cl153	Cl	0.804449	-0.280786	-0.941117
Cl154	Cl	1.304449	0.219214	-0.441117
H155	H	0.821285	-0.304371	-1.075221
H156	H	1.321285	0.195629	-0.575221
Cl157	Cl	0.976073	-0.521411	-1.098050
Cl158	Cl	1.476073	-0.021411	-0.598050
H159	H	0.647974	-0.498256	-0.393621
H160	H	1.147974	0.001744	0.106379
Cl161	Cl	0.976069	-0.521447	-0.950362
Cl162	Cl	1.476069	-0.021447	-0.450362
Cl163	Cl	0.316196	-0.416357	-0.445462
Cl164	Cl	0.816196	0.083643	0.054538
H165	H	0.992220	-0.413034	-0.877640
H166	H	1.492220	0.086966	-0.377640
H167	H	0.992217	-0.413063	-0.758937
H168	H	1.492217	0.086937	-0.258937
Cl169	Cl	0.513877	-0.521862	-0.412282
Cl170	Cl	1.013877	-0.021862	0.087718
Cl171	Cl	0.976045	-0.521573	-0.546726
Cl172	Cl	1.476045	-0.021573	-0.046726
Cl173	Cl	0.257936	-0.521797	-0.412374
Cl174	Cl	0.757936	-0.021797	0.087626
Cl175	Cl	0.110247	-0.521746	-0.412431
Cl176	Cl	0.610247	-0.021746	0.087569
Cl177	Cl	0.267087	-0.280769	-0.222639
Cl178	Cl	0.767087	0.219231	0.277361
Cl179	Cl	0.976053	-0.521523	-0.694418
Cl180	Cl	1.476053	-0.021523	-0.194418
Cl181	Cl	0.670723	-0.280867	-0.222501
Cl182	Cl	1.170723	0.219133	0.277499
