data_functionalizedCrystal
_audit_creation_method	'MofGen! by Chris Wilmer'
_symmetry_space_group_name_H-M	'P1'
_symmetry_Int_Tables_number	1
_symmetry_cell_setting	triclinic
loop_
_symmetry_equiv_pos_as_xyz
  x,y,z
_cell_length_a	19.288859
_cell_length_b	19.288865
_cell_length_c	17.766277
_cell_angle_alpha	90.013390
_cell_angle_beta	89.997830
_cell_angle_gamma	96.865014
loop_
_atom_site_label
_atom_site_type_symbol
_atom_site_fract_x
_atom_site_fract_y
_atom_site_fract_z
O1	O	0.921347	-0.086631	-0.062618
O2	O	1.254681	0.246702	0.270716
O3	O	1.588014	0.580036	0.604049
O4	O	0.719086	-0.098324	-0.062617
O5	O	1.052419	0.235009	0.270716
O6	O	1.385753	0.568342	0.604050
O7	O	0.826061	0.008653	-0.062602
O8	O	1.159394	0.341986	0.270731
O9	O	1.492728	0.675319	0.604064
O10	O	0.814372	-0.193608	-0.062632
O11	O	1.147706	0.139725	0.270701
O12	O	1.481039	0.473058	0.604034
O13	O	0.826059	0.008664	0.062586
O14	O	1.159393	0.341997	0.395919
O15	O	1.492726	0.675330	0.729253
O16	O	0.719084	-0.098313	0.062571
O17	O	1.052418	0.235020	0.395905
O18	O	1.385751	0.568353	0.729238
O19	O	0.921345	-0.086620	0.062571
O20	O	1.254679	0.246713	0.395904
O21	O	1.588012	0.580047	0.729238
Cu22	Cu	0.820215	-0.092466	0.074002
Cu23	Cu	1.153548	0.240868	0.407335
Cu24	Cu	1.486881	0.574201	0.740669
Cu25	Cu	0.820217	-0.092479	-0.074048
Cu26	Cu	1.153550	0.240855	0.259285
Cu27	Cu	1.486884	0.574188	0.592619
O28	O	0.814370	-0.193597	0.062556
O29	O	1.147704	0.139736	0.395890
O30	O	1.481037	0.473069	0.729223
C31	C	0.693209	-0.097943	-0.000022
C32	C	1.026542	0.235390	0.333311
C33	C	1.359875	0.568723	0.666644
C34	C	0.616105	-0.096816	-0.000022
C35	C	0.949438	0.236517	0.333312
C36	C	1.282771	0.569851	0.666645
C37	C	0.052064	-0.151959	-0.000031
C38	C	0.385397	0.181374	0.333303
C39	C	0.718731	0.514707	0.666636
C40	C	0.124511	-0.153025	-0.000035
C41	C	0.457844	0.180309	0.333298
C42	C	0.791177	0.513642	0.666632
C43	C	0.169217	-0.090255	-0.000024
C44	C	0.502551	0.243078	0.333309
C45	C	0.835884	0.576411	0.666642
C46	C	0.141472	-0.026416	-0.000029
C47	C	0.474806	0.306917	0.333305
C48	C	0.808139	0.640251	0.666638
C49	C	0.069027	-0.025353	-0.000032
C50	C	0.402360	0.307981	0.333301
C51	C	0.735694	0.641314	0.666634
C52	C	0.290487	-0.043438	0.043845
C53	C	0.623820	0.289895	0.377178
C54	C	0.957154	0.623228	0.710511
C55	C	0.362931	-0.044505	0.043853
C56	C	0.696264	0.288829	0.377186
C57	C	1.029597	0.622162	0.710519
C58	C	0.392663	-0.093533	-0.000017
C59	C	0.725997	0.239800	0.333316
C60	C	1.059330	0.573134	0.666650
C61	C	0.349942	-0.141507	-0.043885
C62	C	0.683275	0.191827	0.289448
C63	C	1.016608	0.525160	0.622782
C64	C	0.277496	-0.140443	-0.043888
C65	C	0.610830	0.192890	0.289445
C66	C	0.944163	0.526223	0.622778
C67	C	0.247773	-0.091401	-0.000021
C68	C	0.581106	0.241932	0.333312
C69	C	0.914440	0.575265	0.666646
C70	C	0.498955	-0.158523	-0.000022
C71	C	0.832288	0.174810	0.333311
C72	C	1.165621	0.508143	0.666644
C73	C	0.571403	-0.159586	-0.000031
C74	C	0.904736	0.173747	0.333302
C75	C	1.238070	0.507081	0.666636
C76	C	0.588364	-0.032976	-0.000017
C77	C	0.921697	0.300358	0.333316
C78	C	1.255030	0.633691	0.666649
C79	C	0.515917	-0.031915	-0.000016
C80	C	0.849250	0.301419	0.333317
C81	C	1.182583	0.634752	0.666651
C82	C	0.471216	-0.094691	-0.000015
C83	C	0.804550	0.238643	0.333318
C84	C	1.137883	0.571976	0.666652
C85	C	0.825684	0.034535	-0.000006
C86	C	1.159017	0.367868	0.333327
C87	C	1.492351	0.701201	0.666661
C88	C	0.824555	0.111638	0.000001
C89	C	1.157888	0.444972	0.333334
C90	C	1.491222	0.778305	0.666667
C91	C	0.947223	-0.087001	-0.000025
C92	C	1.280556	0.246332	0.333308
C93	C	1.613890	0.579666	0.666641
C94	C	1.024327	-0.088128	-0.000031
C95	C	1.357660	0.245205	0.333302
C96	C	1.690993	0.578538	0.666636
N97	N	0.820219	-0.092483	-0.178178
N98	N	1.153552	0.240851	0.155155
N99	N	1.486885	0.574184	0.488488
C100	C	0.814747	-0.219479	-0.000042
C101	C	1.148081	0.113854	0.333292
C102	C	1.481414	0.447188	0.666625
C103	C	0.815876	-0.296583	-0.000053
C104	C	1.149210	0.036751	0.333280
C105	C	1.482543	0.370084	0.666613
C106	C	0.887323	0.156336	0.000004
C107	C	1.220656	0.489669	0.333338
C108	C	1.553990	0.823003	0.666671
C109	C	0.886262	0.228783	-0.000008
C110	C	1.219596	0.562116	0.333326
C111	C	1.552929	0.895450	0.666659
C112	C	0.822430	0.256529	-0.000008
C113	C	1.155763	0.589862	0.333325
C114	C	1.489097	0.923196	0.666659
C115	C	0.759654	0.211822	-0.000016
C116	C	1.092987	0.545155	0.333318
C117	C	1.426320	0.878488	0.666651
C118	C	0.760716	0.139376	-0.000011
C119	C	1.094050	0.472709	0.333322
C120	C	1.427383	0.806043	0.666655
C121	C	0.772250	0.364819	0.043843
C122	C	1.105583	0.698153	0.377176
C123	C	1.438916	1.031486	0.710510
C124	C	0.771190	0.437264	0.043843
C125	C	1.104523	0.770597	0.377177
C126	C	1.437857	1.103930	0.710510
C127	C	0.819150	0.479975	-0.000025
C128	C	1.152484	0.813308	0.333309
C129	C	1.485817	1.146641	0.666642
C130	C	0.868183	0.450234	-0.043883
C131	C	1.201516	0.783567	0.289450
C132	C	1.534849	1.116900	0.622783
C133	C	0.869245	0.377788	-0.043879
C134	C	1.202578	0.711122	0.289454
C135	C	1.535912	1.044455	0.622788
C136	C	0.821271	0.335083	-0.000013
C137	C	1.154604	0.668416	0.333320
C138	C	1.487938	1.001750	0.666653
C139	C	0.880773	0.603228	-0.000035
C140	C	1.214106	0.936562	0.333298
C141	C	1.547439	1.269895	0.666631
C142	C	0.879709	0.675676	-0.000052
C143	C	1.213043	1.009010	0.333281
C144	C	1.546376	1.342343	0.666615
C145	C	0.753099	0.658713	-0.000052
C146	C	1.086432	0.992047	0.333281
C147	C	1.419766	1.325380	0.666614
C148	C	0.754164	0.586267	-0.000043
C149	C	1.087497	0.919600	0.333290
C150	C	1.420831	1.252934	0.666623
C151	C	0.818003	0.558529	-0.000031
C152	C	1.151336	0.891862	0.333302
C153	C	1.484670	1.225196	0.666635
C154	C	0.867680	-0.045192	-0.782461
C155	C	1.201013	0.288142	-0.449127
C156	C	1.534346	0.621475	-0.115794
C157	C	0.867678	-0.045190	-0.703659
C158	C	1.201011	0.288143	-0.370326
C159	C	1.534344	0.621476	-0.036992
C160	C	0.820221	-0.092466	-0.664267
C161	C	1.153554	0.240868	-0.330934
C162	C	1.486888	0.574201	0.002399
C163	C	0.772751	-0.139734	-0.703684
C164	C	1.106084	0.193600	-0.370350
C165	C	1.439418	0.526933	-0.037017
C166	C	0.772749	-0.139729	-0.782484
C167	C	1.106083	0.193604	-0.449151
C168	C	1.439416	0.526938	-0.115817
C169	C	0.810793	-0.155753	-0.539444
C170	C	1.144126	0.177580	-0.206111
C171	C	1.477459	0.510914	0.127223
C172	C	0.810799	-0.155759	-0.460645
C173	C	1.144132	0.177575	-0.127312
C174	C	1.477466	0.510908	0.206022
C175	C	0.820221	-0.092480	-0.421221
C176	C	1.153555	0.240853	-0.087888
C177	C	1.486888	0.574187	0.245446
C178	C	0.829652	-0.029193	-0.460605
C179	C	1.162986	0.304141	-0.127272
C180	C	1.496319	0.637474	0.206062
C181	C	0.829651	-0.029188	-0.539405
C182	C	1.162984	0.304145	-0.206072
C183	C	1.496318	0.637479	0.127261
C184	C	0.820217	-0.092476	-0.578821
C185	C	1.153550	0.240858	-0.245488
C186	C	1.486884	0.574191	0.087845
C187	C	0.867683	-0.045210	-0.296368
C188	C	1.201017	0.288123	0.036965
C189	C	1.534350	0.621457	0.370299
C190	C	0.867677	-0.045208	-0.217565
C191	C	1.201010	0.288126	0.115769
C192	C	1.534343	0.621459	0.449102
C193	C	0.772753	-0.139757	-0.217591
C194	C	1.106087	0.193576	0.115742
C195	C	1.439420	0.526909	0.449076
C196	C	0.772757	-0.139754	-0.296393
C197	C	1.106090	0.193580	0.036941
C198	C	1.439423	0.526913	0.370274
C199	C	0.820225	-0.092481	-0.335776
C200	C	1.153559	0.240853	-0.002443
C201	C	1.486892	0.574186	0.330890
N202	N	0.820218	-0.092456	0.178132
N203	N	1.153552	0.240877	0.511466
N204	N	1.486885	0.574211	0.844799
H205	H	0.046445	0.026628	-0.000033
H206	H	0.379778	0.359961	0.333301
H207	H	0.713111	0.693294	0.666634
Cl208	Cl	0.930878	0.340401	-0.099018
Cl209	Cl	1.264211	0.673734	0.234315
Cl210	Cl	1.597545	1.007068	0.567649
Cl211	Cl	0.442757	-0.237440	-0.000024
Cl212	Cl	0.776090	0.095894	0.333309
Cl213	Cl	1.109424	0.429227	0.666643
Cl214	Cl	0.681801	0.083181	-0.000015
Cl215	Cl	1.015134	0.416515	0.333318
Cl216	Cl	1.348468	0.749848	0.666651
Cl217	Cl	0.416629	0.015799	0.099007
Cl218	Cl	0.749963	0.349132	0.432340
Cl219	Cl	1.083296	0.682466	0.765674
H220	H	0.734110	-0.178225	-0.671607
H221	H	1.067443	0.155108	-0.338274
H222	H	1.400777	0.488442	-0.004940
Cl223	Cl	0.927343	0.014220	-0.168021
Cl224	Cl	1.260676	0.347553	0.165312
Cl225	Cl	1.594010	0.680886	0.498646
Cl226	Cl	0.197674	0.052494	-0.000019
Cl227	Cl	0.531007	0.385827	0.333315
Cl228	Cl	0.864341	0.719161	0.666648
Cl229	Cl	0.713088	-0.199184	-0.168076
Cl230	Cl	1.046422	0.134149	0.165258
Cl231	Cl	1.379755	0.467482	0.498591
H232	H	0.803124	-0.207291	-0.428585
H233	H	1.136458	0.126043	-0.095251
H234	H	1.469791	0.459376	0.238082
H235	H	0.015673	-0.203077	-0.000034
H236	H	0.349006	0.130257	0.333300
H237	H	0.682340	0.463590	0.666633
H238	H	0.803108	-0.207286	-0.571537
H239	H	1.136441	0.126048	-0.238203
H240	H	1.469774	0.459381	0.095130
H241	H	0.734100	-0.178218	-0.814570
H242	H	1.067433	0.155115	-0.481237
H243	H	1.400767	0.488448	-0.147903
Cl244	Cl	0.253122	0.018238	0.098956
Cl245	Cl	0.586455	0.351571	0.432289
Cl246	Cl	0.919789	0.684904	0.765623
Cl247	Cl	0.961025	0.568354	-0.000016
Cl248	Cl	1.294359	0.901688	0.333318
Cl249	Cl	1.627692	1.235021	0.666651
Cl250	Cl	0.159389	-0.233275	-0.000032
Cl251	Cl	0.492723	0.100058	0.333301
Cl252	Cl	0.826056	0.433391	0.666634
Cl253	Cl	0.223793	-0.200746	-0.099039
Cl254	Cl	0.557126	0.132587	0.234295
Cl255	Cl	0.890459	0.465921	0.567628
H256	H	0.374147	-0.181432	-0.079606
H257	H	0.707481	0.151902	0.253727
H258	H	1.040814	0.485235	0.587061
Cl259	Cl	0.967577	0.121469	-0.000002
Cl260	Cl	1.300911	0.454802	0.333331
Cl261	Cl	1.634244	0.788136	0.666665
H262	H	0.593984	-0.211567	-0.000037
H263	H	0.927318	0.121767	0.333296
H264	H	1.260651	0.455100	0.666630
H265	H	0.906330	-0.006698	-0.814525
H266	H	1.239663	0.326636	-0.481191
H267	H	1.572996	0.659969	-0.147858
H268	H	0.624763	0.018132	-0.000014
H269	H	0.958097	0.351466	0.333319
H270	H	1.291430	0.684799	0.666652
H271	H	0.493333	0.020063	-0.000012
H272	H	0.826667	0.353397	0.333321
H273	H	1.160000	0.686730	0.666655
H274	H	0.734112	-0.178244	-0.328480
H275	H	1.067445	0.155090	0.004853
H276	H	1.400779	0.488423	0.338187
H277	H	0.937377	0.265183	-0.000008
H278	H	1.270711	0.598516	0.333325
H279	H	1.604044	0.931849	0.666659
H280	H	0.907236	0.485008	-0.079606
H281	H	1.240570	0.818341	0.253728
H282	H	1.573903	1.151675	0.587061
Cl283	Cl	0.927349	0.014233	-0.654110
Cl284	Cl	1.260683	0.347566	-0.320777
Cl285	Cl	1.594016	0.680900	0.012556
Cl286	Cl	0.672851	0.693587	-0.000057
Cl287	Cl	1.006185	1.026920	0.333276
Cl288	Cl	1.339518	1.360254	0.666610
Cl289	Cl	0.958626	0.731869	-0.000052
Cl290	Cl	1.291959	1.065203	0.333281
Cl291	Cl	1.625292	1.398536	0.666614
Cl292	Cl	0.841498	0.050369	-0.588914
Cl293	Cl	1.174832	0.383702	-0.255581
Cl294	Cl	1.508165	0.717035	0.077752
H295	H	0.703051	0.549873	-0.000042
H296	H	1.036385	0.883206	0.333291
H297	H	1.369718	1.216539	0.666625
H298	H	0.837325	0.022335	-0.428508
H299	H	1.170658	0.355668	-0.095174
H300	H	1.503991	0.689002	0.238159
Cl301	Cl	0.709553	0.474645	0.098982
Cl302	Cl	1.042886	0.807979	0.432315
Cl303	Cl	1.376220	1.141312	0.765649
H304	H	0.733193	0.330049	0.079570
H305	H	1.066526	0.663382	0.412903
H306	H	1.399859	0.996716	0.746236
H307	H	0.707681	0.234417	-0.000018
H308	H	1.041014	0.567750	0.333316
H309	H	1.374348	0.901084	0.666649
Cl310	Cl	0.927353	0.014221	-0.345882
Cl311	Cl	1.260687	0.347554	-0.012549
Cl312	Cl	1.594020	0.680888	0.320784
