data_functionalizedCrystal
_audit_creation_method	'MofGen! by Chris Wilmer'
_symmetry_space_group_name_H-M	'P1'
_symmetry_Int_Tables_number	1
_symmetry_cell_setting	triclinic
loop_
_symmetry_equiv_pos_as_xyz
  x,y,z
_cell_length_a	16.992694
_cell_length_b	16.956985
_cell_length_c	15.455313
_cell_angle_alpha	87.535923
_cell_angle_beta	92.857794
_cell_angle_gamma	83.360706
loop_
_atom_site_label
_atom_site_type_symbol
_atom_site_fract_x
_atom_site_fract_y
_atom_site_fract_z
O1	O	-1.033119	-0.165135	-0.072025
O2	O	-0.533119	0.334865	0.427975
O3	O	-0.804955	-0.163287	-0.072050
O4	O	-0.304955	0.336713	0.427950
O5	O	-0.932744	-0.049006	-0.072029
O6	O	-0.432744	0.450994	0.427971
O7	O	-0.905329	-0.279416	-0.072046
O8	O	-0.405329	0.220584	0.427954
O9	O	-0.925439	-0.055513	0.072232
O10	O	-0.425439	0.444487	0.572232
O11	O	-0.797649	-0.169793	0.072211
O12	O	-0.297649	0.330207	0.572211
O13	O	-1.025813	-0.171642	0.072236
O14	O	-0.525813	0.328358	0.572236
Cu15	Cu	-0.911064	-0.171312	0.085396
Cu16	Cu	-0.411064	0.328688	0.585396
Cu17	Cu	-0.919704	-0.163617	-0.085210
Cu18	Cu	-0.419704	0.336383	0.414790
O19	O	-0.898023	-0.285922	0.072215
O20	O	-0.398023	0.214078	0.572215
C21	C	-0.772243	-0.164163	0.000077
C22	C	-0.272243	0.335837	0.500077
C23	C	-0.685659	-0.157072	0.000068
C24	C	-0.185659	0.342928	0.500068
C25	C	-0.930495	-0.022641	0.000101
C26	C	-0.430495	0.477359	0.500101
C27	C	-0.934669	0.065614	0.000101
C28	C	-0.434669	0.565614	0.500101
N29	N	-0.904993	-0.176723	0.205390
N30	N	-0.404993	0.323277	0.705390
C31	C	-1.058524	-0.170765	0.000107
C32	C	-0.558524	0.329235	0.500107
C33	C	-1.145109	-0.177856	0.000111
C34	C	-0.645109	0.322144	0.500111
C35	C	-0.630984	-0.225487	0.000063
C36	C	-0.130984	0.274513	0.500063
C37	C	-0.549629	-0.218821	0.000076
C38	C	-0.049629	0.281179	0.500076
C39	C	-0.522951	-0.143738	0.000086
C40	C	-0.022951	0.356262	0.500086
C41	C	-0.577633	-0.075318	0.000093
C42	C	-0.077633	0.424682	0.500093
C43	C	-0.658986	-0.081986	0.000087
C44	C	-0.158986	0.418014	0.500087
C45	C	-0.281143	-0.116104	0.000111
C46	C	0.218857	0.383896	0.500111
C47	C	-0.199784	-0.109441	0.000115
C48	C	0.300216	0.390559	0.500115
C49	C	-0.171786	-0.252944	0.000099
C50	C	0.328214	0.247056	0.500099
C51	C	-0.253142	-0.259605	0.000088
C52	C	0.246858	0.240395	0.500088
C53	C	-0.307816	-0.191185	0.000099
C54	C	0.192184	0.308815	0.500099
N55	N	-0.439794	-0.136922	0.000096
N56	N	0.060206	0.363078	0.500096
N57	N	-0.390972	-0.198002	0.000096
N58	N	0.109028	0.301998	0.500096
C59	C	-0.864885	0.102146	0.000090
C60	C	-0.364885	0.602146	0.500090
C61	C	-0.868811	0.185071	0.000093
C62	C	-0.368811	0.685071	0.500093
C63	C	-0.942523	0.231463	0.000102
C64	C	-0.442523	0.731463	0.500102
C65	C	-1.012313	0.194925	0.000116
C66	C	-0.512313	0.694925	0.500116
C67	C	-1.008386	0.112001	0.000119
C68	C	-0.508386	0.612001	0.500119
C69	C	-0.961963	0.479997	0.000100
C70	C	-0.461963	0.979997	0.500100
C71	C	-0.965885	0.562926	0.000094
C72	C	-0.465885	1.062926	0.500094
C73	C	-0.822382	0.553066	0.000073
C74	C	-0.322382	1.053066	0.500073
C75	C	-0.818462	0.470141	0.000071
C76	C	-0.318462	0.970141	0.500071
C77	C	-0.888251	0.433611	0.000089
C78	C	-0.388251	0.933611	0.500089
N79	N	-0.946539	0.316225	0.000102
N80	N	-0.446539	0.816225	0.500102
N81	N	-0.884235	0.348849	0.000095
N82	N	-0.384235	0.848849	0.500095
C83	C	-0.900273	0.687712	0.000084
C84	C	-0.400273	1.187712	0.500084
C85	C	-0.896100	0.599458	0.000083
C86	C	-0.396100	1.099458	0.500083
N87	N	-0.925781	-0.158199	-0.205204
N88	N	-0.425781	0.341801	0.294796
C89	C	-0.959299	-0.128193	0.250793
C90	C	-0.459299	0.371807	0.750793
C91	C	-0.954714	-0.132294	0.341600
C92	C	-0.454714	0.367706	0.841600
C93	C	-0.895826	-0.184929	0.387003
C94	C	-0.395826	0.315071	0.887003
C95	C	-0.841515	-0.233461	0.341593
C96	C	-0.341515	0.266539	0.841593
C97	C	-0.846097	-0.229356	0.250788
C98	C	-0.346097	0.270644	0.750788
C99	C	-0.876052	-0.202626	0.658581
C100	C	-0.376052	0.297374	1.158581
C101	C	-0.871475	-0.206730	0.749393
C102	C	-0.371475	0.293270	1.249393
C103	C	-0.984674	-0.105560	0.749394
C104	C	-0.484674	0.394440	1.249394
C105	C	-0.989254	-0.101463	0.658586
C106	C	-0.489254	0.398537	1.158586
C107	C	-0.934940	-0.149993	0.613185
C108	C	-0.434940	0.350007	1.113185
N109	N	-0.891140	-0.189123	0.479822
N110	N	-0.391140	0.310877	0.979822
N111	N	-0.939623	-0.145794	0.520367
N112	N	-0.439623	0.354206	1.020367
H113	H	-0.652698	-0.286627	0.000054
H114	H	-0.152698	0.213373	0.500054
N115	N	-0.787529	-0.281701	0.201810
N116	N	-0.287529	0.218299	0.701810
H117	H	-0.756828	-0.247425	0.164148
H118	H	-0.256828	0.252575	0.664148
H119	H	-0.749579	-0.315663	0.244402
H120	H	-0.249579	0.184337	0.744402
H121	H	-1.028894	-0.066049	0.786368
H122	H	-0.528894	0.433951	1.286368
H123	H	-0.505115	-0.274531	0.000071
H124	H	-0.005115	0.225469	0.500071
H125	H	-0.804860	0.064379	0.000079
H126	H	-0.304860	0.564379	0.500079
H127	H	-0.811985	0.214811	0.000078
H128	H	-0.311985	0.714811	0.500078
N129	N	-0.738958	0.420105	0.000061
N130	N	-0.238958	0.920105	0.500061
H131	H	-0.695344	0.455832	0.000055
H132	H	-0.195344	0.955832	0.500055
H133	H	-0.731495	0.383077	0.053541
H134	H	-0.231495	0.883077	0.553541
N135	N	-0.777994	-0.290227	0.390558
N136	N	-0.277994	0.209773	0.890558
H137	H	-0.783332	-0.285466	0.454973
H138	H	-0.283332	0.214534	0.954973
H139	H	-0.784158	-0.346426	0.374672
H140	H	-0.284158	0.153574	0.874672
N141	N	-1.037232	0.440602	0.000120
N142	N	-0.537232	0.940602	0.500120
H143	H	-1.084522	0.482576	0.000121
H144	H	-0.584522	0.982576	0.500121
H145	H	-1.041440	0.408816	-0.053356
H146	H	-0.541440	0.908816	0.446644
N147	N	-0.281916	-0.340586	0.000060
N148	N	0.218084	0.159414	0.500060
H149	H	-0.234934	-0.382916	0.000056
H150	H	0.265066	0.117084	0.500056
H151	H	-0.312364	-0.348900	0.053531
H152	H	0.187636	0.151100	0.553531
H153	H	-0.823519	-0.249595	0.786355
H154	H	-0.323519	0.250405	1.286355
N155	N	-1.013312	-0.079979	0.390572
N156	N	-0.513312	0.420021	0.890572
H157	H	-1.051324	-0.046026	0.348031
H158	H	-0.551324	0.453974	0.848031
H159	H	-1.043940	-0.114337	0.428220
H160	H	-0.543940	0.385663	0.928220
H161	H	-0.127262	-0.308647	0.000092
H162	H	0.372738	0.191353	0.500092
N163	N	-0.747110	0.592461	0.000070
N164	N	-0.247110	1.092461	0.500070
H165	H	-0.717764	0.578283	-0.053409
H166	H	-0.217764	1.078283	0.446591
H167	H	-0.760840	0.652021	0.000105
H168	H	-0.260840	1.152021	0.500105
H169	H	-0.555905	-0.014185	0.000114
H170	H	-0.055905	0.485815	0.500114
H171	H	-1.025914	0.600697	0.000095
H172	H	-0.525914	1.100697	0.500095
N173	N	-0.717955	-0.008192	0.000089
N174	N	-0.217955	0.491808	0.500089
H175	H	-0.755036	-0.005345	-0.053389
H176	H	-0.255036	0.494655	0.446611
H177	H	-0.749573	-0.010218	0.053602
H178	H	-0.249573	0.489782	0.553602
H179	H	-0.178067	-0.048297	0.000123
H180	H	0.321933	0.451703	0.500123
H181	H	-1.072331	0.232704	0.000128
H182	H	-0.572331	0.732704	0.500128
N183	N	-1.083652	0.072595	0.000137
N184	N	-0.583652	0.572595	0.500137
H185	H	-1.130945	0.114565	0.000141
H186	H	-0.630945	0.614565	0.500141
H187	H	-1.087859	0.040809	-0.053339
H188	H	-0.587859	0.540809	0.446661
H189	H	-0.325650	-0.060391	0.000121
H190	H	0.174350	0.439609	0.500121
N191	N	-1.022818	-0.071427	0.201826
N192	N	-0.522818	0.428573	0.701826
H193	H	-1.056524	-0.041305	0.244372
H194	H	-0.556524	0.458695	0.744372
H195	H	-0.997106	-0.032693	0.164161
H196	H	-0.497106	0.467307	0.664161
H197	H	-1.037205	-0.058604	0.621621
H198	H	-0.537205	0.441396	1.121621
N199	N	-0.817469	-0.254962	0.609619
N200	N	-0.317469	0.245038	1.109619
H201	H	-0.779471	-0.288928	0.652163
H202	H	-0.279471	0.211072	1.152163
H203	H	-0.846977	-0.290291	0.571926
H204	H	-0.346977	0.209709	1.071926
