data_functionalizedCrystal
_audit_creation_method	'MofGen! by Chris Wilmer'
_symmetry_space_group_name_H-M	'P1'
_symmetry_Int_Tables_number	1
_symmetry_cell_setting	triclinic
loop_
_symmetry_equiv_pos_as_xyz
  x,y,z
_cell_length_a	19.851628
_cell_length_b	14.446369
_cell_length_c	19.851628
_cell_angle_alpha	59.993292
_cell_angle_beta	90.001453
_cell_angle_gamma	59.999397
loop_
_atom_site_label
_atom_site_type_symbol
_atom_site_fract_x
_atom_site_fract_y
_atom_site_fract_z
Zr1	Zr	0.648983	1.013148	-0.088360
O2	O	0.541417	1.206298	-0.195945
O3	O	0.681957	0.820019	-0.055375
O4	O	0.681957	1.013156	-0.195921
O5	O	0.541417	1.013147	0.055462
O6	O	0.792819	1.013139	-0.195908
O7	O	0.541416	1.013161	-0.055398
O8	O	0.792819	0.667652	0.055504
O9	O	0.541418	1.358634	-0.195950
O10	O	0.778756	0.899435	-0.041302
O11	O	0.696022	0.899438	0.041421
O12	O	0.696022	1.126832	-0.124054
O13	O	0.613288	1.126834	-0.041330
Zr14	Zr	0.825796	1.013097	0.088471
Zr15	Zr	0.825795	1.013120	-0.088338
Zr16	Zr	0.648984	1.013126	0.088450
Zr17	Zr	0.648985	1.256106	-0.088368
Zr18	Zr	0.825795	0.770139	0.088479
O19	O	0.792822	1.206226	0.055486
O20	O	0.792820	1.206258	-0.195914
O21	O	0.541419	1.206266	0.055456
O22	O	0.933363	0.819947	0.196056
O23	O	0.933361	0.819979	-0.055344
O24	O	0.681959	0.819988	0.196026
O25	O	0.933362	1.013098	-0.055351
O26	O	0.792822	1.013089	0.196033
O27	O	0.681960	1.013107	0.196019
O28	O	0.933363	1.013084	0.055510
O29	O	0.681959	1.358611	-0.195933
O30	O	0.792820	0.667634	0.196044
O31	O	0.933362	0.667611	0.196061
O32	O	0.933360	0.667629	0.055521
O33	O	0.541419	1.358616	-0.055410
O34	O	0.681960	1.358594	-0.055393
O35	O	0.778757	0.899414	0.124165
O36	O	0.861492	0.899411	0.041442
O37	O	0.778757	1.126808	-0.041310
O38	O	0.696023	1.126811	0.041414
C39	C	0.737388	0.709219	0.000066
C40	C	0.737387	0.606077	0.000069
C41	C	0.685456	0.459069	0.052482
C42	C	0.685174	0.566689	0.052270
C43	C	0.699321	0.655091	-0.089840
C44	C	0.698930	0.547858	-0.089568
C45	C	0.827420	0.372600	0.036793
C46	C	0.827288	0.478751	0.038627
C47	C	0.516225	1.013158	0.000029
C48	C	0.441164	1.013171	0.000020
C49	C	0.214709	1.137128	-0.045072
C50	C	0.192347	1.075158	-0.077760
C51	C	0.303757	1.013137	0.000043
C52	C	0.192379	1.075115	0.032716
C53	C	0.171025	1.013113	0.000066
C54	C	0.282384	0.951166	-0.032690
C55	C	0.282413	0.951141	0.077829
C56	C	0.260104	0.889080	0.045161
C57	C	0.380219	1.013154	0.000029
C58	C	0.094568	1.013086	0.000079
C59	C	0.958554	1.013087	0.000083
C60	C	1.033615	1.013075	0.000092
C61	C	0.737388	1.013151	-0.221106
C62	C	0.737387	1.013160	-0.296166
C63	C	0.737392	1.317026	0.000046
C64	C	0.737392	1.420168	0.000042
C65	C	0.692277	1.137118	-0.567526
C66	C	0.659573	1.075171	-0.500068
C67	C	0.737390	1.013109	-0.566312
C68	C	0.770053	1.075120	-0.500056
C69	C	0.737387	1.013141	-0.433583
C70	C	0.704641	0.951161	-0.499841
C71	C	0.815164	0.951127	-0.499840
C72	C	0.782480	0.889090	-0.432368
C73	C	0.737389	1.013094	-0.642775
C74	C	0.737386	1.013146	-0.357118
C75	C	0.737391	1.013095	0.221218
C76	C	0.737392	1.013085	0.296278
C77	C	0.958552	0.709184	0.000093
C78	C	1.033613	0.606030	0.000105
C79	C	0.737390	0.709191	0.221228
C80	C	0.737389	0.606040	0.296291
C81	C	0.958554	0.709156	0.221255
C82	C	1.033615	0.605992	0.296327
C83	C	0.516225	1.317090	-0.221143
C84	C	0.441164	1.420253	-0.296216
C85	C	0.516227	1.317062	0.000019
C86	C	0.441166	1.420216	0.000006
C87	C	0.737390	1.317054	-0.221116
C88	C	0.737390	1.420206	-0.296180
C89	C	1.025675	0.557600	-0.043088
C90	C	1.096195	0.460689	-0.043092
C91	C	1.174653	0.412203	0.000101
C92	C	1.182589	0.460642	0.043296
C93	C	1.112070	0.557558	0.043295
C94	C	0.780577	0.557586	0.374741
C95	C	0.780573	0.460678	0.445278
C96	C	0.737387	0.412219	0.437364
C97	C	0.694195	0.460682	0.358906
C98	C	0.694194	0.557595	0.288371
C99	C	1.112059	0.557544	0.288401
C100	C	1.182593	0.460624	0.358934
C101	C	1.174683	0.412148	0.437391
C102	C	1.096231	0.460606	0.445315
C103	C	1.025698	0.557530	0.374784
C104	C	0.362721	1.468713	-0.288290
C105	C	0.292186	1.565663	-0.358822
C106	C	0.300096	1.614145	-0.437279
C107	C	0.378548	1.565680	-0.445204
C108	C	0.449081	1.468739	-0.374672
C109	C	0.449104	1.468656	0.043192
C110	C	0.378584	1.565593	0.043177
C111	C	0.300126	1.614083	-0.000019
C112	C	0.292190	1.565639	-0.043210
C113	C	0.362710	1.468709	-0.043200
C114	C	0.780584	1.468634	-0.288239
C115	C	0.780600	1.565543	-0.358763
C116	C	0.737417	1.614028	-0.437226
C117	C	0.694221	1.565590	-0.445165
C118	C	0.694210	1.468676	-0.374643
H119	H	0.710856	0.370189	0.118853
H120	H	0.820621	0.784171	-0.374599
H121	H	0.659034	0.421211	0.352474
C122	C	1.087451	0.407409	-0.090598
H123	H	1.030623	0.450154	-0.116307
H124	H	1.113155	0.423299	-0.131474
H125	H	1.113169	0.315899	-0.053310
H126	H	0.676932	0.898809	-0.500428
C127	C	0.222508	1.720772	-0.514859
H128	H	0.238448	1.742717	-0.562725
H129	H	0.190603	1.689007	-0.514857
H130	H	0.190610	1.796387	-0.514860
C131	C	0.596295	0.507284	0.018408
H132	H	0.565346	0.530554	0.050454
H133	H	0.571843	0.581523	-0.037320
H134	H	0.596694	0.439476	0.021092
C135	C	0.139913	1.145954	-0.166610
H136	H	0.123213	1.234049	-0.198603
H137	H	0.171660	1.102771	-0.190124
H138	H	0.092503	1.144741	-0.165915
H139	H	0.815749	1.429173	-0.224356
C140	C	0.879945	0.337494	-0.014551
H141	H	0.847213	0.351721	-0.058167
H142	H	0.899496	0.391019	-0.036900
H143	H	0.925522	0.248064	0.019740
C144	C	0.205900	1.618945	-0.350091
H145	H	0.211297	1.576165	-0.293262
H146	H	0.176587	1.710444	-0.375800
H147	H	0.176590	1.603067	-0.375813
C148	C	1.120807	0.610824	0.090810
H149	H	1.067576	0.675497	0.084623
H150	H	1.150119	0.541231	0.147630
H151	H	1.150111	0.648632	0.069474
C152	C	1.268895	0.407288	0.090812
H153	H	1.309751	0.342622	0.084630
H154	H	1.275099	0.476843	0.069496
H155	H	1.275085	0.369451	0.147637
C156	C	0.828106	1.618823	-0.350015
H157	H	0.853808	1.576080	-0.293183
H158	H	0.868985	1.602932	-0.375713
H159	H	0.790824	1.710333	-0.375740
C160	C	0.737401	0.305608	0.514957
H161	H	0.769316	0.283689	0.562810
H162	H	0.682382	0.337369	0.514965
H163	H	0.760533	0.229978	0.514975
C164	C	0.387239	1.619008	-0.531509
H165	H	0.333993	1.683670	-0.572373
H166	H	0.416543	1.656815	-0.537709
H167	H	0.416530	1.549430	-0.537694
C168	C	0.334647	0.880441	-0.070115
H169	H	0.382327	0.880922	-0.069921
H170	H	0.350891	0.792599	-0.038308
H171	H	0.302965	0.924196	-0.125218
C172	C	0.646692	0.610875	0.202080
H173	H	0.620981	0.568119	0.207477
H174	H	0.605820	0.702380	0.172753
H175	H	0.683974	0.594967	0.172781
H176	H	0.618767	0.655504	0.026792
H177	H	1.232122	0.333226	0.494815
C178	C	0.828080	0.610883	0.383459
H179	H	0.821905	0.675537	0.330219
H180	H	0.806748	0.648695	0.412754
H181	H	0.884901	0.541292	0.412776
H182	H	0.737432	1.692942	-0.494644
C183	C	1.120776	0.610854	0.202108
H184	H	1.177601	0.568118	0.207501
H185	H	1.095065	0.594976	0.172794
H186	H	1.095057	0.702363	0.172796
H187	H	0.880924	0.898751	-0.500522
C188	C	0.353972	1.415417	-0.090695
H189	H	0.407203	1.350747	-0.084511
H190	H	0.324661	1.377628	-0.069364
H191	H	0.324667	1.485008	-0.147522
H192	H	1.246466	0.421180	0.352467
H193	H	0.797677	1.127547	-0.499412
H194	H	0.278710	0.784154	0.083314
C195	C	1.087541	0.407261	0.531620
H196	H	1.140786	0.342587	0.572485
H197	H	1.058238	0.476818	0.537819
H198	H	1.058247	0.369436	0.537807
C199	C	0.939381	0.610924	-0.090609
H200	H	0.944765	0.568201	-0.116339
H201	H	0.910068	0.595039	-0.053342
H202	H	0.910077	0.702435	-0.131485
C203	C	0.939415	0.610798	0.383513
H204	H	0.944814	0.568029	0.440342
H205	H	0.910092	0.702302	0.357793
H206	H	0.910114	0.594897	0.357802
C207	C	0.609437	0.602843	-0.129301
H208	H	0.573660	0.690375	-0.145452
H209	H	0.605362	0.601392	-0.176397
H210	H	0.594070	0.550695	-0.090553
H211	H	0.734315	0.525889	-0.130763
H212	H	0.242711	1.693009	-0.000021
C213	C	0.828095	0.407375	0.531571
H214	H	0.853825	0.450104	0.526176
H215	H	0.790828	0.423267	0.560880
H216	H	0.868966	0.315863	0.560887
C217	C	0.189800	1.278745	-0.096684
H218	H	0.158454	1.322602	-0.151943
H219	H	0.157583	1.323225	-0.074026
H220	H	0.238006	1.277769	-0.095935
C221	C	1.252218	0.305587	0.000104
H222	H	1.236246	0.283684	-0.031801
H223	H	1.284131	0.337333	-0.023015
H224	H	1.284120	0.229949	0.055135
C225	C	0.354003	1.415415	-0.201996
H226	H	0.297178	1.458185	-0.207389
H227	H	0.379712	1.323914	-0.172675
H228	H	0.379725	1.431301	-0.172693
C229	C	0.535364	1.415427	-0.383401
H230	H	0.529966	1.458181	-0.440230
H231	H	0.564690	1.431285	-0.357684
H232	H	0.564663	1.323923	-0.357688
C233	C	0.387328	1.618852	0.090698
H234	H	0.444156	1.576068	0.116435
H235	H	0.361624	1.710353	0.053425
H236	H	0.361610	1.602962	0.131566
C237	C	0.205884	1.618977	-0.090715
H238	H	0.165029	1.683629	-0.084522
H239	H	0.199681	1.656798	-0.147537
H240	H	0.199693	1.549400	-0.069374
H241	H	0.512982	1.429183	0.078373
C242	C	0.646715	1.618943	-0.531477
H243	H	0.652905	1.683608	-0.572334
H244	H	0.668029	1.549388	-0.537677
H245	H	0.589892	1.656782	-0.537675
C246	C	0.334849	0.880414	0.166658
H247	H	0.303425	0.924602	0.189792
H248	H	0.350711	0.792783	0.198950
H249	H	0.382756	0.880256	0.166030
H250	H	0.735331	0.683876	-0.130602
H251	H	0.659033	1.429256	-0.381120
H252	H	0.710708	0.529967	0.118476
H253	H	0.633706	0.747413	-0.119461
H254	H	0.859225	0.278840	0.101980
C255	C	0.139968	1.145916	0.070041
H256	H	0.135099	1.086951	0.117516
H257	H	0.165816	1.176253	0.085183
H258	H	0.086645	1.218225	0.030445
C259	C	0.865703	0.425212	0.128113
H260	H	0.827124	0.480224	0.141924
H261	H	0.879637	0.339109	0.164401
H262	H	0.914040	0.423300	0.133219
H263	H	0.593799	1.127593	-0.499416
C264	C	0.883990	0.507797	-0.007559
H265	H	0.937862	0.429187	0.017059
H266	H	0.862788	0.542382	-0.063722
H267	H	0.886313	0.569740	-0.004486
C268	C	0.640682	1.278725	-0.645701
H269	H	0.585423	1.322591	-0.646286
H270	H	0.663342	1.323209	-0.645860
H271	H	0.641440	1.277729	-0.693189
