data_functionalizedCrystal
_audit_creation_method	'MofGen! by Chris Wilmer'
_symmetry_space_group_name_H-M	'P1'
_symmetry_Int_Tables_number	1
_symmetry_cell_setting	triclinic
loop_
_symmetry_equiv_pos_as_xyz
  x,y,z
_cell_length_a	16.625546
_cell_length_b	12.759386
_cell_length_c	16.625548
_cell_angle_alpha	89.965257
_cell_angle_beta	90.027358
_cell_angle_gamma	89.932977
loop_
_atom_site_label
_atom_site_type_symbol
_atom_site_fract_x
_atom_site_fract_y
_atom_site_fract_z
Zn1	Zn	-0.320604	-0.593770	1.232869
Zn2	Zn	0.012730	-0.260437	1.566202
Zn3	Zn	0.346063	0.072896	1.899536
Zn4	Zn	-0.455533	-0.418076	1.232716
Zn5	Zn	-0.122200	-0.084743	1.566050
Zn6	Zn	0.211134	0.248590	1.899383
Zn7	Zn	-0.320730	-0.418129	1.097975
Zn8	Zn	0.012604	-0.084796	1.431308
Zn9	Zn	0.345937	0.248538	1.764642
Zn10	Zn	-0.455410	-0.593737	1.098001
Zn11	Zn	-0.122076	-0.260404	1.431335
Zn12	Zn	0.211257	0.072929	1.764668
O13	O	-0.388069	-0.505928	1.165390
O14	O	-0.054736	-0.172595	1.498724
O15	O	0.278598	0.160738	1.832057
O16	O	-0.338501	-0.570456	1.345681
O17	O	-0.005168	-0.237123	1.679014
O18	O	0.328165	0.096211	2.012348
O19	O	-0.437755	-0.271062	1.214768
O20	O	-0.104422	0.062271	1.548101
O21	O	0.228911	0.395605	1.881435
O22	O	-0.207880	-0.441464	1.115922
O23	O	0.125453	-0.108131	1.449255
O24	O	0.458786	0.225202	1.782589
O25	O	-0.437633	-0.441374	1.345569
O26	O	-0.104300	-0.108041	1.678902
O27	O	0.229033	0.225293	2.012236
O28	O	-0.207788	-0.570507	1.215028
O29	O	0.125545	-0.237174	1.548361
O30	O	0.458879	0.096159	1.881695
O31	O	-0.338716	-0.271101	1.115774
O32	O	-0.005383	0.062233	1.449107
O33	O	0.327951	0.395566	1.782441
O34	O	-0.338596	-0.441432	0.985146
O35	O	-0.005263	-0.108099	1.318479
O36	O	0.328071	0.225235	1.651813
O37	O	-0.437423	-0.740763	1.115967
O38	O	-0.104090	-0.407430	1.449300
O39	O	0.229244	-0.074096	1.782633
O40	O	-0.437545	-0.570451	0.985165
O41	O	-0.104212	-0.237117	1.318499
O42	O	0.229122	0.096216	1.651832
O43	O	-0.338382	-0.740787	1.215053
O44	O	-0.005048	-0.407454	1.548387
O45	O	0.328285	-0.074121	1.881720
O46	O	-0.568349	-0.441342	1.214793
O47	O	-0.235016	-0.108009	1.548127
O48	O	0.098318	0.225325	1.881460
O49	O	-0.568258	-0.570399	1.115819
O50	O	-0.234925	-0.237066	1.449152
O51	O	0.098408	0.096267	1.782485
C52	C	-0.388071	-0.505944	0.955900
C53	C	-0.054738	-0.172611	1.289233
C54	C	0.278595	0.160722	1.622566
C55	C	-0.388092	-0.505976	0.866278
C56	C	-0.054758	-0.172643	1.199612
C57	C	0.278575	0.160691	1.532945
C58	C	-0.597560	-0.505884	1.165314
C59	C	-0.264227	-0.172551	1.498647
C60	C	0.069107	0.160782	1.831981
C61	C	-0.687181	-0.505901	1.165355
C62	C	-0.353848	-0.172567	1.498689
C63	C	-0.020514	0.160766	1.832022
C64	C	-0.388205	-0.232961	1.165298
C65	C	-0.054871	0.100373	1.498631
C66	C	0.278462	0.433706	1.831965
C67	C	-0.388060	-0.116184	1.165395
C68	C	-0.054727	0.217149	1.498728
C69	C	0.278606	0.550482	1.832061
C70	C	-1.015356	-0.506010	1.165496
C71	C	-0.682023	-0.172677	1.498829
C72	C	-0.348690	0.160657	1.832163
C73	C	-0.924048	-0.505982	1.165454
C74	C	-0.590715	-0.172649	1.498788
C75	C	-0.257381	0.160684	1.832121
C76	C	-0.851272	-0.505955	1.165425
C77	C	-0.517938	-0.172621	1.498758
C78	C	-0.184605	0.160712	1.832092
C79	C	-0.759957	-0.505928	1.165384
C80	C	-0.426624	-0.172595	1.498718
C81	C	-0.093291	0.160738	1.832051
C82	C	-0.177760	-0.505995	1.165489
C83	C	0.155573	-0.172662	1.498822
C84	C	0.488907	0.160671	1.832156
C85	C	-0.088139	-0.506024	1.165531
C86	C	0.245194	-0.172691	1.498864
C87	C	0.578528	0.160643	1.832198
C88	C	-0.387874	-0.779962	1.165530
C89	C	-0.054541	-0.446629	1.498863
C90	C	0.278792	-0.113295	1.832197
C91	C	-0.387791	-0.896739	1.165589
C92	C	-0.054458	-0.563406	1.498923
C93	C	0.278875	-0.230072	1.832256
C94	C	-0.336808	-0.061392	1.113527
C95	C	-0.003474	0.271941	1.446861
C96	C	0.329859	0.605275	1.780194
C97	C	-0.336671	0.048332	1.113626
C98	C	-0.003337	0.381665	1.446960
C99	C	0.329996	0.714998	1.780293
C100	C	-0.439047	0.048461	1.217462
C101	C	-0.105713	0.381795	1.550796
C102	C	0.227620	0.715128	1.884129
C103	C	-0.439179	-0.061261	1.217367
C104	C	-0.105845	0.272073	1.550700
C105	C	0.227488	0.605406	1.884033
C106	C	-0.277704	-0.061466	1.053576
C107	C	0.055629	0.271867	1.386909
C108	C	0.388963	0.605201	1.720243
C109	C	-0.277567	0.048258	1.053675
C110	C	0.055766	0.381591	1.387008
C111	C	0.389099	0.714924	1.720342
C112	C	-0.388067	-0.505913	1.375699
C113	C	-0.054734	-0.172580	1.709033
C114	C	0.278600	0.160754	2.042366
C115	C	-0.388066	-0.505906	1.465320
C116	C	-0.054733	-0.172573	1.798654
C117	C	0.278600	0.160760	2.131987
C118	C	-0.388074	-0.505911	1.538103
C119	C	-0.054741	-0.172577	1.871436
C120	C	0.278593	0.160756	2.204769
C121	C	-0.388082	-0.505926	1.629411
C122	C	-0.054748	-0.172592	1.962745
C123	C	0.278585	0.160741	2.296078
C124	C	-0.388084	-0.505944	1.702188
C125	C	-0.054750	-0.172610	2.035521
C126	C	0.278583	0.160723	2.368854
C127	C	-0.388090	-0.505958	1.793502
C128	C	-0.054757	-0.172625	2.126835
C129	C	0.278577	0.160709	2.460169
H130	H	-0.480906	-0.105868	1.259609
H131	H	-0.147573	0.227465	1.592943
H132	H	0.185760	0.560798	1.926276
H133	H	-0.480665	0.093193	1.259777
H134	H	-0.147331	0.426527	1.593110
H135	H	0.186002	0.759860	1.926443
C136	C	-0.141963	-0.016878	1.088975
C137	C	0.191370	0.316455	1.422308
C138	C	0.524704	0.649789	1.755642
C139	C	-0.193293	-0.102024	1.075548
C140	C	0.140041	0.231309	1.408881
C141	C	0.473374	0.564642	1.742215
H142	H	-0.089855	-0.041920	1.102545
H143	H	0.243479	0.291413	1.435878
H144	H	0.576812	0.624747	1.769211
H145	H	-0.138863	0.024571	1.041606
H146	H	0.194471	0.357904	1.374940
H147	H	0.527804	0.691237	1.708273
H148	H	-0.162356	0.024450	1.131892
H149	H	0.170977	0.357784	1.465225
H150	H	0.504310	0.691117	1.798558
H151	H	-0.172902	-0.143349	1.032627
H152	H	0.160431	0.189985	1.365960
H153	H	0.493764	0.523318	1.699294
H154	H	-0.196390	-0.143490	1.122922
H155	H	0.136943	0.189843	1.456256
H156	H	0.470276	0.523176	1.789589
C157	C	-0.328646	-0.025207	0.921283
C158	C	0.004688	0.308126	1.254616
C159	C	0.338021	0.641459	1.587949
C160	C	-0.308533	-0.107129	0.973666
C161	C	0.024801	0.226205	1.306999
C162	C	0.358134	0.559538	1.640333
H163	H	-0.347674	-0.053401	0.871949
H164	H	-0.014341	0.279933	1.205282
H165	H	0.318993	0.613266	1.538616
H166	H	-0.369480	0.016777	0.944935
H167	H	-0.036147	0.350111	1.278268
H168	H	0.297187	0.683444	1.611601
H169	H	-0.282417	0.016550	0.911429
H170	H	0.050917	0.349883	1.244762
H171	H	0.384250	0.683216	1.578095
H172	H	-0.354763	-0.148881	0.983525
H173	H	-0.021430	0.184452	1.316858
H174	H	0.311903	0.517785	1.650191
H175	H	-0.267695	-0.149131	0.950009
H176	H	0.065639	0.184203	1.283342
H177	H	0.398972	0.517536	1.616676
H178	H	-0.218041	0.082025	1.075667
H179	H	0.115292	0.415358	1.409000
H180	H	0.448625	0.748692	1.742333
H181	H	-0.294706	0.078240	0.991366
H182	H	0.038628	0.411573	1.324700
H183	H	0.371961	0.744906	1.658033
