data_functionalizedCrystal
_audit_creation_method	'MofGen! by Chris Wilmer'
_symmetry_space_group_name_H-M	'P1'
_symmetry_Int_Tables_number	1
_symmetry_cell_setting	triclinic
loop_
_symmetry_equiv_pos_as_xyz
  x,y,z
_cell_length_a	16.109301
_cell_length_b	16.109318
_cell_length_c	9.730217
_cell_angle_alpha	89.999658
_cell_angle_beta	90.004322
_cell_angle_gamma	83.465022
loop_
_atom_site_label
_atom_site_type_symbol
_atom_site_fract_x
_atom_site_fract_y
_atom_site_fract_z
O1	O	-0.106934	-1.103122	-0.114180
O2	O	-0.120218	-0.861062	-0.114208
O3	O	0.007455	-0.988741	-0.114179
O4	O	-0.234606	-0.975442	-0.114209
O5	O	0.007455	-0.988733	0.114401
O6	O	-0.120218	-0.861053	0.114372
O7	O	-0.106934	-1.103113	0.114400
Zn8	Zn	-0.113576	-0.982082	0.150678
Zn9	Zn	-0.113576	-0.982093	-0.150486
O10	O	-0.234607	-0.975434	0.114371
C11	C	-0.119677	-0.830083	0.000078
C12	C	-0.118057	-0.737788	0.000068
C13	C	0.038430	-0.988198	0.000111
C14	C	0.130725	-0.986583	0.000113
C15	C	-0.107474	-1.134092	0.000111
C16	C	-0.109095	-1.226387	0.000112
C17	C	-0.265581	-0.975976	0.000077
C18	C	-0.357877	-0.977592	0.000067
C19	C	0.352993	-1.058590	0.000100
C20	C	0.439713	-1.057066	0.000088
C21	C	0.419848	-0.905579	0.000076
C22	C	0.333130	-0.907104	0.000077
C23	C	0.299704	-0.983612	0.000096
C24	C	0.473144	-0.980563	0.000083
C25	C	0.567170	-0.978910	0.000071
C26	C	0.205672	-0.985265	0.000106
C27	C	-0.112821	-0.438719	-0.124506
C28	C	-0.114339	-0.525440	-0.124515
C29	C	-0.114328	-0.525450	0.124696
C30	C	-0.112804	-0.438731	0.124703
C31	C	-0.112056	-0.395367	0.000098
C32	C	-0.115096	-0.568807	0.000082
C33	C	-0.116742	-0.662835	0.000074
C34	C	-0.110409	-0.301334	0.000106
N35	N	-0.113576	-0.982080	0.356214
N36	N	-0.113569	-0.982101	-0.356023
C37	C	-0.000548	-1.095207	0.643964
C38	C	0.055965	-1.151752	0.572018
C39	C	0.055967	-1.151741	0.428138
C40	C	-0.000552	-1.095181	0.356202
C41	C	-0.057065	-1.038636	0.428148
C42	C	-0.057059	-1.038651	0.572031
C43	C	-0.170089	-0.925535	0.428161
C44	C	-0.170088	-0.925541	0.572040
C45	C	-0.226608	-0.868975	0.356224
C46	C	-0.283118	-0.812425	0.428170
C47	C	-0.283117	-0.812437	0.572059
C48	C	-0.226602	-0.868996	0.643987
H49	H	0.325781	-1.120888	0.000112
F50	F	-0.343268	-0.752240	0.351605
H51	H	-0.112211	-0.403415	-0.225968
H52	H	0.101981	-1.197805	0.630602
F53	F	-0.115151	-0.571575	-0.257136
F54	F	0.276412	-0.827297	0.000064
H55	H	0.483098	-1.118121	0.000088
H56	H	-0.000537	-1.095215	0.761119
F57	F	0.455430	-0.824158	0.000055
H58	H	-0.112180	-0.403433	0.226177
F59	F	-0.115131	-0.571607	0.257302
F60	F	0.116111	-1.211927	0.351567
H61	H	-0.000553	-1.095183	0.239047
F62	F	-0.226610	-0.868967	0.203094
F63	F	-0.343272	-0.752257	0.648618
F64	F	-0.226592	-0.869011	0.797117
