data_functionalizedCrystal
_audit_creation_method	'MofGen! by Chris Wilmer'
_symmetry_space_group_name_H-M	'P1'
_symmetry_Int_Tables_number	1
_symmetry_cell_setting	triclinic
loop_
_symmetry_equiv_pos_as_xyz
  x,y,z
_cell_length_a	12.759395
_cell_length_b	12.645330
_cell_length_c	12.759395
_cell_angle_alpha	90.007741
_cell_angle_beta	90.005123
_cell_angle_gamma	90.019229
loop_
_atom_site_label
_atom_site_type_symbol
_atom_site_fract_x
_atom_site_fract_y
_atom_site_fract_z
Zn1	Zn	1.606087	-0.422167	0.594015
Zn2	Zn	1.606016	-0.599402	0.418340
Zn3	Zn	1.430433	-0.422158	0.418352
Zn4	Zn	1.430369	-0.599393	0.593978
O5	O	1.518226	-0.510780	0.506171
O6	O	1.753099	-0.445685	0.570721
O7	O	1.582721	-0.575890	0.271320
O8	O	1.453790	-0.273811	0.441674
O9	O	1.753046	-0.575898	0.441653
O10	O	1.582843	-0.273818	0.570733
O11	O	1.453721	-0.445669	0.271329
O12	O	1.283403	-0.445661	0.441639
O13	O	1.453681	-0.575884	0.741004
O14	O	1.283356	-0.575875	0.570671
O15	O	1.582781	-0.445677	0.741031
O16	O	1.582659	-0.747748	0.441618
O17	O	1.453612	-0.747742	0.570659
C18	C	1.245259	-0.510767	0.506153
C19	C	1.128482	-0.510787	0.506170
C20	C	1.128472	-0.646598	0.640314
C21	C	1.073606	-0.714512	0.707389
C22	C	0.963884	-0.714525	0.707402
C23	C	0.909026	-0.646615	0.640335
C24	C	0.963892	-0.578701	0.573260
C25	C	1.073616	-0.578697	0.573252
C26	C	0.963902	-0.442885	0.439123
C27	C	1.073624	-0.442876	0.439103
C28	C	0.909044	-0.374975	0.372056
C29	C	0.963910	-0.307064	0.304974
C30	C	1.073638	-0.307055	0.304963
C31	C	1.128490	-0.374962	0.372028
C32	C	1.518149	-0.786210	0.506156
C33	C	1.518213	-0.904040	0.506185
C34	C	1.437364	-1.071644	0.587615
C35	C	1.436950	-0.949084	0.587354
C36	C	1.488267	-0.948601	0.395463
C37	C	1.487773	-1.071200	0.395958
C38	C	1.629502	-1.071134	0.534579
C39	C	1.628820	-0.948528	0.537000
C40	C	1.792259	-0.510794	0.506190
C41	C	1.909036	-0.510799	0.506198
C42	C	1.518232	-0.510781	0.780204
C43	C	1.518234	-0.510781	0.896981
C44	C	1.518332	-0.234275	0.506209
C45	C	1.518377	-0.116445	0.506225
C46	C	1.652675	-0.375205	0.897029
C47	C	1.719895	-0.307422	0.951913
C48	C	1.719891	-0.307425	1.061635
C49	C	1.652658	-0.375216	1.116474
C50	C	1.585437	-0.442999	1.061590
C51	C	1.585451	-0.442991	0.951866
C52	C	1.450993	-0.578568	1.061542
C53	C	1.451001	-0.578572	0.951821
C54	C	1.383759	-0.646360	1.116382
C55	C	1.316543	-0.714150	1.061497
C56	C	1.316550	-0.714145	0.951769
C57	C	1.383780	-0.646355	0.896936
C58	C	1.518213	-0.510799	1.233204
C59	C	1.518213	-0.510785	1.116427
H60	H	0.919236	-0.251772	0.250378
H61	H	0.819685	-0.646622	0.640360
F62	F	1.132022	-0.234765	0.233576
F63	F	1.383799	-0.646349	0.780160
H64	H	1.217831	-0.374964	0.372023
F65	F	1.461433	-0.909699	0.694664
H66	H	1.354566	-0.919846	0.568569
H67	H	1.407881	-0.917985	0.371009
H68	H	1.217813	-0.646603	0.640303
H69	H	1.261801	-0.769334	1.106156
F70	F	1.708397	-1.109015	0.457109
H71	H	1.118283	-0.769802	0.761995
F72	F	1.330357	-1.112047	0.563395
F73	F	1.461619	-1.110121	0.695280
F74	F	0.905490	-0.786801	0.778795
H75	H	1.406540	-1.099886	0.371938
F76	F	1.561544	-1.109941	0.313986
H77	H	1.656825	-1.102002	0.613945
F78	F	1.791426	-0.235256	0.893542
F79	F	1.562946	-0.910465	0.314031
H80	H	1.651404	-0.919402	0.618486
F81	F	1.711869	-0.908436	0.465165
F82	F	1.652697	-0.375209	0.780253
F83	F	0.792268	-0.374984	0.372077
H84	H	1.261800	-0.769331	0.907089
F85	F	1.791420	-0.235269	1.120049
F86	F	1.652648	-0.375207	1.233250
H87	H	1.383757	-0.646354	1.205723
