data_functionalizedCrystal
_audit_creation_method	'MofGen! by Chris Wilmer'
_symmetry_space_group_name_H-M	'P1'
_symmetry_Int_Tables_number	1
_symmetry_cell_setting	triclinic
loop_
_symmetry_equiv_pos_as_xyz
  x,y,z
_cell_length_a	6.817900
_cell_length_b	16.256275
_cell_length_c	15.300923
_cell_angle_alpha	95.147490
_cell_angle_beta	104.173749
_cell_angle_gamma	103.500333
loop_
_atom_site_label
_atom_site_type_symbol
_atom_site_fract_x
_atom_site_fract_y
_atom_site_fract_z
V1	V	-4.034470	-0.117669	-0.281467
O2	O	-4.021726	0.005063	-0.275779
O3	O	-3.986040	-0.232750	-0.279859
O4	O	-3.989383	-0.116119	-0.404079
O5	O	-4.018361	-0.112375	-0.150699
V6	V	-4.517673	-0.102959	-0.265787
O7	O	-4.296431	-0.149939	-0.315861
O8	O	-4.705908	-0.070689	-0.231393
O9	O	-4.342896	0.012122	-0.267395
O10	O	-4.647813	-0.225691	-0.271475
O11	O	-4.651179	-0.108253	-0.396555
O12	O	-4.339553	-0.104509	-0.143175
C13	C	-3.830927	-0.260796	-0.275501
C14	C	-3.872639	-0.354877	-0.275004
C15	C	-3.835189	-0.112021	-0.433955
C16	C	-3.879609	-0.111514	-0.534193
C17	C	-4.253272	-0.113583	-0.970563
C18	C	-4.211521	-0.114061	-0.876378
C19	C	-4.008400	-0.110061	-0.824687
C20	C	-3.847026	-0.105592	-0.867185
C21	C	-3.888782	-0.105120	-0.961369
C22	C	-3.760005	-0.106573	-0.670876
C23	C	-3.718244	-0.107043	-0.576685
C24	C	-4.082744	-0.115514	-0.585885
C25	C	-4.124500	-0.115042	-0.680069
C26	C	-3.963121	-0.110571	-0.722561
C27	C	-4.163681	-0.586706	-0.278493
C28	C	-4.131905	-0.651824	-0.350560
C29	C	-3.948915	-0.527123	-0.274078
C30	C	-4.055002	-0.629643	-0.201143
C31	C	-4.022606	-0.693505	-0.273180
C32	C	-3.916621	-0.591011	-0.346214
C33	C	-3.839709	-0.568816	-0.196731
C34	C	-3.807792	-0.633908	-0.268813
C35	C	-3.906469	-0.431275	-0.274596
C36	C	-4.065039	-0.789352	-0.272669
C37	C	-4.161351	0.040163	-0.271751
C38	C	-4.098878	0.134244	-0.272254
C39	C	-4.157089	-0.108610	-0.113295
C40	C	-4.091907	-0.109112	-0.013055
H41	H	-4.342924	-0.117702	-0.841786
H42	H	-3.857835	-0.573862	-0.407593
H43	H	-3.657592	-0.654626	-0.264736
C44	C	-3.672394	-0.520125	-0.108878
H45	H	-3.721482	-0.533106	-0.057413
H46	H	-3.546487	-0.536946	-0.104906
H47	H	-3.646027	-0.460277	-0.110108
C48	C	-4.134629	-0.652968	-0.118319
H49	H	-4.040627	-0.678599	-0.080712
H50	H	-4.142506	-0.602586	-0.084301
H51	H	-4.269889	-0.692127	-0.138856
H52	H	-3.757379	-0.101480	-0.995965
H53	H	-4.418670	-0.116838	-1.012644
H54	H	-4.289892	-0.118292	-0.722153
C55	C	-4.299289	-0.700488	-0.438412
H56	H	-4.425967	-0.684435	-0.441775
H57	H	-4.251357	-0.686681	-0.489936
H58	H	-4.323840	-0.760373	-0.437713
H59	H	-4.214149	-0.119165	-0.551286
C60	C	-4.366377	-0.558517	-0.284145
H61	H	-4.346513	-0.518153	-0.231749
H62	H	-4.399588	-0.532993	-0.337432
H63	H	-4.478077	-0.607017	-0.286726
H64	H	-3.628590	-0.102935	-0.705470
C65	C	-3.494824	-0.102655	-0.519827
H66	H	-3.404699	-0.099939	-0.558624
H67	H	-3.444962	-0.053066	-0.474520
H68	H	-3.496976	-0.152271	-0.491272
H69	H	-3.681641	-0.102341	-0.825091
