data_functionalizedCrystal
_audit_creation_method	'MofGen! by Chris Wilmer'
_symmetry_space_group_name_H-M	'P1'
_symmetry_Int_Tables_number	1
_symmetry_cell_setting	triclinic
loop_
_symmetry_equiv_pos_as_xyz
  x,y,z
_cell_length_a	15.298068
_cell_length_b	25.639240
_cell_length_c	15.296720
_cell_angle_alpha	99.636054
_cell_angle_beta	91.645182
_cell_angle_gamma	80.298339
loop_
_atom_site_label
_atom_site_type_symbol
_atom_site_fract_x
_atom_site_fract_y
_atom_site_fract_z
Zn1	Zn	1.253288	0.155542	0.727322
Zn2	Zn	1.278509	0.225764	0.580834
Zn3	Zn	1.132171	0.150462	0.555490
Zn4	Zn	1.106722	0.255076	0.701849
O5	O	1.192673	0.196711	0.641374
O6	O	1.379216	0.154716	0.729157
O7	O	1.280303	0.201382	0.454914
O8	O	1.148333	0.077966	0.578338
O9	O	1.397746	0.206308	0.621532
O10	O	1.237317	0.081699	0.704582
O11	O	1.172789	0.146057	0.436294
O12	O	1.006213	0.174480	0.553638
O13	O	1.104958	0.256266	0.827786
O14	O	0.987516	0.251339	0.661167
O15	O	1.212640	0.183139	0.846500
O16	O	1.255626	0.302822	0.596833
O17	O	1.129414	0.324357	0.685742
C18	C	0.965080	0.215540	0.601889
C19	C	0.867712	0.223610	0.585018
C20	C	0.554597	0.139165	0.761955
C21	C	0.646079	0.131585	0.777811
C22	C	0.701491	0.154590	0.729614
C23	C	0.665414	0.185177	0.665558
C24	C	0.573922	0.192762	0.649705
C25	C	0.720817	0.208187	0.617365
C26	C	0.684739	0.238774	0.553309
C27	C	0.593256	0.246357	0.537459
C28	C	0.537843	0.223351	0.585656
C29	C	0.812308	0.200602	0.633217
C30	C	0.831633	0.254199	0.520968
C31	C	0.740152	0.261779	0.505112
C32	C	1.192516	0.332562	0.641297
C33	C	1.192524	0.390676	0.641307
C34	C	1.258454	0.739806	0.595153
C35	C	1.258479	0.794409	0.595166
O36	O	1.314424	0.813101	0.555877
N37	N	1.192740	0.832946	0.641405
C38	C	1.126976	0.816879	0.687642
O39	O	1.071062	0.854672	0.726974
C40	C	1.126955	0.762277	0.687634
C41	C	1.192694	0.723741	0.641384
C42	C	1.324188	0.701271	0.548908
C43	C	1.324161	0.646672	0.548894
C44	C	1.258401	0.630607	0.595125
C45	C	1.192667	0.669142	0.641370
C46	C	1.061196	0.746211	0.733875
C47	C	1.061181	0.691604	0.733863
C48	C	1.126919	0.653068	0.687613
C49	C	1.126880	0.598478	0.687586
N50	N	1.192620	0.559941	0.641347
C51	C	1.258380	0.576005	0.595116
C52	C	1.127026	0.931546	0.687657
C53	C	1.127042	0.986147	0.687661
C54	C	1.258547	0.963673	0.595186
C55	C	1.258526	0.909071	0.595178
C56	C	1.192765	0.893009	0.641418
C57	C	1.258319	0.461343	0.595089
C58	C	1.258284	0.406740	0.595076
C59	C	1.126783	0.429219	0.687554
C60	C	1.126814	0.483817	0.687564
C61	C	1.192590	0.499877	0.641330
O62	O	1.070966	0.579746	0.726858
O63	O	1.314291	0.538207	0.555800
C64	C	1.421153	0.177809	0.681013
C65	C	1.518518	0.169754	0.697905
C66	C	1.192820	1.060331	0.641453
C67	C	1.192806	1.002217	0.641434
C68	C	1.153147	0.223539	0.869809
C69	C	1.136303	0.234971	0.967155
C70	C	1.232095	0.169946	0.413835
C71	C	1.249108	0.158352	0.316519
C72	C	1.313088	0.114907	1.280533
C73	C	1.328919	0.104167	1.189073
C74	C	1.280766	0.136867	1.133589
C75	C	1.216781	0.180310	1.169574
C76	C	1.200953	0.191054	1.261044
C77	C	1.168631	0.213013	1.114100
C78	C	1.104645	0.256456	1.150086
C79	C	1.088820	0.267199	1.241547
C80	C	1.136973	0.234499	1.297031
C81	C	1.184459	0.202269	1.022630
C82	C	1.072323	0.278416	1.003141
C83	C	1.056492	0.289156	1.094602
H84	H	0.563884	0.271267	0.485307
H85	H	1.236556	0.166897	0.993340
O86	O	0.681243	0.101826	0.839921
C87	C	0.742780	0.057771	0.799335
H88	H	0.767945	0.067213	0.735273
H89	H	0.800954	0.049658	0.846179
H90	H	0.709206	0.020818	0.783733
O91	O	0.448974	0.230812	0.570260
C92	C	0.414490	0.286101	0.587316
H93	H	0.469779	0.310070	0.581387
H94	H	0.360104	0.295789	0.537178
H95	H	0.385701	0.297153	0.657172
O96	O	1.296221	0.126343	1.044759
C97	C	1.363036	0.080995	1.024897
H98	H	1.366229	0.055624	1.079761
H99	H	1.347217	0.056151	0.959138
H100	H	1.429687	0.094541	1.019728
H101	H	0.710764	0.286684	0.452958
O102	O	1.322251	0.476846	0.550096
C103	C	1.380268	0.431119	0.509299
H104	H	1.344894	0.394834	0.500014
H105	H	1.401613	0.438017	0.441932
H106	H	1.441212	0.423529	0.552958
H107	H	1.381019	0.068796	1.159781
O108	O	0.885582	0.276492	0.474196
C109	C	0.974064	0.263249	0.501937
H110	H	0.981618	0.225270	0.532917
H111	H	1.020170	0.256148	0.442347
H112	H	0.991952	0.297620	0.552976
O113	O	1.322038	0.369283	0.550033
C114	C	1.281994	0.335212	0.484786
H115	H	1.213959	0.356778	0.467356
H116	H	1.325389	0.324052	0.422918
H117	H	1.274254	0.297255	0.511321
H118	H	1.377693	0.615298	0.511236
H119	H	0.509472	0.120441	0.801195
O120	O	1.359992	0.083188	1.334409
C121	C	1.451151	0.084759	1.327179
H122	H	1.459867	0.123210	1.302765
H123	H	1.484026	0.083744	1.394843
H124	H	1.483274	0.048595	1.278086
H125	H	1.377742	0.714343	0.511262
O126	O	1.062936	0.413674	0.732597
C127	C	1.066938	0.435645	0.823216
H128	H	1.100295	0.472703	0.830905
H129	H	0.996906	0.447376	0.851479
H130	H	1.106847	0.404624	0.860543
H131	H	1.312056	0.877698	0.557518
H132	H	1.124087	0.243242	1.371506
H133	H	0.775980	0.148414	0.742525
H134	H	1.312095	0.976762	0.557546
H135	H	1.073505	1.017519	0.725313
H136	H	1.036726	0.302577	1.270844
H137	H	1.073469	0.918472	0.725308
O138	O	0.994462	0.331408	1.129624
C139	C	1.035133	0.367260	1.191175
H140	H	1.108889	0.361546	1.175576
H141	H	1.003216	0.410242	1.186691
H142	H	1.026180	0.358982	1.261030
O143	O	0.997297	0.783567	0.778884
C144	C	0.939251	0.757667	0.819667
H145	H	0.974593	0.716111	0.828930
H146	H	0.917923	0.782307	0.887042
H147	H	0.878300	0.753639	0.776008
O148	O	0.997408	0.675978	0.778895
C149	C	1.037429	0.646862	0.844123
H150	H	1.105480	0.658202	0.861557
H151	H	0.994037	0.656787	0.905994
H152	H	1.045130	0.602053	0.817565
H153	H	1.073287	0.515195	0.725227
H154	H	1.033115	0.305044	0.957966
H155	H	0.841673	0.175697	0.685371
