data_functionalizedCrystal
_audit_creation_method	'MofGen! by Chris Wilmer'
_symmetry_space_group_name_H-M	'P1'
_symmetry_Int_Tables_number	1
_symmetry_cell_setting	triclinic
loop_
_symmetry_equiv_pos_as_xyz
  x,y,z
_cell_length_a	14.044191
_cell_length_b	10.540539
_cell_length_c	13.101039
_cell_angle_alpha	93.398267
_cell_angle_beta	86.337551
_cell_angle_gamma	88.858634
loop_
_atom_site_label
_atom_site_type_symbol
_atom_site_fract_x
_atom_site_fract_y
_atom_site_fract_z
O1	O	1.264949	0.299888	-0.085156
O2	O	1.764949	0.799888	0.414844
O3	O	0.988906	0.288826	-0.085169
O4	O	1.488906	0.788826	0.414831
O5	O	1.133225	0.110288	-0.085161
O6	O	1.633225	0.610288	0.414839
O7	O	1.120630	0.478427	-0.085164
O8	O	1.620630	0.978427	0.414836
O9	O	1.122871	0.123121	0.085269
O10	O	1.622871	0.623121	0.585269
O11	O	0.978551	0.301659	0.085260
O12	O	1.478551	0.801659	0.585260
O13	O	1.254595	0.312721	0.085274
O14	O	1.754595	0.812721	0.585274
Zn15	Zn	1.114929	0.309228	0.112326
Zn16	Zn	1.614929	0.809228	0.612326
Zn17	Zn	1.128572	0.292320	-0.112222
Zn18	Zn	1.628572	0.792320	0.387778
O19	O	1.110275	0.491260	0.085265
O20	O	1.610275	0.991260	0.585265
C21	C	0.948381	0.290404	0.000044
C22	C	1.448381	0.790404	0.500044
C23	C	0.843058	0.275970	0.000039
C24	C	1.343058	0.775970	0.500039
C25	C	0.593285	0.351949	0.000048
C26	C	1.093285	0.851949	0.500048
C27	C	0.650221	0.249604	0.000047
C28	C	1.150221	0.749604	0.500047
C29	C	0.757525	0.264277	0.000043
C30	C	1.257525	0.764277	0.500043
C31	C	0.485971	0.337277	0.000053
C32	C	0.985971	0.837277	0.500053
C33	C	1.127103	0.069305	0.000052
C34	C	1.627103	0.569305	0.500052
C35	C	1.124278	-0.071929	0.000046
C36	C	1.624278	0.428071	0.500046
C37	C	1.016012	-0.266336	-0.000341
C38	C	1.516012	0.233664	0.499659
C39	C	1.018853	-0.119400	0.000042
C40	C	1.518853	0.380600	0.500042
C41	C	1.169100	-0.121127	0.097372
C42	C	1.669100	0.378873	0.597372
C43	C	1.165497	-0.268029	0.097454
C44	C	1.665497	0.231971	0.597454
C45	C	1.179416	-0.282924	-0.096356
C46	C	1.679416	0.217076	0.403644
C47	C	1.180465	-0.135941	-0.097642
C48	C	1.680465	0.364059	0.402358
C49	C	1.295119	0.311143	0.000058
C50	C	1.795119	0.811143	0.500058
C51	C	1.400443	0.325577	0.000057
C52	C	1.900443	0.825577	0.500057
C53	C	1.116397	0.532242	0.000050
C54	C	1.616397	1.032242	0.500050
C55	C	1.119223	0.673475	0.000049
C56	C	1.619223	1.173475	0.500049
N57	N	1.105625	0.320767	0.265574
N58	N	1.605625	0.820767	0.765574
N59	N	1.137883	0.280771	-0.265470
N60	N	1.637883	0.780771	0.234530
C61	C	1.092967	0.336478	0.474616
C62	C	1.592967	0.836478	0.974616
C63	C	1.150538	0.265063	0.525495
C64	C	1.650538	0.765063	1.025495
C65	C	1.143495	0.273805	0.641813
C66	C	1.643495	0.773805	1.141813
C67	C	1.100009	0.327738	0.358288
C68	C	1.600009	0.827738	0.858288
H69	H	0.983171	-0.086087	-0.069725
H70	H	1.483171	0.413913	0.430275
O71	O	0.608057	0.118935	0.000046
O72	O	1.108057	0.618935	0.500046
H73	H	0.567682	0.102147	-0.069423
H74	H	1.067682	0.602147	0.430577
H75	H	0.625127	0.450581	0.000044
H76	H	1.125127	0.950581	0.500044
O77	O	1.020684	0.426175	0.532619
O78	O	1.520684	0.926175	1.032619
H79	H	1.026438	0.419062	0.616201
H80	H	1.526438	0.919062	1.116201
O81	O	0.959987	-0.062485	0.092606
O82	O	1.459987	0.437515	0.592606
H83	H	1.006048	-0.003581	0.141258
H84	H	1.506048	0.496419	0.641258
O85	O	0.966443	-0.316777	-0.092774
O86	O	1.466443	0.183223	0.407226
H87	H	1.014834	-0.385289	-0.139425
H88	H	1.514834	0.114711	0.360575
H89	H	0.970319	-0.295513	0.069058
H90	H	1.470319	0.204487	0.569058
H91	H	1.246301	-0.090671	0.100995
H92	H	1.746301	0.409329	0.600995
O93	O	1.109967	-0.303167	0.193809
O94	O	1.609967	0.196833	0.693809
H95	H	1.085930	-0.215282	0.239906
H96	H	1.585930	0.284718	0.739906
H97	H	1.205116	0.197359	0.481696
H98	H	1.705116	0.697359	0.981696
H99	H	1.241048	-0.307997	0.101873
H100	H	1.741048	0.192003	0.601873
H101	H	1.149777	-0.323482	-0.170122
H102	H	1.649777	0.176518	0.329878
O103	O	1.116596	-0.062198	0.193311
O104	O	1.616596	0.437802	0.693311
H105	H	1.040414	-0.088456	0.194271
H106	H	1.540414	0.411544	0.694271
O107	O	1.282754	-0.094154	-0.105427
O108	O	1.782754	0.405846	0.394573
H109	H	1.331248	-0.178460	-0.104470
H110	H	1.831248	0.321540	0.395530
O111	O	1.137162	-0.093870	-0.193024
O112	O	1.637162	0.406130	0.306976
H113	H	1.141011	0.011033	-0.195062
H114	H	1.641011	0.511033	0.304938
O115	O	1.280334	-0.335349	-0.097235
O116	O	1.780334	0.164651	0.402765
H117	H	1.287634	-0.392188	-0.029383
H118	H	1.787634	0.107812	0.470617
