data_functionalizedCrystal
_audit_creation_method	'MofGen! by Chris Wilmer'
_symmetry_space_group_name_H-M	'P1'
_symmetry_Int_Tables_number	1
_symmetry_cell_setting	triclinic
loop_
_symmetry_equiv_pos_as_xyz
  x,y,z
_cell_length_a	15.538191
_cell_length_b	9.565339
_cell_length_c	15.625325
_cell_angle_alpha	71.917535
_cell_angle_beta	66.741091
_cell_angle_gamma	90.003605
loop_
_atom_site_label
_atom_site_type_symbol
_atom_site_fract_x
_atom_site_fract_y
_atom_site_fract_z
O1	O	1.249526	0.264673	-0.292687
O2	O	0.975404	0.211916	-0.188635
O3	O	1.119786	0.306040	-0.374295
O4	O	1.105144	0.170549	-0.107027
O5	O	1.119775	0.073514	-0.374283
O6	O	0.975393	-0.020610	-0.188623
O7	O	1.249514	0.032147	-0.292675
Zn8	Zn	1.112452	-0.031150	-0.240647
Zn9	Zn	1.112467	0.275213	-0.240663
O10	O	1.105133	-0.061978	-0.107015
C11	C	0.940317	0.090133	-0.177743
C12	C	0.835786	0.073692	-0.145315
C13	C	0.547571	0.237032	-0.467473
C14	C	0.449346	0.221574	-0.436980
C15	C	0.427129	0.134623	-0.265463
C16	C	0.525354	0.150066	-0.295942
C17	C	0.585568	0.201273	-0.396948
C18	C	0.563351	0.114308	-0.225416
C19	C	0.661569	0.129757	-0.255893
C20	C	0.721789	0.180966	-0.356895
C21	C	0.683786	0.216723	-0.427425
C22	C	0.503136	0.063111	-0.124410
C23	C	0.541133	0.027352	-0.053885
C24	C	0.639352	0.042792	-0.084362
C25	C	0.699572	0.094000	-0.185364
C26	C	0.677355	0.007035	-0.013832
C27	C	0.775572	0.022485	-0.044309
C28	C	0.797789	0.109450	-0.215840
N29	N	1.112448	-0.240234	-0.240639
C30	C	1.045656	-0.374959	-0.154792
C31	C	1.130767	-0.462885	-0.165149
C32	C	1.027374	-0.429861	-0.230286
C33	C	1.197602	-0.326121	-0.250970
C34	C	1.094153	-0.293081	-0.316123
C35	C	1.179326	-0.380937	-0.326536
C36	C	1.284601	0.153933	-0.303567
C37	C	1.389132	0.170384	-0.335995
C38	C	1.119116	0.206697	-0.407659
C39	C	1.117127	0.257112	-0.507089
N40	N	1.112478	0.484302	-0.240681
C41	C	1.110580	-0.210846	-0.834076
C42	C	1.108715	-0.163449	-0.927507
C43	C	1.108728	0.090037	-0.927511
C44	C	1.110588	0.042660	-0.834075
C45	C	1.111515	-0.107783	-0.787366
C46	C	1.111523	0.145723	-0.787365
C47	C	1.113389	0.098351	-0.693940
C48	C	1.114319	-0.052085	-0.647225
C49	C	1.113380	-0.155155	-0.693941
C50	C	1.110603	0.296167	-0.834080
C51	C	1.111538	0.399230	-0.787369
C52	C	1.113397	0.351857	-0.693940
C53	C	1.114327	0.201421	-0.647225
C54	C	1.114335	0.454927	-0.647224
C55	C	1.116200	0.407555	-0.553799
C56	C	1.116192	0.154049	-0.553800
C57	C	1.105802	0.037369	-0.073651
C58	C	1.107791	-0.013037	0.025779
H59	H	0.418414	0.250699	-0.494418
C60	C	0.360883	0.078290	-0.154358
N61	N	0.310987	0.035852	-0.070673
C62	C	1.116373	-0.104195	-0.544455
N63	N	1.117919	-0.143444	-0.467048
H64	H	0.423162	0.050538	-0.099599
C65	C	1.114396	-0.320652	-0.642553
N66	N	1.115165	-0.445297	-0.603849
C67	C	0.474887	-0.028981	0.057219
N68	N	0.424991	-0.071419	0.140905
H69	H	1.116915	0.031536	-0.515752
H70	H	0.806509	-0.006646	0.013120
C71	C	1.111596	-0.376342	-0.782688
N72	N	1.112364	-0.500988	-0.743984
C73	C	0.611107	-0.049284	0.097272
N74	N	0.561209	-0.091706	0.180957
C75	C	1.294835	-0.265069	-0.262709
N76	N	1.368067	-0.219084	-0.271547
H77	H	0.989224	-0.370926	-0.082161
C78	C	1.151693	-0.561949	-0.078940
N79	N	1.167447	-0.636566	-0.014002
C80	C	1.255733	-0.386062	-0.424660
N81	N	1.313285	-0.389934	-0.498562
C82	C	0.930162	-0.491198	-0.218442
N83	N	0.856939	-0.537394	-0.209514
H84	H	1.078633	-0.219747	-0.379907
H85	H	1.107950	-0.247388	-0.965534
H86	H	0.801763	0.193563	-0.381708
C87	C	1.117224	0.520929	-0.502413
N88	N	1.117997	0.606325	-0.463709
H89	H	1.107976	0.212529	-0.965556
C90	C	1.110515	0.564713	-0.838759
N91	N	1.109739	0.689356	-0.877463
H92	H	1.113589	0.577420	-0.685273
C93	C	0.864031	0.165774	-0.326953
N94	N	0.913923	0.208199	-0.410640
C95	C	0.750027	0.273046	-0.538538
N96	N	0.799920	0.315471	-0.622224
H97	H	0.596602	0.278721	-0.549723
H98	H	1.109087	0.334733	-0.910154
