data_functionalizedCrystal
_audit_creation_method	'MofGen! by Chris Wilmer'
_symmetry_space_group_name_H-M	'P1'
_symmetry_Int_Tables_number	1
_symmetry_cell_setting	triclinic
loop_
_symmetry_equiv_pos_as_xyz
  x,y,z
_cell_length_a	16.959455
_cell_length_b	21.295418
_cell_length_c	16.959447
_cell_angle_alpha	90.033505
_cell_angle_beta	90.020374
_cell_angle_gamma	90.024419
loop_
_atom_site_label
_atom_site_type_symbol
_atom_site_fract_x
_atom_site_fract_y
_atom_site_fract_z
Zn1	Zn	1.208344	-0.250647	0.447019
Zn2	Zn	1.708344	0.249353	0.947019
Zn3	Zn	1.208249	-0.355924	0.314833
Zn4	Zn	1.708249	0.144076	0.814833
Zn5	Zn	1.076172	-0.250667	0.314842
Zn6	Zn	1.576172	0.249333	0.814842
Zn7	Zn	1.076120	-0.355877	0.446958
Zn8	Zn	1.576120	0.144123	0.946958
O9	O	1.142221	-0.303278	0.380913
O10	O	1.642221	0.196722	0.880913
O11	O	1.318942	-0.264623	0.429506
O12	O	1.818942	0.235377	0.929506
O13	O	1.190711	-0.341989	0.204223
O14	O	1.690711	0.158011	0.704223
O15	O	1.093766	-0.162575	0.332405
O16	O	1.593766	0.337425	0.832405
O17	O	1.318873	-0.341970	0.332389
O18	O	1.818873	0.158030	0.832389
O19	O	1.190872	-0.162560	0.429515
O20	O	1.690872	0.337440	0.929515
O21	O	1.093675	-0.264657	0.204230
O22	O	1.593675	0.235343	0.704230
O23	O	0.965554	-0.264612	0.332346
O24	O	1.465554	0.235388	0.832346
O25	O	1.093677	-0.341890	0.557577
O26	O	1.593677	0.158110	1.057577
O27	O	0.965516	-0.341909	0.429410
O28	O	1.465516	0.158091	0.929410
O29	O	1.190821	-0.264578	0.557622
O30	O	1.690821	0.235422	1.057622
O31	O	1.190661	-0.444007	0.332330
O32	O	1.690661	0.055993	0.832330
O33	O	1.093586	-0.443972	0.429401
O34	O	1.593586	0.056028	0.929401
C35	C	0.936855	-0.303258	0.380873
C36	C	1.436855	0.196742	0.880873
C37	C	0.848998	-0.303264	0.380875
C38	C	1.348998	0.196736	0.880875
C39	C	0.477476	-0.343513	0.330319
C40	C	0.977476	0.156487	0.830319
C41	C	0.477569	-0.263096	0.431603
C42	C	0.977569	0.236904	0.931603
C43	C	0.560115	-0.263086	0.431584
C44	C	1.060115	0.236914	0.931584
C45	C	0.601345	-0.303290	0.380932
C46	C	1.101345	0.196710	0.880932
C47	C	0.560029	-0.343505	0.330299
C48	C	1.060029	0.156495	0.830299
C49	C	0.601437	-0.222876	0.482222
C50	C	1.101437	0.277124	0.982222
C51	C	0.683988	-0.222865	0.482205
C52	C	1.183988	0.277135	0.982205
C53	C	0.725220	-0.263067	0.431549
C54	C	1.225220	0.236933	0.931549
C55	C	0.683899	-0.303282	0.380913
C56	C	1.183899	0.196718	0.880913
C57	C	0.725129	-0.343487	0.330261
C58	C	1.225129	0.156513	0.830261
C59	C	0.683809	-0.383700	0.279621
C60	C	1.183809	0.116300	0.779621
C61	C	0.601261	-0.383707	0.279643
C62	C	1.101261	0.116293	0.779643
C63	C	0.807768	-0.263060	0.431527
C64	C	1.307768	0.236940	0.931527
C65	C	0.807682	-0.343479	0.330242
C66	C	1.307682	0.156521	0.830242
C67	C	1.142129	-0.466830	0.380875
C68	C	1.642129	0.033170	0.880875
C69	C	1.142161	-0.536798	0.380885
C70	C	1.642161	-0.036798	0.880885
C71	C	1.192958	-1.036253	0.330495
C72	C	1.692958	-0.536253	0.830495
C73	C	1.192928	-0.970511	0.330477
C74	C	1.692928	-0.470511	0.830477
C75	C	1.142332	-0.937637	0.380968
C76	C	1.642332	-0.437637	0.880968
C77	C	1.091749	-0.970512	0.431468
C78	C	1.591749	-0.470512	0.931468
C79	C	1.091775	-1.036254	0.431480
C80	C	1.591775	-0.536254	0.931480
N81	N	1.136183	-0.834381	0.450134
N82	N	1.636183	-0.334381	0.950134
N83	N	1.136163	-0.771930	0.450120
N84	N	1.636163	-0.271930	0.950120
C85	C	1.142250	-0.739563	0.380935
C86	C	1.642250	-0.239563	0.880935
N87	N	1.148374	-0.772006	0.311762
N88	N	1.648374	-0.272006	0.811762
N89	N	1.148398	-0.834464	0.311776
N90	N	1.648398	-0.334464	0.811776
C91	C	1.142298	-0.866352	0.380961
C92	C	1.642298	-0.366352	0.880961
C93	C	1.192794	-0.635410	0.330414
C94	C	1.692794	-0.135410	0.830414
C95	C	1.192758	-0.569667	0.330394
C96	C	1.692758	-0.069667	0.830394
C97	C	1.091584	-0.569670	0.431393
C98	C	1.591584	-0.069670	0.931393
C99	C	1.091615	-0.635412	0.431406
C100	C	1.591615	-0.135412	0.931406
C101	C	1.142224	-0.668279	0.380918
C102	C	1.642224	-0.168279	0.880918
C103	C	1.348389	-0.303299	0.380953
C104	C	1.848389	0.196701	0.880953
C105	C	1.436246	-0.303308	0.380971
C106	C	1.936246	0.196692	0.880971
C107	C	1.142254	-0.303226	0.587081
C108	C	1.642254	0.196774	1.087081
C109	C	1.142268	-0.303204	0.674938
C110	C	1.642268	0.196796	1.174938
C111	C	1.142336	-0.139088	0.380968
C112	C	1.642336	0.360912	0.880968
C113	C	1.142384	-0.069120	0.380992
C114	C	1.642384	0.430880	0.880992
C115	C	1.142234	-0.303285	0.175547
C116	C	1.642234	0.196715	0.675547
C117	C	1.142373	-0.303130	0.087691
C118	C	1.642373	0.196870	0.587691
C119	C	1.091784	-0.343390	1.046393
C120	C	1.591784	0.156610	1.546393
C121	C	1.192941	-0.262885	1.046435
C122	C	1.692941	0.237115	1.546435
C123	C	1.192920	-0.262898	0.963889
C124	C	1.692920	0.237102	1.463889
C125	C	1.142331	-0.303159	0.922591
C126	C	1.642331	0.196841	1.422591
C127	C	1.091763	-0.343406	0.963839
C128	C	1.591763	0.156594	1.463839
C129	C	1.243493	-0.222656	0.922634
C130	C	1.743493	0.277344	1.422634
C131	C	1.243474	-0.222668	0.840083
C132	C	1.743474	0.277332	1.340083
C133	C	1.192881	-0.262926	0.798784
C134	C	1.692881	0.237074	1.298784
C135	C	1.142310	-0.303175	0.840037
C136	C	1.642310	0.196825	1.340037
C137	C	1.091721	-0.343436	0.798740
C138	C	1.591721	0.156564	1.298740
C139	C	1.041146	-0.383681	0.839991
C140	C	1.541146	0.116319	1.339991
C141	C	1.041169	-0.383664	0.922540
C142	C	1.541169	0.116336	1.422540
C143	C	1.192857	-0.262943	0.716236
C144	C	1.692857	0.237057	1.216236
C145	C	1.091700	-0.343451	0.716186
C146	C	1.591700	0.156549	1.216186
H147	H	0.717390	-0.416437	0.238385
H148	H	1.217390	0.083563	0.738385
H149	H	0.567611	-0.416446	0.238414
H150	H	1.067611	0.083554	0.738414
H151	H	0.841246	-0.376216	0.288992
H152	H	1.341246	0.123784	0.788992
H153	H	1.050592	-1.063014	0.472603
H154	H	1.550592	-0.563014	0.972603
C155	C	0.452241	-0.232573	0.565524
C156	C	0.952241	0.267427	1.065524
C157	C	0.432248	-0.218910	0.487281
C158	C	0.932248	0.281090	0.987281
H159	H	0.424255	-0.205295	0.599897
H160	H	0.924255	0.294705	1.099897
H161	H	0.507310	-0.226806	0.572754
H162	H	1.007310	0.273194	1.072754
H163	H	0.438705	-0.274884	0.576987
H164	H	0.938705	0.225116	1.076987
H165	H	0.445790	-0.176600	0.475816
H166	H	0.945790	0.323400	0.975816
H167	H	0.377167	-0.224671	0.480048
H168	H	0.877167	0.275329	0.980048
H169	H	1.234165	-1.063009	0.289381
H170	H	1.734165	-0.563009	0.789381
H171	H	1.284685	-0.189882	0.956265
H172	H	1.784685	0.310118	1.456265
C173	C	1.343463	-0.143085	0.848426
C174	C	1.843463	0.356915	1.348426
C175	C	1.299058	-0.178426	0.794743
C176	C	1.799058	0.321574	1.294743
H177	H	1.377772	-0.115768	0.820432
H178	H	1.877772	0.384232	1.320432
H179	H	1.373690	-0.170509	0.880608
H180	H	1.873690	0.329491	1.380608
H181	H	1.309041	-0.119001	0.880636
H182	H	1.809041	0.380999	1.380636
H183	H	1.333480	-0.202513	0.762537
H184	H	1.833480	0.297487	1.262537
H185	H	1.268829	-0.150998	0.762548
H186	H	1.768829	0.349002	1.262548
H187	H	1.234037	-0.230178	0.682652
H188	H	1.734037	0.269822	1.182652
H189	H	0.567862	-0.190148	0.523465
H190	H	1.067862	0.309852	1.023465
C191	C	0.350899	-0.379235	0.285367
C192	C	0.850899	0.120765	0.785367
C193	C	0.432062	-0.387716	0.274659
C194	C	0.932062	0.112284	0.774659
H195	H	0.322864	-0.406528	0.251008
H196	H	0.822864	0.093472	0.751008
H197	H	0.337385	-0.336935	0.273895
H198	H	0.837385	0.163065	0.773895
H199	H	0.337403	-0.388502	0.338459
H200	H	0.837403	0.111498	0.838459
H201	H	0.445560	-0.378444	0.221568
H202	H	0.945560	0.121556	0.721568
H203	H	0.445581	-0.430025	0.286125
H204	H	0.945581	0.069975	0.786125
C205	C	0.675780	-0.143370	0.582318
C206	C	1.175780	0.356630	1.082318
C207	C	0.729403	-0.178658	0.537858
C208	C	1.229403	0.321342	1.037858
H209	H	0.703820	-0.116075	0.616670
H210	H	1.203820	0.383925	1.116670
H211	H	0.643597	-0.170830	0.612501
H212	H	1.143597	0.329170	1.112501
H213	H	0.643566	-0.119267	0.547933
H214	H	1.143566	0.380733	1.047933
H215	H	0.761613	-0.202765	0.572244
H216	H	1.261613	0.297235	1.072244
H217	H	0.761599	-0.151195	0.507673
H218	H	1.261599	0.348805	1.007673
H219	H	1.234112	-0.943745	0.289355
H220	H	1.734112	-0.443745	0.789355
C221	C	1.080673	-0.896530	0.537773
C222	C	1.580673	-0.396530	1.037773
C223	C	1.036137	-0.934381	0.486973
C224	C	1.536137	-0.434381	0.986973
H225	H	1.046337	-0.874228	0.572042
H226	H	1.546337	-0.374228	1.072042
H227	H	1.110782	-0.867548	0.507694
H228	H	1.610782	-0.367548	1.007694
H229	H	1.115097	-0.922148	0.568045
H230	H	1.615097	-0.422148	1.068045
H231	H	1.001718	-0.908762	0.456697
H232	H	1.501718	-0.408762	0.956697
H233	H	1.006015	-0.963366	0.517055
H234	H	1.506015	-0.463366	1.017055
C235	C	0.900667	-0.254420	0.537847
C236	C	1.400667	0.245580	1.037847
C237	C	0.853188	-0.218865	0.487186
C238	C	1.353188	0.281135	0.987186
H239	H	0.928703	-0.227133	0.572213
H240	H	1.428703	0.272867	1.072213
H241	H	0.937032	-0.278353	0.507674
H242	H	1.437032	0.221647	1.007674
H243	H	0.868464	-0.281879	0.568022
H244	H	1.368464	0.218121	1.068022
H245	H	0.885392	-0.191408	0.457007
H246	H	1.385392	0.308592	0.957007
H247	H	0.816819	-0.194920	0.517363
H248	H	1.316819	0.305080	1.017363
C249	C	0.957705	-0.549488	0.469747
C250	C	1.457705	-0.049488	0.969747
C251	C	1.035965	-0.533542	0.486891
C252	C	1.535965	-0.033542	0.986891
H253	H	0.923367	-0.527178	0.504006
H254	H	1.423367	-0.027178	1.004006
H255	H	0.950489	-0.593340	0.476987
H256	H	1.450489	-0.093340	0.976987
H257	H	0.946182	-0.538750	0.416621
H258	H	1.446182	-0.038750	0.916621
H259	H	1.047490	-0.544284	0.540016
H260	H	1.547490	-0.044284	1.040016
H261	H	1.043184	-0.489680	0.479658
H262	H	1.543184	0.010320	0.979658
H263	H	1.234002	-0.662172	0.289303
H264	H	1.734002	-0.162172	0.789303
H265	H	1.233938	-0.542906	0.289270
H266	H	1.733938	-0.042906	0.789270
C267	C	1.204006	-0.178199	1.139307
C268	C	1.704006	0.321801	1.639307
C269	C	1.248548	-0.218634	1.091828
C270	C	1.748548	0.281366	1.591828
H271	H	1.238338	-0.150877	1.167329
H272	H	1.738338	0.349123	1.667329
H273	H	1.173901	-0.202168	1.175684
H274	H	1.673901	0.297832	1.675684
H275	H	1.169579	-0.154123	1.107105
H276	H	1.669579	0.345877	1.607105
H277	H	1.282972	-0.242714	1.124031
H278	H	1.782972	0.257286	1.624031
H279	H	1.278666	-0.194663	1.055447
H280	H	1.778666	0.305337	1.555447
C281	C	1.030101	-0.468366	0.747112
C282	C	1.530101	0.031634	1.247112
C283	C	0.985545	-0.427936	0.794584
C284	C	1.485545	0.072064	1.294584
H285	H	0.995776	-0.495683	0.719073
H286	H	1.495776	0.004317	1.219073
H287	H	1.064515	-0.492443	0.779315
H288	H	1.564515	0.007557	1.279315
H289	H	1.060219	-0.444390	0.710743
H290	H	1.560219	0.055610	1.210743
H291	H	0.955431	-0.451912	0.830957
H292	H	1.455431	0.048088	1.330957
H293	H	0.951117	-0.403857	0.762378
H294	H	1.451117	0.096143	1.262378
C295	C	1.053037	-0.655599	0.565216
C296	C	1.553037	-0.155599	1.065216
C297	C	1.036032	-0.671544	0.486923
C298	C	1.536032	-0.171544	0.986923
H299	H	1.018722	-0.677908	0.599489
H300	H	1.518722	-0.177908	1.099489
H301	H	1.045777	-0.611747	0.572429
H302	H	1.545777	-0.111747	1.072429
H303	H	1.106144	-0.666338	0.576830
H304	H	1.606144	-0.166338	1.076830
H305	H	0.982926	-0.660801	0.475307
H306	H	1.482926	-0.160801	0.975307
H307	H	1.043285	-0.715406	0.479707
H308	H	1.543285	-0.215406	0.979707
C309	C	1.080640	-0.428143	0.623315
C310	C	1.580640	0.071857	1.123315
C311	C	1.036093	-0.387708	0.670789
C312	C	1.536093	0.112292	1.170789
H313	H	1.046310	-0.455462	0.595285
H314	H	1.546310	0.044538	1.095285
H315	H	1.115058	-0.452218	0.655515
H316	H	1.615058	0.047782	1.155515
H317	H	1.110753	-0.404171	0.586938
H318	H	1.610753	0.095829	1.086938
H319	H	1.005984	-0.411680	0.707170
H320	H	1.505984	0.088320	1.207170
H321	H	1.001661	-0.363630	0.638586
H322	H	1.501661	0.136370	1.138586
H323	H	0.999996	-0.416432	0.956134
H324	H	1.499996	0.083568	1.456134
H325	H	1.050605	-0.376156	1.079984
H326	H	1.550605	0.123844	1.579984
