data_functionalizedCrystal
_audit_creation_method	'MofGen! by Chris Wilmer'
_symmetry_space_group_name_H-M	'P1'
_symmetry_Int_Tables_number	1
_symmetry_cell_setting	triclinic
loop_
_symmetry_equiv_pos_as_xyz
  x,y,z
_cell_length_a	14.971487
_cell_length_b	14.519731
_cell_length_c	13.448316
_cell_angle_alpha	89.994830
_cell_angle_beta	89.997082
_cell_angle_gamma	83.651628
loop_
_atom_site_label
_atom_site_type_symbol
_atom_site_fract_x
_atom_site_fract_y
_atom_site_fract_z
O1	O	-0.117340	-1.223787	0.082692
O2	O	-0.131128	-0.955304	0.082694
O3	O	0.005962	-1.096741	0.082688
O4	O	-0.254429	-1.082350	0.082698
O5	O	0.005963	-1.096727	-0.082696
O6	O	-0.131127	-0.955290	-0.082690
O7	O	-0.117339	-1.223772	-0.082691
Cu8	Cu	-0.124233	-1.089530	-0.097792
Cu9	Cu	-0.124234	-1.089547	0.097794
O10	O	-0.254428	-1.082335	-0.082686
C11	C	0.039287	-1.096090	-0.000003
C12	C	0.138586	-1.094161	-0.000000
C13	C	-0.130481	-0.920938	0.000002
C14	C	-0.128545	-0.818559	0.000002
C15	C	-0.117985	-1.258138	0.000002
C16	C	-0.119921	-1.360518	0.000009
C17	C	0.195758	-1.177252	-0.000000
C18	C	0.289059	-1.175434	0.000012
C19	C	0.325185	-1.090524	0.000016
C20	C	0.268005	-1.007427	0.000019
C21	C	0.174706	-1.009246	0.000015
C22	C	0.462470	-1.003642	0.000027
C23	C	0.555775	-1.001822	0.000029
C24	C	0.576822	-1.169829	0.000023
C25	C	0.483523	-1.171648	0.000019
C26	C	0.426350	-1.088551	0.000020
C27	C	0.712246	-1.082986	0.000012
C28	C	0.612948	-1.084913	0.000029
C29	C	-0.126972	-0.735416	0.000006
C30	C	-0.125007	-0.631108	0.000007
C31	C	-0.123447	-0.547970	0.000006
C32	C	-0.121481	-0.443656	0.000009
N33	N	-0.124231	-1.089525	-0.235356
C34	C	-0.178608	-1.145513	-0.287390
C35	C	-0.178604	-1.145524	-0.391493
C36	C	-0.124227	-1.089542	-0.443561
C37	C	-0.069844	-1.033552	-0.391519
C38	C	-0.069844	-1.033546	-0.287418
C39	C	-0.069850	-1.033567	-0.608499
C40	C	-0.069852	-1.033571	-0.712608
C41	C	-0.178610	-1.145545	-0.712575
C42	C	-0.178610	-1.145539	-0.608474
C43	C	-0.124228	-1.089547	-0.556439
N44	N	-0.124228	-1.089559	0.235358
H45	H	0.166352	-1.246395	-0.000010
C46	C	-0.010687	-0.972936	-0.551952
C47	C	0.049779	-1.028784	-0.492202
C48	C	0.104297	-0.972964	-0.440107
H49	H	-0.047142	-0.930519	-0.511265
H50	H	0.021749	-0.939614	-0.597839
H51	H	0.017346	-1.062091	-0.446320
H52	H	0.086254	-1.071199	-0.532864
H53	H	0.136734	-0.939641	-0.485994
H54	H	0.067835	-0.930549	-0.399426
H55	H	0.145335	-1.010848	-0.399568
H56	H	0.128157	-0.941585	0.000015
H57	H	-0.025565	-0.987955	-0.245053
H58	H	-0.025566	-0.987975	-0.433920
C59	C	-0.237487	-1.206438	-0.448035
C60	C	-0.183393	-1.268858	-0.507767
C61	C	-0.237604	-1.325000	-0.559854
H62	H	-0.278581	-1.168805	-0.488735
H63	H	-0.269854	-1.239828	-0.402144
H64	H	-0.151042	-1.235471	-0.553653
H65	H	-0.142301	-1.306512	-0.467093
H66	H	-0.269971	-1.358390	-0.513963
H67	H	-0.278695	-1.287360	-0.600548
H68	H	-0.200909	-1.367365	-0.600381
H69	H	0.454113	-1.240789	0.000008
C70	C	0.638932	-1.260024	0.000238
C71	C	0.693082	-1.263912	0.085344
C72	C	0.750302	-1.346988	0.085579
H73	H	0.675859	-1.262893	-0.057363
H74	H	0.604083	-1.310877	0.000284
H75	H	0.727928	-1.213072	0.085289
H76	H	0.656179	-1.261058	0.142958
H77	H	0.715452	-1.397841	0.085625
H78	H	0.787222	-1.349849	0.027975
H79	H	0.787043	-1.349640	0.143326
H80	H	0.415921	-0.935975	0.000030
H81	H	0.297426	-0.938292	0.000030
H82	H	-0.222893	-1.191094	-0.245005
C83	C	-0.010711	-0.972767	-0.768956
C84	C	0.036936	-0.923757	-0.701104
C85	C	0.091435	-0.867744	-0.752974
H86	H	-0.047170	-0.930286	-0.809574
H87	H	0.030412	-1.010504	-0.809542
H88	H	-0.004182	-0.886023	-0.660535
H89	H	0.073412	-0.966214	-0.660484
H90	H	0.132558	-0.905481	-0.793560
H91	H	0.054969	-0.825270	-0.793590
H92	H	0.123776	-0.834491	-0.706944
H93	H	0.335605	-1.243094	0.000009
H94	H	0.585186	-0.932682	0.000017
H95	H	-0.222892	-1.191120	-0.566083
H96	H	-0.222893	-1.191131	-0.754946
