data_functionalizedCrystal
_audit_creation_method	'MofGen! by Chris Wilmer'
_symmetry_space_group_name_H-M	'P1'
_symmetry_Int_Tables_number	1
_symmetry_cell_setting	triclinic
loop_
_symmetry_equiv_pos_as_xyz
  x,y,z
_cell_length_a	34.490303
_cell_length_b	34.489386
_cell_length_c	34.485816
_cell_angle_alpha	60.004462
_cell_angle_beta	60.008900
_cell_angle_gamma	59.994399
loop_
_atom_site_label
_atom_site_type_symbol
_atom_site_fract_x
_atom_site_fract_y
_atom_site_fract_z
O1	O	0.053846	-0.566517	0.473678
O2	O	0.553846	-0.066517	0.973678
O3	O	0.020329	-0.441078	0.381663
O4	O	0.520329	0.058922	0.881663
O5	O	0.099768	-0.520436	0.381578
O6	O	0.599768	-0.020436	0.881578
O7	O	-0.025592	-0.487159	0.473762
O8	O	0.474408	0.012841	0.973762
O9	O	0.126127	-0.494082	0.407849
O10	O	0.626127	0.005918	0.907849
O11	O	0.046689	-0.414724	0.407933
O12	O	0.546689	0.085276	0.907933
O13	O	0.080206	-0.540163	0.499949
O14	O	0.580206	-0.040163	0.999949
Zn15	Zn	0.067632	-0.473259	0.458112
Zn16	Zn	0.567632	0.026741	0.958112
Zn17	Zn	0.032903	-0.507982	0.423499
Zn18	Zn	0.532903	-0.007982	0.923499
O19	O	0.000767	-0.460805	0.500033
O20	O	0.500767	0.039195	1.000033
N21	N	0.091336	-0.449565	0.481736
N22	N	0.591336	0.050435	0.981736
N23	N	0.009203	-0.531680	0.399875
N24	N	0.509203	-0.031680	0.899875
C25	C	0.142510	-0.268211	0.532817
C26	C	0.642510	0.231789	1.032817
C27	C	0.142641	-0.398441	0.662987
C28	C	0.642641	0.101559	1.162987
C29	C	0.142524	-0.398421	0.532817
C30	C	0.642524	0.101579	1.032817
C31	C	0.272762	-0.398394	0.532723
C32	C	0.772762	0.101606	1.032723
C33	C	0.156853	-0.311177	0.547124
C34	C	0.656853	0.188823	1.047124
C35	C	0.156928	-0.384109	0.620020
C36	C	0.656928	0.115891	1.120020
C37	C	0.229794	-0.384081	0.547073
C38	C	0.729794	0.115919	1.047073
C39	C	0.156863	-0.384097	0.547124
C40	C	0.656863	0.115903	1.047124
C41	C	0.124253	-0.213522	0.514606
C42	C	0.624253	0.286478	1.014606
C43	C	0.124277	-0.416652	0.514606
C44	C	0.624277	0.083348	1.014606
C45	C	0.175110	-0.365866	0.565335
C46	C	0.675110	0.134134	1.065335
C47	C	0.352285	-0.384669	0.490824
C48	C	0.852285	0.115331	0.990824
C49	C	0.401998	-0.401229	0.474223
C50	C	0.901998	0.098771	0.974223
C51	C	0.402027	-0.481671	0.504898
C52	C	0.902027	0.018329	1.004898
C53	C	0.352316	-0.465109	0.521500
C54	C	0.852316	0.034891	1.021500
C55	C	0.136220	-0.188652	0.465734
C56	C	0.636220	0.311348	0.965734
C57	C	0.119621	-0.138936	0.449181
C58	C	0.619621	0.361064	0.949181
C59	C	0.079092	-0.138961	0.530374
C60	C	0.579092	0.361039	1.030374
C61	C	0.095691	-0.188678	0.546927
C62	C	0.595691	0.311322	1.046927
C63	C	0.075398	-0.404656	0.526651
C64	C	0.575398	0.095344	1.026651
C65	C	0.058814	-0.421229	0.510091
C66	C	0.558814	0.078771	1.010091
C67	C	0.139984	-0.461794	0.469452
C68	C	0.639984	0.038206	0.969452
C69	C	0.156570	-0.445221	0.486007
C70	C	0.656570	0.054779	0.986007
C71	C	0.075593	-0.404694	0.742565
C72	C	0.575593	0.095306	1.242565
C73	C	0.059066	-0.421281	0.792280
C74	C	0.559066	0.078719	1.292280
C75	C	0.140274	-0.461856	0.792215
C76	C	0.640274	0.038144	1.292215
C77	C	0.156800	-0.445269	0.742499
C78	C	0.656800	0.054731	1.242499
C79	C	0.124458	-0.416687	0.717675
C80	C	0.624458	0.083313	1.217675
C81	C	0.327446	-0.416608	0.514460
C82	C	0.827446	0.083392	1.014460
C83	C	-0.023585	-0.564792	0.161919
C84	C	0.476415	-0.064792	0.661919
C85	C	-0.023910	-0.769260	0.366530
C86	C	0.476090	-0.269260	0.866530
C87	C	-0.023880	-0.564780	0.366623
C88	C	0.476120	-0.064780	0.866623
C89	C	-0.228325	-0.564561	0.366222
C90	C	0.271675	-0.064561	0.866222
C91	C	-0.129610	-0.597564	0.333467
C92	C	0.370390	-0.097564	0.833467
C93	C	-0.056729	-0.597644	0.333613
C94	C	0.443271	-0.097644	0.833613
C95	C	-0.074925	-0.615849	0.315324
C96	C	0.425075	-0.115849	0.815324
C97	C	-0.088689	-0.695351	0.357144
C98	C	0.411311	-0.195351	0.857144
C99	C	-0.072155	-0.745068	0.373736
C100	C	0.427845	-0.245068	0.873736
C101	C	0.008283	-0.745150	0.343188
C102	C	0.508283	-0.245150	0.843188
C103	C	-0.008252	-0.695435	0.326596
C104	C	0.491748	-0.195435	0.826596
C105	C	-0.154529	-0.609541	0.382326
C106	C	0.345471	-0.109541	0.882326
C107	C	-0.204241	-0.592916	0.398818
C108	C	0.295759	-0.092916	0.898818
C109	C	-0.204114	-0.552341	0.317588
C110	C	0.295886	-0.052341	0.817588
C111	C	-0.154401	-0.568966	0.301096
C112	C	0.345599	-0.068966	0.801096
C113	C	-0.068707	-0.548770	0.321590
C114	C	0.431293	-0.048770	0.821590
C115	C	-0.052166	-0.532225	0.338221
C116	C	0.447834	-0.032225	0.838221
C117	C	-0.011669	-0.613425	0.378886
C118	C	0.488331	-0.113425	0.878886
C119	C	-0.028210	-0.629972	0.362261
C120	C	0.471790	-0.129972	0.862261
C121	C	-0.068581	-0.548777	0.235758
C122	C	0.431419	-0.048777	0.735758
C123	C	-0.051939	-0.532234	0.186043
C124	C	0.448061	-0.032234	0.686043
C125	C	-0.011379	-0.613438	0.186090
C126	C	0.488621	-0.113438	0.686090
C127	C	-0.028020	-0.629981	0.235806
C128	C	0.471980	-0.129981	0.735806
C129	C	-0.056622	-0.597649	0.260639
C130	C	0.443378	-0.097649	0.760639
C131	C	-0.056739	-0.670537	0.333576
C132	C	0.443261	-0.170537	0.833576
C133	C	-0.005614	-0.545951	0.107238
C134	C	0.494386	-0.045951	0.607238
C135	C	-0.006360	-0.823943	0.385033
C136	C	0.493640	-0.323943	0.885033
C137	C	-0.005995	-0.545937	0.384582
C138	C	0.494005	-0.045937	0.884582
C139	C	-0.283006	-0.545971	0.383725
C140	C	0.216994	-0.045971	0.883725
N141	N	0.426163	-0.449489	0.481488
N142	N	0.926163	0.050511	0.981488
O143	O	0.588601	-0.457377	0.364497
O144	O	1.088601	0.042623	0.864497
O145	O	0.588789	-0.549696	0.489801
O146	O	1.088789	-0.049696	0.989801
O147	O	0.588709	-0.549485	0.410335
O148	O	1.088709	-0.049485	0.910335
O149	O	0.588681	-0.457588	0.443963
O150	O	1.088681	0.042412	0.943963
O151	O	0.509731	-0.523223	0.436741
O152	O	1.009731	-0.023223	0.936741
O153	O	0.509811	-0.523434	0.516207
O154	O	1.009811	-0.023434	1.016207
O155	O	0.509624	-0.431115	0.390903
O156	O	1.009624	0.068885	0.890903
Zn157	Zn	0.497178	-0.473105	0.457747
Zn158	Zn	0.997178	0.026895	0.957747
Zn159	Zn	0.601234	-0.507706	0.422956
Zn160	Zn	1.101234	-0.007706	0.922956
O161	O	0.509704	-0.431326	0.470368
O162	O	1.009704	0.068674	0.970368
N163	N	0.672250	-0.531322	0.399211
N164	N	1.172250	-0.031322	0.899211
N165	N	0.091303	-0.114798	0.481730
N166	N	0.591303	0.385202	0.981730
O167	O	-0.025603	0.047729	0.473733
O168	O	0.474397	0.547729	0.973733
O169	O	0.099703	0.047764	0.381394
O170	O	0.599703	0.547764	0.881394
O171	O	0.020199	0.047731	0.381655
O172	O	0.520199	0.547731	0.881655
O173	O	0.053901	0.047761	0.473472
O174	O	0.553901	0.547761	0.973472
O175	O	0.046564	-0.031252	0.407974
O176	O	0.546564	0.468748	0.907974
O177	O	0.126068	-0.031219	0.407713
O178	O	0.626068	0.468781	0.907713
O179	O	0.000762	-0.031254	0.500052
O180	O	0.500762	0.468746	1.000052
Zn181	Zn	0.067601	-0.043777	0.458061
Zn182	Zn	0.567601	0.456223	0.958061
Zn183	Zn	0.032864	0.060287	0.423385
Zn184	Zn	0.532864	0.560287	0.923385
O185	O	0.080266	-0.031222	0.499791
O186	O	0.580266	0.468778	0.999791
N187	N	0.009156	0.131307	0.399717
N188	N	0.509156	0.631307	0.899717
N189	N	0.091635	-0.449614	0.816396
N190	N	0.591635	0.050386	1.316396
O191	O	0.083664	-0.566502	0.978913
O192	O	0.583664	-0.066502	1.478913
O193	O	-0.008637	-0.441152	0.978954
O194	O	0.491363	0.058848	1.478954
O195	O	-0.008421	-0.520640	0.978930
O196	O	0.491579	-0.020640	1.478930
O197	O	0.083448	-0.487013	0.978936
O198	O	0.583448	0.012987	1.478936
O199	O	0.017877	-0.494296	0.899950
O200	O	0.517877	0.005704	1.399950
O201	O	0.017661	-0.414807	0.899974
O202	O	0.517661	0.085193	1.399974
O203	O	0.109961	-0.540157	0.899933
O204	O	0.609961	-0.040157	1.399933
Zn205	Zn	0.067986	-0.473299	0.887414
Zn206	Zn	0.567986	0.026701	1.387414
Zn207	Zn	0.033338	-0.508010	0.991473
Zn208	Zn	0.533338	-0.008010	1.491473
O209	O	0.109746	-0.460669	0.899956
O210	O	0.609746	0.039331	1.399956
N211	N	0.009689	-0.531700	1.062491
N212	N	0.509689	-0.031700	1.562491
C213	C	0.030367	-0.412095	0.382120
C214	C	0.530367	0.087905	0.882120
C215	C	0.128741	-0.510370	0.382016
C216	C	0.628741	-0.010370	0.882016
C217	C	0.070168	-0.569147	0.499490
C218	C	0.570168	-0.069147	0.999490
C219	C	-0.028207	-0.470871	0.499595
C220	C	0.471793	0.029129	0.999595
C221	C	0.549323	-0.549278	0.518791
C222	C	1.049323	-0.049278	1.018791
C223	C	0.549225	-0.549017	0.420381
C224	C	1.049225	-0.049017	0.920381
C225	C	0.549087	-0.431532	0.361914
C226	C	1.049087	0.068468	0.861914
C227	C	0.549188	-0.431794	0.460322
C228	C	1.049188	0.068206	0.960322
C229	C	0.128638	0.008374	0.381806
C230	C	0.628638	0.508374	0.881806
C231	C	0.030215	0.008236	0.382161
C232	C	0.530215	0.508236	0.882161
C233	C	-0.028206	0.008233	0.499608
C234	C	0.471794	0.508233	0.999608
C235	C	0.070250	0.008272	0.499285
C236	C	0.570250	0.508272	0.999285
C237	C	-0.008199	-0.412187	0.939469
C238	C	0.491801	0.087813	1.439469
C239	C	-0.007927	-0.510619	0.939425
C240	C	0.492073	-0.010619	1.439425
C241	C	0.109523	-0.569121	0.939417
C242	C	0.609523	-0.069121	1.439417
C243	C	0.109257	-0.470684	0.939444
C244	C	0.609257	0.029316	1.439444
H245	H	0.019274	-0.411508	0.812539
H246	H	0.519274	0.088492	1.312539
H247	H	0.164745	-0.517463	0.353068
H248	H	0.664745	-0.017463	0.853068
H249	H	0.077330	-0.605181	0.528391
H250	H	0.577330	-0.105181	1.028391
H251	H	0.549371	-0.578259	0.554780
H252	H	1.049371	-0.078259	1.054780
C253	C	-0.106216	0.008223	0.521853
C254	C	0.393784	0.508223	1.021853
C255	C	-0.076789	0.008232	0.538739
C256	C	0.423211	0.508232	1.038739
H257	H	-0.136210	0.008228	0.546010
H258	H	0.363790	0.508228	1.046010
H259	H	-0.092016	-0.019324	0.513237
H260	H	0.407984	0.480676	1.013237
H261	H	-0.110385	0.035763	0.494865
H262	H	0.389615	0.535763	0.994865
H263	H	-0.072616	-0.019310	0.565726
H264	H	0.427384	0.480690	1.065726
H265	H	-0.090992	0.035781	0.547362
H266	H	0.409008	0.535781	1.047362
C267	C	0.549308	-0.628741	0.451119
C268	C	1.049308	-0.128741	0.951119
C269	C	0.549240	-0.587992	0.410672
C270	C	1.049240	-0.087992	0.910672
H271	H	0.549321	-0.652803	0.445123
H272	H	1.049321	-0.152803	0.945123
H273	H	0.521787	-0.621372	0.477037
H274	H	1.021787	-0.121372	0.977037
H275	H	0.576869	-0.639687	0.458622
H276	H	1.076869	-0.139687	0.958622
H277	H	0.521677	-0.577044	0.403171
H278	H	1.021677	-0.077044	0.903171
H279	H	0.576765	-0.595361	0.384746
H280	H	1.076765	-0.095361	0.884746
H281	H	-0.036776	-0.517804	0.939391
H282	H	0.463224	-0.017804	1.439391
C283	C	0.548989	-0.409314	0.283935
C284	C	1.048989	0.090686	0.783935
C285	C	0.549009	-0.392401	0.313335
C286	C	1.049009	0.107599	0.813335
H287	H	0.548943	-0.385157	0.253944
H288	H	1.048943	0.114843	0.753944
H289	H	0.521467	-0.417968	0.298167
H290	H	1.021467	0.082032	0.798167
H291	H	0.576550	-0.436285	0.279749
H292	H	1.076550	0.063715	0.779749
H293	H	0.521446	-0.365433	0.317524
H294	H	1.021446	0.134567	0.817524
H295	H	0.576533	-0.383741	0.299100
H296	H	1.076533	0.116259	0.799100
H297	H	0.022995	0.008233	0.353314
H298	H	0.522995	0.508233	0.853314
H299	H	-0.061921	-0.492427	0.328433
H300	H	0.438079	0.007573	0.828433
H301	H	0.138503	-0.605120	0.939399
H302	H	0.638503	-0.105120	1.439399
H303	H	0.138119	-0.463487	0.939440
H304	H	0.638119	0.036513	1.439440
C305	C	0.126343	0.008281	0.521103
C306	C	0.626343	0.508281	1.021103
C307	C	0.079994	0.008271	0.538233
C308	C	0.579994	0.508271	1.038233
H309	H	0.132359	0.008275	0.545150
H310	H	0.632359	0.508275	1.045150
H311	H	0.129859	0.035829	0.494103
H312	H	0.629859	0.535829	0.994103
H313	H	0.148244	-0.019258	0.512444
H314	H	0.648244	0.480742	1.012444
H315	H	0.058093	0.035812	0.546889
H316	H	0.558093	0.535812	1.046889
H317	H	0.076474	-0.019279	0.565241
H318	H	0.576474	0.480721	1.065241
H319	H	0.023205	-0.376060	0.353221
H320	H	0.523205	0.123940	0.853221
H321	H	0.049100	-0.381393	0.549936
H322	H	0.549100	0.118607	1.049936
H323	H	-0.064213	-0.463781	0.528541
H324	H	0.435787	0.036219	1.028541
C325	C	-0.031277	-0.327976	0.898892
C326	C	0.468723	0.172024	1.398892
C327	C	-0.047319	-0.363589	0.939485
C328	C	0.452681	0.136411	1.439485
H329	H	-0.055428	-0.297973	0.898904
H330	H	0.444572	0.202027	1.398904
H331	H	-0.023818	-0.333768	0.871351
H332	H	0.476182	0.166232	1.371351
H333	H	-0.003709	-0.328030	0.898895
H334	H	0.496291	0.171970	1.398895
H335	H	-0.074885	-0.363537	0.939480
H336	H	0.425115	0.136463	1.439480
H337	H	-0.054785	-0.357795	0.967033
H338	H	0.445215	0.142205	1.467033
C339	C	0.549232	-0.409934	0.516367
C340	C	1.049232	0.090066	1.016367
C341	C	0.549174	-0.392820	0.470032
C342	C	1.049174	0.107180	0.970032
H343	H	0.549220	-0.385871	0.522361
H344	H	1.049220	0.114129	1.022361
H345	H	0.576796	-0.436922	0.519873
H346	H	1.076796	0.063078	1.019873
H347	H	0.521713	-0.418608	0.538291
H348	H	1.021713	0.081392	1.038291
H349	H	0.576694	-0.384148	0.448108
H350	H	1.076694	0.115852	0.948108
H351	H	0.521607	-0.365823	0.466521
H352	H	1.021607	0.134177	0.966521
H353	H	0.166612	-0.485121	0.812425
H354	H	0.666612	0.014879	1.312425
C355	C	-0.006341	-0.366252	0.747627
C356	C	0.493659	0.133748	1.247627
C357	C	0.040040	-0.373274	0.715281
C358	C	0.540040	0.126726	1.215281
H359	H	-0.028289	-0.346859	0.730782
H360	H	0.471711	0.153141	1.230782
H361	H	-0.011098	-0.351077	0.767015
H362	H	0.488902	0.148923	1.267015
H363	H	-0.011093	-0.396057	0.767017
H364	H	0.488907	0.103943	1.267017
H365	H	0.044793	-0.343469	0.695893
H366	H	0.544793	0.156531	1.195893
H367	H	0.044798	-0.388448	0.695885
H368	H	0.544798	0.111552	1.195885
C369	C	0.212912	-0.031818	0.358432
C370	C	0.712912	0.468182	0.858432
C371	C	0.177119	0.008684	0.342576
C372	C	0.677119	0.508684	0.842576
H373	H	0.242842	-0.031625	0.334214
H374	H	0.742842	0.468375	0.834214
H375	H	0.207276	-0.059422	0.365819
H376	H	0.707276	0.440578	0.865819
H377	H	0.212895	-0.031869	0.386012
H378	H	0.712895	0.468131	0.886012
H379	H	0.177133	0.008734	0.314998
H380	H	0.677133	0.508734	0.814998
H381	H	0.182756	0.036296	0.335182
H382	H	0.682756	0.536296	0.835182
C383	C	0.235411	-0.487035	0.747431
C384	C	0.735411	0.012965	1.247431
C385	C	0.210517	-0.458451	0.715142
C386	C	0.710517	0.041549	1.215142
H387	H	0.268573	-0.495169	0.730541
H388	H	0.768573	0.004831	1.230541
H389	H	0.227282	-0.515150	0.766820
H390	H	0.727282	-0.015150	1.266820
H391	H	0.227267	-0.470168	0.766825
H392	H	0.727267	0.029832	1.266825
H393	H	0.218659	-0.475319	0.695750
H394	H	0.718659	0.024681	1.195750
H395	H	0.218650	-0.430332	0.695744
H396	H	0.718650	0.069668	1.195744
H397	H	0.166284	-0.485062	0.446169
H398	H	0.666284	0.014938	0.946169
C399	C	-0.015443	-0.424933	0.572777
C400	C	0.484557	0.075067	1.072777
C401	C	0.005086	-0.408052	0.523330
C402	C	0.505086	0.091948	1.023330
H403	H	-0.048611	-0.416802	0.580949
H404	H	0.451389	0.083198	1.080949
H405	H	-0.010192	-0.410972	0.586729
H406	H	0.489808	0.089028	1.086729
H407	H	-0.001452	-0.458477	0.584185
H408	H	0.498548	0.041523	1.084185
H409	H	-0.008902	-0.374508	0.511922
H410	H	0.491098	0.125492	1.011922
H411	H	-0.000168	-0.422012	0.509372
H412	H	0.499832	0.077988	1.009372
C413	C	0.235140	-0.486972	0.444160
C414	C	0.735140	0.013028	0.944160
C415	C	0.210299	-0.458399	0.472762
C416	C	0.710299	0.041601	0.972762
H417	H	0.268309	-0.495107	0.435984
H418	H	0.768309	0.004893	0.935984
H419	H	0.226954	-0.470100	0.416071
H420	H	0.726954	0.029900	0.916071
H421	H	0.227009	-0.515091	0.461033
H422	H	0.727009	-0.015091	0.961033
H423	H	0.218427	-0.430278	0.455888
H424	H	0.718427	0.069722	0.955888
H425	H	0.218489	-0.475271	0.500855
H426	H	0.718489	0.024729	1.000855
H427	H	0.332093	-0.491119	0.540748
H428	H	0.832093	0.008881	1.040748
H429	H	0.422274	-0.521162	0.510626
H430	H	0.922274	-0.021162	1.010626
C431	C	0.296390	-0.324572	0.527127
C432	C	0.796390	0.175428	1.027127
C433	C	0.324946	-0.331355	0.483088
C434	C	0.824946	0.168645	0.983088
H435	H	0.279511	-0.291658	0.522349
H436	H	0.779511	0.208342	1.022349
H437	H	0.315803	-0.336229	0.545320
H438	H	0.815803	0.163771	1.045320
H439	H	0.274481	-0.341225	0.543576
H440	H	0.774481	0.158775	1.043576
H441	H	0.346857	-0.314705	0.466641
H442	H	0.846857	0.185295	0.966641
H443	H	0.305531	-0.319692	0.464888
H444	H	0.805531	0.180308	0.964888
C445	C	0.396981	-0.320051	0.445560
C446	C	0.896981	0.179949	0.945560
C447	C	0.429306	-0.366121	0.448236
C448	C	0.929306	0.133879	0.948236
H449	H	0.413841	-0.298378	0.429512
H450	H	0.913841	0.201622	0.929512
H451	H	0.377616	-0.318787	0.476706
H452	H	0.877616	0.181213	0.976706
H453	H	0.377567	-0.311742	0.428641
H454	H	0.877567	0.188258	0.928641
H455	H	0.448717	-0.374431	0.465159
H456	H	0.948717	0.125569	0.965159
H457	H	0.448679	-0.367386	0.417085
H458	H	0.948679	0.132614	0.917085
H459	H	0.159477	-0.208876	0.439413
H460	H	0.659477	0.291124	0.939413
H461	H	0.055841	-0.118733	0.556693
H462	H	0.555841	0.381267	1.056693
C463	C	0.115899	-0.123615	0.374904
C464	C	0.615899	0.376385	0.874904
C465	C	0.132773	-0.111595	0.395459
C466	C	0.632773	0.388405	0.895459
H467	H	0.124020	-0.106739	0.341738
H468	H	0.624020	0.393261	0.841738
H469	H	0.082364	-0.115479	0.388889
H470	H	0.582364	0.384521	0.888889
H471	H	0.129876	-0.156781	0.380140
H472	H	0.629876	0.343219	0.880140
H473	H	0.118792	-0.078430	0.390226
H474	H	0.618792	0.421570	0.890226
H475	H	0.166314	-0.119728	0.381469
H476	H	0.666314	0.380272	0.881469
C477	C	0.053962	-0.183705	0.625518
C478	C	0.553962	0.316295	1.125518
C479	C	0.082537	-0.216013	0.600648
C480	C	0.582537	0.283987	1.100648
H481	H	0.045844	-0.200583	0.658685
H482	H	0.545844	0.299417	1.158685
H483	H	0.025841	-0.164322	0.617389
H484	H	0.525841	0.335678	1.117389
H485	H	0.070827	-0.164306	0.617353
H486	H	0.570827	0.335694	1.117353
H487	H	0.065671	-0.235410	0.608811
H488	H	0.565671	0.264590	1.108811
H489	H	0.110663	-0.235405	0.608781
H490	H	0.610663	0.264595	1.108781
H491	H	-0.091873	-0.522445	0.255974
H492	H	0.408127	-0.022445	0.755974
C493	C	-0.093716	-0.453628	0.190996
C494	C	0.406284	0.046372	0.690996
C495	C	-0.065095	-0.478509	0.158698
C496	C	0.434905	0.021491	0.658698
H497	H	-0.101840	-0.420462	0.174113
H498	H	0.398160	0.079538	0.674113
H499	H	-0.076886	-0.461789	0.210429
H500	H	0.423114	0.038211	0.710429
H501	H	-0.121837	-0.461755	0.210345
H502	H	0.378163	0.038245	0.710345
H503	H	-0.036972	-0.470386	0.139352
H504	H	0.463028	0.029614	0.639352
H505	H	-0.081924	-0.470345	0.139257
H506	H	0.418076	0.029655	0.639257
H507	H	-0.018278	-0.669778	0.256062
H508	H	0.481722	-0.169778	0.756062
C509	C	0.027033	-0.695369	0.191138
C510	C	0.527033	-0.195369	0.691138
C511	C	0.020054	-0.648980	0.158798
C512	C	0.520054	-0.148980	0.658798
H513	H	0.046441	-0.717311	0.174288
H514	H	0.546441	-0.217311	0.674288
H515	H	-0.002778	-0.700104	0.210481
H516	H	0.497222	-0.200104	0.710481
H517	H	0.042176	-0.700154	0.210573
H518	H	0.542176	-0.200154	0.710573
H519	H	0.004907	-0.644193	0.139365
H520	H	0.504907	-0.144193	0.639365
H521	H	0.049871	-0.644243	0.139447
H522	H	0.549871	-0.144243	0.639447
H523	H	-0.224531	-0.602667	0.438605
H524	H	0.275469	-0.102667	0.938605
C525	C	0.061127	-0.677583	0.385553
C526	C	0.561127	-0.177583	0.885553
C527	C	0.019682	-0.648962	0.410373
C528	C	0.519682	-0.148962	0.910373
H529	H	0.080479	-0.699525	0.404994
H530	H	0.580479	-0.199525	0.904994
H531	H	0.078025	-0.658213	0.357469
H532	H	0.578025	-0.158213	0.857469
H533	H	0.052982	-0.694427	0.377370
H534	H	0.552982	-0.194427	0.877370
H535	H	0.027826	-0.632116	0.418552
H536	H	0.527826	-0.132116	0.918552
H537	H	0.002780	-0.668334	0.438465
H538	H	0.502780	-0.168334	0.938465
C539	C	-0.031961	-0.704264	0.424891
C540	C	0.468039	-0.204264	0.924891
C541	C	-0.015043	-0.683693	0.375453
C542	C	0.484957	-0.183693	0.875453
H543	H	-0.023828	-0.737428	0.433028
H544	H	0.476172	-0.237428	0.933028
H545	H	-0.065499	-0.690272	0.436274
H546	H	0.434501	-0.190272	0.936274
H547	H	-0.018021	-0.699050	0.438900
H548	H	0.481979	-0.199050	0.938900
H549	H	-0.028986	-0.688904	0.361444
H550	H	0.471014	-0.188904	0.861444
H551	H	0.018501	-0.697690	0.364065
H552	H	0.518501	-0.197690	0.864065
H553	H	-0.091926	-0.522444	0.298262
H554	H	0.408074	-0.022444	0.798262
H555	H	0.047765	-0.765423	0.337508
H556	H	0.547765	-0.265423	0.837508
C557	C	0.072919	-0.700512	0.298074
C558	C	0.572919	-0.200512	0.798074
C559	C	0.026870	-0.668157	0.300690
C560	C	0.526870	-0.168157	0.800690
H561	H	0.094601	-0.683671	0.282082
H562	H	0.594601	-0.183671	0.782082
H563	H	0.081252	-0.719905	0.281128
H564	H	0.581252	-0.219905	0.781128
H565	H	0.074136	-0.719897	0.329238
H566	H	0.574136	-0.219897	0.829238
H567	H	0.025653	-0.648774	0.269525
H568	H	0.525653	-0.148774	0.769525
H569	H	0.018536	-0.648756	0.317636
H570	H	0.518536	-0.148756	0.817636
H571	H	-0.128170	-0.675084	0.362831
H572	H	0.371830	-0.175084	0.862831
C573	C	-0.153341	-0.739993	0.402366
C574	C	0.346659	-0.239993	0.902366
C575	C	-0.107286	-0.772346	0.399711
C576	C	0.392714	-0.272346	0.899711
H577	H	-0.175031	-0.756835	0.418425
H578	H	0.324969	-0.256835	0.918425
H579	H	-0.154597	-0.720637	0.371215
H580	H	0.345403	-0.220637	0.871215
H581	H	-0.161629	-0.720570	0.419266
H582	H	0.338371	-0.220570	0.919266
H583	H	-0.098995	-0.791766	0.382808
H584	H	0.401005	-0.291766	0.882808
H585	H	-0.106027	-0.791710	0.430868
H586	H	0.393973	-0.291710	0.930868
H587	H	-0.224299	-0.529059	0.291228
H588	H	0.275701	-0.029059	0.791228
C589	C	-0.159649	-0.647970	0.464276
C590	C	0.340351	-0.147970	0.964276
C591	C	-0.127277	-0.640974	0.417907
C592	C	0.372723	-0.140974	0.917907
H593	H	-0.142825	-0.667374	0.486242
H594	H	0.357175	-0.167374	0.986242
H595	H	-0.179040	-0.663123	0.469011
H596	H	0.320960	-0.163123	0.969011
H597	H	-0.179032	-0.618157	0.469025
H598	H	0.320968	-0.118157	0.969025
H599	H	-0.107897	-0.670787	0.413157
H600	H	0.392103	-0.170787	0.913157
H601	H	-0.107878	-0.625822	0.413170
H602	H	0.392122	-0.125822	0.913170
H603	H	-0.134111	-0.559208	0.261309
H604	H	0.365889	-0.059208	0.761309
