data_functionalizedCrystal
_audit_creation_method	'MofGen! by Chris Wilmer'
_symmetry_space_group_name_H-M	'P1'
_symmetry_Int_Tables_number	1
_symmetry_cell_setting	triclinic
loop_
_symmetry_equiv_pos_as_xyz
  x,y,z
_cell_length_a	14.853567
_cell_length_b	10.489741
_cell_length_c	13.930277
_cell_angle_alpha	89.995758
_cell_angle_beta	89.995755
_cell_angle_gamma	84.087052
loop_
_atom_site_label
_atom_site_type_symbol
_atom_site_fract_x
_atom_site_fract_y
_atom_site_fract_z
O1	O	1.197302	0.166528	-0.079764
O2	O	0.934954	0.186365	-0.079780
O3	O	1.072098	-0.009218	-0.079766
O4	O	1.060158	0.362111	-0.079778
O5	O	1.072078	-0.009222	0.079896
O6	O	0.934935	0.186361	0.079881
O7	O	1.197283	0.166524	0.079898
Zn8	Zn	1.066106	0.176442	0.105239
Zn9	Zn	1.066131	0.176447	-0.105122
O10	O	1.060139	0.362107	0.079883
C11	C	0.901351	0.185464	0.000048
C12	C	0.801252	0.182771	0.000042
C13	C	0.388003	0.055204	0.000068
C14	C	0.368025	0.287562	0.000059
C15	C	0.462072	0.290094	0.000056
C16	C	0.519090	0.175180	0.000057
C17	C	0.482060	0.057733	0.000062
C18	C	0.499110	0.407539	0.000042
C19	C	0.593163	0.410077	0.000038
C20	C	0.650183	0.295161	0.000046
C21	C	0.613147	0.177709	0.000051
C22	C	0.670164	0.062795	0.000053
C23	C	0.633130	-0.054658	0.000065
C24	C	0.539079	-0.057183	0.000070
C25	C	0.744234	0.297685	0.000041
C26	C	0.764221	0.065324	0.000047
C27	C	1.071186	-0.056742	0.000064
C28	C	1.068488	-0.198341	0.000062
C29	C	0.981228	-0.265502	0.000050
C30	C	1.022439	-0.358089	0.078774
C31	C	1.022479	-0.358060	-0.078640
C32	C	1.109736	-0.289063	0.078851
C33	C	1.109763	-0.289024	-0.078633
C34	C	1.151038	-0.381585	0.000110
C35	C	1.230886	0.167425	0.000067
C36	C	1.330985	0.170118	0.000067
C37	C	1.061051	0.409631	0.000051
C38	C	1.063748	0.551230	0.000047
N39	N	1.066095	0.176437	0.248805
N40	N	1.066149	0.176442	-0.248688
C41	C	1.005401	0.263018	0.701068
C42	C	1.126886	0.089867	0.701050
C43	C	1.126875	0.089863	0.600555
C44	C	1.066127	0.176439	0.550311
C45	C	1.005390	0.263019	0.600563
C46	C	1.187617	0.003293	0.550295
C47	C	1.187609	0.003287	0.449793
C48	C	1.126857	0.089858	0.399548
C49	C	1.066117	0.176440	0.449806
C50	C	1.005369	0.263016	0.399563
C51	C	0.944624	0.349593	0.449819
C52	C	0.944638	0.349590	0.550318
C53	C	1.126843	0.089861	0.299049
C54	C	1.005358	0.263017	0.299058
H55	H	0.679566	-0.148221	0.000060
N56	N	1.192331	-0.003519	0.244829
H57	H	1.232553	0.045319	0.203111
H58	H	1.230759	-0.058352	0.291958
N59	N	0.784177	0.424352	0.000033
H60	H	0.852410	0.408519	0.000032
H61	H	0.763378	0.474638	-0.059160
H62	H	0.895166	0.420090	0.408899
N63	N	0.437614	0.531472	0.000000
H64	H	0.475344	0.606259	-0.000026
H65	H	0.398174	0.535437	-0.059199
N66	N	1.192393	-0.003518	0.755239
H67	H	1.230864	-0.058369	0.708153
H68	H	1.232571	0.045410	0.796928
N69	N	0.886195	-0.198667	0.000142
H70	H	0.877060	-0.142669	0.059032
H71	H	0.876660	-0.143955	-0.059375
H72	H	0.955941	0.333505	0.741990
N73	N	1.253114	-0.090085	0.604501
H74	H	1.242139	-0.180637	0.587016
H75	H	1.317170	-0.075136	0.586998
H76	H	0.357845	-0.040424	0.000082
H77	H	0.508917	-0.152807	0.000103
N78	N	0.633105	0.536749	0.000018
H79	H	0.582712	0.609161	0.000015
H80	H	0.671690	0.542866	0.059204
H81	H	1.222848	-0.431815	0.000158
N82	N	1.253111	-0.090099	0.395588
H83	H	1.293337	-0.041259	0.353875
H84	H	1.291535	-0.144923	0.442726
H85	H	0.321596	0.381119	0.000050
N86	N	0.973522	-0.398608	0.166931
H87	H	0.919355	-0.443035	0.146849
H88	H	1.015875	-0.459316	0.206333
N89	N	1.158595	-0.248790	0.167110
H90	H	1.160093	-0.152750	0.166586
H91	H	1.125845	-0.274577	0.226446
N92	N	1.158648	-0.248447	-0.166787
H93	H	1.125638	-0.273257	-0.226226
H94	H	1.160613	-0.152503	-0.165705
H95	H	0.810640	-0.028255	0.000051
N96	N	0.973563	-0.398549	-0.166795
H97	H	0.952666	-0.320497	-0.206492
H98	H	1.015896	-0.459322	-0.206169
N99	N	0.939829	0.356387	0.244869
H100	H	0.901352	0.411226	0.291957
H101	H	0.974698	0.412873	0.203162
N102	N	0.879125	0.442962	0.604521
H103	H	0.888354	0.429826	0.675810
H104	H	0.890119	0.533476	0.586946
