data_functionalizedCrystal
_audit_creation_method	'MofGen! by Chris Wilmer'
_symmetry_space_group_name_H-M	'P1'
_symmetry_Int_Tables_number	1
_symmetry_cell_setting	triclinic
loop_
_symmetry_equiv_pos_as_xyz
  x,y,z
_cell_length_a	19.288856
_cell_length_b	18.366186
_cell_length_c	19.288865
_cell_angle_alpha	89.988521
_cell_angle_beta	96.865496
_cell_angle_gamma	90.011039
loop_
_atom_site_label
_atom_site_type_symbol
_atom_site_fract_x
_atom_site_fract_y
_atom_site_fract_z
O1	O	-0.921356	-0.060591	0.086620
O2	O	-0.719095	-0.060586	0.098315
O3	O	-0.826070	-0.060575	-0.008663
O4	O	-0.814381	-0.060603	0.193598
O5	O	-0.826052	0.060525	-0.008668
O6	O	-0.719077	0.060513	0.098310
O7	O	-0.921338	0.060508	0.086615
Zn8	Zn	-0.820205	0.079738	0.092462
Zn9	Zn	-0.820229	-0.079816	0.092469
O10	O	-0.814363	0.060496	0.193593
C11	C	-0.693209	-0.000036	0.097937
C12	C	-0.616106	-0.000034	0.096811
C13	C	-0.052064	-0.000031	0.151959
C14	C	-0.124511	-0.000036	0.153024
C15	C	-0.169218	-0.000027	0.090254
C16	C	-0.141472	-0.000031	0.026415
C17	C	-0.069027	-0.000033	0.025352
C18	C	-0.290482	0.042406	0.043438
C19	C	-0.362925	0.042413	0.044504
C20	C	-0.392664	-0.000025	0.093530
C21	C	-0.349948	-0.042459	0.141502
C22	C	-0.277502	-0.042461	0.140439
C23	C	-0.247773	-0.000025	0.091399
C24	C	-0.498955	-0.000032	0.158519
C25	C	-0.571404	-0.000042	0.159581
C26	C	-0.588364	-0.000029	0.032971
C27	C	-0.515917	-0.000026	0.031910
C28	C	-0.471217	-0.000024	0.094687
C29	C	-0.825685	-0.000023	-0.034542
C30	C	-0.824556	-0.000016	-0.111645
C31	C	0.052776	-0.000039	0.086995
C32	C	-0.024327	-0.000031	0.088128
N33	N	-0.820194	0.188629	0.092457
N34	N	-0.820245	-0.188707	0.092468
C35	C	-0.867578	0.226734	0.045110
C36	C	-0.867582	0.302962	0.045107
C37	C	-0.820209	0.341082	0.092462
C38	C	-0.772816	0.302967	0.139813
C39	C	-0.772808	0.226740	0.139810
C40	C	-0.810911	0.461833	0.155751
C41	C	-0.810923	0.538058	0.155754
C42	C	-0.820229	0.576189	0.092471
C43	C	-0.829536	0.538086	0.029181
C44	C	-0.829529	0.461859	0.029178
C45	C	-0.820212	0.423736	0.092471
C46	C	-0.867620	0.696950	0.045117
C47	C	-0.867620	0.773179	0.045113
C48	C	-0.772857	0.773182	0.139825
C49	C	-0.772854	0.696954	0.139823
C50	C	-0.820239	0.658843	0.092470
C51	C	-0.887324	-0.000014	-0.156343
C52	C	-0.886263	-0.000026	-0.228790
C53	C	-0.822431	-0.000025	-0.256536
C54	C	-0.759655	-0.000031	-0.211828
C55	C	-0.760717	-0.000027	-0.139383
C56	C	-0.772245	0.042395	-0.364824
C57	C	-0.771185	0.042395	-0.437268
C58	C	-0.819151	-0.000041	-0.479982
C59	C	-0.868189	-0.042468	-0.450243
C60	C	-0.869252	-0.042464	-0.377798
C61	C	-0.821272	-0.000030	-0.335090
C62	C	-0.880774	-0.000052	-0.603236
C63	C	-0.879710	-0.000068	-0.675684
C64	C	-0.753100	-0.000066	-0.658720
C65	C	-0.754165	-0.000057	-0.586273
C66	C	-0.818004	-0.000047	-0.558536
C67	C	-0.814748	-0.000057	0.219472
C68	C	-0.815877	-0.000068	0.296576
H69	H	-0.242726	-0.077013	0.179498
H70	H	-0.837113	0.569130	-0.022350
N71	N	-0.154441	-0.000028	0.221871
H72	H	-0.184131	-0.044918	0.225141
H73	H	-0.115094	-0.000000	0.261437
H74	H	-0.374158	-0.077013	0.181425
H75	H	-0.906202	0.665918	0.006557
H76	H	-0.906203	0.804205	0.006554
N77	N	-0.953965	-0.000025	-0.277013
H78	H	-0.994567	-0.000019	-0.248448
H79	H	-0.956268	0.044868	-0.307449
H80	H	-0.593985	-0.000048	0.211562
N81	N	-0.450737	-0.000038	0.226223
H82	H	-0.479305	-0.000046	0.266823
H83	H	-0.420318	-0.044931	0.228539
N84	N	-0.721745	0.655856	0.190895
H85	H	-0.729588	0.669106	0.240173
H86	H	-0.728950	0.601795	0.183649
H87	H	-0.624764	-0.000027	-0.018138
H88	H	-0.909179	-0.077011	-0.353588
N89	N	-0.485995	-0.000020	-0.036936
H90	H	-0.525307	-0.000014	-0.076540
H91	H	-0.456298	0.044873	-0.040137
N92	N	-0.686461	-0.000047	-0.538063
H93	H	-0.684074	0.044846	-0.507638
H94	H	-0.684124	-0.044967	-0.507662
N95	N	-0.947413	-0.000061	-0.723899
H96	H	-0.949807	-0.044956	-0.754323
H97	H	-0.987974	-0.000024	-0.695283
H98	H	-0.906160	0.195706	0.006551
H99	H	-0.731253	0.076938	-0.461475
N100	N	-0.956176	-0.000004	-0.126426
H101	H	-0.995778	-0.000005	-0.165740
H102	H	-0.959384	-0.044896	-0.096729
N103	N	-0.258401	0.088190	-0.009430
H104	H	-0.232343	0.055700	-0.039703
H105	H	-0.296483	0.115076	-0.039607
H106	H	-0.907248	-0.077024	-0.485019
H107	H	-0.733183	0.076956	-0.330052
H108	H	-0.707682	-0.000032	-0.234423
H109	H	-0.177877	-0.000025	-0.024693
H110	H	-0.397699	0.076969	0.005445
N111	N	-0.949624	-0.000044	-0.573312
H112	H	-0.989228	-0.000051	-0.612624
H113	H	-0.952829	-0.044933	-0.543610
N114	N	-0.693015	-0.000029	-0.091167
H115	H	-0.652414	-0.000033	-0.119733
H116	H	-0.690691	0.044867	-0.060751
H117	H	-0.046445	-0.000033	-0.026628
H118	H	-0.837105	0.430839	-0.022354
H119	H	-0.015673	-0.000033	0.203076
N120	N	-0.721755	0.814285	0.190897
H121	H	-0.728948	0.868357	0.183714
H122	H	-0.729619	0.800947	0.240153
H123	H	-0.906169	0.333994	0.006550
H124	H	-0.803349	0.569076	0.207288
N125	N	-0.800875	0.420709	0.224010
H126	H	-0.794988	0.456412	0.264102
H127	H	-0.843056	0.389070	0.227952
H128	H	-0.734243	0.334007	0.178369
H129	H	-0.734222	0.195714	0.178366
N130	N	-0.684250	-0.000073	-0.688634
H131	H	-0.693100	-0.000078	-0.741311
H132	H	-0.656784	0.044820	-0.672279
