data_functionalizedCrystal
_audit_creation_method	'MofGen! by Chris Wilmer'
_symmetry_space_group_name_H-M	'P1'
_symmetry_Int_Tables_number	1
_symmetry_cell_setting	triclinic
loop_
_symmetry_equiv_pos_as_xyz
  x,y,z
_cell_length_a	6.817900
_cell_length_b	17.982723
_cell_length_c	17.982968
_cell_angle_alpha	95.930238
_cell_angle_beta	102.451960
_cell_angle_gamma	102.447564
loop_
_atom_site_label
_atom_site_type_symbol
_atom_site_fract_x
_atom_site_fract_y
_atom_site_fract_z
V1	V	-4.009918	-0.106128	-0.237875
V2	V	-3.509918	0.393872	0.262125
O3	O	-4.003034	0.004365	-0.233013
O4	O	-3.503034	0.504365	0.266987
O5	O	-3.956470	-0.209727	-0.236568
O6	O	-3.456470	0.290273	0.263432
O7	O	-3.956489	-0.104817	-0.341474
O8	O	-3.456489	0.395183	0.158526
O9	O	-4.003015	-0.101270	-0.127382
O10	O	-3.503015	0.398730	0.372618
V11	V	-4.494852	-0.092873	-0.224620
V12	V	-3.994852	0.407127	0.275380
O13	O	-4.268082	-0.135202	-0.266950
O14	O	-3.768082	0.364798	0.233050
O15	O	-4.686885	-0.063799	-0.195544
O16	O	-4.186885	0.436201	0.304456
O17	O	-4.325093	0.010726	-0.225926
O18	O	-3.825093	0.510726	0.274074
O19	O	-4.619133	-0.203367	-0.229481
O20	O	-4.119133	0.296633	0.270519
O21	O	-4.619152	-0.097731	-0.335113
O22	O	-4.119152	0.402269	0.164887
O23	O	-4.325074	-0.094184	-0.121021
O24	O	-3.825074	0.405816	0.378979
C25	C	-3.800406	-0.234972	-0.232898
C26	C	-3.300406	0.265028	0.267102
C27	C	-3.837959	-0.319668	-0.232521
C28	C	-3.337959	0.180332	0.267479
C29	C	-3.800429	-0.101149	-0.366715
C30	C	-3.300429	0.398851	0.133285
C31	C	-3.837995	-0.100763	-0.451410
C32	C	-3.337995	0.399237	0.048590
C33	C	-4.250276	-0.843438	-0.233974
C34	C	-3.750276	-0.343438	0.266026
C35	C	-4.214981	-0.763858	-0.234332
C36	C	-3.714981	-0.263858	0.265668
C37	C	-4.015595	-0.720179	-0.230698
C38	C	-3.515595	-0.220179	0.269302
C39	C	-3.851491	-0.756083	-0.226698
C40	C	-3.351491	-0.256083	0.273302
C41	C	-3.886785	-0.835662	-0.226334
C42	C	-3.386785	-0.335662	0.273666
C43	C	-3.709150	-0.435153	-0.228163
C44	C	-3.209150	0.064847	0.271837
C45	C	-3.673869	-0.355570	-0.228529
C46	C	-3.173869	0.144430	0.271471
C47	C	-4.037346	-0.363349	-0.236160
C48	C	-3.537346	0.136651	0.263840
C49	C	-4.072640	-0.442927	-0.235797
C50	C	-3.572640	0.057073	0.264203
C51	C	-3.908532	-0.478824	-0.231793
C52	C	-3.408532	0.021176	0.268207
C53	C	-3.946804	-0.565114	-0.231403
C54	C	-3.446804	-0.065114	0.268597
C55	C	-3.977324	-0.633891	-0.231093
C56	C	-3.477324	-0.133891	0.268907
C57	C	-4.037378	-0.104400	-0.495092
C58	C	-3.537378	0.395600	0.004908
C59	C	-4.072664	-0.104037	-0.574672
C60	C	-3.572664	0.395963	-0.074672
C61	C	-3.908566	-0.100043	-0.610568
C62	C	-3.408566	0.399957	-0.110568
C63	C	-3.709166	-0.096403	-0.566879
C64	C	-3.209166	0.403597	-0.066879
C65	C	-3.673880	-0.096761	-0.487300
C66	C	-3.173880	0.403239	0.012700
C67	C	-3.851463	-0.094960	-0.887811
C68	C	-3.351463	0.405040	-0.387811
C69	C	-3.886767	-0.094606	-0.967397
C70	C	-3.386767	0.405394	-0.467397
C71	C	-4.250247	-0.102236	-0.975183
C72	C	-3.750247	0.397764	-0.475183
C73	C	-4.214961	-0.102594	-0.895605
C74	C	-3.714961	0.397406	-0.395605
C75	C	-4.015563	-0.098951	-0.851922
C76	C	-3.515563	0.401049	-0.351922
C77	C	-3.977304	-0.099343	-0.765632
C78	C	-3.477304	0.400657	-0.265632
C79	C	-3.946825	-0.099656	-0.696857
C80	C	-3.446825	0.400344	-0.196857
C81	C	-4.144500	0.035967	-0.229594
C82	C	-3.644500	0.535967	0.270406
C83	C	-4.086184	0.120662	-0.229976
C84	C	-3.586184	0.620662	0.270024
C85	C	-4.144477	-0.097855	-0.095776
C86	C	-3.644477	0.402145	0.404224
C87	C	-4.086149	-0.098237	-0.011080
C88	C	-3.586149	0.401763	0.488920
H89	H	-4.412637	-0.878997	-0.236937
H90	H	-3.912637	-0.378997	0.263063
F91	F	-3.534521	-0.092152	-0.605084
F92	F	-3.034521	0.407848	-0.105084
F93	F	-3.712135	-0.873868	-0.222079
F94	F	-3.212135	-0.373868	0.277921
H95	H	-3.753126	-0.091351	-0.996620
H96	H	-3.253126	0.408649	-0.496620
F97	F	-4.284876	-0.107915	-0.621161
F98	F	-3.784876	0.392085	-0.121161
H99	H	-4.348605	-0.734633	-0.237590
H100	H	-3.848605	-0.234633	0.262410
F101	F	-4.284851	-0.489410	-0.239668
F102	F	-3.784851	0.010590	0.260332
F103	F	-3.461668	-0.092884	-0.440809
F104	F	-2.961668	0.407116	0.059191
H105	H	-4.412608	-0.105200	-1.010759
H106	H	-3.912608	0.394800	-0.510759
F107	F	-4.389621	-0.106849	-0.857406
F108	F	-3.889621	0.393151	-0.357406
H109	H	-3.575513	-0.464369	-0.224893
H110	H	-3.075513	0.035631	0.275107
H111	H	-3.689121	-0.092021	-0.852259
H112	H	-3.189121	0.407979	-0.352259
H113	H	-4.170965	-0.334112	-0.239417
H114	H	-3.670965	0.165888	0.260583
F115	F	-4.212044	-0.108656	-0.456897
F116	F	-3.712044	0.391344	0.043103
H117	H	-3.511499	-0.320008	-0.225570
H118	H	-3.011499	0.179992	0.274430
H119	H	-3.689143	-0.720513	-0.223734
H120	H	-3.189143	-0.220513	0.276266
