data_functionalizedCrystal
_audit_creation_method	'MofGen! by Chris Wilmer'
_symmetry_space_group_name_H-M	'P1'
_symmetry_Int_Tables_number	1
_symmetry_cell_setting	triclinic
loop_
_symmetry_equiv_pos_as_xyz
  x,y,z
_cell_length_a	6.817900
_cell_length_b	11.102289
_cell_length_c	16.417992
_cell_angle_alpha	93.892893
_cell_angle_beta	103.388747
_cell_angle_gamma	108.605707
loop_
_atom_site_label
_atom_site_type_symbol
_atom_site_fract_x
_atom_site_fract_y
_atom_site_fract_z
V1	V	-4.051826	-0.176897	-0.261156
O2	O	-4.011995	0.007412	-0.256185
O3	O	-4.029011	-0.349710	-0.259370
O4	O	-4.002568	-0.174654	-0.375055
O5	O	-4.038622	-0.168856	-0.139698
V6	V	-4.532250	-0.154795	-0.246629
O7	O	-4.319883	-0.225379	-0.293023
O8	O	-4.714391	-0.106313	-0.214762
O9	O	-4.331858	0.018018	-0.248415
O10	O	-4.689478	-0.339104	-0.251600
O11	O	-4.662851	-0.162836	-0.368086
O12	O	-4.358301	-0.157038	-0.132729
C13	C	-3.880264	-0.391823	-0.255250
C14	C	-3.942892	-0.533103	-0.254549
C15	C	-4.155366	-0.605967	-0.258397
C16	C	-4.214203	-0.738716	-0.257746
C17	C	-3.848068	-0.725724	-0.249393
C18	C	-3.789237	-0.592979	-0.250050
C19	C	-4.366750	-0.613468	-0.263216
C20	C	-4.425587	-0.746217	-0.262565
C21	C	-3.846532	-0.168520	-0.402817
C22	C	-3.887711	-0.167829	-0.495930
C23	C	-4.078516	-0.281944	-0.809613
C24	C	-4.039843	-0.282618	-0.722126
C25	C	-3.924926	-0.049737	-0.698172
C26	C	-3.963584	-0.049064	-0.785657
C27	C	-4.040390	-0.165171	-0.841376
C28	C	-3.963060	-0.166518	-0.666404
C29	C	-3.921129	-0.167248	-0.571546
C30	C	-4.082320	-0.164442	-0.936239
C31	C	-4.143948	0.060124	-0.252533
C32	C	-4.060559	0.201403	-0.253239
C33	C	-4.177680	-0.163176	-0.104963
C34	C	-4.115739	-0.163861	-0.011849
H35	H	-3.616231	-0.533660	-0.246926
O36	O	-4.483677	-0.591048	-0.335950
C37	C	-4.756038	-0.683561	-0.467763
C38	C	-4.623736	-0.709136	-0.385440
H39	H	-4.869339	-0.779015	-0.507790
H40	H	-4.643174	-0.629182	-0.504918
H41	H	-4.853653	-0.623532	-0.451492
H42	H	-4.526108	-0.769199	-0.401635
H43	H	-4.736714	-0.763455	-0.348307
H44	H	-4.070888	-0.377705	-0.696269
H45	H	-4.380320	-0.560002	-0.204159
H46	H	-4.141045	-0.376486	-0.854977
H47	H	-3.862394	0.044794	-0.652795
O48	O	-3.926527	0.064487	-0.816377
C49	C	-3.808346	0.295407	-0.783390
C50	C	-3.850275	0.166911	-0.748487
H51	H	-3.746646	0.378252	-0.728517
H52	H	-3.964077	0.296752	-0.827000
H53	H	-3.683124	0.306344	-0.820501
H54	H	-3.975424	0.155891	-0.711338
H55	H	-3.694447	0.165624	-0.704922
H56	H	-4.543209	-0.804335	-0.324618
O57	O	-3.698811	-0.783912	-0.244869
C58	C	-3.512319	-0.908776	-0.166407
C59	C	-3.681370	-0.842913	-0.171417
H60	H	-3.498196	-0.956517	-0.107035
H61	H	-3.350262	-0.833933	-0.163711
H62	H	-3.563461	-0.984717	-0.224810
H63	H	-3.630430	-0.766979	-0.113029
H64	H	-3.843386	-0.917831	-0.174155
H65	H	-4.489975	-0.770954	-0.205349
