data_functionalizedCrystal
_audit_creation_method	'MofGen! by Chris Wilmer'
_symmetry_space_group_name_H-M	'P1'
_symmetry_Int_Tables_number	1
_symmetry_cell_setting	triclinic
loop_
_symmetry_equiv_pos_as_xyz
  x,y,z
_cell_length_a	12.594517
_cell_length_b	19.120786
_cell_length_c	12.594509
_cell_angle_alpha	92.474225
_cell_angle_beta	90.021327
_cell_angle_gamma	92.464907
loop_
_atom_site_label
_atom_site_type_symbol
_atom_site_fract_x
_atom_site_fract_y
_atom_site_fract_z
Zn1	Zn	1.609121	-0.279614	0.583736
Zn2	Zn	1.601388	-0.397084	0.398144
Zn3	Zn	1.431122	-0.279644	0.405763
Zn4	Zn	1.423486	-0.397035	0.576077
O5	O	1.516279	-0.338344	0.490930
O6	O	1.757040	-0.295204	0.559134
O7	O	1.578761	-0.381538	0.250206
O8	O	1.461166	-0.181349	0.435766
O9	O	1.751359	-0.381509	0.422780
O10	O	1.591941	-0.181327	0.566522
O11	O	1.453668	-0.295255	0.255804
O12	O	1.281164	-0.295208	0.428339
O13	O	1.448151	-0.381426	0.726041
O14	O	1.275554	-0.381455	0.553468
O15	O	1.584536	-0.295157	0.731668
O16	O	1.571357	-0.495368	0.415352
O17	O	1.440653	-0.495332	0.546079
C18	C	1.239739	-0.338330	0.490899
C19	C	1.121433	-0.338341	0.490911
C20	C	1.504366	-0.520836	0.479081
C21	C	1.499367	-0.598907	0.474048
C22	C	1.055205	-0.291367	0.422993
C23	C	0.980236	-0.355437	0.392660
C24	C	0.985601	-0.274303	0.521260
C25	C	1.048020	-0.402444	0.460525
C26	C	1.053394	-0.321267	0.589172
C27	C	0.978455	-0.385381	0.558873
C28	C	1.565055	-0.635513	0.539816
C29	C	1.560353	-0.708868	0.535088
C30	C	1.489969	-0.745617	0.464586
C31	C	1.424274	-0.709006	0.398815
C32	C	1.428970	-0.635651	0.403549
C33	C	1.472379	-0.967104	0.446890
C34	C	1.467689	-1.040463	0.442159
C35	C	1.603768	-1.040321	0.578434
C36	C	1.608463	-0.966965	0.583157
C37	C	1.542764	-0.930360	0.517390
C38	C	1.485164	-0.820598	0.459750
C39	C	1.547564	-0.855380	0.522232
C40	C	1.793899	-0.338359	0.490961
C41	C	1.912204	-0.338365	0.490974
C42	C	1.516355	-0.338283	0.768555
C43	C	1.516387	-0.338256	0.886862
C44	C	1.528268	-0.155140	0.502848
C45	C	1.533377	-0.077069	0.507927
C46	C	1.516269	-0.338355	0.214388
C47	C	1.516456	-0.338183	0.096094
C48	C	1.442231	-0.385152	0.953056
C49	C	1.538238	-0.402313	1.022734
C50	C	1.420458	-0.321052	1.027986
C51	C	1.612442	-0.355452	0.954980
C52	C	1.494599	-0.274161	0.960227
C53	C	1.590674	-0.291298	1.029875
H54	H	1.088801	-0.251682	0.365481
H55	H	1.653484	-0.251609	1.063310
H56	H	1.375479	-0.605848	0.349995
O57	O	1.323560	-0.303806	1.066069
C58	C	1.135863	-0.333837	1.070156
C59	C	1.245532	-0.353431	1.026935
H60	H	1.072751	-0.373956	1.038552
H61	H	1.116561	-0.279630	1.043298
H62	H	1.137102	-0.333443	1.160689
H63	H	1.244375	-0.353865	0.936402
H64	H	1.264791	-0.407625	1.053875
O65	O	1.472350	-0.209575	0.927314
C66	C	1.346031	-0.118437	0.927179
C67	C	1.371098	-0.191592	0.964506
H68	H	1.264179	-0.103869	0.957251
H69	H	1.346919	-0.118955	0.836634
H70	H	1.408483	-0.078303	0.960080
H71	H	1.308672	-0.231766	0.931680
H72	H	1.370247	-0.191016	1.055052
H73	H	0.948139	-0.369893	0.309589
H74	H	1.379563	-0.424871	0.919424
O75	O	1.560091	-0.466982	1.055610
C76	C	1.506658	-0.589564	1.053626
C77	C	1.481781	-0.516364	1.016348
H78	H	1.443373	-0.629513	1.021880
H79	H	1.507193	-0.588821	1.144186
H80	H	1.587884	-0.604556	1.022349
H81	H	1.400553	-0.501327	1.047550
H82	H	1.481317	-0.517147	0.925787
O83	O	1.709205	-0.372875	0.916748
C84	C	1.817744	-0.392418	0.761658
C85	C	1.708109	-0.372691	0.804813
H86	H	1.816902	-0.392261	0.671156
H87	H	1.836518	-0.446873	0.787852
H88	H	1.881008	-0.352670	0.794035
H89	H	1.644775	-0.412391	0.772457
H90	H	1.689427	-0.318217	0.778630
H91	H	1.622374	-0.605597	0.597221
H92	H	0.957989	-0.220143	0.546865
O93	O	1.080910	-0.467034	0.429790
C94	C	1.230007	-0.539496	0.395344
C95	C	1.192903	-0.466314	0.430144
H96	H	1.320556	-0.538942	0.395641
H97	H	1.199279	-0.554171	0.311831
H98	H	1.197641	-0.579571	0.452876
H99	H	1.225255	-0.426190	0.372687
H100	H	1.223619	-0.451698	0.513680
H101	H	0.945047	-0.425161	0.616334
H102	H	1.085518	-0.306791	0.672220
O103	O	1.624288	-0.744318	0.598999
C104	C	1.759750	-0.736436	0.734669
C105	C	1.687410	-0.696202	0.662337
H106	H	1.810787	-0.697552	0.785912
H107	H	1.813295	-0.770745	0.683669
H108	H	1.708658	-0.770806	0.788027
H109	H	1.738419	-0.661795	0.608966
H110	H	1.633859	-0.661938	0.713400
O111	O	1.676723	-0.931304	0.651794
C112	C	1.729796	-0.908785	0.834339
C113	C	1.652398	-0.949199	0.756734
H114	H	1.710171	-0.923249	0.919198
H115	H	1.721875	-0.850059	0.826520
H116	H	1.814700	-0.923165	0.814736
H117	H	1.567461	-0.934878	0.776286
H118	H	1.660412	-1.007915	0.764567
O119	O	1.667470	-1.075987	0.642281
C120	C	1.720589	-1.188930	0.695349
C121	C	1.648370	-1.148626	0.622993
H122	H	1.705188	-1.247666	0.679764
H123	H	1.702767	-1.174530	0.782108
H124	H	1.807342	-1.174425	0.677688
H125	H	1.561593	-1.163110	0.640560
H126	H	1.666283	-1.163030	0.536256
H127	H	1.410368	-1.070382	0.384747
O128	O	1.416746	-0.856376	0.391400
C129	C	1.267717	-0.939262	0.371600
C130	C	1.345144	-0.898797	0.449119
H131	H	1.209793	-0.973557	0.418236
H132	H	1.314367	-0.973650	0.313800
H133	H	1.221623	-0.900490	0.325370
H134	H	1.391257	-0.937518	0.495421
H135	H	1.298434	-0.864398	0.506849
O136	O	1.408723	-0.931472	0.382954
C137	C	1.399786	-0.848757	0.244533
C138	C	1.471998	-0.889059	0.316897
H139	H	1.450915	-0.814468	0.191092
H140	H	1.346319	-0.814377	0.295507
H141	H	1.348652	-0.887634	0.193374
H142	H	1.523198	-0.850232	0.368069
H143	H	1.525394	-0.923449	0.265862
H144	H	1.366960	-0.738932	0.341416
H145	H	1.604868	-0.825457	0.579639
