data_functionalizedCrystal
_audit_creation_method	'MofGen! by Chris Wilmer'
_symmetry_space_group_name_H-M	'P1'
_symmetry_Int_Tables_number	1
_symmetry_cell_setting	triclinic
loop_
_symmetry_equiv_pos_as_xyz
  x,y,z
_cell_length_a	15.995350
_cell_length_b	13.930277
_cell_length_c	14.853567
_cell_angle_alpha	90.005533
_cell_angle_beta	96.436348
_cell_angle_gamma	89.986266
loop_
_atom_site_label
_atom_site_type_symbol
_atom_site_fract_x
_atom_site_fract_y
_atom_site_fract_z
O1	O	1.111104	0.079741	-0.116200
O2	O	0.867345	0.079760	-0.130550
O3	O	0.995736	0.079753	0.007864
O4	O	0.982713	0.079748	-0.254614
O5	O	0.995758	-0.079909	0.007855
O6	O	0.867368	-0.079902	-0.130559
O7	O	1.111127	-0.079921	-0.116209
Zn8	Zn	0.989251	-0.105261	-0.123385
Zn9	Zn	0.989221	0.105100	-0.123374
O10	O	0.982736	-0.079914	-0.254622
C11	C	0.836161	-0.000068	-0.129961
C12	C	0.743209	-0.000061	-0.128182
N13	N	0.989278	-0.248827	-0.123392
N14	N	0.989201	0.248667	-0.123359
C15	C	0.405454	-0.000081	-0.121795
C16	C	0.452773	-0.000435	-0.023220
C17	C	0.549465	-0.000069	-0.024999
C18	C	0.573018	-0.000071	-0.124963
C19	C	0.531974	0.091099	-0.173579
C20	C	0.435336	0.091168	-0.171103
C21	C	0.435025	-0.090397	-0.173149
C22	C	0.531971	-0.091595	-0.173126
C23	C	0.667718	-0.000063	-0.126759
C24	C	0.310754	-0.000083	-0.120002
C25	C	1.142311	-0.000090	-0.116798
C26	C	1.235263	-0.000091	-0.118576
C27	C	0.995157	-0.000075	0.041447
C28	C	0.993389	-0.000067	0.141528
C29	C	0.932309	0.700939	-0.184555
C30	C	1.046230	0.700902	-0.062223
C31	C	1.046216	0.600406	-0.062216
C32	C	0.989248	0.550172	-0.123379
C33	C	0.932292	0.600434	-0.184548
C34	C	1.103165	0.550137	-0.001042
C35	C	1.103153	0.449635	-0.001032
C36	C	1.046188	0.399400	-0.062200
C37	C	0.989231	0.449667	-0.123372
C38	C	0.932262	0.399433	-0.184535
C39	C	0.875308	0.449699	-0.245713
C40	C	0.875327	0.550198	-0.245716
C41	C	1.046169	0.298901	-0.062196
C42	C	0.932245	0.298928	-0.184529
C43	C	0.983315	-0.000083	-0.288206
C44	C	0.985083	-0.000085	-0.388287
C45	C	0.909648	-0.000078	0.553949
C46	C	1.062178	-0.000090	0.575436
C47	C	1.063841	-0.000084	0.481405
C48	C	0.988406	-0.000077	0.423641
C49	C	0.911308	-0.000076	0.459909
C50	C	1.140937	-0.000096	0.445129
C51	C	1.142603	-0.000091	0.351093
C52	C	1.067167	-0.000077	0.293327
C53	C	0.990066	-0.000075	0.329600
C54	C	0.914631	-0.000068	0.271837
C55	C	0.837529	-0.000058	0.308108
C56	C	0.835872	-0.000062	0.402144
C57	C	1.068824	-0.000074	0.199292
C58	C	0.916291	-0.000065	0.177796
H59	H	0.434215	-0.065817	0.016180
H60	H	0.828956	0.591131	-0.295524
H61	H	0.854861	-0.000055	0.130770
H62	H	0.885857	0.258034	-0.234339
N63	N	1.225759	-0.000083	0.311977
H64	H	1.215367	-0.000075	0.243641
H65	H	1.258785	-0.059273	0.333096
H66	H	0.885940	0.741868	-0.234368
H67	H	0.546184	0.094487	-0.247021
H68	H	0.560299	0.158951	-0.139806
H69	H	0.828920	0.408787	-0.295509
H70	H	1.131599	-0.000088	0.169764
N71	N	1.107594	0.244693	0.003781
H72	H	1.144631	0.202973	-0.030773
H73	H	1.075565	0.203073	0.043778
H74	H	1.092608	0.741806	-0.012421
H75	H	0.776110	-0.000059	0.261065
H76	H	0.773099	-0.000055	0.431685
N77	N	1.164573	0.604315	0.064959
H78	H	1.155933	0.675607	0.055678
H79	H	1.223960	0.586735	0.054423
N80	N	1.143540	-0.000093	0.637727
H81	H	1.177181	-0.059280	0.626051
H82	H	1.130726	-0.000060	0.702777
N83	N	0.826492	-0.000080	0.593066
H84	H	0.778959	-0.000077	0.542202
H85	H	0.822469	0.059109	0.631618
H86	H	1.149528	0.408715	0.048781
N87	N	0.407794	-0.181939	-0.130471
H88	H	0.376006	-0.165787	-0.077409
H89	H	0.459035	-0.221497	-0.108757
N90	N	0.411003	0.181437	-0.124128
H91	H	0.428132	0.239430	-0.158511
H92	H	0.440477	0.182889	-0.060348
N93	N	1.222295	-0.000121	0.507427
H94	H	1.209542	-0.000119	0.572501
H95	H	1.255889	0.059060	0.495692
H96	H	0.577859	-0.065423	0.013217
H97	H	0.559256	-0.159043	-0.137637
N98	N	0.552426	-0.098899	-0.269691
H99	H	0.615413	-0.102962	-0.270233
H100	H	0.530283	-0.040285	-0.304617
N101	N	0.426737	0.085692	0.028734
H102	H	0.477766	0.126416	0.048400
H103	H	0.400556	0.063364	0.083877
N104	N	0.586295	0.086654	0.025972
H105	H	0.561363	0.146971	-0.003727
H106	H	0.649329	0.087169	0.025023
N107	N	0.392721	0.096609	-0.266964
H108	H	0.436738	0.098960	-0.310641
H109	H	0.356817	0.156355	-0.274204
N110	N	0.393072	-0.091223	-0.269422
H111	H	0.355092	-0.033410	-0.279760
H112	H	0.358657	-0.151751	-0.280193
