data_functionalizedCrystal
_audit_creation_method	'MofGen! by Chris Wilmer'
_symmetry_space_group_name_H-M	'P1'
_symmetry_Int_Tables_number	1
_symmetry_cell_setting	triclinic
loop_
_symmetry_equiv_pos_as_xyz
  x,y,z
_cell_length_a	16.109318
_cell_length_b	15.944551
_cell_length_c	14.586319
_cell_angle_alpha	89.995256
_cell_angle_beta	90.000075
_cell_angle_gamma	83.483651
loop_
_atom_site_label
_atom_site_type_symbol
_atom_site_fract_x
_atom_site_fract_y
_atom_site_fract_z
O1	O	1.103157	0.108036	-0.076166
O2	O	0.861101	0.121457	-0.076185
O3	O	0.988739	-0.007530	-0.076167
O4	O	0.975519	0.237023	-0.076184
O5	O	0.988730	-0.007532	0.076314
O6	O	0.861092	0.121455	0.076296
O7	O	1.103148	0.108034	0.076315
Cu8	Cu	0.982119	0.114744	0.090228
Cu9	Cu	0.982130	0.114746	-0.090098
O10	O	0.975510	0.237021	0.076297
C11	C	0.830122	0.120910	0.000053
C12	C	0.737827	0.119272	0.000046
C13	C	0.438756	0.113984	-0.083054
C14	C	0.525478	0.115517	-0.083060
C15	C	0.525487	0.115504	0.083183
C16	C	0.438768	0.113965	0.083188
C17	C	0.395404	0.113209	0.000066
C18	C	0.568845	0.116281	0.000056
C19	C	0.662873	0.117943	0.000050
C20	C	0.301371	0.111545	0.000071
C21	C	0.988186	-0.038825	0.000074
C22	C	0.986540	-0.132071	0.000074
C23	C	0.903492	-0.346905	0.000055
C24	C	0.942052	-0.407934	0.075240
C25	C	0.983564	-0.302796	0.000067
C26	C	0.942080	-0.407915	-0.075094
C27	C	0.980683	-0.467708	0.000056
C28	C	1.022146	-0.362596	0.075314
C29	C	1.022163	-0.362571	-0.075087
C30	C	1.060782	-0.423582	0.000116
C31	C	0.985221	-0.207794	0.000074
C32	C	0.979031	-0.562709	0.000055
C33	C	1.134127	0.108581	0.000075
C34	C	1.226422	0.110218	0.000076
C35	C	0.976063	0.268316	0.000054
C36	C	0.977709	0.361561	0.000048
N37	N	0.982118	0.114742	0.217060
N38	N	0.982138	0.114742	-0.216930
C39	C	1.038655	0.057646	0.452074
C40	C	1.038657	0.057644	0.548056
C41	C	0.925595	0.171841	0.548049
C42	C	0.925589	0.171838	0.452069
C43	C	0.982124	0.114742	0.404085
C44	C	0.982132	0.114742	0.596045
C45	C	0.982134	0.114740	0.700112
C46	C	0.982121	0.114742	0.300011
H47	H	0.560772	0.116147	-0.150745
H48	H	1.084689	0.011150	0.587126
N49	N	0.394464	0.113185	-0.167957
N50	N	0.353737	0.053151	-0.186496
H51	H	0.322458	0.052582	-0.246462
H52	H	0.403469	0.113333	0.150878
N53	N	0.569797	0.116274	0.168077
N54	N	0.647224	0.117649	0.168063
H55	H	0.678518	0.118194	0.228021
N56	N	0.867862	0.230175	0.597064
N57	N	0.869003	0.307815	0.586332
H58	H	0.828228	0.349017	0.620946
N59	N	0.867843	0.230154	0.403027
N60	N	0.816239	0.203479	0.349475
H61	H	0.775457	0.244660	0.314836
N62	N	0.820112	-0.305106	0.000145
N63	N	0.771649	-0.316951	0.064597
H64	H	0.712763	-0.287430	0.064664
N65	N	0.899598	-0.433120	-0.154833
N66	N	0.892079	-0.509360	-0.167941
H67	H	0.862073	-0.527160	-0.224254
N68	N	0.899555	-0.433145	0.154970
N69	N	0.824830	-0.405362	0.168359
H70	H	0.794810	-0.423164	0.224665
N71	N	1.064594	-0.337525	0.155136
N72	N	1.072679	-0.261378	0.168039
H73	H	1.102655	-0.243668	0.224413
N74	N	1.144235	-0.465195	0.000180
N75	N	1.192575	-0.453495	0.064792
H76	H	1.251514	-0.482884	0.064841
N77	N	1.064614	-0.337334	-0.154830
N78	N	1.037327	-0.351602	-0.232839
H79	H	1.067303	-0.333777	-0.289165
H80	H	1.084687	0.011153	0.413007
