data_functionalizedCrystal
_audit_creation_method	'MofGen! by Chris Wilmer'
_symmetry_space_group_name_H-M	'P1'
_symmetry_Int_Tables_number	1
_symmetry_cell_setting	triclinic
loop_
_symmetry_equiv_pos_as_xyz
  x,y,z
_cell_length_a	13.897449
_cell_length_b	13.897447
_cell_length_c	12.759393
_cell_angle_alpha	90.028201
_cell_angle_beta	89.975751
_cell_angle_gamma	89.977978
loop_
_atom_site_label
_atom_site_type_symbol
_atom_site_fract_x
_atom_site_fract_y
_atom_site_fract_z
Zn1	Zn	1.474687	0.383947	-0.594130
Zn2	Zn	1.724687	0.633947	-0.344130
Zn3	Zn	1.974687	0.883947	-0.094130
Zn4	Zn	2.224687	1.133947	0.155870
Zn5	Zn	1.474569	0.545273	-0.418457
Zn6	Zn	1.724569	0.795273	-0.168457
Zn7	Zn	1.974569	1.045273	0.081543
Zn8	Zn	2.224569	1.295273	0.331543
Zn9	Zn	1.313374	0.383996	-0.418455
Zn10	Zn	1.563374	0.633996	-0.168455
Zn11	Zn	1.813374	0.883996	0.081545
Zn12	Zn	2.063374	1.133996	0.331545
Zn13	Zn	1.313348	0.545204	-0.594084
Zn14	Zn	1.563348	0.795204	-0.344084
Zn15	Zn	1.813348	1.045204	-0.094084
Zn16	Zn	2.063348	1.295204	0.155916
O17	O	1.393995	0.464605	-0.506281
O18	O	1.643995	0.714605	-0.256281
O19	O	1.893995	0.964605	-0.006281
O20	O	2.143995	1.214605	0.243719
O21	O	1.609653	0.405356	-0.570846
O22	O	1.859653	0.655356	-0.320846
O23	O	2.109653	0.905356	-0.070846
O24	O	2.359653	1.155356	0.179154
O25	O	1.453147	0.523929	-0.271435
O26	O	1.703147	0.773929	-0.021435
O27	O	1.953147	1.023929	0.228565
O28	O	2.203147	1.273929	0.478565
O29	O	1.334833	0.249008	-0.441777
O30	O	1.584833	0.499008	-0.191777
O31	O	1.834833	0.749008	0.058223
O32	O	2.084833	0.999008	0.308223
O33	O	1.609566	0.523881	-0.441780
O34	O	1.859566	0.773881	-0.191780
O35	O	2.109566	1.023881	0.058220
O36	O	2.359566	1.273881	0.308220
O37	O	1.453349	0.248972	-0.570844
O38	O	1.703349	0.498972	-0.320844
O39	O	1.953349	0.748972	-0.070844
O40	O	2.203349	0.998972	0.179156
O41	O	1.334718	0.405440	-0.271434
O42	O	1.584718	0.655440	-0.021434
O43	O	1.834718	0.905440	0.228566
O44	O	2.084718	1.155440	0.478566
O45	O	1.178389	0.405372	-0.441732
O46	O	1.428389	0.655372	-0.191732
O47	O	1.678389	0.905372	0.058268
O48	O	1.928389	1.155372	0.308268
O49	O	1.334789	0.523763	-0.741111
O50	O	1.584789	0.773763	-0.491111
O51	O	1.834789	1.023763	-0.241111
O52	O	2.084789	1.273763	0.008889
O53	O	1.178370	0.523811	-0.570766
O54	O	1.428370	0.773811	-0.320766
O55	O	1.678370	1.023811	-0.070766
O56	O	1.928370	1.273811	0.179234
O57	O	1.453324	0.405288	-0.741145
O58	O	1.703324	0.655288	-0.491145
O59	O	1.953324	0.905288	-0.241145
O60	O	2.203324	1.155288	0.008855
O61	O	1.453123	0.680246	-0.441736
O62	O	1.703123	0.930246	-0.191736
O63	O	1.953123	1.180246	0.058264
O64	O	2.203123	1.430246	0.308264
O65	O	1.334674	0.680195	-0.570768
O66	O	1.584674	0.930195	-0.320768
O67	O	1.834674	1.180195	-0.070768
O68	O	2.084674	1.430195	0.179232
C69	C	1.143380	0.464590	-0.506245
C70	C	1.393380	0.714590	-0.256245
C71	C	1.643380	0.964590	-0.006245
C72	C	1.893380	1.214590	0.243755
C73	C	1.036166	0.464607	-0.506254
C74	C	1.286166	0.714607	-0.256254
C75	C	1.536166	0.964607	-0.006254
C76	C	1.786166	1.214607	0.243746
C77	C	1.393909	0.715219	-0.506270
C78	C	1.643909	0.965219	-0.256270
C79	C	1.893909	1.215219	-0.006270
C80	C	2.143909	1.465219	0.243730
C81	C	1.393961	0.822433	-0.506301
C82	C	1.643961	1.072433	-0.256301
C83	C	1.893961	1.322433	-0.006301
C84	C	2.143961	1.572433	0.243699
C85	C	0.949097	0.464610	-0.506271
C86	C	1.199097	0.714610	-0.256271
C87	C	1.449097	0.964610	-0.006271
C88	C	1.699097	1.214610	0.243729
C89	C	0.839864	0.464617	-0.506303
C90	C	1.089864	0.714617	-0.256303
C91	C	1.339864	0.964617	-0.006303
C92	C	1.589864	1.214617	0.243697
C93	C	1.394005	0.909503	-0.506329
C94	C	1.644005	1.159503	-0.256329
C95	C	1.894005	1.409503	-0.006329
C96	C	2.144005	1.659503	0.243671
C97	C	1.394069	1.018736	-0.506362
C98	C	1.644069	1.268736	-0.256362
C99	C	1.894069	1.518736	-0.006362
C100	C	2.144069	1.768736	0.243638
C101	C	1.645588	0.464621	-0.506319
C102	C	1.895588	0.714621	-0.256319
C103	C	2.145588	0.964621	-0.006319
C104	C	2.395588	1.214621	0.243681
C105	C	1.752802	0.464627	-0.506335
C106	C	2.002802	0.714627	-0.256335
C107	C	2.252802	0.964627	-0.006335
C108	C	2.502802	1.214627	0.243665
C109	C	1.394067	0.464512	-0.780315
C110	C	1.644067	0.714512	-0.530315
C111	C	1.894067	0.964512	-0.280315
C112	C	2.144067	1.214512	-0.030315
C113	C	1.394098	0.464473	-0.897091
C114	C	1.644098	0.714473	-0.647091
C115	C	1.894098	0.964473	-0.397091
C116	C	2.144098	1.214473	-0.147091
C117	C	1.394100	1.213012	-0.506329
C118	C	1.644100	1.463012	-0.256329
C119	C	1.894100	1.713012	-0.006329
C120	C	2.144100	1.963012	0.243671
C121	C	1.394126	1.105798	-0.506383
C122	C	1.644126	1.355798	-0.256383
C123	C	1.894126	1.605798	-0.006383
C124	C	2.144126	1.855798	0.243617
C125	C	1.455823	0.402773	-0.951973
C126	C	1.705823	0.652773	-0.701973
C127	C	1.955823	0.902773	-0.451973
C128	C	2.205823	1.152773	-0.201973
C129	C	1.455840	0.402732	-1.061697
C130	C	1.705840	0.652732	-0.811697
C131	C	1.955840	0.902732	-0.561697
C132	C	2.205840	1.152732	-0.311697
C133	C	1.332402	0.526098	-1.061649
C134	C	1.582402	0.776098	-0.811649
C135	C	1.832402	1.026098	-0.561649
C136	C	2.082402	1.276098	-0.311649
C137	C	1.332381	0.526134	-0.951927
C138	C	1.582381	0.776134	-0.701927
C139	C	1.832381	1.026134	-0.451927
C140	C	2.082381	1.276134	-0.201927
C141	C	1.393978	0.464628	-0.233314
C142	C	1.643978	0.714628	0.016686
C143	C	1.893978	0.964628	0.266686
C144	C	2.143978	1.214628	0.516686
C145	C	1.394134	0.464395	-0.116538
C146	C	1.644134	0.714395	0.133462
C147	C	1.894134	0.964395	0.383462
C148	C	2.144134	1.214395	0.633462
H149	H	1.506074	0.352562	-0.907329
H150	H	1.756074	0.602562	-0.657329
H151	H	2.006074	0.852562	-0.407329
H152	H	2.256074	1.102562	-0.157329
H153	H	1.506102	0.352488	-1.106376
H154	H	1.756102	0.602488	-0.856376
H155	H	2.006102	0.852488	-0.606376
H156	H	2.256102	1.102488	-0.356376
H157	H	1.282110	0.576376	-0.907241
H158	H	1.532110	0.826376	-0.657241
H159	H	1.782110	1.076376	-0.407241
H160	H	2.032110	1.326376	-0.157241
H161	H	1.282157	0.576302	-1.106309
H162	H	1.532157	0.826302	-0.856309
H163	H	1.782157	1.076302	-0.606309
H164	H	2.032157	1.326302	-0.356309
