data_functionalizedCrystal
_audit_creation_method	'MofGen! by Chris Wilmer'
_symmetry_space_group_name_H-M	'P1'
_symmetry_Int_Tables_number	1
_symmetry_cell_setting	triclinic
loop_
_symmetry_equiv_pos_as_xyz
  x,y,z
_cell_length_a	18.101395
_cell_length_b	12.759401
_cell_length_c	12.759393
_cell_angle_alpha	90.020938
_cell_angle_beta	89.964785
_cell_angle_gamma	89.966524
loop_
_atom_site_label
_atom_site_type_symbol
_atom_site_fract_x
_atom_site_fract_y
_atom_site_fract_z
Zn1	Zn	-0.294764	-1.606140	-0.593986
Zn2	Zn	-0.418623	-1.605979	-0.418291
Zn3	Zn	-0.294803	-1.430439	-0.418321
Zn4	Zn	-0.418571	-1.430378	-0.593928
O5	O	-0.356690	-1.518234	-0.506132
O6	O	-0.311199	-1.753140	-0.570691
O7	O	-0.402236	-1.582651	-0.271274
O8	O	-0.191165	-1.453840	-0.441659
O9	O	-0.402198	-1.753021	-0.441609
O10	O	-0.191136	-1.582927	-0.570720
O11	O	-0.311266	-1.453683	-0.271296
O12	O	-0.311216	-1.283410	-0.441604
O13	O	-0.402110	-1.453736	-0.740957
O14	O	-0.402148	-1.283365	-0.570622
O15	O	-0.311149	-1.582867	-0.740999
O16	O	-0.522249	-1.582592	-0.441554
O17	O	-0.522211	-1.453579	-0.570594
C18	C	-0.356681	-1.245267	-0.506111
C19	C	-0.356695	-1.128490	-0.506127
C20	C	-0.549101	-1.518089	-0.506087
C21	C	-0.631415	-1.518124	-0.506103
C22	C	-0.356619	-1.518313	-0.780165
C23	C	-0.356589	-1.518346	-0.896942
C24	C	-0.782123	-1.518244	-0.506145
C25	C	-0.813484	-1.437031	-0.587271
C26	C	-0.899102	-1.437338	-0.587613
C27	C	-0.930506	-1.518361	-0.506186
C28	C	-0.899319	-1.629126	-0.535969
C29	C	-0.813674	-1.628588	-0.536534
C30	C	-0.813769	-1.489686	-0.395042
C31	C	-0.899421	-1.487311	-0.395658
C32	C	-1.014365	-1.518434	-0.506208
C33	C	-0.698264	-1.518179	-0.506126
C34	C	-0.163528	-1.518408	-0.506199
C35	C	-0.081214	-1.518482	-0.506228
C36	C	-0.356700	-1.792267	-0.506153
C37	C	-0.356704	-1.909044	-0.506162
C38	C	-0.404115	-1.073632	-0.573201
C39	C	-0.404118	-0.963908	-0.573222
C40	C	-0.309278	-0.963909	-0.439085
C41	C	-0.309272	-1.073632	-0.439071
C42	C	-0.430691	-0.814001	-0.697079
C43	C	-0.478123	-0.759139	-0.764144
C44	C	-0.550396	-0.794706	-0.780083
C45	C	-0.575251	-0.885133	-0.728942
C46	C	-0.527823	-0.939989	-0.661870
C47	C	-0.455540	-0.904423	-0.645950
C48	C	-0.282707	-1.223541	-0.315212
C49	C	-0.235282	-1.278399	-0.248133
C50	C	-0.163008	-1.242834	-0.232183
C51	C	-0.138156	-1.152404	-0.283305
C52	C	-0.185581	-1.097546	-0.350384
C53	C	-0.257854	-1.133118	-0.366336
C54	C	-0.309218	-1.585590	-0.951827
C55	C	-0.309186	-1.585608	-1.061551
C56	C	-0.403902	-1.451135	-1.061495
C57	C	-0.403930	-1.451113	-0.951773
C58	C	-0.221811	-1.623257	-1.211540
C59	C	-0.174447	-1.690518	-1.266429
C60	C	-0.163090	-1.793035	-1.230839
C61	C	-0.199110	-1.828313	-1.140361
C62	C	-0.246479	-1.761059	-1.085478
C63	C	-0.257821	-1.658527	-1.121066
C64	C	-0.491306	-1.413474	-0.801782
C65	C	-0.538680	-1.346224	-0.746897
C66	C	-0.550044	-1.243704	-0.782485
C67	C	-0.514038	-1.208430	-0.872966
C68	C	-0.466664	-1.275680	-0.927851
C69	C	-0.455299	-1.378199	-0.892256
C70	C	-0.356708	-1.518216	-0.233164
C71	C	-0.356529	-1.518386	-0.116388
H72	H	-0.920193	-1.355214	-0.568998
H73	H	-0.523293	-1.124952	-0.901945
H74	H	-0.568005	-1.374957	-0.673229
C75	C	-0.058650	-1.113280	-0.265762
N76	N	0.001235	-1.083814	-0.252544
H77	H	-0.371839	-0.785041	-0.684118
H78	H	-0.920809	-1.542151	-0.332009
C79	C	-0.478810	-1.526254	-0.762629
N80	N	-0.469403	-1.611201	-0.733139
C81	C	-0.602568	-0.734356	-0.853859
N82	N	-0.641861	-0.688898	-0.909432
C83	C	-0.785755	-1.325689	-0.562419
N84	N	-0.764862	-1.241824	-0.543702
H85	H	-0.588627	-1.188954	-0.737792
H86	H	-0.791908	-1.455729	-0.669127
H87	H	-0.442728	-1.118295	-0.627805
C88	C	-0.450778	-0.659677	-0.820403
N89	N	-0.430184	-0.584762	-0.862777
H90	H	-0.793479	-1.548830	-0.334599
H91	H	-0.189865	-1.911798	-1.111397
H92	H	-0.270670	-0.919230	-0.384489
C93	C	-0.555159	-1.039455	-0.605621
N94	N	-0.575749	-1.114380	-0.563261
H95	H	-0.124525	-1.847799	-1.275538
H96	H	-0.145120	-1.661785	-1.340096
H97	H	-0.442447	-1.396398	-1.106152
H98	H	-0.634106	-0.914078	-0.741917
H99	H	-0.341556	-1.252513	-0.328202
C100	C	-0.926708	-1.463002	-0.698833
N101	N	-0.947500	-1.482354	-0.782604
H102	H	-0.165337	-1.023918	-0.392018
H103	H	-0.124398	-1.287504	-0.177553
C104	C	-0.286095	-1.799857	-0.985954
N105	N	-0.315929	-1.829080	-0.910986
C106	C	-0.262620	-1.377885	-0.191910
N107	N	-0.283208	-1.452822	-0.149571
C108	C	-0.926793	-1.713154	-0.458618
N109	N	-0.947488	-1.776443	-0.400356
C110	C	-0.257135	-1.659540	-0.891517
N111	N	-0.217902	-1.715237	-0.846094
H112	H	-0.793637	-1.652760	-0.617742
C113	C	-0.785637	-1.713163	-0.460182
N114	N	-0.764523	-1.776874	-0.402686
H115	H	-0.437346	-1.246951	-1.001526
C116	C	-0.784696	-1.382374	-0.358341
N117	N	-0.762799	-1.301542	-0.330709
C118	C	-0.928209	-1.662391	-0.644492
N119	N	-0.949968	-1.687440	-0.726235
C120	C	-0.926962	-1.377179	-0.365313
N121	N	-0.947708	-1.294225	-0.342462
H122	H	-0.231047	-1.539777	-1.240521
