data_functionalizedCrystal
_audit_creation_method	'MofGen! by Chris Wilmer'
_symmetry_space_group_name_H-M	'P1'
_symmetry_Int_Tables_number	1
_symmetry_cell_setting	triclinic
loop_
_symmetry_equiv_pos_as_xyz
  x,y,z
_cell_length_a	6.817900
_cell_length_b	11.102188
_cell_length_c	17.110486
_cell_angle_alpha	95.184548
_cell_angle_beta	99.060439
_cell_angle_gamma	108.603875
loop_
_atom_site_label
_atom_site_type_symbol
_atom_site_fract_x
_atom_site_fract_y
_atom_site_fract_z
V1	V	-4.002954	-0.175460	-0.246720
O2	O	-3.964064	0.008821	-0.242024
O3	O	-3.980464	-0.348283	-0.245033
O4	O	-3.932386	-0.172591	-0.354323
O5	O	-4.012475	-0.168088	-0.131977
V6	V	-4.486097	-0.153438	-0.232996
O7	O	-4.265046	-0.223767	-0.276826
O8	O	-4.674203	-0.105131	-0.202891
O9	O	-4.285381	0.019384	-0.234683
O10	O	-4.642385	-0.337720	-0.237693
O11	O	-4.593974	-0.160811	-0.347740
O12	O	-4.333459	-0.156308	-0.125393
C13	C	-3.832486	-0.390419	-0.241141
C14	C	-3.895237	-0.531702	-0.240478
C15	C	-3.896436	-0.580040	-0.167703
C16	C	-3.955419	-0.712792	-0.167084
C17	C	-4.011994	-0.748859	-0.312022
C18	C	-3.953026	-0.616110	-0.312640
C19	C	-3.771156	-0.166304	-0.380551
C20	C	-3.794913	-0.165101	-0.468517
C21	C	-3.988312	-0.170879	-0.513875
C22	C	-4.010623	-0.169748	-0.596528
C23	C	-3.839536	-0.162848	-0.633823
C24	C	-3.646120	-0.157066	-0.588458
C25	C	-3.623807	-0.158188	-0.505806
C26	C	-3.897784	-0.159135	-0.883178
C27	C	-3.920114	-0.158018	-0.965837
C28	C	-4.284615	-0.170697	-0.973900
C29	C	-4.262289	-0.171826	-0.891246
C30	C	-4.068873	-0.166037	-0.845889
C31	C	-3.862339	-0.161696	-0.718308
C32	C	-4.046068	-0.167180	-0.761404
C33	C	-4.096703	0.061513	-0.238573
C34	C	-4.013189	0.202796	-0.239241
C35	C	-4.158033	-0.162599	-0.099161
C36	C	-4.113513	-0.163795	-0.011194
H37	H	-4.127638	-0.176506	-0.483517
O38	O	-4.472635	-0.176549	-1.017952
C39	C	-4.630489	-0.291230	-1.010926
H40	H	-4.554360	-0.365101	-0.993341
H41	H	-4.719329	-0.270837	-0.963041
C42	C	-4.879256	-0.253532	-1.113287
C43	C	-4.785753	-0.344265	-1.091695
H44	H	-4.975037	-0.286245	-1.163107
H45	H	-4.772910	-0.176267	-1.118019
H46	H	-4.953273	-0.236546	-1.073376
H47	H	-4.711717	-0.361238	-1.131600
H48	H	-4.892091	-0.421535	-1.086971
H49	H	-4.401610	-0.177443	-0.860887
H50	H	-3.780782	-0.152395	-0.996199
H51	H	-4.059049	-0.817599	-0.370773
O52	O	-3.956373	-0.759529	-0.096317
C53	C	-3.892776	-0.656560	-0.032764
H54	H	-3.795725	-0.564977	-0.053081
H55	H	-4.038222	-0.642577	-0.014020
C56	C	-3.877132	-0.799167	0.063736
C57	C	-3.757917	-0.686686	0.038784
H58	H	-3.793953	-0.817751	0.107872
H59	H	-3.919987	-0.868541	0.020920
H60	H	-3.998331	-0.787501	0.079351
H61	H	-3.636737	-0.698359	0.023160
H62	H	-3.715039	-0.617314	0.081600
O63	O	-3.951839	-0.568937	-0.383270
C64	C	-3.887363	-0.433668	-0.368339
H65	H	-3.918297	-0.402290	-0.307512
H66	H	-3.711552	-0.391159	-0.368480
C67	C	-3.974643	-0.424255	-0.508717
C68	C	-4.012654	-0.385716	-0.434010
H69	H	-4.051919	-0.394674	-0.549227
H70	H	-4.018074	-0.515387	-0.518777
H71	H	-3.828130	-0.388828	-0.508822
H72	H	-4.159159	-0.421156	-0.433902
H73	H	-3.969249	-0.294588	-0.423951
H74	H	-3.723046	-0.156083	-0.748683
O75	O	-4.198656	-0.175407	-0.640474
C76	C	-4.344859	-0.181702	-0.589829
H77	H	-4.294713	-0.221084	-0.533660
H78	H	-4.349916	-0.081348	-0.572324
C79	C	-4.627058	-0.222574	-0.703019
C80	C	-4.565478	-0.270954	-0.634034
H81	H	-4.763149	-0.277623	-0.730287
H82	H	-4.528559	-0.218328	-0.737140
H83	H	-4.631257	-0.138946	-0.688421
H84	H	-4.561254	-0.354573	-0.648634
H85	H	-4.663982	-0.275216	-0.599917
O86	O	-3.435882	-0.152363	-0.461685
C87	C	-3.359656	-0.042088	-0.402886
H88	H	-3.433136	0.031937	-0.422582
H89	H	-3.403575	-0.069639	-0.343758
C90	C	-3.027551	-0.075329	-0.367734
C91	C	-3.117787	0.015595	-0.391928
H92	H	-2.878355	-0.039749	-0.360971
H93	H	-3.078907	-0.149626	-0.407346
H94	H	-3.064172	-0.098280	-0.318462
H95	H	-3.081188	0.038532	-0.441202
H96	H	-3.066419	0.089897	-0.352323
H97	H	-3.849382	-0.511318	-0.108944
H98	H	-3.740317	-0.154467	-0.846261
H99	H	-3.506816	-0.151441	-0.618829
H100	H	-4.185363	-0.172794	-0.731035
