data_functionalizedCrystal
_audit_creation_method	'MofGen! by Chris Wilmer'
_symmetry_space_group_name_H-M	'P1'
_symmetry_Int_Tables_number	1
_symmetry_cell_setting	triclinic
loop_
_symmetry_equiv_pos_as_xyz
  x,y,z
_cell_length_a	6.817900
_cell_length_b	15.866870
_cell_length_c	16.305550
_cell_angle_alpha	112.498803
_cell_angle_beta	103.455250
_cell_angle_gamma	102.655915
loop_
_atom_site_label
_atom_site_type_symbol
_atom_site_fract_x
_atom_site_fract_y
_atom_site_fract_z
V1	V	-4.051892	-0.133572	-0.304568
O2	O	-4.012769	0.005585	-0.256287
O3	O	-4.028396	-0.264050	-0.343343
O4	O	-4.002974	-0.131883	-0.418760
O5	O	-4.038366	-0.127496	-0.180349
V6	V	-4.532361	-0.116884	-0.284747
O7	O	-4.319852	-0.170179	-0.348047
O8	O	-4.714598	-0.080277	-0.241268
O9	O	-4.332650	0.013593	-0.245972
O10	O	-4.688881	-0.256042	-0.333028
O11	O	-4.663283	-0.122960	-0.408966
O12	O	-4.358072	-0.118573	-0.170555
C13	C	-3.879472	-0.295846	-0.349082
C14	C	-3.941544	-0.402515	-0.381546
C15	C	-3.847043	-0.127253	-0.445281
C16	C	-3.888495	-0.126736	-0.538902
C17	C	-3.931812	-0.683673	-0.080408
C18	C	-3.990147	-0.783910	-0.110942
C19	C	-4.075699	-0.811764	-0.274110
C20	C	-4.017359	-0.711528	-0.243590
C21	C	-3.945421	-0.647489	-0.146738
C22	C	-4.030968	-0.675344	-0.309919
C23	C	-3.972644	-0.575116	-0.279401
C24	C	-3.900711	-0.511072	-0.182553
C25	C	-3.887097	-0.547262	-0.116220
C26	C	-4.102922	-0.739384	-0.406771
C27	C	-4.116531	-0.703201	-0.473100
C28	C	-4.058192	-0.602971	-0.442582
C29	C	-3.986259	-0.538927	-0.345735
C30	C	-4.071807	-0.566781	-0.508916
C31	C	-4.013483	-0.466554	-0.478398
C32	C	-3.927935	-0.438699	-0.315217
C33	C	-4.039197	-0.124730	-0.879024
C34	C	-3.802006	-0.118776	-0.836244
C35	C	-3.758992	-0.119712	-0.739040
C36	C	-3.964430	-0.125724	-0.710285
C37	C	-4.149659	-0.220491	-0.790381
C38	C	-4.191420	-0.219955	-0.887764
C39	C	-4.077045	-0.036675	-0.805798
C40	C	-4.028971	-0.035924	-0.707722
C41	C	-3.922189	-0.126290	-0.614923
C42	C	-4.081448	-0.124171	-0.974389
C43	C	-4.144918	0.045385	-0.240233
C44	C	-4.062084	0.152053	-0.207774
C45	C	-4.177347	-0.123206	-0.144030
C46	C	-4.115132	-0.123719	-0.050407
H47	H	-3.869323	-0.386554	-0.236349
C48	C	-3.934936	0.060328	-0.793683
H49	H	-3.851183	0.048029	-0.833175
H50	H	-4.023249	0.093894	-0.810998
H51	H	-3.842654	0.098897	-0.729399
H52	H	-4.024596	-0.437094	-0.532411
H53	H	-4.176033	-0.034745	-0.686008
H54	H	-3.853231	-0.429461	-0.157708
C55	C	-4.092076	-0.310571	-0.795690
H56	H	-3.955301	-0.290624	-0.749194
H57	H	-4.197113	-0.350497	-0.784271
H58	H	-4.088241	-0.346154	-0.856883
H59	H	-4.304318	-0.228319	-0.773903
H60	H	-3.828485	-0.495116	-0.037352
C61	C	-4.310386	-0.041414	-0.843498
H62	H	-4.332286	0.011973	-0.798943
H63	H	-4.337011	-0.038742	-0.902130
H64	H	-4.405821	-0.100403	-0.852668
C65	C	-3.685866	-0.206163	-0.743907
H66	H	-3.682383	-0.240854	-0.805371
H67	H	-3.546531	-0.182905	-0.698049
H68	H	-3.783610	-0.248082	-0.731320
C69	C	-4.428411	-0.231196	-0.929081
H70	H	-4.498766	-0.236076	-0.886332
H71	H	-4.436217	-0.176239	-0.938275
H72	H	-4.496471	-0.288235	-0.988124
C73	C	-3.847283	0.058773	-0.631837
H74	H	-3.887282	0.112832	-0.630633
H75	H	-3.822652	0.060043	-0.571520
H76	H	-3.719822	0.061872	-0.646551
H77	H	-3.873200	-0.631528	-0.001541
C78	C	-3.975161	-0.823713	-0.037976
H79	H	-4.020211	-0.892577	-0.070020
H80	H	-3.830925	-0.798427	0.004219
H81	H	-4.065146	-0.804702	-0.003122
C82	C	-4.154820	-0.882210	-0.380640
H83	H	-4.187595	-0.947084	-0.389317
H84	H	-4.279932	-0.874642	-0.412837
H85	H	-4.045708	-0.868369	-0.405485
H86	H	-4.150412	-0.820995	-0.431616
H87	H	-4.175118	-0.755354	-0.551958
C88	C	-3.640843	-0.026294	-0.824178
H89	H	-3.498651	-0.024068	-0.798264
H90	H	-3.662126	-0.027000	-0.884152
H91	H	-3.662306	0.029250	-0.782653
C92	C	-4.150947	-0.637229	-0.615446
H93	H	-4.183728	-0.702103	-0.624121
H94	H	-4.276060	-0.629658	-0.647638
H95	H	-4.041845	-0.623395	-0.640298
H96	H	-3.769062	-0.182040	-0.887429
C97	C	-3.570411	-0.027675	-0.663102
H98	H	-3.519454	0.010623	-0.691520
H99	H	-3.617528	0.008811	-0.615114
H100	H	-3.457874	-0.045681	-0.635837
H101	H	-4.168074	-0.286616	-0.938875
