data_functionalizedCrystal
_audit_creation_method	'MofGen! by Chris Wilmer'
_symmetry_space_group_name_H-M	'P1'
_symmetry_Int_Tables_number	1
_symmetry_cell_setting	triclinic
loop_
_symmetry_equiv_pos_as_xyz
  x,y,z
_cell_length_a	16.120484
_cell_length_b	15.298206
_cell_length_c	15.296720
_cell_angle_alpha	110.778255
_cell_angle_beta	101.986518
_cell_angle_gamma	82.742846
loop_
_atom_site_label
_atom_site_type_symbol
_atom_site_fract_x
_atom_site_fract_y
_atom_site_fract_z
Zn1	Zn	-0.589141	1.291508	-0.318430
Zn2	Zn	-0.707984	1.310435	-0.170812
Zn3	Zn	-0.548075	1.165649	-0.187166
Zn4	Zn	-0.707972	1.128078	-0.353231
O5	O	-0.638293	1.223918	-0.257410
O6	O	-0.622097	1.423007	-0.277440
O7	O	-0.669591	1.314874	-0.041704
O8	O	-0.436869	1.190147	-0.196859
O9	O	-0.709411	1.436913	-0.168985
O10	O	-0.467040	1.282615	-0.293298
O11	O	-0.552107	1.208500	-0.053719
O12	O	-0.552094	1.031677	-0.230603
O13	O	-0.709389	1.126113	-0.479892
O14	O	-0.669569	1.004073	-0.352610
O15	O	-0.622085	1.246184	-0.454324
O16	O	-0.824636	1.278443	-0.202730
O17	O	-0.824627	1.144466	-0.336752
C18	C	-0.606375	0.984429	-0.297158
C19	C	-0.592743	0.881970	-0.314187
C20	C	-0.540974	0.826578	-0.378757
C21	C	-0.528159	0.730312	-0.394757
C22	C	-0.567116	0.689428	-0.346195
C23	C	-0.618891	0.744819	-0.281629
C24	C	-0.631702	0.841096	-0.265621
C25	C	-0.657844	0.703946	-0.233060
C26	C	-0.709618	0.759337	-0.168493
C27	C	-0.722428	0.855604	-0.152489
C28	C	-0.683471	0.896488	-0.201051
C29	C	-0.645032	0.607669	-0.249067
C30	C	-0.735760	0.622187	-0.135932
C31	C	-0.748575	0.718453	-0.119931
C32	C	-0.854885	1.209453	-0.271759
C33	C	-0.947559	1.203343	-0.277915
C34	C	-1.117239	1.192191	-0.289172
C35	C	-1.158530	1.255807	-0.225635
C36	C	-1.252946	1.249602	-0.231899
C37	C	-1.022815	1.198394	-0.282910
C38	C	-0.420861	1.238461	-0.243021
C39	C	-0.328205	1.244658	-0.236889
C40	C	-0.670316	1.179846	-0.502098
C41	C	-0.683963	1.161065	-0.606370
C42	C	-0.670336	1.464341	-0.217506
C43	C	-0.683992	1.566795	-0.200502
C44	C	-0.540618	1.358191	-0.847047
C45	C	-0.527799	1.375842	-0.749078
C46	C	-0.566838	1.322149	-0.713396
C47	C	-0.618700	1.250802	-0.775693
C48	C	-0.631526	1.233154	-0.873672
C49	C	-0.657746	1.197113	-0.740020
C50	C	-0.709608	1.125766	-0.802318
C51	C	-0.722431	1.108121	-0.900286
C52	C	-0.683392	1.161813	-0.935968
C53	C	-0.644920	1.214761	-0.642042
C54	C	-0.735828	1.089724	-0.668667
C55	C	-0.748648	1.072073	-0.766636
C56	C	-0.606341	1.267875	-0.013660
C57	C	-0.592484	1.286850	0.090656
H58	H	-0.509256	0.859876	-0.418284
H59	H	-0.602693	1.272851	-0.591329
O60	O	-0.778371	1.031170	-0.967474
H61	H	-0.832131	1.061547	-1.008063
H62	H	-1.122972	1.314930	-0.166534
H63	H	-0.693914	0.974872	-0.188039
O64	O	-1.164325	1.113862	-0.367442
H65	H	-1.232164	1.121213	-0.360125
H66	H	-0.602876	0.562579	-0.301636
O67	O	-0.553007	1.341174	-0.607731
H68	H	-0.510379	1.399798	-0.570406
O69	O	-0.471869	1.452789	-0.681886
H70	H	-0.446872	1.487156	-0.723155
O71	O	-0.804580	0.995122	-0.833835
H72	H	-0.869653	1.009929	-0.816739
H73	H	-0.693826	1.147446	-1.015742
H74	H	-0.767619	1.046005	-0.639615
O75	O	-0.553303	0.585598	-0.363453
H76	H	-0.510763	0.553947	-0.416514
O77	O	-0.472321	0.670568	-0.464391
H78	H	-0.447389	0.715167	-0.495476
H79	H	-0.508843	1.401904	-0.876109
O80	O	-0.778256	0.915355	-0.082839
H81	H	-0.803197	0.870756	-0.051762
O82	O	-0.777782	0.578108	-0.083543
H83	H	-0.819912	0.523884	-0.135552
H84	H	-0.790731	0.763566	-0.067361
