data_functionalizedCrystal
_audit_creation_method	'MofGen! by Chris Wilmer'
_symmetry_space_group_name_H-M	'P1'
_symmetry_Int_Tables_number	1
_symmetry_cell_setting	triclinic
loop_
_symmetry_equiv_pos_as_xyz
  x,y,z
_cell_length_a	17.000371
_cell_length_b	15.500215
_cell_length_c	17.038272
_cell_angle_alpha	87.012587
_cell_angle_beta	96.644598
_cell_angle_gamma	93.371385
loop_
_atom_site_label
_atom_site_type_symbol
_atom_site_fract_x
_atom_site_fract_y
_atom_site_fract_z
O1	O	1.061506	0.071949	-0.031044
O2	O	1.561506	0.571949	0.468956
O3	O	0.831685	0.071950	-0.059288
O4	O	1.331685	0.571950	0.440712
O5	O	0.945229	0.071942	0.068556
O6	O	1.445229	0.571942	0.568556
O7	O	0.947962	0.071956	-0.158888
O8	O	1.447962	0.571956	0.341112
O9	O	0.938211	-0.071947	0.074561
O10	O	1.438211	0.428053	0.574561
O11	O	0.824667	-0.071940	-0.053284
O12	O	1.324667	0.428060	0.446716
O13	O	1.054487	-0.071941	-0.025039
O14	O	1.554487	0.428059	0.474961
Cu15	Cu	0.938936	-0.085079	-0.038613
Cu16	Cu	1.438936	0.414921	0.461387
Cu17	Cu	0.947236	0.085088	-0.045714
Cu18	Cu	1.447236	0.585088	0.454286
O19	O	0.940943	-0.071934	-0.152883
O20	O	1.440943	0.428066	0.347117
C21	C	0.798625	0.000005	-0.057803
C22	C	1.298625	0.500005	0.442197
C23	C	0.710572	0.000005	-0.062314
C24	C	1.210572	0.500005	0.437686
N25	N	0.933104	-0.204764	-0.033618
N26	N	1.433104	0.295236	0.466382
C27	C	0.673845	-0.000000	0.007108
C28	C	1.173845	0.500000	0.507108
C29	C	0.591110	0.000006	0.002864
C30	C	1.091110	0.500006	0.502864
C31	C	0.545103	0.000012	-0.070802
C32	C	1.045103	0.500012	0.429198
C33	C	0.581835	0.000021	-0.140230
C34	C	1.081835	0.500021	0.359770
C35	C	0.664569	0.000020	-0.135985
C36	C	1.164569	0.500020	0.364015
C37	C	0.295067	0.000019	-0.087196
C38	C	0.795067	0.500019	0.412804
C39	C	0.212327	0.000017	-0.091435
C40	C	0.712327	0.500017	0.408565
C41	C	0.221609	0.000004	0.051659
C42	C	0.721609	0.500004	0.551659
C43	C	0.304344	-0.000001	0.055897
C44	C	0.804344	0.499999	0.555897
C45	C	0.341069	0.000011	-0.013531
C46	C	0.841069	0.500011	0.486469
C47	C	0.460534	0.000016	-0.075142
C48	C	0.960534	0.500016	0.424858
C49	C	0.425637	0.000014	-0.009191
C50	C	0.925637	0.500014	0.490809
C51	C	0.982144	-0.250035	-0.075655
C52	C	1.482144	0.249965	0.424345
C53	C	0.977743	-0.340608	-0.071871
C54	C	1.477743	0.159392	0.428129
C55	C	0.924298	-0.385909	-0.026054
C56	C	1.424298	0.114091	0.473946
C57	C	0.875256	-0.340633	0.015988
C58	C	1.375256	0.159367	0.515988
C59	C	0.879662	-0.250061	0.012208
C60	C	1.379662	0.249939	0.512208
C61	C	0.908438	-0.659378	-0.012440
C62	C	1.408438	-0.159378	0.487560
C63	C	0.904035	-0.749956	-0.008666
C64	C	1.404035	-0.249956	0.491334
C65	C	1.006523	-0.749926	-0.096524
C66	C	1.506523	-0.249926	0.403476
C67	C	1.010920	-0.659352	-0.100304
C68	C	1.510920	-0.159352	0.399696
C69	C	0.961881	-0.614083	-0.058258
C70	C	1.461881	-0.114083	0.441742
C71	C	0.919797	-0.478490	-0.022188
C72	C	1.419797	0.021510	0.477812
C73	C	0.966387	-0.521504	-0.062121
C74	C	1.466387	-0.021504	0.437879
C75	C	1.087547	0.000006	-0.026524
C76	C	1.587547	0.500006	0.473476
C77	C	1.175601	0.000011	-0.022013
C78	C	1.675601	0.500011	0.477987
C79	C	0.939235	-0.000002	0.100517
C80	C	1.439235	0.499998	0.600517
C81	C	0.931823	-0.000002	0.186802
C82	C	1.431823	0.499998	0.686802
N83	N	0.953074	0.204773	-0.050703
N84	N	1.453074	0.704773	0.449297
C85	C	0.946937	0.000013	-0.184844
C86	C	1.446937	0.500013	0.315156
C87	C	0.954350	0.000018	-0.271129
C88	C	1.454350	0.500018	0.228871
C89	C	0.999881	-0.000003	0.241577
C90	C	1.499881	0.499997	0.741577
C91	C	0.992912	0.000005	0.322650
C92	C	1.492912	0.500005	0.822650
C93	C	0.917883	0.000008	0.348946
C94	C	1.417883	0.500008	0.848946
C95	C	0.849819	0.000012	0.294164
C96	C	1.349819	0.500012	0.794164
C97	C	0.856790	0.000010	0.213092
C98	C	1.356790	0.500010	0.713092
C99	C	0.893257	0.000020	0.593017
C100	C	1.393257	0.500020	1.093017
C101	C	0.886292	0.000020	0.674095
C102	C	1.386292	0.500020	1.174095
C103	C	1.029385	0.000014	0.702576
C104	C	1.529385	0.500014	1.202576
C105	C	1.036349	0.000007	0.621502
C106	C	1.536349	0.500007	1.121502
C107	C	0.968285	0.000015	0.566727
C108	C	1.468285	0.500015	1.066727
C109	C	0.910757	0.000014	0.431815
C110	C	1.410757	0.500014	0.931815
C111	C	0.975412	0.000016	0.483859
C112	C	1.475412	0.500016	0.983859
H113	H	0.711299	-0.000009	0.067095
H114	H	1.211299	0.499991	0.567095
Br115	Br	0.366777	-0.000020	0.155876
Br116	Br	0.866777	0.499980	0.655876
Br117	Br	0.519397	0.000041	-0.240207
Br118	Br	1.019397	0.500041	0.259793
H119	H	0.876282	-0.515384	0.015116
H120	H	1.376282	-0.015384	0.515116
Br121	Br	1.073072	-0.811366	-0.153583
Br122	Br	1.573072	-0.311366	0.346417
H123	H	1.084798	0.000009	0.747182
H124	H	1.584798	0.500009	1.247182
Br125	Br	0.149887	0.000013	-0.191417
Br126	Br	0.649887	0.500013	0.308583
Br127	Br	0.764421	0.000019	0.138752
Br128	Br	1.264421	0.500019	0.638752
H129	H	0.831744	-0.377524	0.053297
H130	H	1.331744	0.122476	0.553297
Br131	Br	1.054677	-0.188563	-0.137841
Br132	Br	1.554677	0.311437	0.362159
H133	H	1.017678	-0.377463	-0.106101
H134	H	1.517678	0.122537	0.393899
H135	H	0.191698	0.000003	0.108182
H136	H	0.691698	0.500003	0.608182
Br137	Br	0.344898	0.000038	-0.181420
Br138	Br	0.844898	0.500038	0.318580
Br139	Br	0.831496	-0.811437	0.053517
Br140	Br	1.331496	-0.311437	0.553517
Br141	Br	0.841854	-0.597953	0.044587
Br142	Br	1.341854	-0.097953	0.544587
Br143	Br	1.083417	-0.597878	-0.162528
Br144	Br	1.583417	-0.097878	0.337472
Br145	Br	1.077234	0.000019	0.448170
Br146	Br	1.577234	0.500019	0.948170
Br147	Br	0.813116	-0.188621	0.069273
Br148	Br	1.313116	0.311379	0.569273
Br149	Br	1.038921	-0.460023	-0.124294
Br150	Br	1.538921	0.039977	0.375706
H151	H	1.060977	-0.000011	0.220175
H152	H	1.560977	0.499989	0.720175
H153	H	1.048332	0.000002	0.367246
H154	H	1.548332	0.500002	0.867246
H155	H	1.097445	0.000004	0.600099
H156	H	1.597445	0.500004	1.100099
H157	H	0.423065	0.000020	-0.135121
H158	H	0.923065	0.500020	0.364879
H159	H	0.849668	0.000015	0.453235
H160	H	1.349668	0.500015	0.953235
Br161	Br	0.784460	0.000015	0.709782
Br162	Br	1.284460	0.500015	1.209782
H163	H	0.788729	0.000020	0.315580
H164	H	1.288729	0.500020	0.815580
Br165	Br	0.800885	0.000037	0.518688
Br166	Br	1.300885	0.500037	1.018688
H167	H	0.694470	0.000021	-0.192516
H168	H	1.194470	0.500021	0.307484
Br169	Br	0.541271	0.000029	0.097083
Br170	Br	1.041271	0.500029	0.597083
H171	H	0.463100	0.000014	0.050787
H172	H	0.963100	0.500014	0.550787
