data_functionalizedCrystal
_audit_creation_method	'MofGen! by Chris Wilmer'
_symmetry_space_group_name_H-M	'P1'
_symmetry_Int_Tables_number	1
_symmetry_cell_setting	triclinic
loop_
_symmetry_equiv_pos_as_xyz
  x,y,z
_cell_length_a	13.897448
_cell_length_b	11.169417
_cell_length_c	13.897433
_cell_angle_alpha	90.046319
_cell_angle_beta	90.068930
_cell_angle_gamma	90.020447
loop_
_atom_site_label
_atom_site_type_symbol
_atom_site_fract_x
_atom_site_fract_y
_atom_site_fract_z
Zn1	Zn	0.383572	-1.835199	-0.545343
Zn2	Zn	0.716905	-1.501866	-0.212010
Zn3	Zn	1.050239	-1.168533	0.121324
Zn4	Zn	0.545009	-1.834963	-0.384051
Zn5	Zn	0.878342	-1.501630	-0.050718
Zn6	Zn	1.211676	-1.168297	0.282615
Zn7	Zn	0.383732	-1.634392	-0.384067
Zn8	Zn	0.717065	-1.301059	-0.050734
Zn9	Zn	1.050399	-0.967726	0.282599
Zn10	Zn	0.544829	-1.634460	-0.545310
Zn11	Zn	0.878163	-1.301127	-0.211977
Zn12	Zn	1.211496	-0.967794	0.121356
O13	O	0.464286	-1.734754	-0.464693
O14	O	0.797619	-1.401421	-0.131360
O15	O	1.130952	-1.068087	0.201974
O16	O	0.404995	-2.003118	-0.523954
O17	O	0.738329	-1.669784	-0.190621
O18	O	1.071662	-1.336451	0.142712
O19	O	0.523757	-1.808230	-0.249072
O20	O	0.857091	-1.474897	0.084262
O21	O	1.190424	-1.141563	0.417595
O22	O	0.248729	-1.661100	-0.405481
O23	O	0.582062	-1.327767	-0.072148
O24	O	0.915396	-0.994433	0.261186
O25	O	0.523602	-2.002944	-0.405454
O26	O	0.856936	-1.669611	-0.072121
O27	O	1.190269	-1.336278	0.261213
O28	O	0.248612	-1.808632	-0.523970
O29	O	0.581945	-1.475299	-0.190636
O30	O	0.915278	-1.141965	0.142697
O31	O	0.405268	-1.660871	-0.249083
O32	O	0.738601	-1.327538	0.084250
O33	O	1.071935	-0.994205	0.417583
O34	O	0.405094	-1.466452	-0.405449
O35	O	0.738427	-1.133118	-0.072116
O36	O	1.071760	-0.799785	0.261217
O37	O	0.523296	-1.661216	-0.680297
O38	O	0.856629	-1.327883	-0.346963
O39	O	1.189963	-0.994549	-0.013630
O40	O	0.523451	-1.466502	-0.523914
O41	O	0.856784	-1.133168	-0.190581
O42	O	1.190118	-0.799835	0.142753
O43	O	0.404821	-1.808698	-0.680321
O44	O	0.738154	-1.475365	-0.346987
O45	O	1.071488	-1.142031	-0.013654
O46	O	0.679967	-1.808296	-0.405422
O47	O	1.013300	-1.474963	-0.072089
O48	O	1.346633	-1.141629	0.261244
O49	O	0.679835	-1.660987	-0.523899
O50	O	1.013168	-1.327654	-0.190565
O51	O	1.346501	-0.994321	0.142768
C52	C	0.714900	-1.734656	-0.464676
C53	C	1.048233	-1.401323	-0.131343
C54	C	1.381567	-1.067989	0.201990
C55	C	0.822114	-1.734724	-0.464702
C56	C	1.155447	-1.401391	-0.131368
C57	C	1.488780	-1.068057	0.201965
C58	C	0.464271	-1.422929	-0.464681
C59	C	0.797604	-1.089596	-0.131347
C60	C	1.130938	-0.756262	0.201986
C61	C	0.464288	-1.289529	-0.464698
C62	C	0.797621	-0.956196	-0.131365
C63	C	1.130955	-0.622863	0.201969
C64	C	0.464021	-1.734991	-0.716286
C65	C	0.797354	-1.401657	-0.382953
C66	C	1.130687	-1.068324	-0.049620
C67	C	0.463908	-1.735092	-0.823501
C68	C	0.797241	-1.401758	-0.490167
C69	C	1.130574	-1.068425	-0.156834
C70	C	1.018409	-1.734842	-0.464771
C71	C	1.351742	-1.401509	-0.131438
C72	C	1.685075	-1.068175	0.201896
C73	C	0.909176	-1.734773	-0.464735
C74	C	1.242510	-1.401440	-0.131402
C75	C	1.575843	-1.068106	0.201931
C76	C	1.212692	-1.734875	-0.464742
C77	C	1.546026	-1.401541	-0.131409
C78	C	1.879359	-1.068208	0.201925
C79	C	1.105479	-1.734900	-0.464792
C80	C	1.438812	-1.401566	-0.131459
C81	C	1.772145	-1.068233	0.201875
C82	C	0.464301	-2.047796	-0.464706
C83	C	0.797634	-1.714463	-0.131373
C84	C	1.130968	-1.381129	0.201961
C85	C	0.464307	-2.181196	-0.464712
C86	C	0.797641	-1.847863	-0.131378
C87	C	1.130974	-1.514529	0.201955
C88	C	0.464480	-1.734587	-0.214078
C89	C	0.797813	-1.401254	0.119255
C90	C	1.131147	-1.067920	0.452588
C91	C	0.464321	-1.734718	-0.106865
C92	C	0.797654	-1.401385	0.226469
C93	C	1.130988	-1.068052	0.559802
C94	C	0.464038	-1.734985	0.089430
C95	C	0.797371	-1.401652	0.422763
C96	C	1.130704	-1.068319	0.756097
C97	C	0.464198	-1.734841	-0.019802
C98	C	0.797531	-1.401507	0.313531
C99	C	1.130865	-1.068174	0.646864
