data_functionalizedCrystal
_audit_creation_method	'MofGen! by Chris Wilmer'
_symmetry_space_group_name_H-M	'P1'
_symmetry_Int_Tables_number	1
_symmetry_cell_setting	triclinic
loop_
_symmetry_equiv_pos_as_xyz
  x,y,z
_cell_length_a	16.625547
_cell_length_b	25.639240
_cell_length_c	16.625539
_cell_angle_alpha	89.975626
_cell_angle_beta	89.978691
_cell_angle_gamma	90.031996
loop_
_atom_site_label
_atom_site_type_symbol
_atom_site_fract_x
_atom_site_fract_y
_atom_site_fract_z
Zn1	Zn	1.232599	-0.208160	-0.456012
Zn2	Zn	1.482599	0.041840	-0.206012
Zn3	Zn	1.732599	0.291840	0.043988
Zn4	Zn	1.982599	0.541840	0.293988
Zn5	Zn	1.232488	-0.295595	-0.321184
Zn6	Zn	1.482488	-0.045595	-0.071184
Zn7	Zn	1.732488	0.204405	0.178816
Zn8	Zn	1.982488	0.454405	0.428816
Zn9	Zn	1.097769	-0.208176	-0.321183
Zn10	Zn	1.347769	0.041824	-0.071183
Zn11	Zn	1.597769	0.291824	0.178817
Zn12	Zn	1.847769	0.541824	0.428817
Zn13	Zn	1.097708	-0.295566	-0.455964
Zn14	Zn	1.347708	-0.045566	-0.205964
Zn15	Zn	1.597708	0.204434	0.044036
Zn16	Zn	1.847708	0.454434	0.294036
O17	O	1.165141	-0.251874	-0.388586
O18	O	1.415141	-0.001874	-0.138586
O19	O	1.665141	0.248126	0.111414
O20	O	1.915141	0.498126	0.361414
O21	O	1.345416	-0.219764	-0.438148
O22	O	1.595416	0.030236	-0.188148
O23	O	1.845416	0.280236	0.061852
O24	O	2.095416	0.530236	0.311852
O25	O	1.214596	-0.284017	-0.208352
O26	O	1.464596	-0.034017	0.041648
O27	O	1.714596	0.215983	0.291648
O28	O	1.964596	0.465983	0.541648
O29	O	1.115726	-0.135008	-0.339088
O30	O	1.365726	0.114992	-0.089088
O31	O	1.615726	0.364992	0.160912
O32	O	1.865726	0.614992	0.410912
O33	O	1.345335	-0.284003	-0.339090
O34	O	1.595335	-0.034003	-0.089090
O35	O	1.845335	0.215997	0.160910
O36	O	2.095335	0.465997	0.410910
O37	O	1.214785	-0.134997	-0.438146
O38	O	1.464785	0.115003	-0.188146
O39	O	1.714785	0.365003	0.061854
O40	O	1.964785	0.615003	0.311854
O41	O	1.115618	-0.219791	-0.208351
O42	O	1.365618	0.030209	0.041649
O43	O	1.615618	0.280209	0.291649
O44	O	1.865618	0.530209	0.541649
O45	O	0.984928	-0.219763	-0.339041
O46	O	1.234928	0.030237	-0.089041
O47	O	1.484928	0.280237	0.160959
O48	O	1.734928	0.530237	0.410959
O49	O	1.115623	-0.283953	-0.568803
O50	O	1.365623	-0.033953	-0.318803
O51	O	1.615623	0.216047	-0.068803
O52	O	1.865623	0.466047	0.181197
O53	O	0.984884	-0.283968	-0.438065
O54	O	1.234884	-0.033968	-0.188065
O55	O	1.484884	0.216032	0.061935
O56	O	1.734884	0.466032	0.311935
O57	O	1.214727	-0.219736	-0.568838
O58	O	1.464727	0.030264	-0.318838
O59	O	1.714727	0.280264	-0.068838
O60	O	1.964727	0.530264	0.181162
O61	O	1.214537	-0.368757	-0.339044
O62	O	1.464537	-0.118757	-0.089044
O63	O	1.714537	0.131243	0.160956
O64	O	1.964537	0.381243	0.410956
O65	O	1.115515	-0.368735	-0.438066
O66	O	1.365515	-0.118735	-0.188066
O67	O	1.615515	0.131265	0.061934
O68	O	1.865515	0.381265	0.311934
C69	C	0.955650	-0.251864	-0.388548
C70	C	1.205650	-0.001864	-0.138548
C71	C	1.455650	0.248136	0.111452
C72	C	1.705650	0.498136	0.361452
C73	C	0.866029	-0.251873	-0.388551
C74	C	1.116029	-0.001873	-0.138551
C75	C	1.366029	0.248127	0.111449
C76	C	1.616029	0.498127	0.361449
C77	C	0.793247	-0.251874	-0.388561
C78	C	1.043247	-0.001874	-0.138561
C79	C	1.293247	0.248126	0.111439
C80	C	1.543247	0.498126	0.361439
C81	C	0.701938	-0.251876	-0.388581
C82	C	0.951938	-0.001876	-0.138581
C83	C	1.201938	0.248124	0.111419
C84	C	1.451938	0.498124	0.361419
C85	C	0.629162	-0.251881	-0.388601
C86	C	0.879162	-0.001881	-0.138601
C87	C	1.129162	0.248119	0.111399
C88	C	1.379162	0.498119	0.361399
C89	C	0.537847	-0.251885	-0.388621
C90	C	0.787847	-0.001885	-0.138621
C91	C	1.037847	0.248115	0.111379
C92	C	1.287847	0.498115	0.361379
C93	C	1.165030	-0.387717	-0.388567
C94	C	1.415030	-0.137717	-0.138567
C95	C	1.665030	0.112283	0.111433
C96	C	1.915030	0.362283	0.361433
C97	C	1.165056	-0.445831	-0.388586
C98	C	1.415056	-0.195831	-0.138586
C99	C	1.665056	0.054169	0.111414
C100	C	1.915056	0.304169	0.361414
C101	C	1.216716	-0.696967	-0.440219
C102	C	1.466716	-0.446967	-0.190219
C103	C	1.716716	-0.196967	0.059781
C104	C	1.966716	0.053033	0.309781
C105	C	1.216692	-0.642363	-0.440212
C106	C	1.466692	-0.392363	-0.190212
C107	C	1.716692	-0.142363	0.059788
C108	C	1.966692	0.107637	0.309788
O109	O	1.260523	-0.614078	-0.484085
O110	O	1.510523	-0.364078	-0.234085
O111	O	1.760523	-0.114078	0.015915
O112	O	2.010523	0.135922	0.265915
N113	N	1.165144	-0.615105	-0.388597
N114	N	1.415144	-0.365105	-0.138597
N115	N	1.665144	-0.115105	0.111403
N116	N	1.915144	0.134895	0.361403
C117	C	1.113622	-0.642454	-0.336978
C118	C	1.363622	-0.392454	-0.086978
C119	C	1.613622	-0.142454	0.163022
C120	C	1.863622	0.107546	0.413022
O121	O	1.069775	-0.614255	-0.293073
O122	O	1.319775	-0.364255	-0.043073
O123	O	1.569775	-0.114255	0.206927
O124	O	1.819775	0.135745	0.456927
C125	C	1.113651	-0.697057	-0.336980
C126	C	1.363651	-0.447057	-0.086980
C127	C	1.613651	-0.197057	0.163020
C128	C	1.863651	0.052943	0.413020
C129	C	1.165197	-0.724313	-0.388605
C130	C	1.415197	-0.474313	-0.138605
C131	C	1.665197	-0.224313	0.111395
C132	C	1.915197	0.025687	0.361395
C133	C	1.268259	-0.724223	-0.491839
C134	C	1.518259	-0.474223	-0.241839
C135	C	1.768259	-0.224223	0.008161
C136	C	2.018259	0.025777	0.258161
C137	C	1.268282	-0.778823	-0.491846
C138	C	1.518282	-0.528823	-0.241846
C139	C	1.768282	-0.278823	0.008154
C140	C	2.018282	-0.028823	0.258154
C141	C	1.216762	-0.806168	-0.440232
C142	C	1.466762	-0.556168	-0.190232
C143	C	1.716762	-0.306168	0.059768
C144	C	1.966762	-0.056168	0.309768
C145	C	1.165220	-0.778913	-0.388612
C146	C	1.415220	-0.528913	-0.138612
C147	C	1.665220	-0.278913	0.111388
C148	C	1.915220	-0.028913	0.361388
C149	C	1.062134	-0.724405	-0.285358
C150	C	1.312134	-0.474405	-0.035358
C151	C	1.562134	-0.224405	0.214642
C152	C	1.812134	0.025595	0.464642
C153	C	1.062168	-0.779012	-0.285365
C154	C	1.312168	-0.529012	-0.035365
C155	C	1.562168	-0.279012	0.214635
C156	C	1.812168	-0.029012	0.464635
C157	C	1.113714	-0.806268	-0.336990
C158	C	1.363714	-0.556268	-0.086990
C159	C	1.613714	-0.306268	0.163010
C160	C	1.863714	-0.056268	0.413010
C161	C	1.113724	-0.860859	-0.337006
C162	C	1.363724	-0.610859	-0.087006
C163	C	1.613724	-0.360859	0.162994
C164	C	1.863724	-0.110859	0.412994
N165	N	1.165272	-0.888117	-0.388622
N166	N	1.415272	-0.638117	-0.138622
N167	N	1.665272	-0.388117	0.111378
N168	N	1.915272	-0.138117	0.361378
C169	C	1.216791	-0.860772	-0.440235
C170	C	1.466791	-0.610772	-0.190235
C171	C	1.716791	-0.360772	0.059765
C172	C	1.966791	-0.110772	0.309765
C173	C	1.113567	-0.527783	-0.336975
C174	C	1.363567	-0.277783	-0.086975
C175	C	1.613567	-0.027783	0.163025
C176	C	1.863567	0.222217	0.413025
C177	C	1.113533	-0.473181	-0.336976
C178	C	1.363533	-0.223181	-0.086976
C179	C	1.613533	0.026819	0.163024
C180	C	1.863533	0.276819	0.413024
C181	C	1.216604	-0.473094	-0.440210
C182	C	1.466604	-0.223094	-0.190210
C183	C	1.716604	0.026906	0.059790
C184	C	1.966604	0.276906	0.309790
C185	C	1.216633	-0.527697	-0.440212
C186	C	1.466633	-0.277697	-0.190212
C187	C	1.716633	-0.027697	0.059788
C188	C	1.966633	0.222303	0.309788
C189	C	1.165115	-0.555041	-0.388591
C190	C	1.415115	-0.305041	-0.138591
C191	C	1.665115	-0.055041	0.111409
C192	C	1.915115	0.194959	0.361409
C193	C	1.216835	-0.975437	-0.440246
C194	C	1.466835	-0.725437	-0.190246
C195	C	1.716835	-0.475437	0.059754
C196	C	1.966835	-0.225437	0.309754
C197	C	1.216851	-1.030042	-0.440251
C198	C	1.466851	-0.780042	-0.190251
C199	C	1.716851	-0.530042	0.059749
C200	C	1.966851	-0.280042	0.309749
C201	C	1.113783	-1.030125	-0.337014
C202	C	1.363783	-0.780125	-0.087014
C203	C	1.613783	-0.530125	0.162986
C204	C	1.863783	-0.280125	0.412986
C205	C	1.113764	-0.975524	-0.337012
C206	C	1.363764	-0.725524	-0.087012
C207	C	1.613764	-0.475524	0.162988
C208	C	1.863764	-0.225524	0.412988
C209	C	1.165296	-0.948181	-0.388631
C210	C	1.415296	-0.698181	-0.138631
C211	C	1.665296	-0.448181	0.111369
C212	C	1.915296	-0.198181	0.361369
O213	O	1.069917	-0.889179	-0.293154
O214	O	1.319917	-0.639179	-0.043154
O215	O	1.569917	-0.389179	0.206846
O216	O	1.819917	-0.139179	0.456846
O217	O	1.260639	-0.888977	-0.484125
O218	O	1.510639	-0.638977	-0.234125
O219	O	1.760639	-0.388977	0.015875
O220	O	2.010639	-0.138977	0.265875
C221	C	1.375450	-0.251885	-0.388625
C222	C	1.625450	-0.001885	-0.138625
C223	C	1.875450	0.248115	0.111375
C224	C	2.125450	0.498115	0.361375
C225	C	1.465071	-0.251889	-0.388641
C226	C	1.715071	-0.001889	-0.138641
C227	C	1.965071	0.248111	0.111359
C228	C	2.215071	0.498111	0.361359
C229	C	1.165181	-0.251840	-0.598895
C230	C	1.415181	-0.001840	-0.348895
C231	C	1.665181	0.248160	-0.098895
C232	C	1.915181	0.498160	0.151105
C233	C	1.165197	-0.251825	-0.688516
C234	C	1.415197	-0.001825	-0.438516
C235	C	1.665197	0.248175	-0.188516
C236	C	1.915197	0.498175	0.061484
C237	C	1.165275	-0.115501	-0.388622
C238	C	1.415275	0.134499	-0.138622
C239	C	1.665275	0.384499	0.111378
C240	C	1.915275	0.634499	0.361378
C241	C	1.165332	-0.057387	-0.388638
C242	C	1.415332	0.192613	-0.138638
C243	C	1.665332	0.442613	0.111362
C244	C	1.915332	0.692613	0.361362
C245	C	1.165211	-0.251814	-0.761299
C246	C	1.415211	-0.001814	-0.511299
C247	C	1.665211	0.248186	-0.261299
C248	C	1.915211	0.498186	-0.011299
C249	C	1.165229	-0.251794	-0.852607
C250	C	1.415229	-0.001794	-0.602607
C251	C	1.665229	0.248206	-0.352607
C252	C	1.915229	0.498206	-0.102607
C253	C	1.165248	-0.251776	-0.925384
C254	C	1.415248	-0.001776	-0.675384
C255	C	1.665248	0.248224	-0.425384
C256	C	1.915248	0.498224	-0.175384
C257	C	1.165268	-0.251757	-1.016698
C258	C	1.415268	-0.001757	-0.766698
C259	C	1.665268	0.248243	-0.516698
C260	C	1.915268	0.498243	-0.266698
C261	C	1.165148	-0.251871	-0.179095
C262	C	1.415148	-0.001871	0.070905
C263	C	1.665148	0.248129	0.320905
C264	C	1.915148	0.498129	0.570905
C265	C	1.165287	-0.251738	-0.089475
C266	C	1.415287	-0.001738	0.160525
C267	C	1.665287	0.248262	0.410525
C268	C	1.915287	0.498262	0.660525
H269	H	1.258798	-0.953181	-0.482278
H270	H	1.508798	-0.703181	-0.232278
H271	H	1.758798	-0.453181	0.017722
H272	H	2.008798	-0.203181	0.267722
O273	O	1.057986	-0.557270	-0.281298
O274	O	1.307986	-0.307270	-0.031298
O275	O	1.557986	-0.057270	0.218702
O276	O	1.807986	0.192730	0.468702
H277	H	1.094108	-0.582134	-0.240301
H278	H	1.344108	-0.332134	0.009699
H279	H	1.594108	-0.082134	0.259699
H280	H	1.844108	0.167866	0.509699
O281	O	1.323881	-0.808217	-0.547523
O282	O	1.573881	-0.558217	-0.297523
O283	O	1.823881	-0.308217	-0.047523
O284	O	2.073881	-0.058217	0.202477
H285	H	1.387165	-0.797704	-0.533747
H286	H	1.637165	-0.547704	-0.283747
H287	H	1.887165	-0.297704	-0.033747
H288	H	2.137165	-0.047704	0.216253
H289	H	1.020162	-0.702222	-0.243320
H290	H	1.270162	-0.452222	0.006680
H291	H	1.520162	-0.202222	0.256680
H292	H	1.770162	0.047778	0.506680
O293	O	1.006597	-0.808506	-0.229690
O294	O	1.256597	-0.558506	0.020310
O295	O	1.506597	-0.308506	0.270310
O296	O	1.756597	-0.058506	0.520310
H297	H	0.970749	-0.780377	-0.193801
H298	H	1.220749	-0.530377	0.056199
H299	H	1.470749	-0.280377	0.306199
H300	H	1.720749	-0.030377	0.556199
H301	H	1.258555	-0.450819	-0.482235
H302	H	1.508555	-0.200819	-0.232235
H303	H	1.758555	0.049181	0.017765
H304	H	2.008555	0.299181	0.267765
O305	O	1.058169	-0.946122	-0.281335
O306	O	1.308169	-0.696122	-0.031335
O307	O	1.558169	-0.446122	0.218665
O308	O	1.808169	-0.196122	0.468665
H309	H	1.022351	-0.974312	-0.245445
H310	H	1.272351	-0.724312	0.004555
H311	H	1.522351	-0.474312	0.254555
H312	H	1.772351	-0.224312	0.504555
O313	O	1.057927	-0.443790	-0.281300
O314	O	1.307927	-0.193790	-0.031300
O315	O	1.557927	0.056210	0.218700
O316	O	1.807927	0.306210	0.468700
H317	H	1.066555	-0.401226	-0.289965
H318	H	1.316555	-0.151226	-0.039965
H319	H	1.566555	0.098774	0.210035
H320	H	1.816555	0.348774	0.460035
O321	O	1.058233	-1.059628	-0.281338
O322	O	1.308233	-0.809628	-0.031338
O323	O	1.558233	-0.559628	0.218662
O324	O	1.808233	-0.309628	0.468662
H325	H	1.017204	-1.084525	-0.317379
H326	H	1.267204	-0.834525	-0.067379
H327	H	1.517204	-0.584525	0.182621
H328	H	1.767204	-0.334525	0.432621
O329	O	1.272447	-1.059441	-0.495935
O330	O	1.522447	-0.809441	-0.245935
O331	O	1.772447	-0.559441	0.004065
O332	O	2.022447	-0.309441	0.254065
H333	H	1.335734	-1.048935	-0.482163
H334	H	1.585734	-0.798935	-0.232163
H335	H	1.835734	-0.548935	0.017837
H336	H	2.085734	-0.298935	0.267837
O337	O	1.323843	-0.694737	-0.547505
O338	O	1.573843	-0.444737	-0.297505
O339	O	1.823843	-0.194737	-0.047505
O340	O	2.073843	0.055263	0.202495
H341	H	1.309979	-0.705208	-0.610773
H342	H	1.559979	-0.455208	-0.360773
H343	H	1.809979	-0.205208	-0.110773
H344	H	2.059979	0.044792	0.139227
O345	O	1.272233	-0.557094	-0.495886
O346	O	1.522233	-0.307094	-0.245886
O347	O	1.772233	-0.057094	0.004114
O348	O	2.022233	0.192906	0.254114
H349	H	1.308053	-0.528900	-0.531770
H350	H	1.558053	-0.278900	-0.281770
H351	H	1.808053	-0.028900	-0.031770
H352	H	2.058053	0.221100	0.218230
