data_functionalizedCrystal
_audit_creation_method	'MofGen! by Chris Wilmer'
_symmetry_space_group_name_H-M	'P1'
_symmetry_Int_Tables_number	1
_symmetry_cell_setting	triclinic
loop_
_symmetry_equiv_pos_as_xyz
  x,y,z
_cell_length_a	27.732048
_cell_length_b	26.210047
_cell_length_c	16.109301
_cell_angle_alpha	89.996922
_cell_angle_beta	83.052068
_cell_angle_gamma	90.003465
loop_
_atom_site_label
_atom_site_type_symbol
_atom_site_fract_x
_atom_site_fract_y
_atom_site_fract_z
O1	O	0.641345	0.042365	0.098914
O2	O	1.141345	0.542365	0.598914
O3	O	0.500615	0.042381	0.113956
O4	O	1.000615	0.542381	0.613956
O5	O	0.574846	0.042367	-0.014644
O6	O	1.074846	0.542367	0.485356
O7	O	0.567114	0.042378	0.227514
O8	O	1.067114	0.542378	0.727514
O9	O	0.574832	-0.042491	-0.014624
O10	O	1.074832	0.457509	0.485376
O11	O	0.500600	-0.042477	0.113976
O12	O	1.000600	0.457523	0.613976
O13	O	0.641331	-0.042493	0.098934
O14	O	1.141331	0.457507	0.598934
Cu15	Cu	0.570964	-0.050234	0.106457
Cu16	Cu	1.070964	0.449766	0.606457
Cu17	Cu	0.570981	0.050121	0.106433
Cu18	Cu	1.070981	0.550121	0.606433
O19	O	0.567100	-0.042480	0.227534
O20	O	1.067100	0.457520	0.727534
C21	C	0.482599	-0.000047	0.113650
C22	C	0.982599	0.499953	0.613650
C23	C	0.428940	-0.000041	0.112700
C24	C	0.928940	0.499959	0.612700
N25	N	0.570956	-0.120817	0.106473
N26	N	1.070956	0.379183	0.606473
C27	C	0.603847	-0.473337	0.049502
C28	C	1.103847	0.026663	0.549502
C29	C	0.603858	-0.686996	0.049491
C30	C	1.103858	-0.186996	0.549491
O31	O	0.631805	-0.714623	0.001056
O32	O	1.131805	-0.214623	0.501056
N33	N	0.570984	-0.713711	0.106415
N34	N	1.070984	-0.213711	0.606415
C35	C	0.538102	-0.687009	0.163343
C36	C	1.038102	-0.187009	0.663343
O37	O	0.510138	-0.714634	0.211755
O38	O	1.010138	-0.214634	0.711755
C39	C	0.538090	-0.473351	0.163350
C40	C	1.038090	0.026649	0.663350
C41	C	0.570969	-0.446639	0.106427
C42	C	1.070969	0.053361	0.606427
C43	C	0.636724	-0.446625	-0.007416
C44	C	1.136724	0.053375	0.492584
C45	C	0.636723	-0.393213	-0.007410
C46	C	1.136723	0.106787	0.492590
C47	C	0.603845	-0.366515	0.049515
C48	C	1.103845	0.133485	0.549515
C49	C	0.570968	-0.393227	0.106434
C50	C	1.070968	0.106773	0.606434
C51	C	0.505206	-0.446650	0.220273
C52	C	1.005206	0.053350	0.720273
C53	C	0.505205	-0.393232	0.220269
C54	C	1.005205	0.106768	0.720269
C55	C	0.538085	-0.366519	0.163346
C56	C	1.038085	0.133481	0.663346
C57	C	0.538089	-0.313117	0.163366
C58	C	1.038089	0.186883	0.663366
N59	N	0.570963	-0.286402	0.106441
N60	N	1.070963	0.213598	0.606441
C61	C	0.603841	-0.313100	0.049516
C62	C	1.103841	0.186900	0.549516
C63	C	0.538112	-0.799182	0.163336
C64	C	1.038112	-0.299182	0.663336
C65	C	0.538115	-0.852596	0.163336
C66	C	1.038115	-0.352596	0.663336
C67	C	0.603871	-0.852580	0.049482
C68	C	1.103871	-0.352580	0.549482
C69	C	0.603869	-0.799165	0.049487
C70	C	1.103869	-0.299165	0.549487
C71	C	0.570986	-0.772467	0.106412
C72	C	1.070986	-0.272467	0.606412
C73	C	0.603837	-0.200932	0.049534
C74	C	1.103837	0.299068	0.549534
C75	C	0.603834	-0.147516	0.049548
C76	C	1.103834	0.352484	0.549548
C77	C	0.538077	-0.147537	0.163399
C78	C	1.038077	0.352463	0.663399
C79	C	0.538081	-0.200949	0.163388
C80	C	1.038081	0.299051	0.663388
C81	C	0.570963	-0.227645	0.106449
C82	C	1.070963	0.272355	0.606449
O83	O	0.510153	-0.285457	0.211769
O84	O	1.010153	0.214543	0.711769
O85	O	0.631795	-0.285466	0.001099
O86	O	1.131795	0.214534	0.501099
C87	C	0.603849	-0.526749	0.049496
C88	C	1.103849	-0.026749	0.549496
C89	C	0.570972	-0.553461	0.106414
C90	C	1.070972	-0.053461	0.606414
C91	C	0.538094	-0.526763	0.163340
C92	C	1.038094	-0.026763	0.663340
C93	C	0.570976	-0.606876	0.106414
C94	C	1.070976	-0.106876	0.606414
C95	C	0.603853	-0.633574	0.049489
C96	C	1.103853	-0.133574	0.549489
C97	C	0.636728	-0.606859	-0.007436
C98	C	1.136728	-0.106859	0.492564
C99	C	0.636727	-0.553448	-0.007429
C100	C	1.136727	-0.053448	0.492571
C101	C	0.505220	-0.553478	0.220264
C102	C	1.005220	-0.053478	0.720264
C103	C	0.505224	-0.606889	0.220254
C104	C	1.005224	-0.106889	0.720254
C105	C	0.538102	-0.633588	0.163328
C106	C	1.038102	-0.133588	0.663328
C107	C	0.090418	-0.000060	0.182708
C108	C	0.590418	0.499940	0.682708
C109	C	-0.111256	-0.000064	0.179181
C110	C	0.388744	0.499936	0.679181
O111	O	-0.142244	-0.000083	0.243198
O112	O	0.357756	0.499917	0.743198
N113	N	-0.130699	-0.000067	0.102926
N114	N	0.369301	0.499933	0.602926
C115	C	-0.099720	-0.000072	0.027548
C116	C	0.400280	0.499928	0.527548
O117	O	-0.120885	-0.000079	-0.037392
O118	O	0.379115	0.499921	0.462608
C119	C	0.101954	-0.000071	0.031077
C120	C	0.601954	0.499929	0.531077
C121	C	0.121393	-0.000063	0.107336
C122	C	0.621393	0.499937	0.607336
C123	C	0.109859	-0.000052	0.258961
C124	C	0.609859	0.499948	0.758961
C125	C	0.160274	-0.000048	0.259842
C126	C	0.660274	0.499952	0.759842
C127	C	0.191250	-0.000052	0.184470
C128	C	0.691250	0.499948	0.684470
C129	C	0.171809	-0.000059	0.108217
C130	C	0.671809	0.499941	0.608217
C131	C	0.132932	-0.000079	-0.044300
C132	C	0.632932	0.499921	0.455700
C133	C	0.183353	-0.000080	-0.043411
C134	C	0.683353	0.499920	0.456589
C135	C	0.202793	-0.000072	0.032848
C136	C	0.702793	0.499928	0.532848
C137	C	0.253200	-0.000058	0.033726
C138	C	0.753200	0.499942	0.533726
N139	N	0.272643	-0.000056	0.109981
N140	N	0.772643	0.499944	0.609981
C141	C	0.241668	-0.000052	0.185353
C142	C	0.741668	0.499948	0.685353
C143	C	-0.205602	-0.000071	0.025701
C144	C	0.294398	0.499929	0.525701
C145	C	-0.256020	-0.000071	0.024819
C146	C	0.243980	0.499929	0.524819
C147	C	-0.267553	-0.000064	0.176451
C148	C	0.232447	0.499936	0.676451
C149	C	-0.217134	-0.000061	0.177333
C150	C	0.282866	0.499939	0.677333
C151	C	-0.186159	-0.000069	0.101956
C152	C	0.313841	0.499931	0.601956
C153	C	0.347545	-0.000044	0.187197
C154	C	0.847545	0.499956	0.687197
C155	C	0.397965	-0.000037	0.188072
C156	C	0.897965	0.499963	0.688072
C157	C	0.409494	-0.000047	0.036440
C158	C	0.909494	0.499953	0.536440
C159	C	0.359077	-0.000050	0.035565
C160	C	0.859077	0.499950	0.535565
C161	C	0.328104	-0.000050	0.110950
C162	C	0.828104	0.499950	0.610950
O163	O	0.284216	-0.000045	-0.030257
O164	O	0.784216	0.499955	0.469743
O165	O	0.262842	-0.000056	0.250283
O166	O	0.762842	0.499944	0.750283
C167	C	0.040003	-0.000064	0.181827
C168	C	0.540003	0.499936	0.681827
C169	C	0.020562	-0.000071	0.105574
C170	C	0.520562	0.499929	0.605574
C171	C	0.051537	-0.000074	0.030202
C172	C	0.551537	0.499926	0.530202
C173	C	-0.029856	-0.000070	0.104692
C174	C	0.470144	0.499930	0.604692
C175	C	-0.060831	-0.000067	0.180064
C176	C	0.439169	0.499933	0.680064
C177	C	-0.041388	-0.000064	0.256318
C178	C	0.458612	0.499936	0.756318
C179	C	0.009027	-0.000060	0.257199
C180	C	0.509027	0.499940	0.757199
C181	C	0.032095	-0.000077	-0.046052
C182	C	0.532095	0.499923	0.453948
C183	C	-0.018322	-0.000080	-0.046927
C184	C	0.481678	0.499920	0.453073
C185	C	-0.049297	-0.000077	0.028445
C186	C	0.450703	0.499923	0.528445
C187	C	0.659346	-0.000065	0.099240
C188	C	1.159346	0.499935	0.599240
C189	C	0.713005	-0.000067	0.100191
C190	C	1.213005	0.499933	0.600191
C191	C	0.574526	-0.000062	-0.045605
C192	C	1.074526	0.499938	0.454395
C193	C	0.573586	-0.000063	-0.137888
C194	C	1.073586	0.499937	0.362112
N195	N	0.570993	0.120705	0.106411
N196	N	1.070993	0.620705	0.606411
C197	C	0.615450	-0.000059	-0.360679
C198	C	1.115450	0.499941	0.139321
C199	C	0.614564	-0.000055	-0.447388
C200	C	1.114564	0.499945	0.052612
C201	C	0.526492	-0.000047	-0.426424
C202	C	1.026492	0.499953	0.073576
C203	C	0.527378	-0.000048	-0.339716
C204	C	1.027378	0.499952	0.160284
C205	C	0.571859	-0.000057	-0.306846
C206	C	1.071859	0.499943	0.193154
C207	C	0.570086	-0.000052	-0.480263
C208	C	1.070086	0.499948	0.019737
C209	C	0.569125	-0.000047	-0.574277
C210	C	1.069125	0.499953	-0.074277
C211	C	0.572820	-0.000060	-0.212826
C212	C	1.072820	0.499940	0.287174
C213	C	0.567420	-0.000049	0.258495
C214	C	1.067420	0.499951	0.758495
C215	C	0.568359	-0.000045	0.350779
C216	C	1.068359	0.499955	0.850779
H217	H	0.630610	-0.125769	0.003195
H218	H	1.130610	0.374231	0.503195
F219	F	0.671720	-0.475032	-0.068010
F220	F	1.171720	0.024968	0.431990
F221	F	0.480980	-0.000041	-0.282419
F222	F	0.980980	0.499959	0.217581
F223	F	-0.196449	-0.000054	0.258497
F224	F	0.303551	0.499946	0.758497
F225	F	0.662791	-0.000068	-0.325700
F226	F	1.162791	0.499932	0.174300
H227	H	0.490277	-0.000041	-0.453197
H228	H	0.990277	0.499959	0.046803
H229	H	0.630611	-0.222663	0.003168
H230	H	1.130611	0.277337	0.503168
H231	H	-0.066617	-0.000059	0.317688
H232	H	0.433383	0.499941	0.817688
H233	H	0.663495	-0.371467	-0.053763
H234	H	1.163495	0.128533	0.446237
H235	H	0.208571	-0.000087	-0.104794
H236	H	0.708571	0.499913	0.395206
F237	F	0.638863	-0.770740	-0.011098
F238	F	1.138863	-0.270740	0.488902
F239	F	0.503088	-0.119114	0.223982
F240	F	1.003088	0.380886	0.723982
F241	F	0.338387	-0.000059	-0.045598
F242	F	0.838387	0.499941	0.454402
H243	H	0.434723	-0.000047	-0.024926
H244	H	0.934723	0.499953	0.475074
F245	F	0.470205	-0.364821	0.280856
F246	F	0.970205	0.135179	0.780856
H247	H	0.630642	-0.874327	0.003132
H248	H	1.130642	-0.374327	0.503132
H249	H	-0.292781	-0.000062	0.237822
H250	H	0.207219	0.499938	0.737822
F251	F	0.065055	-0.000081	-0.126278
F252	F	0.565055	0.499919	0.373722
F253	F	0.076899	-0.000049	0.339190
F254	F	0.576899	0.499951	0.839190
F255	F	0.180957	-0.000043	0.341008
F256	F	0.680957	0.499957	0.841008
H257	H	0.511312	-0.222699	0.209748
H258	H	1.011312	0.277301	0.709748
F259	F	0.029710	-0.000052	0.338365
F260	F	0.529710	0.499948	0.838365
H261	H	0.511347	-0.874342	0.209696
H262	H	1.011347	-0.374342	0.709696
F263	F	0.503112	-0.770773	0.223928
F264	F	1.003112	-0.270773	0.723928
F265	F	0.660961	-0.000057	-0.504678
F266	F	1.160961	0.499943	-0.004678
H267	H	-0.271843	-0.000069	-0.037279
H268	H	0.228157	0.499931	0.462721
H269	H	0.478433	-0.468391	0.266624
H270	H	0.978433	0.031609	0.766624
F271	F	-0.172641	-0.000079	-0.054531
F272	F	0.327359	0.499921	0.445469
F273	F	0.112254	-0.000080	-0.125467
F274	F	0.612254	0.499920	0.374533
H275	H	0.663500	-0.531702	-0.053781
H276	H	1.163500	-0.031702	0.446219
H277	H	0.663500	-0.628606	-0.053784
H278	H	1.163500	-0.128606	0.446216
H279	H	0.478450	-0.628635	0.266614
H280	H	0.978450	-0.128635	0.766614
F281	F	0.470225	-0.525069	0.280854
F282	F	0.970225	-0.025069	0.780854
H283	H	-0.034144	-0.000082	-0.109031
H284	H	0.465856	0.499918	0.390969
H285	H	0.413790	-0.000031	0.250174
H286	H	0.913790	0.499969	0.750174
F287	F	0.314587	-0.000044	0.267431
F288	F	0.814587	0.499956	0.767431
