data_functionalizedCrystal
_audit_creation_method	'MofGen! by Chris Wilmer'
_symmetry_space_group_name_H-M	'P1'
_symmetry_Int_Tables_number	1
_symmetry_cell_setting	triclinic
loop_
_symmetry_equiv_pos_as_xyz
  x,y,z
_cell_length_a	19.077105
_cell_length_b	16.959453
_cell_length_c	19.076919
_cell_angle_alpha	87.728832
_cell_angle_beta	89.923776
_cell_angle_gamma	87.716327
loop_
_atom_site_label
_atom_site_type_symbol
_atom_site_fract_x
_atom_site_fract_y
_atom_site_fract_z
Zn1	Zn	1.058297	-0.382398	0.440414
Zn2	Zn	1.062946	-0.509489	0.322906
Zn3	Zn	0.945514	-0.371809	0.318208
Zn4	Zn	0.940767	-0.509012	0.435659
O5	O	1.001881	-0.443177	0.379297
O6	O	1.157246	-0.403887	0.428783
O7	O	1.051300	-0.486993	0.223952
O8	O	0.960516	-0.262606	0.334442
O9	O	1.160661	-0.497261	0.342450
O10	O	1.043377	-0.270385	0.424227
O11	O	0.965024	-0.385841	0.220500
O12	O	0.846552	-0.385378	0.329831
O13	O	0.952426	-0.496448	0.534621
O14	O	0.843065	-0.486181	0.416122
O15	O	1.038774	-0.403425	0.538115
O16	O	1.046698	-0.620033	0.337839
O17	O	0.956934	-0.619683	0.420678
C18	C	0.819312	-0.434579	0.371951
C19	C	0.741208	-0.430921	0.368825
C20	C	1.001824	-0.648539	0.379269
C21	C	1.001862	-0.736398	0.379283
C22	C	0.702720	-0.481758	0.412213
C23	C	0.629332	-0.478311	0.409280
C24	C	0.594434	-0.424029	0.362954
C25	C	0.632928	-0.373187	0.319565
C26	C	0.706314	-0.376631	0.322502
C27	C	0.375146	-0.408089	0.349362
C28	C	0.301755	-0.404650	0.346426
C29	C	0.298164	-0.509773	0.436142
C30	C	0.371552	-0.513216	0.439073
C31	C	0.410039	-0.462370	0.395686
N32	N	0.519420	-0.420506	0.359953
N33	N	0.485051	-0.465891	0.398691
C34	C	1.045081	-1.111874	0.426135
C35	C	0.958873	-1.103890	0.332571
C36	C	0.958848	-1.021343	0.332554
C37	C	1.001939	-0.984057	0.379328
C38	C	1.045055	-1.029319	0.426120
C39	C	0.915727	-0.976074	0.285768
C40	C	0.915699	-0.893521	0.285749
C41	C	0.958795	-0.856234	0.332521
C42	C	1.001913	-0.901501	0.379314
C43	C	1.045004	-0.864215	0.426089
C44	C	1.088127	-0.909481	0.472879
C45	C	1.088151	-0.992031	0.472892
C46	C	0.958771	-0.773684	0.332508
C47	C	1.044979	-0.781660	0.426075
C48	C	1.185163	-0.451808	0.386671
C49	C	1.263267	-0.455487	0.389814
C50	C	0.994552	-0.451065	0.562577
C51	C	0.991429	-0.454426	0.640680
C52	C	1.001957	-0.237014	0.379341
C53	C	1.001990	-0.149160	0.379360
C54	C	1.009222	-0.435264	0.196731
C55	C	1.012481	-0.431687	0.118634
C56	C	1.034917	-0.407575	0.679193
C57	C	1.031973	-0.410730	0.752579
C58	C	0.985546	-0.460741	0.787450
C59	C	0.942054	-0.507593	0.748932
C60	C	0.944994	-0.504434	0.675547
C61	C	0.971929	-0.475380	1.006731
C62	C	0.968994	-0.478538	1.080121
C63	C	1.058913	-0.381673	1.083763
C64	C	1.061852	-0.378522	1.010377
C65	C	1.018357	-0.425371	0.971865
N66	N	0.982538	-0.463969	0.862462
N67	N	1.021362	-0.422138	0.896854
H68	H	0.731128	-0.525962	0.449934
O69	O	0.912404	-1.144112	0.282125
H70	H	0.856757	-1.126239	0.291908
O71	O	1.078881	-0.360204	0.794121
H72	H	1.111666	-0.324907	0.757544
H73	H	0.904249	-0.548310	0.777330
O74	O	0.869264	-1.016286	0.235308
H75	H	0.876539	-1.081292	0.243169
H76	H	1.072725	-0.366854	0.650806
O77	O	0.912264	-0.724866	0.282047
H78	H	0.919483	-0.661199	0.289895
H79	H	0.266821	-0.551167	0.471467
H80	H	0.880587	-0.856671	0.247649
O81	O	0.587893	-0.533219	0.456074
H82	H	0.553032	-0.497964	0.490600
H83	H	0.399961	-0.557419	0.476795
O84	O	1.111930	-0.324586	0.972765
H85	H	1.141674	-0.292534	1.011875
O86	O	0.918907	-0.532475	1.117730
H87	H	0.881840	-0.496845	1.149734
O88	O	1.105803	-0.331120	1.125298
H89	H	1.095952	-0.341705	1.182185
H90	H	0.936523	-0.513540	0.975384
H91	H	0.273343	-0.360438	0.308706
H92	H	0.909575	-0.542576	0.644190
O93	O	1.091592	-1.160688	0.476600
H94	H	1.077288	-1.146626	0.531249
H95	H	0.406473	-0.366693	0.314028
O96	O	0.595281	-0.314659	0.269587
H97	H	0.560589	-0.274291	0.299751
O98	O	0.747832	-0.321810	0.275698
H99	H	0.711238	-0.283493	0.242984
O100	O	1.091465	-0.741444	0.476517
H101	H	1.121452	-0.786790	0.509053
O102	O	1.134654	-1.040857	0.523357
H103	H	1.164620	-1.001064	0.555876
H104	H	1.123209	-0.879114	0.510967
