data_functionalizedCrystal
_audit_creation_method	'MofGen! by Chris Wilmer'
_symmetry_space_group_name_H-M	'P1'
_symmetry_Int_Tables_number	1
_symmetry_cell_setting	triclinic
loop_
_symmetry_equiv_pos_as_xyz
  x,y,z
_cell_length_a	14.519709
_cell_length_b	23.532407
_cell_length_c	22.610064
_cell_angle_alpha	90.000603
_cell_angle_beta	90.002631
_cell_angle_gamma	83.264412
loop_
_atom_site_label
_atom_site_type_symbol
_atom_site_fract_x
_atom_site_fract_y
_atom_site_fract_z
O1	O	1.222991	0.074645	0.049114
O2	O	1.722991	0.574645	0.549114
O3	O	0.954410	0.083437	0.049133
O4	O	1.454410	0.583437	0.549133
O5	O	1.096799	-0.003854	0.049112
O6	O	1.596799	0.496146	0.549112
O7	O	1.080601	0.161936	0.049135
O8	O	1.580601	0.661936	0.549135
O9	O	1.096774	-0.003842	-0.049257
O10	O	1.596774	0.496158	0.450743
O11	O	0.954385	0.083449	-0.049236
O12	O	1.454385	0.583449	0.450764
O13	O	1.222966	0.074658	-0.049255
O14	O	1.722966	0.574658	0.450745
Zn15	Zn	1.088671	0.079056	-0.064864
Zn16	Zn	1.588671	0.579056	0.435136
Zn17	Zn	1.088704	0.079039	0.064742
Zn18	Zn	1.588704	0.579039	0.564742
O19	O	1.080576	0.161949	-0.049235
O20	O	1.580576	0.661949	0.450765
C21	C	0.920042	0.083033	-0.000050
C22	C	1.420042	0.583033	0.499950
C23	C	0.817676	0.081805	-0.000043
C24	C	1.317676	0.581805	0.499957
C25	C	0.442833	0.077286	-0.000070
C26	C	0.942833	0.577286	0.499930
C27	C	0.547126	0.078541	-0.000063
C28	C	1.047126	0.578541	0.499937
C29	C	0.630251	0.079545	-0.000056
C30	C	1.130251	0.579545	0.499944
C31	C	0.734551	0.080801	-0.000049
C32	C	1.234551	0.580801	0.499951
C33	C	1.096374	-0.025066	-0.000074
C34	C	1.596374	0.474934	0.499926
C35	C	1.095134	-0.088288	-0.000079
C36	C	1.595134	0.411712	0.499921
C37	C	1.171619	-0.487046	-0.000052
C38	C	1.671619	0.012954	0.499948
C39	C	1.170467	-0.546452	-0.000047
C40	C	1.670467	-0.046452	0.499953
O41	O	1.241369	-0.582876	-0.000030
O42	O	1.741369	-0.082876	0.499970
N43	N	1.085816	-0.569460	-0.000042
N44	N	1.585816	-0.069460	0.499958
C45	C	1.002312	-0.533059	-0.000035
C46	C	1.502312	-0.033059	0.499965
O47	O	0.930205	-0.558084	-0.000029
O48	O	1.430205	-0.058084	0.499971
C49	C	1.003465	-0.473655	-0.000035
C50	C	1.503465	0.026345	0.499965
C51	C	1.088121	-0.450650	-0.000046
C52	C	1.588121	0.049350	0.499954
C53	C	1.256268	-0.464041	-0.000062
C54	C	1.756268	0.035959	0.499938
C55	C	1.257420	-0.404640	-0.000068
C56	C	1.757420	0.095360	0.499932
C57	C	1.173922	-0.368244	-0.000063
C58	C	1.673922	0.131756	0.499937
C59	C	1.089273	-0.391249	-0.000052
C60	C	1.589273	0.108751	0.499948
C61	C	0.919962	-0.437255	-0.000024
C62	C	1.419962	0.062745	0.499976
C63	C	0.921123	-0.377847	-0.000024
C64	C	1.421123	0.122153	0.499976
C65	C	1.005779	-0.354843	-0.000035
C66	C	1.505779	0.145157	0.499965
C67	C	1.006927	-0.295451	-0.000053
C68	C	1.506927	0.204549	0.499947
N69	N	1.091578	-0.272443	-0.000058
N70	N	1.591578	0.227557	0.499942
C71	C	1.175075	-0.308839	-0.000063
C72	C	1.675075	0.191161	0.499937
C73	C	0.999897	-0.657813	-0.000033
C74	C	1.499897	-0.157813	0.499967
C75	C	0.998743	-0.717216	-0.000037
C76	C	1.498743	-0.217216	0.499963
C77	C	1.166898	-0.730604	-0.000048
C78	C	1.666898	-0.230604	0.499952
C79	C	1.168051	-0.671200	-0.000048
C80	C	1.668051	-0.171200	0.499952
C81	C	1.084548	-0.634804	-0.000038
C82	C	1.584548	-0.134804	0.499962
C83	C	1.177487	-0.184092	-0.000076
C84	C	1.677487	0.315908	0.499924
C85	C	1.178632	-0.124685	-0.000084
C86	C	1.678632	0.375315	0.499916
C87	C	1.010477	-0.111301	-0.000069
C88	C	1.510477	0.388699	0.499931
C89	C	1.009332	-0.170703	-0.000064
C90	C	1.509332	0.329297	0.499936
C91	C	1.092845	-0.207098	-0.000066
C92	C	1.592845	0.292902	0.499934
O93	O	0.936062	-0.258992	-0.000067
O94	O	1.436062	0.241008	0.499933
O95	O	1.247171	-0.283806	-0.000061
O96	O	1.747171	0.216194	0.499939
C97	C	1.257333	0.075061	-0.000072
C98	C	1.757333	0.575061	0.499928
C99	C	1.359700	0.076289	-0.000074
C100	C	1.859700	0.576289	0.499926
C101	C	1.081001	0.183160	-0.000047
C102	C	1.581001	0.683160	0.499953
C103	C	1.082241	0.246383	-0.000039
C104	C	1.582241	0.746383	0.499961
N105	N	1.088655	0.079067	-0.153317
N106	N	1.588655	0.579067	0.346683
C107	C	1.151757	0.040392	-0.561967
C108	C	1.651757	0.540392	-0.061967
C109	C	1.151762	0.040388	-0.623887
C110	C	1.651762	0.540388	-0.123887
O111	O	1.205374	0.007514	-0.655914
O112	O	1.705374	0.507514	-0.155914
N113	N	1.088704	0.079027	-0.654854
N114	N	1.588704	0.579027	-0.154854
C115	C	1.025630	0.117669	-0.623897
C116	C	1.525630	0.617669	-0.123897
O117	O	0.971994	0.150533	-0.655922
O118	O	1.471994	0.650533	-0.155922
C119	C	1.025622	0.117670	-0.561978
C120	C	1.525622	0.617670	-0.061978
C121	C	1.088690	0.079032	-0.531015
C122	C	1.588690	0.579032	-0.031015
C123	C	1.214820	0.001758	-0.531004
C124	C	1.714820	0.501758	-0.031004
C125	C	1.214816	0.001763	-0.469088
C126	C	1.714816	0.501763	0.030912
C127	C	1.151749	0.040402	-0.438136
C128	C	1.651749	0.540402	0.061864
C129	C	1.088687	0.079037	-0.469099
C130	C	1.588687	0.579037	0.030901
C131	C	0.962545	0.156308	-0.531023
C132	C	1.462545	0.656308	-0.031023
C133	C	0.962541	0.156305	-0.469100
C134	C	1.462541	0.656305	0.030900
C135	C	1.025610	0.117668	-0.438137
C136	C	1.525610	0.617668	0.061863
C137	C	1.025616	0.117682	-0.376232
C138	C	1.525616	0.617682	0.123768
N139	N	1.088674	0.079043	-0.345265
N140	N	1.588674	0.579043	0.154735
C141	C	1.151741	0.040403	-0.376217
C142	C	1.651741	0.540403	0.123783
C143	C	1.025652	0.117663	-0.753931
C144	C	1.525652	0.617663	-0.253931
C145	C	1.025664	0.117665	-0.815849
C146	C	1.525664	0.617665	-0.315849
C147	C	1.151794	0.040384	-0.815834
C148	C	1.651794	0.540384	-0.315834
C149	C	1.151786	0.040385	-0.753915
C150	C	1.651786	0.540385	-0.253915
C151	C	1.088710	0.079024	-0.722964
C152	C	1.588710	0.579024	-0.222964
C153	C	1.151729	0.040417	-0.246190
C154	C	1.651729	0.540417	0.253810
C155	C	1.151722	0.040427	-0.184269
C156	C	1.651722	0.540427	0.315731
C157	C	1.025588	0.117706	-0.184289
C158	C	1.525588	0.617706	0.315711
C159	C	1.025598	0.117698	-0.246204
C160	C	1.525598	0.617698	0.253796
C161	C	1.088672	0.079049	-0.277153
C162	C	1.588672	0.579049	0.222847
O163	O	0.972029	0.150537	-0.344166
O164	O	1.472029	0.650537	0.155834
O165	O	1.205360	0.007539	-0.344184
O166	O	1.705360	0.507539	0.155816
N167	N	1.088727	0.079023	0.153194
N168	N	1.588727	0.579023	0.653194
H169	H	1.247572	-0.105958	-0.000095
H170	H	1.747572	0.394042	0.499905
H171	H	1.203088	0.008945	-0.271382
H172	H	1.703088	0.508945	0.228618
H173	H	0.940399	-0.189434	-0.000071
H174	H	1.440399	0.310566	0.499929
H175	H	1.266169	-0.029701	-0.443881
H176	H	1.766169	0.470299	0.056119
H177	H	0.974290	0.149132	-0.728733
H178	H	1.474290	0.649132	-0.228733
Br179	Br	1.300420	-0.050690	-0.573000
Br180	Br	1.800420	0.449310	-0.073000
Br181	Br	1.237382	-0.012053	-0.711900
Br182	Br	1.737382	0.487947	-0.211900
H183	H	1.245491	-0.213718	-0.000074
H184	H	1.745491	0.286282	0.499926
Br185	Br	1.372316	-0.373429	-0.000067
Br186	Br	1.872316	0.126571	0.499933
Br187	Br	0.805065	-0.468460	-0.000006
Br188	Br	1.305065	0.031540	0.499994
H189	H	0.942496	-0.081657	-0.000067
H190	H	1.442496	0.418343	0.499933
Br191	Br	0.876948	0.208746	-0.573032
Br192	Br	1.376948	0.708746	-0.073032
Br193	Br	0.883849	-0.748428	-0.000035
Br194	Br	1.383849	-0.248428	0.499965
Br195	Br	0.807790	-0.328456	-0.000007
Br196	Br	1.307790	0.171544	0.499993
H197	H	0.974251	0.149166	-0.271415
H198	H	1.474251	0.649166	0.228585
H199	H	1.203145	0.008921	-0.841047
H200	H	1.703145	0.508921	-0.341047
Br201	Br	0.876929	0.208745	-0.427099
Br202	Br	1.376929	0.708745	0.072901
Br203	Br	0.940083	0.170113	-0.857863
Br204	Br	1.440083	0.670113	-0.357863
Br205	Br	0.940003	0.170145	-0.142272
Br206	Br	1.440003	0.670145	0.357728
H207	H	1.203083	0.008964	-0.159060
H208	H	1.703083	0.508964	0.340940
H209	H	1.236985	-0.652474	-0.000057
H210	H	1.736985	-0.152474	0.499943
Br211	Br	1.369602	-0.513426	-0.000069
Br212	Br	1.869602	-0.013426	0.499931
H213	H	1.234886	-0.760249	-0.000050
H214	H	1.734886	-0.260249	0.499950
H215	H	0.931894	-0.628182	-0.000030
H216	H	1.431894	-0.128182	0.499970
