data_functionalizedCrystal
_audit_creation_method	'MofGen! by Chris Wilmer'
_symmetry_space_group_name_H-M	'P1'
_symmetry_Int_Tables_number	1
_symmetry_cell_setting	triclinic
loop_
_symmetry_equiv_pos_as_xyz
  x,y,z
_cell_length_a	14.908294
_cell_length_b	12.759401
_cell_length_c	12.759399
_cell_angle_alpha	89.983359
_cell_angle_beta	93.268796
_cell_angle_gamma	86.719911
loop_
_atom_site_label
_atom_site_type_symbol
_atom_site_fract_x
_atom_site_fract_y
_atom_site_fract_z
Zn1	Zn	-0.510062	-1.571937	-0.452485
Zn2	Zn	-0.176729	-1.238604	-0.119152
Zn3	Zn	0.156605	-0.905270	0.214181
Zn4	Zn	-0.359211	-1.581979	-0.618053
Zn5	Zn	-0.025877	-1.248645	-0.284719
Zn6	Zn	0.307456	-0.915312	0.048614
Zn7	Zn	-0.359225	-1.406387	-0.442394
Zn8	Zn	-0.025891	-1.073053	-0.109061
Zn9	Zn	0.307442	-0.739720	0.224273
Zn10	Zn	-0.510024	-1.396229	-0.628125
Zn11	Zn	-0.176691	-1.062895	-0.294791
Zn12	Zn	0.156642	-0.729562	0.038542
O13	O	-0.434630	-1.489133	-0.535264
O14	O	-0.101297	-1.155799	-0.201931
O15	O	0.232036	-0.822466	0.131402
O16	O	-0.490061	-1.720289	-0.474456
O17	O	-0.156728	-1.386956	-0.141123
O18	O	0.176606	-1.053623	0.192211
O19	O	-0.232971	-1.567140	-0.586313
O20	O	0.100363	-1.233807	-0.252980
O21	O	0.433696	-0.900473	0.080354
O22	O	-0.379255	-1.428396	-0.296713
O23	O	-0.045922	-1.095063	0.036620
O24	O	0.287412	-0.761729	0.369954
O25	O	-0.379231	-1.727667	-0.596098
O26	O	-0.045898	-1.394334	-0.262765
O27	O	0.287435	-1.061000	0.070569
O28	O	-0.490075	-1.550025	-0.304127
O29	O	-0.156741	-1.216692	0.029206
O30	O	0.176592	-0.883358	0.362540
O31	O	-0.232981	-1.438133	-0.457257
O32	O	0.100353	-1.104800	-0.123924
O33	O	0.433686	-0.771466	0.209409
O34	O	-0.379219	-1.258019	-0.467024
O35	O	-0.045885	-0.924686	-0.133690
O36	O	0.287448	-0.591352	0.199643
O37	O	-0.636271	-1.411083	-0.613264
O38	O	-0.302938	-1.077750	-0.279931
O39	O	0.030395	-0.744416	0.053402
O40	O	-0.490010	-1.250556	-0.603479
O41	O	-0.156677	-0.917223	-0.270146
O42	O	0.176656	-0.583889	0.063187
O43	O	-0.636299	-1.540175	-0.484223
O44	O	-0.302966	-1.206842	-0.150889
O45	O	0.030368	-0.873508	0.182444
O46	O	-0.379195	-1.557290	-0.766408
O47	O	-0.045861	-1.223957	-0.433075
O48	O	0.287472	-0.890623	-0.099742
O49	O	-0.489997	-1.420820	-0.773808
O50	O	-0.156663	-1.087487	-0.440475
O51	O	0.176670	-0.754154	-0.107142
C52	C	-0.434612	-1.216167	-0.535250
C53	C	-0.101279	-0.882833	-0.201917
C54	C	0.232054	-0.549500	0.131416
C55	C	-0.434626	-1.099389	-0.535271
C56	C	-0.101293	-0.766056	-0.201938
C57	C	0.232040	-0.432722	0.131396
C58	C	-0.669933	-1.473376	-0.550992
C59	C	-0.336600	-1.140043	-0.217659
C60	C	-0.003267	-0.806709	0.115674
C61	C	-0.770206	-1.466661	-0.557695
C62	C	-0.436872	-1.133328	-0.224362
C63	C	-0.103539	-0.799995	0.108972
C64	C	-0.434610	-1.489070	-0.808230
C65	C	-0.101277	-1.155736	-0.474897
C66	C	0.232057	-0.822403	-0.141564
C67	C	-0.434631	-1.489137	-0.925008
C68	C	-0.101298	-1.155804	-0.591675
C69	C	0.232035	-0.822470	-0.258342
C70	C	-0.911521	-1.389988	-0.634314
C71	C	-0.578188	-1.056655	-0.300981
C72	C	-0.244855	-0.723322	0.032353
C73	C	-0.817307	-1.396296	-0.628024
C74	C	-0.483973	-1.062962	-0.294691
C75	C	-0.150640	-0.729629	0.038643
C76	C	-0.817326	-1.530722	-0.493649
C77	C	-0.483992	-1.197389	-0.160315
C78	C	-0.150659	-0.864056	0.173018
C79	C	-0.911540	-1.524415	-0.499939
C80	C	-0.578207	-1.191082	-0.166605
C81	C	-0.244874	-0.857749	0.166728
C82	C	-0.958635	-1.454047	-0.570275
C83	C	-0.625301	-1.120714	-0.236941
C84	C	-0.291968	-0.787380	0.096392
C85	C	-1.052851	-1.447746	-0.576569
C86	C	-0.719518	-1.114413	-0.243236
C87	C	-0.386184	-0.781079	0.090097
C88	C	-1.052868	-1.582167	-0.442189
C89	C	-0.719535	-1.248833	-0.108856
C90	C	-0.386202	-0.915500	0.224477
C91	C	-0.958654	-1.588474	-0.435899
C92	C	-0.625320	-1.255141	-0.102566
C93	C	-0.291987	-0.921807	0.230767
C94	C	-0.200243	-1.504889	-0.519521
C95	C	0.133091	-1.171556	-0.186188
C96	C	0.466424	-0.838222	0.147145
C97	C	-0.099971	-1.511807	-0.512523
C98	C	0.233362	-1.178474	-0.179190
C99	C	0.566696	-0.845140	0.154144
C100	C	-0.434649	-1.763165	-0.535279
C101	C	-0.101316	-1.429831	-0.201946
C102	C	0.232018	-1.096498	0.131388
C103	C	-0.434657	-1.879941	-0.535285
C104	C	-0.101323	-1.546608	-0.201952
C105	C	0.232010	-1.213274	0.131381
C106	C	-0.492225	-1.040675	-0.606419
C107	C	-0.158891	-0.707341	-0.273086
C108	C	0.174442	-0.374008	0.060247
C109	C	-0.492243	-0.930950	-0.606425
C110	C	-0.158909	-0.597616	-0.273091
C111	C	0.174424	-0.264283	0.060242
C112	C	-0.377056	-0.938663	-0.464129
C113	C	-0.043722	-0.605330	-0.130796
C114	C	0.289611	-0.271996	0.202537
C115	C	-0.377043	-1.048386	-0.464120
C116	C	-0.043710	-0.715053	-0.130787
C117	C	0.289624	-0.381719	0.202547
C118	C	-0.377002	-1.560269	-0.975987
C119	C	-0.043669	-1.226936	-0.642653
C120	C	0.289665	-0.893602	-0.309320
C121	C	-0.377032	-1.560334	-1.085713
C122	C	-0.043699	-1.227001	-0.752379
C123	C	0.289634	-0.893668	-0.419046
C124	C	-0.492323	-1.418127	-1.093473
C125	C	-0.158990	-1.084793	-0.760139
C126	C	0.174343	-0.751460	-0.426806
C127	C	-0.492297	-1.418067	-0.983749
C128	C	-0.158964	-1.084734	-0.650415
C129	C	0.174370	-0.751400	-0.317082
C130	C	-0.434671	-1.489223	-0.261234
C131	C	-0.101337	-1.155890	0.072100
C132	C	0.231996	-0.822557	0.405433
C133	C	-0.434688	-1.489262	-0.144458
C134	C	-0.101355	-1.155929	0.188875
C135	C	0.231979	-0.822595	0.522209
H136	H	-1.091194	-1.390451	-0.633843
H137	H	-0.757861	-1.057118	-0.300510
H138	H	-0.424527	-0.723784	0.032824
F139	F	-0.315774	-0.884373	-0.388411
F140	F	0.017559	-0.551039	-0.055078
F141	F	0.350893	-0.217706	0.278256
H142	H	-0.949866	-1.332699	-0.691591
H143	H	-0.616533	-0.999365	-0.358258
H144	H	-0.283200	-0.666032	-0.024924
H145	H	-1.091238	-1.634330	-0.390045
H146	H	-0.757905	-1.300997	-0.056712
H147	H	-0.424571	-0.967663	0.276621
F148	F	-0.767189	-1.605555	-0.418747
F149	F	-0.433856	-1.272222	-0.085414
F150	F	-0.100523	-0.938889	0.247919
H151	H	-0.330139	-1.096193	-0.406176
H152	H	0.003194	-0.762860	-0.072842
H153	H	0.336527	-0.429526	0.260491
H154	H	-0.920296	-1.645763	-0.378631
H155	H	-0.586963	-1.312430	-0.045298
H156	H	-0.253630	-0.979096	0.288035
F157	F	-0.315631	-1.635909	-0.913474
F158	F	0.017703	-1.302576	-0.580141
F159	F	0.351036	-0.969243	-0.246808
F160	F	-0.315698	-1.636045	-1.139963
F161	F	0.017636	-1.302712	-0.806629
F162	F	0.350969	-0.969379	-0.473296
F163	F	-0.553512	-1.094952	-0.682142
F164	F	-0.220179	-0.761619	-0.348808
F165	F	0.113155	-0.428286	-0.015475
H166	H	-0.539271	-1.360262	-1.141312
H167	H	-0.205938	-1.026929	-0.807979
H168	H	0.127395	-0.693596	-0.474645
H169	H	-0.778950	-1.344126	-0.680165
H170	H	-0.445617	-1.010792	-0.346831
H171	H	-0.112284	-0.677459	-0.013498
F172	F	-0.553641	-1.342359	-0.929491
F173	F	-0.220308	-1.009025	-0.596158
F174	F	0.113026	-0.675692	-0.262824
H175	H	-0.539146	-0.883149	-0.664360
H176	H	-0.205813	-0.549815	-0.331026
H177	H	0.127520	-0.216482	0.002307
