data_functionalizedCrystal
_audit_creation_method	'MofGen! by Chris Wilmer'
_symmetry_space_group_name_H-M	'P1'
_symmetry_Int_Tables_number	1
_symmetry_cell_setting	triclinic
loop_
_symmetry_equiv_pos_as_xyz
  x,y,z
_cell_length_a	15.944551
_cell_length_b	27.732048
_cell_length_c	14.421503
_cell_angle_alpha	89.999321
_cell_angle_beta	89.996859
_cell_angle_gamma	83.070697
loop_
_atom_site_label
_atom_site_type_symbol
_atom_site_fract_x
_atom_site_fract_y
_atom_site_fract_z
O1	O	1.113714	0.062334	-0.077025
O2	O	0.869064	0.070020	-0.077050
O3	O	0.998987	-0.004187	-0.077019
O4	O	0.983791	0.136540	-0.077056
O5	O	0.998966	-0.004176	0.077204
O6	O	0.869042	0.070031	0.077174
O7	O	1.113693	0.062345	0.077198
Cu8	Cu	0.991366	0.066189	0.091268
Cu9	Cu	0.991391	0.066176	-0.091119
O10	O	0.983769	0.136552	0.077168
C11	C	0.837763	0.069706	0.000059
C12	C	0.744530	0.068749	0.000051
C13	C	0.530305	0.020466	0.000081
C14	C	0.469002	0.042882	-0.075965
C15	C	0.573827	0.067019	0.000062
C16	C	0.469003	0.042904	0.076087
C17	C	0.408936	0.065344	0.000077
C18	C	0.513752	0.089447	-0.076047
C19	C	0.513759	0.089463	0.076074
C20	C	0.452474	0.111912	0.000009
C21	C	0.668816	0.067983	0.000053
C22	C	0.313947	0.064384	0.000080
C23	C	0.998658	-0.022190	0.000095
C24	C	0.997697	-0.075849	0.000103
C25	C	1.068426	-0.414358	0.000062
C26	C	1.064862	-0.616033	0.000049
O27	O	1.129539	-0.647008	0.000015
N28	N	0.987823	-0.635490	0.000042
C29	C	0.911669	-0.604525	0.000032
O30	O	0.846061	-0.625703	0.000017
C31	C	0.915234	-0.402851	0.000039
C32	C	0.992278	-0.383397	0.000055
C33	C	1.145464	-0.394903	0.000077
C34	C	1.146354	-0.344487	0.000086
C35	C	1.070206	-0.313526	0.000079
C36	C	0.993168	-0.332981	0.000064
C37	C	0.839081	-0.371887	0.000023
C38	C	0.839979	-0.321466	0.000022
C39	C	0.917024	-0.302012	0.000038
C40	C	0.917911	-0.251604	0.000065
N41	N	0.994950	-0.232147	0.000072
C42	C	1.071098	-0.263108	0.000079
C43	C	0.909803	-0.710408	0.000031
C44	C	0.908912	-0.760826	0.000031
C45	C	1.062105	-0.772330	0.000045
C46	C	1.062995	-0.721911	0.000052
C47	C	0.986842	-0.690950	0.000038
C48	C	1.072961	-0.157231	0.000097
C49	C	1.073845	-0.106810	0.000109
C50	C	0.920652	-0.095310	0.000090
C51	C	0.919768	-0.145727	0.000083
C52	C	0.995930	-0.176686	0.000083
O53	O	0.853269	-0.220600	0.000089
O54	O	1.136697	-0.241921	0.000074
C55	C	1.067536	-0.464774	0.000054
C56	C	0.990498	-0.484228	0.000039
C57	C	0.914350	-0.453268	0.000032
C58	C	0.989607	-0.534647	0.000039
C59	C	1.065754	-0.565608	0.000045
C60	C	1.142794	-0.546150	0.000052
C61	C	1.143684	-0.495734	0.000061
C62	C	0.837311	-0.472725	0.000025
C63	C	0.836427	-0.523141	0.000018
C64	C	0.912575	-0.554102	0.000024
C65	C	1.144993	0.062658	0.000087
C66	C	1.238227	0.063615	0.000090
C67	C	0.984099	0.154554	0.000051
C68	C	0.985059	0.208213	0.000038
N69	N	0.991354	0.066198	0.219549
N70	N	0.991409	0.066163	-0.219401
C71	C	0.931267	0.100495	0.469189
C72	C	1.007044	0.109880	0.530996
C73	C	0.991374	0.066186	0.408710
C74	C	0.915616	0.056813	0.530997
C75	C	0.991387	0.066176	0.591432
C76	C	1.067190	0.075592	0.469157
C77	C	0.975712	0.022507	0.469153
C78	C	1.051545	0.031872	0.530932
C79	C	0.991366	0.066193	0.303449
C80	C	0.991405	0.066169	0.696691
H81	H	0.449165	0.023210	0.140376
O82	O	1.143706	0.085084	0.437052
C83	C	1.197229	0.091727	0.512619
H84	H	1.174479	0.072848	0.576478
H85	H	1.195992	0.132199	0.527310
C86	C	1.316037	0.092999	0.410625
C87	C	1.288100	0.069809	0.489056
H88	H	1.372091	0.079481	0.396090
H89	H	1.279977	0.088526	0.359713
H90	H	1.315000	0.126725	0.422878
H91	H	1.289127	0.036085	0.476798
H92	H	1.324162	0.074276	0.539965
O93	O	0.537608	0.112944	0.152690
C94	C	0.625812	0.113886	0.151162
H95	H	0.649646	0.109555	0.076744
H96	H	0.657778	0.082862	0.195316
C97	C	0.617514	0.167994	0.281773
C98	C	0.646785	0.162678	0.190371
H99	H	0.630452	0.198090	0.305963
H100	H	0.558089	0.167358	0.282806
H101	H	0.644154	0.142137	0.318557
H102	H	0.620137	0.188531	0.153587
H103	H	0.706206	0.163320	0.189334
H104	H	0.962429	-0.014416	0.441967
O105	O	1.218599	-0.476920	0.000029
C106	C	1.285608	-0.515067	0.000056
H107	H	1.262511	-0.549316	-0.029146
H108	H	1.309055	-0.522201	0.074046
C109	C	1.386704	-0.458766	-0.024553
C110	C	1.358337	-0.500831	-0.060426
H111	H	1.431568	-0.449985	-0.061857
H112	H	1.341559	-0.433066	-0.024568
H113	H	1.406236	-0.464717	0.037105
H114	H	1.338795	-0.494878	-0.122078
H115	H	1.403480	-0.526530	-0.060423
H116	H	1.102436	0.002852	0.557872
O117	O	1.216742	-0.576250	-0.000108
C118	C	1.220799	-0.605763	-0.079975
H119	H	1.177610	-0.587298	-0.135801
H120	H	1.199533	-0.642427	-0.061924
C121	C	1.365342	-0.636098	-0.047624
C122	C	1.312302	-0.613416	-0.116193
H123	H	1.421785	-0.640821	-0.069963
H124	H	1.362609	-0.616216	0.006186
H125	H	1.347610	-0.666648	-0.032587
H126	H	1.330028	-0.582864	-0.131220
H127	H	1.315040	-0.633293	-0.170007
H128	H	1.209091	-0.328652	0.000095
O129	O	1.148764	-0.087993	0.000080
C130	C	1.215779	-0.126135	0.000104
H131	H	1.192689	-0.160386	-0.029101
H132	H	1.239227	-0.133270	0.074094
C133	C	1.316862	-0.069827	-0.024498
C134	C	1.288504	-0.111894	-0.060375
H135	H	1.361724	-0.061042	-0.061801
H136	H	1.271713	-0.044129	-0.024511
H137	H	1.336396	-0.075778	0.037160
H138	H	1.268962	-0.105940	-0.122027
H139	H	1.333652	-0.137590	-0.060375
O140	O	0.839110	0.047414	0.563290
C141	C	0.775930	0.083689	0.531848
H142	H	0.798889	0.101399	0.466763
H143	H	0.761697	0.112359	0.588164
C144	C	0.666932	0.038911	0.589287
C145	C	0.695127	0.060660	0.509344
H146	H	0.617087	0.024707	0.575409
H147	H	0.709497	0.014473	0.610474
H148	H	0.655078	0.062806	0.636209
H149	H	0.706991	0.036764	0.462427
H150	H	0.652562	0.085094	0.488149
H151	H	1.207476	-0.420107	0.000079
O152	O	0.412266	0.158040	0.000114
C153	C	0.361812	0.165421	0.080343
H154	H	0.387201	0.138437	0.136194
H155	H	0.293946	0.159766	0.062910
C156	C	0.332894	0.250717	0.047485
C157	C	0.364082	0.217577	0.116085
H158	H	0.334290	0.282889	0.069531
H159	H	0.366883	0.245744	-0.006569
H160	H	0.276342	0.245998	0.032964
H161	H	0.420636	0.222292	0.130597
H162	H	0.330102	0.222552	0.170142
H163	H	1.134979	-0.182432	0.000094
O164	O	1.135999	-0.802479	0.000003
C165	C	1.118682	-0.851149	0.000021
H166	H	1.052730	-0.853083	-0.029170
H167	H	1.122058	-0.865733	0.074008
C168	C	1.265296	-0.879625	-0.024617
C169	C	1.184295	-0.882001	-0.060478
H170	H	1.305771	-0.898656	-0.061931
H171	H	1.276964	-0.846835	-0.024625
H172	H	1.268098	-0.891777	0.037038
H173	H	1.181491	-0.869843	-0.122127
H174	H	1.172628	-0.914789	-0.060481
H175	H	1.125732	-0.706075	0.000065
H176	H	0.846175	-0.776661	0.000034
H177	H	0.449158	0.023187	-0.140246
O178	O	0.570618	-0.025637	-0.000160
C179	C	0.547950	-0.050011	-0.080470
H180	H	0.525594	-0.022267	-0.136232
H181	H	0.494860	-0.072604	-0.063114
C182	C	0.652559	-0.117670	-0.047829
C183	C	0.625109	-0.083594	-0.116319
H184	H	0.700153	-0.138387	-0.069941
H185	H	0.667829	-0.101250	0.006279
H186	H	0.608311	-0.136492	-0.033372
H187	H	0.669353	-0.064768	-0.130767
H188	H	0.609848	-0.100012	-0.170431
O189	O	0.761506	-0.541956	-0.000038
C190	C	0.694493	-0.503811	-0.000021
H191	H	0.717598	-0.469558	-0.029203
H192	H	0.671020	-0.496683	0.073964
C193	C	0.593413	-0.560114	-0.024682
C194	C	0.621789	-0.518044	-0.060532
H195	H	0.548563	-0.568893	-0.062004
H196	H	0.638560	-0.585813	-0.024690
H197	H	0.573858	-0.554168	0.036971
H198	H	0.641353	-0.523992	-0.122179
H199	H	0.576643	-0.492347	-0.060535
O200	O	0.537382	0.112958	-0.152738
C201	C	0.576885	0.153549	-0.125617
H202	H	0.602710	0.147740	-0.052233
H203	H	0.528903	0.187521	-0.127454
C204	C	0.618246	0.166979	-0.282770
C205	C	0.649971	0.159842	-0.192641
H206	H	0.663327	0.170862	-0.324115
H207	H	0.591629	0.139633	-0.301043
H208	H	0.578261	0.195288	-0.284288
H209	H	0.689947	0.131529	-0.191121
H210	H	0.676596	0.187183	-0.174368
O211	O	0.835746	-0.680405	0.000066
C212	C	0.767568	-0.708396	0.000040
H213	H	0.789397	-0.746022	0.029236
H214	H	0.743928	-0.711991	-0.073949
C215	C	0.668729	-0.637079	0.024662
C216	C	0.695538	-0.683290	0.060528
H217	H	0.624295	-0.621592	0.061970
H218	H	0.714661	-0.618220	0.024676
H219	H	0.649035	-0.640081	-0.036995
H220	H	0.715241	-0.680288	0.122180
H221	H	0.649607	-0.702148	0.060526
O222	O	0.764165	-0.390697	-0.000038
C223	C	0.697158	-0.352550	-0.000027
H224	H	0.720269	-0.318299	-0.029214
H225	H	0.673685	-0.345418	0.073957
C226	C	0.596068	-0.408847	-0.024680
C227	C	0.624451	-0.366781	-0.060536
H228	H	0.551217	-0.417626	-0.062001
H229	H	0.641211	-0.434548	-0.024685
H230	H	0.576513	-0.402898	0.036972
H231	H	0.644015	-0.372732	-0.122183
H232	H	0.579309	-0.341081	-0.060544
H233	H	0.777965	-0.296260	0.000009
H234	H	0.775301	-0.447521	0.000017
O235	O	0.844910	-0.164606	-0.000092
C236	C	0.798537	-0.148769	-0.079958
H237	H	0.843609	-0.138269	-0.135772
H238	H	0.751290	-0.115918	-0.061897
C239	C	0.695461	-0.202924	-0.047650
C240	C	0.750820	-0.190033	-0.116204
H241	H	0.666024	-0.228376	-0.070006
H242	H	0.726701	-0.213593	0.006160
H243	H	0.656097	-0.175545	-0.032605
H244	H	0.790190	-0.217410	-0.131239
H245	H	0.719586	-0.179369	-0.170017
H246	H	0.858655	-0.070093	0.000088
O247	O	0.870777	0.135197	0.436879
C248	C	0.887614	0.181184	0.468411
H249	H	0.957616	0.179823	0.485743
H250	H	0.848441	0.191537	0.533105
C251	C	0.778382	0.220945	0.370762
C252	C	0.864361	0.219273	0.392042
H253	H	0.764035	0.244440	0.323657
H254	H	0.767036	0.189962	0.349520
H255	H	0.745748	0.229570	0.424681
H256	H	0.896993	0.210642	0.338127
H257	H	0.875712	0.250255	0.413273
O258	O	1.022745	0.153940	0.563523
C259	C	0.954320	0.174103	0.618658
H260	H	0.918531	0.143815	0.645762
H261	H	0.910023	0.200396	0.575166
C262	C	1.031714	0.238726	0.667733
C263	C	0.987762	0.201525	0.701029
H264	H	1.052342	0.255643	0.718541
H265	H	1.077813	0.225143	0.630585
H266	H	0.994794	0.260632	0.631490
H267	H	1.024685	0.179616	0.737261
H268	H	0.941670	0.215105	0.738185
