data_functionalizedCrystal
_audit_creation_method	'MofGen! by Chris Wilmer'
_symmetry_space_group_name_H-M	'P1'
_symmetry_Int_Tables_number	1
_symmetry_cell_setting	triclinic
loop_
_symmetry_equiv_pos_as_xyz
  x,y,z
_cell_length_a	15.995300
_cell_length_b	23.532357
_cell_length_c	15.072220
_cell_angle_alpha	90.006705
_cell_angle_beta	90.014083
_cell_angle_gamma	83.150049
loop_
_atom_site_label
_atom_site_type_symbol
_atom_site_fract_x
_atom_site_fract_y
_atom_site_fract_z
O1	O	1.110393	0.073269	0.073826
O2	O	1.610393	0.573269	0.573826
O3	O	0.866534	0.082364	0.073822
O4	O	1.366534	0.582364	0.573822
O5	O	0.995839	-0.005090	0.073806
O6	O	1.495839	0.494910	0.573806
O7	O	0.981089	0.160723	0.073842
O8	O	1.481089	0.660723	0.573842
O9	O	0.995807	-0.005085	-0.073759
O10	O	1.495807	0.494915	0.426241
O11	O	0.866503	0.082369	-0.073743
O12	O	1.366503	0.582369	0.426257
O13	O	1.110362	0.073274	-0.073739
O14	O	1.610362	0.573274	0.426261
Zn15	Zn	0.988427	0.077822	-0.097170
Zn16	Zn	1.488427	0.577822	0.402830
Zn17	Zn	0.988469	0.077816	0.097253
Zn18	Zn	1.488469	0.577816	0.597253
O19	O	0.981057	0.160728	-0.073723
O20	O	1.481057	0.660728	0.426277
C21	C	0.835326	0.081996	0.000039
C22	C	1.335326	0.581996	0.500039
C23	C	0.742383	0.080884	0.000036
C24	C	1.242383	0.580884	0.500036
C25	C	0.572218	0.078830	0.000043
C26	C	1.072218	0.578830	0.500043
C27	C	0.524217	0.141099	0.000054
C28	C	1.024217	0.641099	0.500054
C29	C	0.427539	0.139963	0.000391
C30	C	0.927539	0.639963	0.500391
C31	C	0.404678	0.076808	0.000048
C32	C	0.904678	0.576808	0.500048
C33	C	0.446094	0.045912	0.084142
C34	C	0.946094	0.545912	0.584142
C35	C	0.542714	0.047487	0.084211
C36	C	1.042714	0.547487	0.584211
C37	C	0.542965	0.046571	-0.083605
C38	C	1.042965	0.546571	0.416395
C39	C	0.446020	0.046577	-0.084708
C40	C	0.946020	0.546577	0.415292
C41	C	0.309993	0.075663	0.000054
C42	C	0.809993	0.575663	0.500054
C43	C	0.666903	0.079974	0.000043
C44	C	1.166903	0.579974	0.500043
C45	C	0.995454	-0.026305	0.000021
C46	C	1.495454	0.473695	0.500021
C47	C	0.994345	-0.089528	0.000012
C48	C	1.494345	0.410472	0.500012
C49	C	0.987398	-0.481568	0.080498
C50	C	1.487398	0.018432	0.580498
C51	C	0.986344	-0.540971	0.080503
C52	C	1.486344	-0.040971	0.580503
O53	O	0.985785	-0.571692	0.148912
O54	O	1.485785	-0.071692	0.648912
N55	N	0.985804	-0.570682	0.000066
N56	N	1.485804	-0.070682	0.500066
C57	C	0.986309	-0.540985	-0.080381
C58	C	1.486309	-0.040985	0.419619
O59	O	0.985752	-0.571711	-0.148798
O60	O	1.485752	-0.071711	0.351202
C61	C	0.987358	-0.481582	-0.080385
C62	C	1.487358	0.018418	0.419615
C63	C	0.987907	-0.451875	0.000057
C64	C	1.487907	0.048125	0.500057
C65	C	0.987946	-0.451861	0.160933
C66	C	1.487946	0.048139	0.660933
C67	C	0.989002	-0.392462	0.160928
C68	C	1.489002	0.107538	0.660928
C69	C	0.989510	-0.362769	0.080487
C70	C	1.489510	0.137231	0.580487
C71	C	0.988963	-0.392476	0.000052
C72	C	1.488963	0.107524	0.500052
C73	C	0.987858	-0.451886	-0.160831
C74	C	1.487858	0.048114	0.339169
C75	C	0.988905	-0.392479	-0.160828
C76	C	1.488905	0.107521	0.339172
C77	C	0.989454	-0.362772	-0.080386
C78	C	1.489454	0.137228	0.419614
C79	C	0.990527	-0.303385	-0.080395
C80	C	1.490527	0.196615	0.419605
N81	N	0.991067	-0.273674	0.000042
N82	N	1.491067	0.226326	0.500042
C83	C	0.990559	-0.303367	0.080483
C84	C	1.490559	0.196633	0.580483
C85	C	0.984106	-0.665735	-0.080366
C86	C	1.484106	-0.165735	0.419634
C87	C	0.983064	-0.725137	-0.080363
C88	C	1.483064	-0.225137	0.419637
C89	C	0.983097	-0.725119	0.080521
C90	C	1.483097	-0.225119	0.580521
C91	C	0.984145	-0.665716	0.080517
C92	C	1.484145	-0.165716	0.580517
C93	C	0.984646	-0.636024	0.000071
C94	C	1.484646	-0.136024	0.500071
C95	C	0.992777	-0.178624	0.080465
C96	C	1.492777	0.321376	0.580465
C97	C	0.993837	-0.119220	0.080453
C98	C	1.493837	0.380780	0.580453
C99	C	0.993799	-0.119243	-0.080430
C100	C	1.493799	0.380757	0.419570
C101	C	0.992744	-0.178642	-0.080418
C102	C	1.492744	0.321358	0.419582
C103	C	0.992230	-0.208331	0.000037
C104	C	1.492230	0.291669	0.500037
O105	O	0.991083	-0.272626	-0.148769
O106	O	1.491083	0.227374	0.351231
O107	O	0.991105	-0.272633	0.148889
O108	O	1.491105	0.227367	0.648889
C109	C	1.141570	0.073642	0.000046
C110	C	1.641570	0.573642	0.500046
C111	C	1.234513	0.074755	0.000054
C112	C	1.734513	0.574755	0.500054
C113	C	0.981442	0.181943	0.000064
C114	C	1.481442	0.681943	0.500064
C115	C	0.982551	0.245166	0.000078
C116	C	1.482551	0.745166	0.500078
N117	N	0.988405	0.077826	-0.229859
N118	N	1.488405	0.577826	0.270141
C119	C	0.988467	0.077814	-0.589061
C120	C	1.488467	0.577814	-0.089061
C121	C	0.919049	0.124452	-0.551445
C122	C	1.419049	0.624452	-0.051445
C123	C	0.919206	0.124622	-0.448619
C124	C	1.419206	0.624622	0.051381
C125	C	0.988435	0.077820	-0.410857
C126	C	1.488435	0.577820	0.089143
C127	C	1.075691	0.090788	-0.448143
C128	C	1.575691	0.590788	0.051857
C129	C	1.075301	0.091120	-0.551001
C130	C	1.575301	0.591120	-0.051001
C131	C	0.971410	0.018069	-0.551174
C132	C	1.471410	0.518069	-0.051174
C133	C	0.969402	0.018468	-0.448311
C134	C	1.469402	0.518468	0.051689
C135	C	0.988423	0.077822	-0.310143
C136	C	1.488423	0.577822	0.189857
C137	C	0.988485	0.077812	-0.689774
C138	C	1.488485	0.577812	-0.189774
N139	N	0.988498	0.077807	0.229942
N140	N	1.488498	0.577807	0.729942
H141	H	0.543627	0.165748	0.060278
H142	H	1.043627	0.665748	0.560278
Cl143	Cl	0.424943	-0.025733	0.088596
Cl144	Cl	0.924943	0.474267	0.588596
H145	H	0.994286	-0.095036	0.145961
H146	H	1.494286	0.404964	0.645961
H147	H	0.984591	-0.641533	0.146020
H148	H	1.484591	-0.141533	0.646020
Cl149	Cl	0.818554	0.112714	-0.589658
Cl150	Cl	1.318554	0.612714	-0.089658
H151	H	1.128544	0.058490	-0.575881
H152	H	1.628544	0.558490	-0.075881
H153	H	0.987412	-0.476063	-0.226336
H154	H	1.487412	0.023937	0.273664
H155	H	0.984517	-0.641563	-0.145879
H156	H	1.484517	-0.141563	0.354121
Cl157	Cl	0.994438	-0.081904	-0.181550
Cl158	Cl	1.494438	0.418096	0.318450
H159	H	0.542481	0.166125	-0.060240
H160	H	1.042481	0.666125	0.439760
H161	H	1.016717	-0.017863	-0.422610
H162	H	1.516717	0.482137	0.077390
Cl163	Cl	0.989536	-0.355156	-0.261967
Cl164	Cl	1.489536	0.144844	0.238033
Cl165	Cl	0.982450	-0.762457	0.181648
Cl166	Cl	1.482450	-0.262457	0.681648
Cl167	Cl	1.098626	0.158390	-0.588015
Cl168	Cl	1.598626	0.658390	-0.088015
Cl169	Cl	0.992070	-0.215990	-0.181546
Cl170	Cl	1.492070	0.284010	0.318454
H171	H	0.992355	-0.202790	0.145980
H172	H	1.492355	0.297210	0.645980
Cl173	Cl	0.982390	-0.762477	-0.181494
Cl174	Cl	1.482390	-0.262477	0.318506
H175	H	0.418474	0.069139	-0.146922
H176	H	0.918474	0.569139	0.353078
Cl177	Cl	0.819028	0.112733	-0.409697
Cl178	Cl	1.319028	0.612733	0.090303
Cl179	Cl	0.989684	-0.355124	0.262060
Cl180	Cl	1.489684	0.144876	0.762060
Cl181	Cl	0.592656	-0.024305	-0.084883
Cl182	Cl	1.092656	0.475695	0.415117
Cl183	Cl	0.384239	0.177275	0.094023
Cl184	Cl	0.884239	0.677275	0.594023
Cl185	Cl	0.935557	0.192520	-0.591301
Cl186	Cl	1.435557	0.692520	-0.091301
Cl187	Cl	0.935907	0.193079	-0.410595
Cl188	Cl	1.435907	0.693079	0.089405
Cl189	Cl	0.987309	-0.489178	0.262073
Cl190	Cl	1.487309	0.010822	0.762073
Cl191	Cl	0.593152	-0.023106	0.089739
Cl192	Cl	1.093152	0.476894	0.589739
Cl193	Cl	1.157320	0.039738	-0.410379
Cl194	Cl	1.657320	0.539738	0.089621
Cl195	Cl	0.570727	0.081859	0.181646
Cl196	Cl	1.070727	0.581859	0.681646
H197	H	0.417541	0.067090	0.146970
H198	H	0.917541	0.567090	0.646970
Cl199	Cl	1.099599	0.157291	-0.408346
Cl200	Cl	1.599599	0.657291	0.091654
Cl201	Cl	0.422944	-0.024512	-0.092955
Cl202	Cl	0.922944	0.475488	0.407045
Cl203	Cl	0.875334	-0.001177	-0.591276
Cl204	Cl	1.375334	0.498823	-0.091276
Cl205	Cl	0.870307	0.003270	-0.410689
Cl206	Cl	1.370307	0.503270	0.089311
H207	H	1.022039	-0.016637	-0.575499
H208	H	1.522039	0.483363	-0.075499
H209	H	0.398855	0.164240	-0.059877
H210	H	0.898855	0.664240	0.440123
Cl211	Cl	0.574321	0.078226	-0.182045
Cl212	Cl	1.074321	0.578226	0.317955
