data_functionalizedCrystal
_audit_creation_method	'MofGen! by Chris Wilmer'
_symmetry_space_group_name_H-M	'P1'
_symmetry_Int_Tables_number	1
_symmetry_cell_setting	triclinic
loop_
_symmetry_equiv_pos_as_xyz
  x,y,z
_cell_length_a	10.654543
_cell_length_b	10.654554
_cell_length_c	9.130313
_cell_angle_alpha	89.997706
_cell_angle_beta	90.003580
_cell_angle_gamma	95.515718
loop_
_atom_site_label
_atom_site_type_symbol
_atom_site_fract_x
_atom_site_fract_y
_atom_site_fract_z
O1	O	-1.667848	0.176353	-0.121793
O2	O	-1.167848	0.676353	0.378207
O3	O	-1.302368	0.193168	-0.121796
O4	O	-0.802368	0.693168	0.378204
O5	O	-1.493509	0.002022	-0.121787
O6	O	-0.993509	0.502022	0.378213
O7	O	-1.476708	0.367500	-0.121802
O8	O	-0.976708	0.867500	0.378198
O9	O	-1.493494	0.002022	0.121812
O10	O	-0.993494	0.502022	0.621812
O11	O	-1.302354	0.193169	0.121803
O12	O	-0.802354	0.693169	0.621803
O13	O	-1.667833	0.176353	0.121806
O14	O	-1.167833	0.676353	0.621806
Cu15	Cu	-1.485092	0.184761	0.144047
Cu16	Cu	-0.985092	0.684761	0.644047
Cu17	Cu	-1.485109	0.184761	-0.144037
Cu18	Cu	-0.985109	0.684761	0.355963
O19	O	-1.476693	0.367500	0.121797
O20	O	-0.976693	0.867500	0.621797
C21	C	-1.255563	0.191936	0.000003
C22	C	-0.755563	0.691936	0.500003
C23	C	-1.116119	0.188247	0.000001
C24	C	-0.616119	0.688247	0.500001
C25	C	-1.492267	-0.044776	0.000011
C26	C	-0.992267	0.455224	0.500011
C27	C	-1.488573	-0.184219	0.000007
C28	C	-0.988573	0.315781	0.500007
C29	C	-0.905605	0.297316	0.000007
C30	C	-0.405605	0.797316	0.500007
C31	C	-1.036627	0.300791	-0.000005
C32	C	-0.536627	0.800791	0.499995
C33	C	-1.064585	0.072221	0.000004
C34	C	-0.564585	0.572221	0.500004
C35	C	-0.933566	0.068747	0.000004
C36	C	-0.433566	0.568747	0.500004
C37	C	-0.714638	0.177592	0.000008
C38	C	-0.214638	0.677592	0.500008
C39	C	-0.854079	0.181298	0.000013
C40	C	-0.354079	0.681298	0.500013
C41	C	-1.477935	0.414298	-0.000004
C42	C	-0.977935	0.914298	0.499996
C43	C	-1.481629	0.553741	-0.000010
C44	C	-0.981629	1.053741	0.499990
N45	N	-1.485089	0.184760	0.346670
N46	N	-0.985089	0.684760	0.846670
C47	C	-1.486846	0.750285	-0.132784
C48	C	-0.986846	1.250285	0.367216
C49	C	-1.483369	0.619265	-0.132793
C50	C	-0.983369	1.119265	0.367207
C51	C	-1.483352	0.619246	0.132791
C52	C	-0.983352	1.119246	0.632791
C53	C	-1.486820	0.750265	0.132799
C54	C	-0.986820	1.250265	0.632799
N55	N	-1.485122	0.184752	-0.346660
N56	N	-0.985122	0.684752	0.153340
C57	C	-1.561922	0.261640	0.423314
C58	C	-1.061922	0.761640	0.923314
C59	C	-1.561942	0.261633	0.576650
C60	C	-1.061942	0.761633	1.076650
C61	C	-1.408287	0.107863	0.576685
C62	C	-0.908287	0.607863	1.076685
C63	C	-1.408274	0.107864	0.423351
C64	C	-0.908274	0.607864	0.923351
H65	H	-0.840890	0.388962	0.000013
H66	H	-0.340890	0.888962	0.500013
N67	N	-1.644800	0.344567	0.659313
N68	N	-1.144800	0.844567	1.159313
H69	H	-1.633159	0.332900	0.768086
H70	H	-1.133159	0.832900	1.268086
H71	H	-1.735921	0.320609	0.632491
H72	H	-1.235921	0.820609	1.132491
H73	H	-1.129319	-0.019414	-0.000000
H74	H	-0.629319	0.480586	0.500000
H75	H	-0.891615	-0.025733	0.000005
H76	H	-0.391615	0.474267	0.500005
N77	N	-1.325438	0.024929	0.659393
N78	N	-0.825438	0.524929	1.159393
H79	H	-1.337101	0.036595	0.768160
H80	H	-0.837101	0.536595	1.268160
H81	H	-1.234313	0.048893	0.632604
H82	H	-0.734313	0.548893	1.132604
H83	H	-1.078572	0.395263	-0.000011
H84	H	-0.578572	0.895263	0.499989
H85	H	-1.488270	0.803625	-0.240912
H86	H	-0.988270	1.303625	0.259088
N87	N	-1.481587	0.548612	-0.276017
N88	N	-0.981587	1.048612	0.223983
H89	H	-1.483251	0.609997	-0.360133
H90	H	-0.983251	1.109997	0.139867
H91	H	-1.557894	0.484775	-0.281735
H92	H	-1.057894	0.984775	0.218265
H93	H	-1.481927	0.565887	0.240906
H94	H	-0.981927	1.065887	0.740906
H95	H	-1.345707	0.045253	0.360946
H96	H	-0.845707	0.545253	0.860946
N97	N	-1.488678	0.820919	0.276030
N98	N	-0.988678	1.320919	0.776030
H99	H	-1.487052	0.759535	0.360153
H100	H	-0.987052	1.259535	0.860153
H101	H	-1.567835	0.865778	0.281814
H102	H	-1.067835	1.365778	0.781814
H103	H	-1.624470	0.324254	0.360884
H104	H	-1.124470	0.824254	0.860884
