data_functionalizedCrystal
_audit_creation_method	'MofGen! by Chris Wilmer'
_symmetry_space_group_name_H-M	'P1'
_symmetry_Int_Tables_number	1
_symmetry_cell_setting	triclinic
loop_
_symmetry_equiv_pos_as_xyz
  x,y,z
_cell_length_a	12.759401
_cell_length_b	19.121063
_cell_length_c	12.759393
_cell_angle_alpha	92.402917
_cell_angle_beta	89.981504
_cell_angle_gamma	92.469017
loop_
_atom_site_label
_atom_site_type_symbol
_atom_site_fract_x
_atom_site_fract_y
_atom_site_fract_z
Zn1	Zn	1.588321	-0.279568	-0.611771
Zn2	Zn	1.580680	-0.397037	-0.443567
Zn3	Zn	1.412621	-0.279605	-0.436113
Zn4	Zn	1.405080	-0.396983	-0.619205
O5	O	1.496676	-0.338298	-0.527664
O6	O	1.734328	-0.295158	-0.589467
O7	O	1.558345	-0.381497	-0.295559
O8	O	1.442282	-0.181316	-0.453184
O9	O	1.728714	-0.381462	-0.465888
O10	O	1.571368	-0.181289	-0.582240
O11	O	1.434872	-0.295221	-0.290083
O12	O	1.264600	-0.295168	-0.460392
O13	O	1.429429	-0.381370	-0.765237
O14	O	1.259060	-0.381405	-0.594909
O15	O	1.564056	-0.295106	-0.759776
O16	O	1.551032	-0.495314	-0.473095
O17	O	1.422020	-0.495274	-0.602136
C18	C	1.223709	-0.338285	-0.527649
C19	C	1.106932	-0.338297	-0.527668
C20	C	1.049208	-0.383272	-0.597605
C21	C	0.939483	-0.383281	-0.597616
C22	C	0.945216	-0.293337	-0.457747
C23	C	1.054939	-0.293325	-0.457741
C24	C	1.101200	-0.428244	-0.667532
C25	C	1.043476	-0.473224	-0.737473
C26	C	0.933751	-0.473233	-0.737485
C27	C	0.881751	-0.428262	-0.667556
C28	C	1.484907	-0.520778	-0.539254
C29	C	1.479969	-0.598844	-0.544247
C30	C	1.544871	-0.635516	-0.479464
C31	C	1.540233	-0.708867	-0.484167
C32	C	1.470686	-0.745544	-0.553648
C33	C	1.405781	-0.708866	-0.618438
C34	C	1.410426	-0.635517	-0.613740
C35	C	1.453305	-0.967013	-0.571195
C36	C	1.448663	-1.040368	-0.575886
C37	C	1.583116	-1.040364	-0.441616
C38	C	1.587750	-0.967013	-0.436920
C39	C	1.522849	-0.930341	-0.501714
C40	C	1.465941	-0.820521	-0.558454
C41	C	1.527600	-0.855366	-0.496912
C42	C	1.770708	-0.338312	-0.527680
C43	C	1.887484	-0.338318	-0.527686
C44	C	1.496754	-0.338227	-0.801693
C45	C	1.496787	-0.338197	-0.918468
C46	C	1.508518	-0.155106	-0.516052
C47	C	1.513565	-0.077040	-0.511103
C48	C	1.566897	-0.293275	-0.970488
C49	C	1.566923	-0.293250	-1.080210
C50	C	1.426727	-0.383075	-1.085884
C51	C	1.426696	-0.383096	-0.976163
C52	C	1.636987	-0.248377	-0.912792
C53	C	1.707103	-0.203452	-0.964812
C54	C	1.707130	-0.203426	-1.074535
C55	C	1.637040	-0.248326	-1.132237
C56	C	1.496661	-0.338318	-0.254698
C57	C	1.496844	-0.338151	-0.137911
H58	H	1.601498	-0.605659	-0.422881
H59	H	1.101940	-0.256697	-0.400800
N60	N	1.610234	-0.748422	-0.414294
H61	H	1.654990	-0.714058	-0.369561
H62	H	1.565561	-0.778907	-0.367593
H63	H	1.644380	-0.937152	-0.380343
H64	H	1.764161	-0.166892	-0.917823
H65	H	1.635956	-1.070229	-0.388866
N66	N	1.373648	-1.079929	-0.650829
H67	H	1.333239	-1.045568	-0.691165
H68	H	1.414469	-1.110315	-0.701424
H69	H	1.400458	-0.937161	-0.623951
H70	H	1.636976	-0.248394	-0.823451
N71	N	1.330772	-0.748421	-0.693383
H72	H	1.337674	-0.800453	-0.686527
H73	H	1.256557	-0.735647	-0.676146
H74	H	1.764214	-0.166841	-1.116886
N75	N	1.099558	-0.521727	-0.812887
H76	H	1.046337	-0.550219	-0.857196
H77	H	1.146942	-0.493175	-0.859762
H78	H	1.409314	-0.850391	-0.615023
H79	H	1.637056	-0.248293	-1.221580
H80	H	1.369591	-0.419664	-0.933807
N81	N	1.351124	-0.431492	-1.148114
H82	H	1.361780	-0.424660	-1.225515
H83	H	1.364214	-0.481660	-1.132116
H84	H	1.357577	-0.605658	-0.666494
N85	N	1.219544	-0.428238	-0.667530
H86	H	1.249084	-0.380072	-0.683905
H87	H	1.245031	-0.441116	-0.596225
N88	N	0.871488	-0.521742	-0.812917
H89	H	0.921079	-0.550228	-0.857210
H90	H	0.823861	-0.554212	-0.772128
N91	N	1.602606	-0.815806	-0.421977
H92	H	1.585515	-0.828617	-0.347715
H93	H	1.676832	-0.828533	-0.439257
N94	N	0.763406	-0.428263	-0.667576
H95	H	0.734725	-0.463576	-0.722496
H96	H	0.736200	-0.441096	-0.596255
H97	H	0.902869	-0.256725	-0.400813
