data_functionalizedCrystal
_audit_creation_method	'MofGen! by Chris Wilmer'
_symmetry_space_group_name_H-M	'P1'
_symmetry_Int_Tables_number	1
_symmetry_cell_setting	triclinic
loop_
_symmetry_equiv_pos_as_xyz
  x,y,z
_cell_length_a	12.827893
_cell_length_b	12.827892
_cell_length_c	12.827885
_cell_angle_alpha	89.970024
_cell_angle_beta	89.980728
_cell_angle_gamma	90.015362
loop_
_atom_site_label
_atom_site_type_symbol
_atom_site_fract_x
_atom_site_fract_y
_atom_site_fract_z
Zn1	Zn	1.597670	-0.415981	-0.590849
Zn2	Zn	2.097670	0.084019	-0.090849
Zn3	Zn	1.597564	-0.590759	-0.416109
Zn4	Zn	2.097564	-0.090759	0.083891
Zn5	Zn	1.422911	-0.416033	-0.416122
Zn6	Zn	1.922911	0.083967	0.083878
Zn7	Zn	1.422896	-0.590681	-0.590809
Zn8	Zn	1.922896	-0.090681	-0.090809
O9	O	1.510260	-0.503364	-0.503472
O10	O	2.010260	-0.003364	-0.003472
O11	O	1.743892	-0.439177	-0.567680
O12	O	2.243892	0.060823	-0.067680
O13	O	1.574357	-0.567636	-0.269875
O14	O	2.074357	-0.067636	0.230125
O15	O	1.446144	-0.269790	-0.439322
O16	O	1.946144	0.230210	0.060678
O17	O	1.743814	-0.567586	-0.439300
O18	O	2.243814	-0.067586	0.060700
O19	O	1.574538	-0.269752	-0.567693
O20	O	2.074538	0.230248	-0.067693
O21	O	1.446041	-0.439265	-0.269884
O22	O	1.946041	0.060735	0.230116
O23	O	1.276673	-0.439189	-0.439284
O24	O	1.776673	0.060811	0.060716
O25	O	1.446118	-0.567452	-0.737050
O26	O	1.946118	-0.067452	-0.237050
O27	O	1.276662	-0.567502	-0.567625
O28	O	1.776662	-0.067502	-0.067625
O29	O	1.574524	-0.439101	-0.737080
O30	O	2.074524	0.060899	-0.237080
O31	O	1.574343	-0.736985	-0.439261
O32	O	2.074343	-0.236985	0.060739
O33	O	1.446016	-0.736927	-0.567612
O34	O	1.946016	-0.236927	-0.067612
C35	C	1.238750	-0.503343	-0.503452
C36	C	1.738750	-0.003343	-0.003452
C37	C	1.122597	-0.503360	-0.503469
C38	C	1.622597	-0.003360	-0.003469
C39	C	1.070835	-0.566953	-0.566878
C40	C	1.570835	-0.066953	-0.066878
C41	C	0.950784	-0.566971	-0.566896
C42	C	1.450784	-0.066971	-0.066896
C43	C	1.510195	-0.774873	-0.503454
C44	C	2.010195	-0.274873	-0.003454
C45	C	1.510262	-0.891027	-0.503481
C46	C	2.010262	-0.391027	-0.003481
C47	C	1.573838	-0.942805	-0.440039
C48	C	2.073838	-0.442805	0.059961
C49	C	1.573910	-1.062855	-0.440066
C50	C	2.073910	-0.562855	0.059934
C51	C	1.782830	-0.503385	-0.503493
C52	C	2.282830	-0.003385	-0.003493
C53	C	1.898983	-0.503393	-0.503502
C54	C	2.398983	-0.003393	-0.003502
C55	C	1.510331	-0.503262	-0.776043
C56	C	2.010331	-0.003262	-0.276043
C57	C	1.510362	-0.503219	-0.892196
C58	C	2.010362	-0.003219	-0.392196
C59	C	1.510354	-0.230793	-0.503514
C60	C	2.010354	0.269207	-0.003514
C61	C	1.510394	-0.114640	-0.503531
C62	C	2.010394	0.385360	-0.003531
C63	C	1.573864	-0.566715	-0.943976
C64	C	2.073864	-0.066715	-0.443976
C65	C	1.573896	-0.566672	-1.064026
C66	C	2.073896	-0.066672	-0.564026
C67	C	1.510249	-0.503389	-0.231962
C68	C	2.010249	-0.003389	0.268038
C69	C	1.510422	-0.503138	-0.115810
C70	C	2.010422	-0.003138	0.384190
H71	H	0.906270	-0.621418	-0.621181
H72	H	1.406270	-0.121418	-0.121181
O73	O	1.129854	-0.639051	-0.638777
O74	O	1.629854	-0.139051	-0.138777
H75	H	1.073675	-0.685631	-0.685235
H76	H	1.573675	-0.185631	-0.185235
O77	O	1.645878	-0.883797	-0.368078
O78	O	2.145878	-0.383797	0.131922
H79	H	1.628049	-0.904755	-0.286026
H80	H	2.128049	-0.404755	0.213974
O81	O	1.645850	-0.638766	-0.884975
O82	O	2.145850	-0.138766	-0.384975
H83	H	1.727897	-0.620853	-0.905866
H84	H	2.227897	-0.120853	-0.405866
H85	H	1.456024	-0.448822	-0.936742
H86	H	1.956024	0.051178	-0.436742
H87	H	1.455890	-0.935574	-0.557819
H88	H	1.955890	-0.435574	-0.057819
H89	H	1.628262	-0.621034	-1.108556
H90	H	2.128262	-0.121034	-0.608556
H91	H	1.456049	-0.448777	-1.071287
H92	H	1.956049	0.051223	-0.571287
H93	H	1.078036	-0.448926	-0.449199
H94	H	1.578036	0.051074	0.050801
O95	O	0.957922	-0.431268	-0.431576
O96	O	1.457922	0.068732	0.068424
H97	H	1.007674	-0.378184	-0.478470
H98	H	1.507674	0.121816	0.021530
H99	H	1.628336	-1.107384	-0.385748
H100	H	2.128336	-0.607384	0.114252
H101	H	1.455957	-1.070120	-0.557845
H102	H	1.955957	-0.570120	-0.057845
