data_functionalizedCrystal
_audit_creation_method	'MofGen! by Chris Wilmer'
_symmetry_space_group_name_H-M	'P1'
_symmetry_Int_Tables_number	1
_symmetry_cell_setting	triclinic
loop_
_symmetry_equiv_pos_as_xyz
  x,y,z
_cell_length_a	12.645331
_cell_length_b	12.645330
_cell_length_c	19.805383
_cell_angle_alpha	89.904540
_cell_angle_beta	89.941631
_cell_angle_gamma	90.016927
loop_
_atom_site_label
_atom_site_type_symbol
_atom_site_fract_x
_atom_site_fract_y
_atom_site_fract_z
Zn1	Zn	1.621177	-0.421314	-0.382609
Zn2	Zn	1.620927	-0.598821	-0.269432
Zn3	Zn	1.443760	-0.421569	-0.269449
Zn4	Zn	1.443874	-0.598534	-0.382595
O5	O	1.532434	-0.510060	-0.326021
O6	O	1.769491	-0.444874	-0.367595
O7	O	1.597273	-0.575535	-0.174718
O8	O	1.467352	-0.273188	-0.284473
O9	O	1.769307	-0.575287	-0.284445
O10	O	1.597700	-0.273001	-0.367611
O11	O	1.467109	-0.445309	-0.174730
O12	O	1.295428	-0.445031	-0.284459
O13	O	1.467546	-0.574798	-0.477313
O14	O	1.295511	-0.575046	-0.367586
O15	O	1.597810	-0.444596	-0.477324
O16	O	1.597383	-0.747130	-0.284431
O17	O	1.467303	-0.746919	-0.367570
C18	C	1.257005	-0.510036	-0.326023
C19	C	1.139175	-0.510051	-0.326040
C20	C	0.971698	-0.592293	-0.378063
C21	C	1.094259	-0.592027	-0.378280
C22	C	1.094719	-0.398358	-0.345527
C23	C	0.972122	-0.398860	-0.345893
C24	C	0.971846	-0.538602	-0.254364
C25	C	1.094452	-0.541043	-0.254751
C26	C	1.532357	-0.785489	-0.326012
C27	C	1.532421	-0.903319	-0.326030
C28	C	1.450925	-1.070794	-0.378495
C29	C	1.450508	-0.948235	-0.378326
C30	C	1.502093	-0.948051	-0.254700
C31	C	1.501595	-1.070648	-0.255019
C32	C	1.644743	-1.070375	-0.344317
C33	C	1.644057	-0.947765	-0.345877
C34	C	1.808940	-0.510084	-0.326020
C35	C	1.926770	-0.510095	-0.326019
C36	C	1.532718	-0.509637	-0.502564
C37	C	1.532839	-0.509457	-0.577797
C38	C	1.532541	-0.233554	-0.326046
C39	C	1.532586	-0.115724	-0.326056
C40	C	1.532213	-0.510404	-0.150165
C41	C	1.532297	-0.510286	-0.074933
C42	C	1.465011	-0.578508	-0.039399
C43	C	1.465083	-0.578387	0.031289
C44	C	1.532448	-0.510049	0.066442
C45	C	1.599738	-0.441818	0.030904
C46	C	1.599659	-0.441935	-0.039783
C47	C	1.600056	-0.441347	0.315976
C48	C	1.600132	-0.441239	0.386668
C49	C	1.465480	-0.577800	0.387049
C50	C	1.465401	-0.577916	0.316362
C51	C	1.532686	-0.509683	0.280829
C52	C	1.532605	-0.509813	0.204181
C53	C	1.532536	-0.509923	0.143089
H54	H	1.124317	-0.674849	-0.366067
Cl55	Cl	1.376822	-0.900844	-0.230382
H56	H	1.654447	-0.386377	-0.068714
H57	H	1.368299	-1.101717	-0.366552
H58	H	1.367362	-0.919023	-0.366229
Cl59	Cl	1.479961	-1.116050	-0.460425
H60	H	1.672393	-1.101120	-0.395446
Cl61	Cl	1.141638	-0.455327	-0.191669
H62	H	1.558488	-1.100384	-0.214616
H63	H	1.123809	-0.335445	-0.308805
Cl64	Cl	0.924057	-0.662206	-0.227011
Cl65	Cl	1.375009	-1.114995	-0.231134
Cl66	Cl	1.479814	-0.901518	-0.459986
H67	H	1.654990	-0.385584	0.415288
Cl68	Cl	1.591001	-0.903156	-0.192726
H69	H	1.410158	-0.634162	-0.068016
H70	H	1.125505	-0.373757	-0.397342
Cl71	Cl	1.684401	-0.355881	0.075096
Cl72	Cl	1.742956	-0.900544	-0.291207
H73	H	1.654849	-0.385793	0.287054
Cl74	Cl	1.738682	-1.115267	-0.285361
Cl75	Cl	1.380486	-0.664153	0.075957
H76	H	1.666927	-0.918513	-0.398372
H77	H	1.410690	-0.633356	0.415988
Cl78	Cl	0.926136	-0.720590	-0.359422
Cl79	Cl	0.928094	-0.361558	-0.426769
Cl80	Cl	0.926226	-0.301089	-0.289925
Cl81	Cl	0.926973	-0.446171	-0.194495
Cl82	Cl	0.924233	-0.563548	-0.459557
Cl83	Cl	1.139308	-0.667948	-0.232062
Cl84	Cl	1.139675	-0.562880	-0.460253
Cl85	Cl	1.380716	-0.663837	0.272173
