data_functionalizedCrystal
_audit_creation_method	'MofGen! by Chris Wilmer'
_symmetry_space_group_name_H-M	'P1'
_symmetry_Int_Tables_number	1
_symmetry_cell_setting	triclinic
loop_
_symmetry_equiv_pos_as_xyz
  x,y,z
_cell_length_a	8.559649
_cell_length_b	8.559649
_cell_length_c	7.681481
_cell_angle_alpha	85.069100
_cell_angle_beta	94.912730
_cell_angle_gamma	69.778664
loop_
_atom_site_label
_atom_site_type_symbol
_atom_site_fract_x
_atom_site_fract_y
_atom_site_fract_z
O1	O	2.109659	-0.037794	-0.146423
O2	O	1.634173	0.045987	-0.146425
O3	O	1.913807	-0.233646	-0.146422
O4	O	1.830025	0.241839	-0.146426
O5	O	1.948234	-0.268134	0.146436
O6	O	1.668600	0.011499	0.146433
O7	O	2.144085	-0.072282	0.146435
Zn8	Zn	1.911809	-0.035867	0.192932
Zn9	Zn	1.866450	0.009572	-0.192921
O10	O	1.864452	0.207351	0.146432
C11	C	1.591078	0.035092	0.000004
C12	C	1.411378	0.053992	0.000003
C13	C	1.937369	-0.311199	0.000004
C14	C	1.956267	-0.490897	-0.000006
C15	C	2.187180	-0.061387	0.000003
C16	C	2.366879	-0.080285	-0.000008
C17	C	1.840889	0.284904	0.000003
C18	C	1.821990	0.464604	0.000001
N19	N	1.942777	-0.066880	0.456266
N20	N	1.835496	0.040571	-0.456256
H21	H	1.466267	-0.209713	-0.000008
Cl22	Cl	1.666415	0.209907	0.427647
H23	H	1.692571	-0.436019	0.000006
Cl24	Cl	2.156101	-0.644338	0.000018
Cl25	Cl	2.111881	-0.236210	0.572370
H26	H	1.311998	0.183413	-0.000016
