data_functionalizedCrystal
_audit_creation_method	'MofGen! by Chris Wilmer'
_symmetry_space_group_name_H-M	'P1'
_symmetry_Int_Tables_number	1
_symmetry_cell_setting	triclinic
loop_
_symmetry_equiv_pos_as_xyz
  x,y,z
_cell_length_a	16.109301
_cell_length_b	17.699083
_cell_length_c	15.186229
_cell_angle_alpha	89.995368
_cell_angle_beta	89.999362
_cell_angle_gamma	83.372248
loop_
_atom_site_label
_atom_site_type_symbol
_atom_site_fract_x
_atom_site_fract_y
_atom_site_fract_z
O1	O	1.102963	0.097285	-0.073175
O2	O	0.860880	0.109391	-0.073189
O3	O	0.988761	-0.006841	-0.073174
O4	O	0.975082	0.213517	-0.073190
O5	O	0.988753	-0.006843	0.073284
O6	O	0.860872	0.109390	0.073268
O7	O	1.102955	0.097283	0.073283
Zn8	Zn	0.981912	0.103336	0.096529
Zn9	Zn	0.981923	0.103338	-0.096435
O10	O	0.975074	0.213516	0.073267
C11	C	0.829902	0.108900	0.000038
C12	C	0.737609	0.107430	0.000033
C13	C	0.515224	0.172981	0.000038
C14	C	0.428506	0.171594	0.000044
C15	C	0.448618	0.033688	0.000050
C16	C	0.535334	0.035076	0.000051
C17	C	0.568635	0.104725	0.000040
C18	C	0.395200	0.101949	0.000046
C19	C	0.301177	0.100445	0.000052
C20	C	0.662664	0.106230	0.000036
C21	C	0.988267	-0.035040	0.000055
C22	C	0.986796	-0.119060	0.000055
C23	C	1.061860	-0.167574	0.000061
C24	C	1.060473	-0.246519	0.000053
C25	C	0.984022	-0.276949	0.000046
C26	C	0.908953	-0.228429	0.000038
C27	C	0.910341	-0.149485	0.000039
C28	C	0.903356	-0.546800	0.000030
C29	C	0.901974	-0.625750	0.000031
C30	C	1.053488	-0.643834	0.000044
C31	C	1.054876	-0.564890	0.000046
C32	C	0.979807	-0.516377	0.000033
C33	C	0.981312	-0.430776	0.000040
C34	C	0.982517	-0.362549	0.000045
C35	C	1.133933	0.097774	0.000054
C36	C	1.226226	0.099244	0.000053
C37	C	0.975568	0.241714	0.000037
C38	C	0.977039	0.325734	0.000031
N39	N	0.981910	0.103334	0.228221
N40	N	0.981931	0.103334	-0.228128
C41	C	1.038555	0.051884	0.453951
C42	C	1.038558	0.051882	0.546141
C43	C	0.925280	0.154787	0.546136
C44	C	0.925274	0.154785	0.453948
C45	C	0.981916	0.103334	0.407858
C46	C	0.981925	0.103334	0.592236
C47	C	0.981927	0.103333	0.692192
C48	C	0.981913	0.103334	0.307896
H49	H	0.542334	0.229694	0.000036
O50	O	0.416309	-0.033986	0.000206
C51	C	0.407006	-0.152305	0.076049
C52	C	0.443632	-0.075683	0.075998
H53	H	0.429096	-0.186046	0.137311
H54	H	0.335849	-0.141621	0.076101
H55	H	0.429005	-0.185997	0.014730
H56	H	0.421697	-0.041952	0.137307
H57	H	0.514785	-0.086421	0.075900
O58	O	0.830361	-0.499790	0.000068
C59	C	0.679928	-0.490190	0.000019
C60	C	0.762537	-0.543521	-0.000008
H61	H	0.625071	-0.525526	-0.000062
H62	H	0.676729	-0.452798	0.061326
H63	H	0.676831	-0.452758	-0.061258
H64	H	0.765689	-0.581001	0.061227
H65	H	0.765701	-0.580861	-0.061356
O66	O	0.376742	0.237969	-0.000000
C67	C	0.365951	0.374899	0.000041
C68	C	0.424668	0.299783	0.000069
H69	H	0.404676	0.424896	0.000116
H70	H	0.324863	0.377751	-0.061264
H71	H	0.324834	0.377655	0.061321
H72	H	0.465837	0.296977	-0.061169
H73	H	0.465699	0.296963	0.061415
H74	H	0.879148	0.196682	0.416417
H75	H	0.879165	0.196679	0.583672
H76	H	1.084675	0.009988	0.416427
H77	H	0.578824	-0.020510	0.000055
O78	O	1.093658	0.001876	0.590779
C79	C	1.205982	-0.100221	0.581048
C80	C	1.143637	-0.043615	0.530387
H81	H	1.246394	-0.137025	0.532244
H82	H	1.247506	-0.067572	0.624179
H83	H	1.170153	-0.138008	0.624237
H84	H	1.179398	-0.005813	0.487150
H85	H	1.102114	-0.076311	0.487312
H86	H	0.839715	-0.650523	0.000027
O87	O	1.136146	-0.138053	-0.000090
C88	C	1.266096	-0.129393	-0.075937
C89	C	1.181987	-0.162858	-0.075881
H90	H	1.303190	-0.149448	-0.137198
H91	H	1.254245	-0.064633	-0.075992
H92	H	1.303146	-0.149367	-0.014616
H93	H	1.144893	-0.142943	-0.137191
H94	H	1.193897	-0.227615	-0.075779
O95	O	0.834761	-0.258112	0.000069
C96	C	0.765470	-0.371711	0.000015
C97	C	0.849552	-0.338200	-0.000005
H98	H	0.777400	-0.436466	-0.000064
H99	H	0.728368	-0.351787	0.061318
H100	H	0.728389	-0.351681	-0.061266
H101	H	0.886702	-0.358215	0.061235
H102	H	0.886592	-0.358120	-0.061349
H103	H	1.121597	-0.286017	0.000060
H104	H	1.114613	-0.683343	0.000050
O105	O	1.129161	-0.535368	-0.000105
C106	C	1.259112	-0.526706	-0.075950
C107	C	1.175004	-0.560173	-0.075895
H108	H	1.296207	-0.546760	-0.137210
H109	H	1.247259	-0.461946	-0.076006
H110	H	1.296162	-0.546678	-0.014629
H111	H	1.137911	-0.540259	-0.137205
H112	H	1.186915	-0.624929	-0.075793
O113	O	0.837347	-0.102464	0.000073
C114	C	0.686914	-0.092853	-0.000001
C115	C	0.769518	-0.146190	-0.000011
H116	H	0.632053	-0.128184	-0.000087
H117	H	0.683710	-0.055457	0.061304
H118	H	0.683830	-0.055425	-0.061280
H119	H	0.772658	-0.183666	0.061227
H120	H	0.772688	-0.183534	-0.061356
