data_functionalizedCrystal
_audit_creation_method	'MofGen! by Chris Wilmer'
_symmetry_space_group_name_H-M	'P1'
_symmetry_Int_Tables_number	1
_symmetry_cell_setting	triclinic
loop_
_symmetry_equiv_pos_as_xyz
  x,y,z
_cell_length_a	19.805407
_cell_length_b	21.295417
_cell_length_c	19.805399
_cell_angle_alpha	90.029796
_cell_angle_beta	90.019573
_cell_angle_gamma	90.029702
loop_
_atom_site_label
_atom_site_type_symbol
_atom_site_fract_x
_atom_site_fract_y
_atom_site_fract_z
Zn1	Zn	1.034720	-0.250624	0.382709
Zn2	Zn	1.284720	-0.000624	0.632709
Zn3	Zn	1.534720	0.249376	0.882709
Zn4	Zn	1.784720	0.499376	1.132709
Zn5	Zn	1.034629	-0.355893	0.269517
Zn6	Zn	1.284629	-0.105893	0.519517
Zn7	Zn	1.534629	0.144107	0.769517
Zn8	Zn	1.784629	0.394107	1.019517
Zn9	Zn	0.921535	-0.250641	0.269534
Zn10	Zn	1.171535	-0.000641	0.519534
Zn11	Zn	1.421535	0.249359	0.769534
Zn12	Zn	1.671535	0.499359	1.019534
Zn13	Zn	0.921492	-0.355859	0.382663
Zn14	Zn	1.171492	-0.105859	0.632663
Zn15	Zn	1.421492	0.144141	0.882663
Zn16	Zn	1.671492	0.394141	1.132663
O17	O	0.978094	-0.303254	0.326106
O18	O	1.228094	-0.053254	0.576106
O19	O	1.478094	0.196746	0.826106
O20	O	1.728094	0.446746	1.076106
O21	O	1.129425	-0.264595	0.367706
O22	O	1.379425	-0.014595	0.617706
O23	O	1.629425	0.235405	0.867706
O24	O	1.879425	0.485405	1.117706
O25	O	1.019606	-0.341952	0.174802
O26	O	1.269606	-0.091952	0.424802
O27	O	1.519606	0.158048	0.674802
O28	O	1.769606	0.408048	0.924802
O29	O	0.936605	-0.162549	0.284573
O30	O	1.186605	0.087451	0.534573
O31	O	1.436605	0.337451	0.784573
O32	O	1.686605	0.587451	1.034573
O33	O	1.129357	-0.341935	0.284544
O34	O	1.379357	-0.091935	0.534544
O35	O	1.629357	0.158065	0.784544
O36	O	1.879357	0.408065	1.034544
O37	O	1.019762	-0.162537	0.367723
O38	O	1.269762	0.087463	0.617723
O39	O	1.519762	0.337463	0.867723
O40	O	1.769762	0.587463	1.117723
O41	O	0.936517	-0.264624	0.174815
O42	O	1.186517	-0.014624	0.424815
O43	O	1.436517	0.235376	0.674815
O44	O	1.686517	0.485376	0.924815
O45	O	0.826813	-0.264592	0.284529
O46	O	1.076813	-0.014592	0.534529
O47	O	1.326813	0.235408	0.784529
O48	O	1.576813	0.485408	1.034529
O49	O	0.936532	-0.341878	0.477386
O50	O	1.186532	-0.091878	0.727386
O51	O	1.436532	0.158122	0.977386
O52	O	1.686532	0.408122	1.227386
O53	O	0.826781	-0.341895	0.367644
O54	O	1.076781	-0.091895	0.617644
O55	O	1.326781	0.158105	0.867644
O56	O	1.576781	0.408105	1.117644
O57	O	1.019721	-0.264562	0.477420
O58	O	1.269721	-0.014562	0.727420
O59	O	1.519721	0.235438	0.977420
O60	O	1.769721	0.485438	1.227420
O61	O	1.019564	-0.443977	0.284499
O62	O	1.269564	-0.193977	0.534499
O63	O	1.519564	0.056023	0.784499
O64	O	1.769564	0.306023	1.034499
O65	O	0.936443	-0.443953	0.367628
O66	O	1.186443	-0.193953	0.617628
O67	O	1.436443	0.056047	0.867628
O68	O	1.686443	0.306047	1.117628
C69	C	0.802238	-0.303242	0.326084
C70	C	1.052238	-0.053242	0.576084
C71	C	1.302238	0.196758	0.826084
C72	C	1.552238	0.446758	1.076084
C73	C	0.727006	-0.303252	0.326091
C74	C	0.977006	-0.053252	0.576091
C75	C	1.227006	0.196748	0.826091
C76	C	1.477006	0.446748	1.076091
C77	C	0.691663	-0.343564	0.369299
C78	C	0.941663	-0.093564	0.619299
C79	C	1.191663	0.156436	0.869299
C80	C	1.441663	0.406436	1.119299
C81	C	0.620975	-0.343566	0.369308
C82	C	0.870975	-0.093566	0.619308
C83	C	1.120975	0.156434	0.869308
C84	C	1.370975	0.406434	1.119308
C85	C	0.585630	-0.303257	0.326106
C86	C	0.835630	-0.053257	0.576106
C87	C	1.085630	0.196743	0.826106
C88	C	1.335630	0.446743	1.076106
C89	C	0.620978	-0.262940	0.282895
C90	C	0.870978	-0.012940	0.532895
C91	C	1.120978	0.237060	0.782895
C92	C	1.370978	0.487060	1.032895
C93	C	0.691665	-0.262936	0.282890
C94	C	0.941665	-0.012936	0.532890
C95	C	1.191665	0.237064	0.782890
C96	C	1.441665	0.487064	1.032890
C97	C	0.335905	-0.262954	0.282918
C98	C	0.585905	-0.012954	0.532918
C99	C	0.835905	0.237046	0.782918
C100	C	1.085905	0.487046	1.032918
C101	C	0.265213	-0.262962	0.282925
C102	C	0.515213	-0.012962	0.532925
C103	C	0.765213	0.237038	0.782925
C104	C	1.015213	0.487038	1.032925
C105	C	0.265214	-0.343583	0.369336
C106	C	0.515214	-0.093583	0.619336
C107	C	0.765214	0.156417	0.869336
C108	C	1.015214	0.406417	1.119336
C109	C	0.335901	-0.343579	0.369331
C110	C	0.585901	-0.093579	0.619331
C111	C	0.835901	0.156421	0.869331
C112	C	1.085901	0.406421	1.119331
C113	C	0.371243	-0.303261	0.326123
C114	C	0.621243	-0.053261	0.576123
C115	C	0.871243	0.196739	0.826123
C116	C	1.121243	0.446739	1.076123
C117	C	0.447891	-0.303259	0.326114
C118	C	0.697891	-0.053259	0.576114
C119	C	0.947891	0.196741	0.826114
C120	C	1.197891	0.446741	1.076114
C121	C	0.508983	-0.303261	0.326111
C122	C	0.758983	-0.053261	0.576111
C123	C	1.008983	0.196739	0.826111
C124	C	1.258983	0.446739	1.076111
C125	C	0.978008	-0.466806	0.326071
C126	C	1.228008	-0.216806	0.576071
C127	C	1.478008	0.033194	0.826071
C128	C	1.728008	0.283194	1.076071
C129	C	0.978033	-0.536774	0.326079
C130	C	1.228033	-0.286774	0.576079
C131	C	1.478033	-0.036774	0.826079
C132	C	1.728033	0.213226	1.076079
C133	C	1.021308	-0.569577	0.369406
C134	C	1.271308	-0.319577	0.619406
C135	C	1.521308	-0.069577	0.869406
C136	C	1.771308	0.180423	1.119406
C137	C	1.021331	-0.635319	0.369423
C138	C	1.271331	-0.385319	0.619423
C139	C	1.521331	-0.135319	0.869423
C140	C	1.771331	0.114681	1.119423
C141	C	0.978087	-0.668256	0.326101
C142	C	1.228087	-0.418256	0.576101
C143	C	1.478087	-0.168256	0.826101
C144	C	1.728087	0.081744	1.076101
C145	C	0.934804	-0.635446	0.282771
C146	C	1.184804	-0.385446	0.532771
C147	C	1.434804	-0.135446	0.782771
C148	C	1.684804	0.114554	1.032771
C149	C	0.934777	-0.569704	0.282760
C150	C	1.184777	-0.319704	0.532760
C151	C	1.434777	-0.069704	0.782760
C152	C	1.684777	0.180296	1.032760
N153	N	0.972976	-0.771518	0.266865
N154	N	1.222976	-0.521518	0.516865
N155	N	1.472976	-0.271518	0.766865
N156	N	1.722976	-0.021518	1.016865
N157	N	0.973006	-0.833969	0.266877
N158	N	1.223006	-0.583969	0.516877
N159	N	1.473006	-0.333969	0.766877
N160	N	1.723006	-0.083969	1.016877
C161	C	0.978167	-0.866331	0.326131
C162	C	1.228167	-0.616331	0.576131
C163	C	1.478167	-0.366331	0.826131
C164	C	1.728167	-0.116331	1.076131
N165	N	0.983309	-0.833882	0.385374
N166	N	1.233309	-0.583882	0.635374
N167	N	1.483309	-0.333882	0.885374
N168	N	1.733309	-0.083882	1.135374
N169	N	0.983283	-0.771425	0.385362
N170	N	1.233283	-0.521425	0.635362
N171	N	1.483283	-0.271425	0.885362
N172	N	1.733283	-0.021425	1.135362
C173	C	0.978112	-0.739542	0.326108
C174	C	1.228112	-0.489542	0.576108
C175	C	1.478112	-0.239542	0.826108
C176	C	1.728112	0.010458	1.076108
C177	C	1.021470	-0.970419	0.369480
C178	C	1.271470	-0.720419	0.619480
C179	C	1.521470	-0.470419	0.869480
C180	C	1.771470	-0.220419	1.119480
C181	C	1.021489	-1.036163	0.369498
C182	C	1.271489	-0.786163	0.619498
C183	C	1.521489	-0.536163	0.869498
C184	C	1.771489	-0.286163	1.119498
C185	C	0.934965	-1.036288	0.282840
C186	C	1.184965	-0.786288	0.532840
C187	C	1.434965	-0.536288	0.782840
C188	C	1.684965	-0.286288	1.032840
C189	C	0.934942	-0.970546	0.282828
C190	C	1.184942	-0.720546	0.532828
C191	C	1.434942	-0.470546	0.782828
C192	C	1.684942	-0.220546	1.032828
C193	C	0.978198	-0.937615	0.326147
C194	C	1.228198	-0.687615	0.576147
C195	C	1.478198	-0.437615	0.826147
C196	C	1.728198	-0.187615	1.076147
C197	C	1.154637	-0.303267	0.326128
C198	C	1.404637	-0.053267	0.576128
C199	C	1.654637	0.196733	0.826128
C200	C	1.904637	0.446733	1.076128
C201	C	1.229869	-0.303272	0.326138
C202	C	1.479869	-0.053272	0.576138
C203	C	1.729869	0.196728	0.826138
C204	C	1.979869	0.446728	1.076138
C205	C	0.978132	-0.303214	0.502649
C206	C	1.228132	-0.053214	0.752649
C207	C	1.478132	0.196786	1.002649
C208	C	1.728132	0.446786	1.252649
C209	C	0.978148	-0.303198	0.577881
C210	C	1.228148	-0.053198	0.827881
C211	C	1.478148	0.196802	1.077881
C212	C	1.728148	0.446802	1.327881
C213	C	0.978199	-0.139064	0.326155
C214	C	1.228199	0.110936	0.576155
C215	C	1.478199	0.360936	0.826155
C216	C	1.728199	0.610936	1.076155
C217	C	0.978244	-0.069096	0.326176
C218	C	1.228244	0.180904	0.576176
C219	C	1.478244	0.430904	0.826176
C220	C	1.728244	0.680904	1.076176
C221	C	0.978095	-0.303248	0.150250
C222	C	1.228095	-0.053248	0.400250
C223	C	1.478095	0.196752	0.650250
C224	C	1.728095	0.446752	0.900250
C225	C	0.978210	-0.303088	0.075018
C226	C	1.228210	-0.053088	0.325018
C227	C	1.478210	0.196912	0.575018
C228	C	1.728210	0.446912	0.825018
C229	C	1.021465	-0.262937	0.613243
C230	C	1.271465	-0.012937	0.863243
C231	C	1.521465	0.237063	1.113243
C232	C	1.771465	0.487063	1.363243
C233	C	1.021472	-0.262919	0.683932
C234	C	1.271472	-0.012919	0.933932
C235	C	1.521472	0.237081	1.183932
C236	C	1.771472	0.487081	1.433932
C237	C	0.978165	-0.303165	0.719256
C238	C	1.228165	-0.053165	0.969256
C239	C	1.478165	0.196835	1.219256
C240	C	1.728165	0.446835	1.469256
C241	C	0.934843	-0.343427	0.683888
C242	C	1.184843	-0.093427	0.933888
C243	C	1.434843	0.156573	1.183888
C244	C	1.684843	0.406573	1.433888
C245	C	0.934833	-0.343441	0.613201
C246	C	1.184833	-0.093441	0.863201
C247	C	1.434833	0.156559	1.113201
C248	C	1.684833	0.406559	1.363201
C249	C	0.934881	-0.343368	0.968962
C250	C	1.184881	-0.093368	1.218962
C251	C	1.434881	0.156632	1.468962
C252	C	1.684881	0.406632	1.718962
C253	C	0.934896	-0.343352	1.039654
C254	C	1.184896	-0.093352	1.289654
C255	C	1.434896	0.156648	1.539654
C256	C	1.684896	0.406648	1.789654
C257	C	1.021520	-0.262846	1.039692
C258	C	1.271520	-0.012846	1.289692
C259	C	1.521520	0.237154	1.539692
C260	C	1.771520	0.487154	1.789692
C261	C	1.021510	-0.262860	0.969005
C262	C	1.271510	-0.012860	1.219005
C263	C	1.521510	0.237140	1.469005
C264	C	1.771510	0.487140	1.719005
C265	C	0.978186	-0.303120	0.933644
C266	C	1.228186	-0.053120	1.183644
C267	C	1.478186	0.196880	1.433644
C268	C	1.728186	0.446880	1.683644
C269	C	0.978178	-0.303138	0.856995
C270	C	1.228178	-0.053138	1.106995
C271	C	1.478178	0.196862	1.356995
C272	C	1.728178	0.446862	1.606995
C273	C	0.978176	-0.303150	0.795903
C274	C	1.228176	-0.053150	1.045903
C275	C	1.478176	0.196850	1.295903
C276	C	1.728176	0.446850	1.545903
H277	H	0.720441	-0.230107	0.247709
H278	H	0.970441	0.019893	0.497709
H279	H	1.220441	0.269893	0.747709
H280	H	1.470441	0.519893	0.997709
H281	H	1.056733	-0.230166	0.584487
H282	H	1.306733	0.019834	0.834487
H283	H	1.556733	0.269834	1.084487
H284	H	1.806733	0.519834	1.334487
O285	O	1.068008	-0.670707	0.416160
O286	O	1.318008	-0.420707	0.666160
O287	O	1.568008	-0.170707	0.916160
O288	O	1.818008	0.079293	1.166160
H289	H	1.060754	-0.721953	0.408893
H290	H	1.310754	-0.471953	0.658893
H291	H	1.560754	-0.221953	0.908893
H292	H	1.810754	0.028047	1.158893
H293	H	0.592201	-0.376392	0.404492
H294	H	0.842201	-0.126392	0.654492
H295	H	1.092201	0.123608	0.904492
H296	H	1.342201	0.373608	1.154492
O297	O	0.582862	-0.219478	0.236279
O298	O	0.832862	0.030522	0.486279
O299	O	1.082862	0.280522	0.736279
O300	O	1.332862	0.530522	0.986279
H301	H	0.527771	-0.226263	0.243530
H302	H	0.777771	0.023737	0.493530
H303	H	1.027771	0.273737	0.743530
H304	H	1.277771	0.523737	0.993530
H305	H	1.056747	-0.230136	0.712721
H306	H	1.306747	0.019864	0.962721
H307	H	1.556747	0.269864	1.212721
H308	H	1.806747	0.519864	1.462721
O309	O	0.227119	-0.387110	0.415920
O310	O	0.477119	-0.137110	0.665920
O311	O	0.727119	0.112890	0.915920
O312	O	0.977119	0.362890	1.165920
H313	H	0.240716	-0.376415	0.469070
H314	H	0.490716	-0.126415	0.719070
H315	H	0.740716	0.123585	0.969070
H316	H	0.990716	0.373585	1.219070
H317	H	0.899751	-1.063105	0.247570
H318	H	1.149751	-0.813105	0.497570
H319	H	1.399751	-0.563105	0.747570
H320	H	1.649751	-0.313105	0.997570
H321	H	0.899536	-0.542996	0.247478
H322	H	1.149536	-0.292996	0.497478
H323	H	1.399536	-0.042996	0.747478
H324	H	1.649536	0.207004	0.997478
H325	H	1.056778	-0.230090	0.940248
H326	H	1.306778	0.019910	1.190248
H327	H	1.556778	0.269910	1.440248
H328	H	1.806778	0.519910	1.690248
H329	H	0.236437	-0.230134	0.247744
H330	H	0.486437	0.019866	0.497744
H331	H	0.736437	0.269866	0.747744
H332	H	0.986437	0.519866	0.997744
H333	H	0.899707	-0.943836	0.247544
H334	H	1.149707	-0.693836	0.497544
H335	H	1.399707	-0.443836	0.747544
H336	H	1.649707	-0.193836	0.997544
O337	O	0.888169	-0.670965	0.236035
O338	O	1.138169	-0.420965	0.486035
O339	O	1.388169	-0.170965	0.736035
O340	O	1.638169	0.079035	0.986035
H341	H	0.895466	-0.722190	0.243313
H342	H	1.145466	-0.472190	0.493313
H343	H	1.395466	-0.222190	0.743313
H344	H	1.645466	0.027810	0.993313
H345	H	0.899627	-0.376126	1.068413
H346	H	1.149627	-0.126126	1.318413
H347	H	1.399627	0.123874	1.568413
H348	H	1.649627	0.373874	1.818413
H349	H	1.056794	-0.230062	1.068492
H350	H	1.306794	0.019938	1.318492
H351	H	1.556794	0.269938	1.568492
H352	H	1.806794	0.519938	1.818492
H353	H	1.056527	-0.542767	0.404681
H354	H	1.306527	-0.292767	0.654681
H355	H	1.556527	-0.042767	0.904681
H356	H	1.806527	0.207233	1.154681
H357	H	0.899579	-0.376193	0.712655
H358	H	1.149579	-0.126193	0.962655
H359	H	1.399579	0.123807	1.212655
H360	H	1.649579	0.373807	1.462655
O361	O	0.729775	-0.387037	0.415908
O362	O	0.979775	-0.137037	0.665908
O363	O	1.229775	0.112963	0.915908
O364	O	1.479775	0.362963	1.165908
H365	H	0.762006	-0.358895	0.450392
H366	H	1.012006	-0.108895	0.700392
H367	H	1.262006	0.141105	0.950392
H368	H	1.512006	0.391105	1.200392
O369	O	0.888121	-0.386756	0.930825
O370	O	1.138121	-0.136756	1.180825
O371	O	1.388121	0.113244	1.430825
O372	O	1.638121	0.363244	1.680825
H373	H	0.858002	-0.414730	0.967266
H374	H	1.108002	-0.164730	1.217266
H375	H	1.358002	0.085270	1.467266
H376	H	1.608002	0.335270	1.717266
H377	H	0.364672	-0.230129	0.247731
H378	H	0.614672	0.019871	0.497731
H379	H	0.864672	0.269871	0.747731
H380	H	1.114672	0.519871	0.997731
O381	O	1.068115	-0.934894	0.416205
O382	O	1.318115	-0.684894	0.666205
O383	O	1.568115	-0.434894	0.916205
O384	O	1.818115	-0.184894	1.166205
H385	H	1.098205	-0.968752	0.446345
H386	H	1.348205	-0.718752	0.696345
H387	H	1.598205	-0.468752	0.946345
H388	H	1.848205	-0.218752	1.196345
H389	H	0.364675	-0.376405	0.404509
H390	H	0.614675	-0.126405	0.654509
H391	H	0.864675	0.123595	0.904509
H392	H	1.114675	0.373595	1.154509
O393	O	0.888104	-0.386856	0.575054
O394	O	1.138104	-0.136856	0.825054
O395	O	1.388104	0.113144	1.075054
O396	O	1.638104	0.363144	1.325054
H397	H	0.857991	-0.414840	0.611492
H398	H	1.107991	-0.164840	0.861492
H399	H	1.357991	0.085160	1.111492
H400	H	1.607991	0.335160	1.361492
H401	H	1.056728	-1.062870	0.404783
H402	H	1.306728	-0.812870	0.654783
H403	H	1.556728	-0.562870	0.904783
H404	H	1.806728	-0.312870	1.154783
