data_functionalizedCrystal
_audit_creation_method	'MofGen! by Chris Wilmer'
_symmetry_space_group_name_H-M	'P1'
_symmetry_Int_Tables_number	1
_symmetry_cell_setting	triclinic
loop_
_symmetry_equiv_pos_as_xyz
  x,y,z
_cell_length_a	21.295420
_cell_length_b	21.295416
_cell_length_c	21.295411
_cell_angle_alpha	89.980829
_cell_angle_beta	90.024693
_cell_angle_gamma	89.971418
loop_
_atom_site_label
_atom_site_type_symbol
_atom_site_fract_x
_atom_site_fract_y
_atom_site_fract_z
Zn1	Zn	0.962356	0.250710	0.355924
Zn2	Zn	1.462356	0.750710	0.855924
Zn3	Zn	0.962259	0.355962	0.250654
Zn4	Zn	1.462259	0.855962	0.750654
Zn5	Zn	0.857079	0.250708	0.250669
Zn6	Zn	1.357079	0.750708	0.750669
Zn7	Zn	0.857049	0.355942	0.355886
Zn8	Zn	1.357049	0.855942	0.855886
O9	O	0.909686	0.303331	0.303283
O10	O	1.409686	0.803331	0.803283
O11	O	1.050433	0.264682	0.341970
O12	O	1.550433	0.764682	0.841970
O13	O	0.948279	0.342007	0.162567
O14	O	1.448279	0.842007	0.662567
O15	O	0.871098	0.162619	0.264654
O16	O	1.371098	0.662619	0.764654
O17	O	1.050361	0.342010	0.264629
O18	O	1.550361	0.842010	0.764629
O19	O	0.948444	0.162621	0.341984
O20	O	1.448444	0.662621	0.841984
O21	O	0.871004	0.264677	0.162578
O22	O	1.371004	0.764677	0.662578
O23	O	0.768986	0.264658	0.264617
O24	O	1.268986	0.764658	0.764617
O25	O	0.871046	0.341976	0.443980
O26	O	1.371046	0.841976	0.943980
O27	O	0.768964	0.341973	0.341919
O28	O	1.268964	0.841973	0.841919
O29	O	0.948415	0.264662	0.444009
O30	O	1.448415	0.764662	0.944009
O31	O	0.948249	0.444049	0.264591
O32	O	1.448249	0.944049	0.764591
O33	O	0.870952	0.444034	0.341904
O34	O	1.370952	0.944034	0.841904
C35	C	0.746134	0.303314	0.303265
C36	C	1.246134	0.803314	0.803265
C37	C	0.676166	0.303321	0.303273
C38	C	1.176166	0.803321	0.803273
C39	C	0.176713	0.343663	0.343496
C40	C	0.676713	0.843663	0.843496
C41	C	0.242456	0.343663	0.343489
C42	C	0.742456	0.843663	0.843489
C43	C	0.275327	0.303345	0.303303
C44	C	0.775327	0.803345	0.803303
C45	C	0.242450	0.263035	0.263110
C46	C	0.742450	0.763035	0.763110
C47	C	0.176709	0.263040	0.263113
C48	C	0.676709	0.763040	0.763113
N49	N	0.378567	0.248227	0.298568
N50	N	0.878567	0.748227	0.798568
N51	N	0.441019	0.248224	0.298569
N52	N	0.941019	0.748224	0.798569
C53	C	0.473401	0.303327	0.303290
C54	C	0.973401	0.803327	0.803290
N55	N	0.440973	0.358435	0.308023
N56	N	0.940973	0.858435	0.808023
N57	N	0.378516	0.358438	0.308025
N58	N	0.878516	0.858438	0.808025
C59	C	0.346612	0.303335	0.303295
C60	C	0.846612	0.803335	0.803295
C61	C	0.577556	0.343638	0.343471
C62	C	1.077556	0.843638	0.843471
C63	C	0.643300	0.343639	0.343460
C64	C	1.143300	0.843639	0.843460
C65	C	0.643293	0.263005	0.263083
C66	C	1.143293	0.763005	0.763083
C67	C	0.577550	0.263010	0.263091
C68	C	1.077550	0.763010	0.763091
C69	C	0.544686	0.303325	0.303288
C70	C	1.044686	0.803325	0.803288
C71	C	0.909604	0.466882	0.303256
C72	C	1.409604	0.966882	0.803256
C73	C	0.909626	0.536850	0.303265
C74	C	1.409626	1.036850	0.803265
C75	C	0.949911	0.569704	0.263051
C76	C	1.449911	1.069704	0.763051
C77	C	0.949941	0.635446	0.263068
C78	C	1.449941	1.135446	0.763068
C79	C	0.909674	0.668333	0.303292
C80	C	1.409674	1.168333	0.803292
C81	C	0.869387	0.635472	0.343514
C82	C	1.369387	1.135472	0.843514
C83	C	0.869363	0.569730	0.343501
C84	C	1.369363	1.069730	0.843501
N85	N	0.854608	0.771598	0.308090
N86	N	1.354608	1.271598	0.808090
N87	N	0.854632	0.834049	0.308099
N88	N	1.354632	1.334049	0.808099
C89	C	0.909746	0.866408	0.303337
C90	C	1.409746	1.366408	0.803337
N91	N	0.964834	0.833955	0.298553
N92	N	1.464834	1.333955	0.798553
N93	N	0.964809	0.771498	0.298540
N94	N	1.464809	1.271498	0.798540
C95	C	0.909696	0.739618	0.303312
C96	C	1.409696	1.239618	0.803312
C97	C	0.950066	0.970546	0.263139
C98	C	1.450066	1.470546	0.763139
C99	C	0.950096	1.036290	0.263160
C100	C	1.450096	1.536290	0.763160
C101	C	0.869537	1.036314	0.343604
C102	C	1.369537	1.536314	0.843604
C103	C	0.869512	0.970572	0.343586
C104	C	1.369512	1.470572	0.843586
C105	C	0.909776	0.937692	0.303350
C106	C	1.409776	1.437692	0.803350
C107	C	1.073876	0.303348	0.303302
C108	C	1.573876	0.803348	0.803302
C109	C	1.143844	0.303356	0.303310
C110	C	1.643844	0.803356	0.803310
C111	C	0.909738	0.303317	0.467474
C112	C	1.409738	0.803317	0.967474
C113	C	0.909760	0.303312	0.537442
C114	C	1.409760	0.803312	1.037442
C115	C	0.909786	1.139140	0.303336
C116	C	1.409786	1.639140	0.803336
C117	C	0.909831	1.069172	0.303386
C118	C	1.409831	1.569172	0.803386
C119	C	0.909670	0.303298	0.139732
C120	C	1.409670	0.803298	0.639732
C121	C	0.909770	0.303127	0.069764
C122	C	1.409770	0.803127	0.569764
C123	C	0.950044	0.263053	0.570324
C124	C	1.450044	0.763053	1.070324
C125	C	0.950044	0.263025	0.636067
C126	C	1.450044	0.763025	1.136067
C127	C	0.909765	0.303268	0.668925
C128	C	1.409765	0.803268	1.168925
C129	C	0.869473	0.343530	0.636034
C130	C	1.369473	0.843530	1.136034
C131	C	0.869471	0.343552	0.570293
C132	C	1.369471	0.843552	1.070293
N133	N	0.904909	0.358336	0.772142
N134	N	1.404909	0.858336	1.272142
N135	N	0.904915	0.358314	0.834594
N136	N	1.404915	0.858314	1.334594
C137	C	0.909769	0.303204	0.866999
C138	C	1.409769	0.803204	1.366999
N139	N	0.914630	0.248117	0.834594
N140	N	1.414630	0.748117	1.334594
N141	N	0.914627	0.248141	0.772137
N142	N	1.414627	0.748141	1.272137
C143	C	0.909763	0.303249	0.740210
C144	C	1.409763	0.803249	1.240210
C145	C	0.950055	0.262913	0.971167
C146	C	1.450055	0.762913	1.471167
C147	C	0.950049	0.262884	1.036911
C148	C	1.450049	0.762884	1.536911
C149	C	0.869482	0.343395	1.036877
C150	C	1.369482	0.843395	1.536877
C151	C	0.869484	0.343417	0.971135
C152	C	1.369484	0.843417	1.471135
C153	C	0.909774	0.303177	0.938284
C154	C	1.409774	0.803177	1.438284
H155	H	0.670056	0.230180	0.230361
H156	H	1.170056	0.730180	0.730361
H157	H	0.149959	0.376493	0.376225
H158	H	0.649959	0.876493	0.876225
H159	H	0.836603	0.662252	0.376267
H160	H	1.336603	1.162252	0.876267
H161	H	0.982697	0.542935	0.230290
H162	H	1.482697	1.042935	0.730290
H163	H	0.269223	0.376486	0.376215
H164	H	0.769223	0.876486	0.876215
H165	H	0.982905	1.063038	0.230414
H166	H	1.482905	1.563038	0.730414
C167	C	0.278605	0.218684	0.218909
C168	C	0.778605	0.718684	0.718909
H169	H	0.322466	0.224448	0.224667
H170	H	0.822466	0.724448	0.724667
H171	H	0.267809	0.227836	0.176597
H172	H	0.767809	0.727836	0.676597
H173	H	0.267851	0.176401	0.228201
H174	H	0.767851	0.676401	0.728201
C175	C	0.679458	0.387993	0.387651
C176	C	1.179458	0.887993	0.887651
H177	H	0.723319	0.382226	0.381883
H178	H	1.223319	0.882226	0.881883
H179	H	0.668718	0.378851	0.429967
H180	H	1.168718	0.878851	0.929967
H181	H	0.668653	0.430274	0.378351
H182	H	1.168653	0.930274	0.878351
C183	C	0.994359	0.934373	0.218892
C184	C	1.494359	1.434373	0.718892
H185	H	0.988570	0.890514	0.224637
H186	H	1.488570	1.390514	0.724637
H187	H	1.036653	0.945104	0.228149
H188	H	1.536653	1.445104	0.728149
H189	H	0.985171	0.945179	0.176587
H190	H	1.485171	1.445179	0.676587
H191	H	0.836755	1.063090	0.376358
H192	H	1.336755	1.563090	0.876358
H193	H	0.550788	0.230185	0.230370
H194	H	1.050788	0.730185	0.730370
C195	C	0.825191	0.934431	0.387814
C196	C	1.325191	1.434431	0.887814
H197	H	0.801209	0.963431	0.411769
H198	H	1.301209	1.463431	0.911769
H199	H	0.849245	0.908748	0.415259
H200	H	1.349245	1.408748	0.915259
H201	H	0.797764	0.908825	0.363696
H202	H	1.297764	1.408825	0.863696
H203	H	0.836676	0.376294	0.662791
H204	H	1.336676	0.876294	1.162791
H205	H	0.982857	0.230143	0.944419
H206	H	1.482857	0.730143	1.444419
C207	C	0.994250	0.671593	0.218825
C208	C	1.494250	1.171593	0.718825
H209	H	1.018222	0.642595	0.194858
H210	H	1.518222	1.142595	0.694858
H211	H	1.021677	0.697205	0.242930
H212	H	1.521677	1.197205	0.742930
H213	H	0.970181	0.697270	0.191382
H214	H	1.470181	1.197270	0.691382
H215	H	0.149947	0.230215	0.230389
H216	H	0.649947	0.730215	0.730389
H217	H	0.550796	0.376466	0.376201
H218	H	1.050796	0.876466	0.876201
H219	H	0.836558	0.542981	0.376249
H220	H	1.336558	1.042981	0.876249
H221	H	0.982851	0.230285	0.543581
H222	H	1.482851	0.730285	1.043581
H223	H	0.982852	0.230097	1.063683
H224	H	1.482852	0.730097	1.563683
C225	C	0.994363	0.218744	0.672245
C226	C	1.494363	0.718744	1.172245
H227	H	1.018360	0.194785	0.643265
H228	H	1.518360	0.694785	1.143265
H229	H	0.970306	0.191304	0.697885
H230	H	1.470306	0.691304	1.197885
H231	H	1.021775	0.242830	0.697898
H232	H	1.521775	0.742830	1.197898
C233	C	0.825165	0.387847	0.534121
C234	C	1.325165	0.887847	1.034121
H235	H	0.801179	0.411815	0.563103
H236	H	1.301179	0.911815	1.063103
H237	H	0.797752	0.363779	0.508458
H238	H	1.297752	0.863779	1.008458
H239	H	0.849239	0.415288	0.508491
H240	H	1.349239	0.915288	1.008491
C241	C	0.825181	0.387665	1.073012
C242	C	1.325181	0.887665	1.573012
H243	H	0.830955	0.381891	1.116876
H244	H	1.330955	0.881891	1.616876
H245	H	0.782890	0.378457	1.062223
H246	H	1.282890	0.878457	1.562223
H247	H	0.834377	0.429966	1.062240
H248	H	1.334377	0.929966	1.562240
H249	H	0.836684	0.376204	0.944361
H250	H	1.336684	0.876204	1.444361
