data_functionalizedCrystal
_audit_creation_method	'MofGen! by Chris Wilmer'
_symmetry_space_group_name_H-M	'P1'
_symmetry_Int_Tables_number	1
_symmetry_cell_setting	triclinic
loop_
_symmetry_equiv_pos_as_xyz
  x,y,z
_cell_length_a	10.654551
_cell_length_b	10.654556
_cell_length_c	9.130313
_cell_angle_alpha	90.001151
_cell_angle_beta	90.002645
_cell_angle_gamma	84.486385
loop_
_atom_site_label
_atom_site_type_symbol
_atom_site_fract_x
_atom_site_fract_y
_atom_site_fract_z
O1	O	0.176437	1.667830	0.121804
O2	O	0.193235	1.302353	0.121803
O3	O	0.002097	1.493494	0.121804
O4	O	0.367575	1.476689	0.121803
O5	O	0.002087	1.493491	-0.121795
O6	O	0.193225	1.302350	-0.121796
O7	O	0.176427	1.667828	-0.121795
Cu8	Cu	0.184825	1.485089	-0.144038
Cu9	Cu	0.184837	1.485092	0.144046
O10	O	0.367565	1.476687	-0.121796
C11	C	0.191995	1.255554	0.000003
C12	C	0.188300	1.116111	0.000003
C13	C	0.183106	0.919582	0.132801
C14	C	0.186571	1.050604	0.132795
C15	C	0.186552	1.050590	-0.132790
C16	C	0.183079	0.919571	-0.132782
C17	C	0.183122	0.919591	0.286135
C18	C	0.186587	1.050613	0.286128
C19	C	-0.044706	1.492259	0.000008
C20	C	-0.184149	1.488566	0.000018
C21	C	-0.249655	1.486835	0.132801
C22	C	-0.380676	1.483355	0.132794
C23	C	-0.380672	1.483342	-0.132790
C24	C	-0.249653	1.486813	-0.132782
C25	C	-0.249659	1.486848	0.286135
C26	C	-0.380680	1.483368	0.286128
C27	C	0.414368	1.477922	0.000003
C28	C	0.553811	1.481615	0.000003
C29	C	0.177667	1.714627	0.000008
C30	C	0.181362	1.854070	0.000018
N31	N	0.184836	1.485095	0.346669
N32	N	0.184816	1.485096	-0.346660
C33	C	0.100367	1.569891	0.423321
C34	C	0.100360	1.569895	0.576658
C35	C	0.269294	1.400295	0.576676
C36	C	0.269307	1.400298	0.423342
C37	C	0.002830	1.667805	0.423312
C38	C	0.002822	1.667809	0.576649
H39	H	0.094450	0.894767	0.345014
H40	H	-0.426967	1.570160	0.345001
F41	F	0.069680	1.118204	0.348318
F42	F	-0.123432	1.640020	0.631029
H43	H	0.187950	1.103937	-0.240911
F44	F	0.300031	0.852003	0.348322
F45	F	-0.179937	1.488620	-0.274107
F46	F	0.359224	1.310063	0.341763
H47	H	0.181633	0.866239	-0.240907
F48	F	0.359190	1.310055	0.658289
H49	H	-0.434022	1.481912	-0.240912
F50	F	0.302498	1.083080	0.363066
F51	F	-0.189160	1.373413	0.363093
H52	H	0.024528	1.764262	0.381711
H53	H	0.033573	1.758928	0.624215
F54	F	-0.211002	1.606571	0.348324
H55	H	-0.410247	1.391773	0.333719
H56	H	-0.088450	1.637459	0.375735
