data_functionalizedCrystal
_audit_creation_method	'MofGen! by Chris Wilmer'
_symmetry_space_group_name_H-M	'P1'
_symmetry_Int_Tables_number	1
_symmetry_cell_setting	triclinic
loop_
_symmetry_equiv_pos_as_xyz
  x,y,z
_cell_length_a	9.065218
_cell_length_b	10.654550
_cell_length_c	9.130313
_cell_angle_alpha	89.993418
_cell_angle_beta	89.998015
_cell_angle_gamma	95.249606
loop_
_atom_site_label
_atom_site_type_symbol
_atom_site_fract_x
_atom_site_fract_y
_atom_site_fract_z
O1	O	0.207224	-1.668660	0.121914
O2	O	0.226968	-1.303260	0.121889
O3	O	0.002413	-1.493513	0.121899
O4	O	0.431780	-1.478407	0.121904
O5	O	0.002426	-1.493500	-0.121700
O6	O	0.226982	-1.303247	-0.121709
O7	O	0.207238	-1.668647	-0.121685
Cu8	Cu	0.217111	-1.485946	-0.143940
Cu9	Cu	0.217095	-1.485961	0.144144
O10	O	0.431793	-1.478394	-0.121695
C11	C	-0.052559	-1.492055	0.000102
C12	C	-0.216378	-1.487714	0.000109
C13	C	0.225525	-1.256450	0.000087
C14	C	0.221188	-1.116989	0.000078
C15	C	0.208681	-1.715457	0.000120
C16	C	0.213018	-1.854918	0.000139
C17	C	0.486766	-1.479852	0.000106
C18	C	0.650585	-1.484193	0.000108
N19	N	0.217121	-1.485944	-0.346563
C20	C	0.353403	-1.038027	0.000101
C21	C	0.349319	-0.906990	0.000126
C22	C	0.080793	-0.933890	0.000112
C23	C	0.084879	-1.064925	0.000076
C24	C	0.508434	-1.022496	0.000115
C25	C	0.504350	-0.891459	0.000141
C26	C	0.307435	-1.563131	-0.423222
C27	C	0.307407	-1.563149	-0.576559
C28	C	0.126750	-1.408783	-0.576563
C29	C	0.126770	-1.408772	-0.423229
C30	C	0.411741	-1.652250	-0.423221
C31	C	0.411713	-1.652268	-0.576558
N32	N	0.217073	-1.485973	0.346767
H33	H	-0.022783	-1.129212	0.000036
H34	H	0.562758	-0.849963	0.102095
H35	H	-0.030185	-0.891483	0.000133
H36	H	0.569072	-1.052062	-0.101835
H37	H	0.557793	-1.058352	0.105288
H38	H	0.551208	-0.845967	-0.105027
H39	H	0.522841	-1.613159	-0.375687
C40	C	-0.051811	-1.256199	-0.438642
C41	C	0.027487	-1.323933	-0.338963
H42	H	-0.113100	-1.203817	-0.386616
H43	H	-0.111638	-1.313322	-0.498422
H44	H	0.015531	-1.205504	-0.498472
H45	H	-0.039856	-1.374635	-0.279140
H46	H	0.087318	-1.266803	-0.279158
H47	H	0.528059	-1.621796	-0.618199
H48	H	0.053189	-1.345952	-0.639004
C49	C	0.308073	-1.863404	-0.526490
C50	C	0.349142	-1.779718	-0.640734
H51	H	0.269455	-1.942085	-0.566116
H52	H	0.234597	-1.829698	-0.467943
H53	H	0.392324	-1.875199	-0.467947
H54	H	0.264888	-1.767916	-0.699271
H55	H	0.422623	-1.813431	-0.699306
H56	H	0.375489	-1.751157	-0.381583
