data_functionalizedCrystal
_audit_creation_method	'MofGen! by Chris Wilmer'
_symmetry_space_group_name_H-M	'P1'
_symmetry_Int_Tables_number	1
_symmetry_cell_setting	triclinic
loop_
_symmetry_equiv_pos_as_xyz
  x,y,z
_cell_length_a	19.121275
_cell_length_b	19.121073
_cell_length_c	16.959447
_cell_angle_alpha	87.595601
_cell_angle_beta	87.574323
_cell_angle_gamma	89.928405
loop_
_atom_site_label
_atom_site_type_symbol
_atom_site_fract_x
_atom_site_fract_y
_atom_site_fract_z
Zn1	Zn	1.059778	-0.324794	0.411565
Zn2	Zn	1.054689	-0.442038	0.285245
Zn3	Zn	0.942552	-0.319823	0.284794
Zn4	Zn	0.937504	-0.436994	0.422770
O5	O	0.998631	-0.380912	0.351093
O6	O	1.157205	-0.344538	0.390308
O7	O	1.039797	-0.425856	0.174576
O8	O	0.962345	-0.222379	0.296733
O9	O	1.153465	-0.430676	0.297501
O10	O	1.048471	-0.226031	0.389871
O11	O	0.957411	-0.336066	0.174245
O12	O	0.843781	-0.331175	0.307598
O13	O	0.953741	-0.422080	0.531892
O14	O	0.840072	-0.417260	0.408968
O15	O	1.043575	-0.339647	0.523660
O16	O	1.034901	-0.539472	0.308366
O17	O	0.948806	-0.535767	0.409404
C18	C	0.816490	-0.373132	0.359450
C19	C	0.738568	-0.369820	0.363045
C20	C	0.700014	-0.413039	0.316335
C21	C	0.626798	-0.409927	0.319723
C22	C	0.592139	-0.363592	0.369817
C23	C	0.630698	-0.320372	0.416532
C24	C	0.703912	-0.323487	0.413147
C25	C	0.371177	-0.351948	0.382460
C26	C	0.297958	-0.348834	0.385839
C27	C	0.294063	-0.438391	0.289031
C28	C	0.367279	-0.441499	0.285648
C29	C	0.405832	-0.398281	0.332366
C30	C	0.517301	-0.360409	0.373279
C31	C	0.480668	-0.401469	0.328907
C32	C	0.990772	-0.563057	0.360166
C33	C	0.987475	-0.640983	0.364071
C34	C	0.966596	-1.081617	0.388855
C35	C	0.969695	-1.008398	0.385177
C36	C	1.016103	-0.973698	0.330767
C37	C	1.059420	-1.012222	0.280037
C38	C	1.056325	-1.085439	0.283720
C39	C	1.027697	-0.752724	0.317023
C40	C	1.030787	-0.679501	0.313343
C41	C	0.941062	-0.675682	0.418484
C42	C	0.937968	-0.748901	0.422159
C43	C	0.981288	-0.787418	0.371432
C44	C	1.019270	-0.898857	0.327005
C45	C	0.978124	-0.862259	0.375198
C46	C	1.181483	-0.388724	0.342705
C47	C	1.259404	-0.392053	0.339130
C48	C	0.998662	-0.380856	0.557257
C49	C	0.998676	-0.380831	0.645112
C50	C	1.006539	-0.198057	0.342002
C51	C	1.009909	-0.120135	0.338127
C52	C	0.998642	-0.380920	0.145727
C53	C	0.998772	-0.380753	0.057856
C54	C	0.951990	-0.423680	1.020869
C55	C	1.045535	-0.337842	1.012292
C56	C	1.045516	-0.337856	0.929748
C57	C	0.998734	-0.380784	0.892760
C58	C	0.951971	-0.423697	0.938317
C59	C	1.092283	-0.294949	0.884185
C60	C	1.092266	-0.294962	0.801635
C61	C	1.045480	-0.337886	0.764646
C62	C	0.998714	-0.380801	0.810208
C63	C	0.951932	-0.423728	0.773221
C64	C	0.905163	-0.466639	0.818782
C65	C	0.905184	-0.466621	0.901328
C66	C	1.045458	-0.337904	0.682100
C67	C	0.951913	-0.423745	0.690669
H68	H	0.602472	-0.282648	0.457323
H69	H	0.395494	-0.479229	0.244855
Cl70	Cl	1.077609	-0.855228	0.258605
Cl71	Cl	1.104349	-0.283884	1.058791
H72	H	0.913810	-0.458696	0.660560
H73	H	0.508891	-0.439197	0.288125
Cl74	Cl	1.104253	-0.283968	0.624827
Cl75	Cl	1.151096	-0.240992	0.930686
Cl76	Cl	0.846357	-0.520607	0.772273
Cl77	Cl	0.879634	-0.792519	0.490573
H78	H	0.867109	-0.501560	0.938431
Cl79	Cl	1.082155	-0.801136	0.253250
Cl80	Cl	1.151058	-0.241014	0.744366
H81	H	0.913910	-0.458615	1.057968
H82	H	0.905794	-0.644315	0.459785
Cl83	Cl	0.473722	-0.302163	0.436254
H84	H	0.735302	-0.288293	0.451183
Cl85	Cl	0.743579	-0.471289	0.253355
Cl86	Cl	1.117766	-0.968599	0.211640
H87	H	0.595411	-0.445120	0.281687
H88	H	0.262666	-0.473578	0.250998
H89	H	0.269740	-0.311097	0.426630
Cl90	Cl	1.089124	-0.635879	0.244927
Cl91	Cl	0.419634	-0.297617	0.441192
H92	H	0.940342	-0.890514	0.419501
Cl93	Cl	0.915244	-0.959978	0.448955
Cl94	Cl	0.908247	-1.125232	0.457255
H95	H	1.091596	-1.116800	0.242414
