data_functionalizedCrystal
_audit_creation_method	'MofGen! by Chris Wilmer'
_symmetry_space_group_name_H-M	'P1'
_symmetry_Int_Tables_number	1
_symmetry_cell_setting	triclinic
loop_
_symmetry_equiv_pos_as_xyz
  x,y,z
_cell_length_a	21.395362
_cell_length_b	19.077068
_cell_length_c	19.076919
_cell_angle_alpha	94.470751
_cell_angle_beta	92.260951
_cell_angle_gamma	92.343691
loop_
_atom_site_label
_atom_site_type_symbol
_atom_site_fract_x
_atom_site_fract_y
_atom_site_fract_z
Zn1	Zn	0.932554	-0.296406	-0.410194
Zn2	Zn	0.932476	-0.409560	-0.297039
Zn3	Zn	0.832167	-0.291720	-0.292287
Zn4	Zn	0.823361	-0.414289	-0.414842
O5	O	0.880139	-0.352994	-0.353590
O6	O	1.020220	-0.311398	-0.395227
O7	O	0.922823	-0.389988	-0.197763
O8	O	0.849202	-0.193691	-0.303994
O9	O	1.020163	-0.394532	-0.312092
O10	O	0.922955	-0.197134	-0.390620
O11	O	0.849126	-0.303412	-0.194272
O12	O	0.743322	-0.307997	-0.308501
O13	O	0.834193	-0.402592	-0.512871
O14	O	0.736852	-0.398048	-0.398541
O15	O	0.914416	-0.315984	-0.509456
O16	O	0.914284	-0.508837	-0.316599
O17	O	0.834118	-0.512312	-0.403149
C18	C	0.717353	-0.353028	-0.353510
C19	C	0.647712	-0.353060	-0.353493
C20	C	0.611646	-0.400006	-0.400312
C21	C	0.546210	-0.399990	-0.400343
C22	C	0.516842	-0.353035	-0.353542
C23	C	0.552916	-0.306080	-0.306720
C24	C	0.618351	-0.306092	-0.306695
C25	C	0.415697	-0.344816	-0.289853
C26	C	0.350263	-0.344808	-0.289877
C27	C	0.315021	-0.352992	-0.353618
C28	C	0.345219	-0.361198	-0.417339
C29	C	0.410653	-0.361211	-0.417314
C30	C	0.445890	-0.353016	-0.353564
C31	C	0.208002	-0.399923	-0.400475
C32	C	0.142565	-0.399902	-0.400506
C33	C	0.149272	-0.305995	-0.306877
C34	C	0.214708	-0.306013	-0.306851
C35	C	0.244069	-0.352981	-0.353649
C36	C	0.873253	-0.536154	-0.360909
C37	C	0.870364	-0.614512	-0.364064
C38	C	0.910774	-0.649494	-0.320522
C39	C	0.908060	-0.723119	-0.323493
C40	C	0.864932	-0.761762	-0.370004
C41	C	0.824519	-0.726775	-0.413551
C42	C	0.827237	-0.653151	-0.410582
C43	C	0.852328	-0.982151	-0.383712
C44	C	0.849612	-1.055780	-0.386676
C45	C	0.933153	-1.052120	-0.296619
C46	C	0.935865	-0.978494	-0.293652
C47	C	0.895455	-0.943514	-0.337201
N48	N	0.862155	-0.837019	-0.373040
N49	N	0.898235	-0.868258	-0.334168
C50	C	1.043561	-0.352960	-0.353671
C51	C	1.113202	-0.352946	-0.353706
C52	C	0.873331	-0.360338	-0.537457
C53	C	0.870429	-0.363468	-0.615809
C54	C	0.887069	-0.169119	-0.346258
C55	C	0.890022	-0.090762	-0.343134
C56	C	0.910832	-0.319848	-0.650843
C57	C	0.908098	-0.322786	-0.724464
C58	C	0.864964	-0.369348	-0.763050
C59	C	0.824557	-0.412969	-0.728011
C60	C	0.827288	-0.410027	-0.654391
C61	C	0.852314	-0.382978	-0.983419
C62	C	0.849587	-0.385918	-1.057044
C63	C	0.933128	-0.295734	-1.053491
C64	C	0.935858	-0.292799	-0.979871
C65	C	0.895449	-0.336418	-0.944838
N66	N	0.862170	-0.372353	-0.838302
N67	N	0.898240	-0.333408	-0.869587
C68	C	0.886960	-0.345627	-0.170437
C69	C	0.889990	-0.342299	-0.092077
H70	H	0.325681	-0.338130	-0.237992
H71	H	0.945958	-0.281935	-0.619432
C72	C	0.782860	-0.458026	-0.615855
H73	H	0.756788	-0.486187	-0.649378
H74	H	0.757639	-0.429931	-0.586038
H75	H	0.806752	-0.487587	-0.588383
C76	C	0.977571	-0.247753	-1.092025
H77	H	1.003654	-0.219605	-1.058500
H78	H	0.953698	-0.218189	-1.119507
H79	H	1.002793	-0.275866	-1.121833
C80	C	0.958216	-0.606993	-0.269361
H81	H	0.981898	-0.638375	-0.243860
H82	H	0.936471	-0.577086	-0.237455
H83	H	0.985560	-0.579308	-0.295211
H84	H	0.941000	-0.287268	-0.752985
H85	H	0.444387	-0.338148	-0.237944
C86	C	0.782787	-0.614671	-0.458480
H87	H	0.756709	-0.648228	-0.486602
H88	H	0.806658	-0.587137	-0.488067
H89	H	0.757562	-0.584916	-0.430319
C90	C	0.306461	-0.370198	-0.487458
H91	H	0.263166	-0.369007	-0.478350
H92	H	0.314732	-0.414049	-0.511642
H93	H	0.317566	-0.333079	-0.515636
H94	H	0.529001	-0.267847	-0.268616
C95	C	0.777078	-0.769279	-0.464710
H96	H	0.781242	-0.818138	-0.460236
H97	H	0.784903	-0.759076	-0.511599
H98	H	0.735814	-0.756853	-0.453842
H99	H	0.789435	-0.450878	-0.759433
C100	C	0.983281	-0.935988	-0.242464
H101	H	0.979100	-0.887130	-0.246919
H102	H	1.024555	-0.948394	-0.253294
H103	H	0.975423	-0.946209	-0.195583
C104	C	0.658024	-0.254453	-0.255188
H105	H	0.631164	-0.226486	-0.227317
H106	H	0.683738	-0.224865	-0.280967
H107	H	0.683640	-0.280155	-0.225492
C108	C	0.102893	-0.451556	-0.452001
H109	H	0.129753	-0.479535	-0.479858
H110	H	0.077269	-0.425873	-0.481701
H111	H	0.077186	-0.481141	-0.426203
H112	H	0.970983	-0.254886	-0.948459
H113	H	0.814499	-1.087242	-0.424563
C114	C	0.952509	-0.761596	-0.275593
H115	H	0.978577	-0.728037	-0.247462
H116	H	0.977733	-0.791350	-0.303750
H117	H	0.928634	-0.789131	-0.246004
C118	C	0.977604	-1.090599	-0.248724
H119	H	0.969814	-1.139982	-0.257155
H120	H	0.970670	-1.076673	-0.200862
H121	H	1.019759	-1.078891	-0.258619
H122	H	0.814460	-0.423836	-1.088458
C123	C	0.807854	-0.430943	-0.944892
H124	H	0.781775	-0.459093	-0.978418
H125	H	0.782640	-0.402818	-0.915092
H126	H	0.831715	-0.460516	-0.917402
C127	C	0.807868	-0.943681	-0.431603
H128	H	0.781788	-0.977242	-0.459718
H129	H	0.831728	-0.916143	-0.461196
H130	H	0.782646	-0.913931	-0.403432
H131	H	0.635548	-0.438250	-0.438420
H132	H	0.516840	-0.438219	-0.438471
C133	C	0.443873	-0.370234	-0.487398
H134	H	0.487889	-0.369075	-0.478251
H135	H	0.433529	-0.333118	-0.515590
H136	H	0.430700	-0.414087	-0.511586
C137	C	0.240305	-0.451575	-0.451956
H138	H	0.284441	-0.444865	-0.445231
H139	H	0.228251	-0.443218	-0.498930
H140	H	0.228157	-0.498511	-0.443458
C141	C	0.116978	-0.254342	-0.255398
H142	H	0.147832	-0.226381	-0.227511
H143	H	0.091543	-0.280024	-0.225724
H144	H	0.091640	-0.224739	-0.281204
C145	C	0.254381	-0.254380	-0.255341
H146	H	0.227521	-0.226416	-0.227468
H147	H	0.280095	-0.224789	-0.281118
H148	H	0.279998	-0.280083	-0.225647
