data_functionalizedCrystal
_audit_creation_method	'MofGen! by Chris Wilmer'
_symmetry_space_group_name_H-M	'P1'
_symmetry_Int_Tables_number	1
_symmetry_cell_setting	triclinic
loop_
_symmetry_equiv_pos_as_xyz
  x,y,z
_cell_length_a	16.109301
_cell_length_b	17.699083
_cell_length_c	15.186229
_cell_angle_alpha	90.001174
_cell_angle_beta	90.003248
_cell_angle_gamma	83.372299
loop_
_atom_site_label
_atom_site_type_symbol
_atom_site_fract_x
_atom_site_fract_y
_atom_site_fract_z
O1	O	1.102966	0.097281	0.073182
O2	O	1.352966	0.347281	0.323182
O3	O	1.602966	0.597281	0.573182
O4	O	1.852966	0.847281	0.823182
O5	O	0.860883	0.109388	0.073195
O6	O	1.110883	0.359388	0.323195
O7	O	1.360883	0.609388	0.573195
O8	O	1.610883	0.859388	0.823195
O9	O	0.988764	-0.006845	0.073180
O10	O	1.238764	0.243155	0.323180
O11	O	1.488764	0.493155	0.573180
O12	O	1.738764	0.743155	0.823180
O13	O	0.975085	0.213514	0.073196
O14	O	1.225085	0.463514	0.323196
O15	O	1.475085	0.713514	0.573196
O16	O	1.725085	0.963514	0.823196
O17	O	0.988749	-0.006838	-0.073277
O18	O	1.238749	0.243162	0.176723
O19	O	1.488749	0.493162	0.426723
O20	O	1.738749	0.743162	0.676723
O21	O	0.860868	0.109395	-0.073263
O22	O	1.110868	0.359395	0.176737
O23	O	1.360868	0.609395	0.426737
O24	O	1.610868	0.859395	0.676737
O25	O	1.102951	0.097288	-0.073275
O26	O	1.352951	0.347288	0.176725
O27	O	1.602951	0.597288	0.426725
O28	O	1.852951	0.847288	0.676725
Zn29	Zn	0.981907	0.103342	-0.096522
Zn30	Zn	1.231907	0.353342	0.153478
Zn31	Zn	1.481907	0.603342	0.403478
Zn32	Zn	1.731907	0.853342	0.653478
Zn33	Zn	0.981927	0.103334	0.096441
Zn34	Zn	1.231927	0.353334	0.346441
Zn35	Zn	1.481927	0.603334	0.596441
Zn36	Zn	1.731927	0.853334	0.846441
O37	O	0.975070	0.213521	-0.073261
O38	O	1.225070	0.463521	0.176739
O39	O	1.475070	0.713521	0.426739
O40	O	1.725070	0.963521	0.676739
C41	C	0.829902	0.108901	-0.000033
C42	C	1.079902	0.358901	0.249967
C43	C	1.329902	0.608901	0.499967
C44	C	1.579902	0.858901	0.749967
C45	C	0.737609	0.107431	-0.000028
C46	C	0.987609	0.357431	0.249972
C47	C	1.237609	0.607431	0.499972
C48	C	1.487609	0.857431	0.749972
C49	C	0.428500	0.171594	-0.000039
C50	C	0.678500	0.421594	0.249961
C51	C	0.928500	0.671594	0.499961
C52	C	1.178500	0.921594	0.749961
C53	C	0.515218	0.172983	-0.000033
C54	C	0.765218	0.422983	0.249967
C55	C	1.015218	0.672983	0.499967
C56	C	1.265218	0.922983	0.749967
C57	C	0.535329	0.035076	-0.000032
C58	C	0.785329	0.285076	0.249968
C59	C	1.035329	0.535076	0.499968
C60	C	1.285329	0.785076	0.749968
C61	C	0.448613	0.033689	-0.000031
C62	C	0.698613	0.283689	0.249969
C63	C	0.948613	0.533689	0.499969
C64	C	1.198613	0.783689	0.749969
C65	C	0.395200	0.101950	-0.000039
C66	C	0.645200	0.351950	0.249961
C67	C	0.895200	0.601950	0.499961
C68	C	1.145200	0.851950	0.749961
C69	C	0.568634	0.104726	-0.000034
C70	C	0.818634	0.354726	0.249966
C71	C	1.068634	0.604726	0.499966
C72	C	1.318634	0.854726	0.749966
C73	C	0.662658	0.106231	-0.000029
C74	C	0.912658	0.356231	0.249971
C75	C	1.162658	0.606231	0.499971
C76	C	1.412658	0.856231	0.749971
C77	C	0.301171	0.100445	-0.000043
C78	C	0.551171	0.350445	0.249957
C79	C	0.801171	0.600445	0.499957
C80	C	1.051171	0.850445	0.749957
C81	C	0.988267	-0.035039	-0.000049
C82	C	1.238267	0.214961	0.249951
C83	C	1.488267	0.464961	0.499951
C84	C	1.738267	0.714961	0.749951
C85	C	0.986796	-0.119059	-0.000049
C86	C	1.236796	0.130941	0.249951
C87	C	1.486796	0.380941	0.499951
C88	C	1.736796	0.630941	0.749951
C89	C	1.061859	-0.167573	-0.000054
C90	C	1.311859	0.082427	0.249946
C91	C	1.561859	0.332427	0.499946
C92	C	1.811859	0.582427	0.749946
C93	C	1.060473	-0.246518	-0.000046
C94	C	1.310473	0.003482	0.249954
C95	C	1.560473	0.253482	0.499954
C96	C	1.810473	0.503482	0.749954
C97	C	0.984022	-0.276948	-0.000039
C98	C	1.234022	-0.026948	0.249961
C99	C	1.484022	0.223052	0.499961
C100	C	1.734022	0.473052	0.749961
C101	C	0.908953	-0.228428	-0.000032
C102	C	1.158953	0.021572	0.249968
C103	C	1.408953	0.271572	0.499968
C104	C	1.658953	0.521572	0.749968
C105	C	0.910340	-0.149485	-0.000033
C106	C	1.160340	0.100515	0.249967
C107	C	1.410340	0.350515	0.499967
C108	C	1.660340	0.600515	0.749967
C109	C	0.903356	-0.546799	-0.000024
C110	C	1.153356	-0.296799	0.249976
C111	C	1.403356	-0.046799	0.499976
C112	C	1.653356	0.203201	0.749976
C113	C	0.901974	-0.625749	-0.000025
C114	C	1.151974	-0.375749	0.249975
C115	C	1.401974	-0.125749	0.499975
C116	C	1.651974	0.124251	0.749975
C117	C	1.053488	-0.643833	-0.000037
C118	C	1.303488	-0.393833	0.249963
C119	C	1.553488	-0.143833	0.499963
C120	C	1.803488	0.106167	0.749963
C121	C	1.054876	-0.564889	-0.000039
C122	C	1.304876	-0.314889	0.249961
C123	C	1.554876	-0.064889	0.499961
C124	C	1.804876	0.185111	0.749961
C125	C	0.979807	-0.516376	-0.000026
C126	C	1.229807	-0.266376	0.249974
C127	C	1.479807	-0.016376	0.499974
C128	C	1.729807	0.233624	0.749974
C129	C	0.981312	-0.430775	-0.000033
C130	C	1.231312	-0.180775	0.249967
C131	C	1.481312	0.069225	0.499967
C132	C	1.731312	0.319225	0.749967
C133	C	0.982517	-0.362548	-0.000039
C134	C	1.232517	-0.112548	0.249961
C135	C	1.482517	0.137452	0.499961
C136	C	1.732517	0.387452	0.749961
C137	C	1.133933	0.097775	-0.000046
C138	C	1.383933	0.347775	0.249954
C139	C	1.633933	0.597775	0.499954
C140	C	1.883933	0.847775	0.749954
C141	C	1.226225	0.099245	-0.000045
C142	C	1.476225	0.349245	0.249955
C143	C	1.726225	0.599245	0.499955
C144	C	1.976225	0.849245	0.749955
C145	C	0.975568	0.241715	-0.000030
C146	C	1.225568	0.491715	0.249970
C147	C	1.475568	0.741715	0.499970
C148	C	1.725568	0.991715	0.749970
C149	C	0.977038	0.325735	-0.000024
C150	C	1.227038	0.575735	0.249976
C151	C	1.477038	0.825735	0.499976
C152	C	1.727038	1.075735	0.749976
N153	N	0.981900	0.103348	-0.228215
N154	N	1.231900	0.353348	0.021785
N155	N	1.481900	0.603348	0.271785
N156	N	1.731900	0.853348	0.521785
C157	C	1.032245	0.149255	-0.453937
C158	C	1.282245	0.399255	-0.203937
C159	C	1.532245	0.649255	0.046063
C160	C	1.782245	0.899255	0.296063
C161	C	1.032254	0.149249	-0.546127
C162	C	1.282254	0.399249	-0.296127
C163	C	1.532254	0.649249	-0.046127
C164	C	1.782254	0.899249	0.203873
C165	C	0.931594	0.057410	-0.546137
C166	C	1.181594	0.307410	-0.296137
C167	C	1.431594	0.557410	-0.046137
C168	C	1.681594	0.807410	0.203863
C169	C	0.931590	0.057412	-0.453949
C170	C	1.181590	0.307412	-0.203949
C171	C	1.431590	0.557412	0.046051
C172	C	1.681590	0.807412	0.296051
C173	C	0.981914	0.103339	-0.407852
C174	C	1.231914	0.353339	-0.157852
C175	C	1.481914	0.603339	0.092148
C176	C	1.731914	0.853339	0.342148
C177	C	0.981927	0.103331	-0.592229
C178	C	1.231927	0.353331	-0.342229
C179	C	1.481927	0.603331	-0.092229
C180	C	1.731927	0.853331	0.157771
C181	C	0.981937	0.103325	-0.692185
C182	C	1.231937	0.353325	-0.442185
C183	C	1.481937	0.603325	-0.192185
C184	C	1.731937	0.853325	0.057815
C185	C	0.981906	0.103344	-0.307889
C186	C	1.231906	0.353344	-0.057889
C187	C	1.481906	0.603344	0.192111
C188	C	1.731906	0.853344	0.442111
N189	N	0.981941	0.103322	0.228134
N190	N	1.231941	0.353322	0.478134
N191	N	1.481941	0.603322	0.728134
N192	N	1.731941	0.853322	0.978134
H193	H	0.385014	0.227177	-0.000044
H194	H	0.635014	0.477177	0.249956
H195	H	0.885014	0.727177	0.499956
H196	H	1.135014	0.977177	0.749956
F197	F	0.550654	0.247108	-0.000030
F198	F	0.800654	0.497108	0.249970
F199	F	1.050654	0.747108	0.499970
F200	F	1.300654	0.997108	0.749970
H201	H	0.890622	0.020019	-0.583681
H202	H	1.140622	0.270019	-0.333681
H203	H	1.390622	0.520019	-0.083681
H204	H	1.640622	0.770019	0.166319
F205	F	0.823461	-0.495178	-0.000009
F206	F	1.073461	-0.245178	0.249991
F207	F	1.323461	0.004822	0.499991
F208	F	1.573461	0.254822	0.749991
H209	H	0.846705	-0.253211	-0.000021
H210	H	1.096705	-0.003211	0.249979
H211	H	1.346705	0.246789	0.499979
H212	H	1.596705	0.496789	0.749979
H213	H	1.121597	-0.286016	-0.000052
H214	H	1.371597	-0.036016	0.249948
H215	H	1.621597	0.213984	0.499948
H216	H	1.871597	0.463984	0.749948
F217	F	0.592181	-0.037568	-0.000030
F218	F	0.842181	0.212432	0.249970
F219	F	1.092181	0.462432	0.499970
F220	F	1.342181	0.712432	0.749970
F221	F	0.413171	-0.040440	-0.000021
F222	F	0.663171	0.209560	0.249979
F223	F	0.913171	0.459560	0.499979
F224	F	1.163171	0.709560	0.749979
H225	H	1.073222	0.186651	-0.416407
H226	H	1.323222	0.436651	-0.166407
H227	H	1.573222	0.686651	0.083593
H228	H	1.823222	0.936651	0.333593
H229	H	1.114613	-0.683342	-0.000043
H230	H	1.364613	-0.433342	0.249957
H231	H	1.614613	-0.183342	0.499957
H232	H	1.864613	0.066658	0.749957
F233	F	0.830448	-0.097853	-0.000025
F234	F	1.080448	0.152147	0.249975
F235	F	1.330448	0.402147	0.499975
F236	F	1.580448	0.652147	0.749975
H237	H	1.124115	-0.142804	-0.000065
H238	H	1.374115	0.107196	0.249935
H239	H	1.624115	0.357196	0.499935
H240	H	1.874115	0.607196	0.749935
F241	F	1.136245	-0.532508	-0.000045
F242	F	1.386245	-0.282508	0.249955
F243	F	1.636245	-0.032508	0.499955
F244	F	1.886245	0.217492	0.749955
F245	F	1.085824	0.198118	-0.595170
F246	F	1.335824	0.448118	-0.345170
F247	F	1.585824	0.698118	-0.095170
F248	F	1.835824	0.948118	0.154830
H249	H	0.890604	0.020018	-0.416426
H250	H	1.140604	0.270018	-0.166426
H251	H	1.390604	0.520018	0.083574
H252	H	1.640604	0.770018	0.333574
H253	H	0.839715	-0.650522	-0.000022
H254	H	1.089715	-0.400522	0.249978
H255	H	1.339715	-0.150522	0.499978
H256	H	1.589715	0.099478	0.749978
