data_functionalizedCrystal
_audit_creation_method	'MofGen! by Chris Wilmer'
_symmetry_space_group_name_H-M	'P1'
_symmetry_Int_Tables_number	1
_symmetry_cell_setting	triclinic
loop_
_symmetry_equiv_pos_as_xyz
  x,y,z
_cell_length_a	9.065215
_cell_length_b	9.065218
_cell_length_c	7.540329
_cell_angle_alpha	90.001372
_cell_angle_beta	90.001076
_cell_angle_gamma	85.015291
loop_
_atom_site_label
_atom_site_type_symbol
_atom_site_fract_x
_atom_site_fract_y
_atom_site_fract_z
O1	O	1.960398	0.216334	0.147454
O2	O	2.460398	0.716334	0.647454
O3	O	1.531113	0.234085	0.147461
O4	O	2.031113	0.734085	0.647461
O5	O	1.754629	0.010567	0.147454
O6	O	2.254629	0.510567	0.647454
O7	O	1.736882	0.439852	0.147461
O8	O	2.236882	0.939852	0.647461
O9	O	1.754621	0.010565	-0.147511
O10	O	2.254621	0.510565	0.352489
O11	O	1.531105	0.234083	-0.147504
O12	O	2.031105	0.734083	0.352496
O13	O	1.960390	0.216332	-0.147511
O14	O	2.460390	0.716332	0.352489
Cu15	Cu	1.745747	0.225207	-0.174440
Cu16	Cu	2.245747	0.725207	0.325560
Cu17	Cu	1.745756	0.225209	0.174390
Cu18	Cu	2.245756	0.725209	0.674390
O19	O	1.736874	0.439850	-0.147504
O20	O	2.236874	0.939850	0.352496
C21	C	1.476122	0.232379	-0.000020
C22	C	1.976122	0.732379	0.499980
C23	C	1.312279	0.227281	-0.000017
C24	C	1.812279	0.727281	0.499983
C25	C	1.752919	-0.044421	-0.000026
C26	C	2.252919	0.455579	0.499974
C27	C	1.747819	-0.208264	-0.000017
C28	C	2.247819	0.291736	0.499983
C29	C	2.015381	0.218038	-0.000026
C30	C	2.515381	0.718038	0.499974
C31	C	2.179224	0.223136	-0.000017
C32	C	2.679224	0.723136	0.499983
C33	C	1.738584	0.494837	-0.000020
C34	C	2.238584	0.994837	0.499980
C35	C	1.743683	0.658680	-0.000017
C36	C	2.243683	1.158680	0.499983
N37	N	1.745751	0.225205	-0.419789
N38	N	2.245751	0.725205	0.080211
N39	N	1.745763	0.225200	0.419739
N40	N	2.245763	0.725200	0.919739
