data_functionalizedCrystal
_audit_creation_method	'MofGen! by Chris Wilmer'
_symmetry_space_group_name_H-M	'P1'
_symmetry_Int_Tables_number	1
_symmetry_cell_setting	triclinic
loop_
_symmetry_equiv_pos_as_xyz
  x,y,z
_cell_length_a	12.594516
_cell_length_b	17.639155
_cell_length_c	17.639306
_cell_angle_alpha	87.838055
_cell_angle_beta	101.189135
_cell_angle_gamma	101.178538
loop_
_atom_site_label
_atom_site_type_symbol
_atom_site_fract_x
_atom_site_fract_y
_atom_site_fract_z
Zn1	Zn	-0.815982	-1.247556	-0.194300
Zn2	Zn	-0.952423	-1.221829	-0.067349
Zn3	Zn	-0.746939	-1.094933	-0.093048
Zn4	Zn	-0.966369	-1.120563	-0.219987
O5	O	-0.870428	-1.171220	-0.143671
O6	O	-0.857139	-1.350396	-0.155955
O7	O	-0.890434	-1.183503	0.035496
O8	O	-0.607164	-1.115219	-0.106485
O9	O	-0.957382	-1.331495	-0.062684
O10	O	-0.657890	-1.227350	-0.180874
O11	O	-0.739466	-1.090273	0.016615
O12	O	-0.752989	-0.992079	-0.131392
O13	O	-0.981151	-1.158902	-0.322833
O14	O	-0.914203	-1.010910	-0.224653
O15	O	-0.870662	-1.252203	-0.303962
O16	O	-1.103206	-1.208355	-0.087591
O17	O	-1.113452	-1.133955	-0.199734
C18	C	-0.827618	-0.973944	-0.183599
C19	C	-0.809335	-0.889553	-0.200699
C20	C	-1.009520	-0.562745	-0.013746
C21	C	-0.992328	-0.483447	-0.029820
C22	C	-0.888212	-0.503157	-0.127087
C23	C	-0.905390	-0.582458	-0.111019
C24	C	-0.966046	-0.612245	-0.054348
C25	C	-0.861917	-0.631958	-0.151620
C26	C	-0.879099	-0.711252	-0.135556
C27	C	-0.939755	-0.741046	-0.078889
C28	C	-0.983229	-0.691539	-0.038283
C29	C	-0.801268	-0.602170	-0.208295
C30	C	-0.757795	-0.651670	-0.248897
C31	C	-0.774970	-0.730965	-0.232828
C32	C	-0.835626	-0.760759	-0.176162
C33	C	-0.731497	-0.780471	-0.273434
C34	C	-0.748679	-0.859765	-0.257369
C35	C	-0.852808	-0.840052	-0.160097
C36	C	-1.146956	-1.171169	-0.143674
C37	C	-1.265279	-1.171221	-0.143686
C38	C	-1.340131	-1.130743	-0.204646
C39	C	-1.384308	-1.098246	-0.139104
C40	C	-1.431920	-1.203790	-0.209226
C41	C	-1.307879	-1.138680	-0.078115
C42	C	-1.355506	-1.244265	-0.148277
C43	C	-1.399641	-1.211785	-0.082682
C44	C	-0.592831	-1.171295	-0.143681
C45	C	-0.474535	-1.171328	-0.143685
C46	C	-0.935164	-1.211281	-0.341718
C47	C	-0.962750	-1.228353	-0.426114
C48	C	-0.913398	-0.369265	-0.103581
C49	C	-0.931688	-0.453656	-0.086481
C50	C	-0.660525	-1.041824	-0.752853
C51	C	-0.686473	-1.057882	-0.832152
C52	C	-0.843659	-1.154953	-0.812473
C53	C	-0.817722	-1.138905	-0.733170
C54	C	-0.726154	-1.082339	-0.703366
C55	C	-0.883351	-1.179420	-0.683684
C56	C	-0.857418	-1.163371	-0.604388
C57	C	-0.765857	-1.106806	-0.574579
C58	C	-0.700221	-1.066290	-0.624071
C59	C	-0.974923	-1.235982	-0.713490
C60	C	-1.040552	-1.276497	-0.664003
C61	C	-1.014615	-1.260452	-0.584706
C62	C	-0.923054	-1.203887	-0.554896
C63	C	-1.080251	-1.300968	-0.535213
C64	C	-1.054318	-1.284918	-0.455918
C65	C	-0.897121	-1.187837	-0.475600
C66	C	-0.805877	-1.131358	0.053615
C67	C	-0.778023	-1.114434	0.138040
H68	H	-0.787284	-0.537604	-0.221375
H69	H	-0.918217	-1.201006	-0.836751
H70	H	-1.058904	-0.586998	0.032406
H71	H	-1.397682	-1.036525	-0.135225
Cl72	Cl	-1.007521	-1.256160	-0.813177
H73	H	-0.953733	-0.805611	-0.065804
H74	H	-1.032613	-0.715792	0.007869
H75	H	-0.708412	-0.627406	-0.295040
Cl76	Cl	-0.545399	-0.970719	-0.715378
Cl77	Cl	-0.811968	-0.465703	-0.198331
H78	H	-1.254389	-1.111108	-0.022686
Cl79	Cl	-1.155665	-1.347603	-0.701479
Cl80	Cl	-1.439953	-1.264693	-0.003017
Cl81	Cl	-1.047014	-0.421222	0.021214
Cl82	Cl	-1.195370	-1.372067	-0.572693
Cl83	Cl	-0.781995	-1.116733	-0.438125
Cl84	Cl	-0.733260	-1.086622	-0.474893
Cl85	Cl	-0.603928	-1.006966	-0.894358
Cl86	Cl	-0.655264	-0.743016	-0.344684
H87	H	-1.485518	-1.231292	-0.264653
Cl88	Cl	-1.136828	-1.335848	-0.393703
H89	H	-0.902192	-0.864305	-0.113945
H90	H	-1.342143	-1.305980	-0.152192
H91	H	-0.713275	-0.900070	-0.290430
H92	H	-1.313786	-1.096423	-0.256151
Cl93	Cl	-0.585096	-0.995185	-0.586596
