data_functionalizedCrystal
_audit_creation_method	'MofGen! by Chris Wilmer'
_symmetry_space_group_name_H-M	'P1'
_symmetry_Int_Tables_number	1
_symmetry_cell_setting	triclinic
loop_
_symmetry_equiv_pos_as_xyz
  x,y,z
_cell_length_a	19.288859
_cell_length_b	19.288864
_cell_length_c	17.766277
_cell_angle_alpha	90.023209
_cell_angle_beta	89.993887
_cell_angle_gamma	96.865014
loop_
_atom_site_label
_atom_site_type_symbol
_atom_site_fract_x
_atom_site_fract_y
_atom_site_fract_z
O1	O	0.086649	-0.921351	-0.062835
O2	O	0.098338	-0.719090	-0.062784
O3	O	-0.008637	-0.826067	-0.062806
O4	O	0.193624	-0.814374	-0.062812
O5	O	-0.008643	-0.826049	0.062382
O6	O	0.098332	-0.719072	0.062405
O7	O	0.086644	-0.921332	0.062353
Cu8	Cu	0.092487	-0.820200	0.073810
Cu9	Cu	0.092494	-0.820222	-0.074240
O10	O	0.193619	-0.814355	0.062376
C11	C	0.097959	-0.693204	-0.000183
C12	C	0.096830	-0.616101	-0.000163
C13	C	-0.034516	-0.825682	-0.000213
C14	C	-0.111620	-0.824555	-0.000214
C15	C	0.087022	-0.947218	-0.000249
C16	C	0.088151	-1.024322	-0.000274
C17	C	-0.675661	-0.879698	-0.000248
C18	C	-0.603214	-0.880764	-0.000241
C19	C	-0.558508	-0.817994	-0.000225
C20	C	-0.586253	-0.754155	-0.000197
C21	C	-0.658698	-0.753092	-0.000196
C22	C	-0.437232	-0.771188	-0.044071
C23	C	-0.364788	-0.772254	-0.044077
C24	C	-0.335062	-0.821272	-0.000225
C25	C	-0.377789	-0.869235	0.043622
C26	C	-0.450235	-0.868172	0.043623
C27	C	-0.479952	-0.819141	-0.000226
C28	C	-0.228770	-0.886262	-0.000242
C29	C	-0.156322	-0.887325	-0.000231
C30	C	-0.139362	-0.760715	-0.000194
C31	C	-0.211809	-0.759654	-0.000197
C32	C	-0.256509	-0.822430	-0.000225
C33	C	0.219498	-0.814740	-0.000219
C34	C	0.296602	-0.815868	-0.000223
N35	N	0.092483	-0.820190	0.177940
C36	C	0.159598	-0.571403	-0.000177
C37	C	0.158537	-0.498956	-0.000185
C38	C	0.094705	-0.471210	-0.000195
C39	C	0.031929	-0.515918	-0.000177
C40	C	0.032991	-0.588363	-0.000161
C41	C	0.044528	-0.362956	-0.044078
C42	C	0.043468	-0.290511	-0.044098
C43	C	0.091425	-0.247765	-0.000240
C44	C	0.140455	-0.277470	0.043629
C45	C	0.141517	-0.349915	0.043644
C46	C	0.093546	-0.392656	-0.000211
C47	C	0.153048	-0.124511	-0.000262
C48	C	0.151984	-0.052063	-0.000265
C49	C	0.025374	-0.069026	-0.000265
C50	C	0.026439	-0.141472	-0.000254
C51	C	0.090278	-0.169210	-0.000256
N52	N	0.092493	-0.820238	-0.178370
C53	C	0.045137	-0.867574	0.217317
C54	C	0.045134	-0.867578	0.296119
C55	C	0.092488	-0.820204	0.335541
C56	C	0.139837	-0.772811	0.296154
C57	C	0.139834	-0.772804	0.217354
C58	C	0.155776	-0.810904	0.460378
C59	C	0.155780	-0.810916	0.539177
C60	C	0.092496	-0.820223	0.578587
C61	C	0.029207	-0.829532	0.539188
C62	C	0.029204	-0.829525	0.460388
C63	C	0.092496	-0.820207	0.420986
C64	C	0.045144	-0.867615	0.703410
C65	C	0.045139	-0.867614	0.782213
C66	C	0.139849	-0.772849	0.782247
C67	C	0.139847	-0.772847	0.703445
C68	C	0.092495	-0.820233	0.664031
H69	H	-0.712052	-0.930816	-0.000266
H70	H	0.178392	-0.734237	0.328256
H71	H	0.003548	-0.266331	-0.079822
N72	N	0.226241	-0.450737	-0.000212
H73	H	0.215879	-0.400634	-0.000224
H74	H	0.254076	-0.459665	0.046195
N75	N	0.224037	-0.800872	0.417878
H76	H	0.214433	-0.802278	0.361981
H77	H	0.250483	-0.754224	0.431673
N78	N	-0.091147	-0.693015	-0.000177
H79	H	-0.100041	-0.665159	-0.046575
H80	H	-0.100073	-0.665205	0.046270
N81	N	-0.007200	-0.409056	-0.091388
H82	H	0.000910	-0.459457	-0.084720
H83	H	-0.056235	-0.402927	-0.074994
N84	N	-0.469291	-0.718317	-0.091373
H85	H	-0.431233	-0.688101	-0.119155
H86	H	-0.502769	-0.743445	-0.128840
H87	H	0.006579	-0.906157	0.185228
H88	H	-0.580626	-0.932744	-0.000261
N89	N	-0.318707	-0.720530	-0.091372
H90	H	-0.348530	-0.689310	-0.119144
H91	H	-0.284660	-0.691187	-0.057720
N92	N	-0.036919	-0.485994	-0.000195
H93	H	-0.076523	-0.525306	-0.000184
H94	H	-0.040119	-0.456277	0.046206
H95	H	0.179506	-0.242666	0.079343
H96	H	0.006581	-0.906198	0.814274
N97	N	0.221901	-0.154429	-0.000254
H98	H	0.225160	-0.184087	0.046158
H99	H	0.225126	-0.184097	-0.046688
N100	N	-0.005929	-0.918687	0.338608
H101	H	-0.055211	-0.910853	0.324911
H102	H	0.002010	-0.967932	0.324852
N103	N	0.219702	-0.003872	-0.000268
H104	H	0.222102	0.026547	-0.046676
H105	H	0.222051	0.026537	0.046169
H106	H	0.207314	-0.803341	0.571249
N107	N	-0.538038	-0.686453	-0.000164
H108	H	-0.487935	-0.696812	-0.000167
H109	H	-0.546990	-0.658620	-0.046559
N110	N	0.190899	-0.721691	0.174878
H111	H	0.220897	-0.691677	0.211806
H112	H	0.221540	-0.748179	0.142164
N113	N	-0.034711	-0.636578	-0.000143
H114	H	-0.075312	-0.608011	-0.000146
H115	H	-0.037028	-0.667031	-0.046546
H116	H	-0.485021	-0.907224	0.079327
N117	N	-0.039051	-0.839562	0.417892
H118	H	-0.079144	-0.845460	0.454810
H119	H	-0.042999	-0.797377	0.385222
N120	N	-0.043476	-0.039111	-0.000267
H121	H	-0.034626	0.013566	-0.000276
H122	H	-0.070933	-0.055501	-0.046672
N123	N	0.194391	-0.381957	0.090959
H124	H	0.224613	-0.343889	0.118742
H125	H	0.169266	-0.415417	0.128426
H126	H	-0.022324	-0.837110	0.571274
N127	N	-0.126402	-0.956175	-0.000248
H128	H	-0.165715	-0.995778	-0.000266
H129	H	-0.096706	-0.959376	-0.046656
H130	H	0.178403	-0.734274	0.814344
N131	N	-0.345740	-0.922113	0.090919
H132	H	-0.293364	-0.915510	0.084269
H133	H	-0.357541	-0.915430	0.145628
N134	N	-0.688620	-0.684243	-0.000164
H135	H	-0.649308	-0.644638	-0.000148
H136	H	-0.718304	-0.681045	-0.046571
H137	H	0.211581	-0.593982	-0.000180
H138	H	-0.234392	-0.707676	-0.000183
H139	H	-0.024674	-0.177866	-0.000247
N140	N	-0.276989	-0.953966	-0.000269
H141	H	-0.248421	-0.994566	-0.000277
H142	H	-0.307423	-0.956277	0.046137
N143	N	-0.005927	-0.918719	0.660892
H144	H	-0.035926	-0.948735	0.697798
H145	H	-0.036566	-0.892225	0.628213
H146	H	0.178403	-0.734265	0.671383
