data_functionalizedCrystal
_audit_creation_method	'MofGen! by Chris Wilmer'
_symmetry_space_group_name_H-M	'P1'
_symmetry_Int_Tables_number	1
_symmetry_cell_setting	triclinic
loop_
_symmetry_equiv_pos_as_xyz
  x,y,z
_cell_length_a	10.654550
_cell_length_b	16.992695
_cell_length_c	15.455313
_cell_angle_alpha	87.152573
_cell_angle_beta	92.710655
_cell_angle_gamma	87.576563
loop_
_atom_site_label
_atom_site_type_symbol
_atom_site_fract_x
_atom_site_fract_y
_atom_site_fract_z
O1	O	-1.682532	-0.106785	-0.072204
O2	O	-1.182532	0.393215	0.427796
O3	O	-1.317960	-0.117284	-0.072190
O4	O	-0.817960	0.382716	0.427810
O5	O	-1.498784	0.002116	-0.072190
O6	O	-0.998784	0.502116	0.427810
O7	O	-1.501708	-0.226184	-0.072204
O8	O	-1.001708	0.273816	0.427796
O9	O	-1.488441	-0.004683	0.072072
O10	O	-0.988441	0.495317	0.572072
O11	O	-1.307616	-0.124083	0.072072
O12	O	-0.807616	0.375917	0.572072
O13	O	-1.672189	-0.113584	0.072058
O14	O	-1.172189	0.386416	0.572058
Cu15	Cu	-1.488958	-0.119455	0.085237
Cu16	Cu	-0.988958	0.380545	0.585237
Cu17	Cu	-1.501190	-0.111413	-0.085369
Cu18	Cu	-1.001190	0.388587	0.414631
O19	O	-1.491365	-0.232984	0.072058
O20	O	-0.991365	0.267016	0.572058
C21	C	-1.265923	-0.119913	-0.000057
C22	C	-0.765923	0.380087	0.499943
C23	C	-1.126280	-0.117607	-0.000052
C24	C	-0.626280	0.382393	0.499948
C25	C	-1.489852	0.027949	-0.000059
C26	C	-0.989852	0.527949	0.499941
C27	C	-1.478633	0.115054	-0.000059
C28	C	-0.978633	0.615054	0.499941
C29	C	-1.724225	-0.110955	-0.000077
C30	C	-1.224225	0.389045	0.499923
C31	C	-1.863868	-0.113261	-0.000088
C32	C	-1.363868	0.386739	0.499912
C33	C	-1.052871	-0.187907	-0.000069
C34	C	-0.552871	0.312093	0.499931
C35	C	-0.921664	-0.185734	-0.000084
C36	C	-0.421664	0.314266	0.499916
C37	C	-0.937287	-0.042956	-0.000068
C38	C	-0.437287	0.457044	0.499932
C39	C	-1.068492	-0.045129	-0.000047
C40	C	-0.568492	0.454871	0.499953
C41	C	-1.110659	-0.260384	-0.000073
C42	C	-0.610659	0.239616	0.499927
C43	C	-1.037249	-0.330690	-0.000091
C44	C	-0.537249	0.169310	0.499909
C45	C	-0.906042	-0.328517	-0.000106
C46	C	-0.406042	0.171483	0.499894
C47	C	-0.848245	-0.256039	-0.000103
C48	C	-0.348245	0.243961	0.499897
C49	C	-1.500296	-0.258817	-0.000075
C50	C	-1.000296	0.241183	0.499925
C51	C	-1.511516	-0.345922	-0.000081
C52	C	-1.011516	0.154078	0.499919
N53	N	-1.480364	-0.125110	0.205233
N54	N	-0.980364	0.374890	0.705233
C55	C	-1.586884	0.164706	-0.000062
C56	C	-1.086884	0.664706	0.499938
C57	C	-1.576335	0.246551	-0.000070
C58	C	-1.076335	0.746551	0.499930
C59	C	-1.457534	0.278741	-0.000068
C60	C	-0.957534	0.778741	0.499932
C61	C	-1.349275	0.229083	-0.000068
C62	C	-0.849275	0.729083	0.499932
C63	C	-1.359825	0.147241	-0.000066
C64	C	-0.859825	0.647241	0.499934
C65	C	-1.413808	0.522577	-0.000079
C66	C	-0.913808	1.022577	0.499921
C67	C	-1.403265	0.604426	-0.000078
C68	C	-0.903265	1.104426	0.499922
C69	C	-1.630327	0.621888	-0.000081
C70	C	-1.130327	1.121888	0.499919
C71	C	-1.640866	0.540043	-0.000074
C72	C	-1.140866	1.040043	0.499926
C73	C	-1.532607	0.490392	-0.000078
C74	C	-1.032607	0.990392	0.499922
N75	N	-1.446748	0.362399	-0.000073
N76	N	-0.946748	0.862399	0.499927
N77	N	-1.543394	0.406736	-0.000079
N78	N	-1.043394	0.906736	0.499921
N79	N	-1.509794	-0.105752	-0.205365
N80	N	-1.009794	0.394248	0.294635
C81	C	-1.557215	-0.074404	0.250627
C82	C	-1.057215	0.425596	0.750627
C83	C	-1.550728	-0.078688	0.341435
C84	C	-1.050728	0.421312	0.841435
C85	C	-1.467395	-0.133682	0.386847
C86	C	-0.967395	0.366318	0.886847
C87	C	-1.390536	-0.184391	0.341447
C88	C	-0.890536	0.315609	0.841447
C89	C	-1.397017	-0.180102	0.250640
C90	C	-0.897017	0.319898	0.750640
C91	C	-1.439416	-0.152172	0.658428
C92	C	-0.939416	0.347828	1.158428
C93	C	-1.432943	-0.156458	0.749241
C94	C	-0.932943	0.343542	1.249241
C95	C	-1.593134	-0.050754	0.749223
C96	C	-1.093134	0.449246	1.249223
C97	C	-1.599613	-0.046473	0.658415
C98	C	-1.099613	0.453527	1.158415
C99	C	-1.522749	-0.097179	0.613023
C100	C	-1.022749	0.402821	1.113023
N101	N	-1.460765	-0.138064	0.479667
N102	N	-0.960765	0.361936	0.979667
N103	N	-1.529374	-0.092792	0.520204
N104	N	-1.029374	0.407208	1.020204
H105	H	-1.217494	-0.262161	-0.000065
H106	H	-0.717494	0.237839	0.499935
H107	H	-1.683624	0.138504	-0.000058
H108	H	-1.183624	0.638504	0.499942
Br109	Br	-1.723254	0.313933	-0.000074
Br110	Br	-1.223254	0.813933	0.499926
H111	H	-1.718464	0.662322	-0.000080
H112	H	-1.218464	1.162322	0.499920
H113	H	-1.625078	-0.029624	0.213658
H114	H	-1.125078	0.470376	0.713658
Br115	Br	-1.242024	0.648112	-0.000066
Br116	Br	-0.742024	1.148112	0.499934
H117	H	-1.252545	0.255299	-0.000072
H118	H	-0.752545	0.755299	0.499928
H119	H	-1.325655	0.482161	-0.000082
H120	H	-0.825655	0.982161	0.499918
Br121	Br	-1.115684	-0.429048	-0.000082
Br122	Br	-0.615684	0.070952	0.499918
Br123	Br	-1.168127	0.050279	-0.000019
Br124	Br	-0.668127	0.550279	0.499981
Br125	Br	-1.655022	-0.009869	0.403044
Br126	Br	-1.155022	0.490131	0.903044
H127	H	-0.846274	-0.385764	-0.000112
H128	H	-0.346274	0.114236	0.499888
Br129	Br	-0.670174	-0.253094	-0.000107
Br130	Br	-0.170174	0.246906	0.499893
Br131	Br	-1.319844	-0.231104	0.810866
Br132	Br	-0.819844	0.268896	1.310866
Br133	Br	-1.712713	0.028160	0.596783
Br134	Br	-1.212713	0.528160	1.096783
H135	H	-1.334436	-0.221392	0.213681
H136	H	-0.834436	0.278608	0.713681
H137	H	-0.890219	0.016053	-0.000080
H138	H	-0.390219	0.516053	0.499920
H139	H	-1.271675	0.106814	-0.000064
H140	H	-0.771675	0.606814	0.499936
H141	H	-1.655711	-0.009471	0.786190
H142	H	-1.155711	0.490529	1.286190
H143	H	-1.376833	-0.193460	0.621477
H144	H	-0.876833	0.306540	1.121477
H145	H	-1.322678	-0.229166	0.378426
H146	H	-0.822678	0.270834	0.878426
H147	H	-1.737606	0.513840	-0.000076
H148	H	-1.237606	1.013840	0.499924
