data_functionalizedCrystal
_audit_creation_method	'MofGen! by Chris Wilmer'
_symmetry_space_group_name_H-M	'P1'
_symmetry_Int_Tables_number	1
_symmetry_cell_setting	triclinic
loop_
_symmetry_equiv_pos_as_xyz
  x,y,z
_cell_length_a	23.532407
_cell_length_b	22.610064
_cell_length_c	23.532409
_cell_angle_alpha	90.007112
_cell_angle_beta	82.849157
_cell_angle_gamma	89.995143
loop_
_atom_site_label
_atom_site_type_symbol
_atom_site_fract_x
_atom_site_fract_y
_atom_site_fract_z
O1	O	-0.755264	0.049135	-0.069127
O2	O	-0.255264	0.549135	0.430873
O3	O	-0.589401	0.049145	-0.079131
O4	O	-0.089401	0.549145	0.420869
O5	O	-0.677333	0.049140	0.008803
O6	O	-0.177333	0.549140	0.508803
O7	O	-0.667331	0.049140	-0.157061
O8	O	-0.167331	0.549140	0.342939
O9	O	-0.677318	-0.049229	0.008790
O10	O	-0.177318	0.450771	0.508790
O11	O	-0.589385	-0.049224	-0.079143
O12	O	-0.089385	0.450776	0.420857
O13	O	-0.755248	-0.049234	-0.069140
O14	O	-0.255248	0.450766	0.430860
Zn15	Zn	-0.672314	-0.064847	-0.074144
Zn16	Zn	-0.172314	0.435153	0.425856
Zn17	Zn	-0.672335	0.064758	-0.074127
Zn18	Zn	-0.172335	0.564758	0.425873
O19	O	-0.667316	-0.049230	-0.157073
O20	O	-0.167316	0.450770	0.342927
C21	C	-0.568177	-0.000038	-0.078882
C22	C	-0.068177	0.499962	0.421118
C23	C	-0.504960	-0.000033	-0.078116
C24	C	-0.004960	0.499967	0.421884
N25	N	-0.672305	-0.153300	-0.074155
N26	N	-0.172305	0.346700	0.425845
C27	C	-0.238792	-0.000046	-0.022921
C28	C	0.261208	0.499954	0.477079
C29	C	-0.298192	-0.000047	-0.023632
C30	C	0.201808	0.499953	0.476368
O31	O	-0.334936	-0.000067	0.020153
O32	O	0.165064	0.499933	0.520153
N33	N	-0.320819	-0.000043	-0.075909
N34	N	0.179181	0.499957	0.424091
C35	C	-0.284042	-0.000045	-0.127477
C36	C	0.215958	0.499955	0.372523
O37	O	-0.308742	-0.000043	-0.172007
O38	O	0.191258	0.499957	0.327993
C39	C	-0.224643	-0.000049	-0.126765
C40	C	0.275357	0.499951	0.373235
C41	C	-0.202020	-0.000046	-0.074485
C42	C	0.297980	0.499954	0.425515
C43	C	-0.216168	-0.000044	0.029354
C44	C	0.283832	0.499956	0.529354
C45	C	-0.156772	-0.000043	0.030066
C46	C	0.343228	0.499957	0.530066
C47	C	-0.120000	-0.000043	-0.021499
C48	C	0.380000	0.499957	0.478501
C49	C	-0.142623	-0.000045	-0.073774
C50	C	0.357377	0.499955	0.426226
C51	C	-0.187867	-0.000055	-0.178332
C52	C	0.312133	0.499945	0.321668
C53	C	-0.128464	-0.000059	-0.177616
C54	C	0.371536	0.499941	0.322384
C55	C	-0.105841	-0.000057	-0.125336
C56	C	0.394159	0.499943	0.374664
C57	C	-0.046455	-0.000043	-0.124627
C58	C	0.453545	0.499957	0.375373
N59	N	-0.023828	-0.000047	-0.072351
N60	N	0.476172	0.499953	0.427649
C61	C	-0.060601	-0.000047	-0.020787
C62	C	0.439399	0.499953	0.479213
C63	C	-0.408784	-0.000039	-0.128968
C64	C	0.091216	0.499961	0.371032
C65	C	-0.468182	-0.000031	-0.129681
C66	C	0.031818	0.499969	0.370319
C67	C	-0.482329	-0.000033	-0.025836
C68	C	0.017671	0.499967	0.474164
C69	C	-0.422930	-0.000037	-0.025124
C70	C	0.077070	0.499963	0.474876
C71	C	-0.386158	-0.000042	-0.076692
C72	C	0.113842	0.499958	0.423308
C73	C	0.064136	-0.000043	-0.019297
C74	C	0.564136	0.499957	0.480703
C75	C	0.123538	-0.000038	-0.018590
C76	C	0.623538	0.499962	0.481410
C77	C	0.137680	-0.000039	-0.122435
C78	C	0.637680	0.499961	0.377565
C79	C	0.078283	-0.000040	-0.123142
C80	C	0.578283	0.499960	0.376858
C81	C	0.041512	-0.000044	-0.071568
C82	C	0.541512	0.499956	0.428432
O83	O	-0.009676	-0.000025	-0.168390
O84	O	0.490324	0.499975	0.331610
O85	O	-0.035892	-0.000057	0.023736
O86	O	0.464108	0.499943	0.523736
C87	C	-0.711273	-0.561943	-0.035196
C88	C	-0.211273	-0.061943	0.464804
C89	C	-0.711276	-0.623863	-0.035192
C90	C	-0.211276	-0.123863	0.464808
O91	O	-0.744384	-0.655884	-0.002076
O92	O	-0.244384	-0.155884	0.497924
N93	N	-0.672334	-0.654837	-0.074115
N94	N	-0.172334	-0.154837	0.425885
C95	C	-0.633383	-0.623887	-0.113041
C96	C	-0.133383	-0.123887	0.386959
O97	O	-0.600261	-0.655919	-0.146148
O98	O	-0.100261	-0.155919	0.353852
C99	C	-0.633378	-0.561969	-0.113042
C100	C	-0.133378	-0.061969	0.386958
C101	C	-0.672326	-0.530998	-0.074120
C102	C	-0.172326	-0.030998	0.425880
C103	C	-0.750217	-0.530973	0.003723
C104	C	-0.250217	-0.030973	0.503723
C105	C	-0.750215	-0.469057	0.003718
C106	C	-0.250215	0.030943	0.503718
C107	C	-0.711268	-0.438112	-0.035206
C108	C	-0.211268	0.061888	0.464794
C109	C	-0.672324	-0.469083	-0.074125
C110	C	-0.172324	0.030917	0.425875
C111	C	-0.594425	-0.531020	-0.151965
C112	C	-0.094425	-0.031020	0.348035
C113	C	-0.594423	-0.469097	-0.151962
C114	C	-0.094423	0.030903	0.348038
C115	C	-0.633371	-0.438127	-0.113040
C116	C	-0.133371	0.061873	0.386960
C117	C	-0.633375	-0.376222	-0.113054
C118	C	-0.133375	0.123778	0.386946
N119	N	-0.672316	-0.345248	-0.074131
N120	N	-0.172316	0.154752	0.425869
C121	C	-0.711263	-0.376193	-0.035207
C122	C	-0.211263	0.123807	0.464793
C123	C	-0.633397	-0.753921	-0.113036
C124	C	-0.133397	-0.253921	0.386964
C125	C	-0.633404	-0.815839	-0.113038
C126	C	-0.133404	-0.315839	0.386962
C127	C	-0.711296	-0.815810	-0.035188
C128	C	-0.211296	-0.315810	0.464812
C129	C	-0.711291	-0.753892	-0.035189
C130	C	-0.211291	-0.253892	0.464811
C131	C	-0.672338	-0.722947	-0.074112
C132	C	-0.172338	-0.222947	0.425888
C133	C	-0.711256	-0.246166	-0.035221
C134	C	-0.211256	0.253834	0.464779
C135	C	-0.711251	-0.184245	-0.035231
C136	C	-0.211251	0.315755	0.464769
C137	C	-0.633358	-0.184279	-0.113079
C138	C	-0.133358	0.315721	0.386921
C139	C	-0.633364	-0.246194	-0.113071
C140	C	-0.133364	0.253806	0.386929
C141	C	-0.672315	-0.277137	-0.074137
C142	C	-0.172315	0.222863	0.425863
O143	O	-0.600282	-0.344162	-0.146152
O144	O	-0.100282	0.155838	0.353848
O145	O	-0.744376	-0.344155	-0.002101
O146	O	-0.244376	0.155845	0.497899
C147	C	0.223528	-0.000047	-0.069389
C148	C	0.723528	0.499953	0.430611
C149	C	0.160311	-0.000039	-0.070154
C150	C	0.660311	0.499961	0.429846
C151	C	-0.677071	-0.000043	0.030012
C152	C	-0.177071	0.499957	0.530012
C153	C	-0.676304	-0.000038	0.093229
C154	C	-0.176304	0.499962	0.593229
N155	N	-0.672349	0.153211	-0.074111
N156	N	-0.172349	0.653211	0.425889
C157	C	-0.667578	-0.000045	-0.178283
C158	C	-0.167578	0.499955	0.321717
C159	C	-0.668345	-0.000046	-0.241500
C160	C	-0.168345	0.499954	0.258500
C161	C	-0.673054	0.053586	0.366481
C162	C	-0.173054	0.553586	0.866481
C163	C	-0.673765	0.053586	0.307081
C164	C	-0.173765	0.553586	0.807081
O165	O	-0.674161	0.099187	0.276362
O166	O	-0.174161	0.599187	0.776362
N167	N	-0.674109	-0.000036	0.277372
N168	N	-0.174109	0.499964	0.777372
C169	C	-0.673747	-0.053662	0.307067
C170	C	-0.173747	0.446338	0.807067
O171	O	-0.674105	-0.099271	0.276343
O172	O	-0.174105	0.400729	0.776343
C173	C	-0.673040	-0.053661	0.366466
C174	C	-0.173040	0.446339	0.866466
C175	C	-0.672690	-0.000036	0.396172
C176	C	-0.172690	0.499964	0.896172
C177	C	-0.672705	0.107207	0.396187
C178	C	-0.172705	0.607207	0.896187
C179	C	-0.671992	0.107206	0.455583
C180	C	-0.171992	0.607206	0.955583
C181	C	-0.671628	0.053585	0.485273
C182	C	-0.171628	0.553585	0.985273
C183	C	-0.671977	-0.000036	0.455568
C184	C	-0.171977	0.499964	0.955568
C185	C	-0.672682	-0.107286	0.396161
C186	C	-0.172682	0.392714	0.896161
C187	C	-0.671974	-0.107281	0.455565
C188	C	-0.171974	0.392719	0.955565
C189	C	-0.671625	-0.053656	0.485270
C190	C	-0.171625	0.446344	0.985270
C191	C	-0.670901	-0.053658	0.544654
C192	C	-0.170901	0.446342	1.044654
N193	N	-0.670557	-0.000036	0.574363
N194	N	-0.170557	0.499964	1.074363
C195	C	-0.670921	0.053586	0.544673
C196	C	-0.170921	0.553586	1.044673
C197	C	-0.675234	-0.053659	0.182324
C198	C	-0.175234	0.446341	0.682324
C199	C	-0.675937	-0.053660	0.122924
C200	C	-0.175937	0.446340	0.622924
C201	C	-0.675957	0.053588	0.122943
C202	C	-0.175957	0.553588	0.622943
C203	C	-0.675249	0.053588	0.182343
C204	C	-0.175249	0.553588	0.682343
C205	C	-0.674890	-0.000037	0.212033
C206	C	-0.174890	0.499963	0.712033
C207	C	-0.669424	0.053581	0.669409
C208	C	-0.169424	0.553581	1.169409
C209	C	-0.668709	0.053576	0.728809
C210	C	-0.168709	0.553576	1.228809
C211	C	-0.668692	-0.053672	0.728786
C212	C	-0.168692	0.446328	1.228786
C213	C	-0.669404	-0.053667	0.669390
C214	C	-0.169404	0.446333	1.169390
C215	C	-0.669772	-0.000036	0.639703
C216	C	-0.169772	0.499964	1.139703
O217	O	-0.670508	-0.099235	0.575411
O218	O	-0.170508	0.400765	1.075411
O219	O	-0.670570	0.099188	0.575405
O220	O	-0.170570	0.599188	1.075405
H221	H	0.141954	-0.000035	0.023984
H222	H	0.641954	0.499965	0.523984
N223	N	-0.673066	-0.165128	0.364136
N224	N	-0.173066	0.334872	0.864136
H225	H	-0.708670	-0.167519	0.344303
H226	H	-0.208670	0.332481	0.844303
H227	H	-0.638030	-0.167493	0.334709
H228	H	-0.138030	0.332507	0.834709
H229	H	-0.676211	-0.097327	0.098742
H230	H	-0.176211	0.402673	0.598742
N231	N	-0.398537	-0.000043	0.031266
N232	N	0.101463	0.499957	0.531266
H233	H	-0.374209	-0.036512	0.033872
H234	H	0.125791	0.463488	0.533872
H235	H	-0.374237	0.036443	0.033853
H236	H	0.125763	0.536443	0.533853
N237	N	-0.753259	-0.150849	0.006759
N238	N	-0.253259	0.349151	0.506759
H239	H	-0.731639	-0.125158	0.031864
H240	H	-0.231639	0.374842	0.531864
H241	H	-0.778344	-0.125193	-0.014913
H242	H	-0.278344	0.374807	0.485087
N243	N	-0.521996	-0.000033	0.029782
N244	N	-0.021996	0.499967	0.529782
H245	H	-0.563057	-0.000034	0.021393
H246	H	-0.063057	0.499966	0.521393
H247	H	-0.514703	-0.036501	0.052574
H248	H	-0.014703	0.463499	0.552574
N249	N	-0.492580	-0.000018	-0.186068
N250	N	0.007420	0.499982	0.313932
H251	H	-0.460266	-0.000016	-0.218622
H252	H	0.039734	0.499984	0.281378
H253	H	-0.516913	-0.036483	-0.188636
H254	H	-0.016913	0.463517	0.311364
H255	H	-0.743005	-0.728679	-0.003495
H256	H	-0.243005	-0.228679	0.496505
H257	H	-0.742972	-0.271352	-0.003517
H258	H	-0.242972	0.228648	0.496483
H259	H	-0.669724	0.097252	0.645244
H260	H	-0.169724	0.597252	1.145244
H261	H	0.034204	-0.000045	0.022699
H262	H	0.534204	0.499955	0.522699
N263	N	-0.674836	-0.111500	0.214344
N264	N	-0.174836	0.388500	0.714344
H265	H	-0.709851	-0.113899	0.243797
H266	H	-0.209851	0.386101	0.743797
H267	H	-0.675139	-0.145432	0.186468
H268	H	-0.175139	0.354568	0.686468
N269	N	-0.671590	-0.165121	0.487588
N270	N	-0.171590	0.334879	0.987588
H271	H	-0.671920	-0.199088	0.459753
H272	H	-0.171920	0.300912	0.959753
H273	H	-0.635986	-0.167459	0.507422
H274	H	-0.135986	0.332541	1.007422
H275	H	-0.206275	-0.000055	-0.220904
H276	H	0.293725	0.499945	0.279096
N277	N	0.053882	-0.000038	-0.179529
N278	N	0.553882	0.499962	0.320471
H279	H	0.029559	-0.036506	-0.182144
H280	H	0.529559	0.463494	0.317856
H281	H	0.029574	0.036449	-0.182101
H282	H	0.529574	0.536449	0.317899
N283	N	-0.591399	-0.849239	-0.155021
N284	N	-0.091399	-0.349239	0.344979
H285	H	-0.566728	-0.820234	-0.179676
H286	H	-0.066728	-0.320234	0.320324
H287	H	-0.566348	-0.874926	-0.133341
H288	H	-0.066348	-0.374926	0.366659
N289	N	-0.591383	-0.720548	-0.155022
N290	N	-0.091383	-0.220548	0.344978
H291	H	-0.566717	-0.749569	-0.179676
H292	H	-0.066717	-0.249569	0.320324
H293	H	-0.613036	-0.694857	-0.180093
H294	H	-0.113036	-0.194857	0.319907
H295	H	-0.562710	-0.556228	-0.183658
H296	H	-0.062710	-0.056228	0.316342
H297	H	-0.601654	-0.271411	-0.144770
H298	H	-0.101654	0.228589	0.355230
N299	N	-0.792219	-0.435660	0.045705
N300	N	-0.292219	0.064340	0.545705
H301	H	-0.786313	-0.391737	0.039803
H302	H	-0.286313	0.108263	0.539803
H303	H	-0.832581	-0.446482	0.039330
H304	H	-0.332581	0.053518	0.539330
H305	H	-0.138358	-0.000043	0.072637
H306	H	0.361642	0.499957	0.572637
H307	H	-0.671712	0.150874	0.479764
H308	H	-0.171712	0.650874	0.979764
H309	H	-0.378847	-0.000038	-0.170964
H310	H	0.121153	0.499962	0.329036
N311	N	-0.255825	-0.000048	0.084975
N312	N	0.244175	0.499952	0.584975
H313	H	-0.232470	-0.000049	0.118194
H314	H	0.267530	0.499951	0.618194
H315	H	-0.280780	0.036420	0.086951
H316	H	0.219220	0.536420	0.586951
N317	N	-0.753307	-0.849191	0.006796
N318	N	-0.253307	-0.349191	0.506796
H319	H	-0.731691	-0.874881	0.031904
H320	H	-0.231691	-0.374881	0.531904
H321	H	-0.777968	-0.820138	0.031413
H322	H	-0.277968	-0.320138	0.531413
H323	H	-0.098526	-0.000066	-0.219610
H324	H	0.401474	0.499934	0.280390
H325	H	-0.562701	-0.443906	-0.183658
H326	H	-0.062701	0.056094	0.316342
N327	N	0.177347	-0.000037	-0.178048
N328	N	0.677347	0.499963	0.321952
H329	H	0.218407	-0.000038	-0.169660
H330	H	0.718407	0.499962	0.330340
H331	H	0.170059	-0.036505	-0.200849
H332	H	0.670059	0.463495	0.299151
N333	N	-0.673099	0.165046	0.364169
N334	N	-0.173099	0.665046	0.864169
H335	H	-0.672771	0.199009	0.392009
H336	H	-0.172771	0.699009	0.892009
H337	H	-0.638082	0.167387	0.334717
H338	H	-0.138082	0.667387	0.834717
H339	H	-0.781933	-0.556163	0.035422
H340	H	-0.281933	-0.056163	0.535422
H341	H	-0.601649	-0.159074	-0.144772
H342	H	-0.101649	0.340926	0.355228
N343	N	-0.668363	0.111417	0.760853
N344	N	-0.168363	0.611417	1.260853
H345	H	-0.668715	0.145384	0.733029
H346	H	-0.168715	0.645384	1.233029
H347	H	-0.703388	0.113727	0.790298
H348	H	-0.203388	0.613727	1.290298
H349	H	-0.674963	0.097255	0.206525
H350	H	-0.174963	0.597255	0.706525
H351	H	-0.676251	0.097249	0.098758
H352	H	-0.176251	0.597249	0.598758
N353	N	-0.669770	-0.111503	0.637345
N354	N	-0.169770	0.388497	1.137345
H355	H	-0.669428	-0.145472	0.665169
H356	H	-0.169428	0.354528	1.165169
H357	H	-0.705376	-0.113844	0.617514
H358	H	-0.205376	0.386156	1.117514
N359	N	-0.668309	-0.111504	0.760817
N360	N	-0.168309	0.388496	1.260817
H361	H	-0.667811	-0.103362	0.802953
H362	H	-0.167811	0.396638	1.302953
H363	H	-0.703745	-0.134912	0.755239
H364	H	-0.203745	0.365088	1.255239
