data_functionalizedCrystal
_audit_creation_method	'MofGen! by Chris Wilmer'
_symmetry_space_group_name_H-M	'P1'
_symmetry_Int_Tables_number	1
_symmetry_cell_setting	triclinic
loop_
_symmetry_equiv_pos_as_xyz
  x,y,z
_cell_length_a	15.538191
_cell_length_b	10.868271
_cell_length_c	15.625429
_cell_angle_alpha	108.082285
_cell_angle_beta	66.736792
_cell_angle_gamma	90.005983
loop_
_atom_site_label
_atom_site_type_symbol
_atom_site_fract_x
_atom_site_fract_y
_atom_site_fract_z
O1	O	1.249532	-0.028235	-0.292680
O2	O	0.975408	0.018184	-0.188629
O3	O	1.119794	-0.064650	-0.374288
O4	O	1.105146	0.054599	-0.107021
O5	O	1.119782	-0.269295	-0.374290
O6	O	0.975396	-0.186461	-0.188630
O7	O	1.249520	-0.232880	-0.292682
Zn8	Zn	1.112456	-0.242162	-0.240656
Zn9	Zn	1.112472	0.027467	-0.240654
O10	O	1.105134	-0.150046	-0.107022
C11	C	0.940321	-0.079282	-0.177743
C12	C	0.835789	-0.064816	-0.145315
N13	N	1.112453	-0.426178	-0.240660
C14	C	0.547581	-0.208536	-0.467474
C15	C	0.449354	-0.194930	-0.436981
C16	C	0.427134	-0.118403	-0.265463
C17	C	0.525360	-0.132009	-0.295942
C18	C	0.585576	-0.177075	-0.396948
C19	C	0.563356	-0.100547	-0.225417
C20	C	0.661574	-0.114146	-0.255893
C21	C	0.721796	-0.159206	-0.356896
C22	C	0.683794	-0.190673	-0.427425
C23	C	0.503138	-0.055473	-0.124410
C24	C	0.541134	-0.024011	-0.053885
C25	C	0.639353	-0.037618	-0.084362
C26	C	0.699576	-0.082679	-0.185364
C27	C	0.677355	-0.006151	-0.013832
C28	C	0.775573	-0.019750	-0.044309
C29	C	0.797793	-0.096277	-0.215841
C30	C	1.112467	-0.677182	-0.240655
C31	C	1.112456	-0.537504	-0.240654
C32	C	1.284608	-0.135411	-0.303568
C33	C	1.389139	-0.149869	-0.335995
C34	C	1.119125	-0.181859	-0.407660
C35	C	1.117137	-0.226215	-0.507090
N36	N	1.112483	0.211478	-0.240660
C37	C	1.110607	0.185623	-0.834091
C38	C	1.108735	0.143907	-0.927519
C39	C	1.108723	-0.079183	-0.927507
C40	C	1.110599	-0.037486	-0.834080
C41	C	1.111540	0.094919	-0.787379
C42	C	1.111532	-0.128191	-0.787367
C43	C	1.113403	-0.086496	-0.693945
C44	C	1.114341	0.045904	-0.647236
C45	C	1.113411	0.136614	-0.693957
C46	C	1.110584	-0.260594	-0.834066
C47	C	1.111517	-0.351299	-0.787354
C48	C	1.113395	-0.309605	-0.693933
C49	C	1.114333	-0.177205	-0.647224
C50	C	1.114325	-0.400315	-0.647213
C51	C	1.116196	-0.358620	-0.553791
C52	C	1.116204	-0.135510	-0.553803
C53	C	1.105804	-0.032834	-0.073651
C54	C	1.107791	0.011530	0.025779
H55	H	0.846825	-0.132982	-0.298090
H56	H	1.107967	0.217782	-0.965545
C57	C	0.396474	-0.040561	-0.091120
C58	C	0.351872	0.005679	0.012429
C59	C	0.253615	0.019446	0.043131
H60	H	0.378228	-0.122919	-0.115796
H61	H	0.378322	0.019795	-0.115848
H62	H	0.370017	-0.054675	0.037147
H63	H	0.370090	0.088043	0.037131
H64	H	0.235463	0.079802	0.018403
H65	H	0.235379	-0.062916	0.018449
H66	H	0.223340	0.050832	0.113391
C67	C	0.475797	0.025173	0.055789
C68	C	0.492977	0.150248	0.100119
C69	C	0.432800	0.195602	0.201147
H70	H	0.487266	-0.032562	0.086156
H71	H	0.411846	0.028854	0.063881
H72	H	0.556913	0.146559	0.092033
H73	H	0.481502	0.208013	0.069781
H74	H	0.368849	0.199283	0.209240
H75	H	0.444274	0.137858	0.231505
H76	H	0.444443	0.280473	0.231236
H77	H	1.113550	-0.508117	-0.685246
H78	H	1.111382	0.293439	-0.796069
C79	C	0.828417	-0.173719	-0.389852
C80	C	0.854868	-0.052091	-0.353184
C81	C	0.953077	-0.065413	-0.383513
H82	H	0.858950	-0.204993	-0.460090
H83	H	0.846558	-0.233977	-0.365042
H84	H	0.836737	0.008147	-0.377999
H85	H	0.824360	-0.020796	-0.282949
H86	H	0.971218	-0.125671	-0.358703
H87	H	0.983601	-0.096690	-0.453751
H88	H	0.971036	0.017106	-0.358631
H89	H	0.628313	0.030554	0.068408
C90	C	0.817015	0.014388	0.032107
C91	C	0.915919	-0.007138	-0.016204
C92	C	0.954128	0.024314	0.054159
H93	H	0.796454	-0.038997	0.072370
H94	H	0.796416	0.103726	0.072339
H95	H	0.936510	-0.096461	-0.056419
H96	H	0.936506	0.046244	-0.056462
H97	H	0.933528	0.113652	0.094390
H98	H	0.933560	-0.029074	0.094418
H99	H	1.021237	0.009725	0.021390
H100	H	1.107953	-0.186987	-0.965542
H101	H	1.115855	0.079852	-0.571162
C102	C	1.108373	-0.305675	-0.935416
C103	C	1.026814	-0.242312	-0.929676
C104	C	1.024737	-0.283802	-1.023014
H105	H	1.107880	-0.397487	-0.956610
H106	H	1.162781	-0.284964	-0.981430
H107	H	0.972420	-0.263032	-0.883677
H108	H	1.027290	-0.150500	-0.908498
H109	H	1.079145	-0.263091	-1.069029
H110	H	1.024246	-0.375614	-1.044201
H111	H	0.969405	-0.240808	-1.019135
C112	C	1.117052	0.008291	-0.503037
C113	C	1.035654	0.081837	-0.489086
C114	C	1.036402	0.214296	-0.442305
H115	H	1.171557	0.036388	-0.543106
H116	H	1.118252	0.020159	-0.440683
H117	H	1.034463	0.069976	-0.551431
H118	H	0.981136	0.053780	-0.449009
H119	H	1.037603	0.226165	-0.379951
H120	H	1.090911	0.242381	-0.482380
H121	H	0.981171	0.264213	-0.432826
H122	H	1.110747	-0.459103	-0.825389
H123	H	1.116936	-0.432477	-0.515747
H124	H	0.418424	-0.220552	-0.494419
C125	C	0.749025	-0.239561	-0.537138
C126	C	0.694731	-0.264181	-0.592385
C127	C	0.754788	-0.309194	-0.693449
H128	H	0.787821	-0.317858	-0.552727
H129	H	0.787789	-0.175078	-0.552631
H130	H	0.655983	-0.328660	-0.576898
H131	H	0.655937	-0.185903	-0.576826
H132	H	0.793553	-0.244711	-0.708942
H133	H	0.793581	-0.387488	-0.709028
H134	H	0.717959	-0.325893	-0.730947
C135	C	1.114338	0.280343	-0.643064
C136	C	1.034501	0.327168	-0.552771
C137	C	1.035349	0.459546	-0.505856
H138	H	1.113487	0.328581	-0.684130
H139	H	1.169920	0.290135	-0.631407
H140	H	0.978933	0.317387	-0.564433
H141	H	1.035335	0.278967	-0.511682
H142	H	1.090931	0.469338	-0.494198
H143	H	1.034500	0.507772	-0.546929
H144	H	0.981186	0.491331	-0.444583
H145	H	0.378093	-0.081705	-0.183223
H146	H	0.596613	-0.245241	-0.549723
