data_functionalizedCrystal
_audit_creation_method	'MofGen! by Chris Wilmer'
_symmetry_space_group_name_H-M	'P1'
_symmetry_Int_Tables_number	1
_symmetry_cell_setting	triclinic
loop_
_symmetry_equiv_pos_as_xyz
  x,y,z
_cell_length_a	14.519709
_cell_length_b	14.519731
_cell_length_c	12.996460
_cell_angle_alpha	89.992872
_cell_angle_beta	90.000034
_cell_angle_gamma	83.684499
loop_
_atom_site_label
_atom_site_type_symbol
_atom_site_fract_x
_atom_site_fract_y
_atom_site_fract_z
O1	O	1.223878	0.120892	-0.085435
O2	O	1.557211	0.454225	0.247898
O3	O	1.890545	0.787558	0.581231
O4	O	0.955402	0.135128	-0.085467
O5	O	1.288736	0.468461	0.247866
O6	O	1.622069	0.801795	0.581200
O7	O	1.096748	-0.006227	-0.085441
O8	O	1.430081	0.327106	0.247892
O9	O	1.763415	0.660439	0.581226
O10	O	1.082532	0.262247	-0.085461
O11	O	1.415865	0.595580	0.247872
O12	O	1.749199	0.928914	0.581205
O13	O	1.096733	-0.006235	0.085693
O14	O	1.430067	0.327098	0.419026
O15	O	1.763400	0.660432	0.752360
O16	O	0.955387	0.135120	0.085667
O17	O	1.288721	0.468454	0.419000
O18	O	1.622054	0.801787	0.752334
O19	O	1.223863	0.120884	0.085699
O20	O	1.557197	0.454217	0.419032
O21	O	1.890530	0.787551	0.752365
Cu22	Cu	1.089624	0.128001	0.101309
Cu23	Cu	1.422957	0.461335	0.434642
Cu24	Cu	1.756291	0.794668	0.767975
Cu25	Cu	1.089641	0.128011	-0.101077
Cu26	Cu	1.422975	0.461344	0.232256
Cu27	Cu	1.756308	0.794677	0.565590
O28	O	1.082517	0.262239	0.085673
O29	O	1.415851	0.595573	0.419006
O30	O	1.749184	0.928906	0.752339
C31	C	0.921035	0.134461	0.000096
C32	C	1.254368	0.467794	0.333429
C33	C	1.587702	0.801127	0.666763
C34	C	0.818654	0.132473	0.000084
C35	C	1.151987	0.465806	0.333418
C36	C	1.485320	0.799139	0.666751
C37	C	1.096075	-0.040591	0.000126
C38	C	1.429408	0.292743	0.333460
C39	C	1.762741	0.626076	0.666793
C40	C	1.094079	-0.142971	0.000127
C41	C	1.427412	0.190363	0.333460
C42	C	1.760745	0.523696	0.666793
C43	C	0.443757	0.125153	0.000132
C44	C	0.777091	0.458486	0.333465
C45	C	1.110424	0.791820	0.666798
C46	C	0.548065	0.127186	0.000118
C47	C	0.881399	0.460519	0.333451
C48	C	1.214732	0.793852	0.666785
C49	C	0.631202	0.128813	0.000107
C50	C	0.964535	0.462146	0.333440
C51	C	1.297869	0.795479	0.666774
C52	C	0.735517	0.130846	0.000095
C53	C	1.068850	0.464179	0.333429
C54	C	1.402183	0.797512	0.666762
C55	C	1.092457	-0.226115	0.000124
C56	C	1.425790	0.107218	0.333457
C57	C	1.759123	0.440552	0.666791
C58	C	1.090430	-0.330424	0.000116
C59	C	1.423763	0.002910	0.333449
C60	C	1.757097	0.336243	0.666783
C61	C	1.088822	-0.413563	0.000109
C62	C	1.422155	-0.080229	0.333442
C63	C	1.755488	0.253104	0.666776
C64	C	1.086795	-0.517878	0.000103
C65	C	1.420129	-0.184545	0.333436
C66	C	1.753462	0.148789	0.666770
C67	C	1.258230	0.121551	0.000133
C68	C	1.591564	0.454885	0.333467
C69	C	1.924897	0.788218	0.666800
C70	C	1.360612	0.123539	0.000138
C71	C	1.693945	0.456873	0.333472
C72	C	2.027279	0.790206	0.666805
C73	C	1.083191	0.296603	0.000103
C74	C	1.416524	0.629936	0.333437
C75	C	1.749858	0.963269	0.666770
C76	C	1.085187	0.398983	0.000096
C77	C	1.418520	0.732316	0.333429
C78	C	1.751854	1.065649	0.666763
N79	N	1.089618	0.127994	0.243656
N80	N	1.422952	0.461328	0.576989
N81	N	1.756285	0.794661	0.910322
N82	N	1.089654	0.128010	-0.243424
N83	N	1.422988	0.461344	0.089909
N84	N	1.756321	0.794677	0.423243
C85	C	1.089640	0.128012	0.663470
C86	C	1.422973	0.461345	0.996803
C87	C	1.756307	0.794678	1.330137
C88	C	1.089631	0.128010	0.546665
C89	C	1.422965	0.461343	0.879998
C90	C	1.756298	0.794677	1.213332
C91	C	1.089630	0.128004	0.453567
C92	C	1.422963	0.461337	0.786900
C93	C	1.756296	0.794670	1.120233
C94	C	1.089620	0.128001	0.336754
C95	C	1.422953	0.461334	0.670087
C96	C	1.756287	0.794667	1.003421
