data_functionalizedCrystal
_audit_creation_method	'MofGen! by Chris Wilmer'
_symmetry_space_group_name_H-M	'P1'
_symmetry_Int_Tables_number	1
_symmetry_cell_setting	triclinic
loop_
_symmetry_equiv_pos_as_xyz
  x,y,z
_cell_length_a	6.817900
_cell_length_b	11.102288
_cell_length_c	10.992410
_cell_angle_alpha	91.891911
_cell_angle_beta	108.764651
_cell_angle_gamma	108.605689
loop_
_atom_site_label
_atom_site_type_symbol
_atom_site_fract_x
_atom_site_fract_y
_atom_site_fract_z
V1	V	-4.113419	-0.175839	-0.400593
O2	O	-4.072416	0.008450	-0.392967
O3	O	-4.090183	-0.348659	-0.397854
O4	O	-4.091024	-0.173134	-0.575306
O5	O	-4.071569	-0.168290	-0.214287
V6	V	-4.590417	-0.153796	-0.378309
O7	O	-4.388992	-0.224192	-0.449474
O8	O	-4.765042	-0.105443	-0.329428
O9	O	-4.390446	0.019024	-0.381049
O10	O	-4.748817	-0.338085	-0.385935
O11	O	-4.749664	-0.161345	-0.564616
O12	O	-4.389605	-0.156501	-0.203597
C13	C	-3.940465	-0.390789	-0.391534
C14	C	-4.002927	-0.532072	-0.390459
C15	C	-4.216309	-0.604920	-0.396363
C16	C	-4.274993	-0.737672	-0.395363
C17	C	-3.906886	-0.724714	-0.382548
C18	C	-3.848211	-0.591966	-0.383557
C19	C	-3.941535	-0.166888	-0.617890
C20	C	-4.004675	-0.165820	-0.760719
C21	C	-3.871844	-0.156090	-0.955842
C22	C	-3.806286	-0.157727	-0.807359
C23	C	-4.202100	-0.291131	-0.837823
C24	C	-4.266419	-0.290023	-0.986389
C25	C	-4.145329	-0.047376	-0.948357
C26	C	-4.074622	-0.046782	-0.799344
C27	C	-4.203507	0.061147	-0.387365
C28	C	-4.120285	0.202429	-0.388449
C29	C	-4.202436	-0.162751	-0.161006
C30	C	-4.118534	-0.163813	-0.018176
H31	H	-3.658255	-0.067623	-0.754018
Br32	Br	-3.677154	-0.004736	-0.986979
H33	H	-4.250441	-0.378187	-1.032660
H34	H	-3.674445	-0.532651	-0.378753
Br35	Br	-4.564597	-0.836535	-0.403385
H36	H	-3.846512	-0.239751	-1.003834
Br37	Br	-3.696928	-0.806006	-0.373176
Br38	Br	-3.710329	-0.299112	-0.765989
H39	H	-4.448370	-0.300919	-1.029021
H40	H	-4.342292	-0.556159	-0.401981
Br41	Br	-4.452670	-0.308549	-0.789829
H42	H	-4.155922	-0.379511	-0.812218
H43	H	-4.042863	0.047783	-0.968716
Br44	Br	-4.311486	-0.044314	-0.745144
Br45	Br	-3.836582	0.107730	-0.712091
H46	H	-4.324291	-0.051930	-0.989198
