data_functionalizedCrystal
_audit_creation_method	'MofGen! by Chris Wilmer'
_symmetry_space_group_name_H-M	'P1'
_symmetry_Int_Tables_number	1
_symmetry_cell_setting	triclinic
loop_
_symmetry_equiv_pos_as_xyz
  x,y,z
_cell_length_a	17.699083
_cell_length_b	14.971494
_cell_length_c	13.448316
_cell_angle_alpha	89.998062
_cell_angle_beta	90.000955
_cell_angle_gamma	83.450286
loop_
_atom_site_label
_atom_site_type_symbol
_atom_site_fract_x
_atom_site_fract_y
_atom_site_fract_z
O1	O	-1.004358	-0.113108	0.082549
O2	O	-0.784016	-0.127825	0.082581
O3	O	-0.900089	0.009753	0.082562
O4	O	-0.888285	-0.250686	0.082568
O5	O	-0.900078	0.009755	-0.082822
O6	O	-0.784004	-0.127823	-0.082803
O7	O	-1.004346	-0.113107	-0.082835
Cu8	Cu	-0.894174	-0.120465	-0.097920
Cu9	Cu	-0.894188	-0.120467	0.097666
O10	O	-0.888273	-0.250685	-0.082816
C11	C	-0.755812	-0.127297	-0.000107
C12	C	-0.671790	-0.125715	-0.000095
C13	C	-0.899555	0.043077	-0.000129
C14	C	-0.897969	0.142368	-0.000124
C15	C	-1.032550	-0.113635	-0.000145
C16	C	-1.116572	-0.115217	-0.000151
C17	C	-0.623370	-0.206470	-0.000093
C18	C	-0.544423	-0.204978	-0.000106
C19	C	-0.513897	-0.122730	-0.000113
C20	C	-0.562324	-0.041969	-0.000118
C21	C	-0.641269	-0.043461	-0.000112
C22	C	-0.243946	-0.035947	-0.000143
C23	C	-0.164994	-0.034461	-0.000145
C24	C	-0.147099	-0.197464	-0.000136
C25	C	-0.226045	-0.198957	-0.000131
C26	C	-0.274464	-0.118196	-0.000141
C27	C	-0.360067	-0.119814	-0.000128
C28	C	-0.428296	-0.121111	-0.000118
C29	C	-0.888808	-0.284009	-0.000124
C30	C	-0.890393	-0.383300	-0.000122
N31	N	-0.894170	-0.120464	-0.235484
C32	C	-0.897232	0.189009	0.090028
C33	C	-0.895738	0.282303	0.090030
C34	C	-0.894985	0.328955	-0.000122
C35	C	-0.895720	0.282306	-0.090281
C36	C	-0.897209	0.189013	-0.090281
C37	C	-0.892618	0.476759	-0.090274
C38	C	-0.891130	0.570059	-0.090274
C39	C	-0.891146	0.570049	0.090037
C40	C	-0.892636	0.476756	0.090037
C41	C	-0.893372	0.430114	-0.000123
C42	C	-0.940120	-0.174647	-0.287526
C43	C	-0.940130	-0.174643	-0.391629
C44	C	-0.894184	-0.120460	-0.443689
C45	C	-0.848232	-0.066271	-0.391640
C46	C	-0.848228	-0.066271	-0.287538
C47	C	-0.848244	-0.066277	-0.608620
C48	C	-0.848248	-0.066278	-0.712728
C49	C	-0.940147	-0.174649	-0.712711
C50	C	-0.940142	-0.174649	-0.608609
C51	C	-0.894188	-0.120461	-0.556567
N52	N	-0.894198	-0.120461	0.235230
H53	H	-0.505002	-0.270738	-0.000103
H54	H	-0.897798	0.151037	-0.163692
H55	H	-0.810825	-0.022150	-0.566251
O56	O	-0.094875	-0.284576	-0.000135
H57	H	-0.105749	-0.323947	-0.067534
H58	H	-0.977530	-0.218774	-0.245147
O59	O	-0.989689	-0.233095	-0.552455
H60	H	-1.050165	-0.213545	-0.572420
H61	H	-0.680693	0.022298	-0.000113
H62	H	-0.893201	0.438784	-0.163691
H63	H	-0.977560	-0.218775	-0.755088
H64	H	-0.537464	0.024999	-0.000138
H65	H	-0.810834	-0.022159	-0.755113
O66	O	-0.890329	0.620389	-0.187502
H67	H	-0.838112	0.654827	-0.191796
O68	O	-0.296160	0.051159	-0.000146
H69	H	-0.356185	0.036311	-0.000152
H70	H	-0.810827	-0.022150	-0.434035
O71	O	-0.798663	-0.007836	-0.231400
H72	H	-0.766709	0.029834	-0.285087
H73	H	-0.648217	-0.273446	-0.000086
O74	O	-0.890345	0.620345	0.187285
H75	H	-0.889172	0.693054	0.172144
H76	H	-0.895141	0.320275	0.163440
H77	H	-0.250894	-0.265932	-0.000120
H78	H	-0.140144	0.032519	-0.000153
H79	H	-0.897849	0.151033	0.163440
H80	H	-0.893254	0.438776	0.163446
O81	O	-0.989687	-0.233085	-0.447764
H82	H	-1.021627	-0.270771	-0.394075
O83	O	-0.894922	0.332628	-0.187514
H84	H	-0.842705	0.367064	-0.191821
