data_functionalizedCrystal
_audit_creation_method	'MofGen! by Chris Wilmer'
_symmetry_space_group_name_H-M	'P1'
_symmetry_Int_Tables_number	1
_symmetry_cell_setting	triclinic
loop_
_symmetry_equiv_pos_as_xyz
  x,y,z
_cell_length_a	15.944480
_cell_length_b	26.809956
_cell_length_c	15.944493
_cell_angle_alpha	89.989783
_cell_angle_beta	96.527554
_cell_angle_gamma	89.992092
loop_
_atom_site_label
_atom_site_type_symbol
_atom_site_fract_x
_atom_site_fract_y
_atom_site_fract_z
O1	O	-1.114545	0.041462	0.108040
O2	O	-0.614545	0.541462	0.608040
O3	O	-0.869985	0.041465	0.121459
O4	O	-0.369985	0.541465	0.621459
O5	O	-0.998969	0.041468	-0.007530
O6	O	-0.498969	0.541468	0.492470
O7	O	-0.985561	0.041459	0.237030
O8	O	-0.485561	0.541459	0.737030
O9	O	-0.998944	-0.041492	-0.007511
O10	O	-0.498944	0.458508	0.492489
O11	O	-0.869960	-0.041494	0.121479
O12	O	-0.369960	0.458506	0.621479
O13	O	-1.114521	-0.041497	0.108060
O14	O	-0.614521	0.458503	0.608060
Zn15	Zn	-0.992237	-0.054667	0.114772
Zn16	Zn	-0.492237	0.445333	0.614772
Zn17	Zn	-0.992269	0.054635	0.114747
Zn18	Zn	-0.492269	0.554635	0.614747
O19	O	-0.985537	-0.041500	0.237049
O20	O	-0.485537	0.458500	0.737049
C21	C	-0.838678	-0.000014	0.120922
C22	C	-0.338678	0.499986	0.620922
C23	C	-0.745429	-0.000013	0.119284
C24	C	-0.245429	0.499987	0.619284
N25	N	-0.992221	-0.129263	0.114790
N26	N	-0.492221	0.370737	0.614790
C27	C	-0.509652	-0.000014	0.195217
C28	C	-0.009652	0.499986	0.695217
C29	C	-0.459090	-0.040918	0.154287
C30	C	0.040910	0.459082	0.654287
C31	C	-0.574707	-0.000013	0.116247
C32	C	-0.074707	0.499987	0.616247
C33	C	-0.459118	0.040873	0.154249
C34	C	0.040882	0.540873	0.654249
C35	C	-0.409797	-0.000011	0.113320
C36	C	0.090203	0.499989	0.613320
C37	C	-0.525374	-0.040951	0.075339
C38	C	-0.025374	0.459049	0.575339
C39	C	-0.525405	0.040877	0.075312
C40	C	-0.025405	0.540877	0.575312
C41	C	-0.474876	-0.000037	0.034324
C42	C	0.025124	0.499963	0.534324
C43	C	-0.669708	-0.000015	0.117936
C44	C	-0.169708	0.499985	0.617936
C45	C	-0.314800	-0.000013	0.111625
C46	C	0.185200	0.499987	0.611625
C47	C	-1.049376	-0.473888	0.057644
C48	C	-0.549376	0.026112	0.557644
C49	C	-1.049396	-0.682766	0.057631
C50	C	-0.549396	-0.182766	0.557631
O51	O	-1.097956	-0.709768	0.009049
O52	O	-0.597956	-0.209768	0.509049
N53	N	-0.992273	-0.708890	0.114728
N54	N	-0.492273	-0.208890	0.614728
C55	C	-0.935138	-0.682792	0.171828
C56	C	-0.435138	-0.182792	0.671828
O57	O	-0.886547	-0.709806	0.220386
O58	O	-0.386547	-0.209806	0.720386
C59	C	-0.935115	-0.473916	0.171836
C60	C	-0.435115	0.026084	0.671836
C61	C	-0.992247	-0.447794	0.114742
C62	C	-0.492247	0.052206	0.614742
C63	C	-1.106502	-0.447766	0.000554
C64	C	-0.606502	0.052234	0.500554
C65	C	-1.106500	-0.395550	0.000561
C66	C	-0.606500	0.104450	0.500561
C67	C	-1.049371	-0.369455	0.057658
C68	C	-0.549371	0.130545	0.557658
C69	C	-0.992244	-0.395577	0.114749
C70	C	-0.492244	0.104423	0.614749
C71	C	-0.877977	-0.447818	0.228932
C72	C	-0.377977	0.052182	0.728932
C73	C	-0.877975	-0.395596	0.228927
C74	C	-0.377975	0.104404	0.728927
C75	C	-0.935106	-0.369474	0.171833
C76	C	-0.435106	0.130526	0.671833
C77	C	-0.935113	-0.317267	0.171853
C78	C	-0.435113	0.182733	0.671853
N79	N	-0.992235	-0.291142	0.114756
N80	N	-0.492235	0.208858	0.614756
C81	C	-1.049364	-0.317236	0.057659
C82	C	-0.549364	0.182764	0.557659
C83	C	-0.935156	-0.792456	0.171821
C84	C	-0.435156	-0.292456	0.671821
C85	C	-0.935162	-0.844675	0.171820
C86	C	-0.435162	-0.344675	0.671820
C87	C	-1.049419	-0.844644	0.057622
C88	C	-0.549419	-0.344644	0.557622
C89	C	-1.049415	-0.792424	0.057628
C90	C	-0.549415	-0.292424	0.557628
C91	C	-0.992278	-0.766331	0.114724
C92	C	-0.492278	-0.266331	0.614724
C93	C	-1.049355	-0.207578	0.057678
C94	C	-0.549355	0.292422	0.557678
C95	C	-1.049350	-0.155358	0.057692
C96	C	-0.549350	0.344642	0.557692
C97	C	-0.935091	-0.155392	0.171887
C98	C	-0.435091	0.344608	0.671887
C99	C	-0.935099	-0.207609	0.171876
C100	C	-0.435099	0.292391	0.671876
C101	C	-0.992234	-0.233700	0.114764
C102	C	-0.492234	0.266300	0.614764
O103	O	-0.886571	-0.290232	0.220403
O104	O	-0.386571	0.209768	0.720403
O105	O	-1.097936	-0.290214	0.009096
O106	O	-0.597936	0.209786	0.509096
C107	C	-1.049378	-0.526104	0.057637
C108	C	-0.549378	-0.026104	0.557637
C109	C	-0.992252	-0.552226	0.114728
C110	C	-0.492252	-0.052226	0.614728
C111	C	-0.935123	-0.526132	0.171825
C112	C	-0.435123	-0.026132	0.671825
C113	C	-0.992258	-0.604445	0.114727
C114	C	-0.492258	-0.104445	0.614727
C115	C	-1.049387	-0.630540	0.057630
C116	C	-0.549387	-0.130540	0.557630
C117	C	-1.106509	-0.604415	0.000533
C118	C	-0.606509	-0.104415	0.500533
C119	C	-1.106507	-0.552199	0.000540
C120	C	-0.606507	-0.052199	0.500540
C121	C	-0.878001	-0.552256	0.228922
C122	C	-0.378001	-0.052256	0.728922
C123	C	-0.878009	-0.604473	0.228911
C124	C	-0.378009	-0.104473	0.728911
C125	C	-0.935137	-0.630567	0.171814
C126	C	-0.435137	-0.130567	0.671814
C127	C	-0.145826	-0.000016	0.108608
C128	C	0.354174	0.499984	0.608608
C129	C	-0.239071	-0.000011	0.110281
C130	C	0.260929	0.499989	0.610281
C131	C	-0.998409	-0.000010	-0.038815
C132	C	-0.498409	0.499990	0.461185
C133	C	-0.996766	-0.000003	-0.132063
C134	C	-0.496766	0.499997	0.367937
N135	N	-0.992291	0.129231	0.114723
N136	N	-0.492291	0.629231	0.614723
C137	C	-1.072689	-0.000014	-0.367842
C138	C	-0.572689	0.499986	0.132158
C139	C	-1.031758	0.040890	-0.418410
C140	C	-0.531758	0.540890	0.081590
C141	C	-0.993722	-0.000010	-0.302783
C142	C	-0.493722	0.499990	0.197217
C143	C	-1.031716	-0.040902	-0.418366
C144	C	-0.531716	0.459098	0.081634
C145	C	-0.990787	-0.000018	-0.467692
C146	C	-0.490787	0.499982	0.032308
C147	C	-0.952812	0.040928	-0.352123
C148	C	-0.452812	0.540928	0.147877
C149	C	-0.952782	-0.040900	-0.352076
C150	C	-0.452782	0.459100	0.147924
C151	C	-0.911793	0.000013	-0.402610
C152	C	-0.411793	0.500013	0.097390
C153	C	-0.995414	-0.000004	-0.207784
C154	C	-0.495414	0.499996	0.292216
C155	C	-0.989088	-0.000019	-0.562689
C156	C	-0.489088	0.499981	-0.062689
C157	C	-0.986097	-0.000021	0.268334
C158	C	-0.486097	0.499979	0.768334
C159	C	-0.987740	-0.000024	0.361582
C160	C	-0.487740	0.499976	0.861582
H161	H	-0.430135	-0.075501	0.187645
H162	H	0.069865	0.424499	0.687645
H163	H	-0.554198	-0.075566	0.042017
H164	H	-0.054198	0.424434	0.542017
H165	H	-0.459424	-0.000058	-0.033748
H166	H	0.040576	0.499942	0.466252
H167	H	-0.525261	-0.000055	0.263238
H168	H	-0.025261	0.499945	0.763238
H169	H	-0.554369	0.075462	0.041979
H170	H	-0.054369	0.575462	0.541979
H171	H	-0.430183	0.075450	0.187607
H172	H	0.069817	0.575450	0.687607
H173	H	-1.095876	-0.134091	0.011199
H174	H	-0.595876	0.365909	0.511199
H175	H	-1.095879	-0.228817	0.011172
H176	H	-0.595879	0.271183	0.511172
O177	O	-1.168115	-0.524026	-0.061052
O178	O	-0.668115	-0.024026	0.438948
H179	H	-1.233594	-0.534045	-0.050334
H180	H	-0.733594	-0.034045	0.449666
O181	O	-0.821626	0.000034	-0.423082
O182	O	-0.321626	0.500034	0.076918
H183	H	-0.788681	-0.033607	-0.395334
H184	H	-0.288681	0.466393	0.104666
O185	O	-1.075893	-0.086710	-0.456672
O186	O	-0.575893	0.413290	0.043328
H187	H	-1.043724	-0.120625	-0.429065
H188	H	-0.543724	0.379375	0.070935
H189	H	-1.153019	-0.374284	-0.045933
H190	H	-0.653019	0.125716	0.454067
H191	H	-0.831444	-0.374353	0.275422
H192	H	-0.331444	0.125647	0.775422
H193	H	-1.153029	-0.625670	-0.045955
H194	H	-0.653029	-0.125670	0.454045
H195	H	-1.153023	-0.469008	-0.045946
H196	H	-0.653023	0.030992	0.454054
O197	O	-1.111018	-0.764247	-0.003963
O198	O	-0.611018	-0.264247	0.496037
H199	H	-1.176500	-0.774261	0.006753
H200	H	-0.676500	-0.274261	0.506753
O201	O	-1.111033	-0.872793	-0.003970
O202	O	-0.611033	-0.372793	0.496030
H203	H	-1.101428	-0.913491	0.005622
H204	H	-0.601428	-0.413491	0.505622
H205	H	-0.919493	0.075545	-0.323303
H206	H	-0.419493	0.575545	0.176697
H207	H	-0.831487	-0.625738	0.275412
H208	H	-0.331487	-0.125738	0.775412
O209	O	-0.873570	-0.872848	0.233427
O210	O	-0.373570	-0.372848	0.733427
H211	H	-0.833849	-0.845924	0.273130
H212	H	-0.333849	-0.345924	0.773130
H213	H	-0.888626	-0.771214	0.218318
H214	H	-0.388626	-0.271214	0.718318
H215	H	-0.831455	-0.469080	0.275423
H216	H	-0.331455	0.030920	0.775423
O217	O	-0.873483	-0.235788	0.233456
O218	O	-0.373483	0.264212	0.733456
H219	H	-0.833755	-0.208868	0.273157
H220	H	-0.333755	0.291132	0.773157
O221	O	-0.908633	-0.086705	-0.313677
O222	O	-0.408633	0.413295	0.186323
H223	H	-0.941547	-0.120612	-0.340337
H224	H	-0.441547	0.379388	0.159663
H225	H	-0.888580	-0.134138	0.218377
H226	H	-0.388580	0.365862	0.718377
O227	O	-0.816386	-0.524115	0.290514
O228	O	-0.316386	-0.024115	0.790514
H229	H	-0.776676	-0.551058	0.330216
H230	H	-0.276676	-0.051058	0.830216
H231	H	-1.140709	0.000027	-0.352231
H232	H	-0.640709	0.500027	0.147769
H233	H	-1.065117	0.075470	-0.447372
H234	H	-0.565117	0.575470	0.052628
