data_functionalizedCrystal
_audit_creation_method	'MofGen! by Chris Wilmer'
_symmetry_space_group_name_H-M	'P1'
_symmetry_Int_Tables_number	1
_symmetry_cell_setting	triclinic
loop_
_symmetry_equiv_pos_as_xyz
  x,y,z
_cell_length_a	6.817900
_cell_length_b	7.076028
_cell_length_c	18.186605
_cell_angle_alpha	86.820421
_cell_angle_beta	110.085367
_cell_angle_gamma	117.700652
loop_
_atom_site_label
_atom_site_type_symbol
_atom_site_fract_x
_atom_site_fract_y
_atom_site_fract_z
V1	V	-4.229941	-0.658800	-0.106765
O2	O	-4.182028	-0.652716	0.006410
O3	O	-4.210420	-0.648085	-0.212929
O4	O	-4.256306	-0.948959	-0.104562
O5	O	-4.135824	-0.349759	-0.102707
V6	V	-4.700139	-0.622591	-0.093295
O7	O	-4.520429	-0.738228	-0.136315
O8	O	-4.859848	-0.543162	-0.063745
O9	O	-4.496453	-0.633306	0.012869
O10	O	-4.865449	-0.628675	-0.206470
O11	O	-4.911652	-0.931632	-0.097353
O12	O	-4.450567	-0.332432	-0.095498
C13	C	-4.060028	-0.636089	-0.238826
C14	C	-4.125852	-0.629262	-0.325613
C15	C	-4.310202	-0.645297	0.038763
C16	C	-4.222010	-0.652298	0.127177
C17	C	-4.251640	-0.261498	-0.099469
C18	C	-4.125523	-0.019874	-0.100588
C19	C	-3.937672	-0.239861	-0.304060
C20	C	-3.874505	-0.041961	-0.334055
C21	C	-3.936363	-0.035558	-0.415599
C22	C	-4.061406	-0.227076	-0.467150
C23	C	-4.124574	-0.424976	-0.437155
C24	C	-4.062697	-0.431358	-0.355608
C25	C	-4.312766	-0.814373	-0.458708
C26	C	-4.250896	-0.820781	-0.377164
C27	C	-4.437810	-1.005892	-0.510259
C28	C	-4.500964	-1.203796	-0.480264
C29	C	-4.439096	-1.210191	-0.398715
C30	C	-4.314063	-1.018681	-0.347169
V31	V	-4.333017	-0.644170	0.270968
O32	O	-4.251989	-0.632928	0.386117
O33	O	-4.349292	-0.644977	0.160417
O34	O	-4.394564	-0.945935	0.268752
O35	O	-4.206404	-0.329886	0.277031
V36	V	-4.743404	-0.549957	0.306469
O37	O	-4.612678	-0.696481	0.251710
O38	O	-4.865570	-0.445078	0.345690
O39	O	-4.527904	-0.575212	0.407123
O40	O	-4.929215	-0.547491	0.196526
O41	O	-4.974800	-0.850533	0.305611
O42	O	-4.482632	-0.274254	0.298788
C43	C	-4.354683	-0.607177	0.425434
C44	C	-4.249599	-0.616473	0.511297
C45	C	-4.296920	-0.223274	0.287242
C46	C	-4.152461	0.015919	0.285210
H47	H	-3.887234	-0.245052	-0.237660
H48	H	-4.488185	-1.000665	-0.576656
H49	H	-3.884931	0.125589	-0.440020
C50	C	-3.694733	0.343599	-0.320940
C51	C	-3.737089	0.168551	-0.277390
H52	H	-3.609926	0.473555	-0.285959
H53	H	-3.603775	0.344663	-0.350658
H54	H	-3.841784	0.331309	-0.355730
H55	H	-3.590036	0.180833	-0.242605
H56	H	-3.828047	0.167489	-0.247659
C57	C	-4.631343	-1.594463	-0.428218
C58	C	-4.508534	-1.427734	-0.365747
H59	H	-4.674199	-1.728764	-0.407866
H60	H	-4.770534	-1.590512	-0.462099
H61	H	-4.532561	-1.577201	-0.457049
H62	H	-4.607323	-1.444987	-0.336919
H63	H	-4.369324	-1.431690	-0.331853
H64	H	-4.602784	-1.359714	-0.522243
H65	H	-4.263646	-1.023867	-0.280769
H66	H	-4.111792	-0.221846	-0.533547
