data_functionalizedCrystal
_audit_creation_method	'MofGen! by Chris Wilmer'
_symmetry_space_group_name_H-M	'P1'
_symmetry_Int_Tables_number	1
_symmetry_cell_setting	triclinic
loop_
_symmetry_equiv_pos_as_xyz
  x,y,z
_cell_length_a	10.686220
_cell_length_b	13.897441
_cell_length_c	10.685194
_cell_angle_alpha	85.599334
_cell_angle_beta	99.069756
_cell_angle_gamma	94.349245
loop_
_atom_site_label
_atom_site_type_symbol
_atom_site_fract_x
_atom_site_fract_y
_atom_site_fract_z
Zn1	Zn	1.901856	-0.413132	-0.356270
Zn2	Zn	1.885479	-0.240349	-0.568587
Zn3	Zn	1.689589	-0.263321	-0.372632
Zn4	Zn	1.673339	-0.413074	-0.584796
O5	O	1.787566	-0.332469	-0.470571
O6	O	2.077299	-0.380622	-0.370803
O7	O	1.859441	-0.108414	-0.542657
O8	O	1.731401	-0.292832	-0.192814
O9	O	2.065268	-0.253679	-0.526792
O10	O	1.887352	-0.402898	-0.180793
O11	O	1.715521	-0.125292	-0.398689
O12	O	1.509817	-0.292776	-0.414407
O13	O	1.703705	-0.548064	-0.554418
O14	O	1.497878	-0.402799	-0.570283
O15	O	1.871595	-0.548107	-0.386520
O16	O	1.843684	-0.253623	-0.748385
O17	O	1.687825	-0.380523	-0.760293
C18	C	1.457794	-0.350275	-0.495880
C19	C	1.316714	-0.357913	-0.506738
C20	C	1.787664	-0.584063	-0.470452
C21	C	1.787706	-0.691278	-0.470401
C22	C	1.787747	-0.887576	-0.470313
C23	C	1.787720	-0.778342	-0.470366
C24	C	2.118625	-0.314595	-0.445164
C25	C	2.259703	-0.306978	-0.434337
C26	C	1.762248	-0.314593	-0.800398
C27	C	1.751534	-0.306972	-0.941491
C28	C	1.787547	-0.081855	-0.470593
C29	C	1.787779	0.025353	-0.470267
C30	C	1.813016	-0.350434	-0.139454
C31	C	1.823862	-0.358090	0.001649
H32	H	1.893984	-0.407689	-0.939093
N33	N	1.663572	-0.244746	-1.015852
N34	N	1.702721	-0.176946	-1.086444
H35	H	1.640602	-0.132998	-1.138966
N36	N	1.333879	-0.244938	-0.346164
N37	N	1.452223	-0.238611	-0.337172
H38	H	1.504619	-0.194794	-0.274900
H39	H	1.257585	-0.407362	-0.577042
