data_functionalizedCrystal
_audit_creation_method	'MofGen! by Chris Wilmer'
_symmetry_space_group_name_H-M	'P1'
_symmetry_Int_Tables_number	1
_symmetry_cell_setting	triclinic
loop_
_symmetry_equiv_pos_as_xyz
  x,y,z
_cell_length_a	15.944551
_cell_length_b	15.944551
_cell_length_c	14.421503
_cell_angle_alpha	90.003340
_cell_angle_beta	89.996859
_cell_angle_gamma	83.498738
loop_
_atom_site_label
_atom_site_type_symbol
_atom_site_fract_x
_atom_site_fract_y
_atom_site_fract_z
O1	O	1.114529	0.108320	-0.077017
O2	O	0.869980	0.121677	-0.077040
O3	O	0.998933	-0.007276	-0.077020
O4	O	0.985576	0.237273	-0.077038
O5	O	0.998911	-0.007257	0.077204
O6	O	0.869958	0.121696	0.077183
O7	O	1.114508	0.108340	0.077206
Cu8	Cu	0.992231	0.115020	0.091277
Cu9	Cu	0.992256	0.114997	-0.091110
O10	O	0.985555	0.237293	0.077186
C11	C	0.838675	0.121132	0.000069
C12	C	0.745429	0.119470	0.000060
C13	C	0.530572	0.035565	0.000084
C14	C	0.469563	0.074518	-0.075959
C15	C	0.574703	0.116462	0.000071
C16	C	0.469564	0.074556	0.076093
C17	C	0.409790	0.113551	0.000086
C18	C	0.514922	0.155437	-0.076035
C19	C	0.514929	0.155464	0.076086
C20	C	0.453937	0.194476	0.000024
C21	C	0.669705	0.118137	0.000062
C22	C	0.314789	0.111883	0.000089
C23	C	0.998367	-0.038561	0.000092
C24	C	0.996705	-0.131807	0.000093
C25	C	0.912801	-0.346663	0.000072
C26	C	0.951753	-0.407671	0.076117
C27	C	0.993698	-0.302533	0.000085
C28	C	0.951793	-0.407674	-0.075935
C29	C	0.990787	-0.467445	0.000074
C30	C	1.032672	-0.362312	0.076193
C31	C	1.032701	-0.362308	-0.075927
C32	C	1.071711	-0.423298	0.000136
C33	C	0.995372	-0.207530	0.000092
C34	C	0.989119	-0.562446	0.000073
C35	C	1.145813	0.108885	0.000096
C36	C	1.239059	0.110547	0.000098
C37	C	0.986120	0.268577	0.000072
C38	C	0.987782	0.361823	0.000066
N39	N	0.992219	0.115035	0.219558
N40	N	0.992275	0.114975	-0.219392
C41	C	0.932581	0.174636	0.469202
C42	C	1.008481	0.190943	0.531011
C43	C	0.992240	0.115015	0.408719
C44	C	0.916359	0.098727	0.531005
C45	C	0.992253	0.114997	0.591441
C46	C	1.068178	0.131360	0.469167
C47	C	0.976007	0.039111	0.469156
C48	C	1.051961	0.055386	0.530936
C49	C	0.992231	0.115027	0.303458
C50	C	0.992270	0.114985	0.696700
H51	H	0.535052	0.189660	0.140373
N52	N	0.823860	-0.302537	0.000160
H53	H	0.814590	-0.266458	-0.057292
H54	H	0.782444	-0.346000	0.000823
N55	N	1.077944	-0.335844	0.161455
H56	H	1.128498	-0.307133	0.142184
H57	H	1.038261	-0.295429	0.199234
H58	H	0.534918	0.189620	-0.140394
H59	H	1.138919	-0.456457	0.000186
N60	N	0.831352	0.080491	0.566988
H61	H	0.792584	0.072761	0.513030
H62	H	0.838475	0.027276	0.605530
H63	H	0.449469	0.040333	0.140379
H64	H	0.917527	-0.427771	0.140401
N65	N	1.078004	-0.335653	-0.161078
H66	H	1.047400	-0.351962	-0.218492
H67	H	1.079259	-0.272472	-0.160034
N68	N	0.442932	0.029193	-0.161113
H69	H	0.471091	-0.030826	-0.161054
H70	H	0.379618	0.028952	-0.160736
N71	N	0.906468	-0.434301	-0.161089
H72	H	0.846452	-0.406136	-0.161023
H73	H	0.936488	-0.416995	-0.218474
N74	N	0.865813	0.241467	0.433299
H75	H	0.878193	0.298776	0.455804
H76	H	0.865944	0.240574	0.363274
N77	N	0.410006	0.283495	-0.000032
H78	H	0.426484	0.313925	-0.057496
H79	H	0.346878	0.281819	0.000549
N80	N	1.026693	0.275956	0.567002
H81	H	0.981593	0.320963	0.544552
H82	H	1.027127	0.275073	0.637025
H83	H	1.132368	0.145205	0.442119
H84	H	1.102474	0.004956	0.557872
H85	H	0.962240	-0.025051	0.441965
N86	N	0.574704	-0.053374	-0.000011
H87	H	0.610786	-0.062643	0.057440
H88	H	0.531245	-0.094793	-0.000675
