data_functionalizedCrystal
_audit_creation_method	'MofGen! by Chris Wilmer'
_symmetry_space_group_name_H-M	'P1'
_symmetry_Int_Tables_number	1
_symmetry_cell_setting	triclinic
loop_
_symmetry_equiv_pos_as_xyz
  x,y,z
_cell_length_a	14.971486
_cell_length_b	10.868271
_cell_length_c	14.971486
_cell_angle_alpha	89.994655
_cell_angle_beta	96.385871
_cell_angle_gamma	89.999359
loop_
_atom_site_label
_atom_site_type_symbol
_atom_site_fract_x
_atom_site_fract_y
_atom_site_fract_z
O1	O	1.186944	0.102181	-0.116563
O2	O	0.926544	0.102215	-0.130522
O3	O	1.063724	0.102188	0.006657
O4	O	1.049765	0.102208	-0.253743
O5	O	1.063712	-0.102456	0.006663
O6	O	0.926533	-0.102430	-0.130517
O7	O	1.186933	-0.102463	-0.116558
Zn8	Zn	1.056731	-0.134938	-0.123536
Zn9	Zn	1.056746	0.134690	-0.123543
O10	O	1.049754	-0.102437	-0.253737
C11	C	0.893214	-0.000103	-0.129895
C12	C	0.793917	-0.000091	-0.128024
C13	C	0.736692	-0.000086	-0.208614
C14	C	0.643392	-0.000105	-0.206850
C15	C	0.607320	-0.000119	-0.124497
C16	C	0.664552	-0.000127	-0.043902
C17	C	0.757850	-0.000117	-0.045666
C18	C	0.470090	-0.000144	-0.040231
C19	C	0.376786	-0.000151	-0.038466
C20	C	0.355632	-0.000132	-0.201415
C21	C	0.448930	-0.000122	-0.203179
C22	C	0.506156	-0.000128	-0.122584
N23	N	1.056728	-0.318952	-0.123531
C24	C	1.056741	-0.569958	-0.123542
C25	C	1.056731	-0.430281	-0.123538
C26	C	1.220263	-0.000142	-0.117185
C27	C	1.319561	-0.000147	-0.119056
C28	C	1.063094	-0.000133	0.039985
C29	C	1.061223	-0.000132	0.139282
N30	N	1.056757	0.318704	-0.123542
C31	C	1.050384	-0.000112	-0.287065
C32	C	1.052254	-0.000106	-0.386362
C33	C	1.141812	-0.000143	0.196507
C34	C	1.140049	-0.000131	0.289807
C35	C	1.057696	-0.000116	0.325879
C36	C	0.977101	-0.000101	0.268646
C37	C	0.978865	-0.000104	0.175349
C38	C	0.973430	-0.000096	0.463109
C39	C	0.971665	-0.000094	0.556413
C40	C	1.134614	-0.000122	0.577567
C41	C	1.136378	-0.000126	0.484269
C42	C	1.055782	-0.000113	0.427043
H43	H	0.596802	-0.000100	-0.272474
O44	O	0.895198	-0.000249	0.407429
C45	C	0.802591	-0.106305	0.289862
C46	C	0.891227	-0.106262	0.352853
H47	H	0.799343	-0.192021	0.245735
H48	H	0.799332	-0.020722	0.245584
H49	H	0.743443	-0.106239	0.331689
H50	H	0.950424	-0.106372	0.311097
H51	H	0.894407	-0.191838	0.397135
O52	O	0.897158	0.000079	0.303791
C53	C	0.800583	0.106149	0.396798
C54	C	0.891159	0.106090	0.357076
H55	H	0.795696	0.191863	0.439872
H56	H	0.795665	0.020565	0.440013
H57	H	0.743301	0.106099	0.339855
H58	H	0.948494	0.106184	0.413962
H59	H	0.895999	0.191667	0.313838
O60	O	0.813406	0.000103	0.032642
C61	C	0.859997	0.106076	0.171395
C62	C	0.797045	0.106000	0.082734
H63	H	0.846778	0.191671	0.211928
H64	H	0.932892	0.106162	0.156041
H65	H	0.846882	0.020388	0.211883
H66	H	0.810080	0.191673	0.042202
H67	H	0.724170	0.105850	0.098151
H68	H	0.766054	-0.000074	-0.275675
O69	O	1.212967	0.000037	0.633058
C70	C	1.351687	0.106068	0.679706
C71	C	1.263000	0.106035	0.616794
H72	H	1.392155	0.191771	0.666592
H73	H	1.392264	0.020472	0.666576
H74	H	1.336265	0.106021	0.752578
H75	H	1.278340	0.106126	0.543899
H76	H	1.222449	0.191623	0.630001
H77	H	0.478296	-0.000099	-0.270239
H78	H	1.208874	-0.000163	0.167145
H79	H	0.309033	-0.000133	-0.267039
O80	O	1.218312	0.000077	0.345428
C81	C	1.310882	0.106061	0.463059
C82	C	1.222221	0.105987	0.400108
H83	H	1.314063	0.191667	0.507297
H84	H	1.370076	0.106122	0.421292
H85	H	1.314117	0.020384	0.507239
H86	H	1.218898	0.191649	0.355916
H87	H	1.163069	0.105861	0.441929
H88	H	1.203437	-0.000147	0.454903
O89	O	0.629471	0.000077	0.036074
C90	C	0.536365	0.106045	0.132607
C91	C	0.576050	0.105977	0.042011
H92	H	0.493151	0.191643	0.137428
H93	H	0.593258	0.106121	0.189941
H94	H	0.493256	0.020360	0.137494
H95	H	0.619149	0.191648	0.037036
H96	H	0.519114	0.105837	-0.015280
O97	O	0.891648	0.000154	0.591417
C98	C	0.751840	0.106196	0.601849
C99	C	0.842435	0.106077	0.562162
H100	H	0.712017	0.191812	0.578197
H101	H	0.764380	0.106273	0.678364
H102	H	0.712027	0.020529	0.578315
H103	H	0.882294	0.191729	0.585627
H104	H	0.829831	0.105936	0.485651
H105	H	0.347419	-0.000164	0.028593
O106	O	0.525716	-0.000364	0.038036
C107	C	0.643377	-0.106331	0.130599
C108	C	0.580419	-0.106259	0.041942
H109	H	0.687634	-0.191926	0.133777
H110	H	0.601614	-0.106416	0.189796
H111	H	0.687537	-0.020643	0.133830
H112	H	0.536247	-0.191933	0.038622
H113	H	0.622236	-0.106110	-0.017214
H114	H	0.913240	-0.000095	0.128756
