data_functionalizedCrystal
_audit_creation_method	'MofGen! by Chris Wilmer'
_symmetry_space_group_name_H-M	'P1'
_symmetry_Int_Tables_number	1
_symmetry_cell_setting	triclinic
loop_
_symmetry_equiv_pos_as_xyz
  x,y,z
_cell_length_a	16.959455
_cell_length_b	21.295416
_cell_length_c	16.959447
_cell_angle_alpha	90.032720
_cell_angle_beta	89.979626
_cell_angle_gamma	89.972649
loop_
_atom_site_label
_atom_site_type_symbol
_atom_site_fract_x
_atom_site_fract_y
_atom_site_fract_z
Zn1	Zn	1.208327	0.250647	-0.447023
Zn2	Zn	1.708327	0.750647	0.052977
Zn3	Zn	1.208226	0.355924	-0.314839
Zn4	Zn	1.708226	0.855924	0.185161
Zn5	Zn	1.076156	0.250667	-0.314847
Zn6	Zn	1.576156	0.750667	0.185153
Zn7	Zn	1.076097	0.355877	-0.446964
Zn8	Zn	1.576097	0.855877	0.053036
O9	O	1.142202	0.303278	-0.380918
O10	O	1.642202	0.803278	0.119082
O11	O	1.318925	0.264623	-0.429510
O12	O	1.818925	0.764623	0.070490
O13	O	1.190689	0.341989	-0.204229
O14	O	1.690689	0.841989	0.295771
O15	O	1.093756	0.162575	-0.332408
O16	O	1.593756	0.662575	0.167592
O17	O	1.318851	0.341970	-0.332395
O18	O	1.818851	0.841970	0.167605
O19	O	1.190862	0.162560	-0.429518
O20	O	1.690862	0.662560	0.070482
O21	O	1.093658	0.264657	-0.204235
O22	O	1.593658	0.764657	0.295765
O23	O	0.965537	0.264612	-0.332351
O24	O	1.465537	0.764612	0.167649
O25	O	1.093655	0.341890	-0.557582
O26	O	1.593655	0.841890	-0.057582
O27	O	0.965494	0.341909	-0.429416
O28	O	1.465494	0.841909	0.070584
O29	O	1.190804	0.264578	-0.557626
O30	O	1.690804	0.764578	-0.057626
O31	O	1.190632	0.444007	-0.332338
O32	O	1.690632	0.944007	0.167662
O33	O	1.093557	0.443972	-0.429409
O34	O	1.593557	0.943972	0.070591
C35	C	0.936835	0.303258	-0.380878
C36	C	1.436835	0.803258	0.119122
C37	C	0.848979	0.303264	-0.380880
C38	C	1.348979	0.803264	0.119120
C39	C	0.477454	0.343513	-0.330325
C40	C	0.977454	0.843513	0.169675
C41	C	0.477553	0.263096	-0.431608
C42	C	0.977553	0.763096	0.068392
C43	C	0.560098	0.263086	-0.431589
C44	C	1.060098	0.763086	0.068411
C45	C	0.601326	0.303290	-0.380937
C46	C	1.101326	0.803290	0.119063
C47	C	0.560007	0.343505	-0.330305
C48	C	1.060007	0.843505	0.169695
C49	C	0.601423	0.222877	-0.482225
C50	C	1.101423	0.722877	0.017775
C51	C	0.683974	0.222865	-0.482209
C52	C	1.183974	0.722865	0.017791
C53	C	0.725203	0.263067	-0.431553
C54	C	1.225203	0.763067	0.068447
C55	C	0.683879	0.303282	-0.380918
C56	C	1.183879	0.803282	0.119082
C57	C	0.725107	0.343487	-0.330267
C58	C	1.225107	0.843487	0.169733
C59	C	0.683785	0.383700	-0.279628
C60	C	1.183785	0.883700	0.220372
C61	C	0.601236	0.383707	-0.279650
C62	C	1.101236	0.883707	0.220350
C63	C	0.807751	0.263060	-0.431531
C64	C	1.307751	0.763060	0.068469
C65	C	0.807660	0.343479	-0.330248
C66	C	1.307660	0.843479	0.169752
C67	C	1.142099	0.466830	-0.380883
C68	C	1.642099	0.966830	0.119117
C69	C	1.142127	0.536798	-0.380895
C70	C	1.642127	1.036798	0.119105
C71	C	1.192719	0.569662	-0.330403
C72	C	1.692719	1.069662	0.169597
C73	C	1.192756	0.635404	-0.330425
C74	C	1.692756	1.135404	0.169575
C75	C	1.142187	0.668281	-0.380929
C76	C	1.642187	1.168281	0.119071
C77	C	1.091592	0.635409	-0.431430
C78	C	1.591592	1.135409	0.068570
C79	C	1.091562	0.569668	-0.431413
C80	C	1.591562	1.069668	0.068587
N81	N	1.073041	0.771543	-0.386947
N82	N	1.573041	1.271543	0.113053
N83	N	1.073072	0.833995	-0.386959
N84	N	1.573072	1.333995	0.113041
C85	C	1.142277	0.866355	-0.380985
C86	C	1.642277	1.366355	0.119015
N87	N	1.211451	0.833905	-0.374984
N88	N	1.711451	1.333905	0.125016
N89	N	1.211419	0.771448	-0.374968
N90	N	1.711419	1.271448	0.125032
C91	C	1.142215	0.739566	-0.380954
C92	C	1.642215	1.239566	0.119046
C93	C	1.192913	0.970505	-0.330514
C94	C	1.692913	1.470505	0.169486
C95	C	1.192952	1.036248	-0.330541
C96	C	1.692952	1.536248	0.169459
C97	C	1.091781	1.036252	-0.431543
C98	C	1.591781	1.536252	0.068457
C99	C	1.091749	0.970509	-0.431520
C100	C	1.591749	1.470509	0.068480
C101	C	1.142314	0.937640	-0.381001
C102	C	1.642314	1.437640	0.118999
C103	C	1.348370	0.303299	-0.380959
C104	C	1.848370	0.803299	0.119041
C105	C	1.436226	0.303308	-0.380976
C106	C	1.936226	0.803308	0.119024
C107	C	1.142235	0.303226	-0.587086
C108	C	1.642235	0.803226	-0.087086
C109	C	1.142249	0.303204	-0.674943
C110	C	1.642249	0.803204	-0.174943
C111	C	1.142328	1.139088	-0.380984
C112	C	1.642328	1.639088	0.119016
C113	C	1.142384	1.069120	-0.381047
C114	C	1.642384	1.569120	0.118953
C115	C	1.091762	0.343390	-1.046399
C116	C	1.591762	0.843390	-0.546399
C117	C	1.192924	0.262885	-1.046439
C118	C	1.692924	0.762885	-0.546439
C119	C	1.192903	0.262898	-0.963893
C120	C	1.692903	0.762898	-0.463893
C121	C	1.142312	0.303159	-0.922596
C122	C	1.642312	0.803159	-0.422596
C123	C	1.091741	0.343406	-0.963845
C124	C	1.591741	0.843406	-0.463845
C125	C	1.243479	0.222656	-0.922638
C126	C	1.743479	0.722656	-0.422638
C127	C	1.243460	0.222668	-0.840087
C128	C	1.743460	0.722668	-0.340087
C129	C	1.192864	0.262926	-0.798789
C130	C	1.692864	0.762926	-0.298789
C131	C	1.142291	0.303175	-0.840043
C132	C	1.642291	0.803175	-0.340043
C133	C	1.091699	0.343436	-0.798746
C134	C	1.591699	0.843436	-0.298746
C135	C	1.041121	0.383681	-0.839998
C136	C	1.541121	0.883681	-0.339998
C137	C	1.041145	0.383664	-0.922546
C138	C	1.541145	0.883664	-0.422546
C139	C	1.192840	0.262943	-0.716240
C140	C	1.692840	0.762943	-0.216240
C141	C	1.091678	0.343451	-0.716192
C142	C	1.591678	0.843451	-0.216192
C143	C	1.142214	0.303285	-0.175552
C144	C	1.642214	0.803285	0.324448
C145	C	1.142354	0.303130	-0.087696
C146	C	1.642354	0.803130	0.412304
H147	H	0.841222	0.376217	-0.288998
H148	H	1.341222	0.876217	0.211002
H149	H	1.284672	0.189882	-0.956268
H150	H	1.784672	0.689882	-0.456268
Cl151	Cl	0.425723	0.212563	-0.495288
Cl152	Cl	0.925723	0.712563	0.004712
H153	H	0.841392	0.230320	-0.472763
H154	H	1.341392	0.730320	0.027237
H155	H	1.234118	0.230110	-1.080068
H156	H	1.734118	0.730110	-0.580068
Cl157	Cl	0.425509	0.394061	-0.266664
Cl158	Cl	0.925509	0.894061	0.233336
H159	H	0.567850	0.190148	-0.523468
H160	H	1.067850	0.690148	-0.023468
H161	H	0.717611	0.190121	-0.523442
H162	H	1.217611	0.690121	-0.023442
H163	H	1.050580	0.376156	-1.079990
H164	H	1.550580	0.876156	-0.579990
Cl165	Cl	1.027954	0.528351	-0.494893
Cl166	Cl	1.527954	1.028351	0.005107
Cl167	Cl	1.307039	0.172073	-0.788235
Cl168	Cl	1.807039	0.672073	-0.288235
H169	H	1.233894	0.542901	-0.289270
H170	H	1.733894	1.042901	0.210730
H171	H	1.234022	0.230178	-0.682656
H172	H	1.734022	0.730178	-0.182656
Cl173	Cl	1.256361	0.676727	-0.266943
Cl174	Cl	1.756361	1.176727	0.233057
Cl175	Cl	1.028023	0.676738	-0.494926
Cl176	Cl	1.528023	1.176738	0.005074
Cl177	Cl	0.549284	0.434257	-0.215997
Cl178	Cl	1.049284	0.934257	0.284003
Cl179	Cl	0.735623	0.434245	-0.215960
Cl180	Cl	1.235623	0.934245	0.284040
Cl181	Cl	1.256479	0.929180	-0.267006
Cl182	Cl	1.756479	1.429180	0.232994
H183	H	1.234155	1.063005	-0.289426
H184	H	1.734155	1.563005	0.210574
Cl185	Cl	1.028213	1.077576	-0.495041
Cl186	Cl	1.528213	1.577576	0.004959
Cl187	Cl	1.028140	0.929192	-0.494995
Cl188	Cl	1.528140	1.429192	0.005005
Cl189	Cl	0.977527	0.434296	-0.788072
Cl190	Cl	1.477527	0.934296	-0.288072
H191	H	1.050472	0.376231	-0.682574
H192	H	1.550472	0.876231	-0.182574
Cl193	Cl	0.977572	0.434257	-0.974411
Cl194	Cl	1.477572	0.934257	-0.474411
