data_functionalizedCrystal
_audit_creation_method	'MofGen! by Chris Wilmer'
_symmetry_space_group_name_H-M	'P1'
_symmetry_Int_Tables_number	1
_symmetry_cell_setting	triclinic
loop_
_symmetry_equiv_pos_as_xyz
  x,y,z
_cell_length_a	16.109302
_cell_length_b	16.974813
_cell_length_c	15.186229
_cell_angle_alpha	86.341696
_cell_angle_beta	89.994701
_cell_angle_gamma	83.428323
loop_
_atom_site_label
_atom_site_type_symbol
_atom_site_fract_x
_atom_site_fract_y
_atom_site_fract_z
O1	O	1.103043	0.101636	-0.080509
O2	O	1.436376	0.434970	0.252824
O3	O	1.769710	0.768303	0.586157
O4	O	0.860970	0.114284	-0.081404
O5	O	1.194304	0.447617	0.251930
O6	O	1.527637	0.780951	0.585263
O7	O	0.988755	-0.007145	-0.072750
O8	O	1.322088	0.326189	0.260583
O9	O	1.655422	0.659522	0.593917
O10	O	0.975258	0.223065	-0.089163
O11	O	1.308592	0.556399	0.244170
O12	O	1.641925	0.889732	0.577503
O13	O	0.988747	-0.007147	0.073707
O14	O	1.322080	0.326187	0.407041
O15	O	1.655413	0.659520	0.740374
O16	O	0.860962	0.114282	0.065054
O17	O	1.194295	0.447616	0.398387
O18	O	1.527628	0.780949	0.731720
O19	O	1.103035	0.101635	0.065948
O20	O	1.436368	0.434968	0.399281
O21	O	1.769701	0.768301	0.732615
Zn22	Zn	0.981997	0.107958	0.088754
Zn23	Zn	1.315330	0.441292	0.422087
Zn24	Zn	1.648663	0.774625	0.755421
Zn25	Zn	0.982008	0.107961	-0.104210
Zn26	Zn	1.315341	0.441294	0.229123
Zn27	Zn	1.648675	0.774627	0.562457
O28	O	0.975250	0.223064	0.057294
O29	O	1.308583	0.556397	0.390628
O30	O	1.641916	0.889730	0.723961
C31	C	0.829992	0.113771	-0.008138
C32	C	1.163325	0.447104	0.325196
C33	C	1.496658	0.780437	0.658529
C34	C	0.737698	0.112235	-0.008025
C35	C	1.071031	0.445568	0.325308
C36	C	1.404364	0.778901	0.658641
C37	C	0.525355	0.108681	0.072053
C38	C	0.858688	0.442015	0.405386
C39	C	1.192022	0.775348	0.738720
C40	C	0.438636	0.107229	0.072154
C41	C	0.771970	0.440563	0.405487
C42	C	1.105303	0.773896	0.738820
C43	C	0.438656	0.107235	-0.087523
C44	C	0.771989	0.440569	0.245811
C45	C	1.105323	0.773902	0.579144
C46	C	0.525374	0.108682	-0.087622
C47	C	0.858707	0.442015	0.245712
C48	C	1.192041	0.775348	0.579045
C49	C	0.568721	0.109409	-0.007832
C50	C	0.902054	0.442742	0.325502
C51	C	1.235387	0.776075	0.658835
C52	C	0.395284	0.106510	-0.007632
C53	C	0.728617	0.439844	0.325701
C54	C	1.061951	0.773177	0.659035
C55	C	0.301260	0.104936	-0.007524
C56	C	0.634593	0.438269	0.325810
C57	C	0.967926	0.771603	0.659143
C58	C	0.662751	0.110981	-0.007939
C59	C	0.996085	0.444315	0.325394
C60	C	1.329418	0.777648	0.658727
C61	C	0.988237	-0.036604	0.002577
C62	C	1.321571	0.296729	0.335911
C63	C	1.654904	0.630063	0.669244
C64	C	0.986698	-0.124380	0.008830
C65	C	1.320031	0.208953	0.342163
C66	C	1.653364	0.542286	0.675497
C67	C	0.985981	-0.165612	-0.068066
C68	C	1.319314	0.167721	0.265268
C69	C	1.652647	0.501054	0.598601
C70	C	0.984529	-0.248087	-0.062188
C71	C	1.317862	0.085246	0.271145
C72	C	1.651195	0.418580	0.604479
C73	C	0.983799	-0.289329	0.020587
C74	C	1.317133	0.044005	0.353920
C75	C	1.650466	0.377338	0.687253
C76	C	0.984514	-0.248091	0.097488
C77	C	1.317847	0.085243	0.430821
C78	C	1.651180	0.418576	0.764155
C79	C	0.985960	-0.165617	0.091609
C80	C	1.319293	0.167717	0.424943
C81	C	1.652627	0.501050	0.758276
C82	C	0.979468	-0.535989	0.046729
C83	C	1.312801	-0.202655	0.380063
C84	C	1.646135	0.130678	0.713396
C85	C	0.978024	-0.618469	0.052602
C86	C	1.311357	-0.285135	0.385936
C87	C	1.644691	0.048198	0.719269
C88	C	0.978038	-0.618459	-0.107075
C89	C	1.311371	-0.285126	0.226259
C90	C	1.644704	0.048207	0.559592
C91	C	0.979489	-0.535985	-0.112946
C92	C	1.312822	-0.202651	0.220387
C93	C	1.646155	0.130682	0.553721
C94	C	0.980199	-0.494753	-0.036044
C95	C	1.313532	-0.161420	0.297289
C96	C	1.646865	0.171914	0.630622
N97	N	0.982317	-0.373631	0.026597
N98	N	1.315651	-0.040298	0.359930
N99	N	1.648984	0.293035	0.693263
N100	N	0.981674	-0.410451	-0.042055
N101	N	1.315008	-0.077118	0.291278
N102	N	1.648341	0.256216	0.624611
C103	C	1.134013	0.102148	-0.007320
C104	C	1.467347	0.435481	0.326013
C105	C	1.800680	0.768815	0.659346
C106	C	1.226307	0.103684	-0.007438
C107	C	1.559641	0.437018	0.325895
C108	C	1.892974	0.770351	0.659228
C109	C	0.975767	0.252523	-0.018035
C110	C	1.309101	0.585856	0.315298
C111	C	1.642434	0.919189	0.648632
C112	C	0.977307	0.340299	-0.024293
C113	C	1.310641	0.673633	0.309040
C114	C	1.643974	1.006966	0.642373
N115	N	0.981995	0.107956	0.220447
N116	N	1.315329	0.441290	0.553780
N117	N	1.648662	0.774623	0.887114
N118	N	0.982016	0.107956	-0.235902
N119	N	1.315350	0.441290	0.097431
N120	N	1.648683	0.774623	0.430764
C121	C	1.038598	0.054206	0.450000
C122	C	1.371931	0.387539	0.783334
C123	C	1.705264	0.720872	1.116667
C124	C	1.038600	0.054204	0.542190
C125	C	1.371933	0.387537	0.875523
C126	C	1.705267	0.720870	1.208857
C127	C	0.925408	0.161709	0.534538
C128	C	1.258741	0.495043	0.867871
C129	C	1.592075	0.828376	1.201204
C130	C	0.925402	0.161707	0.442350
C131	C	1.258735	0.495040	0.775683
C132	C	1.592069	0.828374	1.109017
C133	C	0.982001	0.107956	0.400084
C134	C	1.315335	0.441289	0.733417
C135	C	1.648668	0.774623	1.066750
C136	C	0.982010	0.107957	0.584461
C137	C	1.315343	0.441290	0.917794
C138	C	1.648677	0.774623	1.251128
C139	C	0.982012	0.107955	0.684417
C140	C	1.315346	0.441288	1.017751
C141	C	1.648679	0.774622	1.351084
C142	C	0.981998	0.107956	0.300121
C143	C	1.315332	0.441290	0.633454
C144	C	1.648665	0.774623	0.966788
H145	H	0.403332	0.106637	0.137204
H146	H	0.736665	0.439971	0.470537
H147	H	1.069998	0.773304	0.803870
H148	H	0.403352	0.106644	-0.152485
H149	H	0.736686	0.439978	0.180848
H150	H	1.070019	0.773311	0.514182
N151	N	0.572104	0.109463	0.158111
N152	N	0.905438	0.442797	0.491445
N153	N	1.238771	0.776130	0.824778
H154	H	0.563806	0.060223	0.196521
H155	H	0.897140	0.393556	0.529854
H156	H	1.230473	0.726889	0.863188
H157	H	0.633602	0.110523	0.145857
H158	H	0.966935	0.443856	0.479190
H159	H	1.300268	0.777189	0.812524
H160	H	1.084685	0.010435	0.582830
H161	H	1.418018	0.343768	0.916164
H162	H	1.751351	0.677101	1.249497
H163	H	0.560684	0.109272	-0.152677
H164	H	0.894017	0.442605	0.180656
H165	H	1.227350	0.775938	0.513989
N166	N	0.977251	-0.662953	0.141886
N167	N	1.310585	-0.329619	0.475220
N168	N	1.643918	0.003714	0.808553
H169	H	0.976240	-0.721457	0.133938
H170	H	1.309573	-0.388124	0.467271
H171	H	1.642906	-0.054791	0.800605
H172	H	1.029022	-0.654951	0.176166
H173	H	1.362355	-0.321618	0.509499
H174	H	1.695689	0.011716	0.842832
N175	N	0.986716	-0.121157	-0.157363
N176	N	1.320050	0.212176	0.175971
N177	N	1.653383	0.545510	0.509304
H178	H	0.935787	-0.080534	-0.163797
H179	H	1.269120	0.252799	0.169537
H180	H	1.602453	0.586132	0.502870
H181	H	1.038848	-0.093392	-0.162908
H182	H	1.372181	0.239941	0.170425
H183	H	1.705515	0.573275	0.503759
H184	H	1.084683	0.010437	0.415589
H185	H	1.418016	0.343771	0.748923
H186	H	1.751350	0.677104	1.082256
N187	N	0.983875	-0.292575	-0.145124
N188	N	1.317208	0.040759	0.188210
N189	N	1.650541	0.374092	0.521543
H190	H	0.984602	-0.253939	-0.198452
H191	H	1.317935	0.079394	0.134881
H192	H	1.651269	0.412727	0.468215
H193	H	1.034830	-0.333176	-0.145616
H194	H	1.368163	0.000157	0.187717
H195	H	1.701497	0.333491	0.521051
N196	N	0.864369	0.219680	0.580133
N197	N	1.197702	0.553014	0.913466
N198	N	1.531035	0.886347	1.246799
H199	H	0.896101	0.254700	0.615875
H200	H	1.229434	0.588034	0.949208
H201	H	1.562768	0.921367	1.282542
H202	H	0.828525	0.253677	0.534470
H203	H	1.161859	0.587010	0.867804
H204	H	1.495192	0.920343	1.201137
N205	N	0.980278	-0.491504	-0.202224
N206	N	1.313611	-0.158171	0.131109
N207	N	1.646945	0.175163	0.464443
H208	H	0.979603	-0.530140	-0.250047
H209	H	1.312936	-0.196806	0.083286
H210	H	1.646270	0.136527	0.416620
H211	H	0.929364	-0.450862	-0.208598
H212	H	1.262697	-0.117528	0.124736
H213	H	1.596030	0.215805	0.458069
N214	N	0.977271	-0.662929	-0.190014
N215	N	1.310604	-0.329596	0.143319
N216	N	1.643937	0.003737	0.476653
H217	H	0.976244	-0.721434	-0.173734
H218	H	1.309577	-0.388101	0.159600
H219	H	1.642910	-0.054767	0.492933
H220	H	0.926010	-0.642089	-0.226361
H221	H	1.259343	-0.308755	0.106973
H222	H	1.592677	0.024578	0.440306
N223	N	0.980244	-0.491525	0.129669
N224	N	1.313577	-0.158191	0.463002
N225	N	1.646910	0.175142	0.796336
H226	H	0.979569	-0.530169	0.182996
H227	H	1.312902	-0.196836	0.516329
H228	H	1.646235	0.136498	0.849662
H229	H	1.032360	-0.463730	0.131161
H230	H	1.365694	-0.130397	0.464494
H231	H	1.699027	0.202937	0.797827
H232	H	0.983915	-0.281676	0.164885
H233	H	1.317248	0.051658	0.498218
H234	H	1.650581	0.384991	0.831552
H235	H	0.986532	-0.132045	0.154226
H236	H	1.319865	0.201288	0.487559
H237	H	1.653199	0.534622	0.820893
H238	H	0.879311	0.205477	0.401705
H239	H	1.212644	0.538811	0.735038
H240	H	1.545977	0.872144	1.068371
