data_functionalizedCrystal
_audit_creation_method	'MofGen! by Chris Wilmer'
_symmetry_space_group_name_H-M	'P1'
_symmetry_Int_Tables_number	1
_symmetry_cell_setting	triclinic
loop_
_symmetry_equiv_pos_as_xyz
  x,y,z
_cell_length_a	14.519709
_cell_length_b	10.654550
_cell_length_c	9.730223
_cell_angle_alpha	90.000043
_cell_angle_beta	89.994652
_cell_angle_gamma	95.917462
loop_
_atom_site_label
_atom_site_type_symbol
_atom_site_fract_x
_atom_site_fract_y
_atom_site_fract_z
O1	O	0.129532	-1.666594	-0.114191
O2	O	0.141873	-1.300996	-0.114216
O3	O	0.001514	-1.493488	-0.114190
O4	O	0.269891	-1.474102	-0.114216
O5	O	0.001511	-1.493476	0.114390
O6	O	0.141869	-1.300984	0.114364
O7	O	0.129528	-1.666581	0.114389
Zn8	Zn	0.135698	-1.483781	0.150669
Zn9	Zn	0.135703	-1.483797	-0.150495
O10	O	0.269887	-1.474089	0.114363
C11	C	-0.032852	-1.492579	0.000100
C12	C	-0.135247	-1.489871	0.000100
C13	C	0.140965	-1.254201	0.000071
C14	C	0.138254	-1.114784	0.000061
C15	C	0.130436	-1.713377	0.000099
C16	C	0.133147	-1.852794	0.000100
C17	C	-0.510195	-1.479904	0.000064
C18	C	-0.405872	-1.482672	0.000075
C19	C	-0.322724	-1.484887	0.000083
C20	C	-0.218395	-1.487656	0.000091
C21	C	0.304253	-1.474999	0.000070
C22	C	0.406649	-1.477706	0.000061
N23	N	0.135694	-1.483779	0.356205
C24	C	0.220895	-1.034504	0.000057
C25	C	0.218342	-0.903507	0.000081
C26	C	0.050500	-0.933084	0.000108
C27	C	0.053054	-1.064078	0.000094
N28	N	0.135700	-1.483809	-0.356032
C29	C	0.073570	-1.569043	0.428142
C30	C	0.073570	-1.569056	0.572025
C31	C	0.197827	-1.398535	0.572021
C32	C	0.197822	-1.398518	0.428140
H33	H	0.290270	-1.075783	0.000041
H34	H	0.285637	-0.838147	0.000081
H35	H	0.022982	-1.638484	0.630593
C36	C	0.005225	-1.662814	0.349017
H37	H	-0.031780	-1.713587	0.412473
H38	H	0.038751	-1.715156	0.292871
H39	H	-0.033480	-1.617540	0.292910
C40	C	0.266143	-1.304726	0.651148
H41	H	0.303127	-1.253924	0.587693
H42	H	0.304857	-1.349950	0.707281
H43	H	0.232579	-1.252398	0.707269
H44	H	-0.014247	-1.129446	0.000101
C45	C	-0.043212	-0.877303	0.000126
H46	H	-0.032899	-0.787789	0.000119
H47	H	-0.077278	-0.904851	0.079837
H48	H	-0.077270	-0.904843	-0.079595
C49	C	0.266164	-1.304726	0.349004
H50	H	0.303175	-1.253962	0.412451
H51	H	0.232628	-1.252376	0.292891
H52	H	0.304864	-1.349985	0.292862
