data_functionalizedCrystal
_audit_creation_method	'MofGen! by Chris Wilmer'
_symmetry_space_group_name_H-M	'P1'
_symmetry_Int_Tables_number	1
_symmetry_cell_setting	triclinic
loop_
_symmetry_equiv_pos_as_xyz
  x,y,z
_cell_length_a	12.759394
_cell_length_b	12.759401
_cell_length_c	12.759387
_cell_angle_alpha	89.983678
_cell_angle_beta	89.968668
_cell_angle_gamma	90.019110
loop_
_atom_site_label
_atom_site_type_symbol
_atom_site_fract_x
_atom_site_fract_y
_atom_site_fract_z
Zn1	Zn	-0.418095	1.606252	-0.593922
Zn2	Zn	-0.593811	1.606147	-0.418240
Zn3	Zn	-0.418159	1.430555	-0.418267
Zn4	Zn	-0.593745	1.430542	-0.593887
O5	O	-0.505953	1.518374	-0.506079
O6	O	-0.441404	1.753259	-0.570620
O7	O	-0.570565	1.582815	-0.271222
O8	O	-0.271130	1.453911	-0.441594
O9	O	-0.570502	1.753182	-0.441547
O10	O	-0.271082	1.582995	-0.570647
O11	O	-0.441514	1.453808	-0.271242
O12	O	-0.441451	1.283532	-0.441560
O13	O	-0.570391	1.453889	-0.740913
O14	O	-0.570453	1.283523	-0.570588
O15	O	-0.441341	1.582983	-0.740938
O16	O	-0.740823	1.582803	-0.441514
O17	O	-0.740775	1.453787	-0.570561
C18	C	-0.778920	1.518311	-0.506053
C19	C	-0.895697	1.518380	-0.506078
C20	C	-0.505953	1.245407	-0.506074
C21	C	-0.505978	1.128630	-0.506097
C22	C	-0.505851	1.518446	-0.780112
C23	C	-0.505808	1.518477	-0.896889
C24	C	-0.895693	1.652825	-0.371801
C25	C	-0.950552	1.720075	-0.304675
C26	C	-1.060274	1.720136	-0.304704
C27	C	-1.115139	1.652943	-0.371868
C28	C	-1.060280	1.585693	-0.438994
C29	C	-0.950556	1.585637	-0.438956
C30	C	-1.060283	1.451255	-0.573274
C31	C	-0.950562	1.451187	-0.573242
C32	C	-1.115148	1.384062	-0.640438
C33	C	-1.060289	1.316805	-0.707560
C34	C	-0.950561	1.316745	-0.707528
C35	C	-0.895703	1.383937	-0.640367
C36	C	-0.231919	1.518466	-0.506127
C37	C	-0.115142	1.518505	-0.506148
C38	C	-0.505953	1.792407	-0.506084
C39	C	-0.505953	1.909184	-0.506087
C40	C	-0.438743	1.964088	-0.573287
C41	C	-0.438758	2.073812	-0.573295
C42	C	-0.573196	2.073718	-0.438893
C43	C	-0.573185	1.963996	-0.438892
C44	C	-0.371354	1.652969	-1.116359
C45	C	-0.304185	1.720168	-1.061510
C46	C	-0.304220	1.720138	-0.951789
C47	C	-0.371434	1.652904	-0.896913
C48	C	-0.438603	1.585706	-0.951762
C49	C	-0.438559	1.585740	-1.061486
C50	C	-0.572978	1.451279	-0.951738
C51	C	-0.572939	1.451301	-1.061460
C52	C	-0.640192	1.384045	-0.896863
C53	C	-0.707358	1.316839	-0.951711
C54	C	-0.707319	1.316871	-1.061440
C55	C	-0.640109	1.384103	-1.116309
C56	C	-0.505978	1.518362	-0.233111
C57	C	-0.505725	1.518535	-0.116335
H58	H	-0.905872	1.774785	-0.249993
H59	H	-1.104940	1.774902	-0.250049
C60	C	-0.713214	1.310960	-1.273476
C61	C	-0.640065	1.384137	-1.236916
H62	H	-0.713180	1.310983	-1.347935
H63	H	-0.781012	1.329102	-1.248644
H64	H	-0.695047	1.243163	-1.248655
H65	H	-0.658237	1.451936	-1.261731
H66	H	-0.572253	1.366002	-1.261759
C67	C	-0.767082	1.257113	-0.783504
C68	C	-0.781231	1.242942	-0.891392
H69	H	-0.812685	1.211484	-0.746265
H70	H	-0.782473	1.327685	-0.765533
H71	H	-0.696494	1.241761	-0.765545
H72	H	-0.851818	1.258301	-0.909353
H73	H	-0.765848	1.172354	-0.909370
C74	C	-0.840150	1.183988	-1.050384
C75	C	-0.781155	1.243001	-1.121726
H76	H	-0.885729	1.138380	-1.087602
H77	H	-0.880351	1.229740	-1.007587
H78	H	-0.794378	1.143810	-1.007593
H79	H	-0.826927	1.283186	-1.164512
H80	H	-0.740951	1.197244	-1.164542
H81	H	-0.249526	1.774859	-0.907131
H82	H	-0.371465	1.652895	-0.807572
H83	H	-0.383998	1.919463	-0.628002
C84	C	-0.738635	1.552797	-0.344896
C85	C	-0.775086	1.652751	-0.371760
H86	H	-0.664176	1.552756	-0.344864
H87	H	-0.763455	1.503171	-0.394503
H88	H	-0.763540	1.534683	-0.277092
H89	H	-0.750186	1.670861	-0.439568
H90	H	-0.750255	1.702392	-0.322151
C91	C	-1.272312	1.726235	-0.298808
C92	C	-1.235747	1.653015	-0.371905
H93	H	-1.346770	1.726273	-0.298829
H94	H	-1.247415	1.794000	-0.317025
H95	H	-1.247560	1.708077	-0.230991
H96	H	-1.260492	1.671178	-0.439723
H97	H	-1.260654	1.585236	-0.353693
C98	C	-0.714528	2.197057	-0.424277
C99	C	-0.647085	2.133976	-0.365028
H100	H	-0.760137	2.234261	-0.378671
H101	H	-0.754694	2.154250	-0.470033
H102	H	-0.674487	2.245455	-0.464296
H103	H	-0.687125	2.085574	-0.325015
H104	H	-0.606914	2.176788	-0.319254
C105	C	-0.305863	2.062876	-0.706132
C106	C	-0.364874	2.134162	-0.647159
H107	H	-0.260244	2.100135	-0.751730
H108	H	-0.351615	2.020072	-0.746311
H109	H	-0.265694	2.020085	-0.660347
H110	H	-0.405048	2.176948	-0.692945
H111	H	-0.319115	2.176983	-0.606977
H112	H	-1.204489	1.384121	-0.640461
C113	C	-1.228487	1.257214	-0.767233
C114	C	-1.120597	1.242952	-0.781378
H115	H	-1.265719	1.211613	-0.812802
H116	H	-1.246380	1.327800	-0.782672
H117	H	-1.246533	1.241882	-0.696633
H118	H	-1.102550	1.258291	-0.851977
H119	H	-1.102697	1.172350	-0.765947
C120	C	-0.751108	1.930127	-0.387679
C121	C	-0.647069	1.903641	-0.365017
H122	H	-0.796719	1.892869	-0.342071
H123	H	-0.766445	1.912154	-0.458258
H124	H	-0.760721	2.003319	-0.378057
H125	H	-0.637455	1.830449	-0.374646
H126	H	-0.631727	1.921606	-0.294420
H127	H	-0.905900	1.261987	-0.762194
H128	H	-0.249463	1.774910	-1.106202
C129	C	-0.667002	1.484000	-0.739727
C130	C	-0.640218	1.384056	-0.776255
H131	H	-0.667007	1.484016	-0.665268
H132	H	-0.734790	1.502128	-0.764529
H133	H	-0.617359	1.533634	-0.764599
H134	H	-0.689866	1.334423	-0.751389
H135	H	-0.572420	1.365916	-0.751442
C136	C	-0.738635	1.357123	-0.540353
C137	C	-0.775095	1.383876	-0.640328
H138	H	-0.664177	1.357097	-0.540329
H139	H	-0.763523	1.289350	-0.522158
H140	H	-0.763468	1.406794	-0.490773
H141	H	-0.750269	1.334201	-0.689908
H142	H	-0.750197	1.451660	-0.658536
H143	H	-0.371306	1.652986	-1.205700
