data_functionalizedCrystal
_audit_creation_method	'MofGen! by Chris Wilmer'
_symmetry_space_group_name_H-M	'P1'
_symmetry_Int_Tables_number	1
_symmetry_cell_setting	triclinic
loop_
_symmetry_equiv_pos_as_xyz
  x,y,z
_cell_length_a	21.295417
_cell_length_b	17.077404
_cell_length_c	17.077396
_cell_angle_alpha	90.019501
_cell_angle_beta	89.966808
_cell_angle_gamma	89.969268
loop_
_atom_site_label
_atom_site_type_symbol
_atom_site_fract_x
_atom_site_fract_y
_atom_site_fract_z
Zn1	Zn	-0.250605	-1.200013	-0.443817
Zn2	Zn	-0.355878	-1.199903	-0.312540
Zn3	Zn	-0.250628	-1.068745	-0.312565
Zn4	Zn	-0.355841	-1.068695	-0.443764
O5	O	-0.303238	-1.134339	-0.378171
O6	O	-0.264577	-1.309845	-0.426415
O7	O	-0.341942	-1.182479	-0.202697
O8	O	-0.162535	-1.086225	-0.330008
O9	O	-0.341920	-1.309764	-0.329966
O10	O	-0.162519	-1.182667	-0.426439
O11	O	-0.264614	-1.086118	-0.202715
O12	O	-0.264578	-0.958891	-0.329957
O13	O	-0.341857	-1.086140	-0.553618
O14	O	-0.341878	-0.958855	-0.426348
O15	O	-0.264540	-1.182619	-0.553657
O16	O	-0.443963	-1.182431	-0.329915
O17	O	-0.443935	-1.086033	-0.426324
C18	C	-0.303227	-0.930391	-0.378150
C19	C	-0.303237	-0.843141	-0.378159
C20	C	-0.466790	-1.134236	-0.378128
C21	C	-0.536758	-1.134264	-0.378136
C22	C	-0.303192	-1.134386	-0.582916
C23	C	-0.303172	-1.134407	-0.670166
C24	C	-0.569618	-1.184503	-0.327987
C25	C	-0.635360	-1.184539	-0.328004
C26	C	-0.668240	-1.134323	-0.378163
C27	C	-0.635372	-1.084081	-0.428321
C28	C	-0.569631	-1.084051	-0.428308
N29	N	-0.771506	-1.065655	-0.384140
N30	N	-0.833958	-1.065685	-0.384148
C31	C	-0.866315	-1.134411	-0.378208
N32	N	-0.833862	-1.203107	-0.372244
N33	N	-0.771405	-1.203076	-0.372231
C34	C	-0.739526	-1.134351	-0.378183
C35	C	-0.970461	-1.184694	-0.328075
C36	C	-1.036204	-1.184732	-0.328098
C37	C	-1.036215	-1.084267	-0.428411
C38	C	-0.970473	-1.084236	-0.428392
C39	C	-0.937599	-1.134449	-0.378220
C40	C	-0.139048	-1.134464	-0.378232
C41	C	-0.069080	-1.134517	-0.378258
C42	C	-0.303250	-1.339083	-0.378194
C43	C	-0.303255	-1.426333	-0.378203
C44	C	-0.343548	-0.802153	-0.428270
C45	C	-0.343549	-0.720172	-0.428282
C46	C	-0.303242	-0.679182	-0.378180
C47	C	-0.262927	-0.720176	-0.328067
C48	C	-0.262923	-0.802155	-0.328059
C49	C	-0.262940	-0.549306	-0.328086
C50	C	-0.262944	-0.467322	-0.328093
C51	C	-0.343566	-0.467323	-0.428309
C52	C	-0.343562	-0.549302	-0.428301
C53	C	-0.303247	-0.590291	-0.378187
C54	C	-0.262910	-1.184645	-0.711177
C55	C	-0.262889	-1.184654	-0.793158
C56	C	-0.303134	-1.134429	-0.834125
C57	C	-0.343397	-1.084185	-0.793108
C58	C	-0.343415	-1.084172	-0.711129
C59	C	-0.343360	-1.084217	-0.963978
C60	C	-0.343343	-1.084231	-1.045963
C61	C	-0.262834	-1.184699	-1.046007
C62	C	-0.262851	-1.184686	-0.964028
C63	C	-0.303116	-1.134443	-0.923016
C64	C	-0.303239	-1.134337	-0.174224
C65	C	-0.303081	-1.134469	-0.086974
H66	H	-0.542854	-1.225390	-0.287136
H67	H	-0.662120	-1.225453	-0.287167
H68	H	-0.376375	-0.686803	-0.469086
H69	H	-0.230106	-0.582677	-0.287285
H70	H	-0.376138	-1.043291	-0.930589
C71	C	-0.533480	-1.028781	-0.483471
C72	C	-0.488220	-1.062739	-0.545118
C73	C	-0.452068	-1.007467	-0.600279
C74	C	-0.461175	-0.918238	-0.593793
C75	C	-0.506437	-0.884276	-0.532144
C76	C	-0.542590	-0.939548	-0.476982
H77	H	-0.481477	-1.128795	-0.549921
H78	H	-0.418562	-1.032608	-0.645916
H79	H	-0.434413	-0.877322	-0.634627
H80	H	-0.513181	-0.818219	-0.527341
H81	H	-0.576096	-0.914407	-0.431345
H82	H	-0.943694	-1.225583	-0.287224
C83	C	-0.387899	-0.594392	-0.483414
C84	C	-0.459455	-0.583078	-0.476846
C85	C	-0.503792	-0.628167	-0.531962
C86	C	-0.476573	-0.684571	-0.593644
C87	C	-0.405014	-0.695887	-0.600214
C88	C	-0.360677	-0.650798	-0.545099
H89	H	-0.479608	-0.541322	-0.431183
H90	H	-0.556766	-0.619789	-0.527098
H91	H	-0.509394	-0.717948	-0.634444
H92	H	-0.384861	-0.737643	-0.645878
H93	H	-0.307704	-0.659176	-0.549963
C94	C	-1.072375	-1.029026	-0.483585
C95	C	-1.144687	-1.029054	-0.483603
C96	C	-1.180851	-0.973812	-0.538780
C97	C	-1.144701	-0.918542	-0.593939
C98	C	-1.072384	-0.918512	-0.593924
C99	C	-1.036221	-0.973754	-0.538747
H100	H	-1.171451	-1.069970	-0.442768
H101	H	-1.234384	-0.973835	-0.538791
H102	H	-1.171471	-0.877649	-0.634785
H103	H	-1.045620	-0.877597	-0.634759
H104	H	-0.982687	-0.973731	-0.538736
C105	C	-0.934324	-1.028965	-0.483553
C106	C	-0.943431	-0.939736	-0.477068
C107	C	-0.907283	-0.884465	-0.532235
C108	C	-0.862028	-0.918424	-0.593888
C109	C	-0.852919	-1.007657	-0.600375
C110	C	-0.889067	-1.062928	-0.545208
H111	H	-0.976933	-0.914594	-0.431427
H112	H	-0.914026	-0.818409	-0.527432
H113	H	-0.835269	-0.877509	-0.634726
H114	H	-0.819417	-1.032799	-0.646016
H115	H	-0.882324	-1.128985	-0.550011
H116	H	-0.230140	-1.225547	-0.677828
H117	H	-0.230095	-0.835527	-0.287258
H118	H	-0.376372	-0.835521	-0.469066
H119	H	-0.376389	-0.433946	-0.469116
H120	H	-1.062958	-1.225648	-0.287263
C121	C	-0.671537	-1.028843	-0.483497
C122	C	-0.743850	-1.028870	-0.483511
C123	C	-0.780014	-0.973633	-0.538692
C124	C	-0.743865	-0.918368	-0.593858
C125	C	-0.671548	-0.918339	-0.593846
C126	C	-0.635384	-0.973576	-0.538665
H127	H	-0.770613	-1.069781	-0.442672
H128	H	-0.833548	-0.973655	-0.538701
H129	H	-0.770635	-0.877479	-0.634706
H130	H	-0.644785	-0.877428	-0.634685
H131	H	-0.581850	-0.973554	-0.538656
H132	H	-0.230115	-0.433949	-0.287304
C133	C	-0.218589	-0.675086	-0.272956
C134	C	-0.169209	-0.618768	-0.307092
C135	C	-0.124871	-0.573678	-0.251979
C136	C	-0.129913	-0.584906	-0.162728
C137	C	-0.179295	-0.641227	-0.128587
C138	C	-0.223633	-0.686317	-0.183701
H139	H	-0.165475	-0.610453	-0.373165
H140	H	-0.088315	-0.531985	-0.277253
H141	H	-0.097091	-0.551528	-0.121930
H142	H	-0.183029	-0.649541	-0.062515
H143	H	-0.260188	-0.728009	-0.158427
H144	H	-0.230084	-1.225588	-0.930675
H145	H	-0.376113	-1.043331	-1.079316
C146	C	-0.218599	-1.239919	-0.838267
C147	C	-0.223747	-1.329150	-0.827011
C148	C	-0.179452	-1.384415	-0.872118
C149	C	-0.130009	-1.350450	-0.928481
C150	C	-0.124860	-1.261215	-0.939741
C151	C	-0.169154	-1.205949	-0.894633
H152	H	-0.260349	-1.354297	-0.785285
H153	H	-0.183264	-1.450474	-0.863783
H154	H	-0.097220	-1.391361	-0.961872
H155	H	-0.088258	-1.236067	-0.981467
H156	H	-0.165342	-1.139891	-0.902969
C157	C	-0.218540	-1.239966	-1.091116
C158	C	-0.218515	-1.239981	-1.181290
C159	C	-0.174226	-1.295250	-1.226402
C160	C	-0.129963	-1.350503	-1.181341
C161	C	-0.129987	-1.350489	-1.091163
C162	C	-0.174275	-1.295221	-1.046050
H163	H	-0.251283	-1.199078	-1.214651
H164	H	-0.174209	-1.295260	-1.293159
H165	H	-0.097178	-1.391416	-1.214737
H166	H	-0.097219	-1.391393	-1.057801
H167	H	-0.174293	-1.295211	-0.979294
C168	C	-0.387668	-1.028942	-0.838175
C169	C	-0.437077	-1.062938	-0.894517
C170	C	-0.481351	-1.007697	-0.939586
C171	C	-0.476215	-0.918461	-0.928313
C172	C	-0.426803	-0.884460	-0.871969
C173	C	-0.382530	-0.939700	-0.826900
H174	H	-0.440881	-1.129000	-0.902864
H175	H	-0.517928	-1.032868	-0.981296
H176	H	-0.508989	-0.877569	-0.961676
H177	H	-0.423000	-0.818398	-0.863622
H178	H	-0.345952	-0.914530	-0.785190
H179	H	-0.376194	-1.043255	-0.677738
