data_functionalizedCrystal
_audit_creation_method	'MofGen! by Chris Wilmer'
_symmetry_space_group_name_H-M	'P1'
_symmetry_Int_Tables_number	1
_symmetry_cell_setting	triclinic
loop_
_symmetry_equiv_pos_as_xyz
  x,y,z
_cell_length_a	13.033286
_cell_length_b	25.639240
_cell_length_c	13.032268
_cell_angle_alpha	97.135339
_cell_angle_beta	105.163409
_cell_angle_gamma	82.864177
loop_
_atom_site_label
_atom_site_type_symbol
_atom_site_fract_x
_atom_site_fract_y
_atom_site_fract_z
Zn1	Zn	1.547305	-0.331374	-0.393790
Zn2	Zn	2.047305	0.168626	0.106210
Zn3	Zn	1.569722	-0.408954	-0.216168
Zn4	Zn	2.069722	0.091046	0.283832
Zn5	Zn	1.392265	-0.311708	-0.238807
Zn6	Zn	1.892265	0.188292	0.261193
Zn7	Zn	1.369636	-0.408934	-0.416322
Zn8	Zn	1.869636	0.091066	0.083678
O9	O	1.469732	-0.365243	-0.316272
O10	O	1.969732	0.134757	0.183728
O11	O	1.698900	-0.349904	-0.351324
O12	O	2.198900	0.150096	0.148676
O13	O	1.565033	-0.387833	-0.070544
O14	O	2.065033	0.112167	0.429456
O15	O	1.412921	-0.241160	-0.259411
O16	O	1.912921	0.258840	0.240589
O17	O	1.715369	-0.406902	-0.220826
O18	O	2.215369	0.093098	0.279174
O19	O	1.526828	-0.255609	-0.373276
O20	O	2.026828	0.244391	0.126724
O21	O	1.434657	-0.316387	-0.087177
O22	O	1.934657	0.183613	0.412823
O23	O	1.240642	-0.316367	-0.281258
O24	O	1.740642	0.183633	0.218742
O25	O	1.374353	-0.406867	-0.561959
O26	O	1.874353	0.093133	-0.061959
O27	O	1.224017	-0.387798	-0.411678
O28	O	1.724017	0.112202	0.088322
O29	O	1.504886	-0.349884	-0.545405
O30	O	2.004886	0.150116	-0.045405
O31	O	1.543091	-0.482108	-0.242673
O32	O	2.043091	0.017892	0.257327
O33	O	1.396089	-0.482093	-0.389726
O34	O	1.896089	0.017907	0.110274
C35	C	1.193794	-0.349947	-0.351370
C36	C	1.693794	0.150053	0.148630
C37	C	1.075743	-0.343417	-0.366411
C38	C	1.575743	0.156583	0.133589
C39	C	1.031273	-0.368652	-0.308448
C40	C	1.531273	0.131348	0.191552
C41	C	0.909262	-0.361904	-0.323992
C42	C	1.409262	0.138096	0.176008
C43	C	1.469593	-0.501072	-0.316207
C44	C	1.969593	-0.001072	0.183793
C45	C	1.469626	-0.559188	-0.316203
C46	C	1.969626	-0.059188	0.183797
C47	C	1.529062	-0.927056	-0.375680
C48	C	2.029062	-0.427056	0.124320
C49	C	1.529091	-0.981663	-0.375697
C50	C	2.029091	-0.481663	0.124303
O51	O	1.579458	-1.016266	-0.426204
O52	O	2.079458	-0.516266	0.073796
N53	N	1.469867	-1.001496	-0.316355
N54	N	1.969867	-0.501496	0.183645
C55	C	1.410601	-0.966718	-0.257001
C56	C	1.910601	-0.466718	0.242999
O57	O	1.360229	-0.988601	-0.206528
O58	O	1.860229	-0.488601	0.293472
C59	C	1.410568	-0.912111	-0.256990
C60	C	1.910568	-0.412111	0.243010
C61	C	1.469804	-0.892282	-0.316327
C62	C	1.969804	-0.392282	0.183673
C63	C	1.588293	-0.907226	-0.435013
C64	C	2.088293	-0.407226	0.064987
C65	C	1.588265	-0.852622	-0.434994
C66	C	2.088265	-0.352622	0.065006
C67	C	1.529007	-0.817849	-0.375641
C68	C	2.029007	-0.317849	0.124359
C69	C	1.469777	-0.837679	-0.316308
C70	C	1.969777	-0.337679	0.183692
C71	C	1.351297	-0.877335	-0.197642
C72	C	1.851297	-0.377335	0.302358
C73	C	1.351268	-0.822725	-0.197637
C74	C	1.851268	-0.322725	0.302363
C75	C	1.410504	-0.802896	-0.256974
C76	C	1.910504	-0.302896	0.243026
C77	C	1.410492	-0.748302	-0.256935
C78	C	1.910492	-0.248302	0.243065
N79	N	1.469716	-0.728469	-0.316277
N80	N	1.969716	-0.228469	0.183723
C81	C	1.528974	-0.763243	-0.375630
C82	C	2.028974	-0.263243	0.124370
C83	C	1.410676	-1.081395	-0.257029
C84	C	1.910676	-0.581395	0.242971
C85	C	1.410715	-1.136000	-0.257034
C86	C	1.910715	-0.636000	0.242966
C87	C	1.529203	-1.150942	-0.375732
C88	C	2.029203	-0.650942	0.124268
C89	C	1.529169	-1.096335	-0.375721
C90	C	2.029169	-0.596335	0.124279
C91	C	1.469900	-1.061562	-0.316371
C92	C	1.969900	-0.561562	0.183629
C93	C	1.528913	-0.648571	-0.375584
C94	C	2.028913	-0.148571	0.124416
C95	C	1.528884	-0.593962	-0.375556
C96	C	2.028884	-0.093962	0.124444
C97	C	1.410392	-0.579025	-0.256862
C98	C	1.910392	-0.079025	0.243138
C99	C	1.410425	-0.633629	-0.256886
C100	C	1.910425	-0.133629	0.243114
C101	C	1.469688	-0.668401	-0.316255
C102	C	1.969688	-0.168401	0.183745
O103	O	1.360147	-0.713667	-0.206458
O104	O	1.860147	-0.213667	0.293542
O105	O	1.579327	-0.741352	-0.426105
O106	O	2.079327	-0.241352	0.073895
C107	C	1.746748	-0.380599	-0.281036
C108	C	2.246748	0.119401	0.218964
C109	C	1.864796	-0.387143	-0.266021
C110	C	2.364796	0.112857	0.233979
C111	C	1.434595	-0.380567	-0.593297
C112	C	1.934595	0.119433	-0.093297
C113	C	1.419621	-0.387097	-0.711349
C114	C	1.919621	0.112903	-0.211349
C115	C	1.469898	-0.228886	-0.316355
C116	C	1.969898	0.271114	0.183645
C117	C	1.469969	-0.170778	-0.316391
C118	C	1.969969	0.329222	0.183609
C119	C	1.477530	-0.361815	-0.755789
C120	C	1.977530	0.138185	-0.255789
C121	C	1.462056	-0.368564	-0.877802
C122	C	1.962056	0.131436	-0.377802
C123	C	1.504794	-0.349944	-0.040316
C124	C	2.004794	0.150056	0.459684
C125	C	1.519973	-0.343278	0.077761
C126	C	2.019973	0.156722	0.577761
H127	H	1.023485	-0.316818	-0.427545
H128	H	1.523485	0.183182	0.072455
N129	N	1.346551	-0.655021	-0.192874
N130	N	1.846551	-0.155021	0.307126
H131	H	1.309012	-0.624704	-0.155269
H132	H	1.809012	-0.124704	0.344731
H133	H	1.291895	-0.677347	-0.242333
H134	H	1.791895	-0.177347	0.257667
N135	N	1.346487	-0.541514	-0.192841
N136	N	1.846487	-0.041514	0.307159
H137	H	1.355461	-0.503914	-0.201841
H138	H	1.855461	-0.003914	0.298159
H139	H	1.268538	-0.547792	-0.218964
H140	H	1.768538	-0.047792	0.281036
N141	N	1.287388	-0.898706	-0.133649
N142	N	1.787388	-0.398706	0.366351
H143	H	1.232676	-0.921025	-0.183047
H144	H	1.732676	-0.421025	0.316953
H145	H	1.336893	-0.921004	-0.078967
H146	H	1.836893	-0.421004	0.421033
H147	H	1.538561	-0.335171	-0.703508
H148	H	2.038561	0.164829	-0.203508
H149	H	1.636547	-0.935534	-0.483352
H150	H	2.136547	-0.435534	0.016648
H151	H	1.362492	-1.152139	-0.208702
H152	H	1.862492	-0.652139	0.291298
N153	N	1.592778	-0.572575	-0.439556
N154	N	2.092778	-0.072575	0.060444
H155	H	1.630317	-0.602893	-0.477160
H156	H	2.130317	-0.102893	0.022840
H157	H	1.543266	-0.550242	-0.494169
H158	H	2.043266	-0.050242	0.005831
H159	H	0.857008	-0.335303	-0.385131
H160	H	1.357008	0.164697	0.114869
N161	N	0.933993	-0.422379	-0.185029
N162	N	1.433993	0.077621	0.314971
H163	H	0.912642	-0.459594	-0.203814
H164	H	1.412642	0.040406	0.296186
H165	H	1.011323	-0.422164	-0.185434
H166	H	1.511323	0.077836	0.314566
N167	N	1.592817	-0.686070	-0.439629
N168	N	2.092817	-0.186070	0.060371
H169	H	1.630327	-0.665215	-0.477211
H170	H	2.130327	-0.165215	0.022789
H171	H	1.647498	-0.709057	-0.390199
H172	H	2.147498	-0.209057	0.109801
N173	N	1.652147	-0.831239	-0.499003
N174	N	2.152147	-0.331239	0.000997
H175	H	1.689681	-0.861560	-0.536604
H176	H	2.189681	-0.361560	-0.036604
H177	H	1.602629	-0.808910	-0.553619
H178	H	2.102629	-0.308910	-0.053619
H179	H	1.401010	-0.395203	-0.930081
H180	H	1.901010	0.104797	-0.430081
N181	N	1.338774	-0.422387	-0.780603
N182	N	1.838774	0.077613	-0.280603
H183	H	1.357644	-0.459598	-0.759241
H184	H	1.857644	0.040402	-0.259241
H185	H	1.265355	-0.408960	-0.770989
H186	H	1.765355	0.091040	-0.270989
H187	H	1.581007	-0.316631	-0.869962
H188	H	2.081007	0.183369	-0.369962
N189	N	1.346761	-1.043895	-0.192991
N190	N	1.846761	-0.543895	0.307009
H191	H	1.396189	-1.020907	-0.138305
H192	H	1.896189	-0.520907	0.361695
H193	H	1.292022	-1.020939	-0.242434
H194	H	1.792022	-0.520939	0.257566
H195	H	1.083530	-0.395255	-0.247320
H196	H	1.583530	0.104745	0.252680
N197	N	1.593057	-1.074950	-0.439721
N198	N	2.093057	-0.574950	0.060279
H199	H	1.630600	-1.105269	-0.477317
H200	H	2.130600	-0.605269	0.022683
H201	H	1.543543	-1.052622	-0.494341
H202	H	2.043543	-0.552622	0.005659
H203	H	1.577452	-1.179265	-0.424063
H204	H	2.077452	-0.679265	0.075937
N205	N	1.287338	-0.785220	-0.133625
N206	N	1.787338	-0.285220	0.366375
H207	H	1.249821	-0.806072	-0.096041
H208	H	1.749821	-0.306072	0.403959
H209	H	1.336823	-0.762239	-0.078993
H210	H	1.836823	-0.262239	0.421007
