data_functionalizedCrystal
_audit_creation_method	'MofGen! by Chris Wilmer'
_symmetry_space_group_name_H-M	'P1'
_symmetry_Int_Tables_number	1
_symmetry_cell_setting	triclinic
loop_
_symmetry_equiv_pos_as_xyz
  x,y,z
_cell_length_a	14.809436
_cell_length_b	14.809374
_cell_length_c	14.809436
_cell_angle_alpha	57.530686
_cell_angle_beta	88.612594
_cell_angle_gamma	57.531060
loop_
_atom_site_label
_atom_site_type_symbol
_atom_site_fract_x
_atom_site_fract_y
_atom_site_fract_z
Zr1	Zr	1.116726	0.627131	0.116165
O2	O	0.973498	0.847013	-0.027065
O3	O	1.139154	0.453747	0.138592
O4	O	1.151679	0.650380	-0.039588
O5	O	0.975527	0.615827	0.316100
O6	O	1.316665	0.615826	-0.025032
O7	O	0.960973	0.650380	0.151115
O8	O	1.294260	0.264086	0.293700
O9	O	0.997932	0.967567	-0.002631
O10	O	1.297797	0.482054	0.184972
O11	O	1.185531	0.482055	0.297236
O12	O	1.200278	0.713564	0.087452
O13	O	1.088012	0.713565	0.199715
Zr14	Zr	1.403071	0.516914	0.402513
Zr15	Zr	1.379860	0.572022	0.139380
Zr16	Zr	1.139938	0.572023	0.379298
Zr17	Zr	1.155695	0.819401	0.155134
Zr18	Zr	1.364102	0.324644	0.363543
O19	O	1.380644	0.690299	0.380085
O20	O	1.347640	0.768655	0.005944
O21	O	1.006502	0.768656	0.347076
O22	O	1.546299	0.297032	0.545743
O23	O	1.513295	0.375389	0.171602
O24	O	1.172158	0.375390	0.512734
O25	O	1.544270	0.528218	0.202577
O26	O	1.368119	0.493666	0.558265
O27	O	1.203133	0.528219	0.543709
O28	O	1.558824	0.493665	0.367563
O29	O	1.207088	0.923763	0.015822
O30	O	1.312710	0.220282	0.502856
O31	O	1.521865	0.176478	0.521309
O32	O	1.503415	0.220282	0.312153
O33	O	1.016382	0.923764	0.206524
O34	O	1.225538	0.879959	0.224977
O35	O	1.319520	0.430481	0.431226
O36	O	1.431785	0.430481	0.318962
O37	O	1.334266	0.661991	0.221442
O38	O	1.222001	0.661991	0.333706
C39	C	1.211154	0.331522	0.210594
C40	C	1.194611	0.249898	0.194050
C41	C	0.930759	0.640956	0.230300
C42	C	0.819053	0.664351	0.220444
C43	C	1.268442	0.114210	0.267882
C44	C	1.251345	0.029845	0.250785
C45	C	0.702175	0.584107	0.254250
C46	C	0.817631	0.559925	0.264433
C47	C	1.589038	0.503090	0.288378
C48	C	1.700745	0.479695	0.298233
C49	C	1.230865	0.640955	-0.069801
C50	C	1.221011	0.664350	-0.181507
C51	C	1.308643	0.812523	0.308084
C52	C	1.325186	0.894147	0.324627
C53	C	1.254807	0.584107	-0.298385
C54	C	1.264997	0.559924	-0.182929
C55	C	1.288933	0.503091	0.588478
C56	C	1.298787	0.479696	0.700185
C57	C	1.540294	0.262589	0.239633
C58	C	1.635457	0.157570	0.232945
C59	C	1.240189	0.262590	0.539733
C60	C	1.233499	0.157572	0.634896
C61	C	1.569328	0.193657	0.568772
C62	C	1.674345	0.065244	0.673791
C63	C	0.950470	0.950388	-0.050095
C64	C	0.845452	1.078802	-0.155113
C65	C	0.979504	0.881456	0.279045
C66	C	0.884340	0.986475	0.285733
C67	C	1.279609	0.881455	-0.021056
C68	C	1.286298	0.986474	-0.116219
C69	C	1.782275	0.004937	0.664509
C70	C	1.880962	-0.115711	0.763179
C71	C	1.871715	-0.176055	0.871128
C72	C	1.763774	-0.115737	0.880407
C73	C	1.665091	0.004914	0.781740
C74	C	0.737524	1.139118	-0.145830
C75	C	0.638843	1.259790	-0.244495
C76	C	0.648090	1.320137	-0.352442
C77	C	0.756030	1.259815	-0.361723
C78	C	0.854710	1.139151	-0.263059
C79	C	1.674704	0.022791	0.307238
C80	C	1.764107	-0.075895	0.300955
C81	C	1.814269	-0.039800	0.220383
C82	C	1.775015	0.094994	0.146082
C83	C	1.685607	0.193679	0.152361
C84	C	1.152915	0.193709	0.685029
C85	C	1.146606	0.095052	0.774435
C86	C	1.220888	-0.039745	0.813712
C87	C	1.301477	-0.075882	0.763571
C88	C	1.307779	0.022777	0.674161
C89	C	0.834207	0.950338	0.366317
C90	C	0.744801	1.048996	0.372625
C91	C	0.705525	1.183793	0.298342
C92	C	0.755667	1.219929	0.217754
C93	C	0.845077	1.121269	0.211452
C94	C	1.212005	1.121253	-0.155467
C95	C	1.218289	1.219939	-0.244871
C96	C	1.298862	1.183844	-0.295031
C97	C	1.373162	1.049050	-0.255775
C98	C	1.366883	0.950365	-0.166367
H99	H	1.344305	0.060500	0.343753
H100	H	1.756262	-0.164887	0.968312
Cl101	Cl	1.110703	1.166664	-0.092427
H102	H	1.887067	-0.120168	0.215280
Cl103	Cl	2.016643	-0.191518	0.751486
Cl104	Cl	0.524022	1.471830	-0.476469
Cl105	Cl	1.124869	1.389384	-0.294206
H106	H	1.175471	0.083566	0.174915
H107	H	1.343977	0.372404	-0.215564
Cl108	Cl	1.306738	1.307925	-0.407433
H109	H	0.632720	1.264115	0.303484
Cl110	Cl	1.059516	0.363161	0.635670
H111	H	0.734803	0.771653	0.175244
H112	H	1.815869	0.124364	0.080482
H113	H	1.633873	-0.006623	0.372851
Cl114	Cl	0.947703	0.394256	0.334224
H115	H	1.796056	-0.185643	0.361464
Cl116	Cl	0.572104	0.749764	0.184480
Cl117	Cl	1.442326	-0.188805	0.441775
Cl118	Cl	0.830817	0.314034	0.368021
Cl119	Cl	0.883564	0.780887	0.459715
Cl120	Cl	1.474440	1.003698	-0.318854
H121	H	1.427380	0.840624	-0.134424
H122	H	1.653664	0.303419	0.091863
H123	H	1.952078	-0.274296	0.951460
Cl124	Cl	0.681780	1.003541	0.473939
Cl125	Cl	1.529410	0.080707	0.793427
Cl126	Cl	1.077470	0.332836	0.076917
Cl127	Cl	1.394856	-0.245350	0.812966
Cl128	Cl	1.185012	0.749770	-0.428459
Cl129	Cl	1.151221	0.830019	-0.311578
H130	H	1.310190	0.452624	-0.098678
H131	H	1.789826	0.054052	0.576621
H132	H	0.729971	1.089993	-0.057944
Cl133	Cl	0.503161	1.335594	-0.232802
Cl134	Cl	0.767636	1.335694	-0.497439
H135	H	0.723676	1.329692	0.157278
H136	H	1.215743	-0.120067	0.886516
Cl137	Cl	0.990386	1.063332	-0.274751
Cl138	Cl	1.045293	0.140507	0.837457
H139	H	1.373407	-0.006668	0.633354
H140	H	0.885886	1.150713	0.145827
