data_functionalizedCrystal
_audit_creation_method	'MofGen! by Chris Wilmer'
_symmetry_space_group_name_H-M	'P1'
_symmetry_Int_Tables_number	1
_symmetry_cell_setting	triclinic
loop_
_symmetry_equiv_pos_as_xyz
  x,y,z
_cell_length_a	17.000371
_cell_length_b	16.098524
_cell_length_c	14.044220
_cell_angle_alpha	87.176494
_cell_angle_beta	95.605937
_cell_angle_gamma	93.245953
loop_
_atom_site_label
_atom_site_type_symbol
_atom_site_fract_x
_atom_site_fract_y
_atom_site_fract_z
O1	O	1.061939	0.069261	-0.037453
O2	O	0.832635	0.069263	-0.071652
O3	O	0.943845	0.069254	0.083146
O4	O	0.950729	0.069270	-0.192251
O5	O	0.936983	-0.069260	0.090145
O6	O	0.825773	-0.069251	-0.064653
O7	O	1.055077	-0.069253	-0.030454
Zn8	Zn	0.939336	-0.091244	-0.046442
Zn9	Zn	0.948376	0.091254	-0.055664
O10	O	0.943867	-0.069244	-0.185252
C11	C	0.799680	0.000006	-0.069990
C12	C	0.711710	0.000006	-0.075452
N13	N	0.933171	-0.215794	-0.040148
C14	C	0.673716	-0.000000	0.008606
C15	C	0.591058	0.000006	0.003468
C16	C	0.546395	0.000013	-0.085729
C17	C	0.584395	0.000022	-0.169794
C18	C	0.667051	0.000021	-0.164655
C19	C	0.296659	0.000020	-0.105580
C20	C	0.213997	0.000017	-0.110712
C21	C	0.220665	0.000003	0.062550
C22	C	0.303323	-0.000002	0.067681
C23	C	0.341316	0.000011	-0.016383
C24	C	0.461905	0.000017	-0.090984
C25	C	0.425804	0.000013	-0.011129
C26	C	0.983062	-0.259373	-0.091133
C27	C	0.978760	-0.346562	-0.086723
C28	C	0.924563	-0.390172	-0.031332
C29	C	0.874670	-0.346587	0.019660
C30	C	0.878976	-0.259399	0.015254
C31	C	0.908960	-0.653424	-0.015364
C32	C	0.904655	-0.740618	-0.010965
C33	C	1.008747	-0.740587	-0.117346
C34	C	1.013046	-0.653397	-0.121752
C35	C	0.963156	-0.609820	-0.070756
C36	C	0.920162	-0.479293	-0.026825
C37	C	0.967560	-0.520700	-0.075258
C38	C	1.088032	0.000006	-0.032116
C39	C	1.176003	0.000011	-0.026654
C40	C	0.937400	-0.000004	0.121708
C41	C	0.928412	-0.000005	0.226185
N42	N	0.954546	0.215804	-0.061950
C43	C	0.950312	0.000015	-0.223815
C44	C	0.959300	0.000022	-0.328292
C45	C	0.911981	0.000007	0.417476
C46	C	0.975728	0.000010	0.480423
C47	C	0.966585	0.000016	0.586864
C48	C	0.921122	0.000001	0.311025
H49	H	0.710074	-0.000009	0.081241
C50	C	0.178867	-0.000003	0.155015
N51	N	0.147385	-0.000005	0.224663
H52	H	0.177634	0.000019	-0.183351
C53	C	0.474936	0.000001	0.086986
N54	N	0.511948	-0.000014	0.160886
C55	C	1.058733	-0.000003	0.445233
N56	N	1.121249	-0.000016	0.418724
C57	C	0.535263	0.000028	-0.267912
N58	N	0.498257	0.000028	-0.341817
C59	C	0.352446	-0.000010	0.165805
N60	N	0.389446	-0.000018	0.239714
C61	C	0.338439	0.000017	-0.198054
N62	N	0.369910	0.000010	-0.267709
H63	H	0.697984	0.000023	-0.233104
C64	C	1.042684	-0.211410	-0.152067
N65	N	1.087596	-0.175287	-0.197961
C66	C	1.033616	-0.394494	-0.142851
N67	N	1.074926	-0.430596	-0.185144
C68	C	1.072672	-0.605433	-0.182679
N69	N	1.117584	-0.569307	-0.228571
H70	H	0.560127	0.000001	0.071917
H71	H	0.425532	0.000021	-0.163608
C72	C	0.828981	-0.000003	0.452668
N73	N	0.766465	-0.000017	0.479186
H74	H	1.049366	-0.776076	-0.158863
H75	H	0.868336	-0.617954	0.026161
C76	C	0.845038	-0.788586	0.049981
N77	N	0.800138	-0.824716	0.095885
H78	H	0.830545	-0.382101	0.064765
H79	H	0.838349	-0.223919	0.056772
C80	C	0.860539	-0.527272	0.034094
N81	N	0.815630	-0.563413	0.079977
H82	H	1.011690	-0.485189	-0.120354
