data_functionalizedCrystal
_audit_creation_method	'MofGen! by Chris Wilmer'
_symmetry_space_group_name_H-M	'P1'
_symmetry_Int_Tables_number	1
_symmetry_cell_setting	triclinic
loop_
_symmetry_equiv_pos_as_xyz
  x,y,z
_cell_length_a	13.635800
_cell_length_b	13.212940
_cell_length_c	17.078481
_cell_angle_alpha	89.529186
_cell_angle_beta	99.306161
_cell_angle_gamma	73.700541
loop_
_atom_site_label
_atom_site_type_symbol
_atom_site_fract_x
_atom_site_fract_y
_atom_site_fract_z
V1	V	1.994375	-0.144220	0.237017
O2	O	1.983796	0.007181	0.243168
O3	O	1.974781	-0.286205	0.225140
O4	O	1.959824	-0.141891	0.345067
O5	O	1.998856	-0.138131	0.122411
V6	V	2.236933	-0.126123	0.224555
O7	O	2.123256	-0.183915	0.264353
O8	O	2.333150	-0.086428	0.197219
O9	O	2.144923	0.015862	0.236431
O10	O	2.306211	-0.277524	0.218404
O11	O	2.291150	-0.132212	0.339160
O12	O	2.159880	-0.128452	0.116505
V13	V	2.494375	-0.144220	0.237017
O14	O	2.483796	0.007181	0.243168
O15	O	2.474781	-0.286205	0.225140
O16	O	2.459824	-0.141891	0.345067
O17	O	2.498856	-0.138131	0.122411
V18	V	2.736933	-0.126123	0.224555
O19	O	2.623256	-0.183915	0.264353
O20	O	2.833150	-0.086428	0.197219
O21	O	2.644923	0.015862	0.236431
O22	O	2.806211	-0.277524	0.218404
O23	O	2.791150	-0.132212	0.339160
O24	O	2.659880	-0.128452	0.116505
C25	C	1.898737	-0.320821	0.218755
C26	C	1.923291	-0.436895	0.209765
C27	C	1.996759	-0.684692	0.336064
C28	C	2.019830	-0.793754	0.327621
C29	C	1.992499	-0.764084	0.184435
C30	C	1.969428	-0.655022	0.192879
C31	C	1.971560	-0.615330	0.268696
C32	C	1.948495	-0.506266	0.277139
C33	C	1.921158	-0.476597	0.133954
C34	C	1.944229	-0.585660	0.125510
C35	C	1.879657	-0.136734	0.371732
C36	C	1.892081	-0.135769	0.459996
C37	C	2.052639	0.050472	0.242814
C38	C	2.017703	0.166545	0.251809
C39	C	2.071719	-0.133613	0.089835
C40	C	2.048915	-0.134572	0.001571
C41	C	2.398737	-0.320821	0.218755
C42	C	2.423291	-0.436895	0.209765
C43	C	2.379657	-0.136734	0.371732
C44	C	2.392081	-0.135769	0.459996
C45	C	1.988752	-0.140529	0.505131
C46	C	2.000419	-0.139622	0.588064
C47	C	1.915415	-0.133963	0.625861
C48	C	1.818735	-0.129201	0.580721
C49	C	1.807067	-0.130100	0.497789
C50	C	1.940567	-0.130708	0.873498
C51	C	1.952243	-0.129813	0.956436
C52	C	2.133927	-0.140232	0.963773
C53	C	2.122252	-0.141137	0.880840
C54	C	2.025572	-0.136369	0.835706
N55	N	1.927339	-0.133040	0.710632
N56	N	2.013648	-0.137285	0.750936
C57	C	2.552639	0.050472	0.242814
C58	C	2.517703	0.166545	0.251809
C59	C	2.571719	-0.133613	0.089835
C60	C	2.548915	-0.134572	0.001571
C61	C	2.525679	-0.496724	0.209126
C62	C	2.548767	-0.605791	0.200690
C63	C	2.469464	-0.655025	0.192889
C64	C	2.367068	-0.595188	0.193531
C65	C	2.343983	-0.486125	0.201972
C66	C	2.488758	-0.140518	0.505117
C67	C	2.500442	-0.139599	0.588050
C68	C	2.415449	-0.133937	0.625862
C69	C	2.318763	-0.129185	0.580735
C70	C	2.307079	-0.130097	0.497803
C71	C	2.587809	0.226374	0.252451
C72	C	2.554993	0.335440	0.260890
C73	C	2.452072	0.384674	0.268693
C74	C	2.381961	0.324838	0.268048
C75	C	2.414776	0.215775	0.259604
C76	C	2.451675	-0.140221	-0.036220
C77	C	2.430230	-0.141110	-0.119154
C78	C	2.506029	-0.136357	-0.164295
C79	C	2.603276	-0.130704	-0.126499
C80	C	2.624717	-0.129808	-0.043567
H81	H	1.950243	-0.473952	0.338873
H82	H	2.357683	0.167068	0.259089
H83	H	2.671617	0.186303	0.246099
F84	F	2.657749	-0.669455	0.200005
H85	H	2.703902	-0.125214	-0.012805
F86	F	2.326730	-0.147133	-0.159363
H87	H	2.612095	0.384144	0.261414
H88	H	2.079136	-0.143491	0.624809
F89	F	1.999042	-0.642447	0.416753
H90	H	2.425366	0.473481	0.275568
F91	F	2.272425	0.377253	0.276349
H92	H	1.942494	-0.617992	0.063782
F93	F	2.370988	-0.145281	0.011809
H94	H	2.488561	-0.137100	-0.231823
F95	F	2.079230	-0.146558	0.464912
H96	H	2.557975	-0.145131	0.474342
F97	F	2.046643	-0.867571	0.399324
F98	F	2.204180	-0.125053	0.449791
F99	F	1.894312	-0.402767	0.062249
H100	H	2.191473	-0.145744	0.850071
H101	H	1.990761	-0.796420	0.122708
F102	F	2.683940	-0.125654	-0.174554
H103	H	2.212640	-0.144113	1.000530
H104	H	1.883016	-0.125202	0.987208
H105	H	2.488276	-0.743833	0.186017
F106	F	2.610097	-0.444347	0.217432
F107	F	1.728267	-0.123177	0.620950
F108	F	1.837678	-0.125656	0.825475
F109	F	2.603351	-0.144663	0.636063
F110	F	2.282678	-0.647602	0.185225
H111	H	1.728342	-0.126199	0.461040
H112	H	2.260607	-0.437418	0.202488
F113	F	2.228317	-0.123170	0.620989
H114	H	2.424977	-0.133196	0.693391
