data_functionalizedCrystal
_audit_creation_method	'MofGen! by Chris Wilmer'
_symmetry_space_group_name_H-M	'P1'
_symmetry_Int_Tables_number	1
_symmetry_cell_setting	triclinic
loop_
_symmetry_equiv_pos_as_xyz
  x,y,z
_cell_length_a	14.185197
_cell_length_b	9.065218
_cell_length_c	9.065218
_cell_angle_alpha	94.984115
_cell_angle_beta	75.401036
_cell_angle_gamma	104.592291
loop_
_atom_site_label
_atom_site_type_symbol
_atom_site_fract_x
_atom_site_fract_y
_atom_site_fract_z
O1	O	0.083420	-1.930136	0.186079
O2	O	0.083421	-1.500850	0.203825
O3	O	0.083418	-1.724367	-0.019690
O4	O	0.083422	-1.706619	0.409593
O5	O	-0.083425	-1.784881	0.040861
O6	O	-0.083423	-1.561364	0.264375
O7	O	-0.083424	-1.990649	0.246629
Cu8	Cu	-0.098657	-1.781532	0.261031
Cu9	Cu	0.098654	-1.709968	0.189423
O10	O	-0.083421	-1.767133	0.470144
C11	C	-0.000001	-1.476121	0.232394
C12	C	-0.000000	-1.312277	0.227295
N13	N	-0.237435	-1.831877	0.311395
C14	C	-0.000002	-1.752918	-0.044402
C15	C	0.000003	-1.747816	-0.208247
C16	C	-0.605039	-1.511812	-0.008879
C17	C	-0.710066	-1.549928	0.029260
C18	C	-0.710053	-1.731272	0.210732
C19	C	-0.605024	-1.693177	0.172602
C20	C	-0.552526	-1.583445	0.062797
C21	C	-0.552510	-1.764809	0.244278
C22	C	-0.447490	-1.726710	0.206157
C23	C	-0.394984	-1.616979	0.096359
C24	C	-0.447506	-1.545346	0.024676
C25	C	-0.605011	-1.874533	0.354091
C26	C	-0.552497	-1.946165	0.425767
C27	C	-0.447475	-1.908075	0.387638
C28	C	-0.394969	-1.798344	0.277841
C29	C	-0.394954	-1.979708	0.459322
C30	C	-0.289934	-1.941610	0.421200
C31	C	-0.289949	-1.760245	0.239719
N32	N	0.237433	-1.659634	0.139047
C33	C	0.000000	-2.015378	0.218059
C34	C	0.000006	-2.179219	0.223156
C35	C	0.000001	-1.738581	0.494855
C36	C	0.000003	-1.743680	0.658697
H37	H	-0.247202	-1.670897	0.150298
C38	C	-0.766930	-1.850609	0.329796
C39	C	-0.741362	-1.989470	0.281894
C40	C	-0.793724	-2.099438	0.391542
H41	H	-0.837012	-1.863243	0.342327
H42	H	-0.749693	-1.818383	0.424142
H43	H	-0.758605	-2.021689	0.187576
H44	H	-0.671288	-1.976885	0.269374
H45	H	-0.776488	-2.067212	0.485888
H46	H	-0.863804	-2.112058	0.404065
H47	H	-0.776377	-2.193663	0.359063
H48	H	-0.309470	-1.585953	0.065330
H49	H	-0.404758	-1.455998	-0.064745
C50	C	-0.548211	-1.392585	-0.128089
C51	C	-0.616676	-1.337979	-0.182689
C52	C	-0.564363	-1.228137	-0.292484
H53	H	-0.507239	-1.437127	-0.210145
H54	H	-0.507265	-1.310551	-0.083458
H55	H	-0.657604	-1.419998	-0.227321
H56	H	-0.657651	-1.293409	-0.100670
H57	H	-0.523417	-1.146103	-0.247853
H58	H	-0.523392	-1.272691	-0.374530
H59	H	-0.610807	-1.191063	-0.329534
H60	H	-0.690525	-1.905548	0.385127
C61	C	-0.609555	-2.065517	0.544740
C62	C	-0.669829	-2.186129	0.478533
C63	C	-0.722393	-2.296117	0.588076
H64	H	-0.650604	-2.021024	0.626734
H65	H	-0.563268	-2.102825	0.581948
H66	H	-0.716111	-2.148824	0.441349
H67	H	-0.628806	-2.230664	0.396551
H68	H	-0.676106	-2.333425	0.625284
H69	H	-0.763436	-2.251610	0.670064
H70	H	-0.763288	-2.377972	0.543167
C71	C	-0.451778	-2.098822	0.578632
C72	C	-0.383310	-2.153378	0.633270
C73	C	-0.435617	-2.263093	0.743195
H74	H	-0.492756	-2.180906	0.534147
H75	H	-0.492719	-2.054139	0.660642
H76	H	-0.342386	-2.198063	0.551275
H77	H	-0.342330	-2.071331	0.677783
H78	H	-0.476559	-2.218410	0.825205
H79	H	-0.476593	-2.345168	0.698697
H80	H	-0.389170	-2.300113	0.780291
H81	H	-0.752819	-1.491583	-0.029112
H82	H	-0.247176	-1.999935	0.479572
