data_functionalizedCrystal
_audit_creation_method	'MofGen! by Chris Wilmer'
_symmetry_space_group_name_H-M	'P1'
_symmetry_Int_Tables_number	1
_symmetry_cell_setting	triclinic
loop_
_symmetry_equiv_pos_as_xyz
  x,y,z
_cell_length_a	19.188930
_cell_length_b	17.038272
_cell_length_c	15.500227
_cell_angle_alpha	93.043705
_cell_angle_beta	92.813384
_cell_angle_gamma	92.871831
loop_
_atom_site_label
_atom_site_type_symbol
_atom_site_fract_x
_atom_site_fract_y
_atom_site_fract_z
O1	O	0.148564	-1.040536	-0.071852
O2	O	0.648564	-0.540536	0.428148
O3	O	0.146156	-0.812914	-0.071877
O4	O	0.646156	-0.312914	0.428123
O5	O	0.046114	-0.933292	-0.071847
O6	O	0.546114	-0.433292	0.428153
O7	O	0.248607	-0.920157	-0.071882
O8	O	0.748607	-0.420157	0.428118
O9	O	0.052159	-0.925988	0.072040
O10	O	0.552159	-0.425988	0.572040
O11	O	0.152202	-0.805609	0.072009
O12	O	0.652202	-0.305609	0.572009
O13	O	0.154610	-1.033231	0.072035
O14	O	0.654610	-0.533231	0.572035
Cu15	Cu	0.153958	-0.918753	0.085160
Cu16	Cu	0.653958	-0.418753	0.585160
Cu17	Cu	0.146808	-0.927392	-0.085003
Cu18	Cu	0.646808	-0.427392	0.414997
O19	O	0.254653	-0.912852	0.072004
O20	O	0.754653	-0.412852	0.572004
C21	C	0.146990	-0.780140	0.000063
C22	C	0.646990	-0.280140	0.500063
C23	C	0.140458	-0.693368	0.000054
C24	C	0.640458	-0.193368	0.500054
C25	C	0.023099	-0.929214	0.000099
C26	C	0.523099	-0.429214	0.500099
C27	C	-0.054485	-0.927937	0.000106
C28	C	0.445515	-0.427937	0.500106
C29	C	0.153776	-1.066004	0.000092
C30	C	0.653776	-0.566004	0.500092
C31	C	0.160308	-1.152777	0.000095
C32	C	0.660308	-0.652777	0.500095
C33	C	-0.095020	-0.998572	0.000118
C34	C	0.404980	-0.498572	0.500118
C35	C	-0.167919	-0.997373	0.000104
C36	C	0.332081	-0.497373	0.500104
C37	C	-0.200279	-0.925534	0.000095
C38	C	0.299721	-0.425534	0.500095
C39	C	-0.159734	-0.854890	0.000079
C40	C	0.340266	-0.354890	0.500079
C41	C	-0.086837	-0.856092	0.000084
C42	C	0.413163	-0.356092	0.500084
N43	N	-0.309638	-0.868136	0.049057
N44	N	0.190362	-0.368136	0.549057
N45	N	-0.378887	-0.866999	0.049053
N46	N	0.121113	-0.366999	0.549053
C47	C	-0.419913	-0.921909	0.000077
C48	C	0.080087	-0.421909	0.500077
N49	N	-0.389074	-0.978011	-0.048884
N50	N	0.110926	-0.478011	0.451116
N51	N	-0.319818	-0.979150	-0.048877
N52	N	0.180182	-0.479150	0.451123
C53	C	-0.279323	-0.924223	0.000089
C54	C	0.220677	-0.424223	0.500089
C55	C	-0.539494	-0.991249	0.000073
C56	C	-0.039494	-0.491249	0.500073
C57	C	-0.612395	-0.990047	0.000054
C58	C	-0.112395	-0.490047	0.500054
C59	C	-0.604208	-0.847562	0.000037
C60	C	-0.104208	-0.347562	0.500037
C61	C	-0.531310	-0.848767	0.000048
C62	C	-0.031310	-0.348767	0.500048
C63	C	-0.498957	-0.920612	0.000070
C64	C	0.001043	-0.420612	0.500070
C65	C	0.277667	-0.916930	0.000057
C66	C	0.777667	-0.416930	0.500057
C67	C	0.355250	-0.918208	0.000044
C68	C	0.855250	-0.418208	0.500044
N69	N	0.158986	-0.912682	0.204843
N70	N	0.658986	-0.412682	0.704843
C71	C	0.200424	-0.643067	0.000044
C72	C	0.700424	-0.143067	0.500044
C73	C	0.194283	-0.561535	0.000057
C74	C	0.694283	-0.061535	0.500057
C75	C	0.128176	-0.530306	0.000074
C76	C	0.628176	-0.030306	0.500074
C77	C	0.068205	-0.580613	0.000086
C78	C	0.568205	-0.080613	0.500086
C79	C	0.074347	-0.662143	0.000080
C80	C	0.574347	-0.162143	0.500080
C81	C	0.106479	-0.284614	0.000101
C82	C	0.606479	0.215386	0.500101
C83	C	0.100342	-0.203078	0.000105
C84	C	0.600342	0.296922	0.500105
C85	C	0.226421	-0.184005	0.000078
C86	C	0.726421	0.315995	0.500078
C87	C	0.232556	-0.265538	0.000066
C88	C	0.732556	0.234462	0.500066
C89	C	0.172586	-0.315838	0.000083
C90	C	0.672586	0.184162	0.500083
C91	C	0.121897	-0.446967	0.000085
C92	C	0.621897	0.053033	0.500085
C93	C	0.178865	-0.399174	0.000078
C94	C	0.678865	0.100826	0.500078
N95	N	0.141775	-0.933468	-0.204686
N96	N	0.641775	-0.433468	0.295314
C97	C	0.116612	-0.963709	0.250133
C98	C	0.616612	-0.463709	0.750133
C99	C	0.120422	-0.959125	0.340705
C100	C	0.620422	-0.459125	0.840705
C101	C	0.166610	-0.903518	0.385985
C102	C	0.666610	-0.403518	0.885985
C103	C	0.208985	-0.852486	0.340689
C104	C	0.708985	-0.352486	0.840689
C105	C	0.205171	-0.857067	0.250119
C106	C	0.705171	-0.357067	0.750119
C107	C	0.180337	-0.887017	0.659448
C108	C	0.680337	-0.387017	1.159448
C109	C	0.184149	-0.882442	0.750024
C110	C	0.684149	-0.382442	1.250024
C111	C	0.095584	-0.989080	0.750033
C112	C	0.595584	-0.489080	1.250033
C113	C	0.091778	-0.993659	0.659461
C114	C	0.591778	-0.493659	1.159461
C115	C	0.134150	-0.942624	0.614174
C116	C	0.634150	-0.442624	1.114174
C117	C	0.170506	-0.898833	0.478564
C118	C	0.670506	-0.398833	0.978564
C119	C	0.130250	-0.947306	0.521596
C120	C	0.630250	-0.447306	1.021596
H121	H	-0.200929	-1.054894	0.000110
H122	H	0.299071	-0.554894	0.500110
H123	H	0.239676	-0.815515	0.213246
H124	H	0.739676	-0.315515	0.713246
C125	C	-0.194993	-0.776970	0.000114
C126	C	0.305007	-0.276970	0.500114
C127	C	-0.267509	-0.791034	0.000137
C128	C	0.232491	-0.291034	0.500137
C129	C	-0.300011	-0.719271	0.000177
C130	C	0.199989	-0.219271	0.500177
H131	H	-0.183548	-0.750384	-0.050053
H132	H	0.316452	-0.250384	0.449947
H133	H	-0.179302	-0.745339	0.050307
H134	H	0.320698	-0.245339	0.550307
H135	H	-0.283194	-0.822652	-0.050051
H136	H	0.216806	-0.322652	0.449949
H137	H	-0.278975	-0.817609	0.050300
H138	H	0.221025	-0.317609	0.550300
H139	H	-0.284320	-0.687640	0.050370
H140	H	0.215680	-0.187640	0.550370
H141	H	-0.288560	-0.692690	-0.049991
H142	H	0.211440	-0.192690	0.450009
H143	H	-0.349215	-0.728803	0.000200
H144	H	0.150785	-0.228803	0.500200
H145	H	0.092641	-0.992579	0.484726
H146	H	0.592641	-0.492579	0.984726
H147	H	0.068073	-0.421530	0.000123
H148	H	0.568073	0.078470	0.500123
H149	H	0.014379	-0.555180	0.000112
H150	H	0.514379	-0.055180	0.500112
H151	H	0.025516	-0.703099	0.000087
H152	H	0.525516	-0.203099	0.500087
H153	H	-0.513151	-1.049750	0.000087
H154	H	-0.013151	-0.549750	0.500087
H155	H	0.079004	-1.008993	0.213271
H156	H	0.579004	-0.508993	0.713271
H157	H	-0.053833	-0.798571	0.000074
H158	H	0.446167	-0.298571	0.500074
C159	C	0.226428	-0.831571	0.610442
C160	C	0.726428	-0.331571	1.110442
C161	C	0.267706	-0.781911	0.669486
C162	C	0.767706	-0.281911	1.169486
C163	C	0.310183	-0.730830	0.624370
C164	C	0.810183	-0.230830	1.124370
H165	H	0.197958	-0.800829	0.575122
H166	H	0.697958	-0.300829	1.075122
H167	H	0.255722	-0.861353	0.575115
H168	H	0.755722	-0.361353	1.075115
H169	H	0.238415	-0.752132	0.704798
H170	H	0.738415	-0.252132	1.204798
H171	H	0.296190	-0.812632	0.704808
H172	H	0.796190	-0.312632	1.204808
H173	H	0.339477	-0.760611	0.589042
H174	H	0.839477	-0.260611	1.089042
H175	H	0.281708	-0.700093	0.589051
H176	H	0.781708	-0.200093	1.089051
H177	H	0.338200	-0.697134	0.664423
H178	H	0.838200	-0.197134	1.164423
H179	H	0.246590	-0.807206	0.377562
H180	H	0.746590	-0.307206	0.877562
H181	H	0.085917	-1.000674	0.377579
H182	H	0.585917	-0.500674	0.877579
H183	H	-0.630555	-0.789070	0.000026
H184	H	-0.130555	-0.289070	0.500026
C185	C	-0.656285	-1.066823	0.000110
C186	C	-0.156285	-0.566823	0.500110
C187	C	-0.612344	-1.129993	0.000155
C188	C	-0.112344	-0.629993	0.500155
C189	C	-0.652750	-1.200731	0.000219
C190	C	-0.152750	-0.700731	0.500219
H191	H	-0.686999	-1.071980	-0.050056
H192	H	-0.186999	-0.571980	0.449944
H193	H	-0.682780	-1.066805	0.050304
H194	H	-0.182780	-0.566805	0.550304
H195	H	-0.585860	-1.130012	-0.050034
H196	H	-0.085860	-0.630012	0.449966
H197	H	-0.581629	-1.124863	0.050317
H198	H	-0.081629	-0.624863	0.550317
H199	H	-0.679245	-1.200713	0.050413
H200	H	-0.179245	-0.700713	0.550413
H201	H	-0.683463	-1.205880	-0.049948
H202	H	-0.183463	-0.705880	0.450052
H203	H	-0.622942	-1.243600	0.000257
H204	H	-0.122942	-0.743600	0.500257
H205	H	0.054168	-1.038938	0.622596
H206	H	0.554168	-0.538938	1.122596
H207	H	-0.068683	-1.057074	0.000133
H208	H	0.431317	-0.557074	0.500133
H209	H	-0.498305	-0.791248	0.000043
H210	H	0.001695	-0.291248	0.500043
H211	H	0.254256	-0.668486	0.000030
H212	H	0.754256	-0.168486	0.500030
H213	H	0.046506	-0.177655	0.000118
H214	H	0.546506	0.322345	0.500118
H215	H	0.286387	-0.290958	0.000042
H216	H	0.786387	0.209042	0.500042
H217	H	0.061085	-1.030629	0.786915
H218	H	0.561085	-0.530629	1.286915
C219	C	0.041285	-0.339091	0.000071
C220	C	0.541285	0.160909	0.500071
C221	C	-0.017922	-0.294290	0.000062
C222	C	0.482078	0.205710	0.500062
C223	C	-0.077995	-0.344451	0.000024
C224	C	0.422005	0.155549	0.500024
H225	H	0.043068	-0.368769	0.050234
H226	H	0.543068	0.131231	0.550234
H227	H	0.038908	-0.373825	-0.050126
H228	H	0.538908	0.126175	0.449874
H229	H	-0.015546	-0.259570	0.050254
H230	H	0.484454	0.240430	0.550254
H231	H	-0.019729	-0.264614	-0.050097
H232	H	0.480271	0.235386	0.449903
H233	H	-0.080371	-0.379185	-0.050173
H234	H	0.419629	0.120815	0.449827
H235	H	-0.076204	-0.374126	0.050187
H236	H	0.423796	0.125874	0.550187
H237	H	-0.118174	-0.314061	0.000009
H238	H	0.381826	0.185939	0.500009
H239	H	0.243114	-0.520582	0.000048
H240	H	0.743114	-0.020582	0.500048
C241	C	0.250612	-0.433129	-0.000122
C242	C	0.750612	0.066871	0.499878
C243	C	0.254705	-0.483111	-0.074165
C244	C	0.754705	0.016889	0.425835
C245	C	0.320791	-0.514404	-0.074390
C246	C	0.820791	-0.014404	0.425610
H247	H	0.257810	-0.462055	0.049992
H248	H	0.757810	0.037945	0.549992
H249	H	0.285470	-0.391521	-0.000177
H250	H	0.785470	0.108479	0.499823
H251	H	0.219857	-0.524714	-0.074102
H252	H	0.719857	-0.024714	0.425898
H253	H	0.247521	-0.454204	-0.124291
H254	H	0.747521	0.045796	0.375709
H255	H	0.355649	-0.472795	-0.074446
H256	H	0.855649	0.027205	0.425554
H257	H	0.327982	-0.543326	-0.024274
H258	H	0.827982	-0.043326	0.475726
H259	H	0.323579	-0.548314	-0.124631
H260	H	0.823579	-0.048314	0.375369
H261	H	0.275245	-0.143042	0.000066
H262	H	0.775245	0.356958	0.500066
H263	H	0.221763	-0.837158	0.786888
H264	H	0.721763	-0.337158	1.286888
H265	H	0.208115	-0.853558	0.515439
H266	H	0.708115	-0.353558	1.015439
