data_functionalizedCrystal
_audit_creation_method	'MofGen! by Chris Wilmer'
_symmetry_space_group_name_H-M	'P1'
_symmetry_Int_Tables_number	1
_symmetry_cell_setting	triclinic
loop_
_symmetry_equiv_pos_as_xyz
  x,y,z
_cell_length_a	23.096457
_cell_length_b	23.096457
_cell_length_c	14.560438
_cell_angle_alpha	59.999326
_cell_angle_beta	89.997174
_cell_angle_gamma	60.004020
loop_
_atom_site_label
_atom_site_type_symbol
_atom_site_fract_x
_atom_site_fract_y
_atom_site_fract_z
Zr1	Zr	0.557830	0.633717	-0.120522
O2	O	0.465395	0.754497	-0.267157
O3	O	0.586157	0.512936	-0.075575
O4	O	0.586172	0.633718	-0.267171
O5	O	0.465379	0.633715	0.075578
O6	O	0.681452	0.633719	-0.267177
O7	O	0.465381	0.633716	-0.075561
O8	O	0.681426	0.417663	0.075554
O9	O	0.465405	0.849772	-0.267152
O10	O	0.669356	0.562616	-0.056404
O11	O	0.598248	0.562615	0.056394
O12	O	0.598265	0.704820	-0.169186
O13	O	0.527157	0.704819	-0.056388
Zr14	Zr	0.709788	0.633719	0.120519
Zr15	Zr	0.709791	0.633720	-0.120531
Zr16	Zr	0.557827	0.633717	0.120528
Zr17	Zr	0.557845	0.785669	-0.120514
Zr18	Zr	0.709773	0.481767	0.120511
O19	O	0.681460	0.754501	0.075573
O20	O	0.681465	0.754501	-0.267170
O21	O	0.465391	0.754497	0.075585
O22	O	0.802222	0.512939	0.267155
O23	O	0.802227	0.512939	-0.075588
O24	O	0.586153	0.512935	0.267167
O25	O	0.802239	0.633721	-0.075581
O26	O	0.681446	0.633719	0.267169
O27	O	0.586165	0.633717	0.267174
O28	O	0.802237	0.633721	0.075559
O29	O	0.586194	0.849774	-0.267159
O30	O	0.681424	0.417662	0.267157
O31	O	0.802213	0.417664	0.267150
O32	O	0.802215	0.417665	0.075547
O33	O	0.465402	0.849772	-0.075549
O34	O	0.586191	0.849774	-0.075556
O35	O	0.669353	0.562616	0.169183
O36	O	0.740461	0.562618	0.056385
O37	O	0.669370	0.704821	-0.056396
O38	O	0.598262	0.704820	0.056402
C39	C	0.633790	0.443649	-0.000012
C40	C	0.633783	0.379142	-0.000016
C41	C	0.686274	0.296357	0.083238
C42	C	0.686278	0.235735	0.083249
C43	C	0.633798	0.257903	-0.000012
C44	C	0.581299	0.340702	-0.083273
C45	C	0.581291	0.401321	-0.083275
N46	N	0.617921	0.201793	-0.098749
N47	N	0.617933	0.144204	-0.098742
C48	C	0.633817	0.075264	-0.000010
N49	N	0.649703	0.066081	0.098722
N50	N	0.649695	0.123674	0.098716
C51	C	0.633800	0.192178	-0.000019
C52	C	0.686316	-0.073257	0.083262
C53	C	0.686316	-0.133878	0.083273
C54	C	0.581339	-0.028908	-0.083257
C55	C	0.581336	0.031710	-0.083259
C56	C	0.633828	0.009530	-0.000000
C57	C	0.443729	0.633715	0.000010
C58	C	0.379217	0.633714	0.000014
C59	C	0.386020	0.559487	0.058874
C60	C	0.325405	0.559486	0.058879
C61	C	0.257986	0.633716	0.000001
C62	C	0.251186	0.707952	-0.058861
C63	C	0.311801	0.707951	-0.058855
N64	N	0.135197	0.688969	-0.095822
N65	N	0.077618	0.688965	-0.095826
C66	C	0.075354	0.633723	-0.000019
N67	N	0.132850	0.578473	0.095791
N68	N	0.190436	0.578475	0.095792
C69	C	0.192255	0.633725	-0.000011
C70	C	0.016433	0.559490	0.058852
C71	C	-0.044185	0.559492	0.058860
C72	C	-0.118404	0.707960	-0.058891
C73	C	-0.057786	0.707956	-0.058888
C74	C	0.009630	0.633719	-0.000019
C75	C	0.823889	0.633721	-0.000012
C76	C	0.888401	0.633723	-0.000016
C77	C	0.633813	0.633719	-0.301519
C78	C	0.633814	0.633719	-0.403851
C79	C	0.633828	0.823787	0.000009
C80	C	0.633834	0.888295	0.000013
C81	C	0.686301	0.633723	-0.451938
C82	C	0.686298	0.633720	-0.548087
C83	C	0.581313	0.633711	-0.548056
C84	C	0.581320	0.633709	-0.451904
C85	C	0.738795	0.633733	-0.403884
C86	C	0.791286	0.633739	-0.451972
C87	C	0.791283	0.633735	-0.548121
C88	C	0.738788	0.633726	-0.596183
C89	C	0.633805	0.633718	0.301516
C90	C	0.633804	0.633718	0.403848
C91	C	0.823870	0.443652	-0.000023
C92	C	0.888375	0.379146	-0.000030
C93	C	0.633786	0.443649	0.301505
C94	C	0.633778	0.379141	0.403834
C95	C	0.823866	0.443652	0.301494
C96	C	0.888370	0.379145	0.403819
C97	C	0.443751	0.823784	-0.301497
C98	C	0.379248	0.888291	-0.403822
C99	C	0.443748	0.823784	0.000020
C100	C	0.379243	0.888291	0.000028
C101	C	0.633832	0.823788	-0.301508
C102	C	0.633840	0.888295	-0.403836
C103	C	0.881551	0.348852	-0.058919
C104	C	0.942155	0.288250	-0.058948
C105	C	1.009582	0.257938	-0.000082
C106	C	1.016404	0.288238	0.058808
C107	C	0.955801	0.348843	0.058831
C108	C	0.670891	0.348848	0.510774
C109	C	0.670881	0.288245	0.606931
C110	C	0.633762	0.257931	0.596147
C111	C	0.596645	0.288230	0.489196
C112	C	0.596651	0.348837	0.393041
C113	C	0.955786	0.348853	0.392993
C114	C	1.016400	0.288251	0.489128
C115	C	1.009596	0.257937	0.596090
C116	C	0.942173	0.288236	0.606914
C117	C	0.881561	0.348841	0.510779
C118	C	0.311832	0.918591	-0.392995
C119	C	0.251218	0.979212	-0.489131
C120	C	0.258021	1.009529	-0.596092
C121	C	0.325444	0.979226	-0.606917
C122	C	0.386057	0.918610	-0.510782
C123	C	0.386067	0.918591	0.058906
C124	C	0.325463	0.979210	0.058909
C125	C	0.258036	1.009524	0.000039
C126	C	0.251214	0.979221	-0.058846
C127	C	0.311816	0.918607	-0.058855
C128	C	0.670966	0.918590	-0.393016
C129	C	0.670987	0.979194	-0.489155
C130	C	0.633877	1.009506	-0.596114
C131	C	0.596750	0.979206	-0.606932
C132	C	0.596733	0.918599	-0.510794
H133	H	0.729054	-0.091317	0.151062
H134	H	0.834027	0.633731	-0.587267
H135	H	0.306279	0.893911	-0.305910
H136	H	0.071327	0.499042	0.106810
N137	N	0.738805	0.633746	-0.305679
N138	N	0.785673	0.633760	-0.262786
H139	H	0.785678	0.633773	-0.193431
N140	N	1.085286	0.257260	0.118932
N141	N	1.139384	0.203144	0.118902
H142	H	1.188035	0.181260	0.161370
N143	N	0.304839	0.783784	-0.119005
N144	N	0.273223	0.833487	-0.222814
H145	H	0.268305	0.887046	-0.265300
H146	H	0.961367	0.373500	0.106791
N147	N	0.454931	0.887640	0.119055
N148	N	0.461001	0.914714	0.171611
H149	H	0.509635	0.892861	0.214091
N150	N	0.708917	1.010127	-0.478069
N151	N	0.742039	0.983057	-0.382560
H152	H	0.768828	1.004902	-0.374726
H153	H	0.834029	0.633739	-0.412831
N154	N	1.085269	0.257287	0.478076
N155	N	1.139387	0.203174	0.563909
H156	H	1.188026	0.181305	0.556103
N157	N	0.304853	0.887636	-0.118972
N158	N	0.358960	0.833511	-0.118973
H159	H	0.354039	0.811639	-0.161432
N160	N	0.182330	1.010191	-0.118952
N161	N	0.140234	1.003423	-0.067669
H162	H	0.091582	1.025294	-0.110111
H163	H	0.538608	-0.010858	-0.151048
H164	H	0.961339	0.373525	0.305908
N165	N	-0.037219	0.483657	0.118986
N166	N	-0.005600	0.433962	0.094002
H167	H	-0.000678	0.380401	0.136467
H168	H	0.196325	1.003874	-0.480296
N169	N	0.454914	0.887671	-0.521870
N170	N	0.460970	0.914751	-0.617383
H171	H	0.509599	0.892904	-0.625224
N172	N	0.739878	0.273704	0.168301
N173	N	0.722880	0.295811	0.232412
H174	H	0.760737	0.279814	0.292491
H175	H	0.738794	0.633715	-0.674467
H176	H	0.331032	1.003872	0.106865
N177	N	1.071475	0.195962	-0.000013
N178	N	1.065364	0.168878	-0.052524
H179	H	1.109074	0.125079	-0.052436
H180	H	0.538596	0.099119	-0.151059
H181	H	0.566537	1.003896	-0.694031
N182	N	0.708817	0.379792	0.521827
N183	N	0.741945	0.352730	0.617327
H184	H	0.768731	0.374582	0.625144
N185	N	0.558757	0.379771	0.283798
N186	N	0.558767	0.433877	0.197943
H187	H	0.532004	0.455723	0.120790
H188	H	0.538569	0.358748	-0.151063
H189	H	0.566424	0.263540	0.480432
H190	H	0.538574	0.633705	-0.587195
N191	N	1.071522	0.196031	0.694272
N192	N	1.131708	0.168994	0.684577
H193	H	1.175446	0.125270	0.753914
N194	N	0.935243	0.257255	0.716184
N195	N	0.989372	0.203137	0.802000
H196	H	0.984480	0.181250	0.879176
N197	N	0.527665	0.485885	-0.168327
N198	N	0.480807	0.505673	-0.242658
H199	H	0.442932	0.565398	-0.302730
H200	H	0.701108	0.263582	0.694006
N201	N	0.739951	-0.218444	0.168304
N202	N	0.780366	-0.263965	0.141335
H203	H	0.818250	-0.323691	0.201386
N204	N	0.812694	0.379764	0.521828
N205	N	0.758574	0.433863	0.435997
H206	H	0.709936	0.455696	0.443805
N207	N	0.196096	1.071448	-0.694275
N208	N	0.135909	1.098489	-0.684579
H209	H	0.092171	1.142219	-0.753917
N210	N	0.708890	0.887631	-0.283776
N211	N	0.774332	0.853808	-0.255110
H212	H	0.801123	0.831943	-0.177961
H213	H	0.826654	0.373532	-0.106869
N214	N	0.633907	1.071413	-0.694300
N215	N	0.667061	1.098450	-0.684610
H216	H	0.667084	1.142173	-0.753950
N217	N	0.332375	1.010210	-0.716187
N218	N	0.278246	1.064329	-0.802003
H219	H	0.283137	1.086211	-0.879179
H220	H	0.566498	0.893940	-0.519620
H221	H	0.538581	0.633704	-0.412750
H222	H	0.440909	0.499037	0.106802
H223	H	0.729023	0.168320	0.151047
N224	N	0.332359	0.483655	0.119014
N225	N	0.392555	0.417380	0.171572
H226	H	0.397469	0.363823	0.214043
H227	H	0.196290	0.768391	-0.106799
H228	H	0.208695	1.058879	0.000056
H229	H	-0.173296	0.768400	-0.106831
H230	H	-0.063328	0.768400	-0.106826
H231	H	0.633763	0.208581	0.674452
N232	N	0.935163	0.257317	-0.119112
N233	N	0.874954	0.284385	-0.171652
H234	H	0.870014	0.262540	-0.214143
