data_functionalizedCrystal
_audit_creation_method	'MofGen! by Chris Wilmer'
_symmetry_space_group_name_H-M	'P1'
_symmetry_Int_Tables_number	1
_symmetry_cell_setting	triclinic
loop_
_symmetry_equiv_pos_as_xyz
  x,y,z
_cell_length_a	27.731993
_cell_length_b	27.732048
_cell_length_c	26.210047
_cell_angle_alpha	89.990787
_cell_angle_beta	89.994829
_cell_angle_gamma	82.631525
loop_
_atom_site_label
_atom_site_type_symbol
_atom_site_fract_x
_atom_site_fract_y
_atom_site_fract_z
O1	O	0.640953	0.057390	-0.042297
O2	O	0.890953	0.307390	0.207703
O3	O	1.140953	0.557390	0.457703
O4	O	1.390953	0.807390	0.707703
O5	O	0.500156	0.066163	-0.042329
O6	O	0.750156	0.316163	0.207671
O7	O	1.000156	0.566163	0.457671
O8	O	1.250156	0.816163	0.707671
O9	O	0.574927	-0.008621	-0.042302
O10	O	0.824927	0.241379	0.207698
O11	O	1.074927	0.491379	0.457698
O12	O	1.324927	0.741379	0.707698
O13	O	0.566182	0.132174	-0.042324
O14	O	0.816182	0.382174	0.207676
O15	O	1.066182	0.632174	0.457676
O16	O	1.316182	0.882174	0.707676
O17	O	0.574904	-0.008620	0.042556
O18	O	0.824904	0.241380	0.292556
O19	O	1.074904	0.491380	0.542556
O20	O	1.324904	0.741380	0.792556
O21	O	0.500132	0.066164	0.042529
O22	O	0.750132	0.316164	0.292529
O23	O	1.000132	0.566164	0.542529
O24	O	1.250132	0.816164	0.792529
O25	O	0.640929	0.057391	0.042561
O26	O	0.890929	0.307391	0.292561
O27	O	1.140929	0.557391	0.542561
O28	O	1.390929	0.807391	0.792561
Cu29	Cu	0.570529	0.061777	0.050293
Cu30	Cu	0.820529	0.311777	0.300293
Cu31	Cu	1.070529	0.561777	0.550293
Cu32	Cu	1.320529	0.811777	0.800293
Cu33	Cu	0.570557	0.061776	-0.050061
Cu34	Cu	0.820557	0.311776	0.199939
Cu35	Cu	1.070557	0.561776	0.449939
Cu36	Cu	1.320557	0.811776	0.699939
O37	O	0.566158	0.132175	0.042534
O38	O	0.816158	0.382175	0.292534
O39	O	1.066158	0.632175	0.542534
O40	O	1.316158	0.882175	0.792534
C41	C	0.482137	0.065983	0.000096
C42	C	0.732137	0.315983	0.250096
C43	C	0.982137	0.565983	0.500096
C44	C	1.232137	0.815983	0.750096
C45	C	0.428480	0.065441	0.000084
C46	C	0.678480	0.315441	0.250084
C47	C	0.928480	0.565441	0.500084
C48	C	1.178480	0.815441	0.750084
C49	C	0.045333	0.061510	-0.046147
C50	C	0.295333	0.311510	0.203853
C51	C	0.545333	0.561510	0.453853
C52	C	0.795333	0.811510	0.703853
C53	C	0.246991	0.063577	-0.046161
C54	C	0.496991	0.313577	0.203839
C55	C	0.746991	0.563577	0.453839
C56	C	0.996991	0.813577	0.703839
O57	O	0.273075	0.063825	-0.085501
O58	O	0.523075	0.313825	0.164499
O59	O	0.773075	0.563825	0.414499
O60	O	1.023075	0.813825	0.664499
N61	N	0.272198	0.063836	0.000094
N62	N	0.522198	0.313836	0.250094
N63	N	0.772198	0.563836	0.500094
N64	N	1.022198	0.813836	0.750094
C65	C	0.246988	0.063575	0.046356
C66	C	0.496988	0.313575	0.296356
C67	C	0.746988	0.563575	0.546356
C68	C	0.996988	0.813575	0.796356
O69	O	0.273056	0.063838	0.085699
O70	O	0.523056	0.313838	0.335699
O71	O	0.773056	0.563838	0.585699
O72	O	1.023056	0.813838	0.835699
C73	C	0.045332	0.061505	0.046370
C74	C	0.295332	0.311505	0.296370
C75	C	0.545332	0.561505	0.546370
C76	C	0.795332	0.811505	0.796370
C77	C	0.020127	0.061251	0.000112
C78	C	0.270127	0.311251	0.250112
C79	C	0.520127	0.561251	0.500112
C80	C	0.770127	0.811251	0.750112
C81	C	0.020128	0.061255	-0.092401
C82	C	0.270128	0.311255	0.157599
C83	C	0.520128	0.561255	0.407599
C84	C	0.770128	0.811255	0.657599
C85	C	-0.030284	0.060741	-0.092397
C86	C	0.219716	0.310741	0.157603
C87	C	0.469716	0.560741	0.407603
C88	C	0.719716	0.810741	0.657603
C89	C	-0.055490	0.060482	-0.046139
C90	C	0.194510	0.310482	0.203861
C91	C	0.444510	0.560482	0.453861
C92	C	0.694510	0.810482	0.703861
C93	C	-0.030285	0.060736	0.000116
C94	C	0.219715	0.310736	0.250116
C95	C	0.469715	0.560736	0.500116
C96	C	0.719715	0.810736	0.750116
C97	C	0.020124	0.061240	0.092631
C98	C	0.270124	0.311240	0.342631
C99	C	0.520124	0.561240	0.592631
C100	C	0.770124	0.811240	0.842631
C101	C	-0.030293	0.060721	0.092630
C102	C	0.219707	0.310721	0.342630
C103	C	0.469707	0.560721	0.592630
C104	C	0.719707	0.810721	0.842630
C105	C	-0.055499	0.060467	0.046372
C106	C	0.194501	0.310467	0.296372
C107	C	0.444501	0.560467	0.546372
C108	C	0.694501	0.810467	0.796372
C109	C	-0.105903	0.059963	0.046378
C110	C	0.144097	0.309963	0.296378
C111	C	0.394097	0.559963	0.546378
C112	C	0.644097	0.809963	0.796378
N113	N	-0.131110	0.059704	0.000123
N114	N	0.118890	0.309704	0.250123
N115	N	0.368890	0.559704	0.500123
N116	N	0.618890	0.809704	0.750123
C117	C	-0.105904	0.059963	-0.046135
C118	C	0.144096	0.309963	0.203865
C119	C	0.394096	0.559963	0.453865
C120	C	0.644096	0.809963	0.703865
C121	C	0.352860	0.064663	0.046346
C122	C	0.602860	0.314663	0.296346
C123	C	0.852860	0.564663	0.546346
C124	C	1.102860	0.814663	0.796346
C125	C	0.403274	0.065182	0.046343
C126	C	0.653274	0.315182	0.296343
C127	C	0.903274	0.565182	0.546343
C128	C	1.153274	0.815182	0.796343
C129	C	0.403273	0.065183	-0.046175
C130	C	0.653273	0.315183	0.203825
C131	C	0.903273	0.565183	0.453825
C132	C	1.153273	0.815183	0.703825
C133	C	0.352858	0.064668	-0.046171
C134	C	0.602858	0.314668	0.203829
C135	C	0.852858	0.564668	0.453829
C136	C	1.102858	0.814668	0.703829
C137	C	0.327653	0.064404	0.000091
C138	C	0.577653	0.314404	0.250091
C139	C	0.827653	0.564404	0.500091
C140	C	1.077653	0.814404	0.750091
C141	C	-0.211772	0.058884	-0.046123
C142	C	0.038228	0.308884	0.203877
C143	C	0.288228	0.558884	0.453877
C144	C	0.538228	0.808884	0.703877
C145	C	-0.262189	0.058372	-0.046115
C146	C	-0.012189	0.308372	0.203885
C147	C	0.237811	0.558372	0.453885
C148	C	0.487811	0.808372	0.703885
C149	C	-0.262183	0.058369	0.046402
C150	C	-0.012183	0.308369	0.296402
C151	C	0.237817	0.558369	0.546402
C152	C	0.487817	0.808369	0.796402
C153	C	-0.211771	0.058883	0.046394
C154	C	0.038229	0.308883	0.296394
C155	C	0.288229	0.558883	0.546394
C156	C	0.538229	0.808883	0.796394
C157	C	-0.186567	0.059139	0.000127
C158	C	0.063433	0.309139	0.250127
C159	C	0.313433	0.559139	0.500127
C160	C	0.563433	0.809139	0.750127
O161	O	-0.132018	0.059710	0.085698
O162	O	0.117982	0.309710	0.335698
O163	O	0.367982	0.559710	0.585698
O164	O	0.617982	0.809710	0.835698
O165	O	-0.131979	0.059690	-0.085472
O166	O	0.118021	0.309690	0.164528
O167	O	0.368021	0.559690	0.414528
O168	O	0.618021	0.809690	0.664528
C169	C	0.095745	0.062024	-0.046151
C170	C	0.345745	0.312024	0.203849
C171	C	0.595745	0.562024	0.453849
C172	C	0.845745	0.812024	0.703849
C173	C	0.120950	0.062279	0.000104
C174	C	0.370950	0.312279	0.250104
C175	C	0.620950	0.562279	0.500104
C176	C	0.870950	0.812279	0.750104
C177	C	0.095744	0.062019	0.046362
C178	C	0.345744	0.312019	0.296362
C179	C	0.595744	0.562019	0.546362
C180	C	0.845744	0.812019	0.796362
C181	C	0.171364	0.062797	0.000101
C182	C	0.421364	0.312797	0.250101
C183	C	0.671364	0.562797	0.500101
C184	C	0.921364	0.812797	0.750101
C185	C	0.196570	0.063057	-0.046158
C186	C	0.446570	0.313057	0.203842
C187	C	0.696570	0.563057	0.453842
C188	C	0.946570	0.813057	0.703842
C189	C	0.171363	0.062798	-0.092413
C190	C	0.421363	0.312798	0.157587
C191	C	0.671363	0.562798	0.407587
C192	C	0.921363	0.812798	0.657587
C193	C	0.120951	0.062284	-0.092409
C194	C	0.370951	0.312284	0.157591
C195	C	0.620951	0.562284	0.407591
C196	C	0.870951	0.812284	0.657591
C197	C	0.120951	0.062278	0.092617
C198	C	0.370951	0.312278	0.342617
C199	C	0.620951	0.562278	0.592617
C200	C	0.870951	0.812278	0.842617
C201	C	0.171363	0.062793	0.092609
C202	C	0.421363	0.312793	0.342609
C203	C	0.671363	0.562793	0.592609
C204	C	0.921363	0.812793	0.842609
C205	C	0.196569	0.063052	0.046351
C206	C	0.446569	0.313052	0.296351
C207	C	0.696569	0.563052	0.546351
C208	C	0.946569	0.813052	0.796351
C209	C	0.574732	-0.026628	0.000128
C210	C	0.824732	0.223372	0.250128
C211	C	1.074732	0.473372	0.500128
C212	C	1.324732	0.723372	0.750128
C213	C	0.574179	-0.080282	0.000132
C214	C	0.824179	0.169718	0.250132
C215	C	1.074179	0.419718	0.500132
C216	C	1.324179	0.669718	0.750132
C217	C	0.614884	-0.419105	0.000115
C218	C	0.864884	-0.169105	0.250115
C219	C	1.114884	0.080895	0.500115
C220	C	1.364884	0.330895	0.750115
C221	C	0.612833	-0.620765	0.000108
C222	C	0.862833	-0.370765	0.250108
C223	C	1.112833	-0.120765	0.500108
C224	C	1.362833	0.129235	0.750108
O225	O	0.650055	-0.652028	0.000094
O226	O	0.900055	-0.402028	0.250094
O227	O	1.150055	-0.152028	0.500094
O228	O	1.400055	0.097972	0.750094
N229	N	0.568497	-0.639880	0.000098
N230	N	0.818497	-0.389880	0.250098
N231	N	1.068497	-0.139880	0.500098
N232	N	1.318497	0.110120	0.750098
C233	C	0.524670	-0.608576	0.000087
C234	C	0.774670	-0.358576	0.250087
C235	C	1.024670	-0.108576	0.500087
C236	C	1.274670	0.141424	0.750087
O237	O	0.486912	-0.629462	0.000073
O238	O	0.736912	-0.379462	0.250073
O239	O	0.986912	-0.129462	0.500073
O240	O	1.236912	0.120538	0.750073
C241	C	0.526721	-0.406918	0.000091
C242	C	0.776721	-0.156918	0.250091
C243	C	1.026721	0.093082	0.500091
C244	C	1.276721	0.343082	0.750091
C245	C	0.571061	-0.387806	0.000106
C246	C	0.821061	-0.137806	0.250106
C247	C	1.071061	0.112194	0.500106
C248	C	1.321061	0.362194	0.750106
C249	C	0.659220	-0.399993	0.000129
C250	C	0.909220	-0.149993	0.250129
C251	C	1.159220	0.100007	0.500129
C252	C	1.409220	0.350007	0.750129
C253	C	0.659732	-0.349581	0.000134
C254	C	0.909732	-0.099581	0.250134
C255	C	1.159732	0.150419	0.500134
C256	C	1.409732	0.400419	0.750134
C257	C	0.615909	-0.318282	0.000124
C258	C	0.865909	-0.068282	0.250124
C259	C	1.115909	0.181718	0.500124
C260	C	1.365909	0.431718	0.750124
C261	C	0.571573	-0.337394	0.000110
C262	C	0.821573	-0.087394	0.250110
C263	C	1.071573	0.162606	0.500110
C264	C	1.321573	0.412606	0.750110
C265	C	0.482895	-0.375616	0.000076
C266	C	0.732895	-0.125616	0.250076
C267	C	0.982895	0.124384	0.500076
C268	C	1.232895	0.374384	0.750076
C269	C	0.483412	-0.325199	0.000076
C270	C	0.733412	-0.075199	0.250076
C271	C	0.983412	0.174801	0.500076
C272	C	1.233412	0.424801	0.750076
C273	C	0.527751	-0.306087	0.000091
C274	C	0.777751	-0.056087	0.250091
C275	C	1.027751	0.193913	0.500091
C276	C	1.277751	0.443913	0.750091
C277	C	0.528262	-0.255683	0.000105
C278	C	0.778262	-0.005683	0.250105
C279	C	1.028262	0.244317	0.500105
C280	C	1.278262	0.494317	0.750105
N281	N	0.572598	-0.236568	0.000115
N282	N	0.822598	0.013432	0.250115
N283	N	1.072598	0.263432	0.500115
N284	N	1.322598	0.513432	0.750115
C285	C	0.616422	-0.267867	0.000124
C286	C	0.866422	-0.017867	0.250124
C287	C	1.116422	0.232133	0.500124
C288	C	1.366422	0.482133	0.750124
C289	C	0.523596	-0.714450	0.000086
C290	C	0.773596	-0.464450	0.250086
C291	C	1.023596	-0.214450	0.500086
C292	C	1.273596	0.035550	0.750086
C293	C	0.523083	-0.764865	0.000086
C294	C	0.773083	-0.514865	0.250086
C295	C	1.023083	-0.264865	0.500086
C296	C	1.273083	-0.014865	0.750086
C297	C	0.611246	-0.777049	0.000105
C298	C	0.861246	-0.527049	0.250105
C299	C	1.111246	-0.277049	0.500105
C300	C	1.361246	-0.027049	0.750105
C301	C	0.611759	-0.726634	0.000109
C302	C	0.861759	-0.476634	0.250109
C303	C	1.111759	-0.226634	0.500109
C304	C	1.361759	0.023366	0.750109
C305	C	0.567932	-0.695335	0.000095
C306	C	0.817932	-0.445335	0.250095
C307	C	1.067932	-0.195335	0.500095
C308	C	1.317932	0.054665	0.750095
C309	C	0.617494	-0.161998	0.000135
C310	C	0.867494	0.088002	0.250135
C311	C	1.117494	0.338002	0.500135
C312	C	1.367494	0.588002	0.750135
C313	C	0.618002	-0.111582	0.000142
C314	C	0.868002	0.138418	0.250142
C315	C	1.118002	0.388418	0.500142
C316	C	1.368002	0.638418	0.750142
C317	C	0.529839	-0.099401	0.000119
C318	C	0.779839	0.150599	0.250119
C319	C	1.029839	0.400599	0.500119
C320	C	1.279839	0.650599	0.750119
C321	C	0.529331	-0.149814	0.000115
C322	C	0.779331	0.100186	0.250115
C323	C	1.029331	0.350186	0.500115
C324	C	1.279331	0.600186	0.750115
C325	C	0.573162	-0.181112	0.000121
C326	C	0.823162	0.068888	0.250121
C327	C	1.073162	0.318888	0.500121
C328	C	1.323162	0.568888	0.750121
O329	O	0.491060	-0.224392	0.000114
O330	O	0.741060	0.025608	0.250114
O331	O	0.991060	0.275608	0.500114
O332	O	1.241060	0.525608	0.750114
O333	O	0.654174	-0.246972	0.000127
O334	O	0.904174	0.003028	0.250127
O335	O	1.154174	0.253028	0.500127
O336	O	1.404174	0.503028	0.750127
C337	C	0.614372	-0.469517	0.000110
C338	C	0.864372	-0.219517	0.250110
C339	C	1.114372	0.030483	0.500110
C340	C	1.364372	0.280483	0.750110
C341	C	0.570036	-0.488630	0.000096
C342	C	0.820036	-0.238630	0.250096
C343	C	1.070036	0.011370	0.500096
C344	C	1.320036	0.261370	0.750096
C345	C	0.526213	-0.457331	0.000087
C346	C	0.776213	-0.207331	0.250087
C347	C	1.026213	0.042669	0.500087
C348	C	1.276213	0.292669	0.750087
C349	C	0.569523	-0.539044	0.000096
C350	C	0.819523	-0.289044	0.250096
C351	C	1.069523	-0.039044	0.500096
C352	C	1.319523	0.210956	0.750096
C353	C	0.613346	-0.570343	0.000106
C354	C	0.863346	-0.320343	0.250106
C355	C	1.113346	-0.070343	0.500106
C356	C	1.363346	0.179657	0.750106
C357	C	0.657683	-0.551228	0.000115
C358	C	0.907683	-0.301228	0.250115
C359	C	1.157683	-0.051228	0.500115
C360	C	1.407683	0.198772	0.750115
C361	C	0.658195	-0.500817	0.000120
C362	C	0.908195	-0.250817	0.250120
C363	C	1.158195	-0.000817	0.500120
C364	C	1.408195	0.249183	0.750120
C365	C	0.481876	-0.476446	0.000077
C366	C	0.731876	-0.226446	0.250077
C367	C	0.981876	0.023554	0.500077
C368	C	1.231876	0.273554	0.750077
C369	C	0.481368	-0.526858	0.000073
C370	C	0.731368	-0.276858	0.250073
C371	C	0.981368	-0.026858	0.500073
C372	C	1.231368	0.223142	0.750073
C373	C	0.525191	-0.558157	0.000083
C374	C	0.775191	-0.308157	0.250083
C375	C	1.025191	-0.058157	0.500083
C376	C	1.275191	0.191843	0.750083
C377	C	0.658949	0.057570	0.000135
C378	C	0.908949	0.307570	0.250135
C379	C	1.158949	0.557570	0.500135
C380	C	1.408949	0.807570	0.750135
C381	C	0.712605	0.058113	0.000143
C382	C	0.962605	0.308113	0.250143
C383	C	1.212605	0.558113	0.500143
C384	C	1.462605	0.808113	0.750143
C385	C	0.566353	0.150181	0.000103
C386	C	0.816353	0.400181	0.250103
C387	C	1.066353	0.650181	0.500103
C388	C	1.316353	0.900181	0.750103
C389	C	0.566906	0.203836	0.000095
C390	C	0.816906	0.453836	0.250095
C391	C	1.066906	0.703836	0.500095
C392	C	1.316906	0.953836	0.750095
N393	N	0.570512	0.061777	0.120877
N394	N	0.820512	0.311777	0.370877
N395	N	1.070512	0.561777	0.620877
N396	N	1.320512	0.811777	0.870877
C397	C	0.599646	0.090885	0.473394
C398	C	0.849646	0.340885	0.723394
C399	C	1.099646	0.590885	0.973394
C400	C	1.349646	0.840885	1.223394
C401	C	0.599660	0.090887	0.687052
C402	C	0.849660	0.340887	0.937052
C403	C	1.099660	0.590887	1.187052
C404	C	1.349660	0.840887	1.437052
O405	O	0.624421	0.115628	0.714676
O406	O	0.874421	0.365628	0.964676
O407	O	1.124421	0.615628	1.214676
O408	O	1.374421	0.865628	1.464676
N409	N	0.570564	0.061777	0.713771
N410	N	0.820564	0.311777	0.963771
N411	N	1.070564	0.561777	1.213771
N412	N	1.320564	0.811777	1.463771
C413	C	0.541465	0.032663	0.687072
C414	C	0.791465	0.282663	0.937072
C415	C	1.041465	0.532663	1.187072
C416	C	1.291465	0.782663	1.437072
O417	O	0.516722	0.007900	0.714701
O418	O	0.766722	0.257900	0.964701
O419	O	1.016722	0.507900	1.214701
O420	O	1.266722	0.757900	1.464701
C421	C	0.541455	0.032660	0.473414
C422	C	0.791455	0.282660	0.723414
C423	C	1.041455	0.532660	0.973414
C424	C	1.291455	0.782660	1.223414
C425	C	0.570549	0.061775	0.446698
C426	C	0.820549	0.311775	0.696698
C427	C	1.070549	0.561775	0.946698
C428	C	1.320549	0.811775	1.196698
C429	C	0.628738	0.119998	0.446677
C430	C	0.878738	0.369998	0.696677
C431	C	1.128738	0.619998	0.946677
C432	C	1.378738	0.869998	1.196677
C433	C	0.628733	0.119999	0.393266
C434	C	0.878733	0.369999	0.643266
C435	C	1.128733	0.619999	0.893266
C436	C	1.378733	0.869999	1.143266
C437	C	0.599635	0.090888	0.366571
C438	C	0.849635	0.340888	0.616571
C439	C	1.099635	0.590888	0.866571
C440	C	1.349635	0.840888	1.116571
C441	C	0.570543	0.061776	0.393287
C442	C	0.820543	0.311776	0.643287
C443	C	1.070543	0.561776	0.893287
C444	C	1.320543	0.811776	1.143287
C445	C	0.512359	0.003543	0.446716
C446	C	0.762359	0.253543	0.696716
C447	C	1.012359	0.503543	0.946716
C448	C	1.262359	0.753543	1.196716
C449	C	0.512360	0.003544	0.393298
C450	C	0.762360	0.253544	0.643298
C451	C	1.012360	0.503544	0.893298
C452	C	1.262360	0.753544	1.143298
C453	C	0.541454	0.032659	0.366582
C454	C	0.791454	0.282659	0.616582
C455	C	1.041454	0.532659	0.866582
C456	C	1.291454	0.782659	1.116582
C457	C	0.541440	0.032667	0.313180
C458	C	0.791440	0.282667	0.563180
C459	C	1.041440	0.532667	0.813180
C460	C	1.291440	0.782667	1.063180
N461	N	0.570536	0.061776	0.286461
N462	N	0.820536	0.311776	0.536461
N463	N	1.070536	0.561776	0.786461
N464	N	1.320536	0.811776	1.036461
C465	C	0.599634	0.090887	0.313156
C466	C	0.849634	0.340887	0.563156
C467	C	1.099634	0.590887	0.813156
C468	C	1.349634	0.840887	1.063156
C469	C	0.541472	0.032668	0.799245
C470	C	0.791472	0.282668	1.049245
C471	C	1.041472	0.532668	1.299245
C472	C	1.291472	0.782668	1.549245
C473	C	0.541474	0.032669	0.852659
C474	C	0.791474	0.282669	1.102659
C475	C	1.041474	0.532669	1.352659
C476	C	1.291474	0.782669	1.602659
C477	C	0.599669	0.090892	0.852636
C478	C	0.849669	0.340892	1.102636
C479	C	1.099669	0.590892	1.352636
C480	C	1.349669	0.840892	1.602636
C481	C	0.599664	0.090893	0.799221
C482	C	0.849664	0.340893	1.049221
C483	C	1.099664	0.590893	1.299221
C484	C	1.349664	0.840893	1.549221
C485	C	0.570568	0.061777	0.772526
C486	C	0.820568	0.311777	1.022526
C487	C	1.070568	0.561777	1.272526
C488	C	1.320568	0.811777	1.522526
C489	C	0.599619	0.090888	0.200989
C490	C	0.849619	0.340888	0.450989
C491	C	1.099619	0.590888	0.700989
C492	C	1.349619	0.840888	0.950989
C493	C	0.599610	0.090888	0.147572
C494	C	0.849610	0.340888	0.397572
C495	C	1.099610	0.590888	0.647572
C496	C	1.349610	0.840888	0.897572
C497	C	0.541417	0.032664	0.147601
C498	C	0.791417	0.282664	0.397601
C499	C	1.041417	0.532664	0.647601
C500	C	1.291417	0.782664	0.897601
C501	C	0.541424	0.032665	0.201012
C502	C	0.791424	0.282665	0.451012
C503	C	1.041424	0.532665	0.701012
C504	C	1.291424	0.782665	0.951012
C505	C	0.570529	0.061778	0.227705
C506	C	0.820529	0.311778	0.477705
C507	C	1.070529	0.561778	0.727705
C508	C	1.320529	0.811778	0.977705
O509	O	0.516696	0.007934	0.285523
O510	O	0.766696	0.257934	0.535523
O511	O	1.016696	0.507934	0.785523
O512	O	1.266696	0.757934	1.035523
O513	O	0.624382	0.115638	0.285519
O514	O	0.874382	0.365638	0.535519
O515	O	1.124382	0.615638	0.785519
O516	O	1.374382	0.865638	1.035519
C517	C	0.599652	0.090884	0.526805
C518	C	0.849652	0.340884	0.776805
C519	C	1.099652	0.590884	1.026805
C520	C	1.349652	0.840884	1.276805
C521	C	0.570560	0.061772	0.553521
C522	C	0.820560	0.311772	0.803521
C523	C	1.070560	0.561772	1.053521
C524	C	1.320560	0.811772	1.303521
C525	C	0.541463	0.032661	0.526826
C526	C	0.791463	0.282661	0.776826
C527	C	1.041463	0.532661	1.026826
C528	C	1.291463	0.782661	1.276826
C529	C	0.570562	0.061773	0.606935
C530	C	0.820562	0.311773	0.856935
C531	C	1.070562	0.561773	1.106935
C532	C	1.320562	0.811773	1.356935
C533	C	0.599659	0.090884	0.633631
C534	C	0.849659	0.340884	0.883631
C535	C	1.099659	0.590884	1.133631
C536	C	1.349659	0.840884	1.383631
C537	C	0.628755	0.119993	0.606912
C538	C	0.878755	0.369993	0.856912
C539	C	1.128755	0.619993	1.106912
C540	C	1.378755	0.869993	1.356912
C541	C	0.628750	0.119995	0.553500
C542	C	0.878750	0.369995	0.803500
C543	C	1.128750	0.619995	1.053500
C544	C	1.378750	0.869995	1.303500
C545	C	0.512367	0.003552	0.553545
C546	C	0.762367	0.253552	0.803545
C547	C	1.012367	0.503552	1.053545
C548	C	1.262367	0.753552	1.303545
C549	C	0.512374	0.003553	0.606956
C550	C	0.762374	0.253553	0.856956
C551	C	1.012374	0.503553	1.106956
C552	C	1.262374	0.753553	1.356956
C553	C	0.541472	0.032664	0.633651
C554	C	0.791472	0.282664	0.883651
C555	C	1.041472	0.532664	1.133651
C556	C	1.291472	0.782664	1.383651
N557	N	0.570571	0.061780	0.879355
N558	N	0.820571	0.311780	1.129355
N559	N	1.070571	0.561780	1.379355
N560	N	1.320571	0.811780	1.629355
H561	H	0.100433	0.062077	-0.130077
H562	H	0.350433	0.312077	0.119923
H563	H	0.600433	0.562077	0.369923
H564	H	0.850433	0.812077	0.619923
Br565	Br	0.717157	-0.593716	0.000132
Br566	Br	0.967157	-0.343716	0.250132
Br567	Br	1.217157	-0.093716	0.500132
Br568	Br	1.467157	0.156284	0.750132
H569	H	0.191894	0.063012	-0.130078
H570	H	0.441894	0.313012	0.119922
H571	H	0.691894	0.563012	0.369922
H572	H	0.941894	0.813012	0.619922
H573	H	0.423804	0.065395	-0.083840
H574	H	0.673804	0.315395	0.166160
H575	H	0.923804	0.565395	0.416160
H576	H	1.173804	0.815395	0.666160
Br577	Br	0.422395	-0.433975	0.000062
Br578	Br	0.672395	-0.183975	0.250062
Br579	Br	0.922395	0.066025	0.500062
Br580	Br	1.172395	0.316025	0.750062
H581	H	0.623355	0.114601	0.777472
H582	H	0.873355	0.364601	1.027472
H583	H	1.123355	0.614601	1.277472
H584	H	1.373355	0.864601	1.527472
Br585	Br	0.668210	0.159524	0.357017
Br586	Br	0.918210	0.409524	0.607017
Br587	Br	1.168210	0.659524	0.857017
Br588	Br	1.418210	0.909524	1.107017
H589	H	0.647864	-0.711077	0.000121
H590	H	0.897864	-0.461077	0.250121
H591	H	1.147864	-0.211077	0.500121
H592	H	1.397864	0.038923	0.750121
H593	H	0.652436	0.143703	0.468407
H594	H	0.902436	0.393703	0.718407
H595	H	1.152436	0.643703	0.968407
H596	H	1.402436	0.893703	1.218407
H597	H	0.623359	0.114597	0.874380
H598	H	0.873359	0.364597	1.124380
H599	H	1.123359	0.614597	1.374380
H600	H	1.373359	0.864597	1.624380
H601	H	0.040646	0.061465	-0.130072
H602	H	0.290646	0.311465	0.119928
H603	H	0.540646	0.561465	0.369928
H604	H	0.790646	0.811465	0.619928
Br605	Br	0.318660	0.064312	0.109136
Br606	Br	0.568660	0.314312	0.359136
Br607	Br	0.818660	0.564312	0.609136
Br608	Br	1.068660	0.814312	0.859136
H609	H	0.446789	-0.391168	0.000061
H610	H	0.696789	-0.141168	0.250061
H611	H	0.946789	0.108832	0.500061
H612	H	1.196789	0.358832	0.750061
H613	H	0.652441	0.143703	0.531753
H614	H	0.902441	0.393703	0.781753
H615	H	1.152441	0.643703	1.031753
H616	H	1.402441	0.893703	1.281753
H617	H	0.332339	0.064461	-0.083838
H618	H	0.582339	0.314461	0.166162
H619	H	0.832339	0.564461	0.416162
H620	H	1.082339	0.814461	0.666162
H621	H	0.423791	0.065396	0.084011
H622	H	0.673791	0.315396	0.334011
H623	H	0.923791	0.565396	0.584011
H624	H	1.173791	0.815396	0.834011
H625	H	0.517727	0.008963	0.222765
H626	H	0.767727	0.258963	0.472765
H627	H	1.017727	0.508963	0.722765
H628	H	1.267727	0.758963	0.972765
H629	H	0.517725	0.008964	0.125856
H630	H	0.767725	0.258964	0.375856
H631	H	1.017725	0.508964	0.625856
H632	H	1.267725	0.758964	0.875856
H633	H	0.652445	0.143699	0.628656
H634	H	0.902445	0.393699	0.878656
H635	H	1.152445	0.643699	1.128656
H636	H	1.402445	0.893699	1.378656
Br637	Br	0.719910	-0.323652	0.000140
Br638	Br	0.969910	-0.073652	0.250140
Br639	Br	1.219910	0.176348	0.500140
Br640	Br	1.469910	0.426348	0.750140
Br641	Br	0.054318	0.061586	0.155414
Br642	Br	0.304318	0.311586	0.405414
Br643	Br	0.554318	0.561586	0.655414
Br644	Br	0.804318	0.811586	0.905414
H645	H	0.486977	-0.780421	0.000083
H646	H	0.736977	-0.530421	0.250083
H647	H	0.986977	-0.280421	0.500083
H648	H	1.236977	-0.030421	0.750083
Br649	Br	0.678181	-0.085647	0.000162
Br650	Br	0.928181	0.164353	0.250162
Br651	Br	1.178181	0.414353	0.500162
Br652	Br	1.428181	0.664353	0.750162
Br653	Br	0.205563	0.063142	0.155394
Br654	Br	0.455563	0.313142	0.405394
Br655	Br	0.705563	0.563142	0.655394
Br656	Br	0.955563	0.813142	0.905394
H657	H	-0.191249	0.059100	0.084061
H658	H	0.058751	0.309100	0.334061
H659	H	0.308751	0.559100	0.584061
H660	H	0.558751	0.809100	0.834061
Br661	Br	0.501970	-0.006841	0.763025
Br662	Br	0.751970	0.243159	1.013025
Br663	Br	1.001970	0.493159	1.263025
Br664	Br	1.251970	0.743159	1.513025
Br665	Br	-0.064496	0.060359	0.155418
Br666	Br	0.185504	0.310359	0.405418
Br667	Br	0.435504	0.560359	0.655418
Br668	Br	0.685504	0.810359	0.905418
H669	H	-0.282715	0.058159	0.084064
H670	H	-0.032715	0.308159	0.334064
H671	H	0.217285	0.558159	0.584064
H672	H	0.467285	0.808159	0.834064
H673	H	0.100433	0.062064	0.130287
H674	H	0.350433	0.312064	0.380287
H675	H	0.600433	0.562064	0.630287
H676	H	0.850433	0.812064	0.880287
H677	H	0.517777	0.008967	0.874407
H678	H	0.767777	0.258967	1.124407
H679	H	1.017777	0.508967	1.374407
H680	H	1.267777	0.758967	1.624407
Br681	Br	0.639092	0.130409	0.111318
Br682	Br	0.889092	0.380409	0.361318
Br683	Br	1.139092	0.630409	0.611318
Br684	Br	1.389092	0.880409	0.861318
Br685	Br	-0.177574	0.059232	-0.108914
Br686	Br	0.072426	0.309232	0.141086
Br687	Br	0.322426	0.559232	0.391086
Br688	Br	0.572426	0.809232	0.641086
Br689	Br	0.676980	-0.204466	0.000142
Br690	Br	0.926980	0.045534	0.250142
Br691	Br	1.176980	0.295534	0.500142
Br692	Br	1.426980	0.545534	0.750142
Br693	Br	0.472882	-0.035960	0.643207
Br694	Br	0.722882	0.214040	0.893207
Br695	Br	0.972882	0.464040	1.143207
Br696	Br	1.222882	0.714040	1.393207
H697	H	0.447722	-0.299717	0.000064
H698	H	0.697722	-0.049717	0.250064
H699	H	0.947722	0.200283	0.500064
H700	H	1.197722	0.450283	0.750064
H701	H	0.493226	-0.165375	0.000117
H702	H	0.743226	0.084625	0.250117
H703	H	0.993226	0.334625	0.500117
H704	H	1.243226	0.584625	0.750117
H705	H	0.694908	-0.425472	0.000135
H706	H	0.944908	-0.175472	0.250135
H707	H	1.194908	0.074528	0.500135
H708	H	1.444908	0.324528	0.750135
H709	H	-0.050801	0.060532	-0.130065
H710	H	0.199199	0.310532	0.119935
H711	H	0.449199	0.560532	0.369935
H712	H	0.699199	0.810532	0.619935
Br713	Br	0.464111	-0.671980	0.000066
Br714	Br	0.714111	-0.421980	0.250066
Br715	Br	0.964111	-0.171980	0.500066
Br716	Br	1.214111	0.078020	0.750066
Br717	Br	0.670720	-0.819536	0.000117
Br718	Br	0.920720	-0.569536	0.250117
Br719	Br	1.170720	-0.319536	0.500117
Br720	Br	1.420720	-0.069536	0.750117
Br721	Br	0.470368	-0.056915	0.000106
Br722	Br	0.720368	0.193085	0.250106
Br723	Br	0.970368	0.443085	0.500106
Br724	Br	1.220368	0.693085	0.750106
Br725	Br	0.718373	-0.474887	0.000137
Br726	Br	0.968373	-0.224887	0.250137
Br727	Br	1.218373	0.025113	0.500137
Br728	Br	1.468373	0.275113	0.750137
H729	H	0.445259	-0.542414	0.000065
H730	H	0.695259	-0.292414	0.250065
H731	H	0.945259	-0.042414	0.500065
H732	H	1.195259	0.207586	0.750065
H733	H	0.623320	0.114595	0.222715
H734	H	0.873320	0.364595	0.472715
H735	H	1.123320	0.614595	0.722715
H736	H	1.373320	0.864595	0.972715
H737	H	0.488669	-0.020166	0.468459
H738	H	0.738669	0.229834	0.718459
H739	H	0.988669	0.479834	0.968459
H740	H	1.238669	0.729834	1.218459
H741	H	0.488666	-0.020167	0.371567
H742	H	0.738666	0.229833	0.621567
H743	H	0.988666	0.479833	0.871567
H744	H	1.238666	0.729833	1.121567
H745	H	0.488673	-0.020155	0.531815
H746	H	0.738673	0.229845	0.781815
H747	H	0.988673	0.479845	1.031815
H748	H	1.238673	0.729845	1.281815
H749	H	-0.282709	0.058167	-0.083786
H750	H	-0.032709	0.308167	0.166214
H751	H	0.217291	0.558167	0.416214
H752	H	0.467291	0.808167	0.666214
