data_functionalizedCrystal
_audit_creation_method	'MofGen! by Chris Wilmer'
_symmetry_space_group_name_H-M	'P1'
_symmetry_Int_Tables_number	1
_symmetry_cell_setting	triclinic
loop_
_symmetry_equiv_pos_as_xyz
  x,y,z
_cell_length_a	16.793024
_cell_length_b	16.793047
_cell_length_c	33.586455
_cell_angle_alpha	113.253857
_cell_angle_beta	66.219990
_cell_angle_gamma	112.758327
loop_
_atom_site_label
_atom_site_type_symbol
_atom_site_fract_x
_atom_site_fract_y
_atom_site_fract_z
O1	O	0.005016	-0.570216	-0.583573
O2	O	-0.034529	-0.474528	-0.453458
O3	O	0.114723	-0.474535	-0.528082
O4	O	-0.144235	-0.570209	-0.508949
O5	O	0.108729	-0.346329	-0.530229
O6	O	-0.040523	-0.346322	-0.455605
O7	O	-0.000977	-0.442010	-0.585721
Cu8	Cu	-0.021297	-0.382459	-0.520859
Cu9	Cu	-0.014209	-0.534079	-0.518320
O10	O	-0.150229	-0.442003	-0.511097
C11	C	0.005100	-0.790970	-0.238461
C12	C	0.009223	-0.693065	-0.217557
C13	C	0.003804	-0.645758	-0.241627
C14	C	-0.075059	-0.538459	-0.266316
C15	C	0.049838	-0.422849	-0.250165
C16	C	-0.040584	-0.395375	-0.435637
C17	C	-0.044693	-0.353446	-0.386631
C18	C	-0.039275	-0.401741	-0.363054
C19	C	-0.040566	-0.125547	-0.300731
C20	C	-0.044689	-0.223451	-0.321635
C21	C	-0.039266	-0.270752	-0.297563
C22	C	0.039597	-0.378051	-0.272874
C23	C	-0.085304	-0.493667	-0.289026
C24	C	0.005118	-0.521142	-0.103554
C25	C	0.009231	-0.563064	-0.152559
C26	C	0.003809	-0.514775	-0.176138
C27	C	0.010758	-0.652581	-0.172822
C28	C	0.001010	-0.556371	-0.220792
C29	C	-0.008251	-0.506059	-0.245823
C30	C	-0.046224	-0.263935	-0.366370
C31	C	-0.036476	-0.360146	-0.318399
C32	C	-0.027211	-0.410451	-0.293367
C33	C	0.815184	-0.521162	-0.508596
C34	C	0.717729	-0.563083	-0.506815
C35	C	0.669923	-0.514793	-0.509201
C36	C	0.564072	-0.463272	-0.548285
C37	C	0.445555	-0.498966	-0.486078
C38	C	0.415541	-0.125553	-0.528781
C39	C	0.375032	-0.223457	-0.531493
C40	C	0.423813	-0.270761	-0.529101
C41	C	0.149318	-0.395376	-0.530584
C42	C	0.246774	-0.353455	-0.532364
C43	C	0.294574	-0.401748	-0.529976
C44	C	0.400424	-0.453269	-0.490892
C45	C	0.518948	-0.417572	-0.553101
C46	C	0.548961	-0.790984	-0.510398
C47	C	0.589464	-0.693083	-0.507684
C48	C	0.540690	-0.645776	-0.510078
C49	C	0.678399	-0.652598	-0.506649
C50	C	0.581167	-0.556389	-0.510877
C51	C	0.530434	-0.506073	-0.515170
C52	C	0.286104	-0.263940	-0.532530
C53	C	0.383336	-0.360149	-0.528302
C54	C	0.434062	-0.410467	-0.524008
C55	C	-0.040530	-0.395407	-0.935652
C56	C	-0.044651	-0.353482	-0.886645
C57	C	-0.039242	-0.401770	-0.863061
C58	C	0.039602	-0.453292	-0.810474
C59	C	-0.085288	-0.417587	-0.750981
C60	C	0.005063	-0.791004	-0.738448
C61	C	0.009186	-0.693099	-0.717543
C62	C	0.003779	-0.645796	-0.741620
C63	C	0.005077	-0.521171	-0.603544
C64	C	0.009198	-0.563096	-0.652550
C65	C	0.003786	-0.514804	-0.676131
C66	C	-0.075058	-0.463283	-0.728717
C67	C	0.049835	-0.498991	-0.788214
C68	C	-0.040516	-0.125574	-0.800747
C69	C	-0.044642	-0.223476	-0.821649
C70	C	-0.039232	-0.270782	-0.797575
C71	C	-0.046172	-0.263965	-0.866386
C72	C	-0.036447	-0.360171	-0.818406
C73	C	-0.027197	-0.410486	-0.793373
C74	C	0.010719	-0.652613	-0.672809
C75	C	0.000994	-0.556406	-0.720789
C76	C	-0.008259	-0.506089	-0.745819
O77	O	-0.000965	0.173549	-0.277957
O78	O	-0.040516	-0.085616	-0.325254
O79	O	0.108737	0.059592	-0.327284
O80	O	-0.150219	0.028341	-0.275927
O81	O	0.114753	0.055151	-0.263265
O82	O	-0.034500	-0.090057	-0.261234
O83	O	0.005051	0.169108	-0.213937
Cu84	Cu	-0.014175	0.039120	-0.231740
Cu85	Cu	-0.021290	0.044372	-0.307451
O86	O	-0.144202	0.023900	-0.211907
O87	O	-0.034458	-0.474571	0.046517
O88	O	0.005076	-0.570190	-0.083599
O89	O	-0.144170	-0.570237	-0.008972
O90	O	0.114787	-0.474523	-0.028110
O91	O	-0.150200	-0.442024	-0.011093
O92	O	-0.000954	-0.441976	-0.085720
O93	O	-0.040488	-0.346357	0.044396
Cu94	Cu	-0.021272	-0.382460	-0.020856
Cu95	Cu	-0.014141	-0.534087	-0.018347
O96	O	0.108757	-0.346309	-0.030231
C97	C	-0.850734	0.086244	-0.289716
C98	C	-0.753280	0.087165	-0.312001
C99	C	-0.705462	0.081107	-0.288506
C100	C	-0.599592	0.000085	-0.264184
C101	C	-0.481080	0.121287	-0.283645
C102	C	-0.450996	0.035117	-0.097351
C103	C	-0.410501	0.028587	-0.146852
C104	C	-0.459292	0.034683	-0.169840
C105	C	-0.184802	0.024283	-0.235878
C106	C	-0.282257	0.023363	-0.213592
C107	C	-0.330068	0.029423	-0.237088
C108	C	-0.435938	0.110445	-0.261411
C109	C	-0.554456	-0.010759	-0.241948
C110	C	-0.584541	0.075410	-0.428242
C111	C	-0.625029	0.081943	-0.378743
C112	C	-0.576244	0.075844	-0.355753
C113	C	-0.713963	0.086424	-0.357292
C114	C	-0.616708	0.075351	-0.310510
C115	C	-0.565963	0.065400	-0.286043
C116	C	-0.321573	0.024104	-0.168302
C117	C	-0.418828	0.035176	-0.215083
C118	C	-0.469568	0.045131	-0.239552
O119	O	0.585213	0.169090	-0.504004
O120	O	0.494056	-0.090076	-0.525516
O121	O	0.488081	0.055124	-0.449918
O122	O	0.591189	0.023889	-0.579602
O123	O	0.359978	0.059584	-0.452885
O124	O	0.365953	-0.085616	-0.528483
O125	O	0.457110	0.173550	-0.506971
Cu126	Cu	0.399835	0.044374	-0.517998
Cu127	Cu	0.551332	0.039099	-0.514489
O128	O	0.463086	0.028349	-0.582569
C129	C	0.815354	-0.521094	-0.008709
C130	C	0.717898	-0.563028	-0.006927
C131	C	0.670072	-0.514739	-0.009298
C132	C	0.564182	-0.463204	-0.048354
C133	C	0.445681	-0.498945	0.013847
C134	C	0.415547	-0.125494	-0.028771
C135	C	0.375059	-0.223405	-0.031498
C136	C	0.423859	-0.270708	-0.029121
C137	C	0.149365	-0.395355	-0.030599
C138	C	0.246820	-0.353421	-0.032381
C139	C	0.294640	-0.401713	-0.030008
C140	C	0.400530	-0.453248	0.009048
C141	C	0.519038	-0.417504	-0.053155
C142	C	0.549171	-0.790955	-0.010537
C143	C	0.589653	-0.693047	-0.007809
C144	C	0.540859	-0.645741	-0.010187
C145	C	0.678588	-0.652551	-0.006775
C146	C	0.581317	-0.556344	-0.010973
C147	C	0.530562	-0.506029	-0.015250
C148	C	0.286131	-0.263897	-0.032533
C149	C	0.383402	-0.360104	-0.028335
C150	C	0.434150	-0.410423	-0.024057
O151	O	-0.620614	0.089309	0.052274
O152	O	-0.529507	0.043784	-0.078544
O153	O	-0.523494	0.194833	-0.006033
O154	O	-0.626628	-0.061740	-0.020236
O155	O	-0.395386	0.185419	-0.005549
O156	O	-0.401400	0.034370	-0.078059
O157	O	-0.492507	0.079895	0.052758
Cu158	Cu	-0.435256	0.056273	-0.012607
Cu159	Cu	-0.586758	0.067406	-0.013179
O160	O	-0.498521	-0.071154	-0.019752
C161	C	-0.437537	0.048335	0.402491
C162	C	-0.397043	0.041789	0.352989
C163	C	-0.445822	0.047883	0.329994
C164	C	-0.496646	0.126653	0.277022
C165	C	-0.465894	-0.000633	0.218811
C166	C	-0.837226	0.099430	0.210091
C167	C	-0.739773	0.100339	0.187806
C168	C	-0.691967	0.094287	0.211308
C169	C	-0.571027	0.088563	0.071568
C170	C	-0.611521	0.095108	0.121070
C171	C	-0.562739	0.089011	0.144061
C172	C	-0.511915	0.010241	0.197033
C173	C	-0.542670	0.137531	0.255247
C174	C	-0.171338	0.037467	0.263967
C175	C	-0.268788	0.036555	0.286249
C176	C	-0.316597	0.042611	0.262750
C177	C	-0.308112	0.037305	0.331542
C178	C	-0.405351	0.048369	0.284750
C179	C	-0.456092	0.058317	0.260279
C180	C	-0.700452	0.099593	0.142516
C181	C	-0.603213	0.088528	0.189308
C182	C	-0.552469	0.078578	0.213776
O183	O	-0.040608	-1.085661	-0.825229
O184	O	-0.001018	-0.826491	-0.777938
O185	O	-0.150287	-0.971682	-0.775894
O186	O	0.108661	-0.940470	-0.827272
O187	O	-0.144253	-0.976123	-0.711878
O188	O	0.005016	-0.830932	-0.713922
O189	O	-0.034575	-1.090102	-0.761213
Cu190	Cu	-0.014228	-0.960923	-0.731722
Cu191	Cu	-0.021364	-0.955670	-0.807428
O192	O	0.114695	-0.944911	-0.763256
C193	C	-0.036587	-0.225633	-0.248813
C194	C	-0.115212	-0.197561	-0.222306
C195	C	-0.112787	-0.156006	-0.177394
H196	H	0.014756	-0.174936	-0.247781
H197	H	-0.032968	-0.267195	-0.237357
H198	H	-0.118822	-0.156002	-0.233759
H199	H	-0.166568	-0.248241	-0.223325
H200	H	-0.109167	-0.197567	-0.165938
H201	H	-0.061440	-0.105312	-0.176366
H202	H	-0.166135	-0.136961	-0.159403
H203	H	-0.724884	0.094041	0.248327
H204	H	-0.531920	0.039247	-0.151930
C205	C	-0.267831	0.019673	-0.142431
C206	C	-0.311366	-0.057081	-0.126939
C207	C	-0.261877	-0.061196	-0.103111
H208	H	-0.263747	0.071876	-0.117279
H209	H	-0.208811	0.016729	-0.161935
H210	H	-0.370370	-0.054129	-0.107437
H211	H	-0.315451	-0.109297	-0.152082
H212	H	-0.202858	-0.064141	-0.122614
H213	H	-0.257796	-0.008990	-0.077961
H214	H	-0.291404	-0.113278	-0.092600
H215	H	0.001650	-0.679613	-0.278166
C216	C	-0.487573	0.192390	0.322621
C217	C	-0.395948	0.234090	0.319326
C218	C	-0.387560	0.294661	0.361321
H219	H	-0.513821	0.160841	0.344920
H220	H	-0.517777	0.236753	0.331040
H221	H	-0.365755	0.189733	0.310913
H222	H	-0.369680	0.265656	0.297036
H223	H	-0.417764	0.339024	0.369741
H224	H	-0.413813	0.263104	0.383617
H225	H	-0.325393	0.322968	0.359091
H226	H	-0.048864	-0.224020	-0.386283
H227	H	-0.365918	0.157102	-0.260160
H228	H	-0.142686	-0.383972	-0.734830
C229	C	0.403254	-0.543816	-0.448128
C230	C	0.462448	-0.586415	-0.450187
C231	C	0.423518	-0.627732	-0.415232
H232	H	0.347911	-0.587159	-0.451464
H233	H	0.392049	-0.499595	-0.419681
H234	H	0.473640	-0.630631	-0.478627
H235	H	0.517792	-0.543091	-0.446845
H236	H	0.412313	-0.583511	-0.386785
H237	H	0.368175	-0.671070	-0.418571
H238	H	0.463678	-0.656633	-0.416622
H239	H	0.702857	-0.441654	-0.509785
H240	H	0.261721	-0.474856	-0.029430
H241	H	0.702991	-0.441593	-0.009870
H242	H	0.330510	-0.448858	0.033327
H243	H	0.107243	-0.392097	-0.234140
C244	C	0.126277	-0.543921	-0.809682
C245	C	0.122699	-0.586556	-0.780378
C246	C	0.193093	-0.627966	-0.800141
H247	H	0.182617	-0.499773	-0.815007
H248	H	0.120106	-0.587254	-0.837640
H249	H	0.128877	-0.543228	-0.752428
H250	H	0.066375	-0.630717	-0.775051
H251	H	0.186922	-0.671299	-0.828099
H252	H	0.249427	-0.583813	-0.805465
H253	H	0.190670	-0.656906	-0.780263
C254	C	0.000952	-0.690750	-0.790353
C255	C	-0.004425	-0.629302	-0.807095
C256	C	-0.007018	-0.670680	-0.851987
H257	H	-0.050443	-0.741392	-0.791379
H258	H	0.054250	-0.709847	-0.808426
H259	H	-0.057717	-0.610219	-0.789027
H260	H	0.046966	-0.578659	-0.806081
H261	H	0.046280	-0.689776	-0.870060
H262	H	-0.058414	-0.721320	-0.853009
H263	H	-0.010658	-0.628991	-0.863354
H264	H	0.718758	-0.692512	-0.505593
C265	C	0.657446	-0.469034	-0.580685
C266	C	0.681953	-0.422321	-0.612209
C267	C	0.767968	-0.427595	-0.642058
H268	H	0.656578	-0.530334	-0.596186
H269	H	0.700044	-0.442980	-0.564047
H270	H	0.639366	-0.448379	-0.628845
H271	H	0.682841	-0.361017	-0.596721
H272	H	0.810566	-0.401541	-0.625420
H273	H	0.767092	-0.488897	-0.657556
H274	H	0.784610	-0.395895	-0.663448
H275	H	-0.297145	0.029698	-0.274103
C276	C	0.403056	-0.543775	0.051817
C277	C	0.317971	-0.528520	0.077021
C278	C	0.278676	-0.569815	0.111998
H279	H	0.440612	-0.519217	0.071054
H280	H	0.396547	-0.606703	0.039205
H281	H	0.324484	-0.465605	0.089633
H282	H	0.280393	-0.553080	0.057797
H283	H	0.272167	-0.632743	0.099386
H284	H	0.316238	-0.545254	0.131232
H285	H	0.220938	-0.559478	0.129101
C286	C	-0.465954	0.082781	0.120109
C287	C	-0.464354	0.005915	0.082785
C288	C	-0.375210	0.000157	0.060707
H289	H	-0.442442	0.078994	0.140524
H290	H	-0.430083	0.134801	0.110028
H291	H	-0.500212	-0.046093	0.092867
H292	H	-0.487849	0.009684	0.062360
H293	H	-0.339338	0.052178	0.050626
H294	H	-0.351705	-0.003627	0.081126
H295	H	-0.374111	-0.051991	0.035378
H296	H	0.013347	-0.692513	-0.652885
C297	C	-0.438444	0.196085	-0.306629
C298	C	-0.353359	0.244179	-0.300150
C299	C	-0.314053	0.313079	-0.321323
H300	H	-0.475994	0.235583	-0.293840
H301	H	-0.431933	0.170696	-0.338181
H302	H	-0.359875	0.269568	-0.268605
H303	H	-0.315787	0.204706	-0.312942
H304	H	-0.307542	0.287689	-0.352875
H305	H	-0.351610	0.352570	-0.308532
H306	H	-0.256316	0.345713	-0.316934
H307	H	-0.123560	-0.607102	-0.263443
H308	H	0.088099	-0.448874	-0.845454
H309	H	0.468233	-0.679598	-0.011487
C310	C	0.732292	-0.705805	-0.005303
C311	C	0.688825	-0.735480	0.033703
C312	C	0.738266	-0.784539	0.035078
H313	H	0.791356	-0.668493	-0.004689
H314	H	0.736237	-0.756281	-0.031443
H315	H	0.684890	-0.685012	0.059837
H316	H	0.629764	-0.772804	0.033098
H317	H	0.742211	-0.835015	0.008938
H318	H	0.797328	-0.747221	0.035691
H319	H	0.708776	-0.804687	0.061542
H320	H	0.550810	-0.383955	-0.581575
H321	H	-0.142704	-0.524425	-0.305055
C322	C	0.232161	-0.210721	-0.533833
C323	C	0.155810	-0.208094	-0.495714
C324	C	0.106099	-0.159069	-0.496894
H325	H	0.213683	-0.238849	-0.560572
H326	H	0.268710	-0.151109	-0.533743
H327	H	0.119268	-0.267695	-0.495808
H328	H	0.174262	-0.179959	-0.468970
H329	H	0.142648	-0.099456	-0.496804
H330	H	0.087627	-0.187202	-0.523634
H331	H	0.054294	-0.157273	-0.471029
C332	C	-0.520721	-0.055533	0.151405
C333	C	-0.476078	-0.120744	0.139116
C334	C	-0.484178	-0.181357	0.097087
H335	H	-0.494388	-0.023993	0.129099
H336	H	-0.582837	-0.083968	0.153540
H337	H	-0.413974	-0.092311	0.136978
H338	H	-0.502401	-0.152306	0.161411
H339	H	-0.546295	-0.209792	0.099222
H340	H	-0.457846	-0.149809	0.074785
H341	H	-0.453897	-0.225614	0.088746
H342	H	-0.574318	0.196197	0.271049
C343	C	-0.479458	0.069621	-0.379707
C344	C	-0.477857	-0.007236	-0.417036
C345	C	-0.388713	-0.012992	-0.439117
H346	H	-0.455944	0.065825	-0.359295
H347	H	-0.443587	0.121647	-0.389784
H348	H	-0.513715	-0.059249	-0.406958
H349	H	-0.501353	-0.003457	-0.437458
H350	H	-0.352842	0.039034	-0.449194
H351	H	-0.365207	-0.016786	-0.418701
H352	H	-0.387614	-0.065134	-0.464449
C353	C	0.520622	-0.225725	-0.527306
C354	C	0.527030	-0.226333	-0.487140
C355	C	0.616202	-0.184870	-0.485478
H356	H	0.537668	-0.165329	-0.528119
H357	H	0.559722	-0.257598	-0.552611
H358	H	0.487943	-0.194458	-0.461842
H359	H	0.510003	-0.286717	-0.486319
H360	H	0.655302	-0.216743	-0.510783
H361	H	0.633240	-0.124477	-0.486292
H362	H	0.620563	-0.185285	-0.458228
C363	C	-0.542684	0.053945	0.353787
C364	C	-0.576998	0.059419	0.323528
C365	C	-0.666228	0.064989	0.345428
H366	H	-0.544051	0.106060	0.379122
H367	H	-0.578576	0.001880	0.363827
H368	H	-0.541116	0.111478	0.313495
H369	H	-0.575654	0.007310	0.298192
H370	H	-0.702120	0.012924	0.355468
H371	H	-0.667587	0.117105	0.370763
H372	H	-0.689524	0.068696	0.324900
H373	H	-0.754334	0.089615	-0.376700
C374	C	-0.036564	-0.499300	-0.385685
C375	C	-0.115173	-0.550181	-0.398671
C376	C	-0.112702	-0.640053	-0.419525
H377	H	-0.032936	-0.522378	-0.364987
H378	H	0.014806	-0.502672	-0.411727
H379	H	-0.166529	-0.546814	-0.372633
H380	H	-0.118816	-0.527131	-0.419374
H381	H	-0.061333	-0.643425	-0.445568
H382	H	-0.109073	-0.663122	-0.398825
H383	H	-0.166033	-0.674585	-0.428343
C384	C	0.001126	-0.417225	-0.653542
C385	C	0.079755	-0.366348	-0.640573
C386	C	0.077350	-0.276451	-0.619771
H387	H	-0.050215	-0.413755	-0.627499
H388	H	-0.002485	-0.394219	-0.674278
H389	H	0.083358	-0.389347	-0.619839
H390	H	0.131109	-0.369791	-0.666609
H391	H	0.073739	-0.253445	-0.640507
H392	H	0.026006	-0.272991	-0.593730
H393	H	0.130702	-0.241918	-0.610973
C394	C	0.443844	-0.691046	-0.511784
C395	C	0.419104	-0.779982	-0.510534
C396	C	0.329893	-0.821710	-0.512099
H397	H	0.439234	-0.690829	-0.539013
H398	H	0.404715	-0.659243	-0.486457
H399	H	0.458222	-0.811777	-0.535858
H400	H	0.423693	-0.780225	-0.483307
H401	H	0.290763	-0.789908	-0.486772
H402	H	0.325291	-0.821487	-0.539328
H403	H	0.313092	-0.882055	-0.511246
C404	C	-0.254437	0.033027	0.357493
C405	C	-0.308559	0.034689	0.402105
C406	C	-0.259145	0.030743	0.426022
H407	H	-0.202570	0.083266	0.357771
H408	H	-0.236082	-0.021031	0.343178
H409	H	-0.326901	0.088741	0.416416
H410	H	-0.360424	-0.015546	0.401841
H411	H	-0.240790	-0.023315	0.411708
H412	H	-0.207281	0.080983	0.426297
H413	H	-0.295862	0.031862	0.456293
C414	C	-0.749464	0.080559	-0.239179
C415	C	-0.826046	0.006855	-0.235812
C416	C	-0.866597	0.006317	-0.190380
H417	H	-0.766766	0.134709	-0.221569
H418	H	-0.707721	0.076023	-0.228255
H419	H	-0.867782	0.011398	-0.246731
H420	H	-0.808770	-0.047307	-0.253412
H421	H	-0.824854	0.001781	-0.179456
H422	H	-0.883893	0.060470	-0.172774
H423	H	-0.918558	-0.043695	-0.188090
C424	C	-0.036551	-0.225672	-0.748825
C425	C	-0.115171	-0.197596	-0.722311
C426	C	-0.112735	-0.156050	-0.677401
H427	H	0.014795	-0.174978	-0.747794
H428	H	-0.032930	-0.267241	-0.737374
H429	H	-0.118783	-0.156029	-0.733759
H430	H	-0.166530	-0.248272	-0.723329
H431	H	-0.109114	-0.197619	-0.665949
H432	H	-0.061386	-0.105360	-0.676374
H433	H	-0.166081	-0.137003	-0.659404
H434	H	-0.740818	0.102779	0.123104
C435	C	0.000894	-0.417259	-0.153609
C436	C	-0.004543	-0.383649	-0.184251
C437	C	-0.007242	-0.293824	-0.163511
H438	H	0.054158	-0.382487	-0.144772
H439	H	-0.050528	-0.413901	-0.127594
H440	H	0.046874	-0.387000	-0.210258
H441	H	-0.057805	-0.418395	-0.193090
H442	H	-0.058664	-0.290466	-0.137496
H443	H	0.046023	-0.259061	-0.154674
H444	H	-0.010940	-0.271011	-0.184296
C445	C	0.250514	-0.499218	-0.529122
C446	C	0.173911	-0.503867	-0.491243
C447	C	0.133297	-0.593641	-0.490444
H448	H	0.292190	-0.522266	-0.527417
H449	H	0.233235	-0.533914	-0.555979
H450	H	0.191192	-0.469183	-0.464393
H451	H	0.132215	-0.480837	-0.492940
H452	H	0.116018	-0.628338	-0.517301
H453	H	0.174979	-0.616682	-0.488740
H454	H	0.081313	-0.596808	-0.464746
C455	C	0.307083	-0.447460	-0.458470
C456	C	0.282598	-0.494148	-0.426939
C457	C	0.196617	-0.488812	-0.397062
H458	H	0.264436	-0.473493	-0.475073
H459	H	0.308020	-0.386129	-0.442983
H460	H	0.281654	-0.555466	-0.442425
H461	H	0.325222	-0.468124	-0.410326
H462	H	0.197554	-0.427482	-0.381575
H463	H	0.153978	-0.514846	-0.413669
H464	H	0.179997	-0.520482	-0.375662
H465	H	0.088092	-0.309407	-0.275738
H466	H	-0.669612	-0.046576	-0.265443
C467	C	-0.597042	-0.085636	-0.219018
C468	C	-0.682101	-0.133765	-0.225524
C469	C	-0.721345	-0.202763	-0.204417
H470	H	-0.603595	-0.060361	-0.187464
H471	H	-0.559414	-0.125082	-0.231848
H472	H	-0.719720	-0.094327	-0.212691
H473	H	-0.675573	-0.159062	-0.257072
H474	H	-0.683716	-0.242208	-0.217248
H475	H	-0.727891	-0.177479	-0.172865
H476	H	-0.779057	-0.235432	-0.208832
C477	C	0.014084	-0.705805	-0.146212
C478	C	-0.062113	-0.708442	-0.108052
C479	C	-0.059088	-0.757475	-0.083531
H480	H	0.067191	-0.677680	-0.136789
H481	H	0.014700	-0.765416	-0.164888
H482	H	-0.062720	-0.648843	-0.089379
H483	H	-0.115231	-0.736575	-0.117462
H484	H	-0.058472	-0.817085	-0.102207
H485	H	-0.005979	-0.729344	-0.074111
H486	H	-0.110790	-0.759277	-0.057639
H487	H	0.634201	-0.467612	-0.072637
C488	C	0.561641	-0.372723	-0.091143
C489	C	0.646713	-0.388006	-0.116356
C490	C	0.685984	-0.346765	-0.151352
H491	H	0.568178	-0.309799	-0.078563
H492	H	0.524037	-0.397321	-0.110366
H493	H	0.684307	-0.363405	-0.097136
H494	H	0.640200	-0.450922	-0.128946
H495	H	0.648381	-0.371363	-0.170574
H496	H	0.692516	-0.283843	-0.138768
H497	H	0.743706	-0.357136	-0.168465
C498	C	-0.049483	-0.210653	-0.892957
C499	C	0.026725	-0.136405	-0.895308
C500	C	0.023716	-0.087280	-0.919788
H501	H	-0.102583	-0.190359	-0.878177
H502	H	-0.050101	-0.247991	-0.922753
H503	H	0.027334	-0.099073	-0.865518
H504	H	0.079837	-0.156674	-0.910091
H505	H	0.023098	-0.124618	-0.949583
H506	H	-0.029387	-0.066992	-0.905006
H507	H	0.075425	-0.036902	-0.921390
H508	H	0.496488	-0.236853	-0.027824
H509	H	0.245737	-0.223998	-0.033572
H510	H	-0.123559	-0.467696	-0.693740
C511	C	-0.423836	-0.078948	0.197814
C512	C	-0.461017	-0.133111	0.227153
C513	C	-0.422303	-0.205268	0.207824
H514	H	-0.360367	-0.056504	0.192967
H515	H	-0.435839	-0.113610	0.169647
H516	H	-0.449007	-0.098455	0.255312
H517	H	-0.524482	-0.155577	0.232002
H518	H	-0.434306	-0.239930	0.179658
H519	H	-0.358835	-0.182816	0.202979
H520	H	-0.447530	-0.242031	0.227726
C521	C	-0.272849	0.043020	0.213397
C522	C	-0.334587	0.049666	0.197427
C523	C	-0.294313	0.050058	0.151967
H524	H	-0.255640	-0.011176	0.195783
H525	H	-0.220863	0.092988	0.211009
H526	H	-0.386557	-0.000298	0.199811
H527	H	-0.351801	0.103860	0.215028
H528	H	-0.242326	0.100026	0.149579
H529	H	-0.277105	-0.004139	0.134357
H530	H	-0.336192	0.054576	0.141127
C531	C	-0.036532	-0.499329	-0.885695
C532	C	-0.115136	-0.550201	-0.898688
C533	C	-0.112670	-0.640074	-0.919545
H534	H	-0.032915	-0.522416	-0.864998
H535	H	0.014842	-0.502700	-0.911735
H536	H	-0.166497	-0.546836	-0.872651
H537	H	-0.118769	-0.527144	-0.919390
H538	H	-0.061296	-0.643445	-0.945585
H539	H	-0.109051	-0.663151	-0.898845
H540	H	-0.165997	-0.674600	-0.928366
