data_functionalizedCrystal
_audit_creation_method	'MofGen! by Chris Wilmer'
_symmetry_space_group_name_H-M	'P1'
_symmetry_Int_Tables_number	1
_symmetry_cell_setting	triclinic
loop_
_symmetry_equiv_pos_as_xyz
  x,y,z
_cell_length_a	15.944551
_cell_length_b	16.992695
_cell_length_c	16.053802
_cell_angle_alpha	87.258926
_cell_angle_beta	87.414388
_cell_angle_gamma	92.916520
loop_
_atom_site_label
_atom_site_type_symbol
_atom_site_fract_x
_atom_site_fract_y
_atom_site_fract_z
O1	O	1.124632	-0.097822	-0.069512
O2	O	0.880918	-0.110291	-0.069496
O3	O	1.001798	0.010086	-0.069497
O4	O	1.003753	-0.218199	-0.069511
O5	O	0.995143	0.003487	0.069362
O6	O	0.874263	-0.116889	0.069363
O7	O	1.117977	-0.104421	0.069347
Zn8	Zn	0.995063	-0.111703	0.091402
Zn9	Zn	1.003832	-0.103009	-0.091551
O10	O	0.997097	-0.224797	0.069348
C11	C	0.995957	0.035999	-0.000068
C12	C	0.988456	0.123044	-0.000067
C13	C	0.846262	-0.113073	-0.000064
C14	C	0.752911	-0.111521	-0.000058
C15	C	1.152633	-0.101639	-0.000086
C16	C	1.245984	-0.103190	-0.000098
C17	C	1.466093	-0.181515	-0.000084
C18	C	1.527955	-0.141890	-0.068546
C19	C	1.416898	-0.105998	-0.000086
C20	C	1.521370	-0.148378	0.068358
C21	C	1.581992	-0.108716	-0.000071
C22	C	1.477533	-0.066350	-0.068605
C23	C	1.470939	-0.072851	0.068361
C24	C	1.532781	-0.033171	-0.000118
C25	C	1.321791	-0.104434	-0.000096
C26	C	1.677097	-0.110273	-0.000068
C27	C	1.002939	-0.250711	-0.000083
C28	C	1.010439	-0.337755	-0.000089
N29	N	0.989085	-0.117636	0.216262
C30	C	1.060822	0.173281	-0.000071
C31	C	1.053770	0.255068	-0.000079
C32	C	0.974352	0.286617	-0.000076
C33	C	0.901982	0.236373	-0.000075
C34	C	0.909034	0.154588	-0.000074
C35	C	0.945121	0.530216	-0.000086
C36	C	0.938074	0.612008	-0.000085
C37	C	1.089863	0.630697	-0.000090
C38	C	1.096908	0.548909	-0.000084
C39	C	1.024538	0.498673	-0.000087
N40	N	0.967142	0.370216	-0.000081
N41	N	1.031749	0.415076	-0.000088
N42	N	1.009816	-0.097070	-0.216411
C43	C	1.040541	-0.066433	0.259956
C44	C	1.036367	-0.070591	0.347362
C45	C	0.980741	-0.125955	0.391074
C46	C	0.929280	-0.177160	0.347375
C47	C	0.933450	-0.172998	0.259970
C48	C	0.962525	-0.144112	0.652484
C49	C	0.958361	-0.148272	0.739895
C50	C	1.065447	-0.041702	0.739877
C51	C	1.069616	-0.037548	0.652470
C52	C	1.018151	-0.088750	0.608778
N53	N	0.976476	-0.130208	0.480418
N54	N	1.022413	-0.084493	0.519436
H55	H	1.436994	-0.244195	-0.000155
H56	H	1.114911	0.007534	0.616882
H57	H	0.913061	-0.193359	0.775482
H58	H	1.107346	-0.000015	0.775459
H59	H	1.561728	0.029570	-0.000148
N60	N	0.907015	-0.199330	0.605366
H61	H	0.871146	-0.235034	0.646322
H62	H	0.943219	-0.232290	0.569079
N63	N	1.146482	0.139259	-0.000072
H64	H	1.139972	0.079825	-0.000066
H65	H	1.175917	0.155198	0.051405
N66	N	1.131820	0.309253	-0.000078
H67	H	1.183200	0.276856	-0.000072
H68	H	1.129725	0.341149	0.051399
N69	N	0.869276	-0.236869	0.394516
H70	H	0.874443	-0.231739	0.456518
H71	H	0.883437	-0.291773	0.379223
N72	N	1.547144	-0.194346	0.145023
H73	H	1.495314	-0.214603	0.179547
H74	H	1.583078	-0.158816	0.179270
H75	H	1.161579	0.523229	-0.000086
H76	H	1.148782	0.671608	-0.000089
H77	H	0.891548	-0.214691	0.224395
H78	H	1.552986	-0.171082	-0.126427
H79	H	1.458182	-0.031685	-0.126551
H80	H	0.873398	0.637690	-0.000070
H81	H	0.886192	0.489324	-0.000088
H82	H	1.445892	-0.043689	0.126247
H83	H	0.837318	0.262067	-0.000078
H84	H	0.850107	0.113685	-0.000071
H85	H	1.085841	-0.021353	0.224371
H86	H	1.078266	-0.028898	0.382937
