data_functionalizedCrystal
_audit_creation_method	'MofGen! by Chris Wilmer'
_symmetry_space_group_name_H-M	'P1'
_symmetry_Int_Tables_number	1
_symmetry_cell_setting	triclinic
loop_
_symmetry_equiv_pos_as_xyz
  x,y,z
_cell_length_a	16.109301
_cell_length_b	14.853567
_cell_length_c	15.186229
_cell_angle_alpha	90.000050
_cell_angle_beta	89.999362
_cell_angle_gamma	83.548205
loop_
_atom_site_label
_atom_site_type_symbol
_atom_site_fract_x
_atom_site_fract_y
_atom_site_fract_z
O1	O	1.103293	0.115881	-0.073165
O2	O	0.861252	0.130302	-0.073178
O3	O	0.988738	-0.008149	-0.073174
O4	O	0.975807	0.254332	-0.073170
O5	O	0.988729	-0.008151	0.073283
O6	O	0.861243	0.130300	0.073279
O7	O	1.103285	0.115879	0.073292
Zn8	Zn	0.982263	0.123089	0.096539
Zn9	Zn	0.982274	0.123092	-0.096425
O10	O	0.975799	0.254330	0.073288
C11	C	0.830272	0.129717	0.000048
C12	C	0.737974	0.127965	0.000043
C13	C	0.988148	-0.041738	0.000052
C14	C	0.986392	-0.141819	0.000044
C15	C	0.515811	0.206047	0.000055
C16	C	0.429089	0.204395	0.000060
C17	C	0.448732	0.040127	0.000054
C18	C	0.535453	0.041781	0.000054
C19	C	0.568990	0.124743	0.000050
C20	C	0.395546	0.121437	0.000055
C21	C	0.301518	0.119645	0.000061
C22	C	0.663025	0.126536	0.000046
C23	C	0.903241	-0.554215	0.000056
C24	C	1.054697	-0.575746	0.000064
C25	C	1.056348	-0.481715	0.000059
C26	C	0.981444	-0.423930	0.000054
C27	C	0.904889	-0.460175	0.000054
C28	C	1.132901	-0.445463	0.000068
C29	C	1.134555	-0.351426	0.000064
C30	C	1.059650	-0.293639	0.000053
C31	C	0.983093	-0.329890	0.000052
C32	C	0.908189	-0.272104	0.000046
C33	C	0.831630	-0.308353	0.000039
C34	C	0.829984	-0.402388	0.000042
C35	C	1.061296	-0.199604	0.000049
C36	C	0.909837	-0.178064	0.000044
C37	C	1.134265	0.116464	0.000063
C38	C	1.226563	0.118215	0.000063
C39	C	0.976389	0.287918	0.000060
C40	C	0.978145	0.387999	0.000062
N41	N	0.982261	0.123087	0.228231
N42	N	0.982282	0.123087	-0.228118
C43	C	1.038731	0.061801	0.453956
C44	C	1.038734	0.061799	0.546146
C45	C	0.925806	0.184375	0.546151
C46	C	0.925800	0.184372	0.453963
C47	C	0.982267	0.123086	0.407868
C48	C	0.982276	0.123087	0.592246
C49	C	0.982278	0.123085	0.692202
C50	C	0.982264	0.123087	0.307905
H51	H	0.543114	0.273601	0.000058
H52	H	0.840908	-0.583733	0.000047
H53	H	0.385793	0.270600	0.000066
C54	C	1.144491	-0.160422	0.000009
C55	C	1.209735	-0.231155	-0.000004
C56	C	1.286391	-0.195096	-0.000057
H57	H	1.148398	-0.124193	0.051064
H58	H	1.148331	-0.124219	-0.051089
H59	H	1.205898	-0.267343	0.051088
H60	H	1.205856	-0.267389	-0.051055
H61	H	1.290230	-0.158893	-0.051154
H62	H	1.290289	-0.158868	0.050999
H63	H	1.330668	-0.243082	-0.000073
H64	H	1.084709	0.011897	0.416427
C65	C	1.100133	-0.004778	0.596025
C66	C	1.149593	-0.058432	0.535921
C67	C	1.206173	-0.119768	0.581837
H68	H	1.070285	-0.042405	0.631993
H69	H	1.134825	0.027642	0.631966
H70	H	1.114907	-0.090850	0.499995
H71	H	1.179460	-0.020830	0.499952
H72	H	1.240864	-0.087348	0.617779
H73	H	1.176317	-0.157388	0.617803
H74	H	1.239743	-0.156174	0.541064
H75	H	0.421415	-0.027418	0.000062
H76	H	0.879833	0.234274	0.583691
C77	C	0.864627	0.250963	0.403806
C78	C	0.908975	0.306145	0.350858
C79	C	0.852652	0.367486	0.304634
H80	H	0.830980	0.287555	0.444361
H81	H	0.829992	0.218544	0.367797
H82	H	0.943595	0.338562	0.386865
H83	H	0.942619	0.269578	0.310288
H84	H	0.818018	0.335067	0.268624
H85	H	0.819008	0.404071	0.345194
H86	H	0.882734	0.404929	0.268697
H87	H	0.578754	-0.024431	0.000053
H88	H	0.770643	-0.261292	0.000041
H89	H	1.115680	-0.622800	0.000076
H90	H	0.848840	-0.131020	0.000036
H91	H	0.767654	-0.431911	0.000037
H92	H	1.193884	-0.492518	0.000081
H93	H	1.196894	-0.321921	0.000069
