data_functionalizedCrystal
_audit_creation_method	'MofGen! by Chris Wilmer'
_symmetry_space_group_name_H-M	'P1'
_symmetry_Int_Tables_number	1
_symmetry_cell_setting	triclinic
loop_
_symmetry_equiv_pos_as_xyz
  x,y,z
_cell_length_a	12.827893
_cell_length_b	15.297327
_cell_length_c	12.827885
_cell_angle_alpha	99.642748
_cell_angle_beta	89.980538
_cell_angle_gamma	99.706564
loop_
_atom_site_label
_atom_site_type_symbol
_atom_site_fract_x
_atom_site_fract_y
_atom_site_fract_z
Zn1	Zn	1.525604	-0.359117	-0.662774
Zn2	Zn	2.025604	0.140883	-0.162774
Zn3	Zn	1.495218	-0.510002	-0.518254
Zn4	Zn	1.995218	-0.010002	-0.018254
Zn5	Zn	1.350836	-0.359161	-0.488057
Zn6	Zn	1.850836	0.140839	0.011943
Zn7	Zn	1.320564	-0.509935	-0.692941
Zn8	Zn	1.820564	-0.009935	-0.192941
O9	O	1.423055	-0.434554	-0.590506
O10	O	1.923055	0.065446	-0.090506
O11	O	1.667807	-0.379142	-0.643616
O12	O	2.167807	0.120858	-0.143616
O13	O	1.476017	-0.490040	-0.368022
O14	O	1.976017	0.009960	0.131978
O15	O	1.399404	-0.232910	-0.485971
O16	O	1.899404	0.267090	0.014029
O17	O	1.645482	-0.489997	-0.537438
O18	O	2.145482	0.010003	-0.037438
O19	O	1.527806	-0.232878	-0.614335
O20	O	2.027806	0.267122	-0.114335
O21	O	1.369940	-0.379217	-0.345836
O22	O	1.869940	0.120783	0.154164
O23	O	1.200586	-0.379152	-0.515222
O24	O	1.700586	0.120848	-0.015222
O25	O	1.347811	-0.489883	-0.835166
O26	O	1.847811	0.010117	-0.335166
O27	O	1.178346	-0.489925	-0.665749
O28	O	1.678346	0.010075	-0.165749
O29	O	1.498453	-0.379077	-0.813003
O30	O	1.998453	0.120923	-0.313003
O31	O	1.446664	-0.636239	-0.566689
O32	O	1.946664	-0.136239	-0.066689
O33	O	1.318347	-0.636189	-0.695031
O34	O	1.818347	-0.136189	-0.195031
C35	C	1.151549	-0.434537	-0.590483
C36	C	1.651549	0.065463	-0.090483
C37	C	1.035393	-0.434551	-0.590502
C38	C	1.535393	0.065449	-0.090502
C39	C	0.972613	-0.489451	-0.664907
C40	C	1.472613	0.010549	-0.164907
C41	C	0.852560	-0.489467	-0.664929
C42	C	1.352560	0.010533	-0.164929
C43	C	1.375952	-0.668948	-0.637433
C44	C	1.875952	-0.168948	-0.137433
C45	C	1.355896	-0.769223	-0.657544
C46	C	1.855896	-0.269223	-0.157544
C47	C	1.566826	-1.051858	-0.447130
C48	C	2.066826	-0.551858	0.052870
C49	C	1.585669	-0.957645	-0.428230
C50	C	2.085669	-0.457645	0.071770
C51	C	1.528228	-0.910535	-0.485557
C52	C	2.028228	-0.410535	0.014443
C53	C	1.451940	-0.957647	-0.561787
C54	C	1.951940	-0.457647	-0.061787
C55	C	1.433089	-1.051869	-0.580683
C56	C	1.933089	-0.551869	-0.080683
C57	C	1.394491	-0.910546	-0.619110
C58	C	1.894491	-0.410546	-0.119110
C59	C	1.318203	-0.957658	-0.695340
C60	C	1.818203	-0.457658	-0.195340
C61	C	1.299357	-1.051871	-0.714233
C62	C	1.799357	-0.551871	-0.214233
C63	C	1.356798	-1.098981	-0.656906
C64	C	1.856798	-0.598981	-0.156906
C65	C	1.413341	-0.816324	-0.600214
C66	C	1.913341	-0.316324	-0.100214
C67	C	1.279605	-0.816335	-0.733767
C68	C	1.779605	-0.316335	-0.233767
C69	C	1.260762	-0.910548	-0.752667
C70	C	1.760762	-0.410548	-0.252667
C71	C	1.695622	-0.434572	-0.590531
C72	C	2.195622	0.065428	-0.090531
C73	C	1.811773	-0.434580	-0.590541
C74	C	2.311773	0.065420	-0.090541
C75	C	1.423145	-0.434468	-0.863059
C76	C	1.923145	0.065532	-0.363059
C77	C	1.423183	-0.434431	-0.979205
C78	C	1.923183	0.065569	-0.479205
C79	C	1.470371	-0.199245	-0.543419
C80	C	1.970371	0.300755	-0.043419
C81	C	1.490535	-0.098970	-0.523353
C82	C	1.990535	0.401030	-0.023353
C83	C	1.370715	-0.379581	-1.020009
C84	C	1.870715	0.120419	-0.520009
C85	C	1.370753	-0.379542	-1.140052
C86	C	1.870753	0.120458	-0.640052
C87	C	1.423039	-0.434575	-0.319001
C88	C	1.923039	0.065425	0.180999
C89	C	1.423255	-0.434358	-0.202805
C90	C	1.923255	0.065642	0.297195
H91	H	0.865713	-0.387579	-0.526834
H92	H	1.365713	0.112421	-0.026834
F93	F	0.782050	-0.550908	-0.748189
F94	F	1.282050	-0.050908	-0.248189
H95	H	1.543573	-0.833822	-0.470163
H96	H	2.043573	-0.333822	0.029837
F97	F	1.218462	-0.766202	-0.794777
F98	F	1.718462	-0.266202	-0.294777
H99	H	1.325839	-0.332580	-1.175184
H100	H	1.825839	0.167420	-0.675184
H101	H	1.000262	-0.387558	-0.526821
H102	H	1.500262	0.112442	-0.026821
H103	H	1.468129	-0.481361	-1.033142
H104	H	1.968129	0.018639	-0.533142
F105	F	1.494530	-0.766194	-0.519086
F106	F	1.994530	-0.266194	-0.019086
F107	F	1.666864	-0.907511	-0.347111
F108	F	2.166864	-0.407511	0.152889
F109	F	1.018526	-0.550874	-0.748149
F110	F	1.518526	-0.050874	-0.248149
H111	H	1.613580	-1.090224	-0.400457
H112	H	2.113580	-0.590224	0.099543
H113	H	1.341463	-1.175698	-0.672293
H114	H	1.841463	-0.675698	-0.172293
F115	F	1.218160	-1.102009	-0.795360
F116	F	1.718160	-0.602009	-0.295360
F117	F	1.179573	-0.960699	-0.833794
F118	F	1.679573	-0.460699	-0.333794
H119	H	1.325762	-0.332656	-0.966073
H120	H	1.825762	0.167344	-0.466073
F121	F	1.481979	-0.495736	-1.156894
F122	F	1.981979	0.004264	-0.656894
