data_functionalizedCrystal
_audit_creation_method	'MofGen! by Chris Wilmer'
_symmetry_space_group_name_H-M	'P1'
_symmetry_Int_Tables_number	1
_symmetry_cell_setting	triclinic
loop_
_symmetry_equiv_pos_as_xyz
  x,y,z
_cell_length_a	18.050589
_cell_length_b	12.827893
_cell_length_c	12.827885
_cell_angle_alpha	90.021189
_cell_angle_beta	89.970449
_cell_angle_gamma	89.973760
loop_
_atom_site_label
_atom_site_type_symbol
_atom_site_fract_x
_atom_site_fract_y
_atom_site_fract_z
Zn1	Zn	-0.295663	-1.597576	-0.590904
Zn2	Zn	-0.419871	-1.597431	-0.416165
Zn3	Zn	-0.295695	-1.422818	-0.416172
Zn4	Zn	-0.419811	-1.422764	-0.590859
O5	O	-0.357760	-1.510147	-0.503525
O6	O	-0.312151	-1.743793	-0.567740
O7	O	-0.403437	-1.574230	-0.269930
O8	O	-0.191766	-1.446083	-0.439372
O9	O	-0.403406	-1.743687	-0.439360
O10	O	-0.191742	-1.574478	-0.567747
O11	O	-0.312205	-1.445943	-0.269935
O12	O	-0.312147	-1.276575	-0.439328
O13	O	-0.403304	-1.445991	-0.737101
O14	O	-0.403335	-1.276535	-0.567670
O15	O	-0.312093	-1.574425	-0.737134
O16	O	-0.523787	-1.574178	-0.439317
O17	O	-0.523744	-1.445851	-0.567664
C18	C	-0.357739	-1.238638	-0.503496
C19	C	-0.357748	-1.122484	-0.503508
C20	C	-0.402940	-1.070708	-0.566916
C21	C	-0.402950	-0.950657	-0.566930
C22	C	-0.550712	-1.510021	-0.503507
C23	C	-0.633258	-1.510063	-0.503535
C24	C	-0.832712	-1.440347	-0.573306
C25	C	-0.882158	-1.414870	-0.477948
C26	C	-0.784388	-1.510166	-0.503549
C27	C	-0.882023	-1.535694	-0.598917
C28	C	-0.930373	-1.510263	-0.503570
C29	C	-0.832748	-1.484639	-0.408140
C30	C	-0.832608	-1.605506	-0.529174
C31	C	-0.882032	-1.580066	-0.433751
C32	C	-0.700290	-1.510107	-0.503538
C33	C	-1.014470	-1.510322	-0.503570
C34	C	-0.164054	-1.510303	-0.503565
C35	C	-0.081508	-1.510369	-0.503582
C36	C	-0.357688	-1.510219	-0.776095
C37	C	-0.357658	-1.510249	-0.892248
C38	C	-0.357775	-0.782718	-0.503546
C39	C	-0.357766	-0.898871	-0.503534
C40	C	-0.312515	-1.573809	-0.944049
C41	C	-0.312483	-1.573842	-1.064100
C42	C	-0.357777	-1.510137	-0.232015
C43	C	-0.357598	-1.510309	-0.115862
H44	H	-0.319076	-0.943391	-0.449241
O45	O	-0.403844	-1.445407	-0.945243
C46	C	-0.477888	-1.468176	-0.918655
H47	H	-0.479502	-1.508255	-0.839386
H48	H	-0.511188	-1.392727	-0.915016
H49	H	-0.502849	-1.521954	-0.980063
O50	O	-0.448987	-1.123960	-0.631721
C51	C	-0.406715	-1.187128	-0.699270
H52	H	-0.350391	-1.203379	-0.662533
H53	H	-0.436919	-1.263918	-0.713123
H54	H	-0.398653	-1.145169	-0.776776
H55	H	-0.441643	-0.906131	-0.621213
H56	H	-0.273836	-1.628261	-1.108647
O57	O	-0.403785	-1.445357	-1.062895
C58	C	-0.445715	-1.386275	-1.134341
H59	H	-0.448312	-1.429022	-1.212179
H60	H	-0.504217	-1.375110	-1.102715
H61	H	-0.418522	-1.306918	-1.145901
H62	H	-0.811055	-1.381217	-0.632213
O63	O	-0.311633	-1.069469	-0.438604
C64	C	-0.327775	-1.095991	-0.334387
H65	H	-0.356267	-1.175249	-0.332080
H66	H	-0.274137	-1.099625	-0.287649
H67	H	-0.365970	-1.034548	-0.299160
O68	O	-0.908092	-1.318672	-0.452263
C69	C	-0.882953	-1.245240	-0.525974
H70	H	-0.869033	-1.286746	-0.602103
H71	H	-0.928179	-1.184937	-0.540575
H72	H	-0.831320	-1.204658	-0.494850
O73	O	-0.806914	-1.458782	-0.311979
C74	C	-0.728808	-1.459025	-0.313133
H75	H	-0.708335	-1.447343	-0.396395
H76	H	-0.707307	-1.393118	-0.261775
H77	H	-0.707624	-1.536806	-0.282163
H78	H	-0.903552	-1.639151	-0.374700
O79	O	-0.806744	-1.701665	-0.555121
C80	C	-0.866966	-1.768960	-0.574225
H81	H	-0.917871	-1.720984	-0.595803
H82	H	-0.852571	-1.823812	-0.641187
H83	H	-0.879152	-1.816503	-0.501137
O84	O	-0.907758	-1.561291	-0.695200
C85	C	-0.882644	-1.487406	-0.768474
H86	H	-0.830683	-1.447582	-0.737466
H87	H	-0.869272	-1.528325	-0.845115
H88	H	-0.927666	-1.426568	-0.782093
O89	O	-0.266400	-1.638559	-0.890821
C90	C	-0.218473	-1.579029	-0.827707
H91	H	-0.244671	-1.499791	-0.811452
H92	H	-0.208598	-1.621511	-0.750915
H93	H	-0.163396	-1.567647	-0.869714
