data_functionalizedCrystal
_audit_creation_method	'MofGen! by Chris Wilmer'
_symmetry_space_group_name_H-M	'P1'
_symmetry_Int_Tables_number	1
_symmetry_cell_setting	triclinic
loop_
_symmetry_equiv_pos_as_xyz
  x,y,z
_cell_length_a	16.109301
_cell_length_b	26.210047
_cell_length_c	16.109301
_cell_angle_alpha	90.006022
_cell_angle_beta	83.461481
_cell_angle_gamma	90.013716
loop_
_atom_site_label
_atom_site_type_symbol
_atom_site_fract_x
_atom_site_fract_y
_atom_site_fract_z
O1	O	1.103146	0.042398	0.106865
O2	O	1.436480	0.375732	0.440199
O3	O	1.769813	0.709065	0.773532
O4	O	0.861084	0.042407	0.120165
O5	O	1.194418	0.375740	0.453498
O6	O	1.527751	0.709073	0.786831
O7	O	0.988765	0.042397	-0.007516
O8	O	1.322098	0.375730	0.325817
O9	O	1.655432	0.709064	0.659151
O10	O	0.975466	0.042408	0.234546
O11	O	1.308799	0.375741	0.567879
O12	O	1.642132	0.709075	0.901213
O13	O	0.988725	-0.042461	-0.007516
O14	O	1.322058	0.290872	0.325817
O15	O	1.655392	0.624206	0.659150
O16	O	0.861044	-0.042451	0.120164
O17	O	1.194378	0.290882	0.453498
O18	O	1.527711	0.624215	0.786831
O19	O	1.103106	-0.042460	0.106865
O20	O	1.436440	0.290874	0.440198
O21	O	1.769773	0.624207	0.773532
Cu22	Cu	0.982072	-0.050204	0.113515
Cu23	Cu	1.315405	0.283130	0.446848
Cu24	Cu	1.648738	0.616463	0.780181
Cu25	Cu	0.982119	0.050151	0.113515
Cu26	Cu	1.315452	0.383484	0.446848
Cu27	Cu	1.648786	0.716817	0.780182
O28	O	0.975426	-0.042450	0.234546
O29	O	1.308759	0.290883	0.567879
O30	O	1.642092	0.624217	0.901212
C31	C	0.830090	-0.000021	0.119626
C32	C	1.163423	0.333312	0.452959
C33	C	1.496756	0.666645	0.786292
C34	C	0.737794	-0.000018	0.118011
C35	C	1.071128	0.333315	0.451344
C36	C	1.404461	0.666648	0.784677
C37	C	0.515522	-0.000021	0.190018
C38	C	0.848855	0.333312	0.523352
C39	C	1.182188	0.666646	0.856685
C40	C	0.428801	-0.000024	0.188494
C41	C	0.762135	0.333309	0.521828
C42	C	1.095468	0.666642	0.855161
C43	C	0.448676	-0.000029	0.037006
C44	C	0.782009	0.333304	0.370339
C45	C	1.115342	0.666638	0.703672
C46	C	0.535394	-0.000029	0.038530
C47	C	0.868728	0.333304	0.371864
C48	C	1.202061	0.666637	0.705197
C49	C	0.568815	-0.000023	0.115039
C50	C	0.902148	0.333311	0.448373
C51	C	1.235482	0.666644	0.781706
C52	C	0.395376	-0.000026	0.111990
C53	C	0.728709	0.333308	0.445324
C54	C	1.062042	0.666641	0.778657
C55	C	0.301350	-0.000029	0.110337
C56	C	0.634683	0.333304	0.443671
C57	C	0.968016	0.666637	0.777004
C58	C	0.662847	-0.000020	0.116693
C59	C	0.996180	0.333313	0.450026
C60	C	1.329514	0.666647	0.783359
N61	N	0.982044	-0.120788	0.113514
N62	N	1.315378	0.212546	0.446847
N63	N	1.648711	0.545879	0.780181
C64	C	1.032519	-0.473301	0.163947
C65	C	1.365852	-0.139968	0.497280
C66	C	1.699186	0.193365	0.830614
C67	C	1.032544	-0.686960	0.163946
C68	C	1.365877	-0.353626	0.497280
C69	C	1.699210	-0.020293	0.830613
O70	O	1.075440	-0.714581	0.206817
O71	O	1.408773	-0.381248	0.540150
O72	O	1.742106	-0.047915	0.873483
N73	N	0.982139	-0.713682	0.113507
N74	N	1.315472	-0.380348	0.446840
N75	N	1.648806	-0.047015	0.780173
C76	C	0.931729	-0.686985	0.063059
C77	C	1.265062	-0.353652	0.396393
C78	C	1.598395	-0.020319	0.729726
O79	O	0.888863	-0.714616	0.020151
O80	O	1.222197	-0.381283	0.353484
O81	O	1.555530	-0.047950	0.686818
C82	C	0.931709	-0.473328	0.063056
C83	C	1.265042	-0.139994	0.396389
C84	C	1.598376	0.193339	0.729723
C85	C	0.982111	-0.446609	0.113505
C86	C	1.315444	-0.113275	0.446839
C87	C	1.648777	0.220058	0.780172
C88	C	1.082917	-0.446582	0.214391
C89	C	1.416250	-0.113249	0.547725
C90	C	1.749584	0.220084	0.881058
C91	C	1.082907	-0.393171	0.214394
C92	C	1.416240	-0.059837	0.547728
C93	C	1.749574	0.273496	0.881061
C94	C	1.032499	-0.366478	0.163953
C95	C	1.365832	-0.033145	0.497286
C96	C	1.699165	0.300188	0.830620
C97	C	0.982101	-0.393197	0.113508
C98	C	1.315434	-0.059864	0.446842
C99	C	1.648767	0.273469	0.780175
C100	C	0.881304	-0.446633	0.012605
C101	C	1.214637	-0.113299	0.345938
C102	C	1.547970	0.220034	0.679272
C103	C	0.881305	-0.393215	0.012607
C104	C	1.214638	-0.059881	0.345940
C105	C	1.547972	0.273452	0.679274
C106	C	0.931707	-0.366496	0.063056
C107	C	1.265040	-0.033163	0.396390
C108	C	1.598373	0.300171	0.729723
C109	C	0.931682	-0.313094	0.063070
C110	C	1.265016	0.020240	0.396403
C111	C	1.598349	0.353573	0.729737
N112	N	0.982087	-0.286372	0.113510
N113	N	1.315420	0.046962	0.446843
N114	N	1.648754	0.380295	0.780176
C115	C	1.032495	-0.313064	0.163951
C116	C	1.365828	0.020269	0.497284
C117	C	1.699162	0.353603	0.830618
C118	C	0.931741	-0.799159	0.063066
C119	C	1.265075	-0.465825	0.396399
C120	C	1.598408	-0.132492	0.729733
C121	C	0.931745	-0.852573	0.063068
C122	C	1.265078	-0.519240	0.396401
C123	C	1.598412	-0.185906	0.729734
C124	C	1.032561	-0.852544	0.163954
C125	C	1.365894	-0.519210	0.497287
C126	C	1.699228	-0.185877	0.830620
C127	C	1.032552	-0.799128	0.163956
C128	C	1.365886	-0.465795	0.497289
C129	C	1.699219	-0.132462	0.830622
C130	C	0.982146	-0.772437	0.113506
C131	C	1.315479	-0.439104	0.446839
C132	C	1.648813	-0.105770	0.780172
C133	C	1.032470	-0.200896	0.163954
C134	C	1.365803	0.132437	0.497288
C135	C	1.699136	0.465770	0.830621
C136	C	1.032452	-0.147480	0.163955
C137	C	1.365786	0.185853	0.497289
C138	C	1.699119	0.519187	0.830622
C139	C	0.931640	-0.147514	0.063067
C140	C	1.264973	0.185819	0.396400
C141	C	1.598307	0.519153	0.729733
C142	C	0.931653	-0.200926	0.063068
C143	C	1.264987	0.132408	0.396402
C144	C	1.598320	0.465741	0.729735
C145	C	0.982075	-0.227615	0.113515
C146	C	1.315408	0.105718	0.446848
C147	C	1.648742	0.439051	0.780181
O148	O	0.888816	-0.285439	0.020215
O149	O	1.222149	0.047894	0.353548
O150	O	1.555482	0.381228	0.686882
O151	O	1.075368	-0.285424	0.206839
O152	O	1.408701	0.047909	0.540173
O153	O	1.742034	0.381243	0.873506
C154	C	1.032529	-0.526713	0.163944
C155	C	1.365862	-0.193379	0.497277
C156	C	1.699196	0.139954	0.830610
C157	C	0.982131	-0.553432	0.113499
C158	C	1.315464	-0.220098	0.446833
C159	C	1.648797	0.113235	0.780166
C160	C	0.931722	-0.526739	0.063058
C161	C	1.265056	-0.193406	0.396391
C162	C	1.598389	0.139927	0.729725
C163	C	0.982134	-0.606846	0.113501
C164	C	1.315468	-0.273513	0.446834
C165	C	1.648801	0.059821	0.780168
C166	C	1.032543	-0.633538	0.163943
C167	C	1.365876	-0.300205	0.497276
C168	C	1.699209	0.033128	0.830609
C169	C	1.082947	-0.606817	0.214382
C170	C	1.416281	-0.273483	0.547716
C171	C	1.749614	0.059850	0.881049
C172	C	1.082937	-0.553405	0.214385
C173	C	1.416271	-0.220072	0.547719
C174	C	1.749604	0.113262	0.881052
C175	C	0.881318	-0.553461	0.012618
C176	C	1.214651	-0.220128	0.345952
C177	C	1.547985	0.113206	0.679285
C178	C	0.881331	-0.606873	0.012620
C179	C	1.214665	-0.273539	0.345953
C180	C	1.547998	0.059794	0.679287
C181	C	0.931740	-0.633565	0.063061
C182	C	1.265073	-0.300232	0.396395
C183	C	1.598406	0.033102	0.729728
C184	C	1.134101	-0.000031	0.107404
C185	C	1.467435	0.333303	0.440737
C186	C	1.800768	0.666636	0.774071
C187	C	1.226397	-0.000030	0.109019
C188	C	1.559730	0.333303	0.442352
C189	C	1.893063	0.666636	0.775686
C190	C	0.988206	-0.000032	-0.038491
C191	C	1.321540	0.333301	0.294842
C192	C	1.654873	0.666635	0.628176
C193	C	0.986591	-0.000033	-0.130786
C194	C	1.319925	0.333300	0.202547
C195	C	1.653258	0.666634	0.535880
N196	N	0.982153	0.120735	0.113509
N197	N	1.315486	0.454068	0.446842
N198	N	1.648820	0.787401	0.780176
C199	C	1.058599	-0.000027	-0.353059
C200	C	1.391932	0.333306	-0.019725
C201	C	1.725266	0.666639	0.313608
C202	C	1.057075	-0.000023	-0.439779
C203	C	1.390408	0.333310	-0.106446
C204	C	1.723741	0.666644	0.226888
C205	C	0.905586	-0.000020	-0.419905
C206	C	1.238919	0.333314	-0.086571
C207	C	1.572253	0.666647	0.246762
C208	C	0.907111	-0.000020	-0.333186
C209	C	1.240444	0.333313	0.000147
C210	C	1.573778	0.666646	0.333481
C211	C	0.983620	-0.000027	-0.299766
C212	C	1.316953	0.333307	0.033568
C213	C	1.650287	0.666640	0.366901
C214	C	0.980571	-0.000022	-0.473205
C215	C	1.313904	0.333311	-0.139871
C216	C	1.647238	0.666645	0.193462
C217	C	0.978918	-0.000017	-0.567231
C218	C	1.312251	0.333316	-0.233897
C219	C	1.645585	0.666649	0.099436
C220	C	0.985273	-0.000030	-0.205734
C221	C	1.318607	0.333303	0.127600
C222	C	1.651940	0.666636	0.460933
C223	C	0.975984	-0.000020	0.265521
C224	C	1.309318	0.333314	0.598854
C225	C	1.642651	0.666647	0.932187
C226	C	0.977600	-0.000016	0.357816
C227	C	1.310933	0.333318	0.691149
C228	C	1.644266	0.666651	1.024483
H229	H	1.073495	-0.125728	0.205041
H230	H	1.406829	0.207605	0.538374
H231	H	1.740162	0.540939	0.871708
F232	F	1.136878	-0.000022	-0.496495
F233	F	1.470211	0.333311	-0.163161
F234	F	1.803545	0.666644	0.170172
F235	F	0.592117	-0.000035	-0.041277
F236	F	0.925450	0.333299	0.292056
F237	F	1.258784	0.666632	0.625390
F238	F	0.824164	-0.000013	-0.455481
F239	F	1.157498	0.333321	-0.122148
F240	F	1.490831	0.666654	0.211186
F241	F	0.551087	-0.000016	0.271446
F242	F	0.884421	0.333317	0.604779
F243	F	1.217754	0.666651	0.938112
H244	H	1.073528	-0.222621	0.205032
H245	H	1.406861	0.110713	0.538365
H246	H	1.740195	0.444046	0.871699
H247	H	0.385413	-0.000024	0.249550
H248	H	0.718746	0.333309	0.582883
H249	H	1.052080	0.666643	0.916217
F250	F	0.413100	-0.000034	-0.044416
F251	F	0.746433	0.333299	0.288917
F252	F	1.079766	0.666633	0.622251
H253	H	0.846050	-0.000018	-0.289792
H254	H	1.179384	0.333315	0.043541
H255	H	1.512717	0.666648	0.376874
H256	H	1.123953	-0.371421	0.255472
H257	H	1.457286	-0.038088	0.588805
H258	H	1.790619	0.295246	0.922139
F259	F	1.136574	-0.474982	0.268082
F260	F	1.469907	-0.141649	0.601416
F261	F	1.803240	0.191684	0.934749
F262	F	1.086199	-0.770697	0.217647
F263	F	1.419532	-0.437364	0.550981
F264	F	1.752865	-0.104030	0.884314
F265	F	1.086211	-0.880961	0.217636
F266	F	1.419544	-0.547627	0.550969
F267	F	1.752878	-0.214294	0.884303
F268	F	1.136578	-0.524975	0.268085
F269	F	1.469911	-0.191642	0.601419
F270	F	1.803244	0.141691	0.934752
H271	H	0.890693	-0.874323	0.021997
H272	H	1.224026	-0.540990	0.355330
H273	H	1.557359	-0.207656	0.688663
F274	F	0.878075	-0.770758	0.009379
F275	F	1.211409	-0.437425	0.342712
F276	F	1.544742	-0.104091	0.676045
H277	H	0.840257	-0.371485	-0.028477
H278	H	1.173591	-0.038152	0.304856
H279	H	1.506924	0.295181	0.638190
F280	F	0.827658	-0.475058	-0.041091
F281	F	1.160991	-0.141724	0.292243
F282	F	1.494325	0.191609	0.625576
F283	F	1.140026	-0.000033	-0.317493
F284	F	1.473359	0.333300	0.015840
F285	F	1.806693	0.666633	0.349173
H286	H	0.890602	-0.222681	0.021999
H287	H	1.223935	0.110652	0.355332
H288	H	1.557268	0.443985	0.688666
F289	F	0.877992	-0.119097	0.009388
F290	F	1.211326	0.214237	0.342721
F291	F	1.544659	0.547570	0.676055
H292	H	0.840280	-0.628623	-0.028460
H293	H	1.173613	-0.295289	0.304873
H294	H	1.506947	0.038044	0.638207
F295	F	0.827654	-0.525060	-0.041062
F296	F	1.160987	-0.191727	0.292272
F297	F	1.494320	0.141607	0.625605
F298	F	1.136592	-0.635234	0.268069
F299	F	1.469925	-0.301901	0.601402
F300	F	1.803259	0.031433	0.934736
