data_functionalizedCrystal
_audit_creation_method	'MofGen! by Chris Wilmer'
_symmetry_space_group_name_H-M	'P1'
_symmetry_Int_Tables_number	1
_symmetry_cell_setting	triclinic
loop_
_symmetry_equiv_pos_as_xyz
  x,y,z
_cell_length_a	12.759401
_cell_length_b	11.169416
_cell_length_c	12.759393
_cell_angle_alpha	90.024475
_cell_angle_beta	89.981266
_cell_angle_gamma	89.986751
loop_
_atom_site_label
_atom_site_type_symbol
_atom_site_fract_x
_atom_site_fract_y
_atom_site_fract_z
Zn1	Zn	1.606270	0.477747	-0.594023
Zn2	Zn	1.606168	0.678475	-0.418361
Zn3	Zn	1.430571	0.477805	-0.418363
Zn4	Zn	1.430565	0.678387	-0.594003
O5	O	1.518393	0.578104	-0.506188
O6	O	1.753277	0.504386	-0.570729
O7	O	1.582835	0.651917	-0.271340
O8	O	1.453923	0.309848	-0.441674
O9	O	1.753203	0.651860	-0.441671
O10	O	1.583008	0.309805	-0.570731
O11	O	1.453824	0.504485	-0.271342
O12	O	1.283549	0.504400	-0.441654
O13	O	1.453913	0.651711	-0.741027
O14	O	1.283545	0.651767	-0.570696
O15	O	1.583002	0.504301	-0.741042
O16	O	1.582829	0.846413	-0.441651
O17	O	1.453814	0.846349	-0.570694
C18	C	1.245426	0.578081	-0.506173
C19	C	1.128649	0.578101	-0.506192
C20	C	1.073813	0.654958	-0.573273
C21	C	0.964089	0.654973	-0.573284
C22	C	0.964048	0.501271	-0.439125
C23	C	1.073770	0.501251	-0.439120
C24	C	1.128692	0.731808	-0.640346
C25	C	1.073856	0.808672	-0.707431
C26	C	0.964132	0.808687	-0.707443
C27	C	0.909244	0.731838	-0.640368
C28	C	1.518339	0.889928	-0.506193
C29	C	1.518411	1.023328	-0.506231
C30	C	1.792427	0.578127	-0.506202
C31	C	1.909203	0.578136	-0.506209
C32	C	1.518468	0.577990	-0.780221
C33	C	1.518500	0.577941	-0.896998
C34	C	1.518466	1.265061	-0.506216
C35	C	1.518471	1.131661	-0.506256
C36	C	1.585745	0.501116	-1.061594
C37	C	1.585723	0.501169	-0.951870
C38	C	1.451303	0.654674	-0.951855
C39	C	1.451332	0.654627	-1.061577
C40	C	1.652965	0.424330	-1.116461
C41	C	1.720164	0.347598	-1.061611
C42	C	1.720141	0.347651	-0.951887
C43	C	1.652920	0.424435	-0.897013
C44	C	1.518380	0.578130	-0.233220
C45	C	1.518551	0.577841	-0.116444
H46	H	1.652988	0.424275	-1.205804
H47	H	0.919350	0.438706	-0.384516
H48	H	1.774898	0.285089	-1.106297
O49	O	1.386036	0.729138	-0.898391
C50	C	1.326461	0.797284	-0.729349
C51	C	1.400415	0.712877	-0.789764
H52	H	1.338076	0.784184	-0.641514
H53	H	1.241733	0.776189	-0.750840
H54	H	1.344877	0.894040	-0.750979
H55	H	1.382094	0.616093	-0.768166
H56	H	1.485121	0.734075	-0.768268
H57	H	1.652915	0.424482	-0.807668
O58	O	1.785304	0.272943	-0.898659
C59	C	1.836374	0.068802	-0.865170
C60	C	1.762498	0.153283	-0.925490
H61	H	1.817977	-0.027959	-0.886857
H62	H	1.824816	0.081910	-0.777309
H63	H	1.921083	0.089929	-0.886744
H64	H	1.677761	0.132209	-0.904004
H65	H	1.774147	0.140160	-1.013336
H66	H	0.919486	0.871264	-0.762074
O67	O	1.126883	0.426567	-0.373849
C68	C	1.115272	0.274087	-0.240808
C69	C	1.054992	0.358626	-0.314657
H70	H	1.057175	0.219117	-0.192948
H71	H	1.166585	0.329058	-0.185727
H72	H	1.166697	0.211439	-0.289142
H73	H	1.003510	0.421290	-0.266408
H74	H	1.003746	0.303580	-0.369742
O75	O	1.127121	0.883186	-0.772737
C76	C	1.160714	0.941734	-0.951361
C77	C	1.100347	0.857254	-0.877519
H78	H	1.139073	0.920815	-1.036091
H79	H	1.248568	0.928520	-0.939922
H80	H	1.139135	1.038480	-0.932721
H81	H	1.121838	0.760476	-0.896113
H82	H	1.012508	0.870572	-0.888971
H83	H	1.396617	0.717103	-1.106237
O84	O	0.802658	0.732003	-0.640511
C85	C	0.645224	0.816223	-0.714257
C86	C	0.765928	0.816196	-0.714168
H87	H	0.615491	0.884268	-0.773818
H88	H	0.615295	0.841076	-0.632908
H89	H	0.615526	0.723269	-0.736160
H90	H	0.795716	0.909122	-0.692311
H91	H	0.795786	0.791276	-0.795526
H92	H	1.218035	0.731806	-0.640342
