data_functionalizedCrystal
_audit_creation_method	'MofGen! by Chris Wilmer'
_symmetry_space_group_name_H-M	'P1'
_symmetry_Int_Tables_number	1
_symmetry_cell_setting	triclinic
loop_
_symmetry_equiv_pos_as_xyz
  x,y,z
_cell_length_a	16.956995
_cell_length_b	16.992695
_cell_length_c	16.053948
_cell_angle_alpha	92.712453
_cell_angle_beta	93.030629
_cell_angle_gamma	83.361347
loop_
_atom_site_label
_atom_site_type_symbol
_atom_site_fract_x
_atom_site_fract_y
_atom_site_fract_z
O1	O	1.056931	0.029617	-0.069485
O2	O	1.390264	0.362950	0.263848
O3	O	1.723597	0.696283	0.597181
O4	O	0.826521	0.057031	-0.069475
O5	O	1.159854	0.390364	0.263859
O6	O	1.493188	0.723697	0.597192
O7	O	0.940802	-0.070759	-0.069473
O8	O	1.274136	0.262574	0.263860
O9	O	1.607469	0.595908	0.597193
O10	O	0.942649	0.157406	-0.069487
O11	O	1.275982	0.490740	0.263847
O12	O	1.609316	0.824073	0.597180
O13	O	0.947124	-0.065273	0.069382
O14	O	1.280457	0.268060	0.402715
O15	O	1.613790	0.601394	0.736048
O16	O	0.832842	0.062517	0.069380
O17	O	1.166175	0.395850	0.402714
O18	O	1.499509	0.729183	0.736047
O19	O	1.063252	0.035103	0.069370
O20	O	1.396585	0.368436	0.402703
O21	O	1.729919	0.701769	0.736037
Zn22	Zn	0.949051	0.049681	0.091421
Zn23	Zn	1.282384	0.383014	0.424755
Zn24	Zn	1.615717	0.716347	0.758088
Zn25	Zn	0.940722	0.042453	-0.091526
Zn26	Zn	1.274055	0.375786	0.241807
Zn27	Zn	1.607389	0.709119	0.575140
O28	O	0.948970	0.162892	0.069368
O29	O	1.282304	0.496226	0.402702
O30	O	1.615637	0.829559	0.736035
C31	C	0.800063	0.061177	-0.000046
C32	C	1.133396	0.394511	0.333288
C33	C	1.466730	0.727844	0.666621
C34	C	0.711809	0.065350	-0.000042
C35	C	1.045142	0.398684	0.333292
C36	C	1.378475	0.732017	0.666625
C37	C	0.214496	0.096567	-0.000074
C38	C	0.547830	0.429901	0.333259
C39	C	0.881163	0.763234	0.666592
C40	C	0.297421	0.092640	-0.000074
C41	C	0.630755	0.425974	0.333260
C42	C	0.964088	0.759307	0.666593
C43	C	0.343813	0.018928	-0.000063
C44	C	0.677146	0.352261	0.333270
C45	C	1.010479	0.685595	0.666604
C46	C	0.307275	-0.050862	-0.000062
C47	C	0.640608	0.282471	0.333272
C48	C	0.973941	0.615805	0.666605
C49	C	0.224351	-0.046935	-0.000069
C50	C	0.557684	0.286399	0.333265
C51	C	0.891018	0.619732	0.666598
C52	C	0.592347	-0.000512	-0.000047
C53	C	0.925680	0.332821	0.333286
C54	C	1.259014	0.666154	0.666620
C55	C	0.675276	-0.004434	-0.000038
C56	C	1.008610	0.328899	0.333296
C57	C	1.341943	0.662232	0.666629
C58	C	0.665417	0.139069	-0.000051
C59	C	0.998750	0.472402	0.333282
C60	C	1.332084	0.805735	0.666615
C61	C	0.582492	0.142990	-0.000053
C62	C	0.915826	0.476323	0.333280
C63	C	1.249159	0.809656	0.666614
C64	C	0.545961	0.073200	-0.000056
C65	C	0.879295	0.406533	0.333277
C66	C	1.212628	0.739866	0.666610
N67	N	0.428576	0.014912	-0.000059
N68	N	0.761909	0.348246	0.333274
N69	N	1.095242	0.681579	0.666607
N70	N	0.461200	0.077216	-0.000066
N71	N	0.794533	0.410549	0.333268
N72	N	1.127866	0.743883	0.666601
C73	C	0.941587	-0.097074	-0.000046
C74	C	1.274920	0.236259	0.333288
C75	C	1.608253	0.569592	0.666621
C76	C	0.934496	-0.183659	-0.000046
C77	C	1.267829	0.149674	0.333288
C78	C	1.601163	0.483008	0.666621
C79	C	1.002911	-0.238334	-0.000048
C80	C	1.336244	0.095000	0.333285
C81	C	1.669577	0.428333	0.666619
C82	C	0.996243	-0.319688	-0.000056
C83	C	1.329577	0.013645	0.333278
C84	C	1.662910	0.346978	0.666611
C85	C	0.921161	-0.346367	-0.000055
C86	C	1.254494	-0.013033	0.333278
C87	C	1.587827	0.320300	0.666612
C88	C	0.852741	-0.291686	-0.000055
C89	C	1.186074	0.041648	0.333278
C90	C	1.519407	0.374981	0.666612
C91	C	0.859409	-0.210333	-0.000054
C92	C	1.192742	0.123001	0.333280
C93	C	1.526075	0.456334	0.666613
C94	C	0.893525	-0.588174	-0.000065
C95	C	1.226858	-0.254841	0.333268
C96	C	1.560191	0.078493	0.666602
C97	C	0.886862	-0.669533	-0.000064
C98	C	1.220195	-0.336200	0.333269
C99	C	1.553528	-0.002867	0.666602
C100	C	1.030365	-0.697531	-0.000066
C101	C	1.363698	-0.364197	0.333267
C102	C	1.697032	-0.030864	0.666600
C103	C	1.037027	-0.616175	-0.000060
C104	C	1.370360	-0.282841	0.333274
C105	C	1.703693	0.050492	0.666607
C106	C	0.968606	-0.561501	-0.000064
C107	C	1.301940	-0.228168	0.333269
C108	C	1.635273	0.105166	0.666602
N109	N	0.914344	-0.429524	-0.000060
N110	N	1.247677	-0.096191	0.333273
N111	N	1.581010	0.237143	0.666607
N112	N	0.975424	-0.478346	-0.000065
N113	N	1.308757	-0.145012	0.333268
N114	N	1.642090	0.188321	0.666602
C115	C	1.089710	0.030956	-0.000061
C116	C	1.423043	0.364289	0.333272
C117	C	1.756376	0.697623	0.666606
C118	C	1.177964	0.026783	-0.000071
C119	C	1.511297	0.360116	0.333263
C120	C	1.844630	0.693449	0.666596
C121	C	0.948186	0.189208	-0.000061
C122	C	1.281519	0.522541	0.333272
C123	C	1.614853	0.855874	0.666606
C124	C	0.955277	0.275792	-0.000067
C125	C	1.288610	0.609125	0.333267
C126	C	1.621943	0.942459	0.666600
N127	N	0.954740	0.054613	0.216278
N128	N	1.288074	0.387946	0.549612
N129	N	1.621407	0.721279	0.882945
N130	N	0.935038	0.037514	-0.216383
N131	N	1.268372	0.370847	0.116950
N132	N	1.601705	0.704181	0.450283
C133	C	0.905567	0.012072	0.260001
C134	C	1.238901	0.345405	0.593335
C135	C	1.572234	0.678738	0.926668
C136	C	0.909568	0.015530	0.347406
C137	C	1.242901	0.348863	0.680739
C138	C	1.576235	0.682197	1.014072
C139	C	0.962746	0.061525	0.391086
C140	C	1.296079	0.394858	0.724419
C141	C	1.629413	0.728191	1.057752
C142	C	1.011921	0.104071	0.347356
C143	C	1.345254	0.437404	0.680690
C144	C	1.678588	0.770737	1.014023
C145	C	1.007916	0.100617	0.259954
C146	C	1.341249	0.433950	0.593287
C147	C	1.674583	0.767283	0.926620
C148	C	0.980208	0.076606	0.652485
C149	C	1.313542	0.409939	0.985818
C150	C	1.646875	0.743273	1.319151
C151	C	0.984211	0.080055	0.739894
C152	C	1.317545	0.413388	1.073227
C153	C	1.650878	0.746722	1.406560
C154	C	0.881857	-0.008485	0.739937
C155	C	1.215190	0.324848	1.073270
C156	C	1.548523	0.658181	1.406604
C157	C	0.877860	-0.011939	0.652533
C158	C	1.211193	0.321394	0.985866
C159	C	1.544526	0.654728	1.319199
C160	C	0.927032	0.030610	0.608811
C161	C	1.260365	0.363944	0.942144
C162	C	1.593698	0.697277	1.275478
N163	N	0.966838	0.065059	0.480427
N164	N	1.300172	0.398392	0.813760
N165	N	1.633505	0.731725	1.147094
N166	N	0.922935	0.027080	0.519471
N167	N	1.256268	0.360414	0.852805
N168	N	1.589602	0.693747	1.186138
H169	H	0.562614	-0.057340	-0.000047
H170	H	0.895947	0.275993	0.333286
H171	H	1.229281	0.609326	0.666619
H172	H	1.020251	0.111249	0.616897
H173	H	1.353584	0.444582	0.950231
H174	H	1.686918	0.777916	1.283564
F175	F	1.040816	0.129008	0.786379
F176	F	1.374150	0.462341	1.119713
F177	F	1.707483	0.795675	1.453046
F178	F	0.165130	0.175023	-0.000079
F179	F	0.498464	0.508357	0.333254
F180	F	0.831797	0.841690	0.666587
F181	F	1.068512	0.153029	0.393846
F182	F	1.401845	0.486362	0.727179
F183	F	1.735178	0.819696	1.060513
H184	H	1.051954	-0.364202	-0.000056
H185	H	1.385287	-0.030869	0.333278
H186	H	1.718621	0.302465	0.666611
F187	F	0.356650	-0.129313	-0.000053
F188	F	0.689983	0.204020	0.333280
F189	F	1.023317	0.537354	0.666613
H190	H	0.841822	-0.043125	0.775545
H191	H	1.175156	0.290208	1.108878
H192	H	1.508489	0.623542	1.442211
H193	H	0.713047	-0.064463	-0.000033
H194	H	1.046380	0.268870	0.333300
H195	H	1.379713	0.602203	0.666633
H196	H	0.834559	-0.049395	0.616974
H197	H	1.167892	0.283938	0.950308
H198	H	1.501225	0.617271	1.283641
H199	H	0.194608	-0.103761	-0.000067
H200	H	0.527941	0.229572	0.333266
H201	H	0.861274	0.562906	0.666600
H202	H	0.791606	-0.313414	-0.000060
H203	H	1.124940	0.019920	0.333273
H204	H	1.458273	0.353253	0.666607
H205	H	1.047956	0.135261	0.224355
H206	H	1.381289	0.468594	0.557689
H207	H	1.714622	0.801927	0.891022
F208	F	0.820705	-0.529996	-0.000072
F209	F	1.154038	-0.196663	0.333261
F210	F	1.487371	0.136671	0.666594
F211	F	0.848974	-0.036890	0.213522
F212	F	1.182307	0.296444	0.546855
F213	F	1.515640	0.629777	0.880188
F214	F	0.336298	0.166915	-0.000082
F215	F	0.669631	0.500249	0.333252
F216	F	1.002964	0.833582	0.666585
H217	H	0.544725	0.203014	-0.000064
H218	H	0.878059	0.536348	0.333269
H219	H	1.211392	0.869681	0.666603
H220	H	1.064051	-0.216619	-0.000043
H221	H	1.397385	0.116714	0.333290
H222	H	1.730718	0.450047	0.666623
F223	F	0.704302	0.213339	-0.000053
F224	F	1.037635	0.546672	0.333281
F225	F	1.370968	0.880006	0.666614
F226	F	0.786592	-0.152144	-0.000054
F227	F	1.119925	0.181190	0.333280
F228	F	1.453258	0.514523	0.666613
H229	H	1.086069	-0.742054	-0.000064
H230	H	1.419402	-0.408721	0.333269
H231	H	1.752735	-0.075388	0.666603
F232	F	1.116939	-0.587789	-0.000081
F233	F	1.450272	-0.254456	0.333252
F234	F	1.783606	0.078877	0.666585
H235	H	0.825718	-0.691250	-0.000050
H236	H	1.159051	-0.357917	0.333283
H237	H	1.492385	-0.024583	0.666616
H238	H	0.869526	-0.019112	0.383001
H239	H	1.202860	0.314221	0.716335
H240	H	1.536193	0.647555	1.049668
