data_functionalizedCrystal
_audit_creation_method	'MofGen! by Chris Wilmer'
_symmetry_space_group_name_H-M	'P1'
_symmetry_Int_Tables_number	1
_symmetry_cell_setting	triclinic
loop_
_symmetry_equiv_pos_as_xyz
  x,y,z
_cell_length_a	16.625548
_cell_length_b	12.594516
_cell_length_c	16.625539
_cell_angle_alpha	89.976673
_cell_angle_beta	89.979432
_cell_angle_gamma	90.017121
loop_
_atom_site_label
_atom_site_type_symbol
_atom_site_fract_x
_atom_site_fract_y
_atom_site_fract_z
Zn1	Zn	1.232716	-0.423710	-0.455937
Zn2	Zn	1.232635	-0.601711	-0.321116
Zn3	Zn	1.097878	-0.423750	-0.321118
Zn4	Zn	1.097864	-0.601650	-0.455906
O5	O	1.165273	-0.512705	-0.388519
O6	O	1.345538	-0.447331	-0.438065
O7	O	1.214731	-0.578147	-0.208284
O8	O	1.115805	-0.274799	-0.339016
O9	O	1.345478	-0.578108	-0.339013
O10	O	1.214870	-0.274769	-0.438067
O11	O	1.115726	-0.447400	-0.208285
O12	O	0.985044	-0.447341	-0.338985
O13	O	1.115780	-0.578003	-0.568743
O14	O	0.985033	-0.578043	-0.438014
O15	O	1.214856	-0.447271	-0.568766
O16	O	1.214717	-0.750649	-0.338983
O17	O	1.115701	-0.750604	-0.438012
C18	C	0.955782	-0.512690	-0.388497
C19	C	0.866161	-0.512709	-0.388506
C20	C	0.537986	-0.512716	-0.388541
C21	C	0.629294	-0.512711	-0.388529
C22	C	0.702071	-0.512713	-0.388523
C23	C	0.793385	-0.512707	-0.388512
C24	C	1.165220	-0.789246	-0.388511
C25	C	1.165272	-0.907552	-0.388535
C26	C	1.111412	-0.976819	-0.442359
C27	C	1.091767	-1.047680	-0.368785
C28	C	1.184990	-1.047490	-0.462122
C29	C	1.145588	-0.976855	-0.314921
C30	C	1.238845	-0.976658	-0.408308
C31	C	1.219228	-1.047487	-0.334683
C32	C	1.375582	-0.512721	-0.388542
C33	C	1.465203	-0.512728	-0.388552
C34	C	1.165326	-0.512626	-0.598828
C35	C	1.165348	-0.512592	-0.688449
C36	C	1.165348	-0.235085	-0.388545
C37	C	1.165380	-0.116779	-0.388556
C38	C	1.165385	-0.512473	-1.016625
C39	C	1.165373	-0.512510	-0.925317
C40	C	1.165367	-0.512534	-0.852540
C41	C	1.165354	-0.512568	-0.761226
C42	C	1.165267	-0.512708	-0.179028
C43	C	1.165401	-0.512442	-0.089408
H44	H	1.029597	-1.078900	-0.352077
O45	O	1.273610	-1.084462	-0.280393
C46	C	1.273518	-1.196402	-0.281447
H47	H	1.249520	-1.225524	-0.341756
H48	H	1.233488	-1.227400	-0.230937
C49	C	1.389386	-1.201695	-0.195288
C50	C	1.359917	-1.237464	-0.269363
H51	H	1.442680	-1.227025	-0.187831
H52	H	1.389447	-1.126279	-0.194576
H53	H	1.356020	-1.227530	-0.153206
H54	H	1.393277	-1.211617	-0.311445
H55	H	1.359864	-1.312876	-0.270083
O56	O	1.125632	-0.939824	-0.240725
C57	C	1.125801	-0.827881	-0.241613
H58	H	1.116783	-0.798546	-0.305855
H59	H	1.185811	-0.797513	-0.217717
C60	C	1.068181	-0.822279	-0.109180
C61	C	1.057098	-0.786249	-0.188082
H62	H	1.025805	-0.796598	-0.076157
H63	H	1.068070	-0.897697	-0.108579
H64	H	1.118192	-0.796970	-0.089277
H65	H	1.007093	-0.811570	-0.207987
H66	H	1.057199	-0.710834	-0.188685
O67	O	1.312970	-0.939456	-0.428420
C68	C	1.333480	-0.975402	-0.506067
H69	H	1.276333	-0.995333	-0.540802
H70	H	1.372638	-1.049396	-0.501021
C71	C	1.450369	-0.863307	-0.508114
C72	C	1.380181	-0.887779	-0.550779
H73	H	1.479180	-0.809261	-0.535694
H74	H	1.436554	-0.839092	-0.455801
H75	H	1.482992	-0.924976	-0.503912
H76	H	1.347555	-0.826114	-0.554971
H77	H	1.393991	-0.911982	-0.603094
O78	O	1.204886	-1.084328	-0.536390
C79	C	1.218019	-0.997852	-0.588658
H80	H	1.234001	-0.924370	-0.551971
H81	H	1.161087	-0.981897	-0.624897
C82	C	1.268049	-1.114458	-0.691418
C83	C	1.287686	-1.024208	-0.646358
H84	H	1.311020	-1.130716	-0.727013
H85	H	1.259199	-1.172719	-0.656206
H86	H	1.220605	-1.101150	-0.721610
H87	H	1.335123	-1.037522	-0.616160
H88	H	1.296545	-0.965950	-0.681567
O89	O	1.056872	-0.939841	-0.496492
C90	C	0.979441	-0.976058	-0.475358
H91	H	0.977968	-0.995963	-0.408478
H92	H	0.964340	-1.050125	-0.511749
C93	C	0.919058	-0.864231	-0.575603
C94	C	0.917247	-0.888670	-0.493458
H95	H	0.880692	-0.810329	-0.586770
H96	H	0.971225	-0.839834	-0.589843
H97	H	0.906476	-0.925961	-0.605919
H98	H	0.929839	-0.826945	-0.463144
H99	H	0.865081	-0.913055	-0.479212
