data_functionalizedCrystal
_audit_creation_method	'MofGen! by Chris Wilmer'
_symmetry_space_group_name_H-M	'P1'
_symmetry_Int_Tables_number	1
_symmetry_cell_setting	triclinic
loop_
_symmetry_equiv_pos_as_xyz
  x,y,z
_cell_length_a	17.019282
_cell_length_b	15.500215
_cell_length_c	11.792241
_cell_angle_alpha	93.165578
_cell_angle_beta	83.790279
_cell_angle_gamma	89.309895
loop_
_atom_site_label
_atom_site_type_symbol
_atom_site_fract_x
_atom_site_fract_y
_atom_site_fract_z
O1	O	1.047020	-0.006088	0.144117
O2	O	0.818214	0.010966	0.163688
O3	O	0.938169	0.002019	-0.011354
O4	O	0.927065	0.002859	0.319159
O5	O	0.931599	-0.141381	-0.020728
O6	O	0.811643	-0.132434	0.154314
O7	O	1.040450	-0.149488	0.134744
Cu8	Cu	0.925446	-0.154054	0.143673
Cu9	Cu	0.933217	0.015533	0.154758
O10	O	0.920494	-0.140541	0.309785
C11	C	0.785636	-0.058550	0.158446
C12	C	0.698355	-0.052045	0.156781
C13	C	0.653773	-0.127158	0.150886
C14	C	0.571764	-0.121048	0.149303
C15	C	0.534338	-0.039824	0.153624
C16	C	0.578926	0.035295	0.159516
C17	C	0.660934	0.029184	0.161090
C18	C	0.286906	-0.017462	0.149117
C19	C	0.204891	-0.011356	0.147545
C20	C	0.197735	-0.167700	0.137331
C21	C	0.279744	-0.173803	0.138913
C22	C	0.324326	-0.098685	0.144799
C23	C	0.450511	-0.033576	0.152009
C24	C	0.408152	-0.104933	0.146405
N25	N	0.919987	-0.273333	0.135875
C26	C	0.965893	-0.322025	0.201490
C27	C	0.961774	-0.412292	0.195586
C28	C	0.911745	-0.453864	0.124071
C29	C	0.865837	-0.405165	0.058448
C30	C	0.869960	-0.314901	0.064347
C31	C	0.896899	-0.726226	0.102824
C32	C	0.892777	-0.816497	0.096932
C33	C	0.988716	-0.823617	0.234068
C34	C	0.992831	-0.733351	0.239966
C35	C	0.946927	-0.684660	0.174339
C36	C	0.907532	-0.546130	0.118037
C37	C	0.951144	-0.592396	0.180368
C38	C	1.073027	-0.079970	0.139985
C39	C	1.160309	-0.086469	0.141650
C40	C	0.934187	-0.069629	-0.058321
C41	C	0.932099	-0.069472	-0.184303
N42	N	0.938683	0.134811	0.162547
C43	C	0.928260	-0.069171	-0.414955
C44	C	0.930393	-0.069338	-0.286603
C45	C	0.924477	-0.068891	0.356753
C46	C	0.926565	-0.069042	0.482734
H47	H	0.161428	-0.228857	0.132537
H48	H	0.684238	-0.193299	0.147378
H49	H	1.033573	-0.699509	0.298198
H50	H	0.323195	0.043705	0.153906
H51	H	0.991881	-0.558544	0.238591
Cl52	Cl	0.531880	0.137405	0.164905
Cl53	Cl	1.046423	-0.884833	0.316563
Cl54	Cl	0.829879	-0.868758	0.007019
Cl55	Cl	0.716981	0.123616	0.168496
Cl56	Cl	1.028790	-0.269772	0.291401
Cl57	Cl	0.455203	-0.207040	0.140970
H58	H	0.535470	-0.182213	0.144484
H59	H	0.174422	0.054789	0.151067
Cl60	Cl	0.844633	-0.598400	0.028144
Cl61	Cl	0.326787	-0.275918	0.133489
H62	H	0.825105	-0.439021	0.000214
H63	H	0.420030	0.032557	0.155526
Cl64	Cl	0.812255	-0.253688	-0.018156
H65	H	0.999158	-0.451933	0.249015
Cl66	Cl	0.839158	-0.665025	0.020365
