data_functionalizedCrystal
_audit_creation_method	'MofGen! by Chris Wilmer'
_symmetry_space_group_name_H-M	'P1'
_symmetry_Int_Tables_number	1
_symmetry_cell_setting	triclinic
loop_
_symmetry_equiv_pos_as_xyz
  x,y,z
_cell_length_a	13.635800
_cell_length_b	11.102288
_cell_length_c	11.102228
_cell_angle_alpha	91.948013
_cell_angle_beta	108.604565
_cell_angle_gamma	108.605689
loop_
_atom_site_label
_atom_site_type_symbol
_atom_site_fract_x
_atom_site_fract_y
_atom_site_fract_z
V1	V	-2.055758	-0.175842	-0.396257
O2	O	-2.035275	0.008447	-0.388713
O3	O	-2.044147	-0.348662	-0.393547
O4	O	-2.044146	-0.173138	-0.569078
O5	O	-2.035276	-0.168292	-0.211967
V6	V	-2.294310	-0.153799	-0.374214
O7	O	-2.193429	-0.224195	-0.444609
O8	O	-2.381739	-0.105445	-0.325862
O9	O	-2.194318	0.019022	-0.376924
O10	O	-2.373492	-0.338088	-0.381757
O11	O	-2.373491	-0.161349	-0.558503
O12	O	-2.194319	-0.156502	-0.201393
C13	C	-1.969303	-0.390792	-0.387296
C14	C	-2.000536	-0.532075	-0.386232
C15	C	-1.969301	-0.166892	-0.611201
C16	C	-2.000531	-0.165825	-0.752483
C17	C	-2.107213	-0.604923	-0.392073
C18	C	-2.136557	-0.737674	-0.391083
C19	C	-1.952535	-0.724716	-0.378406
C20	C	-1.923195	-0.591969	-0.379405
V21	V	-1.555758	-0.175842	-0.396257
O22	O	-1.535275	0.008447	-0.388713
O23	O	-1.544147	-0.348662	-0.393547
O24	O	-1.544146	-0.173138	-0.569078
O25	O	-1.535276	-0.168292	-0.211967
V26	V	-1.794310	-0.153799	-0.374214
O27	O	-1.693429	-0.224195	-0.444609
O28	O	-1.881739	-0.105445	-0.325862
O29	O	-1.694318	0.019022	-0.376924
O30	O	-1.873492	-0.338088	-0.381757
O31	O	-1.873491	-0.161349	-0.558503
O32	O	-1.694319	-0.156502	-0.201393
C33	C	-2.045286	-0.281709	-0.837008
C34	C	-2.074636	-0.280704	-0.969758
C35	C	-2.014468	-0.047920	-0.933444
C36	C	-1.985126	-0.048927	-0.800698
C37	C	-2.100834	0.061145	-0.383172
C38	C	-2.059220	0.202426	-0.384244
C39	C	-1.469303	-0.390792	-0.387296
C40	C	-1.500536	-0.532075	-0.386232
C41	C	-2.100836	-0.162752	-0.159263
C42	C	-2.059224	-0.163813	-0.017979
C43	C	-1.607213	-0.604923	-0.392073
C44	C	-1.636557	-0.737674	-0.391083
C45	C	-1.452535	-0.724716	-0.378406
C46	C	-1.423195	-0.591969	-0.379405
C47	C	-1.469301	-0.166892	-0.611201
C48	C	-1.500531	-0.165825	-0.752483
C49	C	-1.600834	0.061145	-0.383172
C50	C	-1.559220	0.202426	-0.384244
C51	C	-1.600836	-0.162752	-0.159263
C52	C	-1.559224	-0.163813	-0.017979
C53	C	-1.607209	-0.171671	-0.825332
C54	C	-1.636546	-0.170664	-0.958081
C55	C	-1.452519	-0.157970	-0.945120
C56	C	-1.423181	-0.158968	-0.812373
H57	H	-2.170191	-0.556161	-0.397630
N58	N	-1.690629	-0.179063	-0.760733
H59	H	-1.762661	-0.182611	-0.827031
H60	H	-1.662006	-0.100602	-0.693595
H61	H	-1.336305	-0.154197	-0.753055
H62	H	-1.389569	-0.773498	-0.372845
N63	N	-1.808124	-0.513398	-0.373102
H64	H	-1.771389	-0.445687	-0.294086
H65	H	-1.812401	-0.470463	-0.452441
N66	N	-1.308129	-0.513398	-0.373116
H67	H	-1.252544	-0.521319	-0.291023
H68	H	-1.301379	-0.420251	-0.374847
N69	N	-1.997833	0.078161	-0.985442
H70	H	-2.042144	0.124557	-0.958807
H71	H	-2.023190	0.061117	-1.082353
H72	H	-1.389548	-0.152390	-0.993899
N73	N	-1.869114	-0.789315	-0.371009
H74	H	-1.897637	-0.856456	-0.449451
H75	H	-1.856768	-0.831672	-0.291106
N76	N	-1.751606	-0.176961	-1.036641
H77	H	-1.807185	-0.259059	-1.028716
H78	H	-1.758362	-0.175226	-1.129789
N79	N	-2.122898	-0.405687	-1.060930
H80	H	-2.198986	-0.414777	-1.121214
H81	H	-2.128130	-0.479817	-1.010150
N82	N	-1.751599	-0.816232	-0.397310
H83	H	-1.758450	-0.909414	-0.395627
H84	H	-1.807143	-0.808218	-0.479384
H85	H	-2.223423	-0.796983	-0.395841
H86	H	-2.057832	-0.376894	-0.797757
H87	H	-1.948684	0.045445	-0.731874
N88	N	-1.690629	-0.540322	-0.399447
H89	H	-1.762663	-0.606620	-0.403002
H90	H	-1.702920	-0.497870	-0.479291
