data_functionalizedCrystal
_audit_creation_method	'MofGen! by Chris Wilmer'
_symmetry_space_group_name_H-M	'P1'
_symmetry_Int_Tables_number	1
_symmetry_cell_setting	triclinic
loop_
_symmetry_equiv_pos_as_xyz
  x,y,z
_cell_length_a	10.654556
_cell_length_b	9.565339
_cell_length_c	10.654550
_cell_angle_alpha	90.001401
_cell_angle_beta	95.513844
_cell_angle_gamma	90.004003
loop_
_atom_site_label
_atom_site_type_symbol
_atom_site_fract_x
_atom_site_fract_y
_atom_site_fract_z
O1	O	1.667836	0.116270	-0.176426
O2	O	1.302358	0.116270	-0.193224
O3	O	1.493500	0.116265	-0.002086
O4	O	1.476694	0.116275	-0.367564
O5	O	1.493485	-0.116255	-0.002098
O6	O	1.302343	-0.116250	-0.193236
O7	O	1.667821	-0.116250	-0.176438
Zn8	Zn	1.485080	-0.153168	-0.184839
Zn9	Zn	1.485100	0.153188	-0.184823
O10	O	1.476679	-0.116245	-0.367576
C11	C	1.255553	0.000009	-0.191995
C12	C	1.116110	0.000009	-0.188300
C13	C	0.919588	0.126767	-0.183094
C14	C	1.050611	0.126761	-0.186559
C15	C	1.050582	-0.126745	-0.186564
C16	C	0.919563	-0.126737	-0.183091
C17	C	0.919605	0.273127	-0.183096
C18	C	1.050627	0.273121	-0.186561
N19	N	1.485075	-0.362247	-0.184849
C20	C	1.396651	-0.453448	-0.273214
C21	C	1.510355	-0.546626	-0.298575
C22	C	1.371421	-0.546624	-0.159498
C23	C	1.598836	-0.453373	-0.210267
C24	C	1.459828	-0.453364	-0.071140
C25	C	1.573612	-0.546500	-0.096453
C26	C	1.714626	0.000013	-0.177667
C27	C	1.854069	0.000023	-0.181362
C28	C	1.492259	0.000006	0.044706
C29	C	1.488567	0.000011	0.184149
N30	N	1.485114	0.362267	-0.184804
C31	C	1.477921	0.000016	-0.414368
C32	C	1.481612	0.000021	-0.553812
C33	C	1.601108	0.000007	0.263632
C34	C	1.597631	0.000017	0.394653
C35	C	1.369063	0.000029	0.366695
C36	C	1.372540	0.000029	0.235676
C37	C	1.733071	-0.000006	0.279775
C38	C	1.729594	0.000004	0.410796
H39	H	1.102337	0.318534	-0.097112
H40	H	1.103924	-0.229949	-0.187972
Cl41	Cl	1.223209	0.000055	0.431482
Cl42	Cl	0.881273	0.359889	-0.046190
H43	H	1.438411	-0.412367	0.024971
H44	H	0.867902	0.318543	-0.272538
Cl45	Cl	1.747292	-0.390407	-0.243516
H46	H	1.784692	0.097297	0.250421
Cl47	Cl	1.797917	-0.155019	0.224747
H48	H	1.275290	-0.587589	-0.138077
Cl49	Cl	1.543368	-0.609875	-0.447007
Cl50	Cl	1.689210	-0.609196	0.018954
Cl51	Cl	0.837201	-0.286080	-0.180904
H52	H	1.075464	0.329304	-0.275241
H53	H	1.321943	-0.412591	-0.348012
Cl54	Cl	1.791175	0.155001	0.481283
H55	H	1.280898	0.000052	0.170965
Cl56	Cl	1.806343	-0.150227	0.475270
