data_functionalizedCrystal
_audit_creation_method	'MofGen! by Chris Wilmer'
_symmetry_space_group_name_H-M	'P1'
_symmetry_Int_Tables_number	1
_symmetry_cell_setting	triclinic
loop_
_symmetry_equiv_pos_as_xyz
  x,y,z
_cell_length_a	17.699077
_cell_length_b	11.792254
_cell_length_c	16.776229
_cell_angle_alpha	89.993192
_cell_angle_beta	89.993415
_cell_angle_gamma	83.739587
loop_
_atom_site_label
_atom_site_type_symbol
_atom_site_fract_x
_atom_site_fract_y
_atom_site_fract_z
O1	O	1.004851	0.143494	-0.066278
O2	O	1.504851	0.643494	0.433722
O3	O	0.784572	0.162174	-0.066282
O4	O	1.284572	0.662174	0.433718
O5	O	0.900052	-0.012400	-0.066274
O6	O	1.400052	0.487600	0.433726
O7	O	0.889370	0.318067	-0.066286
O8	O	1.389370	0.818067	0.433714
O9	O	0.900036	-0.012411	0.066302
O10	O	1.400036	0.487589	0.566302
O11	O	0.784556	0.162163	0.066295
O12	O	1.284556	0.662163	0.566295
O13	O	1.004835	0.143483	0.066299
O14	O	1.504835	0.643483	0.566299
Zn15	Zn	0.894693	0.152821	0.087346
Zn16	Zn	1.394693	0.652821	0.587346
Zn17	Zn	0.894714	0.152835	-0.087329
Zn18	Zn	1.394714	0.652835	0.412671
O19	O	0.889355	0.318057	0.066291
O20	O	1.389355	0.818057	0.566291
C21	C	0.756363	0.161500	0.000006
C22	C	1.256363	0.661500	0.500006
C23	C	0.672334	0.159496	0.000004
C24	C	1.172334	0.659496	0.500004
C25	C	0.899371	-0.054688	0.000014
C26	C	1.399371	0.445312	0.500014
C27	C	0.897357	-0.180677	0.000013
C28	C	1.397357	0.319323	0.500013
C29	C	0.632853	0.158545	0.072273
C30	C	1.132853	0.658545	0.572273
C31	C	0.553901	0.156644	0.072274
C32	C	1.053901	0.656644	0.572274
C33	C	0.514429	0.155700	0.000005
C34	C	1.014429	0.655700	0.500005
C35	C	0.553916	0.156648	-0.072268
C36	C	1.053916	0.656648	0.427732
C37	C	0.632868	0.158541	-0.072269
C38	C	1.132868	0.658541	0.427731
C39	C	0.235512	0.149010	-0.072270
C40	C	0.735512	0.649010	0.427730
C41	C	0.156554	0.147120	-0.072264
C42	C	0.656554	0.647120	0.427736
C43	C	0.156544	0.147112	0.072273
C44	C	0.656544	0.647112	0.572273
C45	C	0.235496	0.149006	0.072272
C46	C	0.735496	0.649006	0.572272
C47	C	0.274977	0.149947	-0.000001
C48	C	0.774977	0.649947	0.499999
C49	C	0.360586	0.152007	-0.000001
C50	C	0.860586	0.652007	0.499999
C51	C	0.428821	0.153649	0.000005
C52	C	0.928821	0.653649	0.500005
C53	C	0.895721	-0.282994	0.000010
C54	C	1.395721	0.217006	0.500010
C55	C	0.893675	-0.411356	0.000003
C56	C	1.393675	0.088644	0.500003
C57	C	1.033043	0.144156	0.000009
C58	C	1.533043	0.644156	0.500009
C59	C	1.117072	0.146161	0.000005
C60	C	1.617072	0.646161	0.500005
C61	C	0.890036	0.360345	0.000001
C62	C	1.390036	0.860345	0.500001
C63	C	0.892050	0.486333	-0.000003
C64	C	1.392050	0.986333	0.499997
N65	N	0.894685	0.152811	0.206557
N66	N	1.394685	0.652811	0.706557
N67	N	0.894728	0.152837	-0.206541
N68	N	1.394728	0.652837	0.293459
C69	C	0.945835	0.075541	0.248278
C70	C	1.445835	0.575541	0.748278
C71	C	0.945839	0.075540	0.331730
C72	C	1.445839	0.575540	0.831730
C73	C	0.894696	0.152815	0.373460
C74	C	1.394696	0.652815	0.873460
C75	C	0.843540	0.230089	0.331734
C76	C	1.343540	0.730089	0.831734
C77	C	0.843533	0.230083	0.248283
C78	C	1.343533	0.730083	0.748283
C79	C	0.843568	0.230111	0.668281
C80	C	1.343568	0.730111	1.168281
C81	C	0.843581	0.230113	0.751737
C82	C	1.343581	0.730113	1.251737
C83	C	0.945874	0.075568	0.751728
C84	C	1.445874	0.575568	1.251728
C85	C	0.945867	0.075563	0.668277
C86	C	1.445867	0.575563	1.168277
C87	C	0.894709	0.152831	0.626558
C88	C	1.394709	0.652831	1.126558
C89	C	0.894704	0.152830	0.536070
C90	C	1.394704	0.652830	1.036070
C91	C	0.894704	0.152823	0.463947
C92	C	1.394704	0.652823	0.963947
H93	H	0.664984	0.159322	0.131122
H94	H	1.164984	0.659322	0.631122
H95	H	0.521760	0.155851	0.131122
H96	H	1.021760	0.655851	0.631122
H97	H	0.801931	0.293041	0.785713
H98	H	1.301931	0.793041	1.285713
H99	H	0.987515	0.012642	0.634303
H100	H	1.487515	0.512642	1.134303
C101	C	0.140345	0.048998	0.195487
C102	C	0.640345	0.548998	0.695487
C103	C	0.113149	0.146064	0.151721
C104	C	0.613149	0.646064	0.651721
H105	H	0.113559	0.048359	0.244535
H106	H	0.613559	0.548359	0.744535
H107	H	0.132905	-0.017459	0.165799
H108	H	0.632905	0.482541	0.665799
H109	H	0.193015	0.050277	0.205819
H110	H	0.693015	0.550277	0.705819
H111	H	0.060480	0.144780	0.141384
H112	H	0.560480	0.644780	0.641384
H113	H	0.120582	0.212537	0.181416
H114	H	0.620582	0.712537	0.681416
C115	C	0.961573	-0.079003	0.154490
C116	C	1.461573	0.420997	0.654490
C117	C	1.002035	-0.009456	0.202431
C118	C	1.502035	0.490544	0.702431
H119	H	0.996264	-0.131491	0.126191
H120	H	1.496264	0.368509	0.626191
H121	H	0.929892	-0.119708	0.187072
H122	H	1.429892	0.380292	0.687072
H123	H	0.931132	-0.032974	0.117683
H124	H	1.431132	0.467026	0.617683
H125	H	1.032472	-0.055485	0.239242
H126	H	1.532472	0.444515	0.739242
H127	H	1.033729	0.031251	0.169846
H128	H	1.533729	0.531251	0.669846
C129	C	0.332407	0.053616	-0.156125
C130	C	0.832407	0.553616	0.343875
C131	C	0.278904	0.150056	-0.151710
C132	C	0.778904	0.650056	0.348290
H133	H	0.359194	0.054262	-0.205172
H134	H	0.859194	0.554262	0.294828
H135	H	0.367209	0.054452	-0.113090
H136	H	0.867209	0.554452	0.386910
H137	H	0.307098	-0.013273	-0.153119
H138	H	0.807098	0.486727	0.346881
H139	H	0.304213	0.216945	-0.154710
H140	H	0.804213	0.716945	0.345290
H141	H	0.244097	0.149229	-0.194756
H142	H	0.744097	0.649229	0.305244
C143	C	0.827774	0.384609	0.574435
C144	C	1.327774	0.884609	1.074435
C145	C	0.787346	0.315062	0.622433
C146	C	1.287346	0.815062	1.122433
H147	H	0.793063	0.437055	0.546127
H148	H	1.293063	0.937055	1.046127
H149	H	0.859447	0.425360	0.606981
H150	H	1.359447	0.925360	1.106981
H151	H	0.858221	0.338574	0.537637
H152	H	1.358221	0.838574	1.037637
H153	H	0.756902	0.361096	0.659236
H154	H	1.256902	0.861096	1.159236
H155	H	0.755660	0.274308	0.589885
H156	H	1.255660	0.774308	1.089885
H157	H	0.267629	0.149779	0.131121
H158	H	0.767629	0.649779	0.631121
C159	C	0.164492	0.147292	-0.215145
C160	C	0.664492	0.647292	0.284855
C161	C	0.113166	0.146073	-0.151708
C162	C	0.613166	0.646073	0.348292
H163	H	0.137705	0.146640	-0.264186
H164	H	0.637705	0.646640	0.235814
H165	H	0.189785	0.214183	-0.212150
H166	H	0.689785	0.714183	0.287850
H167	H	0.200788	0.081865	-0.212128
H168	H	0.700788	0.581865	0.287872
H169	H	0.076874	0.211504	-0.154721
H170	H	0.576874	0.711504	0.345279
H171	H	0.087861	0.079174	-0.154705
H172	H	0.587861	0.579174	0.345295
H173	H	0.801880	0.293003	0.214315
H174	H	1.301880	0.793003	0.714315
H175	H	0.521773	0.155872	-0.131111
H176	H	1.021773	0.655872	0.368889
H177	H	0.665012	0.159317	-0.131117
H178	H	1.165012	0.659317	0.368883
H179	H	0.801895	0.293004	0.365715
H180	H	1.301895	0.793004	0.865715
H181	H	0.987489	0.012621	0.365698
H182	H	1.487489	0.512621	0.865698
H183	H	0.987528	0.012648	0.785704
H184	H	1.487528	0.512648	1.285704
