data_functionalizedCrystal
_audit_creation_method	'MofGen! by Chris Wilmer'
_symmetry_space_group_name_H-M	'P1'
_symmetry_Int_Tables_number	1
_symmetry_cell_setting	triclinic
loop_
_symmetry_equiv_pos_as_xyz
  x,y,z
_cell_length_a	18.215407
_cell_length_b	14.909042
_cell_length_c	18.215399
_cell_angle_alpha	93.320692
_cell_angle_beta	90.017368
_cell_angle_gamma	86.716699
loop_
_atom_site_label
_atom_site_type_symbol
_atom_site_fract_x
_atom_site_fract_y
_atom_site_fract_z
Zn1	Zn	1.142020	-0.359223	0.399185
Zn2	Zn	1.149047	-0.510089	0.269028
Zn3	Zn	1.018954	-0.359245	0.276136
Zn4	Zn	1.026034	-0.510031	0.392061
O5	O	1.084014	-0.434647	0.334102
O6	O	1.245937	-0.379251	0.381925
O7	O	1.131767	-0.490112	0.166985
O8	O	1.029375	-0.232999	0.298415
O9	O	1.251100	-0.490091	0.286300
O10	O	1.119792	-0.232984	0.388818
O11	O	1.036189	-0.379288	0.172207
O12	O	0.916908	-0.379231	0.291507
O13	O	1.041442	-0.489992	0.495992
O14	O	0.922110	-0.490013	0.376677
O15	O	1.126657	-0.379195	0.501226
O16	O	1.138632	-0.636324	0.279392
O17	O	1.048256	-0.636281	0.369784
C18	C	0.892806	-0.434619	0.334091
C19	C	0.811008	-0.434629	0.334102
C20	C	0.620130	-0.377033	0.383963
C21	C	0.543272	-0.377041	0.383965
C22	C	0.548650	-0.492286	0.284253
C23	C	0.625507	-0.492273	0.284248
C24	C	0.661245	-0.434648	0.334107
C25	C	0.507530	-0.434669	0.334114
C26	C	0.424197	-0.434677	0.334116
C27	C	0.744584	-0.434638	0.334105
C28	C	1.094995	-0.669035	0.323060
C29	C	1.099760	-0.769308	0.318360
C30	C	1.014514	-0.957750	0.403573
C31	C	1.018989	-1.051965	0.399160
C32	C	1.113180	-1.051954	0.305118
C33	C	1.108705	-0.957739	0.309531
C34	C	1.059371	-0.910641	0.358761
C35	C	1.054900	-0.816424	0.363177
C36	C	1.149088	-0.816415	0.269132
C37	C	1.153563	-0.910630	0.264719
C38	C	1.275968	-0.434675	0.334114
C39	C	1.357767	-0.434687	0.334120
C40	C	1.084056	-0.434585	0.526058
C41	C	1.084074	-0.434558	0.607859
C42	C	1.073010	-0.199343	0.345204
C43	C	1.068321	-0.099070	0.349935
C44	C	1.084011	-0.434644	0.142896
C45	C	1.084124	-0.434416	0.061109
C46	C	1.128459	-0.376812	0.798782
C47	C	1.128467	-0.376785	0.875642
C48	C	1.039733	-0.492165	0.870180
C49	C	1.039722	-0.492186	0.793322
C50	C	1.084090	-0.434511	0.757624
C51	C	1.084108	-0.434463	0.911343
C52	C	1.084116	-0.434435	0.994678
C53	C	1.084081	-0.434537	0.674284
H54	H	0.519543	-0.539203	0.243660
H55	H	0.649226	-0.330108	0.424560
H56	H	0.658984	-0.539191	0.243646
O57	O	1.006919	-0.770810	0.411015
C58	C	0.914000	-0.780769	0.503859
C59	C	0.968296	-0.832536	0.449702
H60	H	0.882770	-0.830652	0.535163
H61	H	0.873400	-0.736747	0.472136
H62	H	0.945677	-0.736574	0.544411
H63	H	0.936680	-0.876779	0.409137
H64	H	1.008895	-0.876501	0.481474
H65	H	1.164584	-0.329846	0.769719
H66	H	0.982463	-1.090318	0.435653
O67	O	0.966539	-0.912133	0.451416
C68	C	0.873637	-0.922083	0.544279
C69	C	0.927921	-0.973855	0.490112
H70	H	0.842410	-0.971963	0.575590
H71	H	0.833033	-0.878059	0.512562
H72	H	0.905324	-0.877890	0.584824
H73	H	0.896295	-1.018097	0.449555
H74	H	0.968524	-1.017822	0.521878
H75	H	1.153338	-1.090318	0.265031
O76	O	1.201457	-0.956524	0.216954
C77	C	1.250041	-1.101662	0.168421
C78	C	1.195785	-1.049802	0.222565
H79	H	1.245463	-1.177086	0.172929
H80	H	1.308516	-1.083148	0.182259
H81	H	1.236274	-1.083134	0.109948
H82	H	1.209485	-1.068302	0.281057
H83	H	1.137326	-1.068320	0.208664
O84	O	0.503446	-0.321047	0.432468
C85	C	0.506226	-0.206704	0.531342
C86	C	0.551418	-0.270090	0.476462
H87	H	0.544992	-0.165475	0.566915
H88	H	0.472222	-0.248144	0.567866
H89	H	0.467997	-0.159522	0.499830
H90	H	0.589688	-0.317284	0.507914
H91	H	0.585373	-0.228594	0.439938
H92	H	1.164596	-0.329800	0.909149
O93	O	1.192589	-0.770512	0.225627
C94	C	1.227477	-0.625365	0.190781
C95	C	1.178157	-0.677237	0.240076
H96	H	1.215837	-0.549943	0.202457
H97	H	1.215469	-0.643882	0.130543
H98	H	1.287680	-0.643880	0.202886
H99	H	1.117937	-0.658750	0.228037
H100	H	1.190227	-0.658716	0.300299
H101	H	1.003613	-0.539124	0.899254
H102	H	1.003586	-0.539171	0.759810
