data_functionalizedCrystal
_audit_creation_method	'MofGen! by Chris Wilmer'
_symmetry_space_group_name_H-M	'P1'
_symmetry_Int_Tables_number	1
_symmetry_cell_setting	triclinic
loop_
_symmetry_equiv_pos_as_xyz
  x,y,z
_cell_length_a	16.625548
_cell_length_b	16.120531
_cell_length_c	16.120256
_cell_angle_alpha	95.612324
_cell_angle_beta	87.121741
_cell_angle_gamma	87.066624
loop_
_atom_site_label
_atom_site_type_symbol
_atom_site_fract_x
_atom_site_fract_y
_atom_site_fract_z
Zn1	Zn	1.191118	0.356739	0.489435
Zn2	Zn	1.191002	0.489424	0.356737
Zn3	Zn	1.063483	0.349673	0.349681
Zn4	Zn	1.049030	0.496472	0.496460
O5	O	1.123658	0.423077	0.423078
O6	O	1.303934	0.374347	0.471846
O7	O	1.180086	0.464979	0.238839
O8	O	1.086511	0.233645	0.362327
O9	O	1.303848	0.471831	0.374353
O10	O	1.180284	0.238837	0.465004
O11	O	1.086399	0.362305	0.233655
O12	O	0.948734	0.369139	0.369138
O13	O	1.061878	0.483843	0.612490
O14	O	0.938116	0.476992	0.476976
O15	O	1.166269	0.381182	0.607329
O16	O	1.166071	0.607324	0.381164
O17	O	1.061765	0.612503	0.483818
C18	C	0.914169	0.423064	0.423054
C19	C	0.824546	0.423080	0.423065
C20	C	0.496369	0.423087	0.423101
C21	C	0.587678	0.423082	0.423088
C22	C	0.660455	0.423084	0.423082
C23	C	0.751770	0.423078	0.423071
C24	C	1.112358	0.640242	0.434037
C25	C	1.107597	0.733148	0.438753
C26	C	1.098907	0.903248	0.447381
C27	C	1.148442	0.942064	0.398728
C28	C	1.143607	1.036713	0.403528
C29	C	1.103741	0.808590	0.442582
C30	C	1.333965	0.423091	0.423103
C31	C	1.423585	0.423097	0.423113
C32	C	1.112474	0.434087	0.641084
C33	C	1.107708	0.438778	0.733986
C34	C	1.134995	1.205064	0.412079
C35	C	1.139755	1.112158	0.407353
C36	C	1.134848	0.412050	0.205917
C37	C	1.139782	0.407123	0.113004
C38	C	1.148511	0.398589	0.942914
C39	C	1.098982	0.447310	0.904070
C40	C	1.103839	0.442561	0.809426
C41	C	1.143655	0.403336	1.037566
H42	H	1.052870	0.941098	0.492635
F43	F	1.208617	0.892591	0.339569
F44	F	1.038791	0.506491	0.953507
F45	F	1.208690	0.339405	0.893477
