data_functionalizedCrystal
_audit_creation_method	'MofGen! by Chris Wilmer'
_symmetry_space_group_name_H-M	'P1'
_symmetry_Int_Tables_number	1
_symmetry_cell_setting	triclinic
loop_
_symmetry_equiv_pos_as_xyz
  x,y,z
_cell_length_a	19.805407
_cell_length_b	25.639239
_cell_length_c	25.639233
_cell_angle_alpha	89.981253
_cell_angle_beta	89.985655
_cell_angle_gamma	90.038686
loop_
_atom_site_label
_atom_site_type_symbol
_atom_site_fract_x
_atom_site_fract_y
_atom_site_fract_z
Zn1	Zn	1.034643	-0.208214	-0.295633
Zn2	Zn	1.367976	0.125119	0.037700
Zn3	Zn	1.701310	0.458452	0.371034
Zn4	Zn	1.034544	-0.295633	-0.208197
Zn5	Zn	1.367877	0.037700	0.125136
Zn6	Zn	1.701211	0.371033	0.458469
Zn7	Zn	0.921468	-0.208214	-0.208209
Zn8	Zn	1.254801	0.125120	0.125124
Zn9	Zn	1.588135	0.458453	0.458458
Zn10	Zn	0.921397	-0.295621	-0.295599
Zn11	Zn	1.254730	0.037713	0.037734
Zn12	Zn	1.588064	0.371046	0.371067
O13	O	0.978013	-0.251920	-0.251910
O14	O	1.311346	0.081413	0.081424
O15	O	1.644680	0.414746	0.414757
O16	O	1.129346	-0.219816	-0.284044
O17	O	1.462680	0.113517	0.049289
O18	O	1.796013	0.446850	0.382623
O19	O	1.019532	-0.284042	-0.135034
O20	O	1.352866	0.049292	0.198300
O21	O	1.686199	0.382625	0.531633
O22	O	0.936552	-0.135048	-0.219825
O23	O	1.269885	0.198285	0.113508
O24	O	1.603219	0.531618	0.446841
O25	O	1.129274	-0.284043	-0.219805
O26	O	1.462607	0.049291	0.113528
O27	O	1.795940	0.382624	0.446861
O28	O	1.019701	-0.135049	-0.284055
O29	O	1.353035	0.198284	0.049278
O30	O	1.686368	0.531618	0.382611
O31	O	0.936456	-0.219815	-0.135042
O32	O	1.269789	0.113518	0.198291
O33	O	1.603123	0.446852	0.531624
O34	O	0.826742	-0.219803	-0.219792
O35	O	1.160075	0.113531	0.113541
O36	O	1.493409	0.446864	0.446874
O37	O	0.936431	-0.284021	-0.368769
O38	O	1.269764	0.049312	-0.035436
O39	O	1.603098	0.382646	0.297898
O40	O	0.826690	-0.284020	-0.283998
O41	O	1.160023	0.049313	0.049336
O42	O	1.493356	0.382646	0.382669
O43	O	1.019632	-0.219804	-0.368794
O44	O	1.352966	0.113529	-0.035461
O45	O	1.686299	0.446863	0.297873
O46	O	1.019463	-0.368797	-0.219773
O47	O	1.352797	-0.035463	0.113561
O48	O	1.686130	0.297870	0.446894
O49	O	0.936335	-0.368788	-0.283986
O50	O	1.269668	-0.035454	0.049347
O51	O	1.603002	0.297879	0.382680
C52	C	0.802157	-0.251910	-0.251893
C53	C	1.135490	0.081423	0.081440
C54	C	1.468824	0.414756	0.414774
C55	C	0.726925	-0.251919	-0.251898
C56	C	1.060258	0.081415	0.081435
C57	C	1.393592	0.414748	0.414769
C58	C	0.691571	-0.285407	-0.285276
C59	C	1.024905	0.047926	0.048058
C60	C	1.358238	0.381259	0.381391
C61	C	0.620883	-0.285408	-0.285283
C62	C	0.954216	0.047925	0.048050
C63	C	1.287550	0.381259	0.381384
C64	C	0.585549	-0.251923	-0.251910
C65	C	0.918883	0.081410	0.081424
C66	C	1.252216	0.414744	0.414757
C67	C	0.620908	-0.218431	-0.218531
C68	C	0.954241	0.114903	0.114803
C69	C	1.287575	0.448236	0.448136
C70	C	0.691595	-0.218428	-0.218526
C71	C	1.024928	0.114906	0.114807
C72	C	1.358262	0.448239	0.448140
C73	C	0.335835	-0.218442	-0.218548
C74	C	0.669168	0.114891	0.114785
C75	C	1.002501	0.448224	0.448119
C76	C	0.265143	-0.218449	-0.218554
C77	C	0.598476	0.114884	0.114779
C78	C	0.931809	0.448217	0.448113
C79	C	0.265122	-0.285423	-0.285305
C80	C	0.598456	0.047911	0.048029
C81	C	0.931789	0.381244	0.381362
C82	C	0.335810	-0.285420	-0.285300
C83	C	0.669143	0.047914	0.048033
C84	C	1.002476	0.381247	0.381366
C85	C	0.371162	-0.251926	-0.251923
C86	C	0.704495	0.081407	0.081410
C87	C	1.037829	0.414741	0.414743
C88	C	0.447810	-0.251925	-0.251917
C89	C	0.781144	0.081409	0.081417
C90	C	1.114477	0.414742	0.414750
C91	C	0.508902	-0.251926	-0.251914
C92	C	0.842236	0.081407	0.081420
C93	C	1.175569	0.414740	0.414753
C94	C	0.977899	-0.387763	-0.251886
C95	C	1.311232	-0.054430	0.081447
C96	C	1.644566	0.278904	0.414781
C97	C	0.977912	-0.445877	-0.251893
C98	C	1.311246	-0.112544	0.081440
C99	C	1.644579	0.220790	0.414774
C100	C	1.021411	-0.806232	-0.218531
C101	C	1.354744	-0.472899	0.114803
C102	C	1.688078	-0.139566	0.448136
C103	C	1.021437	-0.860837	-0.218538
C104	C	1.354770	-0.527503	0.114796
C105	C	1.688104	-0.194170	0.448129
O106	O	1.058303	-0.889067	-0.190145
O107	O	1.391636	-0.555733	0.143188
O108	O	1.724970	-0.222400	0.476521
N109	N	0.978132	-0.888159	-0.251944
N110	N	1.311465	-0.554826	0.081389
N111	N	1.644799	-0.221493	0.414722
C112	C	0.934802	-0.860875	-0.285350
C113	C	1.268136	-0.527542	0.047983
C114	C	1.601469	-0.194209	0.381317
O115	O	0.897971	-0.889129	-0.313766
O116	O	1.231304	-0.555796	0.019567
O117	O	1.564637	-0.222463	0.352900
C118	C	0.934780	-0.806272	-0.285345
C119	C	1.268113	-0.472939	0.047988
C120	C	1.601447	-0.139605	0.381321
C121	C	0.978083	-0.778952	-0.251933
C122	C	1.311417	-0.445619	0.081401
C123	C	1.644750	-0.112285	0.414734
C124	C	1.064711	-0.778912	-0.185121
C125	C	1.398045	-0.445579	0.148212
C126	C	1.731378	-0.112246	0.481546
C127	C	1.064684	-0.724312	-0.185114
C128	C	1.398017	-0.390978	0.148220
C129	C	1.731351	-0.057645	0.481553
C130	C	1.021356	-0.697031	-0.218516
C131	C	1.354690	-0.363698	0.114818
C132	C	1.688023	-0.030365	0.448151
C133	C	0.978056	-0.724351	-0.251925
C134	C	1.311389	-0.391018	0.081408
C135	C	1.644723	-0.057685	0.414742
C136	C	0.891455	-0.778989	-0.318753
C137	C	1.224788	-0.445655	0.014580
C138	C	1.558121	-0.112322	0.347913
C139	C	0.891436	-0.724382	-0.318746
C140	C	1.224770	-0.391048	0.014587
C141	C	1.558103	-0.057715	0.347921
C142	C	0.934740	-0.697062	-0.285333
C143	C	1.268073	-0.363728	0.048000
C144	C	1.601406	-0.030395	0.381333
C145	C	0.934701	-0.642470	-0.285320
C146	C	1.268035	-0.309137	0.048014
C147	C	1.601368	0.024196	0.381347
N148	N	0.978006	-0.615148	-0.251913
N149	N	1.311340	-0.281814	0.081420
N150	N	1.644673	0.051519	0.414754
C151	C	1.021334	-0.642428	-0.218511
C152	C	1.354667	-0.309095	0.114823
C153	C	1.688001	0.024239	0.448156
C154	C	0.934853	-0.975546	-0.285358
C155	C	1.268187	-0.642212	0.047975
C156	C	1.601520	-0.308879	0.381308
C157	C	0.934872	-1.030148	-0.285361
C158	C	1.268205	-0.696815	0.047973
C159	C	1.601538	-0.363481	0.381306
C160	C	1.021508	-1.030106	-0.218549
C161	C	1.354841	-0.696772	0.114785
C162	C	1.688174	-0.363439	0.448118
C163	C	1.021485	-0.975502	-0.218544
C164	C	1.354819	-0.642169	0.114789
C165	C	1.688152	-0.308836	0.448123
C166	C	0.978159	-0.948223	-0.251951
C167	C	1.311492	-0.614890	0.081382
C168	C	1.644825	-0.281556	0.414715
C169	C	1.021273	-0.527763	-0.218497
C170	C	1.354606	-0.194430	0.114836
C171	C	1.687940	0.138904	0.448169
C172	C	1.021240	-0.473158	-0.218491
C173	C	1.354573	-0.139824	0.114842
C174	C	1.687907	0.193509	0.448176
C175	C	0.934607	-0.473205	-0.285305
C176	C	1.267940	-0.139871	0.048029
C177	C	1.601274	0.193462	0.381362
C178	C	0.934637	-0.527805	-0.285309
C179	C	1.267971	-0.194472	0.048024
C180	C	1.601304	0.138861	0.381358
C181	C	0.977976	-0.555083	-0.251904
C182	C	1.311309	-0.221750	0.081430
C183	C	1.644642	0.111584	0.414763
O184	O	0.897856	-0.614206	-0.313699
O185	O	1.231189	-0.280872	0.019634
O186	O	1.564523	0.052461	0.352968
O187	O	1.058166	-0.614167	-0.190104
O188	O	1.391499	-0.280834	0.143229
O189	O	1.724832	0.052500	0.476562
C190	C	1.154556	-0.251931	-0.251927
C191	C	1.487889	0.081402	0.081406
C192	C	1.821222	0.414736	0.414740
C193	C	1.229788	-0.251935	-0.251934
C194	C	1.563121	0.081398	0.081399
C195	C	1.896454	0.414731	0.414732
C196	C	0.978035	-0.251911	-0.388283
C197	C	1.311368	0.081422	-0.054949
C198	C	1.644701	0.414755	0.278384
C199	C	0.978044	-0.251907	-0.446397
C200	C	1.311377	0.081426	-0.113064
C201	C	1.644711	0.414759	0.220270
C202	C	0.978146	-0.115547	-0.251945
C203	C	1.311479	0.217786	0.081388
C204	C	1.644812	0.551119	0.414721
C205	C	0.978202	-0.057433	-0.251960
C206	C	1.311536	0.275900	0.081373
C207	C	1.644869	0.609233	0.414706
C208	C	1.021422	-0.218370	-0.806779
C209	C	1.354755	0.114963	-0.473445
C210	C	1.688089	0.448296	-0.140112
C211	C	1.021430	-0.218356	-0.861383
C212	C	1.354764	0.114978	-0.528050
C213	C	1.688097	0.448311	-0.194716
O214	O	1.058257	-0.189903	-0.889636
O215	O	1.391590	0.143430	-0.556302
O216	O	1.724924	0.476764	-0.222969
N217	N	0.978119	-0.251785	-0.888680
N218	N	1.311452	0.081549	-0.555346
N219	N	1.644785	0.414882	-0.222013
C220	C	0.934791	-0.285227	-0.861369
C221	C	1.268124	0.048107	-0.528036
C222	C	1.601458	0.381440	-0.194702
O223	O	0.897951	-0.313659	-0.889601
O224	O	1.231285	0.019674	-0.556267
O225	O	1.564618	0.353008	-0.222934
C226	C	0.934780	-0.285238	-0.806766
C227	C	1.268113	0.048095	-0.473432
C228	C	1.601446	0.381429	-0.140099
C229	C	0.978099	-0.251811	-0.779472
C230	C	1.311432	0.081523	-0.446139
C231	C	1.644766	0.414856	-0.112805
C232	C	1.064737	-0.184945	-0.779485
C233	C	1.398071	0.148388	-0.446152
C234	C	1.731404	0.481722	-0.112818
C235	C	1.064730	-0.184960	-0.724884
C236	C	1.398063	0.148373	-0.391551
C237	C	1.731396	0.481706	-0.058218
C238	C	1.021407	-0.218401	-0.697578
C239	C	1.354740	0.114933	-0.364244
C240	C	1.688073	0.448266	-0.030911
C241	C	0.978091	-0.251826	-0.724871
C242	C	1.311425	0.081507	-0.391538
C243	C	1.644758	0.414841	-0.058205
C244	C	0.891449	-0.318677	-0.779456
C245	C	1.224782	0.014656	-0.446123
C246	C	1.558116	0.347990	-0.112789
C247	C	0.891441	-0.318685	-0.724849
C248	C	1.224775	0.014648	-0.391516
C249	C	1.558108	0.347981	-0.058182
C250	C	0.934761	-0.285258	-0.697555
C251	C	1.268094	0.048076	-0.364222
C252	C	1.601427	0.381409	-0.030889
C253	C	0.934761	-0.285282	-0.642964
C254	C	1.268094	0.048052	-0.309631
C255	C	1.601428	0.381385	0.023703
N256	N	0.978073	-0.251853	-0.615667
N257	N	1.311406	0.081481	-0.282334
N258	N	1.644739	0.414814	0.050999
C259	C	1.021395	-0.218412	-0.642974
C260	C	1.354729	0.114921	-0.309641
C261	C	1.688062	0.448254	0.023692
C262	C	0.934817	-0.285200	-0.976040
C263	C	1.268150	0.048134	-0.642706
C264	C	1.601484	0.381467	-0.309373
C265	C	0.934831	-0.285191	-1.030642
C266	C	1.268165	0.048142	-0.697309
C267	C	1.601498	0.381476	-0.363975
C268	C	1.021470	-0.218319	-1.030652
C269	C	1.354803	0.115014	-0.697319
C270	C	1.688137	0.448347	-0.363986
C271	C	1.021459	-0.218331	-0.976049
C272	C	1.354792	0.115003	-0.642716
C273	C	1.688125	0.448336	-0.309382
C274	C	0.978129	-0.251770	-0.948743
C275	C	1.311462	0.081563	-0.615410
C276	C	1.644795	0.414896	-0.282076
C277	C	1.021376	-0.218447	-0.528309
C278	C	1.354710	0.114886	-0.194976
C279	C	1.688043	0.448219	0.138358
C280	C	1.021367	-0.218467	-0.473704
C281	C	1.354700	0.114866	-0.140370
C282	C	1.688034	0.448200	0.192963
C283	C	0.934726	-0.285337	-0.473698
C284	C	1.268060	0.047997	-0.140365
C285	C	1.601393	0.381330	0.192969
C286	C	0.934738	-0.285319	-0.528299
C287	C	1.268071	0.048014	-0.194965
C288	C	1.601405	0.381348	0.138368
C289	C	0.978065	-0.251870	-0.555603
C290	C	1.311399	0.081463	-0.222270
C291	C	1.644732	0.414797	0.111064
O292	O	0.897951	-0.313718	-0.614677
O293	O	1.231284	0.019615	-0.281343
O294	O	1.564618	0.352948	0.051990
O295	O	1.058223	-0.189980	-0.614736
O296	O	1.391556	0.143353	-0.281402
O297	O	1.724889	0.476687	0.051931
C298	C	0.978030	-0.251892	-0.116067
C299	C	1.311363	0.081441	0.217266
C300	C	1.644697	0.414775	0.550599
C301	C	0.978152	-0.251748	-0.057954
C302	C	1.311485	0.081585	0.275380
C303	C	1.644819	0.414918	0.608713
H304	H	0.592101	-0.312678	-0.312462
H305	H	0.925434	0.020655	0.020872
H306	H	1.258768	0.353988	0.354205
H307	H	0.899328	-0.450984	-0.312499
H308	H	1.232661	-0.117651	0.020835
H309	H	1.565995	0.215682	0.354168
H310	H	0.856189	-0.801223	-0.345959
H311	H	1.189522	-0.467890	-0.012626
H312	H	1.522856	-0.134557	0.320708
C313	C	1.030917	-0.148009	-0.914659
C314	C	1.364251	0.185324	-0.581325
C315	C	1.697584	0.518657	-0.247992
C316	C	1.069069	-0.181581	-0.946050
C317	C	1.402402	0.151752	-0.612717
C318	C	1.735736	0.485086	-0.279384
H319	H	1.060311	-0.125322	-0.896139
H320	H	1.393645	0.208012	-0.562806
H321	H	1.726978	0.541345	-0.229473
H322	H	1.001455	-0.128010	-0.935963
H323	H	1.334789	0.205323	-0.602630
H324	H	1.668122	0.538657	-0.269296
H325	H	1.005120	-0.167930	-0.890578
H326	H	1.338453	0.165404	-0.557245
H327	H	1.671787	0.498737	-0.223911
H328	H	1.094863	-0.161661	-0.970134
H329	H	1.428196	0.171673	-0.636801
H330	H	1.761530	0.505006	-0.303467
H331	H	1.098543	-0.201582	-0.924744
H332	H	1.431876	0.131751	-0.591411
H333	H	1.765210	0.465084	-0.258078
C334	C	0.805811	-0.729912	-0.384795
C335	C	1.139144	-0.396579	-0.051462
C336	C	1.472477	-0.063246	0.281872
C337	C	0.843809	-0.694397	-0.355470
C338	C	1.177143	-0.361064	-0.022137
C339	C	1.510476	-0.027730	0.311197
H340	H	0.776406	-0.711401	-0.407464
H341	H	1.109739	-0.378067	-0.074130
H342	H	1.443073	-0.044734	0.259203
H343	H	0.835296	-0.751176	-0.404813
H344	H	1.168630	-0.417843	-0.071480
H345	H	1.501963	-0.084509	0.261853
H346	H	0.779950	-0.751241	-0.361994
H347	H	1.113283	-0.417908	-0.028660
H348	H	1.446617	-0.084574	0.304673
H349	H	0.869674	-0.673071	-0.378271
H350	H	1.203007	-0.339737	-0.044938
H351	H	1.536341	-0.006404	0.288396
H352	H	0.814320	-0.673124	-0.335450
H353	H	1.147653	-0.339791	-0.002117
H354	H	1.480986	-0.006458	0.331217
C355	C	1.059824	-0.188784	-0.390008
C356	C	1.393158	0.144549	-0.056674
C357	C	1.726491	0.477883	0.276659
C358	C	1.068977	-0.181714	-0.443702
C359	C	1.402310	0.151619	-0.110369
C360	C	1.735644	0.484953	0.222964
H361	H	1.089216	-0.166095	-0.371489
H362	H	1.422549	0.167239	-0.038156
H363	H	1.755883	0.500572	0.295178
H364	H	1.014357	-0.181137	-0.381060
H365	H	1.347690	0.152196	-0.047726
H366	H	1.681023	0.485530	0.285607
H367	H	1.069705	-0.223916	-0.381059
H368	H	1.403038	0.109418	-0.047726
H369	H	1.736372	0.442751	0.285607
H370	H	1.059091	-0.146583	-0.452652
H371	H	1.392425	0.186750	-0.119318
H372	H	1.725758	0.520084	0.214015
H373	H	1.114455	-0.189357	-0.452654
H374	H	1.447789	0.143976	-0.119321
H375	H	1.781122	0.477309	0.214012
C376	C	0.357594	-0.311014	-0.373786
C377	C	0.690927	0.022320	-0.040453
C378	C	1.024261	0.355653	0.292880
C379	C	0.374648	-0.322225	-0.321987
C380	C	0.707981	0.011108	0.011347
C381	C	1.041315	0.344441	0.344680
H382	H	0.381574	-0.333734	-0.396436
H383	H	0.714908	-0.000400	-0.063102
H384	H	1.048241	0.332933	0.270231
H385	H	0.310442	-0.315811	-0.378562
H386	H	0.643775	0.017522	-0.045229
H387	H	0.977108	0.350856	0.288105
H388	H	0.369212	-0.275893	-0.381492
H389	H	0.702546	0.057440	-0.048159
H390	H	1.035879	0.390774	0.285175
H391	H	0.363025	-0.357345	-0.314280
H392	H	0.696358	-0.024012	0.019054
H393	H	1.029692	0.309322	0.352387
H394	H	0.421811	-0.317432	-0.317209
H395	H	0.755144	0.015901	0.016125
H396	H	1.088478	0.349234	0.349458
C397	C	0.843741	-0.292489	-0.914634
C398	C	1.177074	0.040844	-0.581300
C399	C	1.510408	0.374177	-0.247967
C400	C	0.887192	-0.321967	-0.946029
C401	C	1.220525	0.011366	-0.612696
C402	C	1.553858	0.344700	-0.279363
H403	H	0.814337	-0.315189	-0.896112
H404	H	1.147670	0.018145	-0.562779
H405	H	1.481004	0.351478	-0.229446
H406	H	0.869529	-0.272590	-0.890560
H407	H	1.202863	0.060743	-0.557227
H408	H	1.536196	0.394077	-0.223893
H409	H	0.817880	-0.269703	-0.935940
H410	H	1.151213	0.063630	-0.602607
H411	H	1.484547	0.396964	-0.269273
H412	H	0.913056	-0.344751	-0.924722
H413	H	1.246390	-0.011417	-0.591389
H414	H	1.579723	0.321916	-0.258056
H415	H	0.861400	-0.341875	-0.970106
H416	H	1.194734	-0.008542	-0.636772
H417	H	1.528067	0.324792	-0.303439
H418	H	1.056565	-0.549966	-0.191296
H419	H	1.389898	-0.216633	0.142037
H420	H	1.723232	0.116701	0.475370
C421	C	0.185660	-0.292796	-0.355634
C422	C	0.518993	0.040537	-0.022300
C423	C	0.852326	0.373871	0.311033
C424	C	0.226260	-0.322235	-0.322000
C425	C	0.559594	0.011098	0.011333
C426	C	0.892927	0.344432	0.344667
H427	H	0.161673	-0.315523	-0.378288
H428	H	0.495006	0.017810	-0.044955
H429	H	0.828339	0.351144	0.288379
H430	H	0.154503	-0.272859	-0.335759
H431	H	0.487837	0.060474	-0.002426
H432	H	0.821170	0.393808	0.330907
H433	H	0.213272	-0.270047	-0.375670
H434	H	0.546605	0.063286	-0.042337
H435	H	0.879939	0.396619	0.290997
H436	H	0.198647	-0.344981	-0.301961
H437	H	0.531981	-0.011648	0.031372
H438	H	0.865314	0.321686	0.364706
H439	H	0.257420	-0.342181	-0.341876
H440	H	0.590754	-0.008848	-0.008543
H441	H	0.924087	0.324486	0.324790
H442	H	0.856149	-0.345911	-0.702619
H443	H	1.189482	-0.012578	-0.369286
H444	H	1.522815	0.320756	-0.035953
H445	H	1.056790	-1.052327	-0.191353
H446	H	1.390123	-0.718994	0.141981
H447	H	1.723456	-0.385661	0.475314
H448	H	0.899378	-0.550050	-0.312518
H449	H	1.232712	-0.216717	0.020815
H450	H	1.566045	0.116616	0.354149
C451	C	1.107022	-0.152354	-0.522820
C452	C	1.440355	0.180979	-0.189486
C453	C	1.773689	0.514312	0.143847
C454	C	1.069007	-0.181684	-0.558316
C455	C	1.402340	0.151650	-0.224983
C456	C	1.735674	0.484983	0.108350
H457	H	1.136431	-0.129663	-0.541346
H458	H	1.469765	0.203671	-0.208012
H459	H	1.803098	0.537004	0.125321
H460	H	1.077547	-0.132360	-0.501523
H461	H	1.410880	0.200974	-0.168190
H462	H	1.744213	0.534307	0.165143
H463	H	1.132878	-0.175151	-0.501522
H464	H	1.466212	0.158182	-0.168188
H465	H	1.799545	0.491515	0.165145
H466	H	1.043146	-0.158887	-0.579612
H467	H	1.376480	0.174447	-0.246278
H468	H	1.709813	0.507780	0.087055
H469	H	1.098486	-0.201680	-0.579622
H470	H	1.431819	0.131654	-0.246288
H471	H	1.765152	0.464987	0.087045
C472	C	0.357569	-0.192838	-0.130060
C473	C	0.690902	0.140495	0.203273
C474	C	1.024236	0.473828	0.536606
C475	C	0.374686	-0.181628	-0.181858
C476	C	0.708019	0.151706	0.151475
C477	C	1.041352	0.485039	0.484809
H478	H	0.381559	-0.170110	-0.107409
H479	H	0.714892	0.163223	0.225924
H480	H	1.048226	0.496557	0.559257
H481	H	0.310419	-0.188051	-0.125293
H482	H	0.643752	0.145282	0.208041
H483	H	0.977085	0.478615	0.541374
H484	H	0.369133	-0.227955	-0.122349
H485	H	0.702466	0.105378	0.210985
H486	H	1.035799	0.438712	0.544318
H487	H	0.363117	-0.146512	-0.189571
H488	H	0.696451	0.186822	0.143763
H489	H	1.029784	0.520155	0.477096
H490	H	0.421847	-0.186410	-0.186628
H491	H	0.755180	0.146923	0.146705
H492	H	1.088513	0.480257	0.480039
C493	C	1.150330	-0.729772	-0.119084
C494	C	1.483663	-0.396438	0.214250
C495	C	1.816996	-0.063105	0.547583
C496	C	1.112295	-0.694286	-0.148393
C497	C	1.445628	-0.360953	0.184941
C498	C	1.778962	-0.027620	0.518274
H499	H	1.179729	-0.711237	-0.096417
H500	H	1.513062	-0.377903	0.236916
H501	H	1.846396	-0.044570	0.570250
H502	H	1.120866	-0.751096	-0.099064
H503	H	1.454199	-0.417763	0.234269
H504	H	1.787533	-0.084430	0.567603
H505	H	1.176198	-0.751042	-0.141895
H506	H	1.509531	-0.417709	0.191438
H507	H	1.842864	-0.084375	0.524771
H508	H	1.086423	-0.673018	-0.125581
H509	H	1.419756	-0.339685	0.207752
H510	H	1.753090	-0.006352	0.541085
H511	H	1.141762	-0.672952	-0.168414
H512	H	1.475095	-0.339619	0.164919
H513	H	1.808429	-0.006286	0.498253
C514	C	0.858378	-0.407204	-0.796230
C515	C	1.191711	-0.073870	-0.462897
C516	C	1.525044	0.259463	-0.129563
C517	C	0.843825	-0.355423	-0.809442
C518	C	1.177158	-0.022089	-0.476109
C519	C	1.510492	0.311244	-0.142775
H520	H	0.828970	-0.429890	-0.814738
H521	H	1.162303	-0.096556	-0.481405
H522	H	1.495637	0.236777	-0.148072
H523	H	0.903839	-0.414858	-0.805193
H524	H	1.237172	-0.081525	-0.471860
H525	H	1.570505	0.251808	-0.138526
H526	H	0.852183	-0.411981	-0.759799
H527	H	1.185516	-0.078648	-0.426465
H528	H	1.518849	0.254685	-0.093132
H529	H	0.850025	-0.350644	-0.845873
H530	H	1.183358	-0.017311	-0.512540
H531	H	1.516692	0.316022	-0.179206
H532	H	0.798353	-0.347766	-0.800483
H533	H	1.131686	-0.014432	-0.467149
H534	H	1.465020	0.318901	-0.133816
C535	C	0.185637	-0.211087	-0.148234
C536	C	0.518970	0.122246	0.185100
C537	C	0.852303	0.455579	0.518433
C538	C	0.226308	-0.181641	-0.181862
C539	C	0.559641	0.151693	0.151471
C540	C	0.892975	0.485026	0.484805
H541	H	0.161668	-0.188366	-0.125579
H542	H	0.495001	0.144968	0.207754
H543	H	0.828334	0.478301	0.541088
H544	H	0.154465	-0.231027	-0.168112
H545	H	0.487798	0.102306	0.165222
H546	H	0.821132	0.435640	0.498555
H547	H	0.213199	-0.233834	-0.128197
H548	H	0.546532	0.099499	0.205136
H549	H	0.879866	0.432832	0.538469
H550	H	0.198745	-0.158896	-0.201901
H551	H	0.532079	0.174437	0.131432
H552	H	0.865412	0.507770	0.464766
H553	H	0.257484	-0.161692	-0.161982
H554	H	0.590817	0.171641	0.171351
H555	H	0.924150	0.504974	0.504685
C556	C	0.512560	-0.188696	-0.188898
C557	C	0.845893	0.144638	0.144435
C558	C	1.179227	0.477971	0.477769
C559	C	0.582071	-0.181621	-0.181848
C560	C	0.915404	0.151713	0.151485
C561	C	1.248737	0.485046	0.484819
H562	H	0.488586	-0.165972	-0.166248
H563	H	0.821919	0.167361	0.167085
H564	H	1.155253	0.500695	0.500419
H565	H	0.501001	-0.181098	-0.224038
H566	H	0.834334	0.152235	0.109295
H567	H	1.167667	0.485569	0.442628
H568	H	0.500951	-0.223815	-0.181180
H569	H	0.834284	0.109518	0.152154
H570	H	1.167618	0.442851	0.485487
H571	H	0.593681	-0.146502	-0.189570
H572	H	0.927014	0.186832	0.143763
H573	H	1.260347	0.520165	0.477097
H574	H	0.593635	-0.189215	-0.146699
H575	H	0.926968	0.144119	0.186634
H576	H	1.260301	0.477452	0.519967
C577	C	0.684519	-0.152233	-0.152537
C578	C	1.017853	0.181100	0.180797
C579	C	1.351186	0.514434	0.514130
C580	C	0.730459	-0.181621	-0.181832
C581	C	1.063792	0.151713	0.151501
C582	C	1.397125	0.485046	0.484835
H583	H	0.708513	-0.129512	-0.129881
H584	H	1.041846	0.203822	0.203452
H585	H	1.375180	0.537155	0.536786
H586	H	0.656978	-0.132267	-0.175353
H587	H	0.990311	0.201066	0.157980
H588	H	1.323644	0.534399	0.491313
H589	H	0.656920	-0.174991	-0.132501
H590	H	0.990253	0.158342	0.200833
H591	H	1.323586	0.491676	0.534166
H592	H	0.758055	-0.158863	-0.201871
H593	H	1.091389	0.174471	0.131462
H594	H	1.424722	0.507804	0.464796
H595	H	0.758012	-0.201588	-0.159012
H596	H	1.091345	0.131746	0.174321
H597	H	1.424679	0.465079	0.507654
H598	H	1.100003	-0.157739	-0.702667
H599	H	1.433337	0.175594	-0.369333
H600	H	1.766670	0.508927	-0.036000
H601	H	1.056744	-0.191089	-1.052895
H602	H	1.390078	0.142244	-0.719562
H603	H	1.723411	0.475578	-0.386229
C604	C	0.849193	-0.351290	-1.025133
C605	C	1.182526	-0.017957	-0.691800
C606	C	1.515859	0.315376	-0.358467
C607	C	0.887218	-0.321939	-1.060640
C608	C	1.220551	0.011394	-0.727306
C609	C	1.553884	0.344728	-0.393973
H610	H	0.819793	-0.373973	-1.043652
H611	H	1.153126	-0.040640	-0.710319
H612	H	1.486459	0.292693	-0.376986
H613	H	0.878662	-0.371295	-1.003840
H614	H	1.211996	-0.037962	-0.670507
H615	H	1.545329	0.295372	-0.337174
H616	H	0.823326	-0.328507	-1.003833
H617	H	1.156659	0.004826	-0.670500
H618	H	1.489993	0.338160	-0.337167
H619	H	0.913088	-0.344722	-1.081937
H620	H	1.246421	-0.011389	-0.748604
H621	H	1.579755	0.321944	-0.415271
H622	H	0.857744	-0.301933	-1.081942
H623	H	1.191077	0.031400	-0.748608
H624	H	1.524411	0.364734	-0.415275
H625	H	1.056747	-0.953262	-0.191337
H626	H	1.390080	-0.619928	0.141996
H627	H	1.723414	-0.286595	0.475330
C628	C	0.925265	-0.355631	-0.589708
C629	C	1.258598	-0.022298	-0.256375
C630	C	1.591931	0.311036	0.076958
C631	C	0.887124	-0.322062	-0.558305
C632	C	1.220457	0.011271	-0.224972
C633	C	1.553790	0.344604	0.108361
H634	H	0.895864	-0.378313	-0.608228
H635	H	1.229197	-0.044980	-0.274894
H636	H	1.562531	0.288354	0.058439
H637	H	0.951060	-0.335711	-0.613784
H638	H	1.284393	-0.002378	-0.280450
H639	H	1.617726	0.330956	0.052883
H640	H	0.954729	-0.375641	-0.568407
H641	H	1.288063	-0.042307	-0.235074
H642	H	1.621396	0.291026	0.098259
H643	H	0.857662	-0.302050	-0.579607
H644	H	1.190996	0.031284	-0.246273
H645	H	1.524329	0.364617	0.087060
H646	H	0.861317	-0.341984	-0.534227
H647	H	1.194650	-0.008651	-0.200894
H648	H	1.527984	0.324682	0.132440
H649	H	0.899604	-1.052388	-0.312564
H650	H	1.232937	-0.719054	0.020770
H651	H	1.566270	-0.385721	0.354103
C652	C	0.799919	-0.315145	-0.314908
C653	C	1.133252	0.018188	0.018425
C654	C	1.466585	0.351522	0.351759
C655	C	0.730407	-0.322216	-0.321960
C656	C	1.063741	0.011117	0.011373
C657	C	1.397074	0.344451	0.344706
H658	H	0.823891	-0.337872	-0.337555
H659	H	1.157225	-0.004538	-0.004222
H660	H	1.490558	0.328795	0.329111
H661	H	0.811531	-0.280031	-0.322624
H662	H	1.144865	0.053303	0.010710
H663	H	1.478198	0.386636	0.344043
H664	H	0.811475	-0.322746	-0.279763
H665	H	1.144809	0.010588	0.053571
H666	H	1.478142	0.343921	0.386904
H667	H	0.718850	-0.314611	-0.357105
H668	H	1.052183	0.018722	-0.023772
H669	H	1.385517	0.352055	0.309562
H670	H	0.718790	-0.357338	-0.314248
H671	H	1.052123	-0.024005	0.019085
H672	H	1.385457	0.309328	0.352418
C673	C	1.097808	-0.096408	-0.796291
C674	C	1.431141	0.236925	-0.462957
C675	C	1.764475	0.570259	-0.129624
C676	C	1.112367	-0.148183	-0.809492
C677	C	1.445700	0.185150	-0.476158
C678	C	1.779034	0.518483	-0.142825
H679	H	1.127221	-0.073714	-0.814810
H680	H	1.460555	0.259619	-0.481477
H681	H	1.793888	0.592952	-0.148144
H682	H	1.052350	-0.088751	-0.805247
H683	H	1.385683	0.244582	-0.471914
H684	H	1.719017	0.577916	-0.138580
H685	H	1.103991	-0.091645	-0.759862
H686	H	1.437324	0.241689	-0.426528
H687	H	1.770658	0.575022	-0.093195
H688	H	1.106179	-0.152948	-0.845920
H689	H	1.439513	0.180385	-0.512587
H690	H	1.772846	0.513719	-0.179254
H691	H	1.157836	-0.155843	-0.800539
H692	H	1.491169	0.177490	-0.467206
H693	H	1.824503	0.510823	-0.133872
C694	C	1.106883	-0.478609	-0.152451
C695	C	1.440216	-0.145275	0.180882
C696	C	1.773549	0.188058	0.514216
C697	C	1.068845	-0.443128	-0.181763
C698	C	1.402178	-0.109795	0.151570
C699	C	1.735512	0.223538	0.484903
H700	H	1.136274	-0.460070	-0.129781
H701	H	1.469607	-0.126737	0.203552
H702	H	1.802941	0.206597	0.536886
H703	H	1.077420	-0.499938	-0.132434
H704	H	1.410754	-0.166604	0.200899
H705	H	1.744087	0.166729	0.534232
H706	H	1.132759	-0.499875	-0.175260
H707	H	1.466093	-0.166542	0.158073
H708	H	1.799426	0.166791	0.491407
H709	H	1.042965	-0.421864	-0.158955
H710	H	1.376298	-0.088531	0.174379
H711	H	1.709631	0.244803	0.507712
H712	H	1.098311	-0.421790	-0.201782
H713	H	1.431644	-0.088457	0.131552
H714	H	1.764978	0.244876	0.464885
C715	C	1.155848	-0.840198	-0.177963
C716	C	1.489182	-0.506864	0.155371
C717	C	1.822515	-0.173531	0.488704
C718	C	1.112389	-0.808872	-0.148420
C719	C	1.445723	-0.475538	0.184913
C720	C	1.779056	-0.142205	0.518246
H721	H	1.185299	-0.858681	-0.155306
H722	H	1.518632	-0.525348	0.178027
H723	H	1.851965	-0.192015	0.511360
H724	H	1.130069	-0.864305	-0.197832
H725	H	1.463402	-0.530971	0.135501
H726	H	1.796736	-0.197638	0.468834
H727	H	1.181659	-0.818849	-0.200779
H728	H	1.514992	-0.485516	0.132554
H729	H	1.848326	-0.152183	0.465888
H730	H	1.086575	-0.830221	-0.125607
H731	H	1.419908	-0.496887	0.207727
H732	H	1.753242	-0.163554	0.541060
H733	H	1.138172	-0.784762	-0.128542
H734	H	1.471505	-0.451429	0.204792
H735	H	1.804838	-0.118095	0.538125
C736	C	0.849213	-0.981081	-0.351395
C737	C	1.182546	-0.647748	-0.018061
C738	C	1.515879	-0.314414	0.315272
C739	C	0.887216	-0.945563	-0.322077
C740	C	1.220549	-0.612229	0.011257
C741	C	1.553882	-0.278896	0.344590
H742	H	0.819802	-0.962572	-0.374061
H743	H	1.153135	-0.629238	-0.040727
H744	H	1.486469	-0.295905	0.292606
H745	H	0.878695	-1.002345	-0.371416
H746	H	1.212029	-0.669011	-0.038083
H747	H	1.545362	-0.335678	0.295251
H748	H	0.823358	-1.002409	-0.328589
H749	H	1.156692	-0.669076	0.004744
H750	H	1.490025	-0.335743	0.338078
H751	H	0.913074	-0.924237	-0.344882
H752	H	1.246407	-0.590903	-0.011549
H753	H	1.579741	-0.257570	0.321784
H754	H	0.857729	-0.924290	-0.302054
H755	H	1.191063	-0.590957	0.031279
H756	H	1.524396	-0.257623	0.364613
C757	C	0.896245	-0.315037	-0.389985
C758	C	1.229579	0.018297	-0.056652
C759	C	1.562912	0.351630	0.276681
C760	C	0.887103	-0.322090	-0.443675
C761	C	1.220437	0.011243	-0.110342
C762	C	1.553770	0.344576	0.222991
H763	H	0.866838	-0.337723	-0.371451
H764	H	1.200172	-0.004390	-0.038117
H765	H	1.533505	0.328944	0.295216
H766	H	0.941707	-0.322699	-0.381045
H767	H	1.275041	0.010635	-0.047711
H768	H	1.608374	0.343968	0.285622
H769	H	0.886378	-0.279905	-0.381048
H770	H	1.219712	0.053429	-0.047715
H771	H	1.553045	0.386762	0.285618
H772	H	0.896975	-0.357221	-0.452613
H773	H	1.230309	-0.023888	-0.119280
H774	H	1.563642	0.309445	0.214054
H775	H	0.841631	-0.314432	-0.452619
H776	H	1.174964	0.018901	-0.119286
H777	H	1.508298	0.352235	0.214047
