data_functionalizedCrystal
_audit_creation_method	'MofGen! by Chris Wilmer'
_symmetry_space_group_name_H-M	'P1'
_symmetry_Int_Tables_number	1
_symmetry_cell_setting	triclinic
loop_
_symmetry_equiv_pos_as_xyz
  x,y,z
_cell_length_a	29.839131
_cell_length_b	29.839134
_cell_length_c	29.839125
_cell_angle_alpha	89.978020
_cell_angle_beta	90.017709
_cell_angle_gamma	89.963719
loop_
_atom_site_label
_atom_site_type_symbol
_atom_site_fract_x
_atom_site_fract_y
_atom_site_fract_z
Zn1	Zn	-0.178978	-0.686720	0.254125
Zn2	Zn	0.154355	-0.353386	0.587458
Zn3	Zn	0.487689	-0.020053	0.920792
Zn4	Zn	-0.254090	-0.686652	0.178995
Zn5	Zn	0.079243	-0.353318	0.512328
Zn6	Zn	0.412577	-0.019985	0.845662
Zn7	Zn	-0.178968	-0.611602	0.178995
Zn8	Zn	0.154365	-0.278269	0.512328
Zn9	Zn	0.487699	0.055064	0.845661
Zn10	Zn	-0.254075	-0.611550	0.254083
Zn11	Zn	0.079258	-0.278217	0.587417
Zn12	Zn	0.412592	0.055117	0.920750
O13	O	-0.216528	-0.649131	0.216549
O14	O	0.116806	-0.315798	0.549883
O15	O	0.450139	0.017536	0.883216
O16	O	-0.188952	-0.749578	0.244176
O17	O	0.144381	-0.416244	0.577510
O18	O	0.477715	-0.082911	0.910843
O19	O	-0.244127	-0.676690	0.116128
O20	O	0.089206	-0.343356	0.449461
O21	O	0.422540	-0.010023	0.782794
O22	O	-0.116102	-0.621617	0.188978
O23	O	0.217231	-0.288284	0.522311
O24	O	0.550564	0.045050	0.855645
O25	O	-0.244137	-0.749528	0.188979
O26	O	0.089197	-0.416195	0.522312
O27	O	0.422530	-0.082861	0.855645
O28	O	-0.116109	-0.676805	0.244176
O29	O	0.217224	-0.343472	0.577509
O30	O	0.550557	-0.010139	0.910843
O31	O	-0.188935	-0.621551	0.116127
O32	O	0.144398	-0.288218	0.449461
O33	O	0.477731	0.045115	0.782794
O34	O	-0.188921	-0.548728	0.188938
O35	O	0.144413	-0.215395	0.522271
O36	O	0.477746	0.117938	0.855604
O37	O	-0.244111	-0.621528	0.316956
O38	O	0.089222	-0.288195	0.650289
O39	O	0.422556	0.045139	0.983623
O40	O	-0.244101	-0.548690	0.244105
O41	O	0.089232	-0.215357	0.577438
O42	O	0.422565	0.117977	0.910772
O43	O	-0.188937	-0.676755	0.316987
O44	O	0.144396	-0.343421	0.650320
O45	O	0.477729	-0.010088	0.983653
O46	O	-0.316955	-0.676639	0.188938
O47	O	0.016378	-0.343306	0.522272
O48	O	0.349712	-0.009972	0.855605
O49	O	-0.316944	-0.621462	0.244105
O50	O	0.016389	-0.288129	0.577439
O51	O	0.349723	0.045204	0.910772
C52	C	-0.333250	-0.649050	0.216527
C53	C	0.000083	-0.315717	0.549861
C54	C	0.333416	0.017617	0.883194
C55	C	-0.383185	-0.649056	0.216533
C56	C	-0.049851	-0.315723	0.549866
C57	C	0.283482	0.017610	0.883199
C58	C	-0.216509	-0.532408	0.216517
C59	C	0.116825	-0.199075	0.549850
C60	C	0.450158	0.134258	0.883184
C61	C	-0.216511	-0.482474	0.216514
C62	C	0.116822	-0.149141	0.549847
C63	C	0.450155	0.184193	0.883181
C64	C	-0.692821	-0.677914	0.187866
C65	C	-0.359488	-0.344580	0.521199
C66	C	-0.026155	-0.011247	0.854533
C67	C	-0.880494	-0.677969	0.187883
C68	C	-0.547161	-0.344636	0.521217
C69	C	-0.213828	-0.011303	0.854550
O70	O	-0.904753	-0.702441	0.163493
O71	O	-0.571420	-0.369107	0.496826
O72	O	-0.238087	-0.035774	0.830159
N73	N	-0.903970	-0.649224	0.216583
N74	N	-0.570636	-0.315891	0.549917
N75	N	-0.237303	0.017443	0.883250
C76	C	-0.880524	-0.620465	0.245283
C77	C	-0.547191	-0.287132	0.578616
C78	C	-0.213857	0.046201	0.911950
O79	O	-0.904798	-0.596020	0.269698
O80	O	-0.571464	-0.262687	0.603031
O81	O	-0.238131	0.070646	0.936365
C82	C	-0.692852	-0.620412	0.245268
C83	C	-0.359519	-0.287079	0.578601
C84	C	-0.026185	0.046254	0.911934
C85	C	-0.669379	-0.649156	0.216563
C86	C	-0.336045	-0.315823	0.549896
C87	C	-0.002712	0.017511	0.883229
C88	C	-0.669348	-0.706656	0.159164
C89	C	-0.336015	-0.373322	0.492497
C90	C	-0.002681	-0.039989	0.825830
C91	C	-0.622433	-0.706640	0.159158
C92	C	-0.289099	-0.373306	0.492491
C93	C	0.044234	-0.039973	0.825824
C94	C	-0.598990	-0.677882	0.187854
C95	C	-0.265657	-0.344549	0.521188
C96	C	0.067676	-0.011215	0.854521
C97	C	-0.622463	-0.649140	0.216557
C98	C	-0.289130	-0.315807	0.549890
C99	C	0.044203	0.017526	0.883223
C100	C	-0.669407	-0.591656	0.273969
C101	C	-0.336074	-0.258323	0.607303
C102	C	-0.002740	0.075011	0.940636
C103	C	-0.622486	-0.591646	0.273964
C104	C	-0.289153	-0.258313	0.607297
C105	C	0.044181	0.075021	0.940630
C106	C	-0.599013	-0.620390	0.245259
C107	C	-0.265680	-0.287057	0.578592
C108	C	0.067654	0.046277	0.911925
C109	C	-0.552106	-0.620367	0.245248
C110	C	-0.218772	-0.287033	0.578581
C111	C	0.114561	0.046300	0.911914
N112	N	-0.528630	-0.649112	0.216548
N113	N	-0.195297	-0.315778	0.549881
N114	N	0.138037	0.017555	0.883214
C115	C	-0.552072	-0.677869	0.187851
C116	C	-0.218739	-0.344536	0.521184
C117	C	0.114594	-0.011203	0.854518
C118	C	-0.979055	-0.620494	0.245289
C119	C	-0.645721	-0.287161	0.578622
C120	C	-0.312388	0.046172	0.911955
C121	C	-1.025973	-0.620507	0.245292
C122	C	-0.692639	-0.287174	0.578625
C123	C	-0.359306	0.046160	0.911959
C124	C	-1.025939	-0.678012	0.187893
C125	C	-0.692606	-0.344678	0.521226
C126	C	-0.359273	-0.011345	0.854559
C127	C	-0.979021	-0.677996	0.187887
C128	C	-0.645687	-0.344663	0.521221
C129	C	-0.312354	-0.011330	0.854554
C130	C	-0.955579	-0.649239	0.216589
C131	C	-0.622246	-0.315906	0.549922
C132	C	-0.288913	0.017427	0.883255
C133	C	-0.453547	-0.677834	0.187841
C134	C	-0.120213	-0.344500	0.521174
C135	C	0.213120	-0.011167	0.854507
C136	C	-0.406627	-0.677814	0.187836
C137	C	-0.073294	-0.344481	0.521169
C138	C	0.260040	-0.011147	0.854503
C139	C	-0.406664	-0.620311	0.245237
C140	C	-0.073331	-0.286978	0.578570
C141	C	0.260002	0.046356	0.911903
C142	C	-0.453580	-0.620329	0.245240
C143	C	-0.120246	-0.286996	0.578573
C144	C	0.213087	0.046338	0.911907
C145	C	-0.477020	-0.649094	0.216540
C146	C	-0.143686	-0.315761	0.549874
C147	C	0.189647	0.017573	0.883207
O148	O	-0.527818	-0.595912	0.269629
O149	O	-0.194484	-0.262578	0.602962
O150	O	0.138849	0.070755	0.936296
O151	O	-0.527791	-0.702318	0.163447
O152	O	-0.194457	-0.368984	0.496780
O153	O	0.138876	-0.035651	0.830114
C154	C	-0.739737	-0.677930	0.187872
C155	C	-0.406403	-0.344596	0.521205
C156	C	-0.073070	-0.011263	0.854538
C157	C	-0.763210	-0.649188	0.216574
C158	C	-0.429876	-0.315855	0.549907
C159	C	-0.096543	0.017479	0.883241
C160	C	-0.739767	-0.620430	0.245271
C161	C	-0.406434	-0.287097	0.578604
C162	C	-0.073101	0.046236	0.911937
C163	C	-0.810128	-0.649200	0.216578
C164	C	-0.476794	-0.315867	0.549911
C165	C	-0.143461	0.017466	0.883244
C166	C	-0.833570	-0.677958	0.187881
C167	C	-0.500237	-0.344625	0.521214
C168	C	-0.166903	-0.011291	0.854548
C169	C	-0.810094	-0.706703	0.159181
C170	C	-0.476761	-0.373370	0.492514
C171	C	-0.143428	-0.040037	0.825848
C172	C	-0.763179	-0.706687	0.159175
C173	C	-0.429846	-0.373354	0.492508
C174	C	-0.096512	-0.040021	0.825842
C175	C	-0.763243	-0.591685	0.273971
C176	C	-0.429910	-0.258352	0.607304
C177	C	-0.096576	0.074982	0.940637
C178	C	-0.810158	-0.591703	0.273974
C179	C	-0.476825	-0.258370	0.607307
C180	C	-0.143492	0.074964	0.940640
C181	C	-0.833601	-0.620461	0.245277
C182	C	-0.500267	-0.287127	0.578611
C183	C	-0.166934	0.046206	0.911944
C184	C	-0.216524	-0.649143	0.333728
C185	C	0.116810	-0.315810	0.667061
C186	C	0.450143	0.017524	1.000395
C187	C	-0.216522	-0.649148	0.383662
C188	C	0.116811	-0.315815	0.716996
C189	C	0.450145	0.017518	1.050329
C190	C	-0.099349	-0.649225	0.216582
C191	C	0.233984	-0.315891	0.549915
C192	C	0.567317	0.017442	0.883248
C193	C	-0.049415	-0.649265	0.216595
C194	C	0.283918	-0.315931	0.549929
C195	C	0.617252	0.017402	0.883262
C196	C	-0.216547	-0.766309	0.216582
C197	C	0.116786	-0.432976	0.549916
C198	C	0.450120	-0.099643	0.883249
C199	C	-0.216555	-0.816244	0.216596
C200	C	0.116778	-0.482910	0.549930
C201	C	0.450111	-0.149577	0.883263
C202	C	-0.245303	-0.172820	0.245240
C203	C	0.088031	0.160513	0.578573
C204	C	0.421364	0.493847	0.911907
C205	C	-0.245315	0.014853	0.245260
C206	C	0.088018	0.348186	0.578593
C207	C	0.421351	0.681520	0.911927
O208	O	-0.269774	0.039127	0.269665
O209	O	0.063560	0.372460	0.602998
O210	O	0.396893	0.705793	0.936331
N211	N	-0.216544	0.038311	0.216583
N212	N	0.116789	0.371644	0.549917
N213	N	0.450123	0.704978	0.883250
C214	C	-0.187766	0.014848	0.187902
C215	C	0.145568	0.348181	0.521235
C216	C	0.478901	0.681515	0.854568
O217	O	-0.163291	0.039107	0.163514
O218	O	0.170042	0.372440	0.496848
O219	O	0.503376	0.705774	0.830181
C220	C	-0.187751	-0.172824	0.187884
C221	C	0.145582	0.160509	0.521218
C222	C	0.478916	0.493843	0.854551
C223	C	-0.216527	-0.196280	0.216560
C224	C	0.116806	0.137054	0.549893
C225	C	0.450139	0.470387	0.883226
C226	C	-0.274076	-0.196276	0.273913
C227	C	0.059257	0.137058	0.607247
C228	C	0.392590	0.470391	0.940580
C229	C	-0.274075	-0.243191	0.273906
C230	C	0.059259	0.090142	0.607240
C231	C	0.392592	0.423475	0.940573
C232	C	-0.245299	-0.266651	0.245226
C233	C	0.088034	0.066682	0.578559
C234	C	0.421367	0.400016	0.911893
C235	C	-0.216526	-0.243195	0.216553
C236	C	0.116808	0.090138	0.549886
C237	C	0.450141	0.423471	0.883219
C238	C	-0.158971	-0.196286	0.159205
C239	C	0.174363	0.137047	0.492539
C240	C	0.507696	0.470380	0.825872
C241	C	-0.158969	-0.243207	0.159204
C242	C	0.174365	0.090126	0.492538
C243	C	0.507698	0.423459	0.825871
C244	C	-0.187745	-0.266663	0.187880
C245	C	0.145588	0.066670	0.521213
C246	C	0.478922	0.400004	0.854546
C247	C	-0.187749	-0.313570	0.187865
C248	C	0.145585	0.019763	0.521199
C249	C	0.478918	0.353096	0.854532
N250	N	-0.216520	-0.337029	0.216542
N251	N	0.116814	-0.003695	0.549875
N252	N	0.450147	0.329638	0.883209
C253	C	-0.245295	-0.313569	0.245222
C254	C	0.088038	0.019765	0.578556
C255	C	0.421372	0.353098	0.911889
C256	C	-0.187776	0.113379	0.187912
C257	C	0.145557	0.446712	0.521246
C258	C	0.478891	0.780045	0.854579
C259	C	-0.187780	0.160297	0.187916
C260	C	0.145553	0.493630	0.521249
C261	C	0.478887	0.826963	0.854583
C262	C	-0.245329	0.160298	0.245275
C263	C	0.088004	0.493632	0.578608
C264	C	0.421337	0.826965	0.911942
C265	C	-0.245327	0.113380	0.245269
C266	C	0.088006	0.446713	0.578602
C267	C	0.421339	0.780046	0.911935
C268	C	-0.216547	0.089921	0.216589
C269	C	0.116786	0.423254	0.549922
C270	C	0.450119	0.756587	0.883256
C271	C	-0.245290	-0.412095	0.245205
C272	C	0.088044	-0.078761	0.578538
C273	C	0.421377	0.254572	0.911872
C274	C	-0.245287	-0.459014	0.245194
C275	C	0.088047	-0.125681	0.578528
C276	C	0.421380	0.207652	0.911861
C277	C	-0.187736	-0.459012	0.187837
C278	C	0.145597	-0.125678	0.521170
C279	C	0.478931	0.207655	0.854504
C280	C	-0.187740	-0.412096	0.187846
C281	C	0.145593	-0.078763	0.521179
C282	C	0.478926	0.254570	0.854513
C283	C	-0.216519	-0.388639	0.216534
C284	C	0.116815	-0.055306	0.549867
C285	C	0.450148	0.278028	0.883200
O286	O	-0.163299	-0.337873	0.163477
O287	O	0.170034	-0.004540	0.496810
O288	O	0.503367	0.328794	0.830144
O289	O	-0.269759	-0.337836	0.269613
O290	O	0.063574	-0.004502	0.602946
O291	O	0.396908	0.328831	0.936280
C292	C	-0.245304	-0.125905	0.245247
C293	C	0.088029	0.207429	0.578580
C294	C	0.421362	0.540762	0.911914
C295	C	-0.216531	-0.102449	0.216574
C296	C	0.116803	0.230884	0.549907
C297	C	0.450136	0.564218	0.883240
C298	C	-0.187755	-0.125909	0.187893
C299	C	0.145578	0.207425	0.521227
C300	C	0.478911	0.540758	0.854560
C301	C	-0.216535	-0.055531	0.216577
C302	C	0.116798	0.277802	0.549911
C303	C	0.450132	0.611136	0.883244
C304	C	-0.245310	-0.032071	0.245258
C305	C	0.088023	0.301262	0.578591
C306	C	0.421356	0.634595	0.911924
C307	C	-0.274082	-0.055529	0.273934
C308	C	0.059252	0.277804	0.607268
C309	C	0.392585	0.611137	0.940601
C310	C	-0.274080	-0.102445	0.273927
C311	C	0.059253	0.230888	0.607261
C312	C	0.392587	0.564222	0.940594
C313	C	-0.158984	-0.102451	0.159217
C314	C	0.174349	0.230883	0.492550
C315	C	0.507682	0.564216	0.825883
C316	C	-0.158989	-0.055535	0.159226
C317	C	0.174345	0.277798	0.492559
C318	C	0.507678	0.611132	0.825892
C319	C	-0.187764	-0.032075	0.187906
C320	C	0.145569	0.301258	0.521239
C321	C	0.478903	0.634591	0.854573
C322	C	-0.216499	-0.649145	0.099827
C323	C	0.116834	-0.315811	0.433160
C324	C	0.450167	0.017522	0.766494
C325	C	-0.216374	-0.649227	0.049893
C326	C	0.116959	-0.315893	0.383226
C327	C	0.450292	0.017440	0.716560
C328	C	-0.187718	-0.677935	0.693325
C329	C	0.145615	-0.344602	1.026658
C330	C	0.478949	-0.011268	1.359991
C331	C	-0.187680	-0.677957	0.880998
C332	C	0.145654	-0.344624	1.214331
C333	C	0.478987	-0.011291	1.547665
O334	O	-0.163232	-0.702399	0.905279
O335	O	0.170101	-0.369066	1.238612
O336	O	0.503435	-0.035733	1.571946
N337	N	-0.216402	-0.649208	0.904448
N338	N	0.116932	-0.315875	1.237781
N339	N	0.450265	0.017459	1.571114
C340	C	-0.245133	-0.620449	0.880976
C341	C	0.088200	-0.287115	1.214310
C342	C	0.421533	0.046218	1.547643
O343	O	-0.269559	-0.595993	0.905228
O344	O	0.063774	-0.262659	1.238561
O345	O	0.397108	0.070674	1.571895
C346	C	-0.245169	-0.620424	0.693304
C347	C	0.088164	-0.287091	1.026637
C348	C	0.421498	0.046242	1.359971
C349	C	-0.216448	-0.649179	0.669857
C350	C	0.116885	-0.315846	1.003190
C351	C	0.450218	0.017488	1.336523
C352	C	-0.158999	-0.706687	0.669877
C353	C	0.174334	-0.373354	1.003211
C354	C	0.507667	-0.040020	1.336544
C355	C	-0.159011	-0.706683	0.622962
C356	C	0.174323	-0.373349	0.956295
C357	C	0.507656	-0.040016	1.289629
C358	C	-0.187741	-0.677927	0.599494
C359	C	0.145592	-0.344593	0.932827
C360	C	0.478926	-0.011260	1.266160
C361	C	-0.216460	-0.649175	0.622941
C362	C	0.116874	-0.315842	0.956274
C363	C	0.450207	0.017492	1.289608
C364	C	-0.273898	-0.591663	0.669833
C365	C	0.059435	-0.258330	1.003167
C366	C	0.392769	0.075003	1.336500
C367	C	-0.273903	-0.591659	0.622912
C368	C	0.059430	-0.258326	0.956246
C369	C	0.392763	0.075008	1.289579
C370	C	-0.245183	-0.620414	0.599465
C371	C	0.088151	-0.287080	0.932798
C372	C	0.421484	0.046253	1.266132
C373	C	-0.245202	-0.620415	0.552558
C374	C	0.088132	-0.287081	0.885891
C375	C	0.421465	0.046252	1.219224
N376	N	-0.216480	-0.649164	0.529108
N377	N	0.116854	-0.315831	0.862441
N378	N	0.450187	0.017502	1.195774
C379	C	-0.187749	-0.677920	0.552576
C380	C	0.145584	-0.344587	0.885909
C381	C	0.478917	-0.011254	1.219243
C382	C	-0.245113	-0.620464	0.979507
C383	C	0.088220	-0.287131	1.312840
C384	C	0.421554	0.046203	1.646173
C385	C	-0.245105	-0.620471	1.026425
C386	C	0.088229	-0.287137	1.359758
C387	C	0.421562	0.046196	1.693091
C388	C	-0.187650	-0.677979	1.026443
C389	C	0.145683	-0.344645	1.359777
C390	C	0.479016	-0.011312	1.693110
C391	C	-0.187661	-0.677974	0.979524
C392	C	0.145672	-0.344641	1.312858
C393	C	0.479005	-0.011308	1.646191
C394	C	-0.216391	-0.649214	0.956057
C395	C	0.116942	-0.315880	1.289390
C396	C	0.450276	0.017453	1.622724
C397	C	-0.187776	-0.677910	0.454050
C398	C	0.145557	-0.344576	0.787383
C399	C	0.478891	-0.011243	1.120717
C400	C	-0.187792	-0.677904	0.407130
C401	C	0.145542	-0.344571	0.740464
C402	C	0.478875	-0.011238	1.073797
C403	C	-0.245244	-0.620395	0.407116
C404	C	0.088089	-0.287061	0.740449
C405	C	0.421423	0.046272	1.073783
C406	C	-0.245230	-0.620401	0.454032
C407	C	0.088103	-0.287068	0.787365
C408	C	0.421436	0.046265	1.120698
C409	C	-0.216493	-0.649161	0.477497
C410	C	0.116840	-0.315827	0.810831
C411	C	0.450174	0.017506	1.144164
O412	O	-0.269633	-0.595982	0.528248
O413	O	0.063700	-0.262649	0.861581
O414	O	0.397034	0.070685	1.194914
O415	O	-0.163320	-0.702366	0.528316
O416	O	0.170013	-0.369032	0.861650
O417	O	0.503346	-0.035699	1.194983
C418	C	-0.187706	-0.677939	0.740240
C419	C	0.145627	-0.344606	1.073574
C420	C	0.478960	-0.011273	1.406907
C421	C	-0.216425	-0.649187	0.763688
C422	C	0.116908	-0.315854	1.097021
C423	C	0.450242	0.017479	1.430354
C424	C	-0.245155	-0.620431	0.740219
C425	C	0.088178	-0.287098	1.073553
C426	C	0.421511	0.046235	1.406886
C427	C	-0.216417	-0.649194	0.810605
C428	C	0.116917	-0.315861	1.143939
C429	C	0.450250	0.017473	1.477272
C430	C	-0.187686	-0.677950	0.834074
C431	C	0.145647	-0.344617	1.167407
C432	C	0.478980	-0.011283	1.500740
C433	C	-0.158964	-0.706699	0.810624
C434	C	0.174369	-0.373366	1.143957
C435	C	0.507702	-0.040033	1.477291
C436	C	-0.158976	-0.706695	0.763708
C437	C	0.174357	-0.373362	1.097042
C438	C	0.507691	-0.040029	1.430375
C439	C	-0.273877	-0.591682	0.763669
C440	C	0.059456	-0.258349	1.097002
C441	C	0.392789	0.074985	1.430336
C442	C	-0.273864	-0.591689	0.810585
C443	C	0.059470	-0.258355	1.143918
C444	C	0.392803	0.074978	1.477251
C445	C	-0.245133	-0.620445	0.834053
C446	C	0.088200	-0.287111	1.167386
C447	C	0.421533	0.046222	1.500719
H448	H	-0.387517	-0.701220	0.164459
H449	H	-0.054183	-0.367887	0.497793
H450	H	0.279150	-0.034554	0.831126
H451	H	-1.045034	-0.701427	0.164527
H452	H	-0.711701	-0.368094	0.497860
H453	H	-0.378367	-0.034761	0.831194
H454	H	-0.387570	-0.596895	0.268600
H455	H	-0.054237	-0.263562	0.601933
H456	H	0.279097	0.069771	0.935267
H457	H	-0.297506	-0.262285	0.297258
H458	H	0.035827	0.071049	0.630591
H459	H	0.369160	0.404382	0.963924
Cl460	Cl	-0.310023	-0.555500	0.593413
Cl461	Cl	0.023311	-0.222167	0.926747
Cl462	Cl	0.356644	0.111167	1.260080
H463	H	-0.268759	0.179407	0.268628
H464	H	0.064574	0.512740	0.601961
H465	H	0.397907	0.846074	0.935294
Cl466	Cl	-0.151608	0.189778	0.151860
Cl467	Cl	0.181725	0.523111	0.485193
Cl468	Cl	0.515058	0.856445	0.818526
Cl469	Cl	-0.733677	-0.742826	0.123089
Cl470	Cl	-0.400344	-0.409493	0.456422
Cl471	Cl	-0.067010	-0.076160	0.789755
Cl472	Cl	-1.055476	-0.584365	0.281375
Cl473	Cl	-0.722142	-0.251032	0.614708
Cl474	Cl	-0.388809	0.082302	0.948041
Cl475	Cl	-0.122810	-0.026054	0.123172
Cl476	Cl	0.210523	0.307280	0.456505
Cl477	Cl	0.543857	0.640613	0.789838
Cl478	Cl	-0.310257	-0.166792	0.309973
Cl479	Cl	0.023077	0.166541	0.643307
Cl480	Cl	0.356410	0.499875	0.976640
Cl481	Cl	-0.281359	-0.584245	0.377604
Cl482	Cl	0.051975	-0.250911	0.710938
Cl483	Cl	0.385308	0.082422	1.044271
Cl484	Cl	-0.151592	0.083894	0.151854
Cl485	Cl	0.181742	0.417227	0.485187
Cl486	Cl	0.515075	0.750561	0.818520
H487	H	-0.268721	-0.478110	0.268545
H488	H	0.064612	-0.144776	0.601879
H489	H	0.397945	0.188557	0.935212
Cl490	Cl	-0.309976	-0.555539	0.840055
Cl491	Cl	0.023357	-0.222206	1.173389
Cl492	Cl	0.356690	0.111128	1.506722
H493	H	-0.135529	-0.262305	0.135852
H494	H	0.197804	0.071028	0.469185
H495	H	0.531137	0.404362	0.802519
Cl496	Cl	-0.698810	-0.742813	0.123083
Cl497	Cl	-0.365477	-0.409480	0.456416
Cl498	Cl	-0.032143	-0.076147	0.789750
H499	H	-0.164309	-0.478121	0.164485
H500	H	0.169024	-0.144788	0.497818
H501	H	0.502358	0.188545	0.831152
H502	H	-0.744160	-0.568268	0.297340
H503	H	-0.410826	-0.234934	0.630673
H504	H	-0.077493	0.098399	0.964006
Cl505	Cl	-0.122882	-0.742848	0.699372
Cl506	Cl	0.210452	-0.409515	1.032705
Cl507	Cl	0.543785	-0.076182	1.366038
H508	H	-0.603402	-0.568229	0.297337
H509	H	-0.270069	-0.234896	0.630670
H510	H	0.063264	0.098438	0.964004
Cl511	Cl	-0.151646	-0.714062	0.483543
Cl512	Cl	0.181687	-0.380729	0.816876
Cl513	Cl	0.515020	-0.047396	1.150209
H514	H	-0.135588	-0.730110	0.744622
H515	H	0.197745	-0.396777	1.077955
H516	H	0.531078	-0.063443	1.411288
Cl517	Cl	-0.151571	-0.382608	0.151790
Cl518	Cl	0.181762	-0.049275	0.485123
Cl519	Cl	0.515096	0.284058	0.818456
Cl520	Cl	-0.281503	0.083897	0.281320
Cl521	Cl	0.051830	0.417231	0.614653
Cl522	Cl	0.385163	0.750564	0.947986
Cl523	Cl	-0.122805	-0.131936	0.123158
Cl524	Cl	0.210529	0.201398	0.456492
Cl525	Cl	0.543862	0.534731	0.789825
H526	H	-0.829189	-0.730117	0.135814
H527	H	-0.495856	-0.396784	0.469147
H528	H	-0.162523	-0.063451	0.802481
Cl529	Cl	-0.483090	-0.584184	0.281317
Cl530	Cl	-0.149756	-0.250851	0.614651
Cl531	Cl	0.183577	0.082482	0.947984
Cl532	Cl	-0.949592	-0.584338	0.281373
Cl533	Cl	-0.616259	-0.251004	0.614706
Cl534	Cl	-0.282925	0.082329	0.948040
Cl535	Cl	-0.151553	-0.714123	0.950053
Cl536	Cl	0.181780	-0.380790	1.283386
Cl537	Cl	0.515114	-0.047456	1.616719
H538	H	-0.297512	-0.121538	0.297278
H539	H	0.035821	0.211795	0.630611
H540	H	0.369154	0.545128	0.963945
Cl541	Cl	-0.281469	-0.382613	0.281269
Cl542	Cl	0.051864	-0.049279	0.614603
Cl543	Cl	0.385197	0.284054	0.947936
H544	H	-0.297513	-0.036420	0.297286
H545	H	0.035820	0.296913	0.630619
H546	H	0.369154	0.630246	0.963952
Cl547	Cl	-0.839662	-0.555564	0.310064
Cl548	Cl	-0.506328	-0.222230	0.643397
Cl549	Cl	-0.172995	0.111103	0.976730
Cl550	Cl	-0.151532	-0.714128	1.055955
Cl551	Cl	0.181802	-0.380795	1.389288
Cl552	Cl	0.515135	-0.047462	1.722621
H553	H	-0.135539	-0.177197	0.135854
H554	H	0.197794	0.156137	0.469187
H555	H	0.531128	0.489470	0.802520
H556	H	-0.688511	-0.568248	0.297342
H557	H	-0.355178	-0.234914	0.630675
H558	H	-0.021844	0.098419	0.964009
H559	H	-0.268621	-0.596991	0.473123
H560	H	0.064712	-0.263658	0.806457
H561	H	0.398045	0.069675	1.139790
H562	H	-0.135573	-0.730115	0.829740
H563	H	0.197761	-0.396782	1.163073
H564	H	0.531094	-0.063448	1.496407
H565	H	-0.959912	-0.701402	0.164514
H566	H	-0.626578	-0.368069	0.497847
H567	H	-0.293245	-0.034736	0.831180
H568	H	-0.164403	-0.701321	0.388042
H569	H	0.168930	-0.367988	0.721375
H570	H	0.502263	-0.034655	1.054708
Cl571	Cl	-0.592931	-0.742784	0.123076
Cl572	Cl	-0.259597	-0.409450	0.456410
Cl573	Cl	0.073736	-0.076117	0.789743
Cl574	Cl	-0.122899	-0.742830	0.593492
Cl575	Cl	0.210434	-0.409497	0.926826
Cl576	Cl	0.543767	-0.076164	1.260159
Cl577	Cl	-0.281219	-0.584327	1.055895
Cl578	Cl	0.052114	-0.250994	1.389229
Cl579	Cl	0.385447	0.082339	1.722562
H580	H	-0.297274	-0.568265	0.744566
H581	H	0.036059	-0.234932	1.077899
H582	H	0.369393	0.098401	1.411233
H583	H	-0.268511	-0.597044	0.960404
H584	H	0.064822	-0.263711	1.293737
H585	H	0.398156	0.069623	1.627071
H586	H	-0.472626	-0.701258	0.164472
H587	H	-0.139293	-0.367924	0.497805
H588	H	0.194041	-0.034591	0.831138
Cl589	Cl	-0.310008	-0.555514	0.699298
Cl590	Cl	0.023326	-0.222180	1.032632
Cl591	Cl	0.356659	0.111153	1.365965
