data_functionalizedCrystal
_audit_creation_method	'MofGen! by Chris Wilmer'
_symmetry_space_group_name_H-M	'P1'
_symmetry_Int_Tables_number	1
_symmetry_cell_setting	triclinic
loop_
_symmetry_equiv_pos_as_xyz
  x,y,z
_cell_length_a	19.121063
_cell_length_b	16.959455
_cell_length_c	16.959447
_cell_angle_alpha	90.015228
_cell_angle_beta	92.406624
_cell_angle_gamma	87.536243
loop_
_atom_site_label
_atom_site_type_symbol
_atom_site_fract_x
_atom_site_fract_y
_atom_site_fract_z
Zn1	Zn	-0.279697	-1.194913	-0.460333
Zn2	Zn	0.220303	-0.694913	0.039667
Zn3	Zn	-0.397157	-1.189178	-0.333783
Zn4	Zn	0.102843	-0.689178	0.166217
Zn5	Zn	-0.279714	-1.062741	-0.328169
Zn6	Zn	0.220286	-0.562741	0.171831
Zn7	Zn	-0.397100	-1.057052	-0.465917
Zn8	Zn	0.102900	-0.557052	0.034083
O9	O	-0.338417	-1.125971	-0.397050
O10	O	0.161583	-0.625971	0.102950
O11	O	-0.295294	-1.304762	-0.443558
O12	O	0.204706	-0.804762	0.056442
O13	O	-0.381609	-1.172387	-0.222429
O14	O	0.118391	-0.672387	0.277571
O15	O	-0.181428	-1.085054	-0.341014
O16	O	0.318572	-0.585054	0.158986
O17	O	-0.381592	-1.300549	-0.350583
O18	O	0.118408	-0.800549	0.149417
O19	O	-0.181415	-1.182161	-0.438114
O20	O	0.318585	-0.682161	0.061886
O21	O	-0.295324	-1.079494	-0.218304
O22	O	0.204676	-0.579494	0.281696
O23	O	-0.295269	-0.951376	-0.346429
O24	O	0.204731	-0.451376	0.153571
O25	O	-0.381495	-1.075358	-0.575786
O26	O	0.118505	-0.575358	-0.075786
O27	O	-0.381512	-0.947196	-0.447632
O28	O	0.118488	-0.447196	0.052368
O29	O	-0.295239	-1.176645	-0.571683
O30	O	0.204761	-0.676645	-0.071683
O31	O	-0.495433	-1.166871	-0.355998
O32	O	0.004567	-0.666871	0.144002
O33	O	-0.495392	-1.069798	-0.453076
O34	O	0.004608	-0.569798	0.046924
C35	C	-0.338387	-0.920606	-0.397028
C36	C	0.161613	-0.420606	0.102972
C37	C	-0.338391	-0.832749	-0.397037
C38	C	0.161609	-0.332749	0.102963
C39	C	-0.293451	-0.463427	-0.344446
C40	C	0.206549	0.036573	0.155554
C41	C	-0.383396	-0.459117	-0.449680
C42	C	0.116604	0.040883	0.050320
C43	C	-0.383389	-0.541663	-0.449676
C44	C	0.116611	-0.041663	0.050324
C45	C	-0.338413	-0.585095	-0.397055
C46	C	0.161587	-0.085095	0.102945
C47	C	-0.293444	-0.545981	-0.344439
C48	C	0.206556	-0.045981	0.155561
C49	C	-0.428361	-0.580783	-0.502286
C50	C	0.071639	-0.080783	-0.002286
C51	C	-0.428356	-0.663335	-0.502283
C52	C	0.071644	-0.163335	-0.002283
C53	C	-0.383376	-0.706768	-0.449666
C54	C	0.116624	-0.206768	0.050334
C55	C	-0.338405	-0.667649	-0.397048
C56	C	0.161595	-0.167649	0.102952
C57	C	-0.293429	-0.711081	-0.344428
C58	C	0.206571	-0.211081	0.155572
C59	C	-0.248454	-0.671964	-0.291813
C60	C	0.251546	-0.171964	0.208187
C61	C	-0.248464	-0.589415	-0.291822
C62	C	0.251536	-0.089415	0.208178
C63	C	-0.383367	-0.789317	-0.449658
C64	C	0.116633	-0.289317	0.050342
C65	C	-0.293422	-0.793635	-0.344421
C66	C	0.206578	-0.293635	0.155579
C67	C	-0.520897	-1.117116	-0.405770
C68	C	-0.020897	-0.617116	0.094230
C69	C	-0.598962	-1.113400	-0.409526
C70	C	-0.098962	-0.613400	0.090474
C71	C	-0.635636	-1.162234	-0.360790
C72	C	-0.135636	-0.662234	0.139210
C73	C	-0.708987	-1.158744	-0.364327
C74	C	-0.208987	-0.658744	0.135673
C75	C	-0.745662	-1.106416	-0.416598
C76	C	-0.245662	-0.606416	0.083402
C77	C	-0.708983	-1.057579	-0.465340
C78	C	-0.208983	-0.557579	0.034660
C79	C	-0.635634	-1.061074	-0.461806
C80	C	-0.135634	-0.561074	0.038194
C81	C	-0.967131	-1.093337	-0.429799
C82	C	-0.467131	-0.593337	0.070201
C83	C	-1.040485	-1.089845	-0.433328
C84	C	-0.540485	-0.589845	0.066672
C85	C	-1.040484	-1.191011	-0.332316
C86	C	-0.540484	-0.691011	0.167684
C87	C	-0.967133	-1.194498	-0.328783
C88	C	-0.467133	-0.694498	0.171217
C89	C	-0.930460	-1.145665	-0.377528
C90	C	-0.430460	-0.645665	0.122472
C91	C	-0.820639	-1.102845	-0.420214
C92	C	-0.320639	-0.602845	0.079786
C93	C	-0.855485	-1.149240	-0.373916
C94	C	-0.355485	-0.649240	0.126084
C95	C	-0.155225	-1.134882	-0.388314
C96	C	0.344775	-0.634882	0.111686
C97	C	-0.077159	-1.138679	-0.384592
C98	C	0.422841	-0.638679	0.115408
C99	C	-0.338359	-1.126007	-0.603216
C100	C	0.161641	-0.626007	-0.103216
C101	C	-0.338334	-1.126022	-0.691071
C102	C	0.161666	-0.626022	-0.191071
C103	C	-0.338439	-0.332138	-0.397069
C104	C	0.161561	0.167862	0.102931
C105	C	-0.338427	-0.419995	-0.397066
C106	C	0.161573	0.080005	0.102934
C107	C	-0.383169	-1.073385	-1.064682
C108	C	0.116831	-0.573385	-0.564682
C109	C	-0.293351	-1.178855	-1.060405
C110	C	0.206649	-0.678855	-0.560405
C111	C	-0.293365	-1.178833	-0.977860
C112	C	0.206635	-0.678833	-0.477860
C113	C	-0.338284	-1.126087	-0.938722
C114	C	0.161716	-0.626087	-0.438722
C115	C	-0.383187	-1.073363	-0.982130
C116	C	0.116813	-0.573363	-0.482130
C117	C	-0.248468	-1.231562	-0.934446
C118	C	0.251532	-0.731562	-0.434446
C119	C	-0.248481	-1.231543	-0.851896
C120	C	0.251519	-0.731543	-0.351896
C121	C	-0.293397	-1.178792	-0.812757
C122	C	0.206603	-0.678792	-0.312757
C123	C	-0.338301	-1.126065	-0.856169
C124	C	0.161699	-0.626065	-0.356169
C125	C	-0.383220	-1.073319	-0.817032
C126	C	0.116780	-0.573319	-0.317032
C127	C	-0.428121	-1.020588	-0.860443
C128	C	0.071879	-0.520588	-0.360443
C129	C	-0.428102	-1.020612	-0.942990
C130	C	0.071898	-0.520612	-0.442990
C131	C	-0.293416	-1.178768	-0.730209
C132	C	0.206584	-0.678768	-0.230209
C133	C	-0.383237	-1.073298	-0.734479
C134	C	0.116763	-0.573298	-0.234479
C135	C	-0.338424	-1.125983	-0.191685
C136	C	0.161576	-0.625983	0.308315
C137	C	-0.338251	-1.126131	-0.103820
C138	C	0.161749	-0.626131	0.396180
H139	H	-0.211838	-0.707337	-0.248967
H140	H	0.288162	-0.207337	0.251033
C141	C	-0.243939	-1.236867	-1.103459
C142	C	0.256061	-0.736867	-0.603459
N143	N	-0.206716	-1.280560	-1.135891
N144	N	0.293284	-0.780560	-0.635891
H145	H	-0.825622	-1.191849	-0.331360
H146	H	-0.325622	-0.691849	0.168640
H147	H	-0.211919	-1.274479	-0.816558
H148	H	0.288081	-0.774479	-0.316558
C149	C	-0.926800	-1.039659	-0.483461
C150	C	-0.426800	-0.539659	0.016539
N151	N	-0.896421	-0.999241	-0.523897
N152	N	-0.396421	-0.499241	-0.023897
C153	C	-0.432836	-0.832343	-0.507530
C154	C	0.067164	-0.332343	-0.007530
N155	N	-0.470098	-0.864749	-0.551125
N156	N	0.029902	-0.364749	-0.051125
H157	H	-0.420017	-0.423750	-0.492516
H158	H	0.079983	0.076250	0.007484
H159	H	-0.211902	-1.274509	-0.966319
H160	H	0.288098	-0.774509	-0.466319
C161	C	-0.595299	-1.219799	-0.303285
C162	C	-0.095299	-0.719799	0.196715
N163	N	-0.564920	-1.263160	-0.259973
N164	N	-0.064920	-0.763160	0.240027
H165	H	-0.605775	-1.021309	-0.501493
H166	H	-0.105775	-0.521309	-0.001493
H167	H	-0.211848	-0.557558	-0.248985
H168	H	0.288152	-0.057558	0.251015
H169	H	-1.070350	-1.230770	-0.292632
H170	H	-0.570350	-0.730770	0.207368
C171	C	-0.244028	-1.236769	-0.682461
C172	C	0.255972	-0.736769	-0.182461
N173	N	-0.206824	-1.280458	-0.646498
N174	N	0.293176	-0.780458	-0.146498
C175	C	-0.243980	-0.420398	-0.286573
C176	C	0.256020	0.079602	0.213427
N177	N	-0.206719	-0.387987	-0.242983
N178	N	0.293281	0.112013	0.257017
H179	H	-0.738843	-1.198510	-0.324640
H180	H	-0.238843	-0.698510	0.175360
H181	H	-0.937273	-1.237108	-0.286220
H182	H	-0.437273	-0.737108	0.213780
H183	H	-0.464978	-0.695177	-0.545126
H184	H	0.035022	-0.195177	-0.045126
C185	C	-0.243944	-0.841404	-0.286533
C186	C	0.256056	-0.341404	0.213467
N187	N	-0.206677	-0.877383	-0.242931
N188	N	0.293323	-0.377383	0.257069
C189	C	-1.080827	-1.032282	-0.490838
C190	C	-0.580827	-0.532282	0.009162
N191	N	-1.111213	-0.988928	-0.534153
N192	N	-0.611213	-0.488928	-0.034153
H193	H	-0.464983	-0.545415	-0.545121
H194	H	0.035017	-0.045415	-0.045121
H195	H	-0.738851	-1.014976	-0.507904
H196	H	-0.238851	-0.514976	-0.007904
C197	C	-0.432651	-1.015270	-0.691434
C198	C	0.067349	-0.515270	-0.191434
N199	N	-0.469870	-0.971564	-0.659014
N200	N	0.030130	-0.471564	-0.159014
C201	C	-0.477530	-0.962569	-0.817381
C202	C	0.022470	-0.462569	-0.317381
N203	N	-0.514742	-0.918870	-0.784943
N204	N	-0.014742	-0.418870	-0.284943
H205	H	-0.850508	-1.060237	-0.462771
H206	H	-0.350508	-0.560237	0.037229
H207	H	-0.464661	-0.977684	-0.978343
H208	H	0.035339	-0.477684	-0.478343
C209	C	-0.432554	-1.015378	-1.112434
C210	C	0.067446	-0.515378	-0.612434
N211	N	-0.469749	-0.971685	-1.148402
N212	N	0.030251	-0.471685	-0.648402
