data_functionalizedCrystal
_audit_creation_method	'MofGen! by Chris Wilmer'
_symmetry_space_group_name_H-M	'P1'
_symmetry_Int_Tables_number	1
_symmetry_cell_setting	triclinic
loop_
_symmetry_equiv_pos_as_xyz
  x,y,z
_cell_length_a	14.044220
_cell_length_b	19.288865
_cell_length_c	18.366186
_cell_angle_alpha	90.011479
_cell_angle_beta	90.003974
_cell_angle_gamma	88.162563
loop_
_atom_site_label
_atom_site_type_symbol
_atom_site_fract_x
_atom_site_fract_y
_atom_site_fract_z
O1	O	-1.256998	-0.167413	-0.060488
O2	O	-0.756998	0.332587	0.439512
O3	O	-0.981055	-0.161372	-0.060506
O4	O	-0.481055	0.338628	0.439494
O5	O	-1.127000	-0.063774	-0.060482
O6	O	-0.627000	0.436226	0.439518
O7	O	-1.111053	-0.265010	-0.060512
O8	O	-0.611053	0.234990	0.439488
O9	O	-1.126975	-0.063768	0.060617
O10	O	-0.626975	0.436232	0.560617
O11	O	-0.981030	-0.161365	0.060593
O12	O	-0.481030	0.338635	0.560593
O13	O	-1.256973	-0.167406	0.060611
O14	O	-0.756973	0.332594	0.560611
Zn15	Zn	-1.118998	-0.164384	0.079829
Zn16	Zn	-0.618998	0.335616	0.579829
Zn17	Zn	-1.119030	-0.164393	-0.079724
Zn18	Zn	-0.619030	0.335607	0.420276
O19	O	-1.111028	-0.265004	0.060587
O20	O	-0.611028	0.234996	0.560587
C21	C	-1.126474	-0.037862	0.000069
C22	C	-0.626474	0.462138	0.500069
C23	C	-1.124934	0.039341	0.000076
C24	C	-0.624934	0.539341	0.500076
C25	C	-0.945739	-0.158724	0.000041
C26	C	-0.445739	0.341276	0.500041
C27	C	-0.840547	-0.150836	0.000035
C28	C	-0.340547	0.349164	0.500035
C29	C	-1.292289	-0.170054	0.000062
C30	C	-0.792289	0.329946	0.500062
C31	C	-1.397481	-0.177942	0.000063
C32	C	-0.897481	0.322058	0.500063
C33	C	-0.647947	-0.136416	0.000052
C34	C	-0.147947	0.363584	0.500052
C35	C	-0.590075	-0.192359	0.000047
C36	C	-0.090075	0.307641	0.500047
C37	C	-0.482906	-0.184335	0.000056
C38	C	0.017094	0.315665	0.500056
C39	C	-0.755126	-0.144438	0.000043
C40	C	-0.255126	0.355562	0.500043
C41	C	-1.111554	-0.290916	0.000034
C42	C	-0.611554	0.209084	0.500034
C43	C	-1.113094	-0.368119	0.000023
C44	C	-0.613094	0.131881	0.500023
N45	N	-1.118982	-0.164378	0.188720
N46	N	-0.618982	0.335622	0.688720
C47	C	-1.210568	0.078535	0.000085
C48	C	-0.710568	0.578535	0.500085
C49	C	-1.209121	0.151075	0.000073
C50	C	-0.709121	0.651075	0.500073
C51	C	-1.122035	0.184418	0.000067
C52	C	-0.622035	0.684418	0.500067
C53	C	-1.036390	0.145215	0.000054
C54	C	-0.536390	0.645215	0.500054
C55	C	-1.037839	0.072676	0.000058
C56	C	-0.537839	0.572676	0.500058
C57	C	-1.053566	0.297107	0.042481
C58	C	-0.553566	0.797107	0.542481
C59	C	-1.052121	0.369644	0.042481
C60	C	-0.552121	0.869644	0.542481
C61	C	-1.117560	0.408151	0.000051
C62	C	-0.617560	0.908151	0.500051
C63	C	-1.184462	0.374113	-0.042371
C64	C	-0.684462	0.874113	0.457629
C65	C	-1.185912	0.301574	-0.042367
C66	C	-0.685912	0.801574	0.457633
C67	C	-1.120453	0.263074	0.000062
C68	C	-0.620453	0.763074	0.500062
C69	C	-1.201631	0.526002	0.000046
C70	C	-0.701631	1.026002	0.500046
C71	C	-1.200181	0.598543	0.000030
C72	C	-0.700181	1.098543	0.500030
C73	C	-1.027447	0.592681	0.000018
C74	C	-0.527447	1.092681	0.500018
C75	C	-1.028900	0.520142	0.000027
C76	C	-0.528900	1.020142	0.500027
C77	C	-1.115995	0.486806	0.000044
C78	C	-0.615995	0.986806	0.500044
N79	N	-1.119053	-0.164395	-0.188616
N80	N	-0.619053	0.335605	0.311384
C81	C	-1.183628	-0.121187	0.226831
C82	C	-0.683628	0.378813	0.726831
C83	C	-1.183634	-0.121184	0.303059
C84	C	-0.683634	0.378816	0.803059
C85	C	-1.119003	-0.164385	0.341173
C86	C	-0.619003	0.335615	0.841173
C87	C	-1.054346	-0.207580	0.303053
C88	C	-0.554346	0.292420	0.803053
C89	C	-1.054335	-0.207576	0.226827
C90	C	-0.554335	0.292424	0.726827
C91	C	-1.106318	-0.226858	0.461924
C92	C	-0.606318	0.273142	0.961924
C93	C	-1.106335	-0.226863	0.538148
C94	C	-0.606335	0.273137	1.038148
C95	C	-1.119030	-0.164396	0.576281
C96	C	-0.619030	0.335604	1.076281
C97	C	-1.131729	-0.101922	0.538178
C98	C	-0.631729	0.398078	1.038178
C99	C	-1.131718	-0.101919	0.461952
C100	C	-0.631718	0.398081	0.961952
C101	C	-1.119007	-0.164394	0.423828
C102	C	-0.619007	0.335606	0.923828
C103	C	-1.183686	-0.121198	0.697046
C104	C	-0.683686	0.378802	1.197046
C105	C	-1.183685	-0.121194	0.773276
C106	C	-0.683685	0.378806	1.273276
C107	C	-1.054402	-0.207596	0.773268
C108	C	-0.554402	0.292404	1.273268
C109	C	-1.054398	-0.207593	0.697040
C110	C	-0.554398	0.292407	1.197040
C111	C	-1.119045	-0.164395	0.658934
C112	C	-0.619045	0.335605	1.158934
H113	H	-0.621016	-0.246280	0.000035
H114	H	-0.121016	0.253720	0.500035
H115	H	-0.617008	-0.082499	0.000064
H116	H	-0.117008	0.417501	0.500064
Br117	Br	-0.966625	-0.266206	0.354776
Br118	Br	-0.466625	0.233794	0.854776
H119	H	-1.001761	-0.242767	0.666008
H120	H	-0.501761	0.257233	1.166008
H121	H	-1.269917	0.630454	0.000033
H122	H	-0.769917	1.130454	0.500033
H123	H	-1.281487	0.051398	0.000097
H124	H	-0.781487	0.551398	0.500097
Br125	Br	-1.089182	-0.311651	0.410181
Br126	Br	-0.589182	0.188349	0.910181
Br127	Br	-1.325346	0.204279	0.000082
Br128	Br	-0.825346	0.704279	0.500082
Br129	Br	-1.273282	0.426363	-0.099959
Br130	Br	-0.773282	0.926363	0.400041
H131	H	-0.997641	0.397352	0.077019
H132	H	-0.497641	0.897352	0.577019
Br133	Br	-1.319828	0.480757	0.000077
Br134	Br	-0.819828	0.980757	0.500077
H135	H	-1.240384	0.273863	-0.076909
H136	H	-0.740384	0.773863	0.423091
H137	H	-0.956540	0.619828	0.000009
H138	H	-0.456540	1.119828	0.500009
H139	H	-0.959167	0.488229	0.000023
H140	H	-0.459167	0.988229	0.500023
H141	H	-1.000275	0.265760	0.077037
H142	H	-0.500275	0.765760	0.577037
Br143	Br	-0.918200	0.190464	0.000036
Br144	Br	-0.418200	0.690464	0.500036
Br145	Br	-0.921612	0.019480	0.000044
Br146	Br	-0.421612	0.519480	0.500044
Br147	Br	-0.966594	-0.266197	0.175100
Br148	Br	-0.466594	0.233803	0.675100
H149	H	-1.236278	-0.086011	0.334095
H150	H	-0.736278	0.413989	0.834095
H151	H	-1.236265	-0.086011	0.195807
H152	H	-0.736265	0.413989	0.695807
H153	H	-1.142055	-0.051051	0.430932
H154	H	-0.642055	0.448949	0.930932
Br155	Br	-1.148971	-0.017140	0.589919
Br156	Br	-0.648971	0.482860	1.089919
H157	H	-1.236323	-0.086021	0.666019
H158	H	-0.736323	0.413979	1.166019
H159	H	-1.236325	-0.086018	0.804306
H160	H	-0.736325	0.413982	1.304306
Br161	Br	-0.966678	-0.266219	0.824988
Br162	Br	-0.466678	0.233781	1.324988
Br163	Br	-1.089113	-0.311648	0.589851
Br164	Br	-0.589113	0.188352	1.089851
