data_functionalizedCrystal
_audit_creation_method	'MofGen! by Chris Wilmer'
_symmetry_space_group_name_H-M	'P1'
_symmetry_Int_Tables_number	1
_symmetry_cell_setting	triclinic
loop_
_symmetry_equiv_pos_as_xyz
  x,y,z
_cell_length_a	8.559649
_cell_length_b	19.188930
_cell_length_c	7.681481
_cell_angle_alpha	84.272277
_cell_angle_beta	94.913240
_cell_angle_gamma	76.461723
loop_
_atom_site_label
_atom_site_type_symbol
_atom_site_fract_x
_atom_site_fract_y
_atom_site_fract_z
O1	O	2.105137	-0.016273	-0.146396
O2	O	1.639679	0.019799	-0.146415
O3	O	1.885844	-0.100597	-0.146371
O4	O	1.858973	0.104122	-0.146440
O5	O	1.916143	-0.115446	0.146493
O6	O	1.669978	0.004950	0.146449
O7	O	2.135436	-0.031122	0.146467
Zn8	Zn	1.907518	-0.015443	0.192956
Zn9	Zn	1.867598	0.004120	-0.192904
O10	O	1.889272	0.089274	0.146423
C11	C	1.595280	0.015108	0.000015
C12	C	1.417842	0.023245	0.000010
C13	C	1.900124	-0.133987	0.000066
C14	C	1.897514	-0.211356	0.000081
C15	C	2.041954	-0.263833	0.000095
C16	C	2.039498	-0.336527	0.000067
C17	C	1.892597	-0.356742	0.000060
C18	C	1.748137	-0.304254	0.000036
C19	C	1.750595	-0.231561	0.000047
N20	N	1.790620	-0.463929	0.099722
N21	N	1.788294	-0.532986	0.099716
C22	C	1.885180	-0.575761	0.000024
N23	N	1.984505	-0.546875	-0.099639
N24	N	1.986836	-0.477813	-0.099625
C25	C	1.889914	-0.435564	0.000047
C26	C	2.026966	-0.707062	0.000005
C27	C	2.024502	-0.779757	-0.000034
C28	C	1.733139	-0.747483	-0.000048
C29	C	1.735605	-0.674790	-0.000026
C30	C	1.882524	-0.654585	0.000008
C31	C	2.179835	-0.026431	0.000033
C32	C	2.357272	-0.034568	0.000027
C33	C	1.874991	0.122664	-0.000018
C34	C	1.877600	0.200033	-0.000044
N35	N	1.934774	-0.028796	0.456295
N36	N	1.840354	0.017467	-0.456243
H37	H	1.333944	0.078971	-0.000019
H38	H	1.441159	-0.090289	0.000037
C39	C	1.710133	0.081259	0.442159
C40	C	1.600373	0.134708	0.543317
C41	C	1.470149	0.198501	0.441706
C42	C	1.449686	0.208845	0.238936
C43	C	1.559450	0.155395	0.137766
C44	C	1.689674	0.091601	0.239377
H45	H	1.615518	0.127052	0.693429
H46	H	1.388895	0.238069	0.516599
H47	H	1.353287	0.256069	0.163717
H48	H	1.544305	0.163050	-0.012346
H49	H	1.770928	0.052034	0.164484
H50	H	2.146595	-0.690610	0.000025
H51	H	2.031176	-0.076016	0.531518
C52	C	1.576717	-0.617062	-0.000012
C53	C	1.440456	-0.606023	-0.152088
C54	C	1.281559	-0.548296	-0.152077
C55	C	1.258922	-0.501607	0.000008
C56	C	1.395187	-0.512645	0.152095
C57	C	1.554085	-0.570372	0.152085
H58	H	1.457209	-0.640586	-0.264681
H59	H	1.180687	-0.540125	-0.264663
H60	H	1.141297	-0.458874	0.000016
H61	H	1.378434	-0.478082	0.264689
H62	H	1.654957	-0.578543	0.264671
H63	H	2.157121	-0.379261	0.000071
H64	H	2.161586	-0.247387	0.000117
H65	H	1.628528	-0.320718	0.000026
H66	H	1.632971	-0.188832	0.000036
H67	H	2.142127	-0.822484	-0.000033
H68	H	1.613528	-0.763941	-0.000062
