data_functionalizedCrystal
_audit_creation_method	'MofGen! by Chris Wilmer'
_symmetry_space_group_name_H-M	'P1'
_symmetry_Int_Tables_number	1
_symmetry_cell_setting	triclinic
loop_
_symmetry_equiv_pos_as_xyz
  x,y,z
_cell_length_a	15.297475
_cell_length_b	18.101395
_cell_length_c	15.298259
_cell_angle_alpha	80.286247
_cell_angle_beta	88.370891
_cell_angle_gamma	80.333681
loop_
_atom_site_label
_atom_site_type_symbol
_atom_site_fract_x
_atom_site_fract_y
_atom_site_fract_z
Zn1	Zn	1.253438	-0.369889	-0.726658
Zn2	Zn	1.278653	-0.518147	-0.580154
Zn3	Zn	1.132290	-0.377092	-0.554882
Zn4	Zn	1.106904	-0.476449	-0.701296
O5	O	1.192821	-0.435394	-0.640748
O6	O	1.379361	-0.403992	-0.728415
O7	O	1.280414	-0.519901	-0.454214
O8	O	1.148432	-0.272508	-0.577705
O9	O	1.397886	-0.512917	-0.620779
O10	O	1.237439	-0.267216	-0.703909
O11	O	1.172882	-0.416268	-0.435647
O12	O	1.006344	-0.375835	-0.553113
O13	O	1.105166	-0.441848	-0.827248
O14	O	0.987693	-0.448833	-0.660683
O15	O	1.212824	-0.363559	-0.845881
O16	O	1.255798	-0.616244	-0.596187
O17	O	1.129615	-0.585608	-0.685189
C18	C	0.965235	-0.408591	-0.601404
C19	C	0.867869	-0.397139	-0.584594
C20	C	0.554727	-0.517249	-0.760897
C21	C	0.646207	-0.528014	-0.776689
C22	C	0.701627	-0.495296	-0.728667
C23	C	0.665558	-0.451811	-0.664849
C24	C	0.574069	-0.441049	-0.649051
C25	C	0.720970	-0.419097	-0.616821
C26	C	0.684900	-0.375612	-0.553003
C27	C	0.593420	-0.364852	-0.537209
C28	C	0.538001	-0.397570	-0.585231
C29	C	0.812458	-0.429859	-0.632619
C30	C	0.831801	-0.353659	-0.520773
C31	C	0.740320	-0.342894	-0.504981
C32	C	1.192709	-0.627795	-0.640701
C33	C	1.192735	-0.710110	-0.640725
C34	C	1.192919	-1.009215	-0.640805
C35	C	1.113656	-0.958637	-0.696998
C36	C	1.113372	-0.873016	-0.696731
C37	C	1.192828	-0.860826	-0.640766
C38	C	1.183805	-0.904428	-0.544127
C39	C	1.183299	-0.989955	-0.544458
C40	C	1.281494	-0.984525	-0.680464
C41	C	1.280599	-0.898472	-0.682395
C42	C	1.192779	-0.776963	-0.640739
C43	C	1.192968	-1.093079	-0.640826
C44	C	1.421296	-0.462302	-0.680245
C45	C	1.518658	-0.473769	-0.697077
C46	C	1.153350	-0.397249	-0.869239
C47	C	1.136530	-0.380994	-0.966608
C48	C	1.192955	-0.242241	-0.640817
C49	C	1.193012	-0.159931	-0.640847
C50	C	1.313066	-0.551005	-1.279738
C51	C	1.328865	-0.566282	-1.188254
C52	C	1.280783	-0.519961	-1.132838
C53	C	1.216899	-0.458361	-1.168915
C54	C	1.201094	-0.443087	-1.260407
C55	C	1.168810	-0.412043	-1.113507
C56	C	1.104926	-0.350443	-1.149584
C57	C	1.089124	-0.335170	-1.241068
C58	C	1.137206	-0.381491	-1.296484
C59	C	1.184616	-0.427317	-1.022015
C60	C	1.072643	-0.319398	-1.002684
C61	C	1.056844	-0.304122	-1.094168
C62	C	1.232189	-0.473343	-0.413154
C63	C	1.249179	-0.489410	-0.315814
H64	H	0.463508	-0.388805	-0.572378
N65	N	1.361262	-0.888496	-0.633811
H66	H	1.395680	-0.940009	-0.608688
H67	H	1.400120	-0.859468	-0.676323
N68	N	0.554516	-0.317944	-0.468384
H69	H	0.488153	-0.316090	-0.465665
H70	H	0.581297	-0.341708	-0.408551
N71	N	1.118417	-0.973103	-0.791511
H72	H	1.062991	-0.992089	-0.805967
H73	H	1.123481	-0.924309	-0.833003
N74	N	1.257593	-1.036288	-0.485968
H75	H	1.290524	-1.001116	-0.460081
H76	H	1.232131	-1.070695	-0.436396
H77	H	1.293649	-0.532404	-1.058348
N78	N	0.891555	-0.318354	-0.468978
H79	H	0.886437	-0.338348	-0.403610
H80	H	0.954955	-0.331771	-0.488741
H81	H	1.236636	-0.477469	-0.992651
H82	H	1.240424	-0.898326	-0.500418
N83	N	0.701416	-0.296010	-0.436135
H84	H	0.635054	-0.294165	-0.433413
H85	H	0.728206	-0.319794	-0.376311
N86	N	1.118390	-0.832423	-0.790982
H87	H	1.174751	-0.854783	-0.819606
H88	H	1.065525	-0.838705	-0.825433
H89	H	1.048064	-0.974766	-0.669736
H90	H	0.776114	-0.504064	-0.741529
H91	H	1.047396	-0.847119	-0.669199
N92	N	1.098168	-1.010374	-0.502418
H93	H	1.061321	-0.963842	-0.483848
H94	H	1.063859	-1.029834	-0.546645
N95	N	1.099701	-0.870156	-0.501778
H96	H	1.046893	-0.873919	-0.537951
H97	H	1.094569	-0.898619	-0.439614
H98	H	1.292834	-0.997722	-0.750574
H99	H	1.287693	-0.868999	-0.753594
N100	N	0.685111	-0.574916	-0.845510
H101	H	0.636123	-0.594009	-0.873536
H102	H	0.716080	-0.542518	-0.892673
H103	H	1.340352	-1.018938	-0.639731
N104	N	1.397770	-0.632712	-1.149348
H105	H	1.444938	-0.613734	-1.118417
H106	H	1.368634	-0.669149	-1.105264
H107	H	1.124349	-0.369055	-1.370979
H108	H	1.352201	-0.588718	-1.324864
H109	H	1.037098	-0.285018	-1.270437
H110	H	1.004829	-0.253967	-1.123556
H111	H	1.033490	-0.281681	-0.957564
H112	H	0.841817	-0.465264	-0.684580
H113	H	0.509598	-0.543888	-0.799985
