data_functionalizedCrystal
_audit_creation_method	'MofGen! by Chris Wilmer'
_symmetry_space_group_name_H-M	'P1'
_symmetry_Int_Tables_number	1
_symmetry_cell_setting	triclinic
loop_
_symmetry_equiv_pos_as_xyz
  x,y,z
_cell_length_a	12.837942
_cell_length_b	10.908937
_cell_length_c	9.482900
_cell_angle_alpha	96.963629
_cell_angle_beta	79.671950
_cell_angle_gamma	77.457448
loop_
_atom_site_label
_atom_site_type_symbol
_atom_site_fract_x
_atom_site_fract_y
_atom_site_fract_z
O1	O	-0.176067	1.702316	0.120937
O2	O	-0.096791	1.338155	0.120930
O3	O	-0.285938	1.512159	0.120924
O4	O	0.013080	1.528312	0.120943
O5	O	-0.247391	1.476831	-0.120867
O6	O	-0.058244	1.302826	-0.120861
O7	O	-0.137520	1.666987	-0.120855
Cu8	Cu	-0.094362	1.481681	-0.142935
Cu9	Cu	-0.139949	1.523461	0.143011
O10	O	0.051628	1.492983	-0.120849
C11	C	-0.070109	1.273556	0.000034
C12	C	-0.048045	1.133704	0.000031
C13	C	-0.105761	0.930303	0.000054
C14	C	-0.128563	1.074845	0.000035
C15	C	-0.304345	1.489039	0.000030
C16	C	-0.416618	1.472769	0.000032
C17	C	-0.691301	1.668384	0.000065
C18	C	-0.796793	1.653102	0.000068
C19	C	-0.733097	1.426925	0.000049
C20	C	-0.627605	1.442207	0.000046
C21	C	-0.606712	1.562940	0.000053
C22	C	-0.501216	1.578219	0.000040
C23	C	-0.437524	1.352045	0.000032
C24	C	-0.543016	1.336763	0.000034
C25	C	0.070034	1.516103	0.000050
C26	C	0.182305	1.532376	0.000057
C27	C	-0.164202	1.731587	0.000045
C28	C	-0.186267	1.871441	0.000057
N29	N	-0.062301	1.452304	-0.344054
C30	C	-0.130496	1.514787	-0.416256
C31	C	-0.103814	1.490355	-0.583672
N32	N	-0.172019	1.552847	0.344130
H33	H	-0.272074	0.928055	0.000055
H34	H	-0.214376	1.131455	0.000032
N35	N	-0.478680	1.708433	0.000042
H36	H	-0.450611	1.732909	0.089669
H37	H	-0.422077	1.706629	-0.089654
H38	H	-0.019957	0.873691	0.000074
N39	N	-0.888024	1.766828	0.000059
H40	H	-0.958024	1.738831	0.000057
H41	H	-0.897779	1.831979	0.089695
N42	N	-0.668751	1.798590	0.000049
H43	H	-0.738346	1.863070	0.000050
H44	H	-0.640654	1.822957	0.089682
N45	N	0.041197	1.357476	-0.426339
H46	H	0.087748	1.402015	-0.489481
H47	H	0.082953	1.319160	-0.355064
N48	N	-0.000304	1.395529	-0.665943
H49	H	-0.000624	1.308633	-0.639551
H50	H	0.004023	1.391624	-0.773850
H51	H	-0.750131	1.328632	0.000059
H52	H	-0.368636	1.266183	0.000010
N53	N	0.065623	1.058738	0.000060
H54	H	0.065803	0.966110	0.000074
H55	H	0.117841	1.066931	-0.089575
N56	N	-0.565555	1.206551	0.000032
H57	H	-0.645220	1.212868	0.000037
H58	H	-0.518925	1.146751	-0.089612
N59	N	-0.234020	1.609573	-0.333978
H60	H	-0.238415	1.613576	-0.226044
H61	H	-0.233671	1.696429	-0.360464
N62	N	-0.275534	1.647665	-0.573601
H63	H	-0.279926	1.651679	-0.465666
H64	H	-0.275157	1.734510	-0.600106
