data_functionalizedCrystal
_audit_creation_method	'MofGen! by Chris Wilmer'
_symmetry_space_group_name_H-M	'P1'
_symmetry_Int_Tables_number	1
_symmetry_cell_setting	triclinic
loop_
_symmetry_equiv_pos_as_xyz
  x,y,z
_cell_length_a	21.395361
_cell_length_b	21.395364
_cell_length_c	12.827885
_cell_angle_alpha	90.022002
_cell_angle_beta	89.961841
_cell_angle_gamma	89.952591
loop_
_atom_site_label
_atom_site_type_symbol
_atom_site_fract_x
_atom_site_fract_y
_atom_site_fract_z
Zn1	Zn	-0.249129	-0.957839	-0.590864
Zn2	Zn	0.084204	-0.624506	-0.257531
Zn3	Zn	0.417538	-0.291172	0.075802
Zn4	Zn	-0.353919	-0.957747	-0.416099
Zn5	Zn	-0.020586	-0.624414	-0.082766
Zn6	Zn	0.312747	-0.291081	0.250568
Zn7	Zn	-0.249190	-0.853060	-0.416130
Zn8	Zn	0.084143	-0.519727	-0.082796
Zn9	Zn	0.417477	-0.186393	0.250537
Zn10	Zn	-0.353903	-0.853023	-0.590791
Zn11	Zn	-0.020570	-0.519690	-0.257457
Zn12	Zn	0.312763	-0.186356	0.075876
O13	O	-0.301535	-0.905417	-0.503471
O14	O	0.031798	-0.572084	-0.170138
O15	O	0.365131	-0.238751	0.163196
O16	O	-0.263011	-1.045505	-0.567699
O17	O	0.070323	-0.712171	-0.234366
O18	O	0.403656	-0.378838	0.098967
O19	O	-0.340059	-0.943838	-0.269867
O20	O	-0.006726	-0.610504	0.063466
O21	O	0.326608	-0.277171	0.396800
O22	O	-0.161504	-0.867013	-0.439352
O23	O	0.171829	-0.533679	-0.106019
O24	O	0.505163	-0.200346	0.227315
O25	O	-0.340000	-1.045437	-0.439300
O26	O	-0.006666	-0.712104	-0.105967
O27	O	0.326667	-0.378771	0.227367
O28	O	-0.161459	-0.943993	-0.567729
O29	O	0.171874	-0.610660	-0.234396
O30	O	0.505208	-0.277327	0.098938
O31	O	-0.263115	-0.866924	-0.269889
O32	O	0.070218	-0.533591	0.063444
O33	O	0.403552	-0.200257	0.396777
O34	O	-0.263099	-0.765377	-0.439281
O35	O	0.070234	-0.432044	-0.105947
O36	O	0.403567	-0.098710	0.227386
O37	O	-0.339972	-0.866950	-0.737037
O38	O	-0.006639	-0.533617	-0.403703
O39	O	0.326694	-0.200283	-0.070370
O40	O	-0.340032	-0.765350	-0.567603
O41	O	-0.006698	-0.432017	-0.234270
O42	O	0.326635	-0.098683	0.099063
O43	O	-0.262995	-0.943958	-0.737091
O44	O	0.070338	-0.610624	-0.403757
O45	O	0.403671	-0.277291	-0.070424
O46	O	-0.441595	-0.943802	-0.439229
O47	O	-0.108262	-0.610468	-0.105895
O48	O	0.225072	-0.277135	0.227438
O49	O	-0.441583	-0.866861	-0.567574
O50	O	-0.108250	-0.533528	-0.234240
O51	O	0.225083	-0.200195	0.099093
C52	C	-0.301571	-0.742630	-0.503438
C53	C	0.031762	-0.409296	-0.170105
C54	C	0.365096	-0.075963	0.163229
C55	C	-0.301601	-0.672988	-0.503449
C56	C	0.031732	-0.339655	-0.170115
C57	C	0.365066	-0.006322	0.163218
C58	C	-0.261580	-0.640333	-0.570409
C59	C	0.071754	-0.306999	-0.237075
C60	C	0.405087	0.026334	0.096258
C61	C	-0.261565	-0.574897	-0.570411
C62	C	0.071768	-0.241564	-0.237078
C63	C	0.405102	0.091769	0.096255
C64	C	-0.301583	-0.542120	-0.503465
C65	C	0.031750	-0.208787	-0.170132
C66	C	0.365084	0.124547	0.163202
C67	C	-0.341607	-0.574784	-0.436492
C68	C	-0.008274	-0.241450	-0.103158
C69	C	0.325059	0.091883	0.230175
C70	C	-0.341616	-0.640218	-0.436484
C71	C	-0.008283	-0.306885	-0.103150
C72	C	0.325050	0.026449	0.230183
C73	C	-0.358012	-0.438396	-0.495056
C74	C	-0.024679	-0.105063	-0.161722
C75	C	0.308654	0.228271	0.171611
C76	C	-0.358004	-0.372963	-0.495071
C77	C	-0.024671	-0.039630	-0.161738
C78	C	0.308662	0.293704	0.171596
C79	C	-0.301555	-0.340299	-0.503484
C80	C	0.031779	-0.006966	-0.170150
C81	C	0.365112	0.326367	0.163183
C82	C	-0.245111	-0.373077	-0.511903
C83	C	0.088222	-0.039743	-0.178570
C84	C	0.421555	0.293590	0.154764
C85	C	-0.245120	-0.438511	-0.511895
C86	C	0.088213	-0.105178	-0.178562
C87	C	0.421546	0.228156	0.154772
C88	C	-0.301577	-0.471168	-0.503466
C89	C	0.031756	-0.137834	-0.170132
C90	C	0.365089	0.195499	0.163201
C91	C	-0.261514	-0.236691	-0.570450
C92	C	0.071820	0.096642	-0.237117
C93	C	0.405153	0.429976	0.096216
C94	C	-0.261498	-0.171254	-0.570446
C95	C	0.071835	0.162079	-0.237112
C96	C	0.405169	0.495412	0.096221
C97	C	-0.341546	-0.171142	-0.436531
C98	C	-0.008213	0.162191	-0.103198
C99	C	0.325121	0.495524	0.230135
C100	C	-0.341556	-0.236578	-0.436531
C101	C	-0.008223	0.096756	-0.103197
C102	C	0.325110	0.430089	0.230136
C103	C	-0.301541	-0.269348	-0.503496
C104	C	0.031792	0.063985	-0.170162
C105	C	0.365126	0.397319	0.163171
C106	C	-0.464323	-0.905335	-0.503413
C107	C	-0.130990	-0.572001	-0.170079
C108	C	0.202344	-0.238668	0.163254
C109	C	-0.533964	-0.905357	-0.503423
C110	C	-0.200631	-0.572023	-0.170089
C111	C	0.132702	-0.238690	0.163244
C112	C	-0.566663	-0.945455	-0.436662
C113	C	-0.233329	-0.612122	-0.103329
C114	C	0.100004	-0.278788	0.230005
C115	C	-0.632098	-0.945484	-0.436685
C116	C	-0.298765	-0.612151	-0.103352
C117	C	0.034569	-0.278817	0.229981
C118	C	-0.664833	-0.905404	-0.503459
C119	C	-0.331499	-0.572070	-0.170125
C120	C	0.001834	-0.238737	0.163208
C121	C	-0.632126	-0.865302	-0.570233
C122	C	-0.298793	-0.531969	-0.236899
C123	C	0.034540	-0.198636	0.096434
C124	C	-0.566692	-0.865279	-0.570215
C125	C	-0.233359	-0.531946	-0.236881
C126	C	0.099975	-0.198612	0.096452
C127	C	-0.768563	-0.848989	-0.511647
C128	C	-0.435229	-0.515655	-0.178313
C129	C	-0.101896	-0.182322	0.155020
C130	C	-0.833996	-0.849011	-0.511657
C131	C	-0.500662	-0.515678	-0.178324
C132	C	-0.167329	-0.182345	0.155010
C133	C	-0.866653	-0.905477	-0.503520
C134	C	-0.533320	-0.572143	-0.170187
C135	C	-0.199987	-0.238810	0.163147
C136	C	-0.833870	-0.961921	-0.495350
C137	C	-0.500537	-0.628588	-0.162017
C138	C	-0.167203	-0.295255	0.171317
C139	C	-0.768436	-0.961898	-0.495332
C140	C	-0.435102	-0.628564	-0.161999
C141	C	-0.101769	-0.295231	0.171334
C142	C	-0.735785	-0.905425	-0.503486
C143	C	-0.402452	-0.572092	-0.170153
C144	C	-0.069118	-0.238758	0.163181
C145	C	-0.970304	-0.945610	-0.436781
C146	C	-0.636971	-0.612277	-0.103447
C147	C	-0.303638	-0.278943	0.229886
C148	C	-1.035741	-0.945640	-0.436812
C149	C	-0.702407	-0.612307	-0.103478
C150	C	-0.369074	-0.278974	0.229855
C151	C	-1.035768	-0.865453	-0.570353
C152	C	-0.702434	-0.532120	-0.237020
C153	C	-0.369101	-0.198786	0.096313
C154	C	-0.970332	-0.865428	-0.570328
C155	C	-0.636999	-0.532095	-0.236995
C156	C	-0.303666	-0.198762	0.096339
C157	C	-0.937605	-0.905506	-0.503536
C158	C	-0.604271	-0.572173	-0.170203
C159	C	-0.270938	-0.238839	0.163130
C160	C	-0.138112	-0.905517	-0.503552
C161	C	0.195221	-0.572184	-0.170219
C162	C	0.528555	-0.238851	0.163115
C163	C	-0.068471	-0.905560	-0.503587
C164	C	0.264863	-0.572227	-0.170253
C165	C	0.598196	-0.238893	0.163080
C166	C	-0.301475	-0.905460	-0.776041
C167	C	0.031858	-0.572127	-0.442708
C168	C	0.365191	-0.238793	-0.109375
C169	C	-0.301450	-0.905478	-0.892194
C170	C	0.031884	-0.572145	-0.558861
C171	C	0.365217	-0.238812	-0.225528
C172	C	-0.301508	-0.068841	-0.503499
C173	C	0.031825	0.264493	-0.170166
C174	C	0.365159	0.597826	0.163168
C175	C	-0.301516	-0.138482	-0.503497
C176	C	0.031818	0.194851	-0.170164
C177	C	0.365151	0.528185	0.163170
C178	C	-0.263351	-0.943588	-0.944006
C179	C	0.069982	-0.610255	-0.610673
C180	C	0.403315	-0.276922	-0.277339
C181	C	-0.263324	-0.943608	-1.064056
C182	C	0.070009	-0.610275	-0.730723
C183	C	0.403343	-0.276941	-0.397390
C184	C	-0.301550	-0.905411	-0.231961
C185	C	0.031783	-0.572078	0.101372
C186	C	0.365117	-0.238744	0.434706
C187	C	-0.301399	-0.905514	-0.115808
C188	C	0.031934	-0.572181	0.217525
C189	C	0.365267	-0.238848	0.550858
H190	H	-0.228971	-0.548304	-0.624937
H191	H	0.104362	-0.214970	-0.291603
H192	H	0.437695	0.118363	0.041730
H193	H	-0.230752	-0.976199	-0.899487
H194	H	0.102581	-0.642865	-0.566154
H195	H	0.435915	-0.309532	-0.232820
H196	H	-0.374190	-0.548092	-0.381983
H197	H	-0.040857	-0.214759	-0.048649
H198	H	0.292477	0.118574	0.284684
H199	H	-0.540068	-0.832625	-0.624581
H200	H	-0.206735	-0.499292	-0.291247
H201	H	0.126598	-0.165959	0.042086
F202	F	-0.344039	-0.862868	-1.057580
F203	F	-0.010706	-0.529534	-0.724247
F204	F	0.322628	-0.196201	-0.390914
H205	H	-0.403984	-0.464985	-0.488204
H206	H	-0.070650	-0.131652	-0.154871
H207	H	0.262683	0.201681	0.178463
F208	F	-0.344055	-0.862846	-0.950379
F209	F	-0.010721	-0.529513	-0.617045
F210	F	0.322612	-0.196179	-0.283712
F211	F	-0.185051	-0.473392	-0.520851
F212	F	0.148282	-0.140059	-0.187518
F213	F	0.481615	0.193274	0.145815
F214	F	-0.935531	-0.822747	-0.641381
F215	F	-0.602198	-0.489414	-0.308048
F216	F	-0.268864	-0.156080	0.025286
F217	F	-0.220692	-0.986259	-1.122291
F218	F	0.112641	-0.652926	-0.788958
F219	F	0.445974	-0.319592	-0.455625
H220	H	-0.540018	-0.978090	-0.382279
H221	H	-0.206684	-0.644757	-0.048945
H222	H	0.126649	-0.311423	0.284388
F223	F	-0.868880	-0.788938	-0.520349
F224	F	-0.535547	-0.455605	-0.187016
F225	F	-0.202214	-0.122272	0.146318
H226	H	-0.228995	-0.667010	-0.624936
H227	H	0.104338	-0.333677	-0.291603
H228	H	0.437671	-0.000344	0.041730
F229	F	-1.070602	-0.822800	-0.641425
F230	F	-0.737268	-0.489466	-0.308092
F231	F	-0.403935	-0.156133	0.025241
F232	F	-0.733813	-0.788886	-0.520309
F233	F	-0.400479	-0.455553	-0.186975
F234	F	-0.067146	-0.122220	0.146358
H235	H	-1.062363	-0.978297	-0.382449
H236	H	-0.729029	-0.644964	-0.049115
H237	H	-0.395696	-0.311630	0.284218
F238	F	-0.185028	-0.338319	-0.520856
F239	F	0.148305	-0.004986	-0.187523
F240	F	0.481638	0.328348	0.145811
H241	H	-0.228904	-0.144667	-0.624971
H242	H	0.104429	0.188666	-0.291637
H243	H	0.437763	0.521999	0.041696
F244	F	-0.218923	-0.271570	-0.641713
F245	F	0.114410	0.061763	-0.308380
F246	F	0.447744	0.395097	0.024954
F247	F	-0.418076	-0.338085	-0.486126
F248	F	-0.084743	-0.004752	-0.152792
F249	F	0.248591	0.328582	0.180541
F250	F	-0.733548	-1.021969	-0.486645
F251	F	-0.400214	-0.688635	-0.153311
F252	F	-0.066881	-0.355302	0.180022
H253	H	-0.374149	-0.263166	-0.382009
H254	H	-0.040815	0.070167	-0.048675
H255	H	0.292518	0.403500	0.284658
F256	F	-0.384133	-0.136263	-0.365275
F257	F	-0.050800	0.197071	-0.031941
F258	F	0.282534	0.530404	0.301392
F259	F	-0.384213	-0.674974	-0.365210
F260	F	-0.050880	-0.341640	-0.031876
F261	F	0.282453	-0.008307	0.301457
F262	F	-0.666905	-0.988164	-0.365625
F263	F	-0.333572	-0.654830	-0.032292
F264	F	-0.000239	-0.321497	0.301041
H265	H	-0.860458	-1.007901	-0.488724
H266	H	-0.527125	-0.674568	-0.155391
H267	H	-0.193791	-0.341234	0.177942
H268	H	-0.943656	-0.978246	-0.382398
H269	H	-0.610323	-0.644912	-0.049065
H270	H	-0.276990	-0.311579	0.284269
H271	H	-0.658783	-0.832670	-0.624602
H272	H	-0.325450	-0.499336	-0.291268
H273	H	0.007884	-0.166003	0.042065
