data_functionalizedCrystal
_audit_creation_method	'MofGen! by Chris Wilmer'
_symmetry_space_group_name_H-M	'P1'
_symmetry_Int_Tables_number	1
_symmetry_cell_setting	triclinic
loop_
_symmetry_equiv_pos_as_xyz
  x,y,z
_cell_length_a	16.625548
_cell_length_b	18.050589
_cell_length_c	18.050582
_cell_angle_alpha	89.981795
_cell_angle_beta	89.985107
_cell_angle_gamma	90.029289
loop_
_atom_site_label
_atom_site_type_symbol
_atom_site_fract_x
_atom_site_fract_y
_atom_site_fract_z
Zn1	Zn	1.232603	-0.295685	-0.419935
Zn2	Zn	1.232506	-0.419869	-0.295754
Zn3	Zn	1.097778	-0.295699	-0.295759
Zn4	Zn	1.097722	-0.419840	-0.419903
O5	O	1.165152	-0.357774	-0.357837
O6	O	1.345423	-0.312165	-0.403473
O7	O	1.214617	-0.403415	-0.191830
O8	O	1.115727	-0.191773	-0.312246
O9	O	1.345351	-0.403402	-0.312238
O10	O	1.214782	-0.191763	-0.403478
O11	O	1.115633	-0.312188	-0.191833
O12	O	0.984938	-0.312161	-0.312215
O13	O	1.115631	-0.403353	-0.523831
O14	O	0.984897	-0.403367	-0.403423
O15	O	1.214728	-0.312137	-0.523855
O16	O	1.214562	-0.523790	-0.312207
O17	O	1.115537	-0.523769	-0.403419
C18	C	0.955661	-0.357763	-0.357817
C19	C	0.866040	-0.357776	-0.357825
C20	C	0.537865	-0.357781	-0.357857
C21	C	0.629173	-0.357778	-0.357846
C22	C	0.701950	-0.357779	-0.357841
C23	C	0.793264	-0.357775	-0.357831
C24	C	1.165055	-0.550726	-0.357825
C25	C	1.165087	-0.633271	-0.357845
C26	C	1.111290	-0.832738	-0.407428
C27	C	1.091641	-0.882172	-0.339661
C28	C	1.165166	-0.784402	-0.357854
C29	C	1.184855	-0.882049	-0.425629
C30	C	1.165241	-0.930387	-0.357870
C31	C	1.145479	-0.832749	-0.290051
C32	C	1.238727	-0.832622	-0.376065
C33	C	1.219106	-0.882034	-0.308251
C34	C	1.165121	-0.700304	-0.357846
C35	C	1.165287	-1.014483	-0.357870
C36	C	1.375461	-0.357785	-0.357859
C37	C	1.465082	-0.357790	-0.357868
C38	C	1.165184	-0.357741	-0.551543
C39	C	1.165197	-0.357727	-0.634089
C40	C	1.165272	-0.164068	-0.357866
C41	C	1.165323	-0.081522	-0.357878
C42	C	1.111350	-0.407262	-0.833527
C43	C	1.184913	-0.425414	-0.882920
C44	C	1.165237	-0.357670	-0.785219
C45	C	1.091715	-0.339497	-0.882908
C46	C	1.165269	-0.357617	-0.931205
C47	C	1.238839	-0.375858	-0.833525
C48	C	1.145591	-0.289909	-0.833509
C49	C	1.219205	-0.308035	-0.882880
C50	C	1.165218	-0.357703	-0.701121
C51	C	1.165297	-0.357584	-1.015301
C52	C	1.165167	-0.357753	-0.164885
C53	C	1.165310	-0.357558	-0.082340
H54	H	1.065662	-0.811092	-0.449292
H55	H	1.128784	-0.811183	-0.232725
H56	H	1.301047	-0.391271	-0.811923
C57	C	1.008841	-0.989124	-0.318444
C58	C	1.007709	-0.911559	-0.318867
H59	H	0.957025	-1.007262	-0.305606
H60	H	1.023167	-1.006722	-0.366241
H61	H	1.047091	-1.005988	-0.283186
H62	H	0.969463	-0.894694	-0.354129
H63	H	0.993373	-0.893953	-0.271063
H64	H	1.065822	-0.449256	-0.811858
H65	H	1.029524	-0.324149	-0.904601
C66	C	1.150848	-0.554615	-0.887320
C67	C	1.207371	-0.502738	-0.912227
H68	H	1.164708	-0.602351	-0.905416
H69	H	1.150523	-0.555305	-0.834706
H70	H	1.098981	-0.541375	-0.904960
H71	H	1.259238	-0.515975	-0.894583
H72	H	1.207705	-0.502050	-0.964853
H73	H	1.264842	-0.266074	-0.904413
C74	C	1.259884	-0.886058	-0.180720
C75	C	1.280654	-0.911080	-0.251605
H76	H	1.297877	-0.903996	-0.145749
H77	H	1.259881	-0.833442	-0.180129
H78	H	1.207812	-0.903779	-0.168207
H79	H	1.332724	-0.893354	-0.264121
H80	H	1.280665	-0.963707	-0.252199
C81	C	1.046030	-0.193713	-0.829059
C82	C	1.123104	-0.212607	-0.804176
H83	H	1.032140	-0.145992	-0.810944
H84	H	1.045396	-0.193238	-0.881674
H85	H	1.008280	-0.229092	-0.811423
H86	H	1.160854	-0.177231	-0.821817
H87	H	1.123743	-0.213076	-0.751551
C88	C	1.374294	-0.862944	-0.410413
C89	C	1.322637	-0.803214	-0.396885
H90	H	1.426095	-0.844787	-0.423277
H91	H	1.378189	-0.892654	-0.367124
H92	H	1.353637	-0.891894	-0.450023
H93	H	1.343291	-0.774268	-0.357271
H94	H	1.318745	-0.773492	-0.440179
H95	H	1.201478	-0.903705	-0.482940
