data_functionalizedCrystal
_audit_creation_method	'MofGen! by Chris Wilmer'
_symmetry_space_group_name_H-M	'P1'
_symmetry_Int_Tables_number	1
_symmetry_cell_setting	triclinic
loop_
_symmetry_equiv_pos_as_xyz
  x,y,z
_cell_length_a	19.851628
_cell_length_b	21.606444
_cell_length_c	21.606444
_cell_angle_alpha	59.991153
_cell_angle_beta	90.003821
_cell_angle_gamma	60.001238
loop_
_atom_site_label
_atom_site_type_symbol
_atom_site_fract_x
_atom_site_fract_y
_atom_site_fract_z
Zr1	Zr	0.648968	0.677458	-0.081286
O2	O	0.541398	0.806602	-0.180143
O3	O	0.681944	0.548324	-0.050967
O4	O	0.681938	0.677460	-0.180111
O5	O	0.541410	0.677462	0.050855
O6	O	0.792798	0.677450	-0.180102
O7	O	0.541405	0.677466	-0.050999
O8	O	0.792809	0.446450	0.050913
O9	O	0.541399	0.908462	-0.180160
O10	O	0.778742	0.601428	-0.038047
O11	O	0.696012	0.601432	0.037959
O12	O	0.696005	0.753473	-0.114092
O13	O	0.613275	0.753477	-0.038085
Zr14	Zr	0.825787	0.677436	0.081173
Zr15	Zr	0.825778	0.677443	-0.081273
Zr16	Zr	0.648977	0.677451	0.081159
Zr17	Zr	0.648969	0.839914	-0.081314
Zr18	Zr	0.825786	0.514981	0.081200
O19	O	0.792811	0.806571	0.050853
O20	O	0.792799	0.806581	-0.180124
O21	O	0.541411	0.806592	0.050834
O22	O	0.933357	0.548293	0.180029
O23	O	0.933344	0.548303	-0.050947
O24	O	0.681957	0.548314	0.180010
O25	O	0.933345	0.677433	-0.050969
O26	O	0.792818	0.677435	0.179997
O27	O	0.681957	0.677444	0.179989
O28	O	0.933351	0.677429	0.050885
O29	O	0.681939	0.908450	-0.180149
O30	O	0.792816	0.446445	0.180036
O31	O	0.933356	0.446433	0.180046
O32	O	0.933349	0.446438	0.050924
O33	O	0.541406	0.908457	-0.051038
O34	O	0.681946	0.908445	-0.051027
O35	O	0.778750	0.601422	0.113978
O36	O	0.861480	0.601418	0.037972
O37	O	0.778743	0.753463	-0.038073
O38	O	0.696013	0.753466	0.037934
C39	C	0.737376	0.474241	-0.000023
C40	C	0.737376	0.405274	-0.000011
C41	C	0.676297	0.429017	-0.056144
C42	C	0.676299	0.364227	-0.056160
C43	C	0.737378	0.275696	-0.000039
C44	C	0.798463	0.251954	0.056097
C45	C	0.798464	0.316743	0.056109
C46	C	0.798463	-0.009332	0.056049
C47	C	0.798456	-0.074121	0.056034
C48	C	0.676298	0.038152	-0.056219
C49	C	0.676299	0.102941	-0.056208
C50	C	0.737386	0.079193	-0.000074
C51	C	0.737384	0.149446	-0.000059
C52	C	0.737377	0.205444	-0.000051
C53	C	0.516216	0.677466	-0.000074
C54	C	0.441156	0.677472	-0.000080
C55	C	0.169803	0.760355	-0.041523
C56	C	0.237267	0.718927	0.029952
C57	C	0.171010	0.677438	-0.000048
C58	C	0.237260	0.718909	-0.071528
C59	C	0.303739	0.677460	-0.000067
C60	C	0.237486	0.636010	0.071470
C61	C	0.237469	0.636004	-0.030062
C62	C	0.304946	0.594515	0.041455
C63	C	0.094547	0.677428	-0.000037
C64	C	0.380204	0.677463	-0.000069
C65	C	0.958539	0.677429	-0.000040
C66	C	1.033600	0.677422	-0.000034
C67	C	0.737366	0.677456	-0.203251
C68	C	0.737363	0.677459	-0.272214
C69	C	0.737379	0.880654	-0.000091
C70	C	0.737379	0.949621	-0.000102
C71	C	0.694174	0.756824	-0.344307
C72	C	0.694181	0.756822	-0.409102
C73	C	0.737373	0.677453	-0.401802
C74	C	0.780566	0.598082	-0.329701
C75	C	0.780563	0.598086	-0.264908
C76	C	0.780579	0.598067	-0.591004
C77	C	0.780577	0.598070	-0.655805
C78	C	0.694197	0.756803	-0.735198
C79	C	0.694194	0.756807	-0.670405
C80	C	0.737391	0.677436	-0.598310
C81	C	0.737384	0.677440	-0.528053
C82	C	0.737375	0.677449	-0.472058
C83	C	0.737389	0.677439	0.203138
C84	C	0.737393	0.677436	0.272100
C85	C	0.958538	0.474222	-0.000006
C86	C	1.033598	0.405249	0.000011
C87	C	0.737388	0.474232	0.203172
C88	C	0.737391	0.405263	0.272146
C89	C	0.958549	0.474213	0.203189
C90	C	1.033613	0.405238	0.272168
C91	C	0.516206	0.880682	-0.203302
C92	C	0.441142	0.949657	-0.272282
C93	C	0.516217	0.880673	-0.000108
C94	C	0.441157	0.949646	-0.000125
C95	C	0.737368	0.880663	-0.203285
C96	C	0.737364	0.949632	-0.272259
C97	C	1.025659	0.372864	-0.039668
C98	C	1.096178	0.308066	-0.039667
C99	C	1.174637	0.275649	0.000018
C100	C	1.182575	0.308041	0.039699
C101	C	1.112056	0.372842	0.039693
C102	C	0.780581	0.372868	0.344225
C103	C	0.780581	0.308073	0.409039
C104	C	0.737396	0.275669	0.401773
C105	C	0.694200	0.308070	0.329687
C106	C	0.694196	0.372868	0.264874
C107	C	1.112055	0.372844	0.264888
C108	C	1.182592	0.308043	0.329695
C109	C	1.174685	0.275632	0.401783
C110	C	1.096235	0.308032	0.409062
C111	C	1.025700	0.372837	0.344255
C112	C	0.362700	0.982059	-0.265001
C113	C	0.292163	1.046880	-0.329809
C114	C	0.300070	1.079294	-0.401896
C115	C	0.378520	1.046890	-0.409176
C116	C	0.449056	0.982074	-0.344369
C117	C	0.449097	0.982037	0.039548
C118	C	0.378577	1.046854	0.039529
C119	C	0.300118	1.079273	-0.000159
C120	C	0.292180	1.046878	-0.039837
C121	C	0.362699	0.982067	-0.039822
C122	C	0.780558	0.982016	-0.264969
C123	C	0.780571	1.046811	-0.329771
C124	C	0.737385	1.079227	-0.401863
C125	C	0.694190	1.046837	-0.409152
C126	C	0.694182	0.982038	-0.344350
H127	H	0.626551	0.501101	-0.101837
H128	H	0.737397	1.131990	-0.454622
Cl129	Cl	1.122052	0.413541	0.089588
H130	H	0.111947	0.830448	-0.076531
Cl131	Cl	0.875248	-0.185422	0.126591
H132	H	0.815759	0.281701	0.467728
Cl133	Cl	0.639866	0.941343	-0.353528
H134	H	1.089699	0.281701	-0.071980
Cl135	Cl	0.599507	0.394081	-0.126728
Cl136	Cl	0.547666	0.941342	-0.353536
Cl137	Cl	0.639893	1.087605	-0.499787
Cl138	Cl	0.388447	1.087645	-0.499806
Cl139	Cl	0.547722	0.941300	0.089444
H140	H	0.815748	0.399245	0.350155
H141	H	0.237931	0.753971	0.055334
Cl142	Cl	0.639883	0.856588	-0.679587
Cl143	Cl	0.394130	0.486209	0.095667
H144	H	0.236773	0.600992	-0.055462
Cl145	Cl	0.236600	0.581940	0.164833
H146	H	0.228292	1.073253	-0.323867
H147	H	0.737406	0.222906	0.454554
Cl148	Cl	0.834849	0.498287	-0.500379
H149	H	0.385056	1.073218	0.071842
Cl150	Cl	0.834873	1.087522	-0.320591
H151	H	0.626559	0.175025	-0.101904
Cl152	Cl	0.834880	0.498284	-0.646624
Cl153	Cl	0.211388	1.160776	-0.483362
H154	H	0.659040	0.281677	0.323782
H155	H	0.848198	0.179866	0.101788
H156	H	0.356223	0.955696	-0.072126
Cl157	Cl	0.211473	1.160748	-0.000168
H158	H	0.815726	0.955634	-0.206274
Cl159	Cl	0.599503	0.068004	-0.126790
Cl160	Cl	0.875252	-0.039195	0.126623
H161	H	1.089809	0.281634	0.467765
H162	H	0.848200	0.297405	0.101818
H163	H	0.659028	0.399235	0.206186
H164	H	0.815732	0.533458	-0.206207
Cl165	Cl	0.238249	0.773038	-0.164846
Cl166	Cl	0.193540	1.087639	-0.089723
H167	H	0.961780	0.399257	-0.071995
H168	H	0.658998	0.821455	-0.350260
H169	H	1.118509	0.399223	0.206196
Cl170	Cl	1.263368	0.194161	0.483248
Cl171	Cl	0.639883	0.856600	-0.499733
H172	H	1.232052	0.222883	0.000018
H173	H	0.659027	0.821431	-0.793907
Cl174	Cl	1.281215	0.267275	0.089591
H175	H	0.815738	0.533459	-0.323762
Cl176	Cl	1.281205	0.267321	0.320526
Cl177	Cl	0.927089	0.413547	0.353422
Cl178	Cl	0.352738	0.941323	-0.174384
