data_functionalizedCrystal
_audit_creation_method	'MofGen! by Chris Wilmer'
_symmetry_space_group_name_H-M	'P1'
_symmetry_Int_Tables_number	1
_symmetry_cell_setting	triclinic
loop_
_symmetry_equiv_pos_as_xyz
  x,y,z
_cell_length_a	21.395364
_cell_length_b	16.120444
_cell_length_c	21.395355
_cell_angle_alpha	92.881464
_cell_angle_beta	89.975448
_cell_angle_gamma	92.941529
loop_
_atom_site_label
_atom_site_type_symbol
_atom_site_fract_x
_atom_site_fract_y
_atom_site_fract_z
Zn1	Zn	0.945239	-0.331681	-0.366899
Zn2	Zn	1.445239	0.168319	0.133101
Zn3	Zn	0.939837	-0.471080	-0.267433
Zn4	Zn	1.439837	0.028920	0.232567
Zn5	Zn	0.840452	-0.331717	-0.262137
Zn6	Zn	1.340452	0.168283	0.237863
Zn7	Zn	0.835118	-0.471095	-0.372174
Zn8	Zn	1.335118	0.028905	0.127826
O9	O	0.890162	-0.401393	-0.317161
O10	O	1.390162	0.098607	0.182839
O11	O	1.032201	-0.350151	-0.353714
O12	O	1.532201	0.149849	0.146286
O13	O	0.926625	-0.452602	-0.179053
O14	O	1.426625	0.047398	0.320947
O15	O	0.858846	-0.215043	-0.271611
O16	O	1.358846	0.284957	0.228389
O17	O	1.028233	-0.452567	-0.280637
O18	O	1.528233	0.047433	0.219363
O19	O	0.935832	-0.215016	-0.348579
O20	O	1.435832	0.284984	0.151421
O21	O	0.853608	-0.350213	-0.175162
O22	O	1.353608	0.149787	0.324838
O23	O	0.752066	-0.350227	-0.276725
O24	O	1.252066	0.149773	0.223275
O25	O	0.849754	-0.452592	-0.459152
O26	O	1.349754	0.047408	0.040848
O27	O	0.748147	-0.452628	-0.357569
O28	O	1.248147	0.047372	0.142431
O29	O	0.930659	-0.350165	-0.455277
O30	O	1.430659	0.149835	0.044723
O31	O	0.921453	-0.587751	-0.285751
O32	O	1.421453	-0.087751	0.214249
O33	O	0.844517	-0.587762	-0.362704
O34	O	1.344517	-0.087762	0.137296
C35	C	0.727373	-0.401434	-0.317145
C36	C	1.227373	0.098566	0.182855
C37	C	0.657730	-0.401471	-0.317154
C38	C	1.157730	0.098529	0.182846
C39	C	0.627102	-0.348230	-0.355270
C40	C	1.127102	0.151770	0.144730
C41	C	0.561668	-0.348208	-0.355272
C42	C	1.061668	0.151792	0.144728
C43	C	0.526863	-0.401442	-0.317164
C44	C	1.026863	0.098558	0.182836
C45	C	0.557498	-0.454686	-0.279040
C46	C	1.057498	0.045314	0.220960
C47	C	0.622932	-0.454701	-0.279035
C48	C	1.122932	0.045299	0.220965
C49	C	0.420281	-0.476523	-0.314987
C50	C	0.920281	0.023477	0.185013
C51	C	0.354849	-0.476510	-0.314997
C52	C	0.854849	0.023490	0.185003
C53	C	0.325044	-0.401396	-0.317176
C54	C	0.825044	0.098604	0.182824
C55	C	0.360679	-0.326292	-0.319359
C56	C	0.860679	0.173708	0.180641
C57	C	0.426113	-0.326307	-0.319354
C58	C	0.926113	0.173693	0.180646
C59	C	0.455911	-0.401431	-0.317165
C60	C	0.955911	0.098569	0.182835
C61	C	0.223465	-0.348126	-0.355297
C62	C	0.723465	0.151874	0.144703
C63	C	0.158029	-0.348103	-0.355294
C64	C	0.658029	0.151897	0.144706
C65	C	0.153860	-0.454588	-0.279065
C66	C	0.653860	0.045412	0.220935
C67	C	0.219295	-0.454604	-0.279064
C68	C	0.719295	0.045396	0.220936
C69	C	0.254093	-0.401375	-0.317184
C70	C	0.754093	0.098625	0.182816
C71	C	0.881837	-0.618007	-0.325388
C72	C	1.381837	-0.118007	0.174612
C73	C	0.878333	-0.710676	-0.328929
C74	C	1.378333	-0.210676	0.171071
C75	C	0.908493	-0.921598	-0.298929
C76	C	1.408493	-0.421598	0.201071
C77	C	0.871947	-0.880337	-0.335400
C78	C	1.371947	-0.380337	0.164600
C79	C	0.875501	-0.785929	-0.331798
C80	C	1.375501	-0.285929	0.168202
C81	C	0.904939	-1.016015	-0.302530
C82	C	1.404939	-0.516015	0.197470
C83	C	1.053587	-0.401353	-0.317178
C84	C	1.553587	0.098647	0.182822
C85	C	1.123228	-0.401336	-0.317185
C86	C	1.623228	0.098664	0.182815
C87	C	0.890214	-0.401376	-0.480584
C88	C	1.390214	0.098624	0.019416
C89	C	0.890237	-0.401369	-0.550225
C90	C	1.390237	0.098631	-0.050225
C91	C	0.898536	-0.183933	-0.308915
C92	C	1.398536	0.316067	0.191085
C93	C	0.902105	-0.091264	-0.305402
C94	C	1.402105	0.408736	0.194598
C95	C	0.932362	-0.348033	-0.580921
C96	C	1.432362	0.151967	-0.080921
C97	C	0.932363	-0.347997	-0.646355
C98	C	1.432363	0.152003	-0.146355
C99	C	0.890244	-0.401312	-0.681091
C100	C	1.390244	0.098688	-0.181091
C101	C	0.848110	-0.454652	-0.650387
C102	C	1.348110	0.045348	-0.150387
C103	C	0.848107	-0.454680	-0.584954
C104	C	1.348107	0.045320	-0.084954
C105	C	0.882412	-0.476383	-0.787617
C106	C	1.382412	0.023617	-0.287617
C107	C	0.882419	-0.476356	-0.853049
C108	C	1.382419	0.023644	-0.353049
C109	C	0.890251	-0.401224	-0.882909
C110	C	1.390251	0.098776	-0.382909
C111	C	0.898088	-0.326117	-0.847328
C112	C	1.398088	0.173883	-0.347328
C113	C	0.898085	-0.326145	-0.781895
C114	C	1.398085	0.173855	-0.281895
C115	C	0.890243	-0.401287	-0.752042
C116	C	1.390243	0.098713	-0.252042
C117	C	0.932380	-0.347845	-0.984556
C118	C	1.432380	0.152155	-0.484556
C119	C	0.932376	-0.347807	-1.049991
C120	C	1.432376	0.152193	-0.549991
C121	C	0.848126	-0.454470	-1.054022
C122	C	1.348126	0.045530	-0.554022
C123	C	0.848127	-0.454499	-0.988588
C124	C	1.348127	0.045501	-0.488588
C125	C	0.890257	-0.401188	-0.953858
C126	C	1.390257	0.098812	-0.453858
C127	C	0.890148	-0.401350	-0.154372
C128	C	1.390148	0.098650	0.345628
C129	C	0.890256	-0.401122	-0.084722
C130	C	1.390256	0.098878	0.415278
H131	H	0.444543	-0.537695	-0.313212
H132	H	0.944543	-0.037695	0.186788
Br133	Br	0.116462	-0.275835	-0.407023
Br134	Br	0.616462	0.224165	0.092977
H135	H	0.536726	-0.304849	-0.386310
H136	H	1.036726	0.195151	0.113690
H137	H	0.942447	-0.886024	-0.265002
H138	H	1.442447	-0.386024	0.234998
H139	H	0.244232	-0.497962	-0.248028
H140	H	0.744232	0.002038	0.251972
Br141	Br	0.106632	-0.526826	-0.227339
Br142	Br	0.606632	-0.026826	0.272661
Br143	Br	0.306494	-0.578435	-0.312048
Br144	Br	0.806494	-0.078435	0.187952
H145	H	0.837990	-0.915915	-0.369328
H146	H	1.337990	-0.415915	0.130672
Br147	Br	0.510265	-0.526926	-0.227316
Br148	Br	1.010265	-0.026926	0.272684
H149	H	0.647868	-0.498057	-0.247995
H150	H	1.147868	0.001943	0.252005
H151	H	0.813815	-0.498059	-0.678673
H152	H	1.313815	0.001941	-0.178673
Br153	Br	0.989536	-0.275679	-0.533791
Br154	Br	1.489536	0.224321	-0.033791
Br155	Br	0.871792	-0.578287	-0.901330
Br156	Br	1.371792	-0.078287	-0.401330
H157	H	0.655431	-0.304886	-0.386309
H158	H	1.155431	0.195114	0.113691
Br159	Br	0.871801	-0.578360	-0.747100
Br160	Br	1.371801	-0.078360	-0.247100
H161	H	0.966666	-0.304560	-0.671353
H162	H	1.466666	0.195440	-0.171353
H163	H	0.904464	-0.264990	-0.752928
H164	H	1.404464	0.235010	-0.252928
Br165	Br	0.908723	-0.224144	-0.887843
Br166	Br	1.408723	0.275856	-0.387843
Br167	Br	0.989552	-0.275493	-0.937419
Br168	Br	1.489552	0.224507	-0.437419
Br169	Br	0.989561	-0.275429	-1.091652
Br170	Br	1.489561	0.224571	-0.591652
Br171	Br	0.790956	-0.526817	-1.101156
Br172	Br	1.290956	-0.026817	-0.601156
H173	H	0.813800	-0.498112	-0.559962
H174	H	1.313800	0.001888	-0.059962
Br175	Br	0.474473	-0.224387	-0.322314
Br176	Br	0.974473	0.275613	0.177686
Br177	Br	0.320238	-0.224344	-0.322318
Br178	Br	0.820238	0.275656	0.177682
Br179	Br	0.790954	-0.526890	-0.946925
Br180	Br	1.290954	-0.026890	-0.446925
Br181	Br	0.270695	-0.275883	-0.407024
Br182	Br	0.770695	0.224117	0.092976
