data_functionalizedCrystal
_audit_creation_method	'MofGen! by Chris Wilmer'
_symmetry_space_group_name_H-M	'P1'
_symmetry_Int_Tables_number	1
_symmetry_cell_setting	triclinic
loop_
_symmetry_equiv_pos_as_xyz
  x,y,z
_cell_length_a	19.288864
_cell_length_b	16.109301
_cell_length_c	17.766277
_cell_angle_alpha	89.993626
_cell_angle_beta	89.976791
_cell_angle_gamma	83.298915
loop_
_atom_site_label
_atom_site_type_symbol
_atom_site_fract_x
_atom_site_fract_y
_atom_site_fract_z
O1	O	0.921601	0.103716	-0.062836
O2	O	1.421601	0.603716	0.437164
O3	O	0.719374	0.117707	-0.062784
O4	O	1.219374	0.617707	0.437216
O5	O	0.826042	-0.010338	-0.062806
O6	O	1.326042	0.489662	0.437194
O7	O	0.814932	0.231761	-0.062814
O8	O	1.314932	0.731761	0.437186
O9	O	0.826024	-0.010345	0.062382
O10	O	1.326024	0.489655	0.562382
O11	O	0.719355	0.117701	0.062404
O12	O	1.219355	0.617701	0.562404
O13	O	0.921582	0.103709	0.062353
O14	O	1.421582	0.603709	0.562353
Cu15	Cu	0.820467	0.110704	0.073809
Cu16	Cu	1.320467	0.610704	0.573809
Cu17	Cu	0.820489	0.110712	-0.074241
Cu18	Cu	1.320489	0.610712	0.425759
O19	O	0.814913	0.231755	0.062375
O20	O	1.314913	0.731755	0.562375
C21	C	0.693487	0.117254	-0.000183
C22	C	1.193487	0.617254	0.499817
C23	C	0.616380	0.115902	-0.000164
C24	C	1.116380	0.615902	0.499836
C25	C	0.571863	0.191034	-0.000178
C26	C	1.071863	0.691034	0.499822
C27	C	0.499413	0.189764	-0.000186
C28	C	0.999413	0.689764	0.499814
C29	C	0.471483	0.113359	-0.000195
C30	C	0.971483	0.613359	0.499805
C31	C	0.516010	0.038218	-0.000177
C32	C	1.016010	0.538218	0.499823
C33	C	0.588458	0.039489	-0.000161
C34	C	1.088458	0.539489	0.499839
C35	C	0.363084	0.053298	-0.044078
C36	C	0.863084	0.553298	0.455922
C37	C	0.290636	0.052029	-0.044098
C38	C	0.790636	0.552029	0.455902
C39	C	0.248028	0.109433	-0.000241
C40	C	0.748028	0.609433	0.499759
C41	C	0.277874	0.168120	0.043628
C42	C	0.777874	0.668120	0.543628
C43	C	0.350323	0.169391	0.043644
C44	C	0.850323	0.669391	0.543644
C45	C	0.392926	0.111971	-0.000212
C46	C	0.892926	0.611971	0.499788
C47	C	0.124952	0.183193	-0.000263
C48	C	0.624952	0.683193	0.499737
C49	C	0.052501	0.181920	-0.000266
C50	C	0.552501	0.681920	0.499734
C51	C	0.069099	0.030372	-0.000265
C52	C	0.569099	0.530372	0.499735
C53	C	0.141548	0.031647	-0.000254
C54	C	0.641548	0.531647	0.499746
C55	C	0.169470	0.108060	-0.000256
C56	C	0.669470	0.608060	0.499744
C57	C	0.825583	-0.041315	-0.000212
C58	C	1.325583	0.458685	0.499788
C59	C	0.824234	-0.133606	-0.000213
C60	C	1.324234	0.366394	0.499787
C61	C	0.883118	-0.442805	-0.000241
C62	C	1.383118	0.057195	0.499759
C63	C	0.884392	-0.356090	-0.000237
C64	C	1.384392	0.143910	0.499763
C65	C	0.757833	-0.335783	-0.000195
C66	C	1.257833	0.164217	0.499805
C67	C	0.756559	-0.422498	-0.000193
C68	C	1.256559	0.077502	0.499807
C69	C	0.819204	-0.476007	-0.000220
C70	C	1.319204	0.023993	0.499780
C71	C	0.821752	-0.302577	-0.000218
C72	C	1.321752	0.197423	0.499782
C73	C	0.823133	-0.208555	-0.000213
C74	C	1.323133	0.291445	0.499787
C75	C	0.817823	-0.570034	-0.000223
C76	C	1.317823	-0.070034	0.499777
C77	C	0.947469	0.104163	-0.000250
C78	C	1.447469	0.604163	0.499750
C79	C	1.024576	0.105514	-0.000274
C80	C	1.524576	0.605514	0.499726
C81	C	0.815373	0.262732	-0.000221
C82	C	1.315373	0.762732	0.499779
C83	C	0.816722	0.355022	-0.000225
C84	C	1.316722	0.855022	0.499775
N85	N	0.820456	0.110699	0.177940
N86	N	1.320456	0.610699	0.677940
N87	N	0.820505	0.110711	-0.178371
N88	N	1.320505	0.610711	0.321629
C89	C	0.867704	0.054028	0.217317
C90	C	1.367704	0.554028	0.717317
C91	C	0.867708	0.054024	0.296119
C92	C	1.367708	0.554024	0.796119
C93	C	0.820471	0.110705	0.335540
C94	C	1.320471	0.610705	0.835540
C95	C	0.773214	0.167380	0.296154
C96	C	1.273214	0.667380	0.796154
C97	C	0.773206	0.167377	0.217353
C98	C	1.273206	0.667377	0.717353
C99	C	0.811353	0.186459	0.460377
C100	C	1.311353	0.686459	0.960377
C101	C	0.811365	0.186463	0.539176
C102	C	1.311365	0.686463	1.039176
C103	C	0.820489	0.110715	0.578587
C104	C	1.320489	0.610715	1.078587
C105	C	0.829616	0.034960	0.539188
C106	C	1.329616	0.534960	1.039188
C107	C	0.829609	0.034956	0.460388
C108	C	1.329609	0.534956	0.960388
C109	C	0.820473	0.110715	0.420986
C110	C	1.320473	0.610715	0.920986
C111	C	0.867745	0.054035	0.703410
C112	C	1.367745	0.554035	1.203410
C113	C	0.867744	0.054030	0.782213
C114	C	1.367744	0.554030	1.282213
C115	C	0.773252	0.167394	0.782246
C116	C	1.273252	0.667394	1.282246
C117	C	0.773250	0.167392	0.703445
C118	C	1.273250	0.667392	1.203445
C119	C	0.820500	0.110713	0.664031
C120	C	1.320500	0.610713	1.164031
H121	H	0.374621	0.217173	0.079365
H122	H	0.874621	0.717173	0.579365
Cl123	Cl	0.964745	-0.314355	-0.000266
Cl124	Cl	1.464745	0.185645	0.499734
Cl125	Cl	0.644425	-0.054970	-0.000144
Cl126	Cl	1.144425	0.445030	0.499856
H127	H	0.906185	0.007874	0.328185
H128	H	1.406185	0.507874	0.828185
Cl129	Cl	0.961870	-0.510071	-0.000271
Cl130	Cl	1.461870	-0.010071	0.499729
Cl131	Cl	0.679084	-0.268510	-0.000167
Cl132	Cl	1.179084	0.231490	0.499833
H133	H	0.704510	-0.449530	-0.000173
H134	H	1.204510	0.050470	0.499827
Cl135	Cl	0.841074	-0.060274	0.410861
Cl136	Cl	1.341074	0.439726	0.910861
H137	H	0.397771	0.006551	-0.079797
H138	H	0.897771	0.506551	0.420203
H139	H	0.803938	0.248147	0.571248
H140	H	1.303938	0.748147	1.071248
Cl141	Cl	0.927099	-0.017228	0.167769
Cl142	Cl	1.427099	0.482772	0.667769
H143	H	0.046359	-0.031839	-0.000319
H144	H	0.546359	0.468161	0.499681
H145	H	0.493264	-0.023992	-0.000195
H146	H	0.993264	0.476008	0.499805
H147	H	0.837046	-0.026722	0.571274
H148	H	1.337046	0.473278	1.071274
Cl149	Cl	0.799946	0.281696	0.410841
Cl150	Cl	1.299946	0.781696	0.910841
Cl151	Cl	0.927140	-0.017221	0.653860
Cl152	Cl	1.427140	0.482779	1.153860
H153	H	0.906217	0.007878	0.814274
H154	H	1.406217	0.507878	1.314274
H155	H	0.734788	0.213542	0.814343
H156	H	1.234788	0.713542	1.314343
H157	H	0.734779	0.213542	0.671382
H158	H	1.234779	0.713542	1.171382
Cl159	Cl	0.713826	0.238634	0.345710
Cl160	Cl	1.213826	0.738634	0.845710
Cl161	Cl	0.160057	0.279253	-0.000258
Cl162	Cl	0.660057	0.779253	0.499742
H163	H	0.243183	0.214863	0.079341
H164	H	0.743183	0.714863	0.579341
Cl165	Cl	0.713804	0.238627	0.167847
Cl166	Cl	1.213804	0.738627	0.667847
Cl167	Cl	0.606961	0.287095	-0.000177
Cl168	Cl	1.106961	0.787095	0.499823
H169	H	0.016255	0.243104	-0.000273
H170	H	0.516255	0.743104	0.499727
Cl171	Cl	0.197516	-0.062810	-0.000241
Cl172	Cl	0.697516	0.437190	0.499759
Cl173	Cl	0.443438	0.284222	-0.000202
Cl174	Cl	0.943438	0.784222	0.499798
H175	H	0.266341	0.004247	-0.079822
H176	H	0.766341	0.504247	0.420178
