data_functionalizedCrystal
_audit_creation_method	'MofGen! by Chris Wilmer'
_symmetry_space_group_name_H-M	'P1'
_symmetry_Int_Tables_number	1
_symmetry_cell_setting	triclinic
loop_
_symmetry_equiv_pos_as_xyz
  x,y,z
_cell_length_a	12.837943
_cell_length_b	13.339070
_cell_length_c	11.295483
_cell_angle_alpha	95.212346
_cell_angle_beta	85.461227
_cell_angle_gamma	105.229117
loop_
_atom_site_label
_atom_site_type_symbol
_atom_site_fract_x
_atom_site_fract_y
_atom_site_fract_z
O1	O	1.458416	0.264173	-0.098995
O2	O	1.958416	0.764173	0.401005
O3	O	1.152768	0.250811	-0.099002
O4	O	1.652768	0.750811	0.400998
O5	O	1.270513	0.106847	-0.098996
O6	O	1.770513	0.606847	0.401004
O7	O	1.340670	0.408137	-0.099001
O8	O	1.840670	0.908137	0.400999
O9	O	1.260165	0.119470	0.099055
O10	O	1.760165	0.619470	0.599055
O11	O	1.142420	0.263434	0.099048
O12	O	1.642420	0.763434	0.599048
O13	O	1.448068	0.276796	0.099056
O14	O	1.948068	0.776796	0.599056
Cu15	Cu	1.294299	0.271267	0.117135
Cu16	Cu	1.794299	0.771267	0.617135
Cu17	Cu	1.306537	0.256339	-0.117082
Cu18	Cu	1.806537	0.756339	0.382918
O19	O	1.330322	0.420760	0.099049
O20	O	1.830322	0.920760	0.599049
C21	C	1.107675	0.252608	0.000022
C22	C	1.607675	0.752608	0.500022
C23	C	0.988726	0.239146	0.000019
C24	C	1.488726	0.739146	0.500019
C25	C	0.794315	0.400986	0.000033
C26	C	1.294315	0.900986	0.500033
C27	C	0.682553	0.388342	0.000031
C28	C	1.182553	0.888342	0.500031
C29	C	0.653436	0.201215	0.000022
C30	C	1.153436	0.701215	0.500022
C31	C	0.765199	0.213859	0.000024
C32	C	1.265199	0.713859	0.500024
C33	C	0.835635	0.313748	0.000028
C34	C	1.335635	0.813748	0.500028
C35	C	0.947400	0.326391	0.000021
C36	C	1.447400	0.826391	0.500021
C37	C	0.918281	0.139265	0.000020
C38	C	1.418281	0.639265	0.500020
C39	C	0.806518	0.126621	0.000018
C40	C	1.306518	0.626621	0.500018
C41	C	1.253488	0.074327	0.000027
C42	C	1.753488	0.574327	0.500027
C43	C	1.218164	-0.041381	0.000022
C44	C	1.718164	0.458619	0.500022
C45	C	1.492830	-0.379696	0.000029
C46	C	1.992830	0.120304	0.500029
C47	C	1.526022	-0.270983	0.000041
C48	C	2.026022	0.229017	0.500041
C49	C	1.449060	-0.213577	0.000036
C50	C	1.949060	0.286423	0.500036
C51	C	1.338901	-0.264895	0.000019
C52	C	1.838901	0.235105	0.500019
C53	C	1.305705	-0.373618	0.000017
C54	C	1.805705	0.126382	0.500017
C55	C	1.261935	-0.207499	0.000024
C56	C	1.761935	0.292501	0.500024
C57	C	1.151776	-0.258817	0.000007
C58	C	1.651776	0.241183	0.500007
C59	C	1.118585	-0.367530	0.000004
C60	C	1.618585	0.132470	0.500004
C61	C	1.195547	-0.424936	0.000009
C62	C	1.695547	0.075064	0.500009
C63	C	1.295131	-0.098776	0.000026
C64	C	1.795131	0.401224	0.500026
C65	C	1.108006	-0.092698	0.000014
C66	C	1.608006	0.407302	0.500014
C67	C	1.074814	-0.201411	0.000002
C68	C	1.574814	0.298589	0.500002
C69	C	1.493161	0.274998	0.000029
C70	C	1.993161	0.774998	0.500029
C71	C	1.612110	0.288460	0.000024
C72	C	2.112110	0.788460	0.500024
C73	C	1.347347	0.453280	0.000023
C74	C	1.847347	0.953280	0.500023
C75	C	1.382672	0.568987	0.000021
C76	C	1.882672	1.068987	0.500021
N77	N	1.285699	0.281767	0.281871
N78	N	1.785699	0.781767	0.781871
N79	N	1.315142	0.245832	-0.281818
N80	N	1.815142	0.745832	0.218182
C81	C	1.377032	0.170190	0.531166
C82	C	1.877032	0.670190	1.031166
C83	C	1.370543	0.178133	0.655829
C84	C	1.870543	0.678133	1.155829
C85	C	1.266225	0.305590	0.655863
C86	C	1.766225	0.805590	1.155863
C87	C	1.272714	0.297647	0.531200
C88	C	1.772714	0.797647	1.031200
C89	C	1.328121	0.229946	0.468856
C90	C	1.828121	0.729946	0.968856
C91	C	1.334616	0.222009	0.344190
C92	C	1.834616	0.722009	0.844190
C93	C	1.230293	0.349460	0.344227
C94	C	1.730293	0.849460	0.844227
C95	C	1.223804	0.357403	0.468890
C96	C	1.723804	0.857403	0.968890
H97	H	0.648916	0.459381	0.000039
H98	H	1.148916	0.959381	0.500039
H99	H	1.615714	-0.229207	0.000056
H100	H	2.115714	0.270793	0.500056
H101	H	1.221105	0.360703	0.706641
H102	H	1.721105	0.860703	1.206641
H103	H	1.168527	-0.513460	-0.000005
H104	H	1.668527	-0.013460	0.499995
Br105	Br	1.597263	-0.457605	0.000065
Br106	Br	2.097263	0.042395	0.500065
H107	H	0.749154	0.045295	0.000029
H108	H	1.249154	0.545295	0.500029
Br109	Br	1.163923	0.430571	0.259652
Br110	Br	1.663923	0.930571	0.759652
H111	H	1.028886	-0.409309	-0.000001
H112	H	1.528886	0.090691	0.499999
H113	H	0.951934	0.068229	0.000008
H114	H	1.451934	0.568229	0.500008
H115	H	0.596064	0.119897	0.000117
H116	H	1.096064	0.619897	0.500117
H117	H	1.384823	-0.057004	0.000040
H118	H	1.884823	0.442996	0.500040
H119	H	1.476092	-0.125058	0.000046
H120	H	1.976092	0.374942	0.500046
H121	H	1.178689	0.412521	0.519665
H122	H	1.678689	0.912521	1.019665
H123	H	0.985120	-0.243210	-0.000011
H124	H	1.485120	0.256790	0.499989
Br125	Br	1.003549	-0.014799	0.000020
Br126	Br	1.503549	0.485201	0.500020
H127	H	1.379734	0.166887	0.293430
H128	H	1.879734	0.666887	0.793430
H129	H	1.422155	0.115073	0.480404
H130	H	1.922155	0.615073	0.980404
Br131	Br	1.436918	0.097027	0.740391
Br132	Br	1.936918	0.597027	1.240391
Br133	Br	1.042991	0.461950	0.000019
Br134	Br	1.542991	0.961950	0.500019
H135	H	0.851666	0.482319	0.000035
H136	H	1.351666	0.982319	0.500035
