data_functionalizedCrystal
_audit_creation_method	'MofGen! by Chris Wilmer'
_symmetry_space_group_name_H-M	'P1'
_symmetry_Int_Tables_number	1
_symmetry_cell_setting	triclinic
loop_
_symmetry_equiv_pos_as_xyz
  x,y,z
_cell_length_a	12.759401
_cell_length_b	29.839131
_cell_length_c	12.759393
_cell_angle_alpha	89.963184
_cell_angle_beta	89.979062
_cell_angle_gamma	90.042945
loop_
_atom_site_label
_atom_site_type_symbol
_atom_site_fract_x
_atom_site_fract_y
_atom_site_fract_z
Zn1	Zn	1.606071	-0.178813	-0.593974
Zn2	Zn	2.106071	0.321187	-0.093974
Zn3	Zn	1.605880	-0.253950	-0.418275
Zn4	Zn	2.105880	0.246050	0.081725
Zn5	Zn	1.430370	-0.178837	-0.418309
Zn6	Zn	1.930370	0.321163	0.081691
Zn7	Zn	1.430280	-0.253919	-0.593912
Zn8	Zn	1.930280	0.246081	-0.093912
O9	O	1.518150	-0.216380	-0.506117
O10	O	2.018150	0.283620	-0.006117
O11	O	1.753067	-0.188784	-0.570679
O12	O	2.253067	0.311216	-0.070679
O13	O	1.582556	-0.244010	-0.271258
O14	O	2.082556	0.255990	0.228742
O15	O	1.453795	-0.115967	-0.441652
O16	O	1.953795	0.384033	0.058348
O17	O	1.752927	-0.243986	-0.441593
O18	O	2.252927	0.256014	0.058407
O19	O	1.582882	-0.115949	-0.570712
O20	O	2.082882	0.384051	-0.070712
O21	O	1.453610	-0.188824	-0.271283
O22	O	1.953610	0.311176	0.228717
O23	O	1.283337	-0.188794	-0.441592
O24	O	1.783337	0.311206	0.058408
O25	O	1.453641	-0.243933	-0.740941
O26	O	1.953641	0.256067	-0.240941
O27	O	1.283271	-0.243956	-0.570606
O28	O	1.783271	0.256044	-0.070606
O29	O	1.582794	-0.188753	-0.740987
O30	O	2.082794	0.311247	-0.240987
O31	O	1.582469	-0.316813	-0.441533
O32	O	2.082469	0.183187	0.058467
O33	O	1.453456	-0.316790	-0.570573
O34	O	1.953456	0.183210	-0.070573
C35	C	1.245183	-0.216375	-0.506097
C36	C	1.745183	0.283625	-0.006097
C37	C	1.128406	-0.216383	-0.506113
C38	C	1.628406	0.283617	-0.006113
C39	C	1.073538	-0.245150	-0.573185
C40	C	1.573538	0.254850	-0.073185
C41	C	0.963813	-0.245151	-0.573206
C42	C	1.463813	0.254849	-0.073206
C43	C	0.963837	-0.187618	-0.439073
C44	C	1.463837	0.312382	0.060927
C45	C	1.073559	-0.187615	-0.439058
C46	C	1.573559	0.312385	0.060942
C47	C	1.517961	-0.333103	-0.506065
C48	C	2.017961	0.166897	-0.006065
C49	C	1.517976	-0.383037	-0.506078
C50	C	2.017976	0.116963	-0.006078
C51	C	1.585450	-0.692680	-0.439024
C52	C	2.085450	-0.192680	0.060976
C53	C	1.585579	-0.880353	-0.439065
C54	C	2.085579	-0.380353	0.060935
O55	O	1.642798	-0.904617	-0.382014
O56	O	2.142798	-0.404617	0.117986
N57	N	1.518368	-0.903822	-0.506197
N58	N	2.018368	-0.403822	-0.006197
C59	C	1.451125	-0.880370	-0.573327
C60	C	1.951125	-0.380370	-0.073327
O61	O	1.393969	-0.904638	-0.630435
O62	O	1.893969	-0.404638	-0.130435
C63	C	1.451001	-0.692698	-0.573291
C64	C	1.951001	-0.192698	-0.073291
C65	C	1.518209	-0.669231	-0.506148
C66	C	2.018209	-0.169231	-0.006148
C67	C	1.652653	-0.669213	-0.371888
C68	C	2.152653	-0.169213	0.128112
C69	C	1.652616	-0.622297	-0.371874
C70	C	2.152616	-0.122297	0.128126
C71	C	1.585375	-0.598849	-0.438997
C72	C	2.085375	-0.098849	0.061003
C73	C	1.518172	-0.622316	-0.506134
C74	C	2.018172	-0.122316	-0.006134
C75	C	1.383764	-0.669247	-0.640427
C76	C	1.883764	-0.169247	-0.140427
C77	C	1.383741	-0.622326	-0.640413
C78	C	1.883741	-0.122326	-0.140413
C79	C	1.450949	-0.598859	-0.573270
C80	C	1.950949	-0.098859	-0.073270
C81	C	1.450895	-0.551952	-0.573244
C82	C	1.950895	-0.051952	-0.073244
N83	N	1.518106	-0.528482	-0.506113
N84	N	2.018106	-0.028482	-0.006113
C85	C	1.585346	-0.551931	-0.438989
C86	C	2.085346	-0.051931	0.061011
C87	C	1.451193	-0.978901	-0.573340
C88	C	1.951193	-0.478901	-0.073340
C89	C	1.451223	-1.025819	-0.573348
C90	C	1.951223	-0.525819	-0.073348
C91	C	1.585679	-1.025798	-0.439087
C92	C	2.085679	-0.525798	0.060913
C93	C	1.585643	-0.978879	-0.439075
C94	C	2.085643	-0.478879	0.060925
C95	C	1.518404	-0.955431	-0.506209
C96	C	2.018404	-0.455431	-0.006209
C97	C	1.585262	-0.453405	-0.438965
C98	C	2.085262	0.046595	0.061035
C99	C	1.585216	-0.406486	-0.438955
C100	C	2.085216	0.093514	0.061045
C101	C	1.450764	-0.406510	-0.573219
C102	C	1.950764	0.093490	-0.073219
C103	C	1.450806	-0.453426	-0.573226
C104	C	1.950806	0.046574	-0.073226
C105	C	1.518064	-0.476872	-0.506096
C106	C	2.018064	0.023128	-0.006096
O107	O	1.393715	-0.527659	-0.630274
O108	O	1.893715	-0.027659	-0.130274
O109	O	1.642510	-0.527655	-0.381907
O110	O	2.142510	-0.027655	0.118093
C111	C	1.585487	-0.739595	-0.439038
C112	C	2.085487	-0.239595	0.060962
C113	C	1.518284	-0.763062	-0.506175
C114	C	2.018284	-0.263062	-0.006175
C115	C	1.451043	-0.739613	-0.573298
C116	C	1.951043	-0.239613	-0.073298
C117	C	1.518313	-0.809980	-0.506183
C118	C	2.018313	-0.309980	-0.006183
C119	C	1.585553	-0.833428	-0.439060
C120	C	2.085553	-0.333428	0.060940
C121	C	1.652764	-0.809959	-0.371928
C122	C	2.152764	-0.309959	0.128072
C123	C	1.652727	-0.763044	-0.371915
C124	C	2.152727	-0.263044	0.128085
C125	C	1.383832	-0.763083	-0.640430
C126	C	1.883832	-0.263083	-0.140430
C127	C	1.383874	-0.809998	-0.640437
C128	C	1.883874	-0.309998	-0.140437
C129	C	1.451114	-0.833447	-0.573314
C130	C	1.951114	-0.333447	-0.073314
C131	C	1.792184	-0.216386	-0.506139
C132	C	2.292184	0.283614	-0.006139
C133	C	1.908960	-0.216388	-0.506148
C134	C	2.408960	0.283612	-0.006148
C135	C	1.518229	-0.216337	-0.780151
C136	C	2.018229	0.283663	-0.280151
C137	C	1.518263	-0.216318	-0.896928
C138	C	2.018263	0.283682	-0.396928
C139	C	1.518370	-0.099202	-0.506193
C140	C	2.018370	0.400798	-0.006193
C141	C	1.518463	-0.049267	-0.506225
C142	C	2.018463	0.450733	-0.006225
C143	C	1.585518	-0.187582	-0.951815
C144	C	2.085518	0.312418	-0.451815
C145	C	1.585535	-0.187562	-1.061539
C146	C	2.085535	0.312438	-0.561539
C147	C	1.451040	-0.245020	-1.061479
C148	C	1.951040	0.254980	-0.561479
C149	C	1.451018	-0.245037	-0.951757
C150	C	1.951018	0.254963	-0.451757
C151	C	1.518133	-0.216391	-0.233150
C152	C	2.018133	0.283609	0.266850
C153	C	1.518303	-0.216282	-0.116374
C154	C	2.018303	0.283718	0.383626
H155	H	1.639945	-0.387380	-0.384275
H156	H	2.139945	0.112620	0.115725
H157	H	1.640370	-0.959775	-0.384402
H158	H	2.140370	-0.459775	0.115598
H159	H	1.640300	-0.164161	-1.106224
H160	H	2.140300	0.335839	-0.606224
H161	H	1.329136	-0.829101	-0.695112
H162	H	1.829136	-0.329101	-0.195112
O163	O	1.311303	-0.737792	-0.712825
O164	O	1.811303	-0.237792	-0.212825
H165	H	1.257867	-0.716456	-0.665740
H166	H	1.757867	-0.216456	-0.165740
H167	H	0.919167	-0.164197	-0.384478
H168	H	1.419167	0.335803	0.115522
O169	O	1.378515	-0.275996	-1.120614
O170	O	1.878515	0.224004	-0.620614
H171	H	1.389834	-0.271159	-1.206133
H172	H	1.889834	0.228841	-0.706133
O173	O	1.658033	-0.156605	-0.892672
O174	O	2.158033	0.343395	-0.392672
H175	H	1.704795	-0.136617	-0.949278
H176	H	2.204795	0.363383	-0.449278
O177	O	1.378445	-0.276020	-0.892544
O178	O	1.878445	0.223980	-0.392544
H179	H	1.331689	-0.295987	-0.949102
H180	H	1.831689	0.204013	-0.449102
H181	H	0.919144	-0.268576	-0.627824
H182	H	1.419144	0.231424	-0.127824
O183	O	1.132700	-0.276171	-0.645516
O184	O	1.632700	0.223829	-0.145516
H185	H	1.076108	-0.296171	-0.692167
H186	H	1.576108	0.203829	-0.192167
O187	O	1.132752	-0.156593	-0.366697
O188	O	1.632752	0.343407	0.133303
H189	H	1.076181	-0.136597	-0.320056
H190	H	1.576181	0.363403	0.179944
O191	O	1.657793	-0.478691	-0.366554
O192	O	2.157793	0.021309	0.133446
H193	H	1.704503	-0.454484	-0.319866
H194	H	2.204503	0.045516	0.180134
O195	O	1.725120	-0.596989	-0.299471
O196	O	2.225120	-0.096989	0.200529
H197	H	1.771886	-0.621183	-0.252815
H198	H	2.271886	-0.121183	0.247185
O199	O	1.658204	-1.051096	-0.366693
O200	O	2.158204	-0.551096	0.133307
H201	H	1.704940	-1.026899	-0.320002
H202	H	2.204940	-0.526899	0.179998
O203	O	1.725175	-0.694501	-0.299477
O204	O	2.225175	-0.194501	0.200523
H205	H	1.771887	-0.670293	-0.252793
H206	H	2.271887	-0.170293	0.247207
H207	H	1.396437	-0.959813	-0.628010
H208	H	1.896437	-0.459813	-0.128010
O209	O	1.378728	-1.051128	-0.645759
O210	O	1.878728	-0.551128	-0.145759
H211	H	1.331978	-1.026936	-0.692436
H212	H	1.831978	-0.526936	-0.192436
O213	O	1.311282	-0.694551	-0.712853
O214	O	1.811282	-0.194551	-0.212853
H215	H	1.264539	-0.670356	-0.759529
H216	H	1.764539	-0.170356	-0.259529
H217	H	1.328988	-0.603237	-0.695086
H218	H	1.828988	-0.103237	-0.195086
H219	H	1.707454	-0.743940	-0.317241
H220	H	2.207454	-0.243940	0.182759
H221	H	1.396083	-0.472534	-0.627903
H222	H	1.896083	0.027466	-0.127903
O223	O	1.378247	-0.381216	-0.645621
O224	O	1.878247	0.118784	-0.145621
H225	H	1.389529	-0.344649	-0.634335
H226	H	1.889529	0.155351	-0.134335
O227	O	1.725312	-0.835254	-0.299549
O228	O	2.225312	-0.335254	0.200451
H229	H	1.714050	-0.871820	-0.310859
H230	H	2.214050	-0.371820	0.189141
