data_functionalizedCrystal
_audit_creation_method	'MofGen! by Chris Wilmer'
_symmetry_space_group_name_H-M	'P1'
_symmetry_Int_Tables_number	1
_symmetry_cell_setting	triclinic
loop_
_symmetry_equiv_pos_as_xyz
  x,y,z
_cell_length_a	17.699097
_cell_length_b	14.044190
_cell_length_c	16.176319
_cell_angle_alpha	90.005109
_cell_angle_beta	90.010997
_cell_angle_gamma	88.240103
loop_
_atom_site_label
_atom_site_type_symbol
_atom_site_fract_x
_atom_site_fract_y
_atom_site_fract_z
O1	O	1.012347	0.119902	0.068825
O2	O	1.345680	0.453236	0.402158
O3	O	1.679013	0.786569	0.735492
O4	O	0.793045	0.135482	0.068813
O5	O	1.126378	0.468815	0.402146
O6	O	1.459711	0.802149	0.735480
O7	O	0.899401	-0.010285	0.068803
O8	O	1.232735	0.323048	0.402136
O9	O	1.566068	0.656381	0.735469
O10	O	0.905990	0.265669	0.068835
O11	O	1.239324	0.599003	0.402169
O12	O	1.572657	0.932336	0.735502
O13	O	0.899384	-0.010277	-0.068691
O14	O	1.232718	0.323056	0.264643
O15	O	1.566051	0.656389	0.597976
O16	O	0.793028	0.135490	-0.068680
O17	O	1.126361	0.468823	0.264653
O18	O	1.459694	0.802157	0.597986
O19	O	1.012330	0.119910	-0.068668
O20	O	1.345663	0.453244	0.264665
O21	O	1.678996	0.786577	0.597999
Cu22	Cu	0.902677	0.127701	-0.081228
Cu23	Cu	1.236010	0.461034	0.252105
Cu24	Cu	1.569344	0.794367	0.585438
Cu25	Cu	0.902697	0.127691	0.081373
Cu26	Cu	1.236031	0.461025	0.414707
Cu27	Cu	1.569364	0.794358	0.748040
O28	O	0.905973	0.265677	-0.068658
O29	O	1.239307	0.599011	0.264676
O30	O	1.572640	0.932344	0.598009
C31	C	0.764801	0.134925	0.000065
C32	C	1.098134	0.468259	0.333398
C33	C	1.431467	0.801592	0.666731
C34	C	0.680667	0.133244	0.000059
C35	C	1.014001	0.466578	0.333393
C36	C	1.347334	0.799911	0.666726
C37	C	0.896510	-0.045589	0.000053
C38	C	1.229844	0.287744	0.333387
C39	C	1.563177	0.621077	0.666720
C40	C	0.887912	-0.150796	0.000046
C41	C	1.221246	0.182537	0.333379
C42	C	1.554579	0.515871	0.666712
C43	C	0.164247	0.122935	0.075039
C44	C	0.497580	0.456269	0.408372
C45	C	0.830914	0.789602	0.741706
C46	C	0.243300	0.124508	0.075035
C47	C	0.576633	0.457842	0.408368
C48	C	0.909966	0.791175	0.741702
C49	C	0.282811	0.125301	0.000084
C50	C	0.616144	0.458634	0.333418
C51	C	0.949478	0.791967	0.666751
C52	C	0.243266	0.124510	-0.074868
C53	C	0.576599	0.457844	0.258466
C54	C	0.909932	0.791177	0.591799
C55	C	0.164215	0.122930	-0.074863
C56	C	0.497548	0.456264	0.258471
C57	C	0.830881	0.789597	0.591804
C58	C	0.562069	0.130881	-0.074889
C59	C	0.895403	0.464214	0.258445
C60	C	1.228736	0.797547	0.591778
C61	C	0.641126	0.132464	-0.074888
C62	C	0.974459	0.465797	0.258446
C63	C	1.307792	0.799130	0.591779
C64	C	0.641154	0.132459	0.075009
C65	C	0.974488	0.465792	0.408343
C66	C	1.307821	0.799125	0.741676
C67	C	0.562103	0.130879	0.075014
C68	C	0.895437	0.464212	0.408347
C69	C	1.228770	0.797545	0.741681
C70	C	0.522565	0.130083	0.000063
C71	C	0.855899	0.463417	0.333396
C72	C	1.189232	0.796750	0.666729
C73	C	0.436847	0.128376	0.000068
C74	C	0.770181	0.461709	0.333401
C75	C	1.103514	0.795042	0.666735
C76	C	0.368527	0.127015	0.000078
C77	C	0.701860	0.460349	0.333411
C78	C	1.035194	0.793682	0.666745
C79	C	0.933172	-0.401184	0.000081
C80	C	1.266506	-0.067851	0.333414
C81	C	1.599839	0.265483	0.666747
C82	C	0.872205	-0.343418	0.000072
C83	C	1.205539	-0.010085	0.333405
C84	C	1.538872	0.323248	0.666738
C85	C	0.880947	-0.236234	0.000057
C86	C	1.214280	0.097100	0.333391
C87	C	1.547613	0.430433	0.666724
C88	C	0.924432	-0.508379	0.000095
C89	C	1.257766	-0.175046	0.333428
C90	C	1.591099	0.158288	0.666762
C91	C	1.040574	0.120467	0.000082
C92	C	1.373907	0.453800	0.333415
C93	C	1.707240	0.787133	0.666749
C94	C	1.124707	0.122148	0.000093
C95	C	1.458041	0.455481	0.333426
C96	C	1.791374	0.788814	0.666760
C97	C	0.908864	0.300981	0.000093
C98	C	1.242198	0.634315	0.333427
C99	C	1.575531	0.967648	0.666760
C100	C	0.917462	0.406188	0.000106
C101	C	1.250796	0.739521	0.333440
C102	C	1.584129	1.072855	0.666773
N103	N	0.902668	0.127707	-0.195594
N104	N	1.236002	0.461040	0.137740
N105	N	1.569335	0.794373	0.471073
C106	C	0.949814	0.063155	-0.760981
C107	C	1.283147	0.396489	-0.427647
C108	C	1.616481	0.729822	-0.094314
C109	C	0.949811	0.063162	-0.674434
C110	C	1.283145	0.396495	-0.341100
C111	C	1.616478	0.729828	-0.007767
C112	C	0.902701	0.127687	-0.631169
C113	C	1.236035	0.461020	-0.297836
C114	C	1.569368	0.794354	0.035498
C115	C	0.855597	0.192216	-0.674456
C116	C	1.188930	0.525550	-0.341122
C117	C	1.522263	0.858883	-0.007789
C118	C	0.855604	0.192214	-0.761001
C119	C	1.188937	0.525547	-0.427668
C120	C	1.522271	0.858880	-0.094335
C121	C	0.855567	0.192230	-0.325428
C122	C	1.188900	0.525563	0.007906
C123	C	1.522233	0.858896	0.341239
C124	C	0.855561	0.192226	-0.238876
C125	C	1.188895	0.525559	0.094457
C126	C	1.522228	0.858892	0.427791
C127	C	0.949774	0.063178	-0.238860
C128	C	1.283107	0.396511	0.094473
C129	C	1.616441	0.729844	0.427807
C130	C	0.949781	0.063175	-0.325405
C131	C	1.283115	0.396508	0.007928
C132	C	1.616448	0.729842	0.341261
C133	C	0.902680	0.127707	-0.368685
C134	C	1.236013	0.461041	-0.035351
C135	C	1.569347	0.794374	0.297982
C136	C	0.902685	0.127701	-0.462529
C137	C	1.236018	0.461034	-0.129196
C138	C	1.569351	0.794367	0.204138
C139	C	0.902692	0.127690	-0.537326
C140	C	1.236025	0.461023	-0.203993
C141	C	1.569359	0.794357	0.129340
N142	N	0.902711	0.127678	0.195738
N143	N	1.236045	0.461011	0.529072
N144	N	1.569378	0.794344	0.862405
H145	H	0.132083	0.122297	0.136073
H146	H	0.465416	0.455630	0.469406
H147	H	0.798749	0.788963	0.802739
N148	N	1.011004	-0.360071	0.000059
N149	N	1.344337	-0.026738	0.333393
N150	N	1.677670	0.306595	0.666726
H151	H	1.039450	-0.382200	0.051027
H152	H	1.372783	-0.048866	0.384360
H153	H	1.706117	0.284467	0.717694
H154	H	1.006227	-0.288226	0.000014
H155	H	1.339560	0.045108	0.333347
H156	H	1.672893	0.378441	0.666681
N157	N	0.519487	0.130014	0.155852
N158	N	0.852820	0.463347	0.489185
N159	N	1.186153	0.796681	0.822519
H160	H	0.484519	0.188084	0.159205
H161	H	0.817852	0.521417	0.492539
H162	H	1.151185	0.854750	0.825872
H163	H	0.556579	0.130712	0.203284
H164	H	0.889912	0.464046	0.536618
H165	H	1.223246	0.797379	0.869951
H166	H	0.673356	0.133102	0.136038
H167	H	1.006689	0.466436	0.469372
H168	H	1.340023	0.799769	0.802705
H169	H	0.813445	-0.374462	0.000073
H170	H	1.146778	-0.041129	0.333406
H171	H	1.480111	0.292205	0.666740
H172	H	0.988166	0.010623	-0.639195
H173	H	1.321500	0.343957	-0.305861
H174	H	1.654833	0.677290	0.027472
H175	H	0.988140	0.010630	-0.360629
H176	H	1.321473	0.343963	-0.027296
H177	H	1.654807	0.677296	0.306038
H178	H	0.988173	0.010607	-0.796201
H179	H	1.321506	0.343941	-0.462868
H180	H	1.654840	0.677274	-0.129535
N181	N	1.000570	-0.006438	-0.192180
N182	N	1.333903	0.326896	0.141153
N183	N	1.667237	0.660229	0.474486
H184	H	0.993419	0.003349	-0.130789
H185	H	1.326752	0.336683	0.202544
H186	H	1.660085	0.670016	0.535878
H187	H	1.054997	0.004412	-0.207288
H188	H	1.388331	0.337745	0.126046
H189	H	1.721664	0.671078	0.459379
H190	H	0.817197	0.244773	-0.203651
H191	H	1.150531	0.578107	0.129682
H192	H	1.483864	0.911440	0.463015
H193	H	0.817214	0.244772	-0.360659
H194	H	1.150547	0.578106	-0.027325
H195	H	1.483880	0.911439	0.306008
N196	N	0.804787	0.261816	-0.627796
N197	N	1.138120	0.595150	-0.294463
N198	N	1.471453	0.928483	0.038870
H199	H	0.811926	0.252026	-0.566402
H200	H	1.145259	0.585359	-0.233069
H201	H	1.478593	0.918693	0.100264
H202	H	0.750366	0.250947	-0.642944
H203	H	1.083699	0.584281	-0.309611
H204	H	1.417033	0.917614	0.023722
H205	H	0.275442	0.125150	-0.135894
H206	H	0.608775	0.458483	0.197439
H207	H	0.942109	0.791816	0.530773
N208	N	0.804792	0.261798	-0.807684
N209	N	1.138126	0.595132	-0.474351
N210	N	1.471459	0.928465	-0.141017
H211	H	0.811946	0.252008	-0.869075
H212	H	1.145279	0.585341	-0.535741
H213	H	1.478613	0.918674	-0.202408
H214	H	0.818070	0.329020	-0.792548
H215	H	1.151403	0.662354	-0.459215
H216	H	1.484736	0.995687	-0.125882
N217	N	0.285948	0.125345	0.155869
N218	N	0.619281	0.458679	0.489203
N219	N	0.952614	0.792012	0.822536
H220	H	0.248922	0.124606	0.203350
H221	H	0.582256	0.457939	0.536684
H222	H	0.915589	0.791273	0.870017
H223	H	0.316584	0.184725	0.159143
H224	H	0.649917	0.518058	0.492476
H225	H	0.983250	0.851391	0.825809
N226	N	0.683738	0.133318	-0.155735
N227	N	1.017072	0.466652	0.177599
N228	N	1.350405	0.799985	0.510932
H229	H	0.672148	0.074314	-0.188504
H230	H	1.005481	0.407647	0.144829
H231	H	1.338815	0.740981	0.478162
H232	H	0.739801	0.134481	-0.144295
H233	H	1.073134	0.467814	0.189038
H234	H	1.406468	0.801148	0.522371
N235	N	0.519427	0.130025	-0.155723
N236	N	0.852761	0.463358	0.177610
N237	N	1.186094	0.796692	0.510943
H238	H	0.556475	0.130100	-0.203203
H239	H	0.889809	0.463433	0.130130
H240	H	1.223142	0.796766	0.463464
H241	H	0.484845	0.188438	-0.159233
H242	H	0.818179	0.521772	0.174100
H243	H	1.151512	0.855105	0.507433
N244	N	0.121566	0.122075	-0.155698
N245	N	0.454900	0.455408	0.177635
N246	N	0.788233	0.788742	0.510968
H247	H	0.158615	0.122153	-0.203178
H248	H	0.491948	0.455486	0.130156
H249	H	0.825281	0.788819	0.463489
H250	H	0.086980	0.180485	-0.159210
H251	H	0.420313	0.513818	0.174124
H252	H	0.753647	0.847151	0.507457
