data_functionalizedCrystal
_audit_creation_method	'MofGen! by Chris Wilmer'
_symmetry_space_group_name_H-M	'P1'
_symmetry_Int_Tables_number	1
_symmetry_cell_setting	triclinic
loop_
_symmetry_equiv_pos_as_xyz
  x,y,z
_cell_length_a	19.805405
_cell_length_b	19.805407
_cell_length_c	19.805399
_cell_angle_alpha	89.980803
_cell_angle_beta	90.029301
_cell_angle_gamma	89.977440
loop_
_atom_site_label
_atom_site_type_symbol
_atom_site_fract_x
_atom_site_fract_y
_atom_site_fract_z
Zn1	Zn	-0.269548	-1.034736	0.382705
Zn2	Zn	0.230452	-0.534736	0.882705
Zn3	Zn	-0.382737	-1.034650	0.269513
Zn4	Zn	0.117263	-0.534650	0.769513
Zn5	Zn	-0.269559	-0.921550	0.269530
Zn6	Zn	0.230441	-0.421550	0.769530
Zn7	Zn	-0.382693	-0.921514	0.382661
Zn8	Zn	0.117307	-0.421514	0.882661
O9	O	-0.326134	-0.978113	0.326102
O10	O	0.173866	-0.478113	0.826102
O11	O	-0.284577	-1.129441	0.367701
O12	O	0.215423	-0.629441	0.867701
O13	O	-0.367746	-1.019627	0.174799
O14	O	0.132254	-0.519627	0.674799
O15	O	-0.174841	-0.936615	0.284569
O16	O	0.325159	-0.436615	0.784569
O17	O	-0.367736	-1.129378	0.284540
O18	O	0.132264	-0.629378	0.784540
O19	O	-0.174833	-1.019772	0.367717
O20	O	0.325167	-0.519772	0.867717
O21	O	-0.284596	-0.936533	0.174811
O22	O	0.215404	-0.436533	0.674811
O23	O	-0.284553	-0.826829	0.284526
O24	O	0.215447	-0.326829	0.784526
O25	O	-0.367661	-0.936553	0.477383
O26	O	0.132339	-0.436553	0.977383
O27	O	-0.367672	-0.826802	0.367642
O28	O	0.132328	-0.326802	0.867642
O29	O	-0.284534	-1.019737	0.477415
O30	O	0.215466	-0.519737	0.977415
O31	O	-0.477448	-1.019592	0.284497
O32	O	0.022552	-0.519592	0.784497
O33	O	-0.477416	-0.936471	0.367626
O34	O	0.022584	-0.436471	0.867626
C35	C	-0.326110	-0.802257	0.326081
C36	C	0.173890	-0.302257	0.826081
C37	C	-0.326115	-0.727025	0.326089
C38	C	0.173885	-0.227025	0.826089
C39	C	-0.282890	-0.691714	0.369456
C40	C	0.217110	-0.191714	0.869456
C41	C	-0.282892	-0.621025	0.369457
C42	C	0.217108	-0.121025	0.869457
C43	C	-0.326124	-0.585649	0.326093
C44	C	0.173876	-0.085649	0.826093
C45	C	-0.369350	-0.620965	0.282721
C46	C	0.130650	-0.120965	0.782721
C47	C	-0.369344	-0.691652	0.282718
C48	C	0.130656	-0.191652	0.782718
C49	C	-0.369375	-0.335892	0.282735
C50	C	0.130625	0.164108	0.782735
C51	C	-0.369379	-0.265199	0.282744
C52	C	0.130621	0.234801	0.782744
C53	C	-0.282923	-0.265265	0.369474
C54	C	0.217077	0.234735	0.869474
C55	C	-0.282917	-0.335952	0.369470
C56	C	0.217083	0.164048	0.869470
C57	C	-0.326141	-0.371262	0.326096
C58	C	0.173859	0.128738	0.826096
C59	C	-0.326137	-0.447910	0.326095
C60	C	0.173863	0.052090	0.826095
C61	C	-0.326131	-0.509002	0.326098
C62	C	0.173869	-0.009002	0.826098
C63	C	-0.501991	-0.978036	0.326069
C64	C	-0.001991	-0.478036	0.826069
C65	C	-0.577222	-0.978066	0.326078
C66	C	-0.077222	-0.478066	0.826078
C67	C	-0.612561	-1.021389	0.282838
C68	C	-0.112561	-0.521389	0.782838
C69	C	-0.683249	-1.021418	0.282853
C70	C	-0.183249	-0.521418	0.782853
C71	C	-0.718598	-0.978119	0.326105
C72	C	-0.218598	-0.478119	0.826105
C73	C	-0.683255	-0.934794	0.369350
C74	C	-0.183255	-0.434794	0.869350
C75	C	-0.612568	-0.934769	0.369338
C76	C	-0.112568	-0.434769	0.869338
C77	C	-0.968328	-0.934894	0.369400
C78	C	-0.468328	-0.434894	0.869400
C79	C	-1.039020	-0.934921	0.369407
C80	C	-0.539020	-0.434921	0.869407
C81	C	-1.039010	-1.021542	0.282915
C82	C	-0.539010	-0.521542	0.782915
C83	C	-0.968322	-1.021517	0.282903
C84	C	-0.468322	-0.521517	0.782903
C85	C	-0.932985	-0.978195	0.326150
C86	C	-0.432985	-0.478195	0.826150
C87	C	-0.856337	-0.978165	0.326134
C88	C	-0.356337	-0.478165	0.826134
C89	C	-0.795245	-0.978145	0.326118
C90	C	-0.295245	-0.478145	0.826118
C91	C	-0.149592	-0.978207	0.326150
C92	C	0.350408	-0.478207	0.826150
C93	C	-0.074360	-0.978248	0.326170
C94	C	0.425640	-0.478248	0.826170
C95	C	-0.326092	-0.978151	0.502645
C96	C	0.173908	-0.478151	1.002645
C97	C	-0.326074	-0.978167	0.577877
C98	C	0.173926	-0.478167	1.077877
C99	C	-0.326155	-0.154655	0.326117
C100	C	0.173845	0.345345	0.826117
C101	C	-0.326150	-0.229887	0.326108
C102	C	0.173850	0.270113	0.826108
C103	C	-0.326128	-0.978114	0.150246
C104	C	0.173872	-0.478114	0.650246
C105	C	-0.325956	-0.978229	0.075015
C106	C	0.174044	-0.478229	0.575015
C107	C	-0.282787	-1.021481	0.613239
C108	C	0.217213	-0.521481	1.113239
C109	C	-0.282768	-1.021488	0.683928
C110	C	0.217232	-0.521488	1.183928
C111	C	-0.326038	-0.978184	0.719253
C112	C	0.173962	-0.478184	1.219253
C113	C	-0.369327	-0.934864	0.683886
C114	C	0.130673	-0.434864	1.183886
C115	C	-0.369342	-0.934854	0.613198
C116	C	0.130658	-0.434854	1.113198
C117	C	-0.369264	-0.934902	0.968959
C118	C	0.130736	-0.434902	1.468959
C119	C	-0.369246	-0.934917	1.039651
C120	C	0.130754	-0.434917	1.539651
C121	C	-0.282689	-1.021536	1.039688
C122	C	0.217311	-0.521536	1.539688
C123	C	-0.282705	-1.021527	0.969001
C124	C	0.217295	-0.521527	1.469001
C125	C	-0.325990	-0.978205	0.933640
C126	C	0.174010	-0.478205	1.433640
C127	C	-0.326010	-0.978197	0.856992
C128	C	0.173990	-0.478197	1.356992
C129	C	-0.326022	-0.978194	0.795900
C130	C	0.173978	-0.478194	1.295900
H131	H	-0.247696	-0.592278	0.404772
H132	H	0.252304	-0.092278	0.904772
C133	C	-0.235361	-0.374862	0.417168
C134	C	0.264639	0.125138	0.917168
H135	H	-0.209613	-0.343708	0.442992
H136	H	0.290387	0.156292	0.942992
H137	H	-0.261286	-0.402443	0.446610
H138	H	0.238714	0.097557	0.946610
H139	H	-0.205832	-0.402434	0.391321
H140	H	0.294168	0.097566	0.891321
C141	C	-0.573683	-1.069019	0.235261
C142	C	-0.073683	-0.569019	0.735261
H143	H	-0.604856	-1.094829	0.209516
H144	H	-0.104856	-0.594829	0.709516
H145	H	-0.546146	-1.043138	0.205740
H146	H	-0.046146	-0.543138	0.705740
H147	H	-0.546070	-1.098487	0.261181
H148	H	-0.046070	-0.598487	0.761181
C149	C	-0.722119	-1.069070	0.235286
C150	C	-0.222119	-0.569070	0.735286
H151	H	-0.690942	-1.094846	0.209519
H152	H	-0.190942	-0.594846	0.709519
H153	H	-0.749654	-1.098558	0.261206
H154	H	-0.249654	-0.598558	0.761206
H155	H	-0.749733	-1.043199	0.205775
H156	H	-0.249733	-0.543199	0.705775
C157	C	-0.416897	-0.730494	0.235019
C158	C	0.083103	-0.230494	0.735019
H159	H	-0.442651	-0.699303	0.209199
H160	H	0.057349	-0.199303	0.709199
H161	H	-0.390968	-0.758068	0.205573
H162	H	0.109032	-0.258068	0.705573
H163	H	-0.446422	-0.758068	0.260863
H164	H	0.053578	-0.258068	0.760863
C165	C	-1.077882	-1.069201	0.235348
C166	C	-0.577882	-0.569201	0.735348
H167	H	-1.125044	-1.063022	0.241552
H168	H	-0.625044	-0.563022	0.741552
H169	H	-1.066335	-1.059316	0.189861
H170	H	-0.566335	-0.559316	0.689861
H171	H	-1.066255	-1.114671	0.245296
H172	H	-0.566255	-0.614671	0.745296
C173	C	-0.235338	-0.730624	0.417156
C174	C	0.264662	-0.230624	0.917156
H175	H	-0.241529	-0.777781	0.410949
H176	H	0.258471	-0.277781	0.910949
H177	H	-0.189849	-0.719051	0.407336
H178	H	0.310151	-0.219051	0.907336
H179	H	-0.245310	-0.719053	0.462618
H180	H	0.254690	-0.219053	0.962618
H181	H	-0.247471	-1.056792	0.940243
H182	H	0.252529	-0.556792	1.440243
H183	H	-0.247441	-1.056809	1.068488
H184	H	0.252559	-0.556809	1.568488
C185	C	-0.235171	-1.069150	0.722826
C186	C	0.264829	-0.569150	1.222826
H187	H	-0.241356	-1.062954	0.769984
H188	H	0.258644	-0.562954	1.269984
H189	H	-0.245102	-1.114615	0.711241
H190	H	0.254898	-0.614615	1.211241
H191	H	-0.189687	-1.059280	0.711258
H192	H	0.310313	-0.559280	1.211258
H193	H	-0.404571	-0.364632	0.247418
H194	H	0.095429	0.135368	0.747418
H195	H	-0.247553	-1.056747	0.584482
H196	H	0.252447	-0.556747	1.084482
H197	H	-0.712041	-0.899543	0.404569
H198	H	-0.212041	-0.399543	0.904569
H199	H	-0.939544	-1.056773	0.247681
H200	H	-0.439544	-0.556773	0.747681
C201	C	-0.416925	-0.887228	0.722738
C202	C	0.083075	-0.387228	1.222738
H203	H	-0.442703	-0.861426	0.691552
H204	H	0.057297	-0.361426	1.191552
H205	H	-0.446414	-0.913108	0.750309
H206	H	0.053586	-0.413108	1.250309
H207	H	-0.391019	-0.857753	0.750315
H208	H	0.108981	-0.357753	1.250315
C209	C	-0.235370	-0.226422	0.417179
C210	C	0.264630	0.273578	0.917179
H211	H	-0.241557	-0.179257	0.410968
H212	H	0.258443	0.320743	0.910968
H213	H	-0.245335	-0.238021	0.462637
H214	H	0.254665	0.261979	0.962637
H215	H	-0.189877	-0.238020	0.407352
H216	H	0.310123	0.261980	0.907352
C217	C	-1.077903	-0.887296	0.416992
C218	C	-0.577903	-0.387296	0.916992
H219	H	-1.046734	-0.861496	0.442752
H220	H	-0.546734	-0.361496	0.942752
H221	H	-1.105518	-0.857828	0.391081
H222	H	-0.605518	-0.357828	0.891081
H223	H	-1.105438	-0.913190	0.446509
H224	H	-0.605438	-0.413190	0.946509
H225	H	-0.583796	-0.899492	0.404549
H226	H	-0.083796	-0.399492	0.904549
H227	H	-0.939562	-0.899618	0.404612
H228	H	-0.439562	-0.399618	0.904612
H229	H	-0.404547	-0.592156	0.247411
H230	H	0.095453	-0.092156	0.747411
C231	C	-0.416841	-0.887275	1.078508
C232	C	0.083159	-0.387275	1.578508
H233	H	-0.442618	-0.861467	1.047325
H234	H	0.057382	-0.361467	1.547325
H235	H	-0.446331	-0.913152	1.106079
H236	H	0.053669	-0.413152	1.606079
H237	H	-0.390929	-0.857804	1.106084
H238	H	0.109071	-0.357804	1.606084
C239	C	-0.416862	-0.887237	0.930071
C240	C	0.083138	-0.387237	1.430071
H241	H	-0.442628	-0.861449	0.961235
H242	H	0.057372	-0.361449	1.461235
H243	H	-0.390957	-0.857760	0.902508
H244	H	0.109043	-0.357760	1.402508
H245	H	-0.446372	-0.913094	0.902483
H246	H	0.053628	-0.413094	1.402483
C247	C	-0.416974	-0.887225	0.574300
C248	C	0.083026	-0.387225	1.074300
H249	H	-0.442751	-0.861444	0.605461
H250	H	0.057249	-0.361444	1.105461
H251	H	-0.391098	-0.857739	0.546719
H252	H	0.108902	-0.357739	1.046719
H253	H	-0.446473	-0.913115	0.546730
H254	H	0.053527	-0.413115	1.046730
H255	H	-0.404585	-0.236398	0.247430
H256	H	0.095415	0.263602	0.747430
