data_functionalizedCrystal
_audit_creation_method	'MofGen! by Chris Wilmer'
_symmetry_space_group_name_H-M	'P1'
_symmetry_Int_Tables_number	1
_symmetry_cell_setting	triclinic
loop_
_symmetry_equiv_pos_as_xyz
  x,y,z
_cell_length_a	18.101398
_cell_length_b	18.050590
_cell_length_c	18.101389
_cell_angle_alpha	90.019149
_cell_angle_beta	90.009745
_cell_angle_gamma	90.014109
loop_
_atom_site_label
_atom_site_type_symbol
_atom_site_fract_x
_atom_site_fract_y
_atom_site_fract_z
Zn1	Zn	1.132186	-0.295825	0.418547
Zn2	Zn	1.632186	0.204175	0.918547
Zn3	Zn	1.132109	-0.420000	0.294704
Zn4	Zn	1.632109	0.080000	0.794704
Zn5	Zn	1.008344	-0.295818	0.294740
Zn6	Zn	1.508344	0.204182	0.794740
Zn7	Zn	1.008322	-0.419968	0.418524
Zn8	Zn	1.508322	0.080032	0.918524
O9	O	1.070240	-0.357903	0.356628
O10	O	1.570240	0.142097	0.856628
O11	O	1.235808	-0.312313	0.402113
O12	O	1.735808	0.187687	0.902113
O13	O	1.115668	-0.403537	0.191076
O14	O	1.615668	0.096463	0.691076
O15	O	1.024814	-0.191895	0.311187
O16	O	1.524814	0.308105	0.811187
O17	O	1.235752	-0.403544	0.311126
O18	O	1.735752	0.096456	0.811126
O19	O	1.115799	-0.191900	0.402148
O20	O	1.615799	0.308100	0.902148
O21	O	1.024739	-0.312301	0.191102
O22	O	1.524739	0.187699	0.691102
O23	O	0.904709	-0.312271	0.311165
O24	O	1.404709	0.187729	0.811165
O25	O	1.024776	-0.403491	0.522160
O26	O	1.524776	0.096509	1.022160
O27	O	0.904692	-0.403484	0.402109
O28	O	1.404692	0.096516	0.902109
O29	O	1.115778	-0.312283	0.522177
O30	O	1.615778	0.187717	1.022177
O31	O	1.115647	-0.523920	0.311104
O32	O	1.615647	-0.023920	0.811104
O33	O	1.024701	-0.523897	0.402074
O34	O	1.524701	-0.023897	0.902074
C35	C	0.877830	-0.357874	0.356639
C36	C	1.377830	0.142126	0.856639
C37	C	0.795516	-0.357879	0.356661
C38	C	1.295516	0.142121	0.856661
C39	C	0.496425	-0.357923	0.356630
C40	C	0.996425	0.142077	0.856630
C41	C	0.527764	-0.415589	0.413567
C42	C	1.027764	0.084411	0.913567
C43	C	0.613383	-0.415408	0.413801
C44	C	1.113383	0.084592	0.913801
C45	C	0.644807	-0.357902	0.356645
C46	C	1.144807	0.142098	0.856645
C47	C	0.613736	-0.279684	0.377974
C48	C	1.113736	0.220316	0.877974
C49	C	0.528091	-0.280030	0.378379
C50	C	1.028091	0.219970	0.878379
C51	C	0.527976	-0.377785	0.278227
C52	C	1.027976	0.122215	0.778227
C53	C	0.613627	-0.379502	0.278646
C54	C	1.113627	0.120498	0.778646
C55	C	0.728667	-0.357885	0.356653
C56	C	1.228667	0.142115	0.856653
C57	C	0.412565	-0.357934	0.356624
C58	C	0.912565	0.142066	0.856624
C59	C	1.070183	-0.550855	0.356599
C60	C	1.570183	-0.050855	0.856599
C61	C	1.070227	-0.633401	0.356611
C62	C	1.570227	-0.133401	0.856611
C63	C	1.119786	-0.832837	0.307211
C64	C	1.619786	-0.332837	0.807211
C65	C	1.137875	-0.882182	0.374798
C66	C	1.637875	-0.382182	0.874798
C67	C	1.070269	-0.784531	0.356641
C68	C	1.570269	-0.284531	0.856641
C69	C	1.052255	-0.882268	0.289084
C70	C	1.552255	-0.382268	0.789084
C71	C	1.070311	-0.930516	0.356663
C72	C	1.570311	-0.430516	0.856663
C73	C	1.088393	-0.832789	0.424263
C74	C	1.588393	-0.332789	0.924263
C75	C	1.002741	-0.832871	0.338504
C76	C	1.502741	-0.332871	0.838504
C77	C	1.020805	-0.882193	0.406138
C78	C	1.520805	-0.382193	0.906138
C79	C	1.070246	-0.700433	0.356627
C80	C	1.570246	-0.200433	0.856627
C81	C	1.070333	-1.014613	0.356685
C82	C	1.570333	-0.514613	0.856685
C83	C	1.263402	-0.357933	0.356619
C84	C	1.763402	0.142067	0.856619
C85	C	1.345716	-0.357946	0.356614
C86	C	1.845716	0.142054	0.856614
C87	C	1.070283	-0.357884	0.549790
C88	C	1.570283	0.142116	1.049790
C89	C	1.070301	-0.357876	0.632105
C90	C	1.570301	0.142124	1.132105
C91	C	1.070318	-0.164197	0.356674
C92	C	1.570318	0.335803	0.856674
C93	C	1.070350	-0.081652	0.356694
C94	C	1.570350	0.418348	0.856694
C95	C	1.070240	-0.357868	0.164218
C96	C	1.570240	0.142132	0.664218
C97	C	1.070365	-0.357667	0.081904
C98	C	1.570365	0.142333	0.581904
C99	C	1.070344	-0.357737	0.931196
C100	C	1.570344	0.142263	1.431196
C101	C	1.012891	-0.414940	0.899860
C102	C	1.512891	0.085060	1.399860
C103	C	1.013047	-0.415205	0.814242
C104	C	1.513047	0.084795	1.314242
C105	C	1.070322	-0.357806	0.782813
C106	C	1.570322	0.142194	1.282813
C107	C	1.148352	-0.379056	0.813899
C108	C	1.648352	0.120944	1.313899
C109	C	1.148032	-0.379431	0.899544
C110	C	1.648032	0.120569	1.399544
C111	C	1.050446	-0.279157	0.899626
C112	C	1.550446	0.220843	1.399626
C113	C	1.048710	-0.279611	0.813975
C114	C	1.548710	0.220389	1.313975
C115	C	1.070315	-0.357844	0.698954
C116	C	1.570315	0.142156	1.198954
C117	C	1.070357	-0.357701	1.015055
C118	C	1.570357	0.142299	1.515055
H119	H	0.507709	-0.335782	0.235804
H120	H	1.007709	0.164218	0.735804
C121	C	1.109096	-0.803559	0.501476
C122	C	1.609096	-0.303559	1.001476
H123	H	1.108981	-0.750930	0.500990
H124	H	1.608981	-0.250930	1.000990
H125	H	1.074159	-0.820852	0.536625
H126	H	1.574159	-0.320852	1.036625
H127	H	1.156935	-0.820853	0.514441
H128	H	1.656935	-0.320853	1.014441
H129	H	1.195000	-0.903844	0.390152
H130	H	1.695000	-0.403844	0.890152
H131	H	1.026185	-0.473451	0.793755
H132	H	1.526185	0.026549	1.293755
H133	H	0.507162	-0.473782	0.400348
H134	H	1.007162	0.026218	0.900348
H135	H	0.506251	-0.402615	0.471322
H136	H	1.006251	0.097385	0.971322
C137	C	1.176369	-0.803552	0.250802
C138	C	1.676369	-0.303552	0.750802
H139	H	1.224341	-0.820435	0.263820
H140	H	1.724341	-0.320435	0.763820
H141	H	1.164030	-0.821218	0.202925
H142	H	1.664030	-0.321218	0.702925
H143	H	1.175654	-0.750927	0.250874
H144	H	1.675654	-0.250927	0.750874
H145	H	0.954855	-0.401778	0.920461
H146	H	1.454855	0.098222	1.420461
H147	H	0.978948	-0.903728	0.447997
H148	H	1.478948	-0.403728	0.947997
C149	C	0.925596	-0.803577	0.317734
C150	C	1.425596	-0.303577	0.817734
H151	H	0.912854	-0.820488	0.269686
H152	H	1.412854	-0.320488	0.769686
H153	H	0.890311	-0.821210	0.352364
H154	H	1.390311	-0.321210	0.852364
H155	H	0.926037	-0.750952	0.318320
H156	H	1.426037	-0.250952	0.818320
H157	H	1.087501	-0.234729	0.792582
H158	H	1.587501	0.265271	1.292582
C159	C	1.031642	-0.911624	0.211894
C160	C	1.531642	-0.411624	0.711894
H161	H	1.066858	-0.894714	0.176829
H162	H	1.566858	-0.394714	0.676829
H163	H	1.031361	-0.964244	0.212561
H164	H	1.531361	-0.464244	0.712561
H165	H	0.983994	-0.894006	0.198663
H166	H	1.483994	-0.394006	0.698663
C167	C	0.641081	-0.397645	0.492273
C168	C	1.141081	0.102355	0.992273
H169	H	0.599990	-0.390504	0.524131
H170	H	1.099990	0.109496	1.024131
H171	H	0.670222	-0.437649	0.509955
H172	H	1.170222	0.062351	1.009955
H173	H	0.670112	-0.353808	0.491147
H174	H	1.170112	0.146192	0.991147
H175	H	0.955185	-0.401907	0.793224
H176	H	1.455185	0.098093	1.293224
H177	H	1.025899	-0.472830	0.921381
H178	H	1.525899	0.027170	1.421381
H179	H	1.164899	-0.436874	0.919522
H180	H	1.664899	0.063126	1.419522
C181	C	0.501116	-0.257279	0.455808
C182	C	1.001116	0.242721	0.955808
H183	H	0.542499	-0.247916	0.486721
H184	H	1.042499	0.252084	0.986721
H185	H	0.471889	-0.213734	0.452134
H186	H	0.971889	0.286266	0.952134
H187	H	0.472327	-0.296165	0.476345
H188	H	0.972327	0.203835	0.976345
C189	C	1.207830	-0.325606	0.927552
C190	C	1.707830	0.174394	1.427552
H191	H	1.232215	-0.303612	0.886585
H192	H	1.732215	0.196388	1.386585
H193	H	1.185467	-0.288036	0.956712
H194	H	1.685467	0.211964	1.456712
H195	H	1.242714	-0.351977	0.956628
H196	H	1.742714	0.148023	1.456628
H197	H	0.507359	-0.235526	0.338810
H198	H	1.007359	0.264474	0.838810
H199	H	1.192310	-0.338701	0.793542
H200	H	1.692310	0.161299	1.293542
C201	C	1.171536	-0.455833	0.784937
C202	C	1.671536	0.044167	1.284937
H203	H	1.218831	-0.468199	0.804055
H204	H	1.718831	0.031801	1.304055
H205	H	1.136506	-0.491829	0.800379
H206	H	1.636506	0.008171	1.300379
H207	H	1.173583	-0.454831	0.732505
H208	H	1.673583	0.045169	1.232505
H209	H	0.994534	-0.259798	0.921226
H210	H	1.494534	0.240202	1.421226
H211	H	0.991287	-0.263587	0.793658
H212	H	1.491287	0.236413	1.293658
C213	C	1.106965	-0.221579	0.927013
C214	C	1.606965	0.278421	1.427013
H215	H	1.142518	-0.245272	0.957538
H216	H	1.642518	0.254728	1.457538
H217	H	1.131037	-0.199645	0.885838
H218	H	1.631037	0.300355	1.385838
H219	H	1.082203	-0.184307	0.954578
H220	H	1.582203	0.315693	1.454578
H221	H	0.634390	-0.473412	0.400433
H222	H	1.134390	0.026588	0.900433
C223	C	0.641235	-0.220064	0.323707
C224	C	1.141235	0.279936	0.823707
H225	H	0.671987	-0.242399	0.287476
H226	H	1.171987	0.257601	0.787476
H227	H	0.600114	-0.197384	0.300234
H228	H	1.100114	0.302616	0.800234
H229	H	0.668587	-0.183633	0.349935
H230	H	1.168587	0.316367	0.849935
C231	C	0.642703	-0.256519	0.454571
C232	C	1.142703	0.243481	0.954571
H233	H	0.673726	-0.294403	0.473654
H234	H	1.173726	0.205597	0.973654
H235	H	0.670063	-0.211816	0.450247
H236	H	1.170063	0.288184	0.950247
H237	H	0.602181	-0.249064	0.487076
H238	H	1.102181	0.250936	0.987076
H239	H	0.506375	-0.433846	0.258844
H240	H	1.006375	0.066154	0.758844
H241	H	0.633943	-0.437059	0.262560
H242	H	1.133943	0.062941	0.762560
H243	H	0.635018	-0.340549	0.233945
H244	H	1.135018	0.159451	0.733945
