data_functionalizedCrystal
_audit_creation_method	'MofGen! by Chris Wilmer'
_symmetry_space_group_name_H-M	'P1'
_symmetry_Int_Tables_number	1
_symmetry_cell_setting	triclinic
loop_
_symmetry_equiv_pos_as_xyz
  x,y,z
_cell_length_a	11.026607
_cell_length_b	7.088929
_cell_length_c	8.597304
_cell_angle_alpha	76.027438
_cell_angle_beta	96.851186
_cell_angle_gamma	97.577146
loop_
_atom_site_label
_atom_site_type_symbol
_atom_site_fract_x
_atom_site_fract_y
_atom_site_fract_z
O1	O	1.597000	-0.271152	0.681004
O2	O	2.097000	0.228848	1.181004
O3	O	1.243772	-0.258623	0.604919
O4	O	1.743772	0.241377	1.104919
O5	O	1.430283	-0.227078	0.413453
O6	O	1.930283	0.272922	0.913453
O7	O	1.410489	-0.302696	0.872469
O8	O	1.910489	0.197304	1.372469
O9	O	1.455208	0.095125	0.387792
O10	O	1.955208	0.595125	0.887792
O11	O	1.268698	0.063580	0.579257
O12	O	1.768698	0.563580	1.079257
O13	O	1.621925	0.051051	0.655342
O14	O	2.121925	0.551051	1.155342
Cu15	Cu	1.447587	0.086735	0.614957
Cu16	Cu	1.947587	0.586735	1.114957
Cu17	Cu	1.418110	-0.294307	0.645304
Cu18	Cu	1.918110	0.205693	1.145304
O19	O	1.435415	0.019507	0.846808
O20	O	1.935415	0.519507	1.346808
C21	C	1.211039	-0.095210	0.578052
C22	C	1.711039	0.404790	1.078052
C23	C	1.076368	-0.088319	0.536209
C24	C	1.576368	0.411681	1.036209
C25	C	1.442008	-0.056150	0.340945
C26	C	1.942008	0.443850	0.840945
C27	C	1.439798	-0.026867	0.163122
C28	C	1.939798	0.473133	0.663122
N29	N	1.468329	0.354740	0.593613
N30	N	1.968329	0.854740	1.093613
C31	C	1.002442	-0.107354	0.651745
C32	C	1.502442	0.392646	1.151745
C33	C	0.863252	-0.100232	0.608501
C34	C	1.363252	0.399768	1.108501
C35	C	1.654658	-0.112366	0.682210
C36	C	2.154658	0.387634	1.182210
C37	C	1.789328	-0.119270	0.724054
C38	C	2.289328	0.380730	1.224054
N39	N	1.397378	-0.562310	0.666638
N40	N	1.897378	-0.062310	1.166638
C41	C	1.423689	-0.151426	0.919316
C42	C	1.923689	0.348574	1.419316
C43	C	1.425898	-0.180721	1.097140
C44	C	1.925898	0.319279	1.597140
H45	H	1.042198	-0.128912	0.782673
H46	H	1.542198	0.371088	1.282673
F47	F	1.412550	-0.382191	0.201115
F48	F	1.912550	0.117809	0.701115
H49	H	1.449996	0.127277	0.083562
H50	H	1.949996	0.627277	0.583562
H51	H	1.541874	0.448862	0.517950
H52	H	2.041874	0.948862	1.017950
H53	H	1.323847	0.343577	0.742310
H54	H	1.823847	0.843577	1.242310
F55	F	1.024413	-0.060113	0.365069
F56	F	1.524413	0.439887	0.865069
H57	H	0.829077	-0.140827	0.854991
H58	H	1.329077	0.359173	1.354991
F59	F	0.811303	-0.072025	0.437353
F60	F	1.311303	0.427975	0.937353
