data_functionalizedCrystal
_audit_creation_method	'MofGen! by Chris Wilmer'
_symmetry_space_group_name_H-M	'P1'
_symmetry_Int_Tables_number	1
_symmetry_cell_setting	triclinic
loop_
_symmetry_equiv_pos_as_xyz
  x,y,z
_cell_length_a	14.519709
_cell_length_b	15.944551
_cell_length_c	13.596369
_cell_angle_alpha	89.993059
_cell_angle_beta	90.000291
_cell_angle_gamma	83.589442
loop_
_atom_site_label
_atom_site_type_symbol
_atom_site_fract_x
_atom_site_fract_y
_atom_site_fract_z
O1	O	1.223676	0.110109	-0.081665
O2	O	0.955176	0.123076	-0.081696
O3	O	1.096758	-0.005672	-0.081671
O4	O	1.082094	0.238856	-0.081690
O5	O	1.096744	-0.005679	0.081912
O6	O	0.955162	0.123069	0.081887
O7	O	1.223662	0.110102	0.081917
Zn8	Zn	1.089410	0.116584	0.107875
Zn9	Zn	1.089428	0.116593	-0.107653
O10	O	1.082080	0.238850	0.081893
C11	C	0.920810	0.122468	0.000092
C12	C	0.818432	0.120657	0.000081
C13	C	0.443548	0.113990	0.000126
C14	C	0.547853	0.115842	0.000113
C15	C	0.630987	0.117323	0.000102
C16	C	0.735298	0.119175	0.000091
C17	C	1.096142	-0.036970	0.000121
C18	C	1.094317	-0.130219	0.000121
C19	C	1.002196	-0.345209	0.000097
C20	C	1.044967	-0.406168	0.080758
C21	C	1.091015	-0.300950	0.000113
C22	C	1.045002	-0.406144	-0.080522
C23	C	1.087820	-0.465867	0.000101
C24	C	1.133811	-0.360680	0.080841
C25	C	1.133833	-0.360650	-0.080512
C26	C	1.176669	-0.421591	0.000169
C27	C	1.092854	-0.205945	0.000121
C28	C	1.085988	-0.560871	0.000100
C29	C	1.258028	0.110710	0.000128
C30	C	1.360406	0.112521	0.000132
C31	C	1.082696	0.270148	0.000099
C32	C	1.084521	0.363397	0.000092
N33	N	1.089404	0.116578	0.254966
N34	N	1.089442	0.116593	-0.254745
C35	C	1.089427	0.116594	0.656257
C36	C	1.089418	0.116592	0.544606
C37	C	1.089416	0.116587	0.455615
C38	C	1.089406	0.116584	0.343957
H39	H	1.007394	-0.426333	0.148942
C40	C	0.995061	-0.432967	-0.171569
C41	C	1.040876	-0.408798	-0.255820
C42	C	0.994899	-0.433499	-0.339704
H43	H	0.933087	-0.406571	-0.171613
H44	H	0.994785	-0.492523	-0.171284
H45	H	1.041143	-0.349254	-0.256105
H46	H	1.102847	-0.435192	-0.255808
H47	H	0.994622	-0.493055	-0.339419
H48	H	0.932926	-0.407101	-0.339739
H49	H	1.025982	-0.417111	-0.396878
C50	C	0.903877	-0.300977	0.000390
C51	C	0.857791	-0.323902	0.085034
C52	C	0.767226	-0.283162	0.085348
H53	H	0.871899	-0.317161	-0.056263
H54	H	0.905684	-0.241600	-0.000143
H55	H	0.855979	-0.383266	0.085558
H56	H	0.889741	-0.307716	0.141701
H57	H	0.769034	-0.223785	0.084816
H58	H	0.735258	-0.299349	0.028692
H59	H	0.735949	-0.298705	0.142782
H60	H	1.171341	-0.340638	0.149108
C61	C	1.275074	-0.465627	0.000439
C62	C	1.321128	-0.442578	0.085042
C63	C	1.411773	-0.483137	0.085336
H64	H	1.306976	-0.449386	-0.056242
H65	H	1.273417	-0.525023	-0.000051
H66	H	1.322789	-0.383194	0.085523
H67	H	1.289253	-0.458819	0.141737
H68	H	1.410116	-0.542533	0.084846
H69	H	1.443666	-0.466893	0.028650
H70	H	1.443029	-0.467510	0.142742
C71	C	1.183902	-0.333559	-0.171343
C72	C	1.185681	-0.245955	-0.169625
C73	C	1.231797	-0.220967	-0.253283
H74	H	1.152329	-0.348864	-0.228672
H75	H	1.245563	-0.360721	-0.171917
H76	H	1.124031	-0.218802	-0.169059
H77	H	1.217259	-0.230629	-0.112314
H78	H	1.293458	-0.248129	-0.253858
H79	H	1.200220	-0.236276	-0.310606
H80	H	1.233018	-0.161527	-0.252125
