data_functionalizedCrystal
_audit_creation_method	'MofGen! by Chris Wilmer'
_symmetry_space_group_name_H-M	'P1'
_symmetry_Int_Tables_number	1
_symmetry_cell_setting	triclinic
loop_
_symmetry_equiv_pos_as_xyz
  x,y,z
_cell_length_a	10.654550
_cell_length_b	17.699083
_cell_length_c	9.730223
_cell_angle_alpha	89.997786
_cell_angle_beta	89.996251
_cell_angle_gamma	83.883958
loop_
_atom_site_label
_atom_site_type_symbol
_atom_site_fract_x
_atom_site_fract_y
_atom_site_fract_z
O1	O	1.665973	0.106299	-0.114406
O2	O	1.300318	0.116427	-0.114384
O3	O	1.493476	0.001240	-0.114384
O4	O	1.472815	0.221487	-0.114407
O5	O	1.493474	0.001243	0.114196
O6	O	1.300315	0.116430	0.114196
O7	O	1.665971	0.106302	0.114174
Zn8	Zn	1.483143	0.111366	0.150477
Zn9	Zn	1.483146	0.111363	-0.150687
O10	O	1.472813	0.221490	0.114173
C11	C	1.253531	0.115685	-0.000091
C12	C	1.114127	0.113460	-0.000083
C13	C	1.033454	0.181281	-0.000110
C14	C	0.902470	0.179185	-0.000133
C15	C	0.932845	0.041443	-0.000108
C16	C	1.063826	0.043539	-0.000075
C17	C	1.015917	0.260805	-0.000130
C18	C	0.884933	0.258710	-0.000154
C19	C	1.492735	-0.026961	-0.000093
C20	C	1.490514	-0.110993	-0.000093
C21	C	1.603894	-0.158893	-0.000097
C22	C	1.601799	-0.237850	-0.000109
C23	C	1.486324	-0.268905	-0.000107
C24	C	1.372935	-0.220998	-0.000106
C25	C	1.375031	-0.142043	-0.000104
C26	C	1.364481	-0.539415	-0.000117
C27	C	1.362394	-0.618376	-0.000115
C28	C	1.591249	-0.635222	-0.000122
C29	C	1.593345	-0.556266	-0.000120
C30	C	1.479957	-0.508367	-0.000127
C31	C	1.482229	-0.422753	-0.000116
C32	C	1.484050	-0.354517	-0.000107
C33	C	1.712757	0.107044	-0.000122
C34	C	1.852161	0.109269	-0.000140
C35	C	1.473554	0.249690	-0.000120
C36	C	1.475775	0.333722	-0.000130
N37	N	1.483150	0.111369	0.356013
N38	N	1.483149	0.111355	-0.356223
C39	C	1.568702	0.060381	0.427940
C40	C	1.568699	0.060372	0.571823
C41	C	1.397587	0.162345	0.571840
C42	C	1.397585	0.162349	0.427960
C43	C	1.667496	0.001510	0.427931
C44	C	1.667493	0.001501	0.571814
H45	H	0.891873	-0.015484	-0.000123
C46	C	1.054819	0.302821	0.129098
C47	C	0.953843	0.334572	0.233251
C48	C	0.992746	0.376586	0.362476
C49	C	1.132625	0.386849	0.387548
C50	C	1.233610	0.355097	0.283392
C51	C	1.194707	0.313083	0.154167
H52	H	0.850288	0.326975	0.214695
H53	H	0.917989	0.400091	0.439579
H54	H	1.161424	0.417950	0.483208
H55	H	1.337165	0.362694	0.301949
H56	H	1.269464	0.289578	0.077064
H57	H	1.051130	0.286125	-0.098820
H58	H	0.838840	0.282744	0.098528
H59	H	1.327922	0.203851	0.630435
C60	C	0.827836	0.299174	-0.129403
C61	C	0.914148	0.333907	-0.233580
C62	C	0.857053	0.374365	-0.362828
C63	C	0.713647	0.380090	-0.387898
C64	C	0.627327	0.345356	-0.283718
C65	C	0.684422	0.304898	-0.154471
H66	H	1.020313	0.329669	-0.215024
H67	H	0.920953	0.400077	-0.439948
H68	H	0.671381	0.410040	-0.483575
H69	H	0.521162	0.349594	-0.302274
H70	H	0.620522	0.279186	-0.077350
H71	H	1.758357	0.019944	0.383297
H72	H	1.268354	-0.643658	-0.000110
H73	H	1.697927	-0.133615	-0.000091
H74	H	1.694125	-0.276847	-0.000110
C75	C	1.239757	-0.486733	-0.000094
C76	C	1.112740	-0.520895	-0.000068
C77	C	0.988010	-0.468208	-0.000036
C78	C	0.990296	-0.381359	-0.000030
C79	C	1.117318	-0.347192	-0.000055
C80	C	1.242048	-0.399879	-0.000088
H81	H	1.111043	-0.585189	-0.000073
H82	H	0.893980	-0.493501	-0.000017
H83	H	0.897964	-0.342357	-0.000006
H84	H	1.119015	-0.282898	-0.000051
H85	H	1.336078	-0.374586	-0.000107
C86	C	1.639895	-0.077072	0.375167
C87	C	1.728650	-0.148387	0.413390
C88	C	1.701048	-0.226967	0.360626
C89	C	1.584690	-0.234232	0.269640
C90	C	1.495927	-0.162915	0.231413
C91	C	1.523530	-0.084335	0.284176
H92	H	1.814792	-0.143011	0.480747
H93	H	1.766756	-0.279760	0.388925
H94	H	1.564257	-0.292402	0.230581
H95	H	1.409786	-0.168291	0.164055
H96	H	1.457821	-0.031542	0.255877
H97	H	1.687377	-0.530986	-0.000115
H98	H	1.637942	-0.053472	0.616437
H99	H	1.129507	-0.011687	-0.000033
H100	H	1.278912	-0.246289	-0.000113
C101	C	1.797553	0.019024	0.624586
C102	C	1.916880	-0.033653	0.586356
C103	C	2.046931	-0.016128	0.639135
C104	C	2.057654	0.054074	0.730144
C105	C	1.938323	0.106755	0.768379
C106	C	1.808273	0.089230	0.715600
H107	H	1.908946	-0.085624	0.518981
H108	H	2.135267	-0.055126	0.610830
H109	H	2.153926	0.067047	0.769214
H110	H	1.946258	0.158726	0.835754
H111	H	1.719936	0.128228	0.743905
H112	H	1.683575	-0.674231	-0.000124
H113	H	1.282705	-0.103043	-0.000100
H114	H	1.327911	0.203861	0.369399
