data_functionalizedCrystal
_audit_creation_method	'MofGen! by Chris Wilmer'
_symmetry_space_group_name_H-M	'P1'
_symmetry_Int_Tables_number	1
_symmetry_cell_setting	triclinic
loop_
_symmetry_equiv_pos_as_xyz
  x,y,z
_cell_length_a	16.992694
_cell_length_b	15.944551
_cell_length_c	16.053802
_cell_angle_alpha	92.564789
_cell_angle_beta	87.249047
_cell_angle_gamma	87.083481
loop_
_atom_site_label
_atom_site_type_symbol
_atom_site_fract_x
_atom_site_fract_y
_atom_site_fract_z
O1	O	1.043704	0.174798	-0.069327
O2	O	0.815419	0.172843	-0.069352
O3	O	0.935795	0.051964	-0.069332
O4	O	0.923328	0.295677	-0.069348
O5	O	0.929169	0.058588	0.069526
O6	O	0.808793	0.179467	0.069506
O7	O	1.037078	0.181422	0.069530
Zn8	Zn	0.921884	0.181497	0.091565
Zn9	Zn	0.930613	0.172769	-0.091386
O10	O	0.916702	0.302301	0.069510
C11	C	0.782894	0.173641	0.000074
C12	C	0.695850	0.166141	0.000065
C13	C	0.645613	0.238506	0.000061
C14	C	0.563826	0.231454	0.000073
C15	C	0.532276	0.152037	0.000083
C16	C	0.582519	0.079667	0.000089
C17	C	0.664305	0.086719	0.000083
C18	C	0.288676	0.122807	0.000107
C19	C	0.206884	0.115759	0.000111
C20	C	0.188196	0.267548	0.000095
C21	C	0.269984	0.274593	0.000084
C22	C	0.320220	0.202223	0.000095
N23	N	0.448677	0.144827	0.000092
N24	N	0.403818	0.209434	0.000092
C25	C	0.931964	0.023948	0.000097
C26	C	0.930413	-0.069402	0.000098
C27	C	0.852090	-0.289513	0.000078
C28	C	0.885194	-0.344825	0.068547
C29	C	0.927606	-0.240317	0.000091
C30	C	0.891744	-0.351338	-0.068356
C31	C	0.924889	-0.405412	0.000081
C32	C	0.960728	-0.294396	0.068617
C33	C	0.967271	-0.300907	-0.068348
C34	C	1.000429	-0.356196	0.000138
C35	C	0.929169	-0.145209	0.000098
C36	C	0.923332	-0.500518	0.000080
C37	C	1.069603	0.180624	0.000103
C38	C	1.156648	0.188124	0.000106
C39	C	0.920533	0.330318	0.000079
C40	C	0.922085	0.423667	0.000073
N41	N	0.915931	0.187453	0.216424
N42	N	0.936572	0.166806	-0.216246
C43	C	0.967170	0.136040	0.260127
C44	C	0.963014	0.140215	0.347533
C45	C	0.907622	0.195808	0.391235
C46	C	0.856378	0.247223	0.347526
C47	C	0.860531	0.243043	0.260121
C48	C	0.889481	0.214042	0.652641
C49	C	0.885333	0.218220	0.740052
C50	C	0.991968	0.111209	0.740053
C51	C	0.996120	0.107038	0.652646
C52	C	0.944873	0.158450	0.608945
N53	N	0.903374	0.200078	0.480578
N54	N	0.949118	0.154175	0.519604
H55	H	0.789404	-0.260406	0.000139
H56	H	1.001946	-0.281397	-0.126229
H57	H	1.004736	0.098349	0.383115
H58	H	0.818806	0.284908	0.224539
O59	O	0.831590	0.272204	0.782635
C60	C	0.838906	0.264854	0.869150
H61	H	0.900678	0.238257	0.881078
H62	H	0.793353	0.220901	0.893973
C63	C	0.749122	0.384792	0.899363
C64	C	0.824993	0.352133	0.914013
H65	H	0.740536	0.438629	0.927038
H66	H	0.744189	0.389743	0.841076
H67	H	0.711169	0.348157	0.920048
H68	H	0.862943	0.388762	0.893318
H69	H	0.829931	0.347190	0.972298
H70	H	0.850491	-0.364314	0.126426
H71	H	0.671294	0.303176	0.000052
H72	H	0.147286	0.326467	0.000088
H73	H	1.063164	-0.385145	0.000184
H74	H	1.041224	0.061770	0.617066
O75	O	0.802639	0.301206	0.390104
C76	C	0.809948	0.293859	0.476622
H77	H	0.871717	0.267260	0.488556
H78	H	0.764390	0.249910	0.501442
C79	C	0.720167	0.413804	0.506822
C80	C	0.796035	0.381140	0.521480
H81	H	0.711582	0.467641	0.534494
H82	H	0.715240	0.418752	0.448533
H83	H	0.682211	0.377172	0.527505
H84	H	0.833990	0.417767	0.500788
H85	H	0.800968	0.376200	0.579766
O86	O	1.041660	0.061298	0.782634
C87	C	1.026133	0.076920	0.869150
H88	H	0.963231	0.104663	0.881093
H89	H	1.069336	0.123239	0.893940
C90	C	1.113041	-0.040139	0.899368
C91	C	1.035781	-0.006070	0.914037
H92	H	1.118995	-0.091329	0.927057
H93	H	1.123504	-0.050662	0.841080
H94	H	1.149034	-0.001531	0.920026
H95	H	0.999789	-0.044673	0.893369
H96	H	1.025311	0.004444	0.972322
O97	O	0.995450	-0.264561	0.137726
C98	C	0.996479	-0.176236	0.136904
H99	H	0.948081	-0.151351	0.096323
H100	H	1.056288	-0.157818	0.110442
C101	C	1.041629	-0.168813	0.276414
C102	C	0.982182	-0.138249	0.226576
H103	H	1.032814	-0.145380	0.331727
H104	H	1.040939	-0.228319	0.276967
H105	H	1.091465	-0.153463	0.254352
H106	H	0.932350	-0.153608	0.248632
H107	H	0.982863	-0.078744	0.226029
H108	H	0.705207	0.027792	0.000086
H109	H	0.862556	-0.376319	-0.126245
O110	O	0.176365	0.038546	0.000157
C111	C	0.238242	-0.023819	0.000143
H112	H	0.292551	0.004706	0.026432
H113	H	0.252986	-0.049584	-0.066472
C114	C	0.145849	-0.130708	0.022314
C115	C	0.212550	-0.095674	0.054609
H116	H	0.130001	-0.175034	0.055908
H117	H	0.104160	-0.088692	0.022321
H118	H	0.158145	-0.152172	-0.033198
H119	H	0.200250	-0.074202	0.110116
H120	H	0.254236	-0.137688	0.054614
H121	H	1.012279	0.090773	0.224550
H122	H	0.847755	0.255905	0.617067
H123	H	0.522926	0.290381	0.000068
H124	H	0.295666	0.339262	0.000066
H125	H	0.329568	0.063878	0.000117
O126	O	0.551746	0.002583	0.000064
C127	C	0.468787	0.011874	0.000087
H128	H	0.450834	0.074879	-0.026207
H129	H	0.442850	0.009455	0.066705
C130	C	0.459501	-0.137202	-0.022065
C131	C	0.437452	-0.059821	-0.054367
H132	H	0.440171	-0.181429	-0.055651
H133	H	0.515393	-0.143463	-0.022077
H134	H	0.437886	-0.139206	0.033450
H135	H	0.459075	-0.057814	-0.109876
H136	H	0.381563	-0.053562	-0.054365
