data_functionalizedCrystal
_audit_creation_method	'MofGen! by Chris Wilmer'
_symmetry_space_group_name_H-M	'P1'
_symmetry_Int_Tables_number	1
_symmetry_cell_setting	triclinic
loop_
_symmetry_equiv_pos_as_xyz
  x,y,z
_cell_length_a	16.120530
_cell_length_b	16.120484
_cell_length_c	16.120297
_cell_angle_alpha	95.614431
_cell_angle_beta	90.128140
_cell_angle_gamma	90.167327
loop_
_atom_site_label
_atom_site_type_symbol
_atom_site_fract_x
_atom_site_fract_y
_atom_site_fract_z
Zn1	Zn	1.224987	-0.422264	-0.554813
Zn2	Zn	1.724987	0.077736	-0.054813
Zn3	Zn	1.224883	-0.554948	-0.422118
Zn4	Zn	1.724883	-0.054948	0.077882
Zn5	Zn	1.093726	-0.408180	-0.408056
Zn6	Zn	1.593726	0.091820	0.091944
Zn7	Zn	1.078880	-0.554181	-0.554051
Zn8	Zn	1.578880	-0.054181	-0.054051
O9	O	1.155619	-0.484893	-0.484760
O10	O	1.655619	0.015107	0.015240
O11	O	1.341009	-0.446081	-0.543415
O12	O	1.841009	0.053919	-0.043415
O13	O	1.213654	-0.529906	-0.303620
O14	O	1.713654	-0.029906	0.196380
O15	O	1.117395	-0.293418	-0.421958
O16	O	1.617395	0.206582	0.078042
O17	O	1.340932	-0.543563	-0.445925
O18	O	1.840932	-0.043563	0.054075
O19	O	1.213832	-0.303765	-0.529780
O20	O	1.713832	0.196235	-0.029780
O21	O	1.117294	-0.422076	-0.293289
O22	O	1.617294	0.077924	0.206711
O23	O	0.975721	-0.421332	-0.421218
O24	O	1.475721	0.078668	0.078782
O25	O	1.092092	-0.542255	-0.670785
O26	O	1.592092	-0.042255	-0.170785
O27	O	0.964814	-0.528598	-0.528480
O28	O	1.464814	-0.028598	-0.028480
O29	O	1.199436	-0.445336	-0.671345
O30	O	1.699436	0.054664	-0.171345
O31	O	1.199258	-0.671477	-0.445185
O32	O	1.699258	-0.171477	0.054815
O33	O	1.091990	-0.670913	-0.542116
O34	O	1.591990	-0.170913	-0.042116
C35	C	0.940181	-0.473354	-0.473241
C36	C	1.440181	0.026646	0.026759
C37	C	0.848013	-0.468438	-0.468334
C38	C	1.348013	0.031562	0.031666
C39	C	0.679262	-0.459445	-0.459381
C40	C	1.179262	0.040555	0.040619
C41	C	0.632810	-0.510407	-0.510202
C42	C	1.132810	-0.010407	-0.010202
C43	C	0.538911	-0.505403	-0.505220
C44	C	1.038911	-0.005403	-0.005220
C45	C	0.773169	-0.464448	-0.464361
C46	C	1.273169	0.035552	0.035639
C47	C	1.144023	-0.701438	-0.495113
C48	C	1.644023	-0.201438	0.004887
C49	C	1.139137	-0.794083	-0.499574
C50	C	1.639137	-0.294083	0.000426
C51	C	1.130220	-0.963706	-0.507736
C52	C	1.630220	-0.463706	-0.007736
C53	C	1.181166	-1.005249	-0.461804
C54	C	1.681166	-0.505249	0.038196
C55	C	1.176204	-1.099633	-0.466346
C56	C	1.676204	-0.599633	0.033654
C57	C	1.135180	-0.869313	-0.503196
C58	C	1.635180	-0.369313	-0.003196
C59	C	1.371899	-0.496479	-0.496324
C60	C	1.871899	0.003521	0.003676
C61	C	1.464064	-0.501416	-0.501252
C62	C	1.964064	-0.001416	-0.001252
C63	C	1.144119	-0.495281	-0.702152
C64	C	1.644119	0.004719	-0.202152
C65	C	1.139219	-0.499708	-0.794791
C66	C	1.639219	0.000292	-0.294791
C67	C	1.167282	-0.267505	-0.474385
C68	C	1.667282	0.232495	0.025615
C69	C	1.172251	-0.174867	-0.469964
C70	C	1.672251	0.325133	0.030036
C71	C	1.130243	-0.507770	-0.964403
C72	C	1.630243	-0.007770	-0.464403
C73	C	1.181172	-0.461776	-1.005965
C74	C	1.681172	0.038224	-0.505965
C75	C	1.176177	-0.466262	-1.100342
C76	C	1.676177	0.033738	-0.600342
C77	C	1.135236	-0.503285	-0.870017
C78	C	1.635236	-0.003285	-0.370017
C79	C	1.167125	-0.474489	-0.268213
C80	C	1.667125	0.025511	0.231787
C81	C	1.172198	-0.469836	-0.175571
C82	C	1.672198	0.030164	0.324429
H83	H	1.228508	-0.969931	-0.419069
H84	H	1.728508	-0.469931	0.080931
C85	C	1.067064	-1.010643	-0.564794
C86	C	1.567064	-0.510643	-0.064794
C87	C	1.021042	-0.953770	-0.606296
C88	C	1.521042	-0.453770	-0.106296
C89	C	0.962863	-0.996989	-0.658869
C90	C	1.462863	-0.496989	-0.158869
H91	H	1.030822	-1.041200	-0.532639
H92	H	1.530822	-0.541200	-0.032639
H93	H	1.095063	-1.047976	-0.604473
H94	H	1.595063	-0.547976	-0.104473
H95	H	0.993044	-0.916451	-0.566623
H96	H	1.493044	-0.416451	-0.066623
H97	H	1.057261	-0.923210	-0.638467
H98	H	1.557261	-0.423210	-0.138467
H99	H	0.990862	-1.034322	-0.698548
H100	H	1.490862	-0.534322	-0.198548
H101	H	0.926627	-1.027544	-0.626708
H102	H	1.426627	-0.527544	-0.126708
H103	H	0.931635	-0.958407	-0.687041
H104	H	1.431635	-0.458407	-0.187041
H105	H	1.228524	-0.419031	-0.970668
H106	H	1.728524	0.080969	-0.470668
H107	H	0.663563	-0.557794	-0.557453
H108	H	1.163563	-0.057794	-0.057453
C109	C	1.067241	-0.564881	-1.011518
C110	C	1.567241	-0.064881	-0.511518
C111	C	1.108745	-0.623151	-1.066552
C112	C	1.608745	-0.123151	-0.566552
C113	C	1.050740	-0.675783	-1.109971
C114	C	1.550740	-0.175783	-0.609971
H115	H	1.031035	-0.532747	-1.042089
H116	H	1.531035	-0.032747	-0.542089
H117	H	1.035953	-0.593204	-0.973062
H118	H	1.535953	-0.093204	-0.473062
H119	H	1.140019	-0.594830	-1.105003
H120	H	1.640019	-0.094830	-0.605003
H121	H	1.144946	-0.655304	-1.036002
H122	H	1.644946	-0.155304	-0.536002
H123	H	1.019451	-0.704107	-1.071515
H124	H	1.519451	-0.204107	-0.571515
H125	H	1.014537	-0.643643	-1.140538
H126	H	1.514537	-0.143643	-0.640538
H127	H	1.078892	-0.715330	-1.147311
H128	H	1.578892	-0.215330	-0.647311
C129	C	0.638108	-0.396348	-0.396406
C130	C	1.138108	0.103652	0.103594
C131	C	0.551805	-0.403893	-0.403907
C132	C	1.051805	0.096107	0.096093
C133	C	0.513857	-0.345793	-0.345901
C134	C	1.013857	0.154207	0.154099
H135	H	0.654504	-0.341649	-0.406688
H136	H	1.154504	0.158351	0.093312
H137	H	0.654503	-0.406529	-0.341680
H138	H	1.154503	0.093471	0.158320
H139	H	0.535417	-0.393706	-0.458620
H140	H	1.035417	0.106294	0.041380
H141	H	0.535386	-0.458579	-0.393617
H142	H	1.035386	0.041421	0.106383
H143	H	0.530252	-0.355973	-0.291174
H144	H	1.030252	0.144027	0.208826
H145	H	0.530259	-0.291098	-0.356188
H146	H	1.030259	0.208902	0.143812
H147	H	0.455297	-0.350909	-0.350977
H148	H	0.955297	0.149091	0.149023
