data_functionalizedCrystal
_audit_creation_method	'MofGen! by Chris Wilmer'
_symmetry_space_group_name_H-M	'P1'
_symmetry_Int_Tables_number	1
_symmetry_cell_setting	triclinic
loop_
_symmetry_equiv_pos_as_xyz
  x,y,z
_cell_length_a	19.288864
_cell_length_b	14.519709
_cell_length_c	18.366186
_cell_angle_alpha	89.992822
_cell_angle_beta	89.977106
_cell_angle_gamma	83.408195
loop_
_atom_site_label
_atom_site_type_symbol
_atom_site_fract_x
_atom_site_fract_y
_atom_site_fract_z
O1	O	0.921767	0.115045	-0.060785
O2	O	1.421767	0.615045	0.439215
O3	O	0.719562	0.130564	-0.060735
O4	O	1.219562	0.630564	0.439265
O5	O	0.826026	-0.011468	-0.060755
O6	O	1.326026	0.488532	0.439245
O7	O	0.815303	0.257077	-0.060765
O8	O	1.315303	0.757077	0.439235
O9	O	0.826007	-0.011475	0.060345
O10	O	1.326007	0.488525	0.560345
O11	O	0.719544	0.130557	0.060364
O12	O	1.219544	0.630557	0.560364
O13	O	0.921749	0.115038	0.060315
O14	O	1.421749	0.615038	0.560315
Zn15	Zn	0.820643	0.122797	0.079567
Zn16	Zn	1.320643	0.622797	0.579567
Zn17	Zn	0.820667	0.122806	-0.079987
Zn18	Zn	1.320667	0.622806	0.420013
O19	O	0.815285	0.257070	0.060334
O20	O	1.315285	0.757070	0.560334
C21	C	0.693675	0.130061	-0.000179
C22	C	1.193675	0.630061	0.499821
C23	C	0.616566	0.128562	-0.000160
C24	C	1.116566	0.628562	0.499840
C25	C	0.572169	0.211900	-0.000175
C26	C	1.072169	0.711900	0.499825
C27	C	0.499717	0.210492	-0.000183
C28	C	0.999717	0.710492	0.499817
C29	C	0.471665	0.125741	-0.000191
C30	C	0.971665	0.625741	0.499809
C31	C	0.516071	0.042392	-0.000172
C32	C	1.016071	0.542392	0.499828
C33	C	0.588521	0.043803	-0.000156
C34	C	1.088521	0.543803	0.499844
C35	C	0.363169	0.059120	-0.042639
C36	C	0.863169	0.559120	0.457361
C37	C	0.290720	0.057713	-0.042659
C38	C	0.790720	0.557713	0.457341
C39	C	0.248203	0.121387	-0.000234
C40	C	0.748203	0.621387	0.499766
C41	C	0.278144	0.186484	0.042200
C42	C	0.778144	0.686484	0.542200
C43	C	0.350595	0.187894	0.042215
C44	C	0.850595	0.687894	0.542215
C45	C	0.393105	0.124202	-0.000207
C46	C	0.893105	0.624202	0.499793
C47	C	0.125246	0.203203	-0.000257
C48	C	0.625246	0.703203	0.499743
C49	C	0.052792	0.201792	-0.000260
C50	C	0.552792	0.701792	0.499740
C51	C	0.069148	0.033689	-0.000257
C52	C	0.569148	0.533689	0.499743
C53	C	0.141599	0.035103	-0.000246
C54	C	0.641599	0.535103	0.499754
C55	C	0.169644	0.119863	-0.000249
C56	C	0.669644	0.619863	0.499751
C57	C	0.825517	-0.045828	-0.000205
C58	C	1.325517	0.454172	0.499795
C59	C	0.824019	-0.148200	-0.000204
C60	C	1.324019	0.351800	0.499796
C61	C	0.818507	-0.523061	-0.000222
C62	C	1.318507	-0.023061	0.499778
C63	C	0.820037	-0.418762	-0.000216
C64	C	1.320037	0.081238	0.499784
C65	C	0.821263	-0.335633	-0.000212
C66	C	1.321263	0.164367	0.499788
C67	C	0.822794	-0.231329	-0.000208
C68	C	1.322794	0.268671	0.499792
C69	C	0.947636	0.115541	-0.000243
C70	C	1.447636	0.615541	0.499757
C71	C	1.024745	0.117040	-0.000267
C72	C	1.524745	0.617040	0.499733
C73	C	0.815794	0.291430	-0.000217
C74	C	1.315794	0.791430	0.499783
C75	C	0.817291	0.393802	-0.000223
C76	C	1.317291	0.893802	0.499777
N77	N	0.820632	0.122790	0.188458
N78	N	1.320632	0.622790	0.688458
N79	N	0.820684	0.122805	-0.188878
N80	N	1.320684	0.622805	0.311122
C81	C	0.867790	0.059929	0.226549
C82	C	1.367790	0.559929	0.726549
C83	C	0.867794	0.059925	0.302777
C84	C	1.367794	0.559925	0.802777
C85	C	0.820648	0.122797	0.340910
C86	C	1.320648	0.622797	0.840910
C87	C	0.773481	0.185663	0.302809
C88	C	1.273481	0.685663	0.802809
C89	C	0.773473	0.185659	0.226583
C90	C	1.273473	0.685659	0.726583
C91	C	0.811652	0.206826	0.461669
C92	C	1.311652	0.706826	0.961669
C93	C	0.811664	0.206831	0.537894
C94	C	1.311664	0.706831	1.037894
C95	C	0.820667	0.122809	0.576018
C96	C	1.320667	0.622809	1.076018
C97	C	0.829673	0.038778	0.537908
C98	C	1.329673	0.538778	1.037908
C99	C	0.829665	0.038775	0.461681
C100	C	1.329665	0.538775	0.961681
C101	C	0.820650	0.122808	0.423565
C102	C	1.320650	0.622808	0.923565
C103	C	0.867832	0.059938	0.696765
C104	C	1.367832	0.559938	1.196765
C105	C	0.867832	0.059933	0.772994
C106	C	1.367832	0.559933	1.272994
C107	C	0.773522	0.185679	0.773025
C108	C	1.273522	0.685679	1.273025
C109	C	0.773519	0.185677	0.696797
C110	C	1.273519	0.685677	1.196797
C111	C	0.820678	0.122807	0.658671
C112	C	1.320678	0.622807	1.158671
H113	H	0.148080	0.272220	-0.000249
H114	H	0.648080	0.772220	0.499751
C115	C	0.839575	-0.053654	0.579838
C116	C	1.339575	0.446346	1.079838
N117	N	0.847033	-0.123271	0.611424
N118	N	1.347033	0.376729	1.111424
H119	H	0.046308	-0.035317	-0.000308
H120	H	0.546308	0.464683	0.499692
C121	C	0.919700	-0.009239	0.814895
C122	C	1.419700	0.490761	1.314895
N123	N	0.958765	-0.061344	0.846455
N124	N	1.458765	0.438656	1.346455
H125	H	0.906197	0.008734	0.333797
H126	H	1.406197	0.508734	0.833797
H127	H	0.735092	0.236854	0.333861
H128	H	1.235092	0.736854	0.833861
H129	H	0.804308	0.275251	0.430634
H130	H	1.304308	0.775251	0.930634
H131	H	0.804336	0.275253	0.568917
H132	H	1.304336	0.775253	1.068917
C133	C	0.450872	0.302174	-0.000207
C134	C	0.950872	0.802174	0.499793
N135	N	0.414084	0.371229	-0.000230
N136	N	0.914084	0.871229	0.499770
C137	C	0.190438	-0.056576	-0.000238
C138	C	0.690438	0.443424	0.499762
N139	N	0.227223	-0.125634	-0.000231
N140	N	0.727223	0.374366	0.499769
H141	H	0.266348	0.004711	-0.077214
H142	H	0.766348	0.504711	0.422786
C143	C	0.383527	0.259491	0.088900
C144	C	0.883527	0.759491	0.588900
N145	N	0.408333	0.313415	0.124068
N146	N	0.908333	0.813415	0.624068
H147	H	0.016645	0.269658	-0.000268
H148	H	0.516645	0.769658	0.499732
C149	C	0.231381	0.256528	0.088873
C150	C	0.731381	0.756528	0.588873
N151	N	0.196157	0.309284	0.124026
N152	N	0.696157	0.809284	0.624026
C153	C	0.409930	-0.010928	-0.089316
C154	C	0.909930	0.489072	0.410684
N155	N	0.445150	-0.063685	-0.124472
N156	N	0.945150	0.436315	0.375528
C157	C	0.721624	0.254854	0.184681
C158	C	1.221624	0.754854	0.684681
N159	N	0.682582	0.306988	0.153119
N160	N	1.182582	0.806988	0.653119
H161	H	0.594998	0.280918	-0.000179
H162	H	1.094998	0.780918	0.499821
C163	C	0.919701	-0.009227	0.654824
C164	C	1.419701	0.490773	1.154824
N165	N	0.958768	-0.061325	0.623236
N166	N	1.458768	0.438675	1.123236
H167	H	0.493226	-0.026613	-0.000188
H168	H	0.993226	0.473387	0.499812
H169	H	0.624670	-0.024063	-0.000145
H170	H	1.124670	0.475937	0.499855
C171	C	0.839561	-0.053657	0.419763
C172	C	1.339561	0.446343	0.919763
N173	N	0.847011	-0.123278	0.388190
N174	N	1.347011	0.376722	0.888190
H175	H	0.906187	0.008734	0.195510
H176	H	1.406187	0.508734	0.695510
C177	C	0.721661	0.254841	0.814967
C178	C	1.221661	0.754841	1.314967
N179	N	0.682597	0.306935	0.846561
N180	N	1.182597	0.806935	1.346561
H181	H	0.735122	0.236868	0.665780
H182	H	1.235122	0.736868	1.165780
