data_functionalizedCrystal
_audit_creation_method	'MofGen! by Chris Wilmer'
_symmetry_space_group_name_H-M	'P1'
_symmetry_Int_Tables_number	1
_symmetry_cell_setting	triclinic
loop_
_symmetry_equiv_pos_as_xyz
  x,y,z
_cell_length_a	10.654543
_cell_length_b	10.654550
_cell_length_c	9.130313
_cell_angle_alpha	89.995873
_cell_angle_beta	89.999355
_cell_angle_gamma	95.516448
loop_
_atom_site_label
_atom_site_type_symbol
_atom_site_fract_x
_atom_site_fract_y
_atom_site_fract_z
O1	O	-1.667845	0.176358	-0.121641
O2	O	-1.302366	0.193173	-0.121679
O3	O	-1.493509	0.002026	-0.121650
O4	O	-1.476703	0.367505	-0.121670
O5	O	-1.493494	0.002021	0.121949
O6	O	-1.302351	0.193168	0.121920
O7	O	-1.667830	0.176353	0.121957
Cu8	Cu	-1.485089	0.184760	0.144181
Cu9	Cu	-1.485107	0.184766	-0.143903
O10	O	-1.476687	0.367500	0.121929
C11	C	-1.255560	0.191938	0.000116
C12	C	-1.116116	0.188249	0.000102
C13	C	-1.036631	0.300793	0.000098
C14	C	-0.905609	0.297319	0.000120
C15	C	-0.933573	0.068749	0.000144
C16	C	-1.064591	0.072224	0.000132
C17	C	-1.492267	-0.044774	0.000148
C18	C	-1.488575	-0.184217	0.000146
C19	C	-1.601117	-0.263706	0.000157
C20	C	-1.597641	-0.394726	0.000139
C21	C	-1.369070	-0.366758	0.000105
C22	C	-1.372548	-0.235740	0.000112
C23	C	-0.714635	0.177595	0.000152
C24	C	-0.854077	0.181301	0.000135
C25	C	-1.477929	0.414300	0.000127
C26	C	-1.481621	0.553744	0.000120
N27	N	-1.485086	0.184756	0.346804
C28	C	-1.569752	0.100152	0.423468
C29	C	-1.569763	0.100153	0.576805
C30	C	-1.400437	0.269372	0.576799
C31	C	-1.400421	0.269364	0.423465
N32	N	-1.485112	0.184765	0.653475
H33	H	-1.695593	-0.221761	0.000181
H34	H	-1.689284	-0.459442	0.000144
N35	N	-1.150335	-0.049168	0.000154
H36	H	-1.097815	-0.123196	0.000167
H37	H	-1.205304	-0.052709	-0.090151
H38	H	-1.274605	-0.408724	0.000080
N39	N	-1.251158	-0.149993	0.000090
H40	H	-1.177128	-0.202511	0.000078
H41	H	-1.247616	-0.095029	0.090395
N42	N	-1.092203	0.425930	0.000092
H43	H	-1.187265	0.411058	0.000083
H44	H	-1.063188	0.475232	-0.090213
N45	N	-1.661046	0.008897	0.340762
H46	H	-1.750310	0.024181	0.367425
H47	H	-1.645701	-0.080335	0.367490
N48	N	-1.661098	0.008920	0.659495
H49	H	-1.714733	-0.044670	0.587659
H50	H	-1.717028	0.057544	0.723089
H51	H	-1.331507	0.338261	0.639233
N52	N	-0.819850	0.418687	0.000118
H53	H	-0.764885	0.422319	0.090433
H54	H	-0.872437	0.492661	0.000047
N55	N	-1.309088	0.360609	0.340764
H56	H	-1.255460	0.414214	0.412593
H57	H	-1.357634	0.416577	0.277122
H58	H	-0.891604	-0.025715	0.000177
