data_functionalizedCrystal
_audit_creation_method	'MofGen! by Chris Wilmer'
_symmetry_space_group_name_H-M	'P1'
_symmetry_Int_Tables_number	1
_symmetry_cell_setting	triclinic
loop_
_symmetry_equiv_pos_as_xyz
  x,y,z
_cell_length_a	10.489741
_cell_length_b	23.532407
_cell_length_c	8.965430
_cell_angle_alpha	89.995773
_cell_angle_beta	89.998843
_cell_angle_gamma	83.693926
loop_
_atom_site_label
_atom_site_type_symbol
_atom_site_fract_x
_atom_site_fract_y
_atom_site_fract_z
O1	O	1.691383	0.080340	-0.123964
O2	O	1.319936	0.087881	-0.123989
O3	O	1.516860	0.001253	-0.123949
O4	O	1.494458	0.166968	-0.124005
O5	O	1.516844	0.001259	0.124130
O6	O	1.319920	0.087887	0.124090
O7	O	1.691366	0.080346	0.124115
Cu8	Cu	1.505641	0.084117	0.146754
Cu9	Cu	1.505661	0.084110	-0.146628
O10	O	1.494442	0.166974	0.124074
C11	C	1.272415	0.087315	0.000048
C12	C	1.130842	0.085611	0.000039
C13	C	1.064535	0.030491	0.000072
C14	C	0.971550	0.056526	-0.122250
C15	C	0.971568	0.056545	0.122337
C16	C	1.039723	0.111668	-0.122383
C17	C	1.039750	0.111679	0.122313
C18	C	0.946792	0.137754	-0.000039
C19	C	1.516282	-0.019964	0.000095
C20	C	1.514566	-0.083192	0.000106
C21	C	1.620344	-0.481594	0.000031
C22	C	1.618751	-0.541005	0.000020
O23	O	1.716808	-0.577100	-0.000029
N24	N	1.501680	-0.564407	0.000013
C25	C	1.386194	-0.528395	0.000003
O26	O	1.286470	-0.553755	-0.000006
C27	C	1.387789	-0.468985	0.000003
C28	C	1.504868	-0.445587	0.000025
C29	C	1.737414	-0.458195	0.000051
C30	C	1.739007	-0.398788	0.000066
C31	C	1.623530	-0.362781	0.000060
C32	C	1.506460	-0.386180	0.000039
C33	C	1.272305	-0.432974	-0.000018
C34	C	1.273909	-0.373561	-0.000018
C35	C	1.390988	-0.350162	0.000004
C36	C	1.392576	-0.290766	0.000048
N37	N	1.509648	-0.267364	0.000054
C38	C	1.625125	-0.303371	0.000060
C39	C	1.382854	-0.653160	-0.000002
C40	C	1.381258	-0.712568	0.000008
C41	C	1.613816	-0.725174	0.000023
C42	C	1.615410	-0.665765	0.000023
C43	C	1.499926	-0.629758	0.000005
C44	C	1.628461	-0.178612	0.000092
C45	C	1.630043	-0.119200	0.000112
C46	C	1.397486	-0.106599	0.000090
C47	C	1.395903	-0.166006	0.000077
C48	C	1.511401	-0.202012	0.000073
O49	O	1.294571	-0.254636	0.000090
O50	O	1.724833	-0.278003	0.000049
C51	C	1.738887	0.080912	0.000075
C52	C	1.880460	0.082616	0.000073
C53	C	1.495021	0.188191	0.000028
C54	C	1.496736	0.251419	0.000006
N55	N	1.505637	0.084121	0.353103
N56	N	1.505676	0.084101	-0.352977
C57	C	1.414538	0.124171	0.450390
C58	C	1.529652	0.135693	0.549807
C59	C	1.390572	0.072603	0.549813
C60	C	1.620808	0.095670	0.450331
C61	C	1.481652	0.032557	0.450328
C62	C	1.596850	0.044059	0.549701
H63	H	0.895860	0.183113	-0.000121
O64	O	1.125429	-0.023598	0.000141
C65	C	1.089237	-0.052863	0.127912
H66	H	0.992739	-0.032003	0.170108
H67	H	1.164753	-0.050824	0.218630
C68	C	1.196563	-0.141382	0.036109
C69	C	1.078038	-0.115765	0.087927
H70	H	1.189661	-0.180184	0.011449
H71	H	1.220952	-0.121666	-0.049970
H72	H	1.259482	-0.139678	0.111717
H73	H	1.015125	-0.117463	0.012314
H74	H	1.053638	-0.135483	0.173993
O75	O	1.688799	0.003572	0.601225
C76	C	1.664303	-0.050597	0.548326
H77	H	1.603179	-0.045170	0.443092
H78	H	1.610944	-0.073191	0.637446
C79	C	1.867268	-0.093242	0.641556
C80	C	1.792203	-0.086577	0.512299
H81	H	1.946161	-0.115438	0.619339
H82	H	1.883770	-0.056748	0.677201
H83	H	1.822787	-0.112069	0.715811
H84	H	1.836676	-0.067745	0.438053
H85	H	1.775711	-0.123069	0.476640
H86	H	1.070014	0.134985	0.225718
O87	O	1.457154	-0.019415	0.398215
C88	C	1.335680	-0.031388	0.448844
H89	H	1.274611	0.010348	0.476796
H90	H	1.347702	-0.059340	0.552847
C91	C	1.344245	-0.114345	0.291568
C92	C	1.269236	-0.063084	0.325887
H93	H	1.303261	-0.133899	0.215727
H94	H	1.426087	-0.106280	0.257462
H95	H	1.354258	-0.137631	0.378248
H96	H	1.259238	-0.039796	0.239214
H97	H	1.187390	-0.071145	0.359976
O98	O	1.553670	0.187742	0.601879
C99	C	1.457405	0.229856	0.551261
H100	H	1.367170	0.209066	0.523367
H101	H	1.492424	0.251280	0.447225
C102	C	1.537660	0.300537	0.708443
C103	C	1.426830	0.275004	0.674196
H104	H	1.518803	0.328388	0.784271
H105	H	1.602520	0.272165	0.742542
H106	H	1.566833	0.318386	0.621736
H107	H	1.397669	0.257150	0.760897
H108	H	1.361964	0.303374	0.640114
H109	H	1.718153	0.105455	0.406816
O110	O	1.322563	0.164577	0.398531
C111	C	1.201556	0.152883	0.451358
H112	H	1.214496	0.125765	0.556762
H113	H	1.151848	0.128652	0.362318
C114	C	1.103150	0.242782	0.357502
C115	C	1.119043	0.209479	0.486968
H116	H	1.052249	0.277693	0.379461
H117	H	1.184673	0.250660	0.321905
H118	H	1.061732	0.222583	0.283314
H119	H	1.160475	0.229675	0.561146
H120	H	1.037524	0.201606	0.522577
O121	O	1.274412	0.060953	0.601691
C122	C	1.192542	0.053342	0.480299
H123	H	1.252527	0.040756	0.377051
H124	H	1.129091	0.094965	0.457839
C125	C	1.034120	0.021263	0.644318
C126	C	1.107795	0.005800	0.517510
H127	H	0.981839	-0.008062	0.667272
H128	H	1.089274	0.026392	0.726103
H129	H	0.981255	0.055949	0.625584
H130	H	1.160669	-0.028882	0.536251
H131	H	1.052647	0.000663	0.435728
O132	O	0.935394	0.028798	-0.245722
C133	C	0.850005	0.066189	-0.331002
H134	H	0.864923	0.112305	-0.303671
H135	H	0.747082	0.058641	-0.303583
C136	C	0.857288	-0.001704	-0.531683
C137	C	0.875618	0.054936	-0.498124
H138	H	0.873081	-0.008647	-0.634772
H139	H	0.914812	-0.026897	-0.474227
H140	H	0.771518	-0.007987	-0.508823
H141	H	0.961389	0.061217	-0.520966
H142	H	0.818107	0.080130	-0.555588
H143	H	1.176967	-0.452014	-0.000045
H144	H	1.710746	-0.646718	0.000040
O145	O	1.740770	-0.213501	0.000159
C146	C	1.844427	-0.180098	0.000144
H147	H	1.811452	-0.135905	0.047112
H148	H	1.880361	-0.175710	-0.118866
C149	C	1.994159	-0.263517	0.039757
C150	C	1.953661	-0.209239	0.097456
H151	H	2.061543	-0.281492	0.099777
H152	H	1.924325	-0.286021	0.039762
H153	H	2.024095	-0.259852	-0.059417
H154	H	1.923711	-0.212904	0.196620
H155	H	2.023494	-0.186735	0.097470
H156	H	1.834344	-0.379743	0.000077
H157	H	1.831454	-0.487507	0.000051
O158	O	1.267416	-0.735200	-0.000063
C159	C	1.165844	-0.690672	-0.000024
H160	H	1.201083	-0.650171	-0.046978
H161	H	1.130255	-0.682420	0.118991
C162	C	1.012086	-0.757634	-0.039655
C163	C	1.055364	-0.707891	-0.097337
H164	H	0.943933	-0.768256	-0.099676
H165	H	1.080515	-0.787634	-0.039675
H166	H	0.982437	-0.750751	0.059523
H167	H	1.085026	-0.714776	-0.196506
H168	H	0.986937	-0.677892	-0.097336
H169	H	1.069783	0.134970	-0.225914
H170	H	0.941358	0.033215	0.225751
H171	H	1.725387	-0.100152	0.000134
H172	H	1.707843	-0.754503	0.000022
H173	H	1.288807	-0.623845	-0.000004
H174	H	1.300568	-0.185058	0.000101
H175	H	1.179865	-0.344246	-0.000035
H176	H	1.303468	-0.077271	0.000090
