data_functionalizedCrystal
_audit_creation_method	'MofGen! by Chris Wilmer'
_symmetry_space_group_name_H-M	'P1'
_symmetry_Int_Tables_number	1
_symmetry_cell_setting	triclinic
loop_
_symmetry_equiv_pos_as_xyz
  x,y,z
_cell_length_a	18.050591
_cell_length_b	18.050589
_cell_length_c	16.120379
_cell_angle_alpha	87.038840
_cell_angle_beta	92.857147
_cell_angle_gamma	90.024227
loop_
_atom_site_label
_atom_site_type_symbol
_atom_site_fract_x
_atom_site_fract_y
_atom_site_fract_z
Zn1	Zn	1.114156	-0.274172	-0.471566
Zn2	Zn	1.447489	0.059161	-0.138233
Zn3	Zn	1.780823	0.392494	0.195101
Zn4	Zn	1.120315	-0.404745	-0.332157
Zn5	Zn	1.453649	-0.071412	0.001176
Zn6	Zn	1.786982	0.261921	0.334510
Zn7	Zn	0.996224	-0.280565	-0.332148
Zn8	Zn	1.329558	0.052768	0.001186
Zn9	Zn	1.662891	0.386101	0.334519
Zn10	Zn	0.989926	-0.398319	-0.471515
Zn11	Zn	1.323259	-0.064986	-0.138182
Zn12	Zn	1.656592	0.268348	0.195151
O13	O	1.055155	-0.339451	-0.401846
O14	O	1.388489	-0.006117	-0.068513
O15	O	1.721822	0.327216	0.264820
O16	O	1.218897	-0.291507	-0.453098
O17	O	1.552230	0.041826	-0.119765
O18	O	1.885563	0.375159	0.213569
O19	O	1.109068	-0.393638	-0.215487
O20	O	1.442401	-0.060304	0.117847
O21	O	1.775735	0.273029	0.451180
O22	O	1.011927	-0.175792	-0.350659
O23	O	1.345260	0.157541	-0.017326
O24	O	1.678593	0.490875	0.316008
O25	O	1.223422	-0.387439	-0.350675
O26	O	1.556755	-0.054105	-0.017342
O27	O	1.890088	0.279228	0.315992
O28	O	1.098571	-0.171095	-0.453089
O29	O	1.431904	0.162238	-0.119756
O30	O	1.765237	0.495572	0.213578
O31	O	1.017899	-0.302403	-0.215480
O32	O	1.351232	0.030930	0.117854
O33	O	1.684566	0.364264	0.451187
O34	O	0.891465	-0.296172	-0.350610
O35	O	1.224799	0.037162	-0.017277
O36	O	1.558132	0.370495	0.316057
O37	O	1.001191	-0.376486	-0.588191
O38	O	1.334525	-0.043152	-0.254858
O39	O	1.667858	0.290181	0.078476
O40	O	0.886838	-0.382685	-0.453003
O41	O	1.220171	-0.049351	-0.119669
O42	O	1.553504	0.283982	0.213664
O43	O	1.092463	-0.285276	-0.588228
O44	O	1.425796	0.048058	-0.254895
O45	O	1.759130	0.381391	0.078438
O46	O	1.102961	-0.507818	-0.350626
O47	O	1.436294	-0.174485	-0.017292
O48	O	1.769627	0.158848	0.316041
O49	O	1.007164	-0.503097	-0.453012
O50	O	1.340497	-0.169763	-0.119679
O51	O	1.673830	0.163570	0.213655
C52	C	0.862205	-0.339425	-0.401800
C53	C	1.195539	-0.006092	-0.068467
C54	C	1.528872	0.327242	0.264866
C55	C	0.779660	-0.339431	-0.401800
C56	C	1.112993	-0.006098	-0.068467
C57	C	1.446326	0.327236	0.264866
C58	C	0.582698	-0.292322	-0.346247
C59	C	0.916031	0.041011	-0.012914
C60	C	1.249365	0.374345	0.320419
C61	C	0.534198	-0.360998	-0.325736
C62	C	0.867531	-0.027665	0.007598
C63	C	1.200864	0.305669	0.340931
C64	C	0.628527	-0.339452	-0.401838
C65	C	0.961861	-0.006118	-0.068505
C66	C	1.295194	0.327215	0.264829
C67	C	0.529946	-0.270799	-0.422347
C68	C	0.863280	0.062534	-0.089014
C69	C	1.196613	0.395867	0.244319
C70	C	0.482541	-0.339466	-0.401873
C71	C	0.815874	-0.006133	-0.068540
C72	C	1.149207	0.327201	0.264794
C73	C	0.581116	-0.408165	-0.381287
C74	C	0.914449	-0.074832	-0.047953
C75	C	1.247783	0.258501	0.285380
C76	C	0.576867	-0.317919	-0.477934
C77	C	0.910201	0.015414	-0.144601
C78	C	1.243534	0.348747	0.188733
C79	C	0.528388	-0.386641	-0.457451
C80	C	0.861721	-0.053308	-0.124118
C81	C	1.195055	0.280026	0.209215
C82	C	0.712627	-0.339443	-0.401816
C83	C	1.045960	-0.006109	-0.068483
C84	C	1.379293	0.327224	0.264851
C85	C	0.398443	-0.339483	-0.401895
C86	C	0.731777	-0.006149	-0.068562
C87	C	1.065110	0.327184	0.264771
C88	C	1.055066	-0.532403	-0.401833
C89	C	1.388400	-0.199070	-0.068499
C90	C	1.721733	0.134263	0.264834
C91	C	1.055095	-0.614948	-0.401855
C92	C	1.388428	-0.281615	-0.068521
C93	C	1.721762	0.051719	0.264812
C94	C	1.003050	-0.811859	-0.457513
C95	C	1.336384	-0.478526	-0.124179
C96	C	1.669717	-0.145192	0.209154
C97	C	0.988362	-0.864779	-0.381433
C98	C	1.321696	-0.531445	-0.048099
C99	C	1.655029	-0.198112	0.285234
C100	C	1.055167	-0.766078	-0.401865
C101	C	1.388501	-0.432745	-0.068532
C102	C	1.721834	-0.099411	0.264801
C103	C	1.069891	-0.860240	-0.477954
C104	C	1.403225	-0.526906	-0.144621
C105	C	1.736558	-0.193573	0.188713
C106	C	1.055236	-0.912062	-0.401883
C107	C	1.388569	-0.578729	-0.068549
C108	C	1.721902	-0.245396	0.264784
C109	C	1.040446	-0.817912	-0.325745
C110	C	1.373779	-0.484579	0.007588
C111	C	1.707112	-0.151246	0.340921
C112	C	1.122004	-0.813366	-0.422318
C113	C	1.455337	-0.480033	-0.088985
C114	C	1.788671	-0.146700	0.244349
C115	C	1.107344	-0.866266	-0.346186
C116	C	1.440677	-0.532933	-0.012852
C117	C	1.774011	-0.199599	0.320481
C118	C	1.055126	-0.681980	-0.401857
C119	C	1.388459	-0.348647	-0.068523
C120	C	1.721793	-0.015313	0.264810
C121	C	1.055278	-0.996159	-0.401883
C122	C	1.388611	-0.662825	-0.068550
C123	C	1.721944	-0.329492	0.264784
C124	C	1.248859	-0.339477	-0.401893
C125	C	1.582192	-0.006143	-0.068560
C126	C	1.915526	0.327190	0.264773
C127	C	1.331404	-0.339488	-0.401913
C128	C	1.664737	-0.006154	-0.068580
C129	C	1.998070	0.327179	0.264754
C130	C	1.045438	-0.329451	-0.619307
C131	C	1.378771	0.003883	-0.285973
C132	C	1.712104	0.337216	0.047360
C133	C	1.041296	-0.325189	-0.711975
C134	C	1.374630	0.008144	-0.378642
C135	C	1.707963	0.341477	-0.045308
C136	C	1.055264	-0.145743	-0.401879
C137	C	1.388598	0.187590	-0.068545
C138	C	1.721931	0.520923	0.264788
C139	C	1.055311	-0.063197	-0.401892
C140	C	1.388644	0.270136	-0.068559
C141	C	1.721977	0.603470	0.264774
C142	C	1.064878	-0.349358	-0.185232
C143	C	1.398211	-0.016024	0.148101
C144	C	1.731545	0.317309	0.481434
C145	C	1.069163	-0.353410	-0.092564
C146	C	1.402497	-0.020077	0.240769
C147	C	1.735830	0.313257	0.574102
C148	C	1.076997	-0.360808	0.077101
C149	C	1.410330	-0.027475	0.410435
C150	C	1.743664	0.305858	0.743768
C151	C	1.033465	-0.317793	0.118365
C152	C	1.366798	0.015540	0.451698
C153	C	1.700131	0.348873	0.785031
C154	C	1.037824	-0.321910	0.212772
C155	C	1.371157	0.011424	0.546106
C156	C	1.704490	0.344757	0.879439
C157	C	1.072639	-0.356693	-0.017315
C158	C	1.405973	-0.023359	0.316018
C159	C	1.739306	0.309974	0.649352
H160	H	0.603475	-0.466250	-0.363883
H161	H	0.936808	-0.132917	-0.030550
H162	H	1.270141	0.200417	0.302783
O163	O	0.614188	-0.239593	-0.283911
O164	O	0.947521	0.093740	0.049422
O165	O	1.280855	0.427073	0.382756
H166	H	0.646581	-0.195754	-0.316537
H167	H	0.979915	0.137579	0.016796
H168	H	1.313248	0.470912	0.350129
H169	H	1.117536	-0.400723	0.112675
H170	H	1.450869	-0.067390	0.446008
H171	H	1.784203	0.265943	0.779342
O172	O	0.509216	-0.385145	-0.240519
O173	O	0.842549	-0.051811	0.092814
O174	O	1.175882	0.281522	0.426147
H175	H	0.475607	-0.340336	-0.216256
H176	H	0.808940	-0.007003	0.117078
H177	H	1.142273	0.326330	0.450411
H178	H	0.504759	-0.426552	-0.504477
H179	H	0.838092	-0.093218	-0.171144
H180	H	1.171425	0.240115	0.162189
O181	O	1.086359	-0.885019	-0.563178
O182	O	1.419692	-0.551686	-0.229845
O183	O	1.753026	-0.218352	0.103489
H184	H	1.042985	-0.863160	-0.609237
H185	H	1.376318	-0.529827	-0.275903
H186	H	1.709652	-0.196493	0.057430
H187	H	0.595740	-0.299677	-0.542252
H188	H	0.929073	0.033657	-0.208919
H189	H	1.262407	0.366990	0.124414
O190	O	0.979756	-0.264917	0.071251
O191	O	1.313089	0.068416	0.404584
O192	O	1.646422	0.401749	0.737917
H193	H	0.984712	-0.269945	0.003418
H194	H	1.318045	0.063389	0.336751
H195	H	1.651378	0.396722	0.670084
H196	H	0.958918	-0.788055	-0.504505
H197	H	1.292251	-0.454722	-0.171172
H198	H	1.625584	-0.121389	0.162162
O199	O	0.500214	-0.193889	-0.445319
O200	O	0.833548	0.139444	-0.111986
O201	O	1.166881	0.472778	0.221347
H202	H	0.522052	-0.154872	-0.399069
H203	H	0.855385	0.178461	-0.065735
H204	H	1.188719	0.511794	0.267598
H205	H	0.931873	-0.887347	-0.364150
H206	H	1.265206	-0.554014	-0.030816
H207	H	1.598539	-0.220680	0.302517
H208	H	1.178479	-0.790798	-0.439637
H209	H	1.511812	-0.457465	-0.106304
H210	H	1.845146	-0.124132	0.227029
O211	O	1.023893	-0.793262	-0.240493
O212	O	1.357226	-0.459929	0.092840
O213	O	1.690559	-0.126595	0.426173
H214	H	1.023964	-0.731743	-0.241165
H215	H	1.357297	-0.398410	0.092169
H216	H	1.690631	-0.065076	0.425502
H217	H	1.151450	-0.889938	-0.299080
H218	H	1.484783	-0.556604	0.034254
H219	H	1.818116	-0.223271	0.367587
