data_functionalizedCrystal
_audit_creation_method	'MofGen! by Chris Wilmer'
_symmetry_space_group_name_H-M	'P1'
_symmetry_Int_Tables_number	1
_symmetry_cell_setting	triclinic
loop_
_symmetry_equiv_pos_as_xyz
  x,y,z
_cell_length_a	19.805407
_cell_length_b	19.077068
_cell_length_c	19.805399
_cell_angle_alpha	92.267915
_cell_angle_beta	89.983114
_cell_angle_gamma	92.327086
loop_
_atom_site_label
_atom_site_type_symbol
_atom_site_fract_x
_atom_site_fract_y
_atom_site_fract_z
Zn1	Zn	1.023886	-0.280208	-0.393533
Zn2	Zn	1.019256	-0.397910	-0.284888
Zn3	Zn	0.910705	-0.280230	-0.280359
Zn4	Zn	0.906116	-0.397870	-0.398033
O5	O	0.964991	-0.339054	-0.339203
O6	O	1.117988	-0.295829	-0.379134
O7	O	1.004840	-0.382326	-0.189571
O8	O	0.929577	-0.181736	-0.291594
O9	O	1.114587	-0.382304	-0.299312
O10	O	1.012730	-0.181720	-0.374742
O11	O	0.925088	-0.295867	-0.186244
O12	O	0.815380	-0.295828	-0.295956
O13	O	0.921755	-0.382235	-0.492152
O14	O	0.812008	-0.382257	-0.382411
O15	O	1.008280	-0.295790	-0.488846
O16	O	1.000390	-0.496396	-0.303675
O17	O	0.917266	-0.496366	-0.386802
C18	C	0.789135	-0.339041	-0.339181
C19	C	0.713903	-0.339052	-0.339188
C20	C	0.676818	-0.384124	-0.384137
C21	C	0.606130	-0.384125	-0.384147
C22	C	0.572527	-0.339058	-0.339203
C23	C	0.609617	-0.293981	-0.294252
C24	C	0.680304	-0.293977	-0.294246
C25	C	0.324543	-0.293997	-0.294275
C26	C	0.253851	-0.294006	-0.294283
C27	C	0.250368	-0.384145	-0.384176
C28	C	0.321056	-0.384140	-0.384170
C29	C	0.358139	-0.339062	-0.339221
C30	C	0.434788	-0.339060	-0.339212
C31	C	0.495880	-0.339062	-0.339208
C32	C	0.957846	-0.521918	-0.346233
C33	C	0.954851	-0.600148	-0.349263
C34	C	0.996756	-0.636893	-0.307442
C35	C	0.993943	-0.710399	-0.310296
C36	C	0.949222	-0.747158	-0.354967
C37	C	0.907315	-0.710408	-0.396793
C38	C	0.910132	-0.636904	-0.393942
C39	C	0.936157	-0.966992	-0.368134
C40	C	0.933342	-1.040502	-0.370980
C41	C	1.019971	-1.040487	-0.284484
C42	C	1.022781	-0.966982	-0.281635
C43	C	0.980877	-0.930238	-0.323462
N44	N	0.946344	-0.822292	-0.357884
N45	N	0.983758	-0.855105	-0.320549
C46	C	1.141533	-0.339068	-0.339226
C47	C	1.216765	-0.339074	-0.339236
C48	C	0.965022	-0.339006	-0.515744
C49	C	0.965036	-0.338985	-0.590975
C50	C	0.972182	-0.155476	-0.332161
C51	C	0.975247	-0.077246	-0.329160
C52	C	0.923521	-0.293962	-0.624586
C53	C	0.923531	-0.293948	-0.695274
C54	C	0.965059	-0.338954	-0.732350
C55	C	1.006576	-0.383983	-0.698734
C56	C	1.006562	-0.383999	-0.628048
C57	C	1.006632	-0.383917	-0.983805
C58	C	1.006644	-0.383895	-1.054496
C59	C	0.923601	-0.293865	-1.051032
C60	C	0.923587	-0.293882	-0.980345
C61	C	0.965101	-0.338913	-0.946736
C62	C	0.965088	-0.338928	-0.870088
C63	C	0.965076	-0.338936	-0.808996
C64	C	0.965000	-0.339052	-0.163347
C65	C	0.965126	-0.338875	-0.088109
H66	H	0.220166	-0.420847	-0.420778
H67	H	0.226494	-0.257303	-0.257684
H68	H	0.710498	-0.257272	-0.257647
H69	H	1.040385	-0.420631	-0.728927
H70	H	1.054088	-1.070411	-0.250432
H71	H	0.896932	-1.070429	-0.407369
H72	H	0.902036	-0.937082	-0.402191
H73	H	0.870905	-0.740343	-0.433168
H74	H	0.354728	-0.257296	-0.257670
H75	H	1.028066	-0.740313	-0.276241
H76	H	1.040427	-0.420591	-0.956449
H77	H	1.033170	-0.606968	-0.271063
H78	H	0.876009	-0.606987	-0.427997
H79	H	0.582252	-0.257284	-0.257661
H80	H	0.889708	-0.257308	-0.594404
H81	H	1.040463	-0.420548	-1.084682
H82	H	1.059196	-0.937054	-0.245260
H83	H	0.889723	-0.257288	-0.722637
H84	H	0.889773	-0.257230	-0.950162
H85	H	0.889797	-0.257201	-1.078405
H86	H	1.040372	-0.420657	-0.600682
H87	H	0.575938	-0.420827	-0.420749
H88	H	0.704172	-0.420825	-0.420734
H89	H	0.348411	-0.420841	-0.420765
