data_functionalizedCrystal
_audit_creation_method	'MofGen! by Chris Wilmer'
_symmetry_space_group_name_H-M	'P1'
_symmetry_Int_Tables_number	1
_symmetry_cell_setting	triclinic
loop_
_symmetry_equiv_pos_as_xyz
  x,y,z
_cell_length_a	18.101398
_cell_length_b	18.101395
_cell_length_c	18.101389
_cell_angle_alpha	89.983159
_cell_angle_beta	89.975673
_cell_angle_gamma	90.026371
loop_
_atom_site_label
_atom_site_type_symbol
_atom_site_fract_x
_atom_site_fract_y
_atom_site_fract_z
Zn1	Zn	1.132121	-0.295001	-0.418847
Zn2	Zn	1.632121	0.204999	0.081153
Zn3	Zn	1.132017	-0.418826	-0.295009
Zn4	Zn	1.632017	0.081174	0.204991
Zn5	Zn	1.008280	-0.294993	-0.295008
Zn6	Zn	1.508280	0.205007	0.204992
Zn7	Zn	1.008231	-0.418795	-0.418797
Zn8	Zn	1.508231	0.081205	0.081203
O9	O	1.070162	-0.356904	-0.356915
O10	O	1.570162	0.143096	0.143085
O11	O	1.235740	-0.311443	-0.402440
O12	O	1.735740	0.188557	0.097560
O13	O	1.115580	-0.402410	-0.191376
O14	O	1.615580	0.097590	0.308624
O15	O	1.024772	-0.191361	-0.311456
O16	O	1.524772	0.308639	0.188544
O17	O	1.235664	-0.402417	-0.311457
O18	O	1.735664	0.097583	0.188543
O19	O	1.115757	-0.191367	-0.402440
O20	O	1.615757	0.308633	0.097560
O21	O	1.024671	-0.311430	-0.191375
O22	O	1.524671	0.188570	0.308625
O23	O	0.904641	-0.311399	-0.311408
O24	O	1.404641	0.188601	0.188592
O25	O	1.024688	-0.402363	-0.522437
O26	O	1.524688	0.097637	-0.022437
O27	O	0.904604	-0.402356	-0.402355
O28	O	1.404604	0.097644	0.097645
O29	O	1.115710	-0.311412	-0.522473
O30	O	1.615710	0.188588	-0.022473
O31	O	1.115532	-0.522455	-0.311409
O32	O	1.615532	-0.022455	0.188591
O33	O	1.024587	-0.522432	-0.402356
O34	O	1.524587	-0.022432	0.097644
C35	C	0.877752	-0.356874	-0.356877
C36	C	1.377752	0.143126	0.143123
C37	C	0.795437	-0.356879	-0.356878
C38	C	1.295437	0.143121	0.143122
C39	C	0.496347	-0.356925	-0.356940
C40	C	0.996347	0.143075	0.143060
C41	C	0.527670	-0.299412	-0.299997
C42	C	1.027670	0.200588	0.200003
C43	C	0.613288	-0.299566	-0.299754
C44	C	1.113288	0.200434	0.200246
C45	C	0.644729	-0.356901	-0.356909
C46	C	1.144729	0.143099	0.143091
C47	C	0.613611	-0.434909	-0.335587
C48	C	1.113611	0.065091	0.164413
C49	C	0.527966	-0.434590	-0.335191
C50	C	1.027966	0.065410	0.164809
C51	C	0.527961	-0.337109	-0.435339
C52	C	1.027961	0.162891	0.064661
C53	C	0.613612	-0.335371	-0.434911
C54	C	1.113612	0.164629	0.065089
C55	C	0.728589	-0.356893	-0.356893
C56	C	1.228589	0.143107	0.143107
C57	C	0.412487	-0.356939	-0.356954
C58	C	0.912487	0.143061	0.143046
C59	C	1.070063	-0.549314	-0.356893
C60	C	1.570063	-0.049314	0.143107
C61	C	1.070088	-0.631628	-0.356909
C62	C	1.570088	-0.131628	0.143091
C63	C	1.070251	-0.930719	-0.356949
C64	C	1.570251	-0.430719	0.143051
C65	C	1.013163	-0.899410	-0.414312
C66	C	1.513163	-0.399410	0.085688
C67	C	1.012892	-0.813792	-0.414133
C68	C	1.512892	-0.313792	0.085867
C69	C	1.070170	-0.782337	-0.356930
C70	C	1.570170	-0.282337	0.143070
C71	C	1.049041	-0.813472	-0.278878
C72	C	1.549041	-0.313472	0.221122
C73	C	1.048673	-0.899117	-0.279221
C74	C	1.548673	-0.399117	0.220779
C75	C	1.148593	-0.899073	-0.376950
C76	C	1.648593	-0.399073	0.123050
C77	C	1.148132	-0.813422	-0.378661
C78	C	1.648132	-0.313422	0.121339
C79	C	1.070126	-0.698477	-0.356914
C80	C	1.570126	-0.198477	0.143086
C81	C	1.070293	-1.014579	-0.356959
C82	C	1.570293	-0.514579	0.143041
C83	C	1.263324	-0.356934	-0.356954
C84	C	1.763324	0.143066	0.143046
C85	C	1.345638	-0.356948	-0.356971
C86	C	1.845638	0.143052	0.143029
C87	C	1.070205	-0.356885	-0.550077
C88	C	1.570205	0.143115	-0.050077
C89	C	1.070223	-0.356877	-0.632391
C90	C	1.570223	0.143123	-0.132391
C91	C	1.070282	-0.163742	-0.356953
C92	C	1.570282	0.336258	0.143047
C93	C	1.070333	-0.081428	-0.356970
C94	C	1.570333	0.418572	0.143030
C95	C	1.070266	-0.356738	-0.931482
C96	C	1.570266	0.143262	-0.431482
C97	C	1.012801	-0.413780	-0.900134
C98	C	1.512801	0.086220	-0.400134
C99	C	1.012956	-0.414045	-0.814516
C100	C	1.512956	0.085955	-0.314516
C101	C	1.070244	-0.356807	-0.783100
C102	C	1.570244	0.143193	-0.283100
C103	C	1.148270	-0.377998	-0.814206
C104	C	1.648270	0.122002	-0.314206
C105	C	1.147949	-0.378372	-0.899851
C106	C	1.647949	0.121628	-0.399851
C107	C	1.050385	-0.278379	-0.899905
C108	C	1.550385	0.221621	-0.399905
C109	C	1.048649	-0.278832	-0.814254
C110	C	1.548649	0.221168	-0.314254
C111	C	1.070237	-0.356845	-0.699240
C112	C	1.570237	0.143155	-0.199240
C113	C	1.070279	-0.356702	-1.015342
C114	C	1.570279	0.143298	-0.515342
C115	C	1.070162	-0.356869	-0.164505
C116	C	1.570162	0.143131	0.335495
C117	C	1.070287	-0.356668	-0.082191
C118	C	1.570287	0.143332	0.417809
H119	H	0.507705	-0.378999	-0.477766
H120	H	1.007705	0.121001	0.022234
H121	H	0.507954	-0.451397	-0.277877
H122	H	1.007954	0.048603	0.222123
N123	N	0.935930	-0.396388	-0.927400
N124	N	1.435930	0.103612	-0.427400
H125	H	0.916139	-0.439817	-0.956297
H126	H	1.416139	0.060183	-0.456297
H127	H	0.902590	-0.386307	-0.883805
H128	H	1.402590	0.113693	-0.383805
H129	H	0.633975	-0.478909	-0.375763
H130	H	1.133975	0.021091	0.124237
N131	N	0.500502	-0.493279	-0.387716
N132	N	1.000502	0.006721	0.112284
H133	H	0.469521	-0.469565	-0.427589
H134	H	0.969521	0.030435	0.072411
H135	H	0.544070	-0.519228	-0.410974
H136	H	1.044070	-0.019228	0.089026
N137	N	0.972595	-0.257655	-0.787315
N138	N	1.472595	0.242345	-0.287315
H139	H	0.959012	-0.207457	-0.807530
H140	H	1.459012	0.292543	-0.307530
H141	H	0.935482	-0.295464	-0.804824
H142	H	1.435482	0.204536	-0.304824
H143	H	1.025796	-0.471508	-0.921661
H144	H	1.525796	0.028492	-0.421661
N145	N	1.030338	-0.490979	-0.787378
N146	N	1.530338	0.009021	-0.287378
H147	H	1.037937	-0.524852	-0.831051
H148	H	1.537937	-0.024852	-0.331051
H149	H	1.076778	-0.489715	-0.756498
H150	H	1.576778	0.010285	-0.256498
H151	H	1.164804	-0.435654	-0.919836
H152	H	1.664804	0.064346	-0.419836
N153	N	1.206594	-0.325743	-0.927331
N154	N	1.706594	0.174257	-0.427331
H155	H	1.232541	-0.302405	-0.883806
H156	H	1.732541	0.197595	-0.383806
H157	H	1.243638	-0.353721	-0.958274
H158	H	1.743638	0.146279	-0.458274
N159	N	1.206512	-0.324692	-0.787270
N160	N	1.706512	0.175308	-0.287270
H161	H	1.182822	-0.286203	-0.754563
H162	H	1.682822	0.213797	-0.254563
H163	H	1.245159	-0.352541	-0.758247
H164	H	1.745159	0.147459	-0.258247
H165	H	1.165415	-0.434671	-0.792765
H166	H	1.665415	0.065329	-0.292765
N167	N	1.100046	-0.219545	-0.785931
N168	N	1.600046	0.280455	-0.285931
H169	H	1.125598	-0.194878	-0.828989
H170	H	1.625598	0.305122	-0.328989
H171	H	1.070701	-0.181590	-0.757464
H172	H	1.570701	0.318410	-0.257464
H173	H	1.026252	-0.919970	-0.472374
H174	H	1.526252	-0.419970	0.027626
N175	N	0.976330	-0.252802	-0.928492
N176	N	1.476330	0.247198	-0.428492
H177	H	0.954918	-0.291756	-0.962207
H178	H	1.454918	0.208244	-0.462207
H179	H	0.941749	-0.244340	-0.885523
H180	H	1.441749	0.255660	-0.385523
N181	N	0.499406	-0.263054	-0.460985
N182	N	0.999406	0.236946	0.039015
H183	H	0.542352	-0.228436	-0.469486
H184	H	1.042352	0.271564	0.030514
H185	H	0.471043	-0.269547	-0.508580
H186	H	0.971043	0.230453	-0.008580
H187	H	1.026111	-0.792740	-0.472007
H188	H	1.526111	-0.292740	0.027993
H189	H	0.955448	-0.920990	-0.401230
H190	H	1.455448	-0.420990	0.098770
H191	H	0.633956	-0.277966	-0.450989
H192	H	1.133956	0.222034	0.049011
H193	H	0.635017	-0.374209	-0.479611
H194	H	1.135017	0.125791	0.020389
H195	H	1.092240	-0.235880	-0.920179
H196	H	1.592240	0.264120	-0.420179
N197	N	0.641971	-0.457565	-0.260489
N198	N	1.141971	0.042435	0.239511
H199	H	0.674969	-0.417418	-0.240173
H200	H	1.174969	0.082582	0.259827
H201	H	0.598855	-0.465514	-0.225956
H202	H	1.098855	0.034486	0.274044
N203	N	0.641163	-0.222941	-0.317447
N204	N	1.141163	0.277059	0.182553
H205	H	0.696960	-0.222895	-0.317320
H206	H	1.196960	0.277105	0.182680
H207	H	0.622674	-0.207611	-0.367802
H208	H	1.122674	0.292389	0.132198
N209	N	0.499139	-0.316395	-0.223452
N210	N	0.999139	0.183605	0.276548
H211	H	0.470212	-0.272714	-0.204289
H212	H	0.970212	0.227286	0.295711
H213	H	0.465993	-0.361247	-0.225437
H214	H	0.965993	0.138753	0.274563
H215	H	0.992380	-0.792080	-0.261633
H216	H	1.492380	-0.292080	0.238367
H217	H	0.633741	-0.312665	-0.241661
H218	H	1.133741	0.187335	0.258339
N219	N	0.935977	-0.786721	-0.396577
N220	N	1.435977	-0.286721	0.103423
H221	H	0.902118	-0.830424	-0.388921
H222	H	1.402118	-0.330424	0.111079
H223	H	0.937308	-0.755858	-0.350125
H224	H	1.437308	-0.255858	0.149875
N225	N	1.174116	-0.927629	-0.451054
N226	N	1.674116	-0.427629	0.048946
H227	H	1.135149	-0.961374	-0.472412
H228	H	1.635149	-0.461374	0.027588
H229	H	1.182549	-0.884648	-0.485638
H230	H	1.682549	-0.384648	0.014362
H231	H	0.991406	-0.919153	-0.262279
H232	H	1.491406	-0.419153	0.237721
N233	N	1.169246	-0.786468	-0.454748
N234	N	1.669246	-0.286468	0.045252
H235	H	1.128487	-0.754252	-0.475061
H236	H	1.628487	-0.254252	0.024939
H237	H	1.216483	-0.756925	-0.451572
H238	H	1.716483	-0.256925	0.048428
H239	H	0.507099	-0.241388	-0.313215
H240	H	1.007099	0.258612	0.186785
N241	N	1.101355	-0.926561	-0.220677
N242	N	1.601355	-0.426561	0.279323
H243	H	1.124712	-0.883022	-0.194759
H244	H	1.624712	-0.383022	0.305241
H245	H	1.073415	-0.957536	-0.183593
H246	H	1.573415	-0.457536	0.316407
N247	N	1.102381	-0.786489	-0.220714
N248	N	1.602381	-0.286489	0.279286
H249	H	1.140847	-0.753743	-0.244457
H250	H	1.640847	-0.253743	0.255543
H251	H	1.074549	-0.757495	-0.182019
H252	H	1.574549	-0.257495	0.317981
N253	N	1.207459	-0.785054	-0.327361
N254	N	1.707459	-0.285054	0.172639
H255	H	1.184537	-0.751503	-0.289132
H256	H	1.684537	-0.251503	0.210868
H257	H	1.232132	-0.828133	-0.301911
H258	H	1.732132	-0.328133	0.198089
H259	H	1.191125	-0.919319	-0.335170
H260	H	1.691125	-0.419319	0.164830
N261	N	0.936317	-0.396455	-0.786666
N262	N	1.436317	0.103545	-0.286666
H263	H	0.900421	-0.434880	-0.805335
H264	H	1.400421	0.065120	-0.305335
H265	H	0.936326	-0.396574	-0.730871
H266	H	1.436326	0.103426	-0.230871
