data_functionalizedCrystal
_audit_creation_method	'MofGen! by Chris Wilmer'
_symmetry_space_group_name_H-M	'P1'
_symmetry_Int_Tables_number	1
_symmetry_cell_setting	triclinic
loop_
_symmetry_equiv_pos_as_xyz
  x,y,z
_cell_length_a	19.188930
_cell_length_b	19.188930
_cell_length_c	10.065918
_cell_angle_alpha	99.900945
_cell_angle_beta	99.848379
_cell_angle_gamma	83.144779
loop_
_atom_site_label
_atom_site_type_symbol
_atom_site_fract_x
_atom_site_fract_y
_atom_site_fract_z
O1	O	0.096287	0.935316	0.113955
O2	O	0.108014	0.731997	0.113863
O3	O	0.000493	0.839522	0.113885
O4	O	0.203808	0.827792	0.113933
O5	O	-0.017677	0.821243	-0.113117
O6	O	0.089844	0.713719	-0.113138
O7	O	0.078117	0.917037	-0.113047
Zn8	Zn	0.081096	0.812476	-0.149134
Zn9	Zn	0.105036	0.836559	0.149950
O10	O	0.185638	0.809513	-0.113069
C11	C	-0.034603	0.830002	0.000380
C12	C	-0.112109	0.828861	0.000368
C13	C	0.098548	0.696846	0.000350
C14	C	0.097405	0.619339	0.000314
C15	C	0.160498	0.574418	0.000351
C16	C	0.159428	0.501595	0.000365
C17	C	0.095262	0.473699	0.000371
C18	C	0.032160	0.518629	0.000327
C19	C	0.033231	0.591449	0.000299
N20	N	0.052403	0.371943	0.077673
N21	N	0.051390	0.302767	0.077703
C22	C	0.092031	0.254297	0.000454
N23	N	0.133735	0.277616	-0.076809
N24	N	0.134751	0.346799	-0.076833
C25	C	0.094094	0.394739	0.000401
C26	C	0.153968	0.130413	0.000504
C27	C	0.152894	0.057588	0.000511
C28	C	0.025625	0.074625	0.000486
C29	C	0.026700	0.147447	0.000466
C30	C	0.090874	0.175336	0.000482
C31	C	-0.157031	0.891953	0.000390
C32	C	-0.229853	0.890883	0.000411
C33	C	-0.257752	0.826715	0.000383
C34	C	-0.212819	0.763615	0.000369
C35	C	-0.139998	0.764687	0.000361
N36	N	-0.371942	0.771445	-0.076892
N37	N	-0.441120	0.770430	-0.076888
C38	C	-0.477158	0.823479	0.000409
N39	N	-0.441407	0.877590	0.077684
N40	N	-0.372224	0.878607	0.077674
C41	C	-0.336714	0.825545	0.000392
C42	C	-0.601043	0.885416	0.000456
C43	C	-0.673865	0.884344	0.000486
C44	C	-0.656831	0.757072	0.000430
C45	C	-0.584009	0.758147	0.000414
C46	C	-0.556120	0.822320	0.000421
C47	C	0.220735	0.819033	0.000439
C48	C	0.298241	0.820175	0.000460
C49	C	0.087584	0.952189	0.000469
C50	C	0.088728	1.029697	0.000514
N51	N	0.064757	0.796045	-0.353251
C52	C	0.099351	0.830837	-0.421006
C53	C	0.086770	0.818198	-0.578182
N54	N	0.121369	0.852995	0.354068
H55	H	0.212754	0.597120	0.000366
H56	H	0.138280	0.869985	-0.362650
H57	H	0.047834	0.779053	-0.636532
H58	H	-0.134328	0.944208	0.000400
H59	H	-0.103421	0.713308	0.000343
H60	H	0.210808	0.465013	0.000391
H61	H	-0.020083	0.495913	0.000351
H62	H	-0.266435	0.942263	0.000434
H63	H	0.204274	0.021013	0.000532
H64	H	0.160301	0.892144	-0.587584
H65	H	-0.024678	0.184023	0.000444
H66	H	-0.235539	0.711368	0.000349
H67	H	0.025824	0.756903	-0.411606
H68	H	-0.018149	0.628025	0.000270
H69	H	-0.026613	0.051920	0.000575
H70	H	0.206221	0.153120	0.000497
H71	H	-0.578334	0.937670	0.000468
H72	H	-0.710440	0.935724	0.000511
H73	H	-0.679545	0.704826	0.000414
H74	H	-0.547433	0.706770	0.000389
