data_functionalizedCrystal
_audit_creation_method	'MofGen! by Chris Wilmer'
_symmetry_space_group_name_H-M	'P1'
_symmetry_Int_Tables_number	1
_symmetry_cell_setting	triclinic
loop_
_symmetry_equiv_pos_as_xyz
  x,y,z
_cell_length_a	15.944551
_cell_length_b	10.654550
_cell_length_c	9.130313
_cell_angle_alpha	89.999724
_cell_angle_beta	89.994529
_cell_angle_gamma	83.991834
loop_
_atom_site_label
_atom_site_type_symbol
_atom_site_fract_x
_atom_site_fract_y
_atom_site_fract_z
O1	O	0.117977	1.666313	-0.121694
O2	O	0.129217	1.300689	-0.121721
O3	O	0.001379	1.493485	-0.121693
O4	O	0.245814	1.473517	-0.121721
O5	O	0.001376	1.493472	0.121906
O6	O	0.129213	1.300676	0.121878
O7	O	0.117973	1.666300	0.121905
Cu8	Cu	0.123592	1.483487	0.144134
Cu9	Cu	0.123597	1.483502	-0.143950
O10	O	0.245810	1.473503	0.121878
C11	C	0.128389	1.253895	0.000075
C12	C	0.125920	1.114484	0.000065
C13	C	0.201189	1.034024	0.000061
C14	C	0.198863	0.903034	0.000087
C15	C	0.045995	0.932975	0.000115
C16	C	0.048321	1.063963	0.000100
C17	C	-0.029921	1.492650	0.000106
C18	C	-0.123182	1.490165	0.000107
C19	C	-0.338764	1.364720	0.000077
C20	C	-0.399446	1.422966	0.120191
C21	C	-0.293933	1.485668	0.000095
C22	C	-0.399426	1.423007	-0.119979
C23	C	-0.458871	1.481317	0.000078
C24	C	-0.353387	1.543947	0.120308
C25	C	-0.353360	1.543972	-0.119969
C26	C	-0.414024	1.602306	0.000173
C27	C	-0.198917	1.488172	0.000107
C28	C	-0.553887	1.478822	0.000077
C29	C	0.277110	1.474339	0.000075
C30	C	0.370371	1.476824	0.000065
N31	N	0.123589	1.483485	0.346757
C32	C	0.118800	1.713094	0.000106
C33	C	0.121269	1.852505	0.000106
N34	N	0.123594	1.483514	-0.346572
C35	C	0.067007	1.568884	0.423421
C36	C	0.067007	1.568896	0.576758
C37	C	0.180179	1.398106	0.576753
C38	C	0.180174	1.398089	0.423419
H39	H	-0.017184	0.891824	0.000152
O40	O	0.011904	1.651701	0.349049
C41	C	-0.071359	1.631277	0.386621
H42	H	-0.072370	1.530730	0.428766
H43	H	-0.113452	1.645718	0.285823
H44	H	-0.095584	1.700865	0.475653
H45	H	-0.012976	1.129477	0.000108
H46	H	0.226250	1.328541	0.360995
H47	H	0.264375	1.075154	0.000044
O48	O	-0.299754	1.244935	0.000462
C49	C	-0.323120	1.181616	0.127316
H50	H	-0.344695	1.253702	0.215393
H51	H	-0.266710	1.117017	0.169226
H52	H	-0.376849	1.122928	0.099907
H53	H	0.226250	1.328580	0.639186
O54	O	0.272058	0.825055	0.000012
C55	C	0.341043	0.897741	0.000018
H56	H	0.320291	0.995497	-0.046111
H57	H	0.393827	0.849419	-0.070711
H58	H	0.364794	0.907083	0.116877
O59	O	-0.452776	1.722245	0.000063
C60	C	-0.428224	1.786265	-0.125466
H61	H	-0.365202	1.739126	-0.166926
H62	H	-0.421579	1.888827	-0.096477
H63	H	-0.478035	1.782613	-0.214498
H64	H	-0.419852	1.371804	0.221729
O65	O	-0.329048	1.604834	0.241545
C66	C	-0.240741	1.606419	0.240102
H67	H	-0.211010	1.525807	0.168913
H68	H	-0.215361	1.594538	0.356553
H69	H	-0.224444	1.700189	0.193675
H70	H	-0.332933	1.595090	-0.221513
O71	O	-0.423628	1.361799	-0.241081
C72	C	-0.384958	1.236581	-0.240609
H73	H	-0.325595	1.230558	-0.170294
H74	H	-0.367420	1.206485	-0.357418
H75	H	-0.430587	1.171446	-0.193738
O76	O	0.012160	1.651907	0.651390
C77	C	0.057630	1.729404	0.740037
H78	H	0.123046	1.679386	0.763003
H79	H	0.022694	1.749283	0.847866
H80	H	0.063917	1.822206	0.680929
