data_functionalizedCrystal
_audit_creation_method	'MofGen! by Chris Wilmer'
_symmetry_space_group_name_H-M	'P1'
_symmetry_Int_Tables_number	1
_symmetry_cell_setting	triclinic
loop_
_symmetry_equiv_pos_as_xyz
  x,y,z
_cell_length_a	12.594517
_cell_length_b	29.839131
_cell_length_c	29.839109
_cell_angle_alpha	89.879167
_cell_angle_beta	89.927637
_cell_angle_gamma	90.041220
loop_
_atom_site_label
_atom_site_type_symbol
_atom_site_fract_x
_atom_site_fract_y
_atom_site_fract_z
Zn1	Zn	1.627616	-0.178461	-0.254013
Zn2	Zn	1.627269	-0.253709	-0.178883
Zn3	Zn	1.449461	-0.178593	-0.178895
Zn4	Zn	1.449523	-0.253565	-0.253984
O5	O	1.538467	-0.216082	-0.216444
O6	O	1.776516	-0.188448	-0.244054
O7	O	1.603512	-0.243860	-0.116017
O8	O	1.473213	-0.115709	-0.188877
O9	O	1.776261	-0.243732	-0.188856
O10	O	1.604103	-0.115612	-0.244066
O11	O	1.472877	-0.188673	-0.116026
O12	O	1.300524	-0.188533	-0.188848
O13	O	1.473319	-0.243487	-0.316855
O14	O	1.300569	-0.243615	-0.244016
O15	O	1.604163	-0.188309	-0.316877
O16	O	1.603572	-0.316557	-0.188828
O17	O	1.472983	-0.316451	-0.244004
C18	C	1.261926	-0.216073	-0.216430
C19	C	1.143621	-0.216080	-0.216435
C20	C	1.074312	-0.186080	-0.186487
C21	C	1.003435	-0.227076	-0.175432
C22	C	1.003699	-0.175104	-0.227498
C23	C	1.074302	-0.257097	-0.205359
C24	C	1.074572	-0.205098	-0.257444
C25	C	1.003727	-0.246122	-0.246405
C26	C	1.538275	-0.332805	-0.216421
C27	C	1.538290	-0.382739	-0.216427
C28	C	1.606589	-0.692425	-0.187755
C29	C	1.606721	-0.880098	-0.187773
O30	O	1.664638	-0.904398	-0.163378
N31	N	1.538688	-0.903524	-0.216477
C32	C	1.470623	-0.880029	-0.245182
O33	O	1.412768	-0.904261	-0.269601
C34	C	1.470498	-0.692357	-0.245167
C35	C	1.538527	-0.668933	-0.216457
C36	C	1.674614	-0.669001	-0.159048
C37	C	1.674576	-0.622085	-0.159042
C38	C	1.606514	-0.598594	-0.187744
C39	C	1.538489	-0.622018	-0.216451
C40	C	1.402439	-0.668863	-0.273873
C41	C	1.402416	-0.621942	-0.273867
C42	C	1.470445	-0.598518	-0.245158
C43	C	1.470390	-0.551611	-0.245146
N44	N	1.538422	-0.528184	-0.216442
C45	C	1.606484	-0.551676	-0.187740
C46	C	1.470692	-0.978560	-0.245188
C47	C	1.470722	-1.025478	-0.245191
C48	C	1.606821	-1.025543	-0.187782
C49	C	1.606785	-0.978624	-0.187777
C50	C	1.538725	-0.955133	-0.216483
C51	C	1.606399	-0.453150	-0.187730
C52	C	1.606352	-0.406231	-0.187725
C53	C	1.470258	-0.406169	-0.245136
C54	C	1.470300	-0.453085	-0.245139
C55	C	1.538380	-0.476574	-0.216434
O56	O	1.412511	-0.527281	-0.269532
O57	O	1.664347	-0.527436	-0.163332
C58	C	1.606627	-0.739340	-0.187761
C59	C	1.538602	-0.762764	-0.216468
C60	C	1.470540	-0.739272	-0.245170
C61	C	1.538632	-0.809682	-0.216472
C62	C	1.606694	-0.833173	-0.187770
C63	C	1.674726	-0.809747	-0.159065
C64	C	1.674689	-0.762832	-0.159060
C65	C	1.402508	-0.762699	-0.273874
C66	C	1.402550	-0.809614	-0.273878
C67	C	1.470612	-0.833106	-0.245176
C68	C	1.816088	-0.216091	-0.216457
C69	C	1.934394	-0.216095	-0.216463
C70	C	1.538786	-0.215867	-0.333622
C71	C	1.538922	-0.215775	-0.383557
C72	C	1.538689	-0.098904	-0.216476
C73	C	1.538784	-0.048969	-0.216490
C74	C	1.538211	-0.216264	-0.099721
C75	C	1.538282	-0.216229	-0.049786
C76	C	1.470929	-0.244951	0.259994
C77	C	1.471117	-0.244824	0.447667
O78	O	1.413596	-0.269402	0.472048
N79	N	1.538770	-0.215873	0.470998
C80	C	1.606377	-0.186950	0.447408
O81	O	1.663917	-0.162319	0.471560
C82	C	1.606183	-0.187075	0.259737
C83	C	1.538532	-0.216031	0.236407
C84	C	1.403283	-0.273905	0.236665
C85	C	1.403240	-0.273938	0.189749
C86	C	1.470844	-0.245018	0.166163
C87	C	1.538490	-0.216065	0.189492
C88	C	1.673783	-0.158150	0.236148
C89	C	1.673727	-0.158183	0.189227
C90	C	1.606076	-0.187139	0.165898
C91	C	1.606051	-0.187178	0.118990
N92	N	1.538398	-0.216129	0.095659
C93	C	1.470794	-0.245049	0.119245
C94	C	1.606476	-0.186886	0.545939
C95	C	1.606526	-0.186855	0.592857
C96	C	1.471264	-0.244729	0.593112
C97	C	1.471220	-0.244762	0.546193
C98	C	1.538822	-0.215837	0.522607
C99	C	1.470711	-0.245117	0.020719
C100	C	1.470678	-0.245149	-0.026200
C101	C	1.605935	-0.187274	-0.026451
C102	C	1.605973	-0.187243	0.020465
C103	C	1.538352	-0.216166	0.044049
O104	O	1.663533	-0.162609	0.094580
O105	O	1.413245	-0.269669	0.095086
C106	C	1.470971	-0.244918	0.306909
C107	C	1.538617	-0.215965	0.330238
C108	C	1.606220	-0.187045	0.306652
C109	C	1.538667	-0.215934	0.377156
C110	C	1.471063	-0.244854	0.400742
C111	C	1.403409	-0.273805	0.377411
C112	C	1.403367	-0.273838	0.330495
C113	C	1.673874	-0.158094	0.329983
C114	C	1.673912	-0.158063	0.376899
C115	C	1.606308	-0.186983	0.400485
H116	H	1.661750	-0.387160	-0.164345
H117	H	1.105187	-0.291767	-0.195975
O118	O	0.967153	-0.276462	-0.276638
C119	C	1.053810	-0.297881	-0.297494
H120	H	1.126563	-0.295528	-0.274928
H121	H	1.071415	-0.280819	-0.330910
C122	C	0.937055	-0.350395	-0.333335
C123	C	1.026409	-0.347508	-0.305618
H124	H	0.920152	-0.381007	-0.338349
H125	H	0.878671	-0.335964	-0.319285
H126	H	0.951737	-0.336174	-0.361179
H127	H	1.011721	-0.361724	-0.277773
H128	H	1.084790	-0.361943	-0.319663
O129	O	1.739597	-0.130062	0.307024
C130	C	1.808730	-0.155447	0.279917
H131	H	1.771709	-0.189611	0.273006
H132	H	1.887696	-0.160132	0.297958
C133	C	1.873057	-0.088739	0.243756
C134	C	1.827582	-0.130698	0.235266
H135	H	1.884691	-0.073472	0.216214
H136	H	1.826484	-0.071636	0.262020
H137	H	1.938857	-0.092649	0.258791
H138	H	1.761778	-0.126787	0.220235
H139	H	1.874145	-0.147800	0.216998
O140	O	1.336574	-0.832345	-0.301833
C141	C	1.359858	-0.820755	-0.346613
H142	H	1.444883	-0.807816	-0.348907
H143	H	1.302788	-0.793517	-0.358329
C144	C	1.243103	-0.878259	-0.373786
C145	C	1.347535	-0.862370	-0.376604
H146	H	1.235497	-0.903928	-0.392286
H147	H	1.227412	-0.886066	-0.343617
H148	H	1.195556	-0.855557	-0.383548
H149	H	1.395079	-0.885070	-0.366836
H150	H	1.363234	-0.854568	-0.406772
O151	O	0.966570	-0.133792	-0.238703
C152	C	0.905178	-0.136876	-0.278058
H153	H	0.874631	-0.172624	-0.281977
H154	H	0.956228	-0.127633	-0.308276
C155	C	0.847942	-0.060534	-0.270118
C156	C	0.810415	-0.104439	-0.274930
H157	H	0.789490	-0.040524	-0.268190
H158	H	0.889305	-0.058455	-0.243605
H159	H	0.890483	-0.052838	-0.295300
H160	H	0.767886	-0.112136	-0.249745
H161	H	0.769042	-0.106518	-0.301438
H162	H	1.730085	-0.743763	-0.135681
O163	O	1.405737	-0.272842	0.616077
C164	C	1.466803	-0.301664	0.643246
H165	H	1.547235	-0.285575	0.650167
H166	H	1.478972	-0.334936	0.625251
C167	C	1.309630	-0.329697	0.679380
C168	C	1.408416	-0.309934	0.687884
H169	H	1.273613	-0.334800	0.706915
H170	H	1.268488	-0.310281	0.661075
H171	H	1.319785	-0.357421	0.664384
H172	H	1.398259	-0.282208	0.702875
H173	H	1.449555	-0.329346	0.706193
H174	H	1.729011	-0.134484	0.395889
O175	O	1.672283	-0.158689	0.615446
C176	C	1.731953	-0.133179	0.584562
H177	H	1.688293	-0.131782	0.551146
H178	H	1.813036	-0.149389	0.579557
C179	C	1.800206	-0.087023	0.643766
C180	C	1.746578	-0.085303	0.602725
H181	H	1.809232	-0.057491	0.654971
H182	H	1.760009	-0.104210	0.664574
H183	H	1.867769	-0.100532	0.639591
H184	H	1.679012	-0.071799	0.606903
H185	H	1.786764	-0.068112	0.581918
O186	O	1.111833	-0.193914	-0.298777
C187	C	1.075904	-0.150663	-0.310302
H188	H	1.055928	-0.131292	-0.278505
H189	H	1.001941	-0.153498	-0.332102
C190	C	1.188091	-0.149550	-0.375450
C191	C	1.163564	-0.125756	-0.336396
H192	H	1.242161	-0.134186	-0.391548
H193	H	1.212294	-0.178689	-0.367687
H194	H	1.126447	-0.151910	-0.393611
H195	H	1.225204	-0.123401	-0.318233
H196	H	1.139374	-0.096615	-0.344157
H197	H	1.661838	-0.472270	-0.164357
O198	O	1.740772	-0.599404	-0.131144
C199	C	1.800829	-0.630207	-0.105810
H200	H	1.804533	-0.663609	-0.124218
H201	H	1.761837	-0.635289	-0.071673
C202	C	1.909554	-0.570847	-0.076773
C203	C	1.914110	-0.611870	-0.099384
H204	H	1.979430	-0.559535	-0.072807
H205	H	1.869090	-0.550094	-0.093839
H206	H	1.877056	-0.575087	-0.048328
H207	H	1.946595	-0.607628	-0.127830
H208	H	1.954582	-0.632622	-0.082322
H209	H	1.728872	-0.134571	0.255134
H210	H	1.728773	-0.134627	0.170026
O211	O	1.672201	-0.158850	0.522980
C212	C	1.741330	-0.184233	0.495868
H213	H	1.704309	-0.218396	0.488956
H214	H	1.820300	-0.188918	0.513907
C215	C	1.805648	-0.117521	0.459711
C216	C	1.760174	-0.159480	0.451219
H217	H	1.817277	-0.102252	0.432170
H218	H	1.759078	-0.100420	0.477978
H219	H	1.871451	-0.121432	0.474744
H220	H	1.694367	-0.155569	0.436191
H221	H	1.806735	-0.176580	0.432948
O222	O	1.671727	-0.159076	0.043060
C223	C	1.731409	-0.133569	0.012178
H224	H	1.687763	-0.132172	-0.021241
H225	H	1.812494	-0.149778	0.007181
C226	C	1.799638	-0.087409	0.071386
C227	C	1.746026	-0.085691	0.030341
H228	H	1.808660	-0.057877	0.082590
H229	H	1.759432	-0.104595	0.092192
H230	H	1.867203	-0.100919	0.067216
H231	H	1.678459	-0.072187	0.034513
H232	H	1.786222	-0.068502	0.009536
H233	H	1.415316	-1.044545	-0.268565
H234	H	1.730044	-0.688123	-0.135676
O235	O	1.672972	-0.955942	-0.159875
C236	C	1.733023	-0.986743	-0.134536
H237	H	1.736738	-1.020145	-0.152943
H238	H	1.694017	-0.991824	-0.100402
C239	C	1.841728	-0.927379	-0.105493
C240	C	1.846299	-0.968403	-0.128103
H241	H	1.911601	-0.916066	-0.101522
H242	H	1.801269	-0.906627	-0.122563
H243	H	1.809219	-0.931619	-0.077050
H244	H	1.878795	-0.964161	-0.156547
H245	H	1.886766	-0.989153	-0.111037
O246	O	1.672968	-1.048436	-0.159970
C247	C	1.658412	-1.094869	-0.166139
H248	H	1.623488	-1.101201	-0.200782
H249	H	1.601808	-1.108289	-0.139449
C250	C	1.809045	-1.111129	-0.119588
C251	C	1.766159	-1.118907	-0.162139
H252	H	1.875507	-1.125957	-0.117118
H253	H	1.818850	-1.079846	-0.115431
H254	H	1.761865	-1.122312	-0.097351
H255	H	1.813332	-1.107718	-0.184375
H256	H	1.756364	-1.150188	-0.166300
H257	H	1.348149	-0.297516	0.170759
O258	O	1.404465	-0.955814	-0.273085
C259	C	1.344448	-0.986557	-0.298424
H260	H	1.340787	-1.020041	-0.280021
H261	H	1.383449	-0.991456	-0.332562
C262	C	1.235648	-0.927161	-0.327454
C263	C	1.231144	-0.968286	-0.304848
H264	H	1.165758	-0.915890	-0.331418
H265	H	1.276084	-0.906448	-0.310384
H266	H	1.268153	-0.931249	-0.355899
H267	H	1.198652	-0.964196	-0.276402
H268	H	1.190699	-0.988998	-0.321914
O269	O	1.336324	-0.691540	-0.301806
C270	C	1.276241	-0.660736	-0.327128
H271	H	1.319825	-0.627271	-0.328689
H272	H	1.195384	-0.655816	-0.310648
C273	C	1.207429	-0.720041	-0.373025
C274	C	1.260965	-0.678939	-0.374945
H275	H	1.198001	-0.731270	-0.402520
H276	H	1.247905	-0.740795	-0.355964
H277	H	1.140054	-0.715935	-0.359289
H278	H	1.328343	-0.683046	-0.388675
H279	H	1.220500	-0.658187	-0.392009
H280	H	0.972193	-0.236374	-0.140764
O281	O	1.336451	-0.599103	-0.301800
C282	C	1.397053	-0.571864	-0.330829
H283	H	1.480897	-0.585959	-0.333636
H284	H	1.400677	-0.536335	-0.316937
C285	C	1.242117	-0.553752	-0.374065
C286	C	1.345094	-0.571066	-0.377516
H287	H	1.210065	-0.553258	-0.402863
H288	H	1.201287	-0.572102	-0.354507
H289	H	1.245151	-0.524146	-0.362487
H290	H	1.342057	-0.600673	-0.389089
H291	H	1.385923	-0.552721	-0.397077
H292	H	1.347085	-0.743576	-0.297247
H293	H	1.414909	-0.472158	-0.268518
O294	O	1.741004	-0.832516	-0.131207
C295	C	1.847080	-0.820987	-0.141081
H296	H	1.849259	-0.786882	-0.158348
H297	H	1.882965	-0.847324	-0.164199
C298	C	1.908859	-0.860775	-0.076107
C299	C	1.911536	-0.818884	-0.097311
H300	H	1.948620	-0.859479	-0.049108
H301	H	1.837394	-0.868544	-0.069456
H302	H	1.938761	-0.882718	-0.095376
H303	H	1.881622	-0.796943	-0.078044
H304	H	1.982998	-0.811111	-0.103958
H305	H	1.414839	-0.387035	-0.268503
H306	H	1.415588	-0.268730	-0.045192
O307	O	1.405006	-0.273261	0.043555
C308	C	1.345287	-0.298814	0.012896
H309	H	1.388878	-0.300249	-0.020575
H310	H	1.264185	-0.282620	0.007920
C311	C	1.277184	-0.344904	0.072450
C312	C	1.330728	-0.346669	0.031342
H313	H	1.268199	-0.374423	0.083829
H314	H	1.317415	-0.327688	0.093107
H315	H	1.209605	-0.331407	0.068298
H316	H	1.398311	-0.360162	0.035496
H317	H	1.290509	-0.363890	0.010686
H318	H	1.348225	-0.297455	0.255864
H319	H	1.416132	-0.268340	0.527201
H320	H	1.660980	-0.163729	-0.045663
O321	O	1.337699	-0.302027	0.307888
C322	C	1.361679	-0.346722	0.319458
H323	H	1.402656	-0.347500	0.353494
H324	H	1.416594	-0.361710	0.293054
C325	C	1.208007	-0.373291	0.279985
C326	C	1.258328	-0.374247	0.321790
H327	H	1.144258	-0.390271	0.281422
H328	H	1.191853	-0.343180	0.272188
H329	H	1.253781	-0.385780	0.257986
H330	H	1.212560	-0.361753	0.343788
H331	H	1.274472	-0.404357	0.329591
H332	H	1.348368	-0.297354	0.396623
H333	H	1.105306	-0.160735	-0.161129
