data_functionalizedCrystal
_audit_creation_method	'MofGen! by Chris Wilmer'
_symmetry_space_group_name_H-M	'P1'
_symmetry_Int_Tables_number	1
_symmetry_cell_setting	triclinic
loop_
_symmetry_equiv_pos_as_xyz
  x,y,z
_cell_length_a	17.699083
_cell_length_b	17.699083
_cell_length_c	16.176319
_cell_angle_alpha	90.001389
_cell_angle_beta	90.013827
_cell_angle_gamma	83.283016
loop_
_atom_site_label
_atom_site_type_symbol
_atom_site_fract_x
_atom_site_fract_y
_atom_site_fract_z
O1	O	-0.095713	-1.004079	-0.068643
O2	O	0.404287	-0.504079	0.431357
O3	O	-0.108166	-0.783700	-0.068672
O4	O	0.391834	-0.283700	0.431328
O5	O	0.008250	-0.900116	-0.068637
O6	O	0.508250	-0.400116	0.431363
O7	O	-0.212129	-0.887663	-0.068679
O8	O	0.287871	-0.387663	0.431321
O9	O	0.008257	-0.900100	0.068856
O10	O	0.508257	-0.400100	0.568856
O11	O	-0.108158	-0.783684	0.068821
O12	O	0.391842	-0.283684	0.568821
O13	O	-0.095706	-1.004063	0.068850
O14	O	0.404294	-0.504063	0.568850
Cu15	Cu	-0.101931	-0.893872	0.081390
Cu16	Cu	0.398069	-0.393872	0.581390
Cu17	Cu	-0.101940	-0.893891	-0.081212
Cu18	Cu	0.398060	-0.393891	0.418788
O19	O	-0.212121	-0.887647	0.068814
O20	O	0.287879	-0.387647	0.568814
C21	C	0.036451	-0.899662	0.000113
C22	C	0.536451	-0.399662	0.500113
C23	C	0.120469	-0.898323	0.000123
C24	C	0.620469	-0.398323	0.500123
C25	C	-0.107716	-0.755495	0.000071
C26	C	0.392284	-0.255495	0.500071
C27	C	-0.106377	-0.671477	0.000061
C28	C	0.393623	-0.171477	0.500061
C29	C	0.169090	-0.966656	0.000138
C30	C	0.669090	-0.466656	0.500138
C31	C	0.248033	-0.965394	0.000140
C32	C	0.748033	-0.465394	0.500140
C33	C	0.278354	-0.895798	0.000133
C34	C	0.778354	-0.395798	0.500133
C35	C	0.229727	-0.827459	0.000115
C36	C	0.729727	-0.327459	0.500115
C37	C	0.150785	-0.828722	0.000107
C38	C	0.650785	-0.328722	0.500107
C39	C	0.548090	-0.822364	0.000145
C40	C	1.048090	-0.322364	0.500145
C41	C	0.627038	-0.821106	0.000155
C42	C	1.127038	-0.321106	0.500155
C43	C	0.645338	-0.959036	0.000178
C44	C	1.145338	-0.459036	0.500178
C45	C	0.566396	-0.960299	0.000170
C46	C	1.066396	-0.460299	0.500170
C47	C	0.517776	-0.891961	0.000148
C48	C	1.017776	-0.391961	0.500148
C49	C	0.432177	-0.893330	0.000144
C50	C	0.932177	-0.393330	0.500144
C51	C	0.363951	-0.894427	0.000142
C52	C	0.863951	-0.394427	0.500142
C53	C	-0.096156	-1.032268	0.000105
C54	C	0.403844	-0.532268	0.500105
C55	C	-0.097494	-1.116286	0.000109
C56	C	0.402506	-0.616286	0.500109
C57	C	0.759678	-0.888102	0.000092
C58	C	1.259678	-0.388102	0.500092
C59	C	0.675660	-0.889440	0.000164
C60	C	1.175660	-0.389440	0.500164
N61	N	-0.101925	-0.893864	0.195755
N62	N	0.398075	-0.393864	0.695755
C63	C	-0.174711	-0.622856	0.000048
C64	C	0.325289	-0.122856	0.500048
C65	C	-0.173448	-0.543913	0.000059
C66	C	0.326552	-0.043913	0.500059
C67	C	-0.103852	-0.513592	0.000077
C68	C	0.396148	-0.013592	0.500077
C69	C	-0.035513	-0.562219	0.000092
C70	C	0.464487	-0.062219	0.500092
C71	C	-0.036776	-0.641161	0.000087
C72	C	0.463224	-0.141161	0.500087
C73	C	-0.030418	-0.243856	0.000114
C74	C	0.469582	0.256144	0.500114
C75	C	-0.029160	-0.164908	0.000116
C76	C	0.470840	0.335092	0.500116
C77	C	-0.167090	-0.146608	0.000086
C78	C	0.332910	0.353392	0.500086
C79	C	-0.168353	-0.225550	0.000081
C80	C	0.331647	0.274450	0.500081
C81	C	-0.100015	-0.274170	0.000100
C82	C	0.399985	0.225830	0.500100
C83	C	-0.101384	-0.359769	0.000090
C84	C	0.398616	0.140231	0.500090
C85	C	-0.102481	-0.427995	0.000081
C86	C	0.397519	0.072005	0.500081
N87	N	-0.101941	-0.893905	-0.195577
N88	N	0.398059	-0.393905	0.304423
C89	C	-0.050397	-0.945429	0.239035
C90	C	0.449603	-0.445429	0.739035
C91	C	-0.050396	-0.945432	0.325582
C92	C	0.449604	-0.445432	0.825582
C93	C	-0.101927	-0.893875	0.368847
C94	C	0.398073	-0.393875	0.868847
C95	C	-0.153457	-0.842305	0.325561
C96	C	0.346543	-0.342305	0.825561
C97	C	-0.153454	-0.842299	0.239016
C98	C	0.346546	-0.342299	0.739016
C99	C	-0.153472	-0.842331	0.674590
C100	C	0.346528	-0.342331	1.174590
C101	C	-0.153473	-0.842344	0.761141
C102	C	0.346527	-0.342344	1.261141
C103	C	-0.050414	-0.945465	0.761155
C104	C	0.449586	-0.445465	1.261155
C105	C	-0.050410	-0.945458	0.674610
C106	C	0.449590	-0.445458	1.174610
C107	C	-0.101937	-0.893886	0.631332
C108	C	0.398063	-0.393886	1.131332
C109	C	-0.101937	-0.893882	0.537487
C110	C	0.398063	-0.393882	1.037487
C111	C	-0.101932	-0.893883	0.462690
C112	C	0.398068	-0.393883	0.962690
H113	H	0.287618	-1.021038	0.000154
H114	H	0.787618	-0.521038	0.500154
C115	C	-0.244907	-0.258903	0.000058
C116	C	0.255093	0.241097	0.500058
H117	H	-0.235871	-0.312881	0.000050
H118	H	0.264129	0.187119	0.500050
H119	H	-0.273037	-0.242208	0.047999
H120	H	0.226963	0.257792	0.547999
H121	H	-0.273037	-0.242203	-0.047901
H122	H	0.226963	0.257797	0.452099
C123	C	-0.210120	-0.785569	0.373147
C124	C	0.289880	-0.285569	0.873147
H125	H	-0.240796	-0.754847	0.334974
H126	H	0.259204	-0.254847	0.834974
H127	H	-0.241604	-0.812714	0.406908
H128	H	0.258396	-0.312714	0.906908
H129	H	-0.182906	-0.754127	0.406908
H130	H	0.317094	-0.254127	0.906908
H131	H	0.027517	-0.140225	0.000132
H132	H	0.527517	0.359775	0.500132
C133	C	-0.210137	-0.785581	0.191408
C134	C	0.289863	-0.285581	0.691408
H135	H	-0.240833	-0.754881	0.229569
H136	H	0.259167	-0.254881	0.729569
H137	H	-0.182949	-0.754126	0.157659
H138	H	0.317051	-0.254126	0.657659
H139	H	-0.241611	-0.812749	0.157634
H140	H	0.258389	-0.312749	0.657634
H141	H	0.651721	-0.764429	0.000150
H142	H	1.151721	-0.264429	0.500150
C143	C	0.006258	-1.002183	0.627018
C144	C	0.506258	-0.502183	1.127018
H145	H	-0.001128	-0.994802	0.569276
H146	H	0.498872	-0.494802	1.069276
H147	H	0.056767	-0.994076	0.641210
H148	H	0.556767	-0.494076	1.141210
H149	H	-0.001918	-1.052676	0.641200
H150	H	0.498082	-0.552676	1.141200
C151	C	0.044749	-0.297332	0.000123
C152	C	0.544749	0.202668	0.500123
H153	H	0.034034	-0.348690	0.000125
H154	H	0.534034	0.151310	0.500125
H155	H	0.073287	-0.288151	-0.047819
H156	H	0.573287	0.211849	0.452181
H157	H	0.073296	-0.288154	0.048081
H158	H	0.573296	0.211846	0.548081
C159	C	0.041041	-0.528869	0.000110
C160	C	0.541041	-0.028869	0.500110
H161	H	0.032008	-0.474890	0.000102
H162	H	0.532008	0.025110	0.500102
H163	H	0.069176	-0.545567	0.048061
H164	H	0.569176	-0.045567	0.548061
H165	H	0.069166	-0.545567	-0.047839
H166	H	0.569166	-0.045567	0.452161
H167	H	0.684934	-1.014680	0.000192
H168	H	1.184934	-0.514680	0.500192
H169	H	0.254420	-0.770792	0.000103
H170	H	0.754420	-0.270792	0.500103
C171	C	0.533043	-1.036852	0.000182
C172	C	1.033043	-0.536852	0.500182
H173	H	0.479065	-1.027817	0.000183
H174	H	0.979065	-0.527817	0.500183
H175	H	0.549734	-1.064991	-0.047758
H176	H	1.049734	-0.564991	0.452242
H177	H	0.549747	-1.064974	0.048141
H178	H	1.049747	-0.564974	0.548141
C179	C	0.006284	-1.002151	0.373190
C180	C	0.506284	-0.502151	0.873190
H181	H	-0.001090	-0.994766	0.430930
H182	H	0.498910	-0.494766	0.930930
H183	H	-0.001872	-1.052645	0.359001
H184	H	0.498128	-0.552645	0.859001
H185	H	0.056789	-0.994021	0.359019
H186	H	0.556789	-0.494021	0.859019
C187	C	0.135744	-1.043214	0.000147
C188	C	0.635744	-0.543214	0.500147
H189	H	0.176010	-1.083729	0.000148
H190	H	0.676010	-0.583729	0.500148
H191	H	0.105334	-1.046570	0.048090
H192	H	0.605334	-0.546570	0.548090
H193	H	0.105324	-1.046578	-0.047810
H194	H	0.605324	-0.546578	0.452190
C195	C	0.494618	-0.747195	0.000135
C196	C	0.994618	-0.247195	0.500135
H197	H	0.523984	-0.705567	0.000143
H198	H	1.023984	-0.205567	0.500143
H199	H	0.463433	-0.744818	-0.047814
H200	H	0.963433	-0.244818	0.452186
H201	H	0.463451	-0.744818	0.048086
H202	H	0.963451	-0.244818	0.548086
C203	C	0.097298	-0.753558	0.000090
C204	C	0.597298	-0.253558	0.500090
H205	H	0.045941	-0.764277	0.000077
H206	H	0.545941	-0.264277	0.500077
H207	H	0.106478	-0.725004	0.048032
H208	H	0.606478	-0.225004	0.548032
H209	H	0.106472	-0.725024	-0.047868
H210	H	0.606472	-0.225024	0.452132
C211	C	-0.210167	-0.785626	0.626990
C212	C	0.289833	-0.285626	1.126990
H213	H	-0.202788	-0.793001	0.569250
H214	H	0.297212	-0.293001	1.069250
H215	H	-0.260664	-0.793766	0.641166
H216	H	0.239336	-0.293766	1.141166
H217	H	-0.202021	-0.735124	0.641178
H218	H	0.297979	-0.235124	1.141178
H219	H	-0.231384	-0.647537	0.000033
H220	H	0.268616	-0.147537	0.500033
C221	C	0.038390	-0.694644	0.000093
C222	C	0.538390	-0.194644	0.500093
H223	H	0.080021	-0.665282	0.000095
H224	H	0.580021	-0.165282	0.500095
H225	H	0.040770	-0.725824	0.048037
H226	H	0.540770	-0.225824	0.548037
H227	H	0.040759	-0.725815	-0.047863
H228	H	0.540759	-0.225815	0.452137
C229	C	0.006274	-1.002187	0.808764
C230	C	0.506274	-0.502187	1.308764
H231	H	-0.001100	-0.994804	0.866504
H232	H	0.498900	-0.494804	1.366504
H233	H	-0.001883	-1.052680	0.794572
H234	H	0.498117	-0.552680	1.294572
H235	H	0.056780	-0.994057	0.794593
H236	H	0.556780	-0.494057	1.294593
C237	C	-0.210146	-0.785614	0.808732
C238	C	0.289854	-0.285614	1.308732
H239	H	-0.240826	-0.754891	0.770563
H240	H	0.259174	-0.254891	1.270563
H241	H	-0.241626	-0.812770	0.842485
H242	H	0.258374	-0.312770	1.342485
H243	H	-0.182940	-0.754172	0.842501
H244	H	0.317060	-0.254172	1.342501
H245	H	-0.229092	-0.504328	0.000048
H246	H	0.270908	-0.004328	0.500048
H247	H	-0.222734	-0.107012	0.000074
H248	H	0.277266	0.392988	0.500074
H249	H	-0.008438	-0.987416	0.203813
H250	H	0.491562	-0.487416	0.703813
