data_functionalizedCrystal
_audit_creation_method	'MofGen! by Chris Wilmer'
_symmetry_space_group_name_H-M	'P1'
_symmetry_Int_Tables_number	1
_symmetry_cell_setting	triclinic
loop_
_symmetry_equiv_pos_as_xyz
  x,y,z
_cell_length_a	15.995343
_cell_length_b	15.995343
_cell_length_c	10.868271
_cell_angle_alpha	89.990143
_cell_angle_beta	90.000003
_cell_angle_gamma	83.489184
loop_
_atom_site_label
_atom_site_type_symbol
_atom_site_fract_x
_atom_site_fract_y
_atom_site_fract_z
O1	O	1.110986	0.107896	-0.102212
O2	O	1.610986	0.607896	0.397788
O3	O	0.867210	0.121231	-0.102243
O4	O	1.367210	0.621231	0.397757
O5	O	0.995765	-0.007325	-0.102204
O6	O	1.495765	0.492675	0.397796
O7	O	0.982431	0.236452	-0.102251
O8	O	1.482431	0.736452	0.397749
O9	O	0.995755	-0.007330	0.102441
O10	O	1.495755	0.492670	0.602441
O11	O	0.867199	0.121226	0.102402
O12	O	1.367199	0.621226	0.602402
O13	O	1.110976	0.107891	0.102433
O14	O	1.610976	0.607891	0.602433
Zn15	Zn	0.989086	0.114558	0.134909
Zn16	Zn	1.489086	0.614558	0.634909
Zn17	Zn	0.989100	0.114564	-0.134719
Zn18	Zn	1.489100	0.614564	0.365281
O19	O	0.982420	0.236447	0.102393
O20	O	1.482420	0.736447	0.602393
C21	C	0.836010	0.120678	0.000076
C22	C	1.336010	0.620678	0.500076
C23	C	0.743059	0.119029	0.000065
C24	C	1.243059	0.619029	0.500065
C25	C	0.572873	0.116035	0.000082
C26	C	1.072873	0.616035	0.500082
C27	C	0.549530	0.023238	0.000099
C28	C	1.049530	0.523238	0.500099
C29	C	0.452852	0.021492	0.000571
C30	C	0.952852	0.521492	0.500571
C31	C	0.405313	0.113087	0.000097
C32	C	0.905313	0.613087	0.500097
C33	C	0.434397	0.159744	0.116718
C34	C	0.934397	0.659744	0.616718
C35	C	0.531190	0.160845	0.116808
C36	C	1.031190	0.660845	0.616808
C37	C	0.531112	0.162209	-0.115919
C38	C	1.031112	0.662209	0.384081
C39	C	0.434617	0.158783	-0.117444
C40	C	0.934617	0.658783	0.382556
C41	C	0.310615	0.111425	0.000110
C42	C	0.810615	0.611425	0.500110
C43	C	0.667571	0.117700	0.000077
C44	C	1.167571	0.617700	0.500077
C45	C	0.995210	-0.038522	0.000122
C46	C	1.495210	0.461478	0.500122
C47	C	0.993561	-0.131473	0.000131
C48	C	1.493561	0.368527	0.500131
C49	C	0.990567	-0.301659	0.000103
C50	C	1.490567	0.198341	0.500103
C51	C	0.897770	-0.325002	0.000088
C52	C	1.397770	0.174998	0.500088
C53	C	0.896024	-0.421680	-0.000390
C54	C	1.396024	0.078320	0.499610
C55	C	0.987619	-0.469219	0.000076
C56	C	1.487619	0.030781	0.500076
C57	C	1.034285	-0.440118	-0.116545
C58	C	1.534285	0.059882	0.383455
C59	C	1.035385	-0.343326	-0.116629
C60	C	1.535385	0.156674	0.383371
C61	C	1.036732	-0.343436	0.116099
C62	C	1.536732	0.156564	0.616099
C63	C	1.033306	-0.439931	0.117617
C64	C	1.533306	0.060069	0.617617
C65	C	0.985957	-0.563917	0.000057
C66	C	1.485957	-0.063917	0.500057
C67	C	0.992231	-0.206961	0.000114
C68	C	1.492231	0.293039	0.500114
C69	C	1.142176	0.108444	0.000111
C70	C	1.642176	0.608444	0.500111
C71	C	1.235127	0.110093	0.000114
C72	C	1.735127	0.610093	0.500114
C73	C	0.982976	0.267644	0.000065
C74	C	1.482976	0.767644	0.500065
C75	C	0.984625	0.360595	0.000048
C76	C	1.484625	0.860595	0.500048
N77	N	0.989082	0.114553	0.318923
N78	N	1.489082	0.614553	0.818923
N79	N	0.989110	0.114563	-0.318733
N80	N	1.489110	0.614563	0.181267
C81	C	0.989095	0.114563	0.569929
C82	C	1.489095	0.614563	1.069929
C83	C	0.989085	0.114560	0.430252
C84	C	1.489085	0.614560	0.930252
H85	H	0.578511	-0.012147	0.083618
H86	H	1.078511	0.487853	0.583618
H87	H	0.862391	-0.296010	-0.083427
H88	H	1.362391	0.203990	0.416573
H89	H	1.007449	-0.315173	0.204526
H90	H	1.507449	0.184827	0.704526
H91	H	1.105034	-0.329418	0.117240
H92	H	1.605034	0.170582	0.617240
H93	H	0.999323	-0.458497	0.203896
H94	H	1.499323	0.041503	0.703896
H95	H	0.859486	-0.440705	0.083184
H96	H	1.359486	0.059295	0.583184
H97	H	0.577542	-0.012729	-0.083517
H98	H	1.077542	0.487271	0.416483
H99	H	0.433838	-0.015031	-0.083009
H100	H	0.933838	0.484969	0.416991
H101	H	0.434412	-0.014864	0.084673
H102	H	0.934412	0.485136	0.584673
H103	H	0.559387	0.132933	-0.204343
H104	H	1.059387	0.632933	0.295657
H105	H	1.101696	-0.471966	-0.120547
H106	H	1.601696	0.028034	0.379453
H107	H	0.545123	0.230513	-0.117057
H108	H	1.045123	0.730513	0.382943
H109	H	0.861796	-0.297000	0.083708
H110	H	1.361796	0.203000	0.583708
H111	H	0.416065	0.124806	-0.203722
H112	H	0.916065	0.624806	0.296278
H113	H	0.859678	-0.440109	-0.084494
H114	H	1.359678	0.059891	0.415506
H115	H	1.100142	-0.472881	0.125019
H116	H	1.600142	0.027119	0.625019
H117	H	1.003454	-0.316532	-0.204146
H118	H	1.503454	0.183468	0.295854
H119	H	0.557972	0.128906	0.204329
H120	H	1.057972	0.628906	0.704329
H121	H	0.545761	0.228895	0.121782
H122	H	1.045761	0.728895	0.621782
H123	H	0.414302	0.127727	0.203849
H124	H	0.914302	0.627727	0.703849
H125	H	0.402549	0.227155	0.120714
H126	H	0.902549	0.727155	0.620714
H127	H	0.401659	0.225616	-0.124861
H128	H	0.901659	0.725616	0.375139
H129	H	1.002274	-0.460200	-0.203676
H130	H	1.502274	0.039800	0.296324
H131	H	1.103437	-0.328754	-0.121591
H132	H	1.603437	0.171246	0.378409
