data_functionalizedCrystal
_audit_creation_method	'MofGen! by Chris Wilmer'
_symmetry_space_group_name_H-M	'P1'
_symmetry_Int_Tables_number	1
_symmetry_cell_setting	triclinic
loop_
_symmetry_equiv_pos_as_xyz
  x,y,z
_cell_length_a	10.723024
_cell_length_b	14.044220
_cell_length_c	9.198806
_cell_angle_alpha	89.995861
_cell_angle_beta	89.996352
_cell_angle_gamma	88.828373
loop_
_atom_site_label
_atom_site_type_symbol
_atom_site_fract_x
_atom_site_fract_y
_atom_site_fract_z
O1	O	1.670498	0.133040	-0.120888
O2	O	1.308620	0.145774	-0.120893
O3	O	1.484127	0.001387	-0.120876
O4	O	1.494991	0.277427	-0.120905
O5	O	1.484112	0.001387	0.120909
O6	O	1.308604	0.145774	0.120892
O7	O	1.670483	0.133039	0.120898
Cu8	Cu	1.489542	0.139407	0.142972
Cu9	Cu	1.489560	0.139407	-0.142967
O10	O	1.494975	0.277427	0.120881
C11	C	1.262020	0.144847	-0.000001
C12	C	1.123188	0.142075	-0.000003
C13	C	1.056288	0.222866	-0.000012
C14	C	0.912798	0.220002	-0.000013
C15	C	1.479364	-0.033958	0.000017
C16	C	1.465180	-0.139276	0.000019
C17	C	1.439248	-0.332106	-0.000003
C18	C	1.539849	-0.389085	-0.000006
C19	C	1.525420	-0.496383	-0.000017
C20	C	1.453675	-0.224799	0.000009
C21	C	1.717083	0.133966	0.000002
C22	C	1.855914	0.136739	-0.000006
C23	C	1.499738	0.312772	-0.000016
C24	C	1.513923	0.418090	-0.000027
N25	N	1.489539	0.139406	0.344086
N26	N	1.489573	0.139401	-0.344081
C27	C	1.563202	0.078514	0.416290
C28	C	1.563221	0.078511	0.583702
H29	H	1.074234	0.070786	-0.000032
O30	O	1.414195	0.201633	0.417959
C31	C	1.260477	0.328788	0.402257
C32	C	1.345724	0.258352	0.318421
H33	H	1.205115	0.374677	0.321817
H34	H	1.193365	0.287546	0.473493
H35	H	1.319917	0.376332	0.473545
H36	H	1.286384	0.210790	0.247054
H37	H	1.412842	0.299653	0.247277
H38	H	1.636814	-0.357284	-0.000102
O39	O	1.638393	0.016183	0.657609
C40	C	1.692526	-0.148329	0.704536
C41	C	1.607332	-0.077845	0.620716
H42	H	1.667427	-0.224367	0.674762
H43	H	1.794009	-0.135593	0.674646
H44	H	1.679157	-0.137201	0.826348
H45	H	1.620592	-0.088932	0.498885
H46	H	1.505881	-0.090600	0.650727
O47	O	1.323666	-0.370193	0.000066
C48	C	1.203730	-0.513430	-0.000016
C49	C	1.334695	-0.470408	-0.000068
H50	H	1.212602	-0.594459	-0.000155
H51	H	1.150798	-0.488905	0.101202
H52	H	1.150826	-0.488765	-0.101171
H53	H	1.387702	-0.495053	0.101019
H54	H	1.387532	-0.494929	-0.101353
H55	H	0.913420	0.067571	-0.000007
H56	H	1.105243	0.294155	-0.000011
H57	H	0.855286	0.289166	-0.000027
H58	H	1.626251	0.026381	0.354170
H59	H	1.426508	0.191538	0.593836
