data_functionalizedCrystal
_audit_creation_method	'MofGen! by Chris Wilmer'
_symmetry_space_group_name_H-M	'P1'
_symmetry_Int_Tables_number	1
_symmetry_cell_setting	triclinic
loop_
_symmetry_equiv_pos_as_xyz
  x,y,z
_cell_length_a	19.805407
_cell_length_b	12.645330
_cell_length_c	19.805399
_cell_angle_alpha	89.978279
_cell_angle_beta	89.980427
_cell_angle_gamma	90.017692
loop_
_atom_site_label
_atom_site_type_symbol
_atom_site_fract_x
_atom_site_fract_y
_atom_site_fract_z
Zn1	Zn	1.034777	-0.422064	-0.382747
Zn2	Zn	1.034709	-0.599342	-0.269571
Zn3	Zn	0.921591	-0.422093	-0.269572
Zn4	Zn	0.921572	-0.599286	-0.382717
O5	O	0.978162	-0.510696	-0.326152
O6	O	1.129484	-0.445592	-0.367746
O7	O	1.019683	-0.575865	-0.174854
O8	O	0.936642	-0.273742	-0.284598
O9	O	1.129434	-0.575837	-0.284596
O10	O	1.019799	-0.273721	-0.367747
O11	O	0.936576	-0.445641	-0.174855
O12	O	0.826872	-0.445587	-0.284569
O13	O	0.936609	-0.575741	-0.477438
O14	O	0.826858	-0.575769	-0.367696
O15	O	1.019780	-0.445537	-0.477460
O16	O	1.019664	-0.747682	-0.284567
O17	O	0.936543	-0.747641	-0.367695
C18	C	0.802306	-0.510676	-0.326130
C19	C	0.727074	-0.510693	-0.326137
C20	C	0.691740	-0.578581	-0.369351
C21	C	0.621052	-0.578583	-0.369361
C22	C	0.585699	-0.510701	-0.326152
C23	C	0.621037	-0.442805	-0.282935
C24	C	0.691725	-0.442799	-0.282930
C25	C	0.335964	-0.442829	-0.282958
C26	C	0.265272	-0.442843	-0.282965
C27	C	0.265292	-0.578613	-0.369388
C28	C	0.335979	-0.578606	-0.369383
C29	C	0.371311	-0.510707	-0.326169
C30	C	0.447960	-0.510705	-0.326160
C31	C	0.509051	-0.510708	-0.326157
C32	C	0.978113	-0.786126	-0.326142
C33	C	0.978154	-0.903956	-0.326161
C34	C	0.926078	-1.071538	-0.378618
C35	C	0.925811	-0.948979	-0.378450
C36	C	0.958847	-0.948544	-0.254828
C37	C	0.958530	-1.071142	-0.255147
C38	C	1.049854	-1.071047	-0.344457
C39	C	1.049415	-0.948440	-0.346017
C40	C	1.154705	-0.510717	-0.326174
C41	C	1.229937	-0.510726	-0.326184
C42	C	0.978200	-0.510629	-0.502695
C43	C	0.978216	-0.510601	-0.577927
C44	C	0.978230	-0.234191	-0.326176
C45	C	0.978259	-0.116361	-0.326186
C46	C	1.021524	-0.442800	-0.613283
C47	C	1.021531	-0.442770	-0.683972
C48	C	0.978233	-0.510546	-0.719302
C49	C	0.934920	-0.578349	-0.683941
C50	C	0.934910	-0.578374	-0.613253
C51	C	0.934958	-0.578250	-0.969014
C52	C	0.934973	-0.578223	-1.039706
C53	C	1.021579	-0.442646	-1.039732
C54	C	1.021570	-0.442671	-0.969045
C55	C	0.978255	-0.510470	-0.933690
C56	C	0.978247	-0.510501	-0.857041
C57	C	0.978244	-0.510521	-0.795949
C58	C	0.978163	-0.510686	-0.150296
C59	C	0.978278	-0.510416	-0.075064
H60	H	0.236515	-0.633895	-0.404578
C61	C	0.887285	-0.652893	-0.722807
N62	N	0.851405	-0.709041	-0.752080
H63	H	0.899638	-0.633574	-0.584467
H64	H	0.720492	-0.387512	-0.247744
H65	H	0.899712	-0.633416	-1.068470
C66	C	0.730623	-0.653258	-0.416885
N67	N	0.759907	-0.709504	-0.452691
C68	C	0.888877	-0.907200	-0.233543
N69	N	0.836172	-0.876062	-0.217514
C70	C	1.069175	-0.368185	-0.722861
N71	N	1.105062	-0.312005	-0.752152
H72	H	0.899699	-0.633472	-0.940236
C73	C	0.582188	-0.653286	-0.416887
N74	N	0.552916	-0.709562	-0.452682
H75	H	1.067466	-1.101895	-0.395589
H76	H	1.088731	-1.100032	-0.306269
C77	C	1.008560	-0.909141	-0.200607
N78	N	1.046003	-0.879458	-0.159768
C79	C	0.374863	-0.653283	-0.416915
N80	N	0.404150	-0.709528	-0.452719
C81	C	1.069219	-0.368052	-1.078630
N82	N	1.105100	-0.311868	-1.107926
C83	C	0.887824	-1.109904	-0.234242
N84	N	0.834566	-1.139094	-0.218498
H85	H	0.236489	-0.387559	-0.247779
C86	C	1.069198	-0.368108	-0.930186
N87	N	1.105070	-0.311940	-0.900917
C88	C	0.374821	-0.368144	-0.235417
N89	N	0.404090	-0.311890	-0.199606
C90	C	0.582146	-0.368132	-0.235407
N91	N	0.552854	-0.311889	-0.199606
C92	C	0.942127	-0.908245	-0.449906
N93	N	0.954413	-0.877570	-0.503730
C94	C	1.007639	-1.111206	-0.200565
N95	N	1.044623	-1.141378	-0.159451
H96	H	0.938046	-1.100955	-0.431684
H97	H	0.873332	-1.102438	-0.366668
H98	H	1.063974	-0.919294	-0.398514
H99	H	0.872734	-0.919743	-0.366345
H100	H	1.090340	-0.917787	-0.310610
H101	H	1.056785	-0.387612	-0.584522
