data_functionalizedCrystal
_audit_creation_method	'MofGen! by Chris Wilmer'
_symmetry_space_group_name_H-M	'P1'
_symmetry_Int_Tables_number	1
_symmetry_cell_setting	triclinic
loop_
_symmetry_equiv_pos_as_xyz
  x,y,z
_cell_length_a	21.295419
_cell_length_b	21.295417
_cell_length_c	16.959447
_cell_angle_alpha	89.964725
_cell_angle_beta	89.981937
_cell_angle_gamma	90.045308
loop_
_atom_site_label
_atom_site_type_symbol
_atom_site_fract_x
_atom_site_fract_y
_atom_site_fract_z
Zn1	Zn	0.962315	-0.250348	-0.446906
Zn2	Zn	0.962230	-0.355625	-0.314716
Zn3	Zn	0.857050	-0.250400	-0.314741
Zn4	Zn	0.857008	-0.355610	-0.446852
O5	O	0.909651	-0.302996	-0.380804
O6	O	1.050393	-0.264297	-0.429383
O7	O	0.948259	-0.341694	-0.204108
O8	O	0.871068	-0.162304	-0.332305
O9	O	1.050330	-0.341643	-0.332263
O10	O	0.948405	-0.162265	-0.429407
O11	O	0.870985	-0.264387	-0.204126
O12	O	0.768955	-0.264373	-0.332253
O13	O	0.870995	-0.341619	-0.557470
O14	O	0.768924	-0.341670	-0.429315
O15	O	0.948364	-0.264283	-0.557510
O16	O	0.948218	-0.443712	-0.332211
O17	O	0.870912	-0.443701	-0.429291
C18	C	0.746099	-0.303026	-0.380781
C19	C	0.676131	-0.303054	-0.380791
C20	C	0.909568	-0.466547	-0.380760
C21	C	0.909591	-0.536515	-0.380768
C22	C	0.643320	-0.262845	-0.431439
C23	C	0.577577	-0.262829	-0.431442
C24	C	0.544649	-0.303031	-0.380805
C25	C	0.577468	-0.343243	-0.330147
C26	C	0.643209	-0.343254	-0.330140
N27	N	0.441374	-0.358110	-0.374628
N28	N	0.378922	-0.358097	-0.374639
C29	C	0.346574	-0.302999	-0.380823
N30	N	0.379036	-0.247912	-0.387010
N31	N	0.441493	-0.247925	-0.387002
C32	C	0.473363	-0.303023	-0.380807
C33	C	0.242477	-0.262769	-0.431477
C34	C	0.176733	-0.262751	-0.431474
C35	C	0.176625	-0.343170	-0.330184
C36	C	0.242368	-0.343183	-0.330182
C37	C	0.275290	-0.302983	-0.380833
C38	C	0.949880	-0.569367	-0.330270
C39	C	0.949909	-0.635109	-0.330288
C40	C	0.909638	-0.667998	-0.380795
C41	C	0.869347	-0.635139	-0.431302
C42	C	0.869323	-0.569398	-0.431289
N43	N	0.854571	-0.771278	-0.386813
N44	N	0.854595	-0.833729	-0.386821
C45	C	0.909709	-0.866073	-0.380840
N46	N	0.964798	-0.833605	-0.374835
N47	N	0.964773	-0.771148	-0.374822
C48	C	0.909660	-0.739283	-0.380816
C49	C	0.950033	-0.970209	-0.330359
C50	C	0.950064	-1.035953	-0.330382
C51	C	0.869496	-1.035981	-0.431393
C52	C	0.869471	-0.970239	-0.431374
C53	C	0.909739	-0.937357	-0.380853
C54	C	1.073841	-0.302966	-0.380826
C55	C	1.143809	-0.302953	-0.380836
C56	C	0.909685	-0.302943	-0.586972
C57	C	0.909699	-0.302921	-0.674829
C58	C	0.909751	-0.138805	-0.380865
C59	C	0.909793	-0.068837	-0.380891
C60	C	0.869521	-0.262604	-1.046320
C61	C	0.949988	-0.343105	-1.046289
C62	C	0.949977	-0.343120	-0.963743
C63	C	0.909737	-0.302877	-0.922482
C64	C	0.869508	-0.262619	-0.963766
C65	C	0.990201	-0.383382	-0.922452
C66	C	0.990191	-0.383399	-0.839901
C67	C	0.949954	-0.343152	-0.798638
C68	C	0.909723	-0.302892	-0.839928
C69	C	0.869483	-0.262648	-0.798667
C70	C	0.829256	-0.222385	-0.839955
C71	C	0.829270	-0.222372	-0.922504
C72	C	0.949939	-0.343164	-0.716090
C73	C	0.869470	-0.262663	-0.716113
C74	C	0.909653	-0.303002	-0.175437
C75	C	0.909761	-0.302847	-0.087581
H76	H	0.550857	-0.230083	-0.472684
H77	H	0.269283	-0.230031	-0.472715
O78	O	0.993383	-0.386514	-1.090788
H79	H	1.042793	-0.375715	-1.074955
O80	O	0.541958	-0.386606	-0.275529
H81	H	0.490731	-0.379848	-0.284048
O82	O	0.678602	-0.386623	-0.275507
H83	H	0.708537	-0.418689	-0.310805
O84	O	1.033597	-0.426787	-0.966955
H85	H	1.083006	-0.415991	-0.951118
O86	O	0.785882	-0.178946	-0.967029
H87	H	0.796715	-0.129544	-0.951211
H88	H	0.150019	-0.230004	-0.472717
H89	H	0.670121	-0.230111	-0.472682
O90	O	0.826135	-0.219174	-1.090842
H91	H	0.836969	-0.169774	-1.075016
O92	O	1.033588	-0.426810	-0.795369
H93	H	1.061577	-0.454785	-0.837930
H94	H	0.982696	-0.375942	-0.682476
H95	H	0.796489	-0.189621	-0.806350
H96	H	0.149815	-0.375904	-0.288954
O97	O	0.277764	-0.386553	-0.275557
H98	H	0.243824	-0.414509	-0.240348
H99	H	0.982719	-0.661862	-0.289167
H100	H	0.982670	-0.542596	-0.289135
H101	H	0.836559	-0.661921	-0.472427
H102	H	0.836514	-0.542649	-0.472411
H103	H	0.982824	-0.943436	-0.289224
H104	H	0.982876	-1.062699	-0.289263
H105	H	0.836704	-0.229889	-0.682524
O106	O	0.826056	-1.071443	-0.485868
H107	H	0.832837	-1.122677	-0.477391
H108	H	0.836661	-0.943490	-0.472490
