data_functionalizedCrystal
_audit_creation_method	'MofGen! by Chris Wilmer'
_symmetry_space_group_name_H-M	'P1'
_symmetry_Int_Tables_number	1
_symmetry_cell_setting	triclinic
loop_
_symmetry_equiv_pos_as_xyz
  x,y,z
_cell_length_a	14.044220
_cell_length_b	12.503572
_cell_length_c	14.044220
_cell_angle_alpha	93.843168
_cell_angle_beta	86.811122
_cell_angle_gamma	93.835250
loop_
_atom_site_label
_atom_site_type_symbol
_atom_site_fract_x
_atom_site_fract_y
_atom_site_fract_z
O1	O	1.282200	0.089210	-0.225116
O2	O	1.782200	0.589210	0.274884
O3	O	1.005530	0.089237	-0.216809
O4	O	1.505530	0.589237	0.283191
O5	O	1.139712	0.089213	-0.082627
O6	O	1.639712	0.589213	0.417373
O7	O	1.148019	0.089234	-0.359298
O8	O	1.648019	0.589234	0.140702
O9	O	1.129622	-0.089427	-0.092737
O10	O	1.629622	0.410573	0.407263
O11	O	0.995440	-0.089403	-0.226918
O12	O	1.495440	0.410597	0.273082
O13	O	1.272110	-0.089430	-0.235226
O14	O	1.772110	0.410570	0.264774
Cu15	Cu	1.132854	-0.105728	-0.231995
Cu16	Cu	1.632854	0.394272	0.268005
Cu17	Cu	1.144786	0.105535	-0.220040
Cu18	Cu	1.644786	0.605535	0.279960
O19	O	1.137929	-0.089406	-0.369407
O20	O	1.637929	0.410594	0.130593
C21	C	0.964864	-0.000080	-0.218228
C22	C	1.464864	0.499920	0.281772
C23	C	0.858721	-0.000070	-0.207383
C24	C	1.358721	0.499930	0.292617
N25	N	1.124469	-0.254319	-0.240404
N26	N	1.624469	0.245681	0.259596
C27	C	0.664382	-0.000092	-0.187558
C28	C	1.164382	0.499908	0.312442
C29	C	0.613253	-0.000091	-0.264472
C30	C	1.113253	0.499909	0.235528
C31	C	0.505116	-0.000104	-0.253441
C32	C	1.005116	0.499896	0.246559
C33	C	0.772529	-0.000080	-0.198587
C34	C	1.272529	0.499920	0.301413
C35	C	1.112134	-0.473432	-0.252782
C36	C	1.612134	0.026568	0.247218
C37	C	1.165511	-0.526768	-0.199249
C38	C	1.665511	-0.026768	0.300751
C39	C	1.158648	-0.648690	-0.206136
C40	C	1.658648	-0.148690	0.293864
C41	C	1.118996	-0.351499	-0.245896
C42	C	1.618996	0.148501	0.254104
C43	C	1.312777	-0.000111	-0.233807
C44	C	1.812777	0.499889	0.266193
C45	C	1.418920	-0.000114	-0.244651
C46	C	1.918920	0.499886	0.255349
C47	C	1.131031	-0.000107	-0.052060
C48	C	1.631031	0.499893	0.447940
C49	C	1.120187	-0.000107	0.054082
C50	C	1.620187	0.499893	0.554082
N51	N	1.153179	0.254126	-0.211624
N52	N	1.653179	0.754126	0.288376
C53	C	1.146609	-0.000084	-0.399974
C54	C	1.646609	0.499916	0.100026
C55	C	1.157454	-0.000077	-0.506117
C56	C	1.657454	0.499923	-0.006117
C57	C	1.100361	-0.000090	0.248421
C58	C	1.600361	0.499910	0.748421
C59	C	1.177275	-0.000094	0.299551
C60	C	1.677275	0.499906	0.799551
C61	C	1.166244	-0.000084	0.407687
C62	C	1.666244	0.499916	0.907687
C63	C	1.111391	-0.000099	0.140274
C64	C	1.611391	0.499901	0.640274
H65	H	0.626945	-0.000104	-0.113431
H66	H	1.126945	0.499896	0.386569
C67	C	0.663348	0.000010	-0.363236
C68	C	1.163348	0.500010	0.136764
C69	C	0.762203	0.000061	-0.354685
C70	C	1.262203	0.500061	0.145315
C71	C	0.808387	0.000184	-0.445640
C72	C	1.308387	0.500184	0.054360
H73	H	0.642019	-0.062256	-0.400566
H74	H	1.142019	0.437744	0.099434
H75	H	0.648959	0.062343	-0.393402
H76	H	1.148959	0.562343	0.106598
H77	H	0.776585	-0.062266	-0.324534
H78	H	1.276585	0.437734	0.175466
H79	H	0.783560	0.062323	-0.317372
H80	H	1.283560	0.562323	0.182628
H81	H	0.793999	0.062517	-0.475805
H82	H	1.293999	0.562517	0.024195
H83	H	0.787050	-0.062084	-0.482963
H84	H	1.287050	0.437916	0.017037
H85	H	0.875465	0.000228	-0.439850
H86	H	1.375465	0.500228	0.060150
H87	H	1.251413	-0.000029	0.262115
H88	H	1.751413	0.499971	0.762115
C89	C	1.001449	-0.000250	0.298198
C90	C	1.501449	0.499750	0.798198
C91	C	0.946796	-0.092144	0.266383
C92	C	1.446796	0.407856	0.766383
C93	C	0.855670	-0.092324	0.312218
C94	C	1.355670	0.407676	0.812218
H95	H	1.006939	-0.000302	0.365302
H96	H	1.506939	0.499698	0.865302
H97	H	0.971209	0.062013	0.283750
H98	H	1.471209	0.562013	0.783750
H99	H	0.977028	-0.154390	0.280838
H100	H	1.477028	0.345610	0.780838
H101	H	0.941278	-0.092111	0.199285
H102	H	1.441278	0.407889	0.699285
H103	H	0.825430	-0.030061	0.297770
H104	H	1.325430	0.469939	0.797770
H105	H	0.861170	-0.092373	0.379320
H106	H	1.361170	0.407627	0.879320
H107	H	0.818574	-0.154667	0.290632
H108	H	1.318574	0.345333	0.790632
H109	H	1.216364	-0.480864	-0.148245
H110	H	1.716364	0.019136	0.351755
H111	H	1.061285	-0.519330	-0.303783
H112	H	1.561285	-0.019330	0.196217
