data_functionalizedCrystal
_audit_creation_method	'MofGen! by Chris Wilmer'
_symmetry_space_group_name_H-M	'P1'
_symmetry_Int_Tables_number	1
_symmetry_cell_setting	triclinic
loop_
_symmetry_equiv_pos_as_xyz
  x,y,z
_cell_length_a	17.038272
_cell_length_b	15.500227
_cell_length_c	10.723024
_cell_angle_alpha	92.856340
_cell_angle_beta	92.210287
_cell_angle_gamma	93.043705
loop_
_atom_site_label
_atom_site_type_symbol
_atom_site_fract_x
_atom_site_fract_y
_atom_site_fract_z
O1	O	1.042468	0.071832	-0.265722
O2	O	0.814815	0.071857	-0.261415
O3	O	0.933892	0.071841	-0.082479
O4	O	0.923390	0.071849	-0.444659
O5	O	0.926666	-0.072047	-0.093291
O6	O	0.807588	-0.072030	-0.272228
O7	O	1.035242	-0.072056	-0.276535
Cu8	Cu	0.920755	-0.085181	-0.275369
Cu9	Cu	0.929301	0.084983	-0.262582
O10	O	0.916164	-0.072039	-0.455472
C11	C	0.782052	-0.000083	-0.262906
C12	C	0.695195	-0.000073	-0.251223
C13	C	0.645674	-0.000072	-0.358479
C14	C	0.564062	-0.000084	-0.347495
C15	C	0.531973	-0.000092	-0.229255
C16	C	0.581500	-0.000096	-0.121992
C17	C	0.663110	-0.000090	-0.132977
C18	C	0.285999	-0.000115	-0.190448
C19	C	0.204383	-0.000119	-0.179472
C20	C	0.186950	-0.000109	-0.404976
C21	C	0.268562	-0.000098	-0.415950
C22	C	0.318082	-0.000106	-0.308687
C23	C	0.448553	-0.000101	-0.218026
C24	C	0.401501	-0.000103	-0.319918
N25	N	0.914750	-0.204865	-0.284363
C26	C	0.965225	-0.250149	-0.208573
C27	C	0.960691	-0.340721	-0.215387
C28	C	0.905685	-0.386008	-0.297998
C29	C	0.855205	-0.340718	-0.373791
C30	C	0.859736	-0.250147	-0.366970
C31	C	0.889363	-0.659473	-0.322550
C32	C	0.884837	-0.750049	-0.329369
C33	C	0.990323	-0.750046	-0.170962
C34	C	0.994852	-0.659474	-0.164153
C35	C	0.944369	-0.614192	-0.239942
C36	C	0.901051	-0.478587	-0.304968
C37	C	0.949000	-0.521614	-0.232965
C38	C	1.068005	-0.000113	-0.275044
C39	C	1.154862	-0.000117	-0.286727
C40	C	0.929515	-0.000102	-0.041315
C41	C	0.927228	-0.000099	0.097451
N42	N	0.935312	0.204667	-0.253579
C43	C	0.920541	-0.000095	-0.496636
C44	C	0.922828	-0.000092	-0.635401
C45	C	0.993858	-0.000105	0.166270
C46	C	0.991496	-0.000101	0.309692
H47	H	0.326309	-0.000123	-0.103107
H48	H	0.993784	-0.484739	-0.165697
H49	H	1.039643	-0.622603	-0.096885
H50	H	1.052650	-0.000117	0.119009
O51	O	0.840445	-0.615403	-0.396244
C52	C	0.829822	-0.513191	-0.557357
C53	C	0.885311	-0.563032	-0.473940
H54	H	0.866073	-0.470851	-0.620213
H55	H	0.792581	-0.470738	-0.496157
H56	H	0.789723	-0.561141	-0.617517
H57	H	0.925458	-0.515144	-0.413766
H58	H	0.922497	-0.605497	-0.535211
H59	H	0.703430	-0.000090	-0.045638
H60	H	0.178260	-0.000124	-0.083182
H61	H	0.810413	-0.377596	-0.441050
H62	H	0.818632	-0.213278	-0.428684
O63	O	0.550204	-0.000066	-0.007225
C64	C	0.432207	-0.000128	0.109636
C65	C	0.467543	-0.000144	-0.020414
H66	H	0.365370	-0.000209	0.099016
H67	H	0.455513	0.060101	0.167631
H68	H	0.449583	-0.060332	0.158543
H69	H	0.450181	0.060019	-0.069428
H70	H	0.444238	-0.060413	-0.078317
H71	H	0.427631	-0.000101	-0.416189
H72	H	1.031423	-0.786923	-0.109257
H73	H	0.865785	-0.000093	0.305450
H74	H	0.856265	-0.515467	-0.372234
O75	O	0.676928	-0.000177	-0.473279
C76	C	0.755177	-0.074732	-0.622190
C77	C	0.719845	-0.074709	-0.492136
H78	H	0.789869	-0.134994	-0.637488
H79	H	0.796011	-0.014552	-0.628471
H80	H	0.705750	-0.074692	-0.696936
H81	H	0.769220	-0.074780	-0.417314
H82	H	0.678991	-0.134884	-0.485962
H83	H	1.010020	-0.213282	-0.141308
H84	H	1.001792	-0.377591	-0.153672
O85	O	0.417349	0.000052	-0.103186
C86	C	0.339005	0.074561	0.045634
C87	C	0.374316	0.074508	-0.084437
H88	H	0.304192	0.134743	0.060824
H89	H	0.388385	0.074621	0.120477
H90	H	0.298251	0.014312	0.051858
H91	H	0.415062	0.134746	-0.090784
H92	H	0.324897	0.074403	-0.159218
O93	O	0.299831	-0.000185	-0.530740
C94	C	0.378120	-0.074686	-0.679648
C95	C	0.342762	-0.074705	-0.549615
H96	H	0.412824	-0.134938	-0.694960
H97	H	0.418949	-0.014496	-0.685876
H98	H	0.328708	-0.074635	-0.754415
H99	H	0.392122	-0.074787	-0.474772
H100	H	0.301913	-0.134890	-0.543494
O101	O	0.138885	0.000046	-0.509190
C102	C	0.102778	0.074564	-0.693006
C103	C	0.157248	0.074510	-0.575007
H104	H	0.117615	0.134752	-0.746266
H105	H	0.038924	0.074613	-0.664917
H106	H	0.111504	0.014321	-0.755239
H107	H	0.148592	0.134742	-0.512721
H108	H	0.221081	0.074415	-0.603185
H109	H	1.048536	-0.000111	0.368848
O110	O	0.831324	-0.793909	-0.409637
C111	C	0.727187	-0.784360	-0.566059
C112	C	0.787739	-0.734582	-0.475200
H113	H	0.691943	-0.736415	-0.619110
H114	H	0.685657	-0.826749	-0.511200
H115	H	0.759178	-0.826777	-0.635196
H116	H	0.755814	-0.692117	-0.406042
H117	H	0.829266	-0.692247	-0.530140
H118	H	0.868436	-0.000086	0.144713
H119	H	0.523744	-0.000082	-0.434834
