data_functionalizedCrystal
_audit_creation_method	'MofGen! by Chris Wilmer'
_symmetry_space_group_name_H-M	'P1'
_symmetry_Int_Tables_number	1
_symmetry_cell_setting	triclinic
loop_
_symmetry_equiv_pos_as_xyz
  x,y,z
_cell_length_a	19.188930
_cell_length_b	19.188924
_cell_length_c	9.565339
_cell_angle_alpha	89.998167
_cell_angle_beta	89.982583
_cell_angle_gamma	83.143372
loop_
_atom_site_label
_atom_site_type_symbol
_atom_site_fract_x
_atom_site_fract_y
_atom_site_fract_z
O1	O	0.926142	0.087163	-0.116716
O2	O	0.722831	0.098897	-0.116621
O3	O	0.830356	-0.008626	-0.116654
O4	O	0.818617	0.194686	-0.116682
O5	O	0.830348	-0.008619	0.115866
O6	O	0.722822	0.098904	0.115899
O7	O	0.926134	0.087170	0.115804
Zn8	Zn	0.824477	0.093038	0.152770
Zn9	Zn	0.824488	0.093029	-0.153586
O10	O	0.818608	0.194693	0.115838
C11	C	0.696815	0.098521	-0.000348
C12	C	0.619311	0.097380	-0.000311
C13	C	0.574385	0.160471	-0.000342
C14	C	0.501562	0.159399	-0.000357
C15	C	0.473667	0.095233	-0.000370
C16	C	0.518602	0.032134	-0.000332
C17	C	0.591424	0.033207	-0.000302
N18	N	0.365691	0.046183	-0.079556
N19	N	0.296512	0.045168	-0.079587
C20	C	0.254258	0.091995	-0.000455
N21	N	0.283795	0.139886	0.078691
N22	N	0.352979	0.140903	0.078716
C23	C	0.394704	0.094062	-0.000401
C24	C	0.130368	0.153928	-0.000500
C25	C	0.057543	0.152854	-0.000507
C26	C	0.074585	0.025586	-0.000495
C27	C	0.147409	0.026663	-0.000474
C28	C	0.175295	0.090835	-0.000484
C29	C	0.829973	-0.034634	-0.000393
C30	C	0.828834	-0.112138	-0.000389
C31	C	0.828307	-0.148541	-0.127135
C32	C	0.827227	-0.221364	-0.127146
C33	C	0.826688	-0.257783	-0.000402
C34	C	0.827211	-0.221371	0.126362
C35	C	0.828284	-0.148549	0.126368
N36	N	0.864732	-0.377443	0.093913
N37	N	0.863715	-0.446622	0.093898
C38	C	0.823454	-0.477192	-0.000414
N39	N	0.784258	-0.435972	-0.094731
N40	N	0.785279	-0.366788	-0.094720
C41	C	0.825524	-0.336746	-0.000395
C42	C	0.821755	-0.592557	-0.127180
C43	C	0.820671	-0.665381	-0.127185
C44	C	0.820662	-0.665388	0.126326
C45	C	0.821739	-0.592565	0.126327
C46	C	0.822289	-0.556154	-0.000430
C47	C	0.952149	0.087546	-0.000471
C48	C	1.029654	0.088687	-0.000517
C49	C	0.818992	0.220700	-0.000426
C50	C	0.820131	0.298205	-0.000440
N51	N	0.824474	0.093043	0.361849
N52	N	0.824496	0.093018	-0.362665
C53	C	0.774732	0.142753	0.453068
C54	C	0.837784	0.156108	0.546214
C55	C	0.761450	0.079693	0.546257
C56	C	0.887557	0.106430	0.452944
C57	C	0.811182	0.029988	0.452979
C58	C	0.874279	0.043316	0.546083
H59	H	0.464976	0.210777	-0.000378
H60	H	0.916399	0.001265	0.586669
Br61	Br	0.826509	-0.270778	-0.299171
Br62	Br	-0.003430	0.238485	-0.000535
H63	H	0.940876	0.117774	0.412129
H64	H	0.495885	-0.020111	-0.000361
Br65	Br	0.822451	-0.543157	0.298351
H66	H	0.732705	0.184829	0.412226
H67	H	0.820238	-0.695018	-0.230402
H68	H	0.708142	0.068413	0.587248
Br69	Br	0.828996	-0.099141	0.298396
Br70	Br	0.036736	-0.061498	-0.000489
H71	H	0.849041	0.209422	0.587168
H72	H	0.826770	-0.251028	0.229558
H73	H	0.628003	-0.018171	-0.000278
Br74	Br	0.612229	0.247562	-0.000352
H75	H	0.799905	-0.023308	0.411993
Br76	Br	0.208383	-0.058966	-0.000437
H77	H	0.153075	0.206181	-0.000487
H78	H	0.820218	-0.695039	0.229523
H79	H	0.828753	-0.118900	-0.230351
Br80	Br	0.822498	-0.543138	-0.299202
