data_functionalizedCrystal
_audit_creation_method	'MofGen! by Chris Wilmer'
_symmetry_space_group_name_H-M	'P1'
_symmetry_Int_Tables_number	1
_symmetry_cell_setting	triclinic
loop_
_symmetry_equiv_pos_as_xyz
  x,y,z
_cell_length_a	14.519731
_cell_length_b	14.519709
_cell_length_c	11.295483
_cell_angle_alpha	94.101713
_cell_angle_beta	85.886642
_cell_angle_gamma	83.684499
loop_
_atom_site_label
_atom_site_type_symbol
_atom_site_fract_x
_atom_site_fract_y
_atom_site_fract_z
O1	O	1.230057	0.114784	-0.099030
O2	O	0.961583	0.129000	-0.099032
O3	O	1.102938	-0.012345	-0.099020
O4	O	1.088703	0.256130	-0.099042
O5	O	1.090522	0.000051	0.099029
O6	O	0.949168	0.141396	0.099018
O7	O	1.217642	0.127180	0.099020
Cu8	Cu	1.082271	0.135420	0.117102
Cu9	Cu	1.096954	0.120761	-0.117115
O10	O	1.076287	0.268525	0.099008
C11	C	1.096067	-0.040507	0.000005
C12	C	1.094078	-0.142888	0.000005
C13	C	0.921016	0.134532	-0.000007
C14	C	0.818636	0.132536	-0.000008
C15	C	1.086761	-0.517787	-0.000026
C16	C	1.088793	-0.413478	-0.000017
C17	C	1.090419	-0.330341	-0.000009
C18	C	1.092452	-0.226025	-0.000002
C19	C	0.735492	0.130914	-0.000013
C20	C	0.631183	0.128887	-0.000013
C21	C	0.548044	0.127279	-0.000013
C22	C	0.443729	0.125252	-0.000015
C23	C	1.258209	0.121648	-0.000008
C24	C	1.360590	0.123644	-0.000015
C25	C	1.083159	0.296687	-0.000020
C26	C	1.085147	0.399068	-0.000028
N27	N	1.071951	0.145730	0.281838
N28	N	1.107282	0.110443	-0.281850
C29	C	1.181573	0.036176	0.531136
C30	C	1.173781	0.043974	0.655799
C31	C	1.048569	0.169118	0.655829
C32	C	1.056362	0.161320	0.531166
C33	C	1.122867	0.094848	0.468824
C34	C	1.130663	0.087055	0.344159
C35	C	1.005448	0.212195	0.344191
C36	C	0.997655	0.219992	0.468854
H37	H	1.184817	0.032932	0.293401
H38	H	1.221584	-0.003804	0.706531
C39	C	0.975397	0.242210	0.724427
N40	N	0.920277	0.297258	0.776096
C41	C	1.254732	-0.036940	0.462558
N42	N	1.309836	-0.092012	0.410906
C43	C	0.940867	0.276738	0.275637
N44	N	0.892227	0.325352	0.224001
H45	H	0.943506	0.274111	0.519627
