data_functionalizedCrystal
_audit_creation_method	'MofGen! by Chris Wilmer'
_symmetry_space_group_name_H-M	'P1'
_symmetry_Int_Tables_number	1
_symmetry_cell_setting	triclinic
loop_
_symmetry_equiv_pos_as_xyz
  x,y,z
_cell_length_a	11.792254
_cell_length_b	11.792241
_cell_length_c	10.268362
_cell_angle_alpha	89.994572
_cell_angle_beta	90.004525
_cell_angle_gamma	95.803993
loop_
_atom_site_label
_atom_site_type_symbol
_atom_site_fract_x
_atom_site_fract_y
_atom_site_fract_z
O1	O	-1.506900	0.155637	-0.108300
O2	O	-1.176561	0.171655	-0.108303
O3	O	-1.349747	-0.001524	-0.108292
O4	O	-1.333714	0.328816	-0.108310
O5	O	-1.349732	-0.001531	0.108309
O6	O	-1.176546	0.171648	0.108298
O7	O	-1.506885	0.155630	0.108301
Cu8	Cu	-1.341714	0.163638	0.128077
Cu9	Cu	-1.341732	0.163647	-0.128079
O10	O	-1.333699	0.328809	0.108290
C11	C	-1.134263	0.170642	-0.000003
C12	C	-1.008250	0.167622	-0.000003
C13	C	-1.348732	-0.043819	0.000008
C14	C	-1.345718	-0.169832	0.000007
C15	C	-1.340175	-0.400545	-0.000015
C16	C	-1.343255	-0.272160	-0.000003
C17	C	-1.549183	0.156643	-0.000002
C18	C	-1.675196	0.159663	-0.000010
C19	C	-0.905913	0.165168	-0.000009
C20	C	-0.777527	0.162100	-0.000010
C21	C	-1.334714	0.371104	-0.000012
C22	C	-1.337728	0.497118	-0.000020
N23	N	-1.341710	0.163632	0.308243
N24	N	-1.341745	0.163645	-0.308244
C25	C	-1.341726	0.163644	0.573913
C26	C	-1.341713	0.163641	0.426075
