data_functionalizedCrystal
_audit_creation_method	'MofGen! by Chris Wilmer'
_symmetry_space_group_name_H-M	'P1'
_symmetry_Int_Tables_number	1
_symmetry_cell_setting	triclinic
loop_
_symmetry_equiv_pos_as_xyz
  x,y,z
_cell_length_a	11.792241
_cell_length_b	14.519709
_cell_length_c	10.868271
_cell_angle_alpha	90.002362
_cell_angle_beta	90.000490
_cell_angle_gamma	96.063220
loop_
_atom_site_label
_atom_site_type_symbol
_atom_site_fract_x
_atom_site_fract_y
_atom_site_fract_z
O1	O	-1.506208	0.126399	0.102187
O2	O	-1.006208	0.626399	0.602187
O3	O	-1.175795	0.139427	0.102220
O4	O	-0.675795	0.639427	0.602220
O5	O	-1.349762	-0.001293	0.102192
O6	O	-0.849762	0.498707	0.602192
O7	O	-1.332241	0.267119	0.102216
O8	O	-0.832241	0.767119	0.602216
O9	O	-1.349746	-0.001289	-0.102453
O10	O	-0.849746	0.498711	0.397547
O11	O	-1.175779	0.139431	-0.102424
O12	O	-0.675779	0.639431	0.397576
O13	O	-1.506193	0.126404	-0.102457
O14	O	-1.006193	0.626404	0.397543
Zn15	Zn	-1.340983	0.132918	-0.134933
Zn16	Zn	-0.840983	0.632918	0.365067
Zn17	Zn	-1.341004	0.132912	0.134695
Zn18	Zn	-0.841004	0.632912	0.634695
O19	O	-1.332226	0.267124	-0.102429
O20	O	-0.832226	0.767124	0.397571
C21	C	-1.133501	0.138611	-0.000098
C22	C	-0.633501	0.638611	0.499902
C23	C	-1.007501	0.136161	-0.000086
C24	C	-0.507501	0.636161	0.499914
C25	C	-0.776813	0.131657	-0.000119
C26	C	-0.276813	0.631657	0.499881
C27	C	-0.905185	0.134160	-0.000101
C28	C	-0.405185	0.634160	0.499899
C29	C	-1.348938	-0.035654	-0.000131
C30	C	-0.848938	0.464346	0.499869
C31	C	-1.346491	-0.138044	-0.000131
C32	C	-0.846491	0.361956	0.499869
C33	C	-1.337483	-0.512973	-0.000098
C34	C	-0.837483	-0.012973	0.499902
C35	C	-1.339984	-0.408656	-0.000108
C36	C	-0.839984	0.091344	0.499892
C37	C	-1.341987	-0.325512	-0.000116
C38	C	-0.841987	0.174488	0.499884
C39	C	-1.344489	-0.221188	-0.000123
C40	C	-0.844489	0.278812	0.499877
C41	C	-0.548487	0.127220	-0.000133
C42	C	-0.048487	0.627220	0.499867
C43	C	-0.674487	0.129669	-0.000128
C44	C	-0.174487	0.629669	0.499872
C45	C	-1.333050	0.301484	-0.000104
C46	C	-0.833050	0.801484	0.499896
C47	C	-1.335497	0.403875	-0.000095
C48	C	-0.835497	0.903875	0.499905
N49	N	-1.340978	0.132922	-0.318947
N50	N	-0.840978	0.632922	0.181053
C51	C	-1.340986	0.132922	-0.430284
C52	C	-0.840986	0.632922	0.069716
C53	C	-1.341001	0.132914	-0.569962
C54	C	-0.841001	0.632914	-0.069962
N55	N	-1.341019	0.132902	0.318710
N56	N	-0.841019	0.632902	0.818710
