data_functionalizedCrystal
_audit_creation_method	'MofGen! by Chris Wilmer'
_symmetry_space_group_name_H-M	'P1'
_symmetry_Int_Tables_number	1
_symmetry_cell_setting	triclinic
loop_
_symmetry_equiv_pos_as_xyz
  x,y,z
_cell_length_a	14.908783
_cell_length_b	18.101395
_cell_length_c	14.908308
_cell_angle_alpha	93.266316
_cell_angle_beta	89.788727
_cell_angle_gamma	93.322007
loop_
_atom_site_label
_atom_site_type_symbol
_atom_site_fract_x
_atom_site_fract_y
_atom_site_fract_z
Zn1	Zn	1.345256	-0.259024	-0.587829
Zn2	Zn	1.845256	0.240976	-0.087829
Zn3	Zn	1.353810	-0.375350	-0.437469
Zn4	Zn	1.853810	0.124650	0.062531
Zn5	Zn	1.203569	-0.258223	-0.428800
Zn6	Zn	1.703569	0.241777	0.071200
Zn7	Zn	1.194832	-0.389531	-0.579091
Zn8	Zn	1.694832	0.110469	-0.079091
O9	O	1.274367	-0.320532	-0.508297
O10	O	1.774367	0.179468	-0.008297
O11	O	1.472220	-0.268856	-0.575168
O12	O	1.972220	0.231144	-0.075168
O13	O	1.341117	-0.353542	-0.310496
O14	O	1.841117	0.146458	0.189504
O15	O	1.222441	-0.154694	-0.449925
O16	O	1.722441	0.345306	0.050075
O17	O	1.478504	-0.354319	-0.464699
O18	O	1.978504	0.145681	0.035301
O19	O	1.326537	-0.155283	-0.566763
O20	O	1.826537	0.344717	-0.066763
O21	O	1.230735	-0.267490	-0.304127
O22	O	1.730735	0.232510	0.195873
O23	O	1.076581	-0.281241	-0.441452
O24	O	1.576581	0.218759	0.058548
O25	O	1.207550	-0.378489	-0.706073
O26	O	1.707550	0.121511	-0.206073
O27	O	1.070162	-0.377712	-0.551869
O28	O	1.570162	0.122288	-0.051869
O29	O	1.318065	-0.282607	-0.712493
O30	O	1.818065	0.217393	-0.212493
O31	O	1.332645	-0.480866	-0.456226
O32	O	1.832645	0.019134	0.043774
O33	O	1.215845	-0.491285	-0.560275
O34	O	1.715845	0.008715	-0.060275
C35	C	1.040746	-0.330929	-0.494772
C36	C	1.540746	0.169071	0.005228
C37	C	0.940800	-0.335395	-0.489007
C38	C	1.440800	0.164605	0.010993
C39	C	1.274248	-0.512947	-0.508264
C40	C	1.774248	-0.012947	-0.008264
C41	C	1.274278	-0.595260	-0.508284
C42	C	1.774278	-0.095260	-0.008284
C43	C	0.746436	-0.254934	-0.593382
C44	C	1.246436	0.245066	-0.093382
C45	C	0.652528	-0.259128	-0.587968
C46	C	1.152528	0.240872	-0.087968
C47	C	0.659075	-0.347974	-0.472763
C48	C	1.159075	0.152026	0.027237
C49	C	0.752983	-0.343780	-0.478176
C50	C	1.252983	0.156220	0.021824
C51	C	0.796660	-0.297259	-0.538489
C52	C	1.296660	0.202741	-0.038489
C53	C	0.890569	-0.293069	-0.543906
C54	C	1.390569	0.206931	-0.043906
C55	C	0.897115	-0.381910	-0.428697
C56	C	1.397115	0.118090	0.071303
C57	C	0.803207	-0.386105	-0.423283
C58	C	1.303207	0.113895	0.076717
C59	C	1.274472	-0.894345	-0.508344
C60	C	1.774472	-0.394345	-0.008344
C61	C	1.201136	-0.869607	-0.573991
C62	C	1.701136	-0.369607	-0.073991
C63	C	1.200819	-0.783993	-0.573754
C64	C	1.700819	-0.283993	-0.073754
C65	C	1.274376	-0.745965	-0.508315
C66	C	1.774376	-0.245965	-0.008315
C67	C	1.254192	-0.773515	-0.412072
C68	C	1.754192	-0.273515	0.087928
C69	C	1.253721	-0.859201	-0.412463
C70	C	1.753721	-0.359201	0.087537
C71	C	1.368192	-0.859665	-0.538115
C72	C	1.868192	-0.359665	-0.038115
C73	C	1.367513	-0.774143	-0.540161
C74	C	1.867513	-0.274143	-0.040161
C75	C	1.274323	-0.662107	-0.508293
C76	C	1.774323	-0.162107	-0.008293
C77	C	1.274523	-0.978203	-0.508360
C78	C	1.774523	-0.478203	-0.008360
C79	C	1.508900	-0.310095	-0.521876
C80	C	2.008900	0.189905	-0.021876
C81	C	1.608844	-0.305648	-0.527662
C82	C	2.108844	0.194352	-0.027662
C83	C	1.260879	-0.332219	-0.742820
C84	C	1.760879	0.167781	-0.242820
C85	C	1.255131	-0.337199	-0.842759
C86	C	1.755131	0.162801	-0.342759
C87	C	1.274509	-0.127366	-0.508352
C88	C	1.774509	0.372634	-0.008352
C89	C	1.274570	-0.045050	-0.508375
C90	C	1.774570	0.454950	-0.008375
C91	C	1.359408	-0.246699	-1.037243
C92	C	1.859408	0.253301	-0.537243
C93	C	1.354010	-0.251375	-1.131145
C94	C	1.854010	0.248625	-0.631145
C95	C	1.238934	-0.351226	-1.124468
C96	C	1.738934	0.148774	-0.624468
C97	C	1.244332	-0.346549	-1.030565
C98	C	1.744332	0.153451	-0.530565
C99	C	1.304572	-0.294284	-0.986957
C100	C	1.804572	0.205716	-0.486957
C101	C	1.309973	-0.289612	-0.893053
C102	C	1.809973	0.210388	-0.393053
C103	C	1.194893	-0.389458	-0.886376
C104	C	1.694893	0.110542	-0.386376
C105	C	1.189496	-0.394135	-0.980279
C106	C	1.689496	0.105865	-0.480279
C107	C	1.287854	-0.308835	-0.274690
C108	C	1.787854	0.191165	0.225310
C109	C	1.293776	-0.303638	-0.174761
C110	C	1.793776	0.196362	0.325239
H111	H	0.926129	-0.255190	-0.593017
H112	H	1.426129	0.244810	-0.093017
C113	C	1.107703	-0.901904	-0.547071
C114	C	1.607703	-0.401904	-0.047071
H115	H	1.113192	-0.930396	-0.495997
H116	H	1.613192	-0.430396	0.004003
H117	H	1.082738	-0.932624	-0.595553
H118	H	1.582738	-0.432624	-0.095553
H119	H	1.069539	-0.862609	-0.533035
H120	H	1.569539	-0.362609	-0.033035
C121	C	0.794487	-0.203771	-0.659725
C122	C	1.294487	0.296229	-0.159725
H123	H	0.857608	-0.207339	-0.655091
H124	H	1.357608	0.292661	-0.155091
H125	H	0.779872	-0.154031	-0.645791
H126	H	1.279872	0.345969	-0.145791
H127	H	0.775633	-0.218390	-0.719230
H128	H	1.275633	0.281610	-0.219230
H129	H	1.398661	-0.212624	-1.172085
H130	H	1.898661	0.287376	-0.672085
C131	C	0.952359	-0.428471	-0.368310
C132	C	1.452359	0.071529	0.131690
H133	H	0.912894	-0.456780	-0.331622
H134	H	1.412894	0.043220	0.168378
H135	H	0.991252	-0.396511	-0.331305
H136	H	1.491252	0.103489	0.168695
H137	H	0.987004	-0.460860	-0.404758
H138	H	1.487004	0.039140	0.095242
H139	H	1.131241	-0.765907	-0.553600
H140	H	1.631241	-0.265907	-0.053600
H141	H	1.422763	-0.875073	-0.490369
H142	H	1.922763	-0.375073	0.009631
H143	H	1.212813	-0.765732	-0.644945
H144	H	1.712813	-0.265732	-0.144945
H145	H	0.623498	-0.385840	-0.423650
H146	H	1.123498	0.114160	0.076350
H147	H	1.408462	-0.204146	-1.001737
H148	H	1.908462	0.295854	-0.501737
C149	C	1.172669	-0.408703	-1.172447
C150	C	1.672669	0.091297	-0.672447
H151	H	1.177311	-0.404671	-1.235574
H152	H	1.677311	0.095329	-0.735574
H153	H	1.113148	-0.399787	-1.153561
H154	H	1.613148	0.100213	-0.653561
H155	H	1.186679	-0.457116	-1.157818
H156	H	1.686679	0.042884	-0.657818
C157	C	0.597284	-0.212576	-0.648356
C158	C	1.097284	0.287424	-0.148356
H159	H	0.636749	-0.184275	-0.685054
H160	H	1.136749	0.315725	-0.185054
H161	H	0.562630	-0.180191	-0.611920
H162	H	1.062630	0.319809	-0.111920
H163	H	0.558399	-0.244546	-0.685366
H164	H	1.058399	0.255454	-0.185366
H165	H	1.140448	-0.436685	-1.015798
H166	H	1.640448	0.063315	-0.515798
C167	C	1.134562	-0.441800	-0.831063
C168	C	1.634562	0.058200	-0.331063
H169	H	1.097917	-0.473597	-0.870487
H170	H	1.597917	0.026403	-0.370487
H171	H	1.097511	-0.413389	-0.792171
H172	H	1.597511	0.086611	-0.292171
H173	H	1.171044	-0.470717	-0.796416
H174	H	1.671044	0.029283	-0.296416
C175	C	0.755158	-0.437276	-0.356949
C176	C	1.255158	0.062724	0.143051
H177	H	0.692036	-0.433717	-0.361590
H178	H	1.192036	0.066283	0.138410
H179	H	0.774012	-0.422673	-0.297444
H180	H	1.274012	0.077327	0.202556
H181	H	0.769773	-0.487017	-0.370903
H182	H	1.269773	0.012983	0.129097
H183	H	1.212958	-0.892976	-0.645400
H184	H	1.712958	-0.392976	-0.145400
H185	H	1.185375	-0.881313	-0.387882
H186	H	1.685375	-0.381313	0.112118
H187	H	1.305115	-0.875079	-0.361588
H188	H	1.805115	-0.375079	0.138412
H189	H	1.306167	-0.748296	-0.361587
H190	H	1.806167	-0.248296	0.138413
H191	H	1.186603	-0.754148	-0.387165
H192	H	1.686603	-0.254148	0.112835
H193	H	1.387661	-0.883571	-0.607389
H194	H	1.887661	-0.383571	-0.107389
H195	H	1.382833	-0.756409	-0.611018
H196	H	1.882833	-0.256409	-0.111018
H197	H	1.424604	-0.747951	-0.496270
H198	H	1.924604	-0.247951	0.003730
H199	H	1.359025	-0.247056	-0.857548
H200	H	1.859025	0.252944	-0.357548
