data_functionalizedCrystal
_audit_creation_method	'MofGen! by Chris Wilmer'
_symmetry_space_group_name_H-M	'P1'
_symmetry_Int_Tables_number	1
_symmetry_cell_setting	triclinic
loop_
_symmetry_equiv_pos_as_xyz
  x,y,z
_cell_length_a	14.519709
_cell_length_b	7.681187
_cell_length_c	14.519709
_cell_angle_alpha	84.259711
_cell_angle_beta	83.680145
_cell_angle_gamma	95.736717
loop_
_atom_site_label
_atom_site_type_symbol
_atom_site_fract_x
_atom_site_fract_y
_atom_site_fract_z
O1	O	1.232558	0.146207	0.112191
O2	O	0.964084	0.146261	0.126424
O3	O	1.105438	0.146217	-0.014930
O4	O	1.091204	0.146251	0.253545
O5	O	1.088018	-0.146648	0.002493
O6	O	0.946664	-0.146604	0.143847
O7	O	1.215138	-0.146658	0.129614
Zn8	Zn	1.078135	-0.193129	0.139497
Zn9	Zn	1.101087	0.192733	0.116541
O10	O	1.073784	-0.146614	0.270968
C11	C	0.921015	-0.000164	0.134472
C12	C	0.818635	-0.000144	0.132482
N13	N	1.062478	-0.456470	0.155163
C14	C	1.096065	-0.000216	-0.040578
C15	C	1.094077	-0.000216	-0.142959
C16	C	0.443734	-0.000225	0.125168
C17	C	0.548044	-0.000202	0.127199
C18	C	0.631181	-0.000183	0.128825
C19	C	0.735497	-0.000163	0.130857
C20	C	1.258208	-0.000228	0.121566
C21	C	1.360588	-0.000237	0.123555
N22	N	1.116752	0.456073	0.100868
C23	C	1.086760	-0.000169	-0.517858
C24	C	1.088792	-0.000183	-0.413549
C25	C	1.090418	-0.000194	-0.330412
C26	C	1.092450	-0.000205	-0.226097
C27	C	1.083158	-0.000177	0.296616
C28	C	1.085147	-0.000165	0.398997
H29	H	1.172129	-0.468698	0.045450
H30	H	1.007098	-0.531689	0.210571
