data_functionalizedCrystal
_audit_creation_method	'MofGen! by Chris Wilmer'
_symmetry_space_group_name_H-M	'P1'
_symmetry_Int_Tables_number	1
_symmetry_cell_setting	triclinic
loop_
_symmetry_equiv_pos_as_xyz
  x,y,z
_cell_length_a	17.917603
_cell_length_b	14.560438
_cell_length_c	14.560438
_cell_angle_alpha	59.999496
_cell_angle_beta	90.001010
_cell_angle_gamma	57.008925
loop_
_atom_site_label
_atom_site_type_symbol
_atom_site_fract_x
_atom_site_fract_y
_atom_site_fract_z
Zr1	Zr	0.754850	0.920794	-0.078297
O2	O	0.629713	1.126423	-0.231963
O3	O	0.793220	0.724882	-0.031183
O4	O	0.793207	0.916495	-0.222795
O5	O	0.629726	0.934813	0.110787
O6	O	0.922165	0.902050	-0.215572
O7	O	0.629725	0.934810	-0.040351
O8	O	0.922187	0.559290	0.127187
O9	O	0.629703	1.277573	-0.231972
O10	O	0.905814	0.791084	-0.005708
O11	O	0.809574	0.801866	0.101694
O12	O	0.809560	1.027466	-0.123904
O13	O	0.713320	1.038248	-0.016502
Zr14	Zr	0.960525	0.897760	0.174271
Zr15	Zr	0.960523	0.897756	-0.066777
Zr16	Zr	0.754851	0.920798	0.162751
Zr17	Zr	0.754836	1.161861	-0.078311
Zr18	Zr	0.960539	0.656693	0.174285
O19	O	0.922155	1.093672	0.127157
O20	O	0.922154	1.093666	-0.215583
O21	O	0.629714	1.126429	0.110776
O22	O	1.085662	0.692131	0.327937
O23	O	1.085660	0.692125	-0.014803
O24	O	0.793221	0.724888	0.311556
O25	O	1.085649	0.883741	-0.014814
O26	O	0.922168	0.902059	0.318769
O27	O	0.793209	0.916504	0.311545
O28	O	1.085650	0.883744	0.136325
O29	O	0.793186	1.259261	-0.222815
O30	O	0.922188	0.559293	0.318788
O31	O	1.085671	0.540981	0.327945
O32	O	1.085670	0.540978	0.136344
O33	O	0.629704	1.277576	-0.040371
O34	O	0.793187	1.259264	-0.031214
O35	O	0.905815	0.791088	0.219878
O36	O	1.002054	0.780306	0.112476
O37	O	0.905800	1.016687	-0.005721
O38	O	0.809561	1.027469	0.101681
C39	C	0.600421	0.938094	0.033577
C40	C	0.513108	0.947874	0.028686
C41	C	0.857689	0.909282	0.349501
C42	C	0.857689	0.909283	0.451832
C43	C	0.857669	1.210815	0.047969
C44	C	0.857663	1.313154	0.047964
C45	C	0.353262	0.965739	0.019754
C46	C	0.362105	0.852821	0.076216
C47	C	0.273162	0.862761	0.071247
C48	C	0.442212	0.955801	0.024723
C49	C	1.114953	0.880460	0.062397
C50	C	1.202267	0.870680	0.067288
C51	C	0.857706	0.607739	0.048004
C52	C	0.857712	0.505400	0.048010
C53	C	0.807436	1.366849	0.104035
C54	C	0.807463	1.462969	0.104062
C55	C	0.907945	1.451695	-0.008063
C56	C	0.907923	1.355569	-0.008082
C57	C	0.857686	0.909272	-0.253528
C58	C	0.857686	0.909270	-0.355859
C59	C	0.807447	1.032670	0.438214
C60	C	0.807442	1.032664	0.534368
C61	C	0.907929	0.785875	0.657758
C62	C	0.907928	0.785882	0.561604
C63	C	1.114971	0.578922	0.062414
C64	C	1.202291	0.466803	0.067311
C65	C	0.857707	0.607744	0.349519
C66	C	0.857714	0.505406	0.451856
C67	C	1.114973	0.578927	0.363929
C68	C	1.202293	0.466809	0.471157
C69	C	0.600402	1.239627	-0.267955
C70	C	0.513081	1.351744	-0.375183
C71	C	0.600403	1.239632	0.033559
C72	C	0.513083	1.351751	0.028663
C73	C	0.857668	1.210810	-0.253545
C74	C	0.857661	1.313147	-0.355882
C75	C	1.193061	0.419776	0.007910
C76	C	1.275100	0.314443	0.012487
C77	C	1.366367	0.256130	0.076474
C78	C	1.375596	0.303166	0.135877
C79	C	1.293558	0.408505	0.131291
C80	C	1.293544	0.408529	0.465449
C81	C	1.375599	0.303195	0.566193
C82	C	1.366400	0.256137	0.672642
C83	C	1.275140	0.314428	0.678346
C84	C	1.193087	0.419767	0.577604
C85	C	0.421830	1.410037	-0.369476
C86	C	0.339776	1.515401	-0.470219
C87	C	0.348974	1.562463	-0.576668
C88	C	0.440235	1.504166	-0.582372
C89	C	0.522288	1.398811	-0.481630
C90	C	0.522313	1.398787	0.088054
C91	C	0.440275	1.504148	0.083449
C92	C	0.349007	1.562463	0.019460
C93	C	0.339779	1.515423	-0.039938
C94	C	0.421816	1.410071	-0.035340
C95	C	0.907952	0.451700	0.561624
C96	C	0.907948	0.355553	0.657777
C97	C	0.807464	0.366824	0.534378
C98	C	0.807464	0.462976	0.438228
H99	H	0.436474	0.748684	0.128287
H100	H	0.948834	0.685406	0.747143
H101	H	0.948829	1.311844	-0.053742
H102	H	0.278899	1.069867	-0.032313
H103	H	1.267664	0.276098	0.765030
H104	H	0.414288	1.371778	-0.083701
H105	H	1.118789	0.467206	0.582266
H106	H	0.414322	1.371725	-0.282809
H107	H	0.766549	0.506709	0.348842
H108	H	0.265475	1.562849	-0.465552
C109	C	0.963215	0.296474	0.778519
H110	H	0.993145	0.335511	0.772859
H111	H	0.919854	0.317095	0.816046
H112	H	1.010760	0.200361	0.821138
C113	C	0.752161	1.320181	0.165690
H114	H	0.759332	1.255251	0.157640
H115	H	0.776975	1.279873	0.244545
H116	H	0.686064	1.396637	0.132903
H117	H	0.766563	1.506683	0.149722
H118	H	0.948864	1.486241	-0.053696
C119	C	0.752175	1.168406	0.317471
H120	H	0.722244	1.241889	0.323135
H121	H	0.795531	1.168456	0.279937
H122	H	0.704630	1.178625	0.274854
H123	H	0.766528	1.133138	0.523269
H124	H	0.447808	1.542430	0.131824
C125	C	0.752199	0.320144	0.519389
H126	H	0.722270	0.365913	0.440241
H127	H	0.795561	0.224506	0.556881
H128	H	0.704653	0.341242	0.551783
H129	H	0.948841	0.685401	0.572702
C130	C	0.450341	1.555935	-0.699470
H131	H	0.388400	1.627017	-0.758642
H132	H	0.484426	1.589633	-0.706018
H133	H	0.484419	1.483085	-0.705998
C134	C	1.456661	0.140269	0.783451
H135	H	1.438120	0.120590	0.847672
H136	H	1.493782	0.061092	0.785534
H137	H	1.493760	0.167659	0.785515
C138	C	1.092675	0.483910	-0.062482
H139	H	1.045129	0.553377	-0.056707
H140	H	1.085478	0.522232	-0.140347
H141	H	1.085485	0.415678	-0.033804
C142	C	1.264932	0.262709	-0.052845
H143	H	1.198825	0.312512	-0.091589
H144	H	1.294830	0.275123	-0.106902
H145	H	1.294854	0.168570	-0.000338
C146	C	1.456600	0.140250	0.081519
H147	H	1.438023	0.120592	0.036985
H148	H	1.493721	0.167592	0.052075
H149	H	1.493715	0.061058	0.158619
H150	H	1.449917	0.255673	0.187972
C151	C	1.303718	0.460227	0.196636
H152	H	1.241794	0.531322	0.184742
H153	H	1.337819	0.387369	0.276006
H154	H	1.337803	0.493923	0.169453
C155	C	1.303682	0.460277	0.348369
H156	H	1.369785	0.410480	0.359415
H157	H	1.273774	0.447864	0.306735
H158	H	1.273758	0.554417	0.306736
C159	C	1.475973	0.239081	0.559897
H160	H	1.469692	0.282182	0.482070
H161	H	1.510073	0.251027	0.596849
H162	H	1.510071	0.144474	0.596874
C163	C	0.239384	1.579565	-0.110314
H164	H	0.245626	1.536475	-0.145037
H165	H	0.205304	1.567624	-0.061389
H166	H	0.205289	1.674172	-0.167947
C167	C	0.258711	1.678335	-0.687474
H168	H	0.203051	1.706292	-0.668820
H169	H	0.258684	1.753374	-0.730991
H170	H	0.258704	1.646803	-0.730962
H171	H	0.596621	1.351314	0.140169
C172	C	0.622661	1.334649	-0.487916
H173	H	0.670219	1.265155	-0.412678
H174	H	0.629815	1.296355	-0.527472
H175	H	0.629876	1.402854	-0.527468
H176	H	0.282215	1.648247	0.015725
H177	H	0.948865	0.486249	0.572727
