data_functionalizedCrystal
_audit_creation_method	'MofGen! by Chris Wilmer'
_symmetry_space_group_name_H-M	'P1'
_symmetry_Int_Tables_number	1
_symmetry_cell_setting	triclinic
loop_
_symmetry_equiv_pos_as_xyz
  x,y,z
_cell_length_a	19.902436
_cell_length_b	20.875641
_cell_length_c	20.875641
_cell_angle_alpha	89.846015
_cell_angle_beta	57.592218
_cell_angle_gamma	57.585360
loop_
_atom_site_label
_atom_site_type_symbol
_atom_site_fract_x
_atom_site_fract_y
_atom_site_fract_z
Zr1	Zr	0.691206	-0.063117	0.639085
O2	O	0.848382	-0.173664	0.528552
O3	O	0.545815	-0.029219	0.672968
O4	O	0.697099	-0.168353	0.667669
O5	O	0.688340	0.075210	0.538033
O6	O	0.688341	-0.164174	0.777408
O7	O	0.697098	-0.034531	0.533851
O8	O	0.417721	0.084711	0.786887
O9	O	0.958959	-0.173675	0.528554
O10	O	0.594715	-0.011655	0.769318
O11	O	0.594715	0.067125	0.690541
O12	O	0.772832	-0.096687	0.684302
O13	O	0.772832	-0.017908	0.605526
Zr14	Zr	0.663269	0.118571	0.820777
Zr15	Zr	0.677238	-0.056452	0.814107
Zr16	Zr	0.677237	0.111906	0.645755
Zr17	Zr	0.867563	-0.063134	0.639088
Zr18	Zr	0.486912	0.118588	0.820774
O19	O	0.808660	0.084674	0.786894
O20	O	0.828522	-0.164187	0.777411
O21	O	0.828521	0.075196	0.538036
O22	O	0.506093	0.229119	0.931310
O23	O	0.525954	-0.019742	0.921826
O24	O	0.525954	0.219641	0.682451
O25	O	0.666135	-0.019756	0.921829
O26	O	0.657377	0.223807	0.792193
O27	O	0.666134	0.219628	0.682454
O28	O	0.657377	0.089985	0.926011
O29	O	0.947857	-0.168377	0.667673
O30	O	0.406618	0.223831	0.792189
O31	O	0.395516	0.229129	0.931308
O32	O	0.406619	0.090009	0.926006
O33	O	0.947856	-0.034555	0.533855
O34	O	0.936754	-0.029257	0.672974
O35	O	0.581643	0.152141	0.775560
O36	O	0.581643	0.073362	0.854336
O37	O	0.759760	-0.011670	0.769321
O38	O	0.759760	0.067109	0.690544
C39	C	0.456641	0.027748	0.729927
C40	C	0.381772	0.027755	0.729926
C41	C	0.694709	0.019390	0.511005
C42	C	0.700639	0.016560	0.436704
C43	C	0.659765	0.246655	0.738274
C44	C	0.653835	0.320957	0.741105
C45	C	0.109765	0.027717	0.729933
C46	C	0.137963	0.077672	0.680498
C47	C	0.216121	0.077448	0.680212
C48	C	0.244710	0.027737	0.729929
C49	C	0.290384	-0.062697	0.688860
C50	C	0.212555	-0.062438	0.688484
C51	C	0.065235	0.067483	0.820434
C52	C	0.142153	0.069290	0.820373
C53	C	0.320979	0.027743	0.729928
C54	C	0.033502	0.027705	0.729931
C55	C	0.897834	0.027706	0.729935
C56	C	0.972703	0.027699	0.729936
C57	C	0.694710	-0.191201	0.721588
C58	C	0.700640	-0.265503	0.718757
C59	C	0.744022	0.311480	0.698060
C60	C	0.738445	0.381297	0.700717
C61	C	0.642679	0.460591	0.746425
C62	C	0.552486	0.470066	0.789471
C63	C	0.558064	0.400249	0.786809
C64	C	0.616025	0.674156	0.759141
C65	C	0.610453	0.743974	0.761802
C66	C	0.796413	0.655200	0.673046
C67	C	0.801983	0.585387	0.670392
C68	C	0.711790	0.594867	0.713435
N69	N	0.636976	0.531956	0.749144
N70	N	0.717495	0.523502	0.710711
C71	C	0.610452	0.059613	0.446172
C72	C	0.616030	0.056952	0.376355
C73	C	0.711796	0.011234	0.297071
C74	C	0.801989	-0.031820	0.287604
C75	C	0.796410	-0.029154	0.357421
C76	C	0.738451	-0.001494	0.083508
C77	C	0.744023	-0.004159	0.013690
C78	C	0.558063	0.084615	0.102446
C79	C	0.552493	0.087273	0.172259
C80	C	0.642686	0.044223	0.162787
N81	N	0.717499	0.008511	0.225705
N82	N	0.636981	0.046951	0.234152
C83	C	0.659766	0.036064	0.948857
C84	C	0.653836	0.038894	1.023158
C85	C	0.439169	0.036085	0.948853
C86	C	0.358371	0.038922	1.023153
C87	C	0.439169	0.246676	0.738270
C88	C	0.358370	0.320985	0.741100
C89	C	0.421697	0.255013	0.957196
C90	C	0.334969	0.332152	1.034327
C91	C	0.932778	-0.199559	0.502666
C92	C	1.019506	-0.276698	0.425535
C93	C	0.915306	0.019369	0.511009
C94	C	0.996104	0.016532	0.436709
C95	C	0.915307	-0.191222	0.721592
C96	C	0.996105	-0.265531	0.718762
C97	C	0.327251	-0.004131	1.013666
C98	C	0.251344	-0.001482	1.083472
C99	C	0.206553	0.044225	1.162763
C100	C	0.237680	0.087279	1.172249
C101	C	0.313591	0.084625	1.102444
C102	C	0.313602	0.400267	0.786808
C103	C	0.237693	0.470094	0.789465
C104	C	0.206548	0.460639	0.746417
C105	C	0.251324	0.381349	0.700704
C106	C	0.327237	0.311523	0.698043
C107	C	0.294240	0.327255	1.111677
C108	C	0.212759	0.399729	1.184157
C109	C	0.172004	0.477098	1.179285
C110	C	0.212741	0.481993	1.101927
C111	C	0.294225	0.409520	1.029449
C112	C	1.060244	-0.271801	0.348185
C113	C	1.141746	-0.344275	0.275705
C114	C	1.182505	-0.421644	0.280577
C115	C	1.141764	-0.426539	0.357935
C116	C	1.060268	-0.354066	0.430413
C117	C	1.027232	0.059578	0.446196
C118	C	1.103160	0.056910	0.376389
C119	C	1.147953	0.011200	0.297097
C120	C	1.116823	-0.031851	0.287612
C121	C	1.040902	-0.029187	0.357418
C122	C	1.027225	-0.256049	0.761818
C123	C	1.103132	-0.325863	0.759175
C124	C	1.147924	-0.405158	0.713470
C125	C	1.116797	-0.414639	0.670412
C126	C	1.040886	-0.344825	0.673061
H127	H	0.182228	0.143946	0.707982
C128	C	1.015451	-0.359460	0.515496
C129	C	0.925805	-0.279753	0.595230
C130	C	0.880994	-0.285155	0.680312
C131	C	0.925829	-0.370263	0.685660
C132	C	1.015481	-0.449976	0.605924
C133	C	1.060292	-0.444574	0.520842
H134	H	0.892610	-0.216746	0.591273
H135	H	0.814627	-0.226146	0.739338
H136	H	0.892657	-0.374262	0.748643
H137	H	1.048675	-0.512984	0.609881
H138	H	1.126658	-0.503584	0.461816
C139	C	1.006654	-0.076530	0.346974
C140	C	1.055925	-0.126798	0.259752
C141	C	1.021680	-0.174142	0.249302
C142	C	0.938165	-0.171218	0.326074
C143	C	0.888890	-0.120947	0.413302
C144	C	0.923134	-0.073603	0.423753
H145	H	1.117752	-0.128965	0.202916
H146	H	1.058158	-0.211356	0.184729
H147	H	0.912816	-0.206265	0.318338
H148	H	0.827062	-0.118781	0.470139
H149	H	0.886656	-0.036390	0.488325
C150	C	0.123043	0.047146	1.239545
C151	C	0.088813	-0.000209	1.229100
C152	C	0.005301	0.002712	1.305878
C153	C	-0.043981	0.052989	1.393101
C154	C	-0.009752	0.100348	1.403550
C155	C	0.073761	0.097427	1.326772
H156	H	0.125295	-0.037431	1.164528
H157	H	-0.020038	-0.032347	1.298142
H158	H	-0.105802	0.055151	1.449937
H159	H	-0.046234	0.137569	1.468122
H160	H	0.099100	0.132486	1.334508
H161	H	0.201200	0.124493	1.236817
H162	H	0.179546	0.544996	1.097973
H163	H	0.990765	0.096805	0.510753
C164	C	1.137384	0.104277	0.386835
C165	C	1.125074	0.172248	0.353241
C166	C	1.159294	0.219616	0.363688
C167	C	1.205825	0.199012	0.407730
C168	C	1.218137	0.131037	0.441327
C169	C	1.183917	0.083670	0.430880
H170	H	1.090627	0.187503	0.320636
H171	H	1.150180	0.269936	0.338817
H172	H	1.231157	0.234077	0.415464
H173	H	1.252584	0.115782	0.473932
H174	H	1.193031	0.033350	0.455751
H175	H	0.338917	0.119689	1.110180
C176	C	0.217052	0.370959	0.653358
C177	C	0.104098	0.408974	0.700589
C178	C	0.069818	0.398588	0.653249
C179	C	0.148491	0.350189	0.558677
C180	C	0.261452	0.312171	0.511440
C181	C	0.295732	0.322557	0.558781
H182	H	0.045853	0.444805	0.770602
H183	H	-0.013803	0.426732	0.688217
H184	H	0.123115	0.342501	0.523633
H185	H	0.319697	0.276340	0.441428
H186	H	0.379353	0.294413	0.523813
H187	H	1.128467	-0.318128	0.794237
C188	C	1.231460	0.008282	0.220316
C189	C	1.265686	0.055642	0.230761
C190	C	1.349188	0.052730	0.153984
C191	C	1.398464	0.002458	0.066760
C192	C	1.364239	-0.044905	0.056311
C193	C	1.280737	-0.041994	0.133089
H194	H	1.229208	0.092859	0.295332
H195	H	1.374523	0.087792	0.161719
H196	H	1.460277	0.000303	0.009925
H197	H	1.400717	-0.082123	-0.008260
H198	H	1.255402	-0.077056	0.125353
H199	H	0.226011	-0.036543	1.075732
C200	C	1.186600	-0.511650	0.363283
C201	C	1.117376	-0.535619	0.407151
C202	C	1.162210	-0.620733	0.412496
C203	C	1.276268	-0.681878	0.373972
C204	C	1.345499	-0.657910	0.330101
C205	C	1.300665	-0.572796	0.324757
H206	H	1.032937	-0.490355	0.435671
H207	H	1.110960	-0.638475	0.444972
H208	H	1.309457	-0.744884	0.377929
H209	H	1.429938	-0.703174	0.301581
H210	H	1.351915	-0.555053	0.292280
H211	H	0.066207	0.144330	0.708141
H212	H	0.338951	0.407981	0.821863
H213	H	0.144734	0.517503	0.748591
H214	H	1.248864	-0.480650	0.221554
C215	C	0.907337	-0.082120	0.200394
C216	C	0.978690	-0.060789	0.175569
C217	C	1.084043	-0.111097	0.088361
C218	C	1.118043	-0.182737	0.025977
C219	C	1.046690	-0.204072	0.050801
C220	C	0.941337	-0.153764	0.138009
H221	H	0.953521	-0.007753	0.221751
H222	H	1.136863	-0.095303	0.069985
H223	H	1.196032	-0.219978	-0.038580
H224	H	1.071858	-0.257107	0.004620
H225	H	0.888517	-0.169558	0.156385
H226	H	0.822011	-0.041392	-0.050869
C227	C	0.977956	-0.168829	0.812106
C228	C	1.012192	-0.158416	0.859472
C229	C	0.962922	-0.071199	0.909768
C230	C	0.879416	0.005606	0.912697
C231	C	0.845176	-0.004804	0.865329
C232	C	0.894446	-0.092022	0.815033
H233	H	1.074011	-0.215274	0.857306
H234	H	0.988269	-0.063493	0.944834
H235	H	0.842944	0.070169	0.949929
H236	H	0.783357	0.052053	0.867496
H237	H	0.869099	-0.099728	0.779968
C238	C	1.231433	-0.481950	0.710556
C239	C	1.265663	-0.471510	0.757916
C240	C	1.349175	-0.548297	0.755003
C241	C	1.398457	-0.635524	0.704729
C242	C	1.364227	-0.645968	0.657365
C243	C	1.280716	-0.569181	0.660279
H244	H	1.229182	-0.406935	0.795135
H245	H	1.374513	-0.540565	0.790065
H246	H	1.460277	-0.692367	0.702572
H247	H	1.400709	-0.710542	0.620146
H248	H	1.255377	-0.576912	0.625216
C249	C	0.376469	0.224314	0.647768
C250	C	0.342198	0.213923	0.600425
C251	C	0.391427	0.126716	0.550146
C252	C	0.474928	0.049898	0.547210
C253	C	0.509204	0.060286	0.594555
C254	C	0.459974	0.147494	0.644834
H255	H	0.280382	0.270791	0.602596
H256	H	0.366054	0.119026	0.515098
H257	H	0.511370	-0.014658	0.509990
H258	H	0.571020	0.003419	0.592383
H259	H	0.485348	0.155183	0.679881
C260	C	0.458855	0.131976	0.112862
C261	C	0.464981	0.129051	0.036072
C262	C	0.365768	0.176417	0.046492
C263	C	0.260428	0.226708	0.133701
C264	C	0.254298	0.229635	0.210498
C265	C	0.353511	0.182268	0.200078
H266	H	0.542963	0.091821	-0.028491
H267	H	0.370306	0.174250	-0.010359
H268	H	0.186984	0.261771	0.141415
H269	H	0.176315	0.266865	0.275061
H270	H	0.348972	0.184435	0.256928
C271	C	1.186541	-0.338877	0.190620
C272	C	1.233335	-0.294964	0.166676
C273	C	1.278125	-0.289564	0.081594
C274	C	1.276121	-0.328077	0.020455
C275	C	1.229326	-0.371993	0.044397
C276	C	1.184536	-0.377393	0.129479
H277	H	1.234819	-0.266452	0.211936
H278	H	1.312766	-0.257054	0.063871
H279	H	1.309278	-0.324079	-0.042528
H280	H	1.227841	-0.400505	-0.000863
H281	H	1.149895	-0.409903	0.147202
H282	H	0.879965	0.520826	0.633173
H283	H	0.105655	0.536104	1.238307
H284	H	0.171133	0.050179	0.614199
H285	H	0.363721	-0.041361	0.949108
H286	H	0.811893	-0.036563	0.075784
H287	H	0.287839	0.049727	0.613517
H288	H	0.311652	-0.101693	0.722971
H289	H	0.811885	0.373574	0.665666
H290	H	0.249655	-0.094053	0.621798
H291	H	0.197066	-0.101885	0.721958
H292	H	0.327411	0.264264	1.115659
C293	C	0.188443	0.557307	0.839758
C294	C	0.222695	0.567700	0.887119
C295	C	0.173447	0.654909	0.937412
C296	C	0.089949	0.731725	0.940345
C297	C	0.055693	0.721334	0.892983
C298	C	0.104940	0.634125	0.842689
H299	H	0.284509	0.510834	0.884949
H300	H	0.198806	0.662600	0.972473
H301	H	0.053493	0.796283	0.977575
H302	H	-0.006122	0.778201	0.895152
H303	H	0.079582	0.626434	0.807629
H304	H	0.179600	0.395729	1.247138
H305	H	0.364911	-0.094489	0.622794
H306	H	-0.010475	0.133211	0.854373
C307	C	0.505104	0.831202	0.812086
C308	C	0.405893	0.841633	0.859435
C309	C	0.300550	0.928859	0.909721
C310	C	0.294418	1.005652	0.912658
C311	C	0.393632	0.995223	0.865307
C312	C	0.498975	0.907998	0.815021
H313	H	0.410430	0.784784	0.857263
H314	H	0.227105	0.936578	0.944773
H315	H	0.216437	1.070222	0.949882
H316	H	0.389095	1.052073	0.867479
H317	H	0.572419	0.900279	0.779969
H318	H	0.327376	0.413518	0.966471
H319	H	1.015557	-0.352557	0.637995
H320	H	0.105929	0.135928	0.851019
H321	H	0.157148	0.036992	0.860615
H322	H	0.046310	0.031318	0.857486
H323	H	1.153306	-0.069067	0.223044
H324	H	0.822005	0.246919	0.660843
H325	H	0.869843	0.647491	0.638002
H326	H	1.153278	-0.479210	0.633200
C327	C	0.516804	0.684604	0.806505
C328	C	0.434750	0.733022	0.901076
C329	C	0.335519	0.743476	0.948449
C330	C	0.318342	0.705512	0.901252
C331	C	0.400399	0.657091	0.806677
C332	C	0.499630	0.646637	0.759303
H333	H	0.447463	0.761128	0.936018
H334	H	0.274775	0.779321	1.018460
H335	H	0.244886	0.713251	0.936321
H336	H	0.387686	0.628985	0.771734
H337	H	0.560373	0.610792	0.689292
H338	H	1.027063	-0.208810	0.344203
H339	H	0.484625	0.407971	0.821859
H340	H	0.474512	0.534633	0.826683
H341	H	0.532469	0.096845	0.510725
H342	H	0.542590	0.092012	0.384071
H343	H	0.869849	-0.064202	0.349707
H344	H	0.474511	0.124486	0.236812
