data_functionalizedCrystal
_audit_creation_method	'MofGen! by Chris Wilmer'
_symmetry_space_group_name_H-M	'P1'
_symmetry_Int_Tables_number	1
_symmetry_cell_setting	triclinic
loop_
_symmetry_equiv_pos_as_xyz
  x,y,z
_cell_length_a	14.044220
_cell_length_b	14.044220
_cell_length_c	12.503572
_cell_angle_alpha	86.156832
_cell_angle_beta	86.160255
_cell_angle_gamma	86.811123
loop_
_atom_site_label
_atom_site_type_symbol
_atom_site_fract_x
_atom_site_fract_y
_atom_site_fract_z
O1	O	1.282207	-0.225110	-0.089324
O2	O	1.005535	-0.216804	-0.089326
O3	O	1.139717	-0.082622	-0.089314
O4	O	1.148024	-0.359292	-0.089336
O5	O	1.129628	-0.092731	0.089327
O6	O	0.995445	-0.226913	0.089315
O7	O	1.272117	-0.235219	0.089317
Cu8	Cu	1.132860	-0.231989	0.105627
Cu9	Cu	1.144792	-0.220034	-0.105636
O10	O	1.137934	-0.369402	0.089305
C11	C	1.131037	-0.052055	0.000007
C12	C	1.120192	0.054088	0.000008
C13	C	0.964868	-0.218223	-0.000006
C14	C	0.858726	-0.207378	-0.000007
C15	C	1.312784	-0.233800	-0.000005
C16	C	1.418927	-0.244644	-0.000012
C17	C	1.613264	-0.264470	-0.000012
C18	C	1.664394	-0.187556	-0.000006
C19	C	1.772530	-0.198588	-0.000006
C20	C	1.505118	-0.253440	-0.000012
C21	C	1.146615	-0.399968	-0.000018
C22	C	1.157460	-0.506111	-0.000026
N23	N	1.124474	-0.240398	0.254219
C24	C	1.100367	0.248427	-0.000008
C25	C	1.177281	0.299557	-0.000010
C26	C	1.166250	0.407693	-0.000019
C27	C	1.111396	0.140280	0.000001
N28	N	1.153185	-0.211618	-0.254228
C29	C	1.112139	-0.252777	0.473333
C30	C	1.165517	-0.199243	0.526665
C31	C	1.158653	-0.206130	0.648587
C32	C	1.119001	-0.245890	0.351399
H33	H	1.626959	-0.113419	-0.000078
H34	H	1.026239	0.285864	-0.000011
O35	O	1.265765	0.254998	0.000147
C36	C	1.310400	0.276495	0.092686
H37	H	1.276911	0.346065	0.123518
H38	H	1.389932	0.284638	0.071890
H39	H	1.300453	0.216165	0.157477
H40	H	1.650702	-0.338598	-0.000019
H41	H	1.216370	-0.148239	0.480756
H42	H	1.061291	-0.303778	0.519236
