data_functionalizedCrystal
_audit_creation_method	'MofGen! by Chris Wilmer'
_symmetry_space_group_name_H-M	'P1'
_symmetry_Int_Tables_number	1
_symmetry_cell_setting	triclinic
loop_
_symmetry_equiv_pos_as_xyz
  x,y,z
_cell_length_a	15.995292
_cell_length_b	15.995350
_cell_length_c	7.540329
_cell_angle_alpha	89.998640
_cell_angle_beta	89.995868
_cell_angle_gamma	83.480495
loop_
_atom_site_label
_atom_site_type_symbol
_atom_site_fract_x
_atom_site_fract_y
_atom_site_fract_z
O1	O	1.111014	0.107694	-0.147522
O2	O	0.867232	0.121072	-0.147513
O3	O	0.995787	-0.007506	-0.147516
O4	O	0.982459	0.236272	-0.147519
O5	O	0.995779	-0.007508	0.147449
O6	O	0.867225	0.121070	0.147452
O7	O	1.111007	0.107692	0.147444
Cu8	Cu	0.989115	0.114381	0.174380
Cu9	Cu	0.989124	0.114383	-0.174450
O10	O	0.982452	0.236270	0.147446
C11	C	0.836033	0.120527	-0.000030
C12	C	0.743080	0.118894	-0.000027
C13	C	0.405341	0.112893	-0.000047
C14	C	0.428654	0.205697	-0.000707
C15	C	0.525329	0.207461	-0.000034
C16	C	0.572897	0.115871	-0.000038
C17	C	0.543791	0.069472	0.168396
C18	C	0.447001	0.068355	0.168529
C19	C	0.447154	0.066462	-0.166901
C20	C	0.543646	0.069901	-0.169120
C21	C	0.667593	0.117549	-0.000027
C22	C	0.310646	0.111212	-0.000046
C23	C	0.995232	-0.038702	-0.000037
C24	C	0.993580	-0.131652	-0.000047
C25	C	0.987648	-0.469398	-0.000041
C26	C	0.896094	-0.421945	-0.000699
C27	C	0.897746	-0.325255	-0.000034
C28	C	0.990591	-0.301838	-0.000045
C29	C	1.035744	-0.342926	0.168390
C30	C	1.033444	-0.439561	0.168531
C31	C	1.035344	-0.439918	-0.166899
C32	C	1.035323	-0.342973	-0.169125
C33	C	0.992259	-0.207141	-0.000041
C34	C	0.985983	-0.564095	-0.000032
C35	C	1.142206	0.108237	-0.000044
C36	C	1.235159	0.109870	-0.000058
C37	C	0.983006	0.267466	-0.000037
C38	C	0.984658	0.360416	-0.000039
N39	N	0.989115	0.114379	0.419729
N40	N	0.989131	0.114378	-0.419799
H41	H	0.544359	0.243794	-0.120779
H42	H	1.103955	-0.328814	0.174647
Cl43	Cl	0.572360	0.122031	-0.361511
Cl44	Cl	0.424531	-0.036695	0.180443
H45	H	1.103029	-0.327625	-0.179303
Cl46	Cl	0.987316	-0.299103	0.361927
H47	H	0.576617	0.003049	-0.179296
H48	H	0.563847	0.101692	0.293747
H49	H	0.433161	-0.001849	-0.168043
Cl50	Cl	0.842565	-0.282217	0.186699
H51	H	1.102847	-0.471693	-0.168039
H52	H	0.400661	0.241469	-0.121499
H53	H	1.005414	-0.460451	-0.294563
H54	H	0.399632	0.241269	0.119406
Cl55	Cl	1.137219	-0.489375	0.180345
H56	H	0.543730	0.244017	0.120911
Cl57	Cl	0.592983	-0.034590	0.178060
H58	H	0.418830	0.095470	-0.294565
Cl59	Cl	0.405588	0.117969	0.362919
H60	H	0.862252	-0.296825	-0.120775
H61	H	0.859503	-0.440468	-0.121487
H62	H	0.859660	-0.441532	0.119418
Cl63	Cl	0.982594	-0.467811	0.362927
Cl64	Cl	0.984772	-0.300402	-0.361536
