data_functionalizedCrystal
_audit_creation_method	'MofGen! by Chris Wilmer'
_symmetry_space_group_name_H-M	'P1'
_symmetry_Int_Tables_number	1
_symmetry_cell_setting	triclinic
loop_
_symmetry_equiv_pos_as_xyz
  x,y,z
_cell_length_a	16.120297
_cell_length_b	16.959455
_cell_length_c	16.959454
_cell_angle_alpha	90.017022
_cell_angle_beta	87.124024
_cell_angle_gamma	87.120459
loop_
_atom_site_label
_atom_site_type_symbol
_atom_site_fract_x
_atom_site_fract_y
_atom_site_fract_z
Zn1	Zn	-0.471383	-1.185756	0.337427
Zn2	Zn	-0.331981	-1.192371	0.462907
Zn3	Zn	-0.331989	-1.060276	0.330740
Zn4	Zn	-0.471350	-1.053551	0.469558
O5	O	-0.401676	-1.122989	0.400158
O6	O	-0.452902	-1.297244	0.354087
O7	O	-0.215319	-1.180430	0.439793
O8	O	-0.350498	-1.076968	0.221017
O9	O	-0.350484	-1.302104	0.446277
O10	O	-0.452910	-1.169158	0.225930
O11	O	-0.215325	-1.083381	0.342690
O12	O	-0.350465	-0.948774	0.349140
O13	O	-0.588018	-1.065506	0.457613
O14	O	-0.452853	-0.943833	0.451129
O15	O	-0.588042	-1.162637	0.360536
O16	O	-0.350451	-1.173909	0.574399
O17	O	-0.452845	-1.071919	0.579286
C18	C	-0.401657	-0.917623	0.400131
C19	C	-0.401668	-0.829766	0.400139
C20	C	-0.401662	-1.122923	0.605524
C21	C	-0.401684	-1.122966	0.693381
C22	C	-0.619125	-1.112583	0.410562
C23	C	-0.711789	-1.108149	0.414996
C24	C	-0.881447	-1.100025	0.423073
C25	C	-0.922756	-1.146108	0.377006
C26	C	-1.017160	-1.141587	0.381500
C27	C	-0.787035	-1.104544	0.418580
C28	C	-0.185072	-1.133399	0.389737
C29	C	-0.092409	-1.137986	0.385081
C30	C	-0.401696	-1.329156	0.400186
C31	C	-0.401704	-1.417012	0.400197
C32	C	-0.348474	-0.460833	0.347016
C33	C	-0.454926	-0.455745	0.453367
C34	C	-0.454920	-0.538291	0.453356
C35	C	-0.401690	-0.582112	0.400174
C36	C	-0.348465	-0.543387	0.347004
C37	C	-0.508138	-0.577023	0.506530
C38	C	-0.508135	-0.659574	0.506521
C39	C	-0.454908	-0.703396	0.453335
C40	C	-0.401682	-0.664666	0.400163
C41	C	-0.348452	-0.708487	0.346981
C42	C	-0.295229	-0.669758	0.293804
C43	C	-0.295239	-0.587209	0.293819
C44	C	-0.454898	-0.785945	0.453321
C45	C	-0.348443	-0.791041	0.346970
C46	C	-0.401708	-1.123075	0.193991
C47	C	-0.401722	-1.123112	0.106135
C48	C	-0.454987	-1.069956	1.067431
C49	C	-0.348450	-1.176237	1.062286
C50	C	-0.348442	-1.176210	0.979740
C51	C	-0.401707	-1.123054	0.941035
C52	C	-0.454979	-1.069926	0.984877
C53	C	-0.295165	-1.229332	0.935892
C54	C	-0.295155	-1.229307	0.853341
C55	C	-0.348424	-1.176154	0.814635
C56	C	-0.401699	-1.123024	0.858481
C57	C	-0.454963	-1.069868	0.819777
C58	C	-0.508243	-1.016741	0.863622
C59	C	-0.508248	-1.016773	0.946171
C60	C	-0.348419	-1.176122	0.732086
C61	C	-0.454956	-1.069837	0.737223
H62	H	-0.887222	-1.188955	0.334190
C63	C	-0.928971	-1.042978	0.480142
C64	C	-1.014513	-1.049807	0.473327
C65	C	-1.058328	-0.997279	0.525895
H66	H	-0.914843	-0.990503	0.467965
H67	H	-0.914802	-1.055202	0.532608
H68	H	-1.028676	-1.037578	0.420873
H69	H	-1.028666	-1.102270	0.485511
H70	H	-1.044159	-1.009502	0.578360
H71	H	-1.044193	-0.944807	0.513713
H72	H	-1.116372	-1.001910	0.521283
C73	C	-0.566224	-0.959185	0.993741
C74	C	-0.648728	-0.972389	0.977602
C75	C	-0.702155	-0.919360	1.021420
H76	H	-0.554082	-0.906632	0.979704
H77	H	-0.558651	-0.966820	1.048457
H78	H	-0.656297	-0.964746	0.922898
H79	H	-0.660895	-1.024930	0.991642
H80	H	-0.694582	-0.926996	1.076136
H81	H	-0.690006	-0.866812	1.007380
H82	H	-0.758140	-0.928317	1.010482
H83	H	-0.551470	-0.541338	0.549833
H84	H	-0.305101	-0.826714	0.303658
H85	H	-0.305036	-1.219373	0.696391
H86	H	-0.251885	-0.705448	0.250507
H87	H	-0.251907	-0.555669	0.250526
C88	C	-0.290723	-0.418646	0.289370
C89	C	-0.302107	-0.336974	0.300769
C90	C	-0.248914	-0.298086	0.247686
H91	H	-0.302966	-0.431509	0.236833
H92	H	-0.234668	-0.434798	0.298180
H93	H	-0.358150	-0.320828	0.291953
H94	H	-0.289858	-0.324088	0.353295
H95	H	-0.192859	-0.314238	0.256496
H96	H	-0.261162	-0.310955	0.195152
H97	H	-0.256625	-0.242668	0.255417
C98	C	-0.512818	-0.408119	0.510974
C99	C	-0.566343	-0.358196	0.468857
C100	C	-0.619695	-0.314314	0.521897
H101	H	-0.480965	-0.377366	0.543863
H102	H	-0.544568	-0.442975	0.542628
H103	H	-0.534596	-0.323345	0.437216
H104	H	-0.598215	-0.388929	0.435971
H105	H	-0.651446	-0.349170	0.553551
H106	H	-0.587835	-0.283565	0.554783
H107	H	-0.656023	-0.280442	0.493328
H108	H	-0.551473	-0.691100	0.549820
H109	H	-0.498229	-0.817475	0.496619
C110	C	-0.512822	-1.012038	0.695347
C111	C	-0.559466	-0.965511	0.751415
C112	C	-0.612773	-0.912252	0.712869
H113	H	-0.549243	-1.040405	0.664855
H114	H	-0.480916	-0.979091	0.661667
H115	H	-0.591370	-0.998454	0.785081
H116	H	-0.523067	-0.937127	0.781910
H117	H	-0.580867	-0.879305	0.679189
H118	H	-0.649189	-0.940626	0.682377
H119	H	-0.644422	-0.880673	0.750904
H120	H	-0.551608	-0.973457	0.832099
C121	C	-0.512739	-1.012311	1.115166
C122	C	-0.501338	-1.023698	1.195744
C123	C	-0.554517	-0.970603	1.239742
H124	H	-0.568796	-1.021097	1.104391
H125	H	-0.500476	-0.959776	1.101136
H126	H	-0.513607	-1.076221	1.209770
H127	H	-0.445292	-1.014906	1.206544
H128	H	-0.542254	-0.918068	1.225711
H129	H	-0.610571	-0.979394	1.228960
H130	H	-0.546783	-0.978317	1.294418
H131	H	-0.305080	-1.219510	1.093805
H132	H	-0.251794	-1.272603	0.967412
C133	C	-0.237286	-1.287079	0.805882
C134	C	-0.190657	-1.333649	0.857449
C135	C	-0.137351	-1.386886	0.813759
H136	H	-0.200856	-1.258694	0.771958
H137	H	-0.269193	-1.319999	0.775198
H138	H	-0.158753	-1.300733	0.888120
H139	H	-0.227066	-1.362050	0.891374
H140	H	-0.169258	-1.419806	0.783074
H141	H	-0.100926	-1.358495	0.779836
H142	H	-0.105713	-1.418495	0.848740
