data_functionalizedCrystal
_audit_creation_method	'MofGen! by Chris Wilmer'
_symmetry_space_group_name_H-M	'P1'
_symmetry_Int_Tables_number	1
_symmetry_cell_setting	triclinic
loop_
_symmetry_equiv_pos_as_xyz
  x,y,z
_cell_length_a	15.995350
_cell_length_b	17.038272
_cell_length_c	15.072220
_cell_angle_alpha	89.999202
_cell_angle_beta	89.991149
_cell_angle_gamma	87.301966
loop_
_atom_site_label
_atom_site_type_symbol
_atom_site_fract_x
_atom_site_fract_y
_atom_site_fract_z
O1	O	1.118174	0.100774	-0.073708
O2	O	1.451508	0.434107	0.259625
O3	O	1.784841	0.767441	0.592959
O4	O	0.875285	0.113219	-0.073726
O5	O	1.208619	0.446552	0.259607
O6	O	1.541952	0.779886	0.592940
O7	O	0.995286	-0.006819	-0.073710
O8	O	1.328620	0.326514	0.259623
O9	O	1.661953	0.659847	0.592957
O10	O	0.998173	0.220812	-0.073724
O11	O	1.331507	0.554146	0.259609
O12	O	1.664840	0.887479	0.592943
O13	O	0.995255	-0.006813	0.073855
O14	O	1.328588	0.326521	0.407188
O15	O	1.661922	0.659854	0.740522
O16	O	0.875254	0.113226	0.073839
O17	O	1.208587	0.446559	0.407172
O18	O	1.541921	0.779892	0.740506
O19	O	1.118143	0.100781	0.073857
O20	O	1.451476	0.434114	0.407191
O21	O	1.784810	0.767447	0.740524
Zn22	Zn	0.996694	0.107004	0.097277
Zn23	Zn	1.330027	0.440338	0.430611
Zn24	Zn	1.663360	0.773671	0.763944
Zn25	Zn	0.996735	0.106995	-0.097146
Zn26	Zn	1.330068	0.440329	0.236187
Zn27	Zn	1.663401	0.773662	0.569521
O28	O	0.998142	0.220819	0.073841
O29	O	1.331475	0.554152	0.407175
O30	O	1.664809	0.887486	0.740508
C31	C	0.844038	0.112708	0.000054
C32	C	1.177372	0.446041	0.333387
C33	C	1.510705	0.779374	0.666721
C34	C	0.750978	0.111165	0.000047
C35	C	1.084311	0.444499	0.333381
C36	C	1.417645	0.777832	0.666714
C37	C	0.992645	-0.035945	0.000072
C38	C	1.325978	0.297389	0.333405
C39	C	1.659311	0.630722	0.666739
C40	C	0.984810	-0.122740	0.000071
C41	C	1.318144	0.210594	0.333405
C42	C	1.651477	0.543927	0.666738
C43	C	0.412836	0.105626	0.000066
C44	C	0.746169	0.438959	0.333399
C45	C	1.079503	0.772293	0.666733
C46	C	0.454180	0.020137	0.000400
C47	C	0.787514	0.353470	0.333734
C48	C	1.120847	0.686804	0.667067
C49	C	0.550981	0.021680	0.000062
C50	C	0.884314	0.355013	0.333395
C51	C	1.217647	0.688346	0.666728
C52	C	0.580592	0.108374	0.000057
C53	C	0.913926	0.441707	0.333391
C54	C	1.247259	0.775040	0.666724
C55	C	0.542527	0.150536	-0.084209
C56	C	0.875860	0.483869	0.249125
C57	C	1.209193	0.817203	0.582458
C58	C	0.445738	0.148388	-0.084273
C59	C	0.779071	0.481722	0.249060
C60	C	1.112405	0.815055	0.582394
C61	C	0.445489	0.150162	0.083536
C62	C	0.778823	0.483496	0.416869
C63	C	1.112156	0.816829	0.750203
C64	C	0.542433	0.150142	0.084644
C65	C	0.875766	0.483475	0.417977
C66	C	1.209100	0.816809	0.751310
C67	C	0.675401	0.109931	0.000049
C68	C	1.008734	0.443264	0.333383
C69	C	1.342067	0.776598	0.666716
C70	C	0.318027	0.104071	0.000068
C71	C	0.651361	0.437405	0.333401
C72	C	0.984694	0.770738	0.666735
C73	C	1.056739	-0.172836	0.000078
C74	C	1.390072	0.160497	0.333411
C75	C	1.723406	0.493831	0.666744
C76	C	1.049373	-0.254389	0.000069
C77	C	1.382706	0.078945	0.333402
C78	C	1.716039	0.412278	0.666735
C79	C	0.970077	-0.285843	0.000060
C80	C	1.303411	0.047491	0.333393
C81	C	1.636744	0.380824	0.666726
C82	C	0.898143	-0.235740	0.000051
C83	C	1.231477	0.097594	0.333384
C84	C	1.564810	0.430927	0.666717
C85	C	0.905510	-0.154189	0.000053
C86	C	1.238844	0.179144	0.333387
C87	C	1.572177	0.512478	0.666720
C88	C	0.944051	-0.531607	0.000046
C89	C	1.277384	-0.198274	0.333379
C90	C	1.610718	0.135060	0.666712
C91	C	0.936689	-0.613164	0.000046
C92	C	1.270023	-0.279831	0.333379
C93	C	1.603356	0.053502	0.666712
C94	C	1.087920	-0.631807	0.000062
C95	C	1.421253	-0.298474	0.333395
C96	C	1.754586	0.034859	0.666729
C97	C	1.095280	-0.550254	0.000070
C98	C	1.428613	-0.216921	0.333403
C99	C	1.761946	0.116412	0.666737
C100	C	1.023346	-0.500158	0.000056
C101	C	1.356679	-0.166825	0.333390
C102	C	1.690012	0.166508	0.666723
C103	C	0.962546	-0.369202	0.000053
C104	C	1.295879	-0.035869	0.333387
C105	C	1.629213	0.297465	0.666720
C106	C	1.030878	-0.416801	0.000056
C107	C	1.364211	-0.083467	0.333390
C108	C	1.697544	0.249866	0.666723
C109	C	1.149390	0.101292	0.000075
C110	C	1.482723	0.434625	0.333408
C111	C	1.816057	0.767959	0.666742
C112	C	1.242450	0.102834	0.000076
C113	C	1.575784	0.436168	0.333409
C114	C	1.909117	0.769501	0.666743
C115	C	1.000784	0.249944	0.000057
C116	C	1.334117	0.583278	0.333390
C117	C	1.667450	0.916611	0.666724
C118	C	1.008618	0.336739	0.000052
C119	C	1.341951	0.670073	0.333385
C120	C	1.675285	1.003406	0.666719
N121	N	0.996671	0.107010	0.229966
N122	N	1.330005	0.440343	0.563299
N123	N	1.663338	0.773676	0.896633
N124	N	0.996763	0.106984	-0.229835
N125	N	1.330096	0.440317	0.103498
N126	N	1.663430	0.773650	0.436832
C127	C	0.996733	0.106992	0.589168
C128	C	1.330066	0.440326	0.922501
C129	C	1.663400	0.773659	1.255834
C130	C	0.932276	0.171007	0.551552
C131	C	1.265610	0.504340	0.884885
C132	C	1.598943	0.837674	1.218219
C133	C	0.932451	0.171241	0.448726
C134	C	1.265785	0.504574	0.782060
C135	C	1.599118	0.837907	1.115393
C136	C	0.996702	0.107001	0.410963
C137	C	1.330035	0.440334	0.744297
C138	C	1.663368	0.773668	1.077630
C139	C	1.085336	0.124819	0.448260
C140	C	1.418669	0.458152	0.781593
C141	C	1.752002	0.791486	1.114927
C142	C	1.084981	0.125274	0.551118
C143	C	1.418315	0.458607	0.884451
C144	C	1.751648	0.791941	1.217785
C145	C	0.973321	0.024970	0.551271
C146	C	1.306654	0.358303	0.884605
C147	C	1.639987	0.691637	1.217938
C148	C	0.971355	0.025517	0.448408
C149	C	1.304688	0.358850	0.781741
C150	C	1.638022	0.692184	1.115074
C151	C	0.996689	0.107004	0.310250
C152	C	1.330023	0.440338	0.643583
C153	C	1.663356	0.773671	0.976917
C154	C	0.996751	0.106991	0.689881
C155	C	1.330084	0.440324	1.023214
C156	C	1.663418	0.773657	1.356548
H157	H	0.577036	-0.011462	0.060467
H158	H	0.910369	0.321871	0.393801
H159	H	1.243702	0.655204	0.727134
H160	H	0.909778	0.007836	0.577258
H161	H	1.243111	0.341170	0.910591
H162	H	1.576444	0.674503	1.243925
H163	H	1.107945	-0.295174	0.000076
H164	H	1.441278	0.038159	0.333409
H165	H	1.774612	0.371492	0.666742
H166	H	0.897983	-0.394821	0.000048
H167	H	1.231316	-0.061488	0.333381
H168	H	1.564650	0.271845	0.666715
H169	H	0.833579	-0.261356	0.000038
H170	H	1.166912	0.071977	0.333371
H171	H	1.500246	0.405311	0.666704
H172	H	0.906125	0.011995	0.424032
H173	H	1.239459	0.345328	0.757365
H174	H	1.572792	0.678662	1.090698
H175	H	1.014806	-0.024351	0.422706
H176	H	1.348139	0.308982	0.756039
H177	H	1.681472	0.642315	1.089372
H178	H	1.020258	-0.022668	0.575596
H179	H	1.353591	0.310666	0.908929
H180	H	1.686924	0.643999	1.242263
H181	H	1.121310	-0.147233	0.000090
H182	H	1.454643	0.186100	0.333424
H183	H	1.787976	0.519434	0.666757
H184	H	1.146484	-0.672604	0.000071
H185	H	1.479817	-0.339270	0.333405
H186	H	1.813151	-0.005937	0.666738
H187	H	1.134752	0.080487	0.575999
H188	H	1.468085	0.413820	0.909332
H189	H	1.801419	0.747154	1.242666
H190	H	0.846938	-0.113400	0.000048
H191	H	1.180271	0.219933	0.333381
H192	H	1.513605	0.553266	0.666715
H193	H	0.885477	-0.490828	0.000035
H194	H	1.218810	-0.157495	0.333368
H195	H	1.552143	0.175838	0.666701
H196	H	1.095440	-0.391187	0.000044
H197	H	1.428773	-0.057854	0.333377
H198	H	1.762107	0.275480	0.666711
H199	H	0.433211	-0.014032	0.060831
H200	H	0.766545	0.319301	0.394164
H201	H	1.099878	0.652634	0.727498
H202	H	0.947652	0.231532	0.577388
H203	H	1.280986	0.564865	0.910721
H204	H	1.614319	0.898199	1.244054
H205	H	0.432177	-0.013880	-0.059693
H206	H	0.765510	0.319453	0.273640
H207	H	1.098843	0.652786	0.606974
H208	H	0.872114	-0.638770	0.000053
H209	H	1.205448	-0.305437	0.333386
H210	H	1.538781	0.027896	0.666719
H211	H	0.866755	0.160625	0.423511
H212	H	1.200089	0.493958	0.756845
H213	H	1.533422	0.827291	1.090178
H214	H	0.866383	0.160566	0.576309
H215	H	1.199716	0.493899	0.909643
H216	H	1.533050	0.827232	1.242976
H217	H	1.104725	0.185092	0.575097
H218	H	1.438058	0.518426	0.908431
H219	H	1.771391	0.851759	1.241764
H220	H	0.948006	0.232108	0.424110
H221	H	1.281340	0.565442	0.757443
H222	H	1.614673	0.898775	1.090776
H223	H	1.134687	0.079434	0.423797
H224	H	1.468020	0.412768	0.757131
H225	H	1.801354	0.746101	1.090464
H226	H	1.105400	0.183956	0.422489
H227	H	1.438734	0.517289	0.755822
H228	H	1.772067	0.850622	1.089155
H229	H	0.425253	0.117636	-0.147261
H230	H	0.758586	0.450969	0.186073
H231	H	1.091919	0.784303	0.519406
H232	H	0.417961	0.211153	-0.088100
H233	H	0.751294	0.544486	0.245233
H234	H	1.084628	0.877819	0.578566
H235	H	0.561189	0.214228	-0.087345
H236	H	0.894522	0.547561	0.245988
H237	H	1.227856	0.880894	0.579321
H238	H	0.576474	-0.011692	-0.060445
H239	H	0.909808	0.321642	0.272888
H240	H	1.243141	0.654975	0.606222
H241	H	0.568828	0.121246	-0.146918
H242	H	0.902161	0.454580	0.186415
H243	H	1.235495	0.787913	0.519749
H244	H	0.567544	0.119364	0.146983
H245	H	0.900877	0.452697	0.480317
H246	H	1.234210	0.786030	0.813650
H247	H	0.562300	0.213362	0.089730
H248	H	0.895634	0.546695	0.423064
H249	H	1.228967	0.880029	0.756397
H250	H	0.422949	0.122217	0.147408
H251	H	0.756283	0.455550	0.480741
H252	H	1.089616	0.788883	0.814074
H253	H	0.418217	0.213193	0.084103
H254	H	0.751551	0.546526	0.417436
H255	H	1.084884	0.879859	0.750769
H256	H	1.159850	-0.524651	0.000077
H257	H	1.493184	-0.191317	0.333411
H258	H	1.826517	0.142016	0.666744
