data_functionalizedCrystal
_audit_creation_method	'MofGen! by Chris Wilmer'
_symmetry_space_group_name_H-M	'P1'
_symmetry_Int_Tables_number	1
_symmetry_cell_setting	triclinic
loop_
_symmetry_equiv_pos_as_xyz
  x,y,z
_cell_length_a	21.395362
_cell_length_b	12.594516
_cell_length_c	21.395356
_cell_angle_alpha	89.979423
_cell_angle_beta	89.957023
_cell_angle_gamma	90.031933
loop_
_atom_site_label
_atom_site_type_symbol
_atom_site_fract_x
_atom_site_fract_y
_atom_site_fract_z
Zn1	Zn	0.957917	-0.423318	-0.354617
Zn2	Zn	1.291251	-0.089985	-0.021283
Zn3	Zn	1.624584	0.243349	0.312050
Zn4	Zn	0.957848	-0.601311	-0.249852
Zn5	Zn	1.291182	-0.267977	0.083481
Zn6	Zn	1.624515	0.065356	0.416815
Zn7	Zn	0.853134	-0.423396	-0.249818
Zn8	Zn	1.186467	-0.090063	0.083515
Zn9	Zn	1.519801	0.243271	0.416849
Zn10	Zn	0.853128	-0.601304	-0.354557
Zn11	Zn	1.186462	-0.267971	-0.021223
Zn12	Zn	1.519795	0.065363	0.312110
O13	O	0.905507	-0.512332	-0.302211
O14	O	1.238840	-0.178999	0.031123
O15	O	1.572174	0.154335	0.364456
O16	O	1.045586	-0.446899	-0.340759
O17	O	1.378919	-0.113566	-0.007425
O18	O	1.712253	0.219768	0.325908
O19	O	0.943931	-0.577745	-0.162170
O20	O	1.277265	-0.244412	0.171164
O21	O	1.610598	0.088921	0.504497
O22	O	0.867065	-0.274440	-0.263730
O23	O	1.200398	0.058894	0.069603
O24	O	1.533732	0.392227	0.402936
O25	O	1.045535	-0.577670	-0.263789
O26	O	1.378869	-0.244336	0.069545
O27	O	1.712202	0.088997	0.402878
O28	O	0.944049	-0.274382	-0.340725
O29	O	1.277382	0.058951	-0.007392
O30	O	1.610716	0.392284	0.325941
O31	O	0.866998	-0.447032	-0.162144
O32	O	1.200332	-0.113699	0.171189
O33	O	1.533665	0.219635	0.504522
O34	O	0.765455	-0.447026	-0.263672
O35	O	1.098789	-0.113692	0.069661
O36	O	1.432122	0.219641	0.402994
O37	O	0.867055	-0.577658	-0.442243
O38	O	1.200389	-0.244325	-0.108909
O39	O	1.533722	0.089008	0.224424
O40	O	0.765451	-0.577734	-0.340624
O41	O	1.098784	-0.244401	-0.007290
O42	O	1.432118	0.088933	0.326043
O43	O	0.944043	-0.446893	-0.442287
O44	O	1.277377	-0.113559	-0.108953
O45	O	1.610710	0.219774	0.224380
O46	O	0.943926	-0.750256	-0.263731
O47	O	1.277259	-0.416922	0.069603
O48	O	1.610592	-0.083589	0.402936
O49	O	0.866988	-0.750251	-0.340657
O50	O	1.200322	-0.416917	-0.007324
O51	O	1.533655	-0.083584	0.326010
C52	C	0.742719	-0.512388	-0.302138
C53	C	1.076053	-0.179055	0.031195
C54	C	1.409386	0.154278	0.364529
C55	C	0.673078	-0.512438	-0.302122
C56	C	1.006411	-0.179105	0.031211
C57	C	1.339745	0.154229	0.364545
C58	C	0.640379	-0.580588	-0.342130
C59	C	0.973712	-0.247255	-0.008797
C60	C	1.307046	0.086078	0.324536
C61	C	0.574944	-0.580562	-0.342158
C62	C	0.908277	-0.247229	-0.008825
C63	C	1.241610	0.086105	0.324508
C64	C	0.542210	-0.512397	-0.302167
C65	C	0.875543	-0.179064	0.031167
C66	C	1.208876	0.154270	0.364500
C67	C	0.574917	-0.444234	-0.262155
C68	C	0.908250	-0.110901	0.071178
C69	C	1.241583	0.222433	0.404511
C70	C	0.640351	-0.444254	-0.262133
C71	C	0.973684	-0.110921	0.071200
C72	C	1.307017	0.222412	0.404534
C73	C	0.438485	-0.503838	-0.245761
C74	C	0.771818	-0.170505	0.087573
C75	C	1.105151	0.162829	0.420906
C76	C	0.373052	-0.503825	-0.245782
C77	C	0.706385	-0.170492	0.087551
C78	C	1.039718	0.162842	0.420885
C79	C	0.340389	-0.512328	-0.302236
C80	C	0.673722	-0.178994	0.031098
C81	C	1.007056	0.154339	0.364431
C82	C	0.373167	-0.520866	-0.358670
C83	C	0.706501	-0.187533	-0.025337
C84	C	1.039834	0.145801	0.307997
C85	C	0.438602	-0.520886	-0.358648
C86	C	0.771935	-0.187553	-0.025314
C87	C	1.105268	0.145780	0.308019
C88	C	0.471257	-0.512367	-0.302187
C89	C	0.804591	-0.179033	0.031147
C90	C	1.137924	0.154300	0.364480
C91	C	0.236738	-0.580453	-0.342278
C92	C	0.570071	-0.247120	-0.008945
C93	C	0.903404	0.086214	0.324389
C94	C	0.171301	-0.580420	-0.342307
C95	C	0.504634	-0.247086	-0.008974
C96	C	0.837968	0.086247	0.324360
C97	C	0.171275	-0.444097	-0.262298
C98	C	0.504608	-0.110764	0.071035
C99	C	0.837942	0.222570	0.404369
C100	C	0.236710	-0.444125	-0.262275
C101	C	0.570044	-0.110791	0.071059
C102	C	0.903377	0.222542	0.404392
C103	C	0.269438	-0.512309	-0.302264
C104	C	0.602771	-0.178975	0.031070
C105	C	0.936104	0.154358	0.364403
C106	C	0.905466	-0.788873	-0.302205
C107	C	1.238799	-0.455540	0.031129
C108	C	1.572133	-0.122206	0.364462
C109	C	0.905506	-0.907179	-0.302223
C110	C	1.238839	-0.573845	0.031110
C111	C	1.572172	-0.240512	0.364444
C112	C	0.863655	-0.976468	-0.344034
C113	C	1.196989	-0.643134	-0.010700
C114	C	1.530322	-0.309801	0.322633
C115	C	0.848387	-1.047331	-0.286856
C116	C	1.181720	-0.713997	0.046477
C117	C	1.515054	-0.380664	0.379810
C118	C	0.920831	-1.047114	-0.359410
C119	C	1.254165	-0.713781	-0.026077
C120	C	1.587498	-0.380448	0.307257
C121	C	0.890207	-0.976483	-0.245015
C122	C	1.223540	-0.643150	0.088318
C123	C	1.556874	-0.309817	0.421651
C124	C	0.962678	-0.976261	-0.317608
C125	C	1.296011	-0.642927	0.015726
C126	C	1.629345	-0.309594	0.349059
C127	C	0.947431	-1.047092	-0.260391
C128	C	1.280765	-0.713759	0.072942
C129	C	1.614098	-0.380425	0.406276
C130	C	1.068930	-0.512276	-0.302284
C131	C	1.402264	-0.178943	0.031049
C132	C	1.735597	0.154390	0.364383
C133	C	1.138572	-0.512253	-0.302315
C134	C	1.471905	-0.178919	0.031018
C135	C	1.805238	0.154414	0.364351
C136	C	0.905556	-0.512266	-0.465634
C137	C	1.238890	-0.178933	-0.132301
C138	C	1.572223	0.154401	0.201032
C139	C	0.905577	-0.512238	-0.535275
C140	C	1.238911	-0.178905	-0.201942
C141	C	1.572244	0.154429	0.131391
C142	C	0.905565	-0.234711	-0.302231
C143	C	1.238899	0.098622	0.031103
C144	C	1.572232	0.431955	0.364436
C145	C	0.905590	-0.116406	-0.302239
C146	C	1.238923	0.216928	0.031094
C147	C	1.572257	0.550261	0.364427
C148	C	0.865529	-0.444168	-0.567966
C149	C	1.198862	-0.110835	-0.234632
C150	C	1.532196	0.222499	0.098701
C151	C	0.865527	-0.444148	-0.633401
C152	C	1.198860	-0.110815	-0.300068
C153	C	1.532193	0.222518	0.033266
C154	C	0.905584	-0.512187	-0.666144
C155	C	1.238918	-0.178854	-0.332811
C156	C	1.572251	0.154479	0.000523
C157	C	0.945635	-0.580271	-0.633446
C158	C	1.278969	-0.246937	-0.300112
C159	C	1.612302	0.086396	0.033221
C160	C	0.945632	-0.580296	-0.568012
C161	C	1.278965	-0.246963	-0.234678
C162	C	1.612299	0.086371	0.098655
C163	C	0.962037	-0.520529	-0.769850
C164	C	1.295371	-0.187196	-0.436517
C165	C	1.628704	0.146138	-0.103183
C166	C	0.962042	-0.520496	-0.835283
C167	C	1.295375	-0.187163	-0.501950
C168	C	1.628709	0.146171	-0.168616
C169	C	0.905595	-0.512115	-0.867965
C170	C	1.238928	-0.178782	-0.534631
C171	C	1.572261	0.154551	-0.201298
C172	C	0.849141	-0.503745	-0.835206
C173	C	1.182474	-0.170412	-0.501872
C174	C	1.515807	0.162921	-0.168539
C175	C	0.849137	-0.503771	-0.769771
C176	C	1.182471	-0.170437	-0.436438
C177	C	1.515804	0.162896	-0.103105
C178	C	0.905592	-0.512168	-0.737096
C179	C	1.238925	-0.178835	-0.403763
C180	C	1.572259	0.154499	-0.070430
C181	C	0.865540	-0.444020	-0.971607
C182	C	1.198874	-0.110687	-0.638274
C183	C	1.532207	0.222646	-0.304941
C184	C	0.865537	-0.444008	-1.037044
C185	C	1.198871	-0.110675	-0.703711
C186	C	1.532204	0.222658	-0.370377
C187	C	0.945651	-0.580125	-1.037088
C188	C	1.278985	-0.246792	-0.703754
C189	C	1.612318	0.086542	-0.370421
C190	C	0.945649	-0.580143	-0.971652
C191	C	1.278982	-0.246810	-0.638319
C192	C	1.612316	0.086524	-0.304986
C193	C	0.905594	-0.512085	-0.938916
C194	C	1.238928	-0.178752	-0.605583
C195	C	1.572261	0.154582	-0.272249
C196	C	0.905494	-0.512321	-0.139423
C197	C	1.238827	-0.178988	0.193910
C198	C	1.572161	0.154346	0.527243
C199	C	0.905594	-0.512049	-0.069782
C200	C	1.238928	-0.178716	0.263551
C201	C	1.572261	0.154617	0.596884
H202	H	0.548315	-0.636058	-0.374740
H203	H	0.881648	-0.302724	-0.041407
H204	H	1.214982	0.030609	0.291926
O205	O	0.937962	-1.088209	-0.423461
O206	O	1.271295	-0.754876	-0.090128
O207	O	1.604629	-0.421543	0.243205
H208	H	0.903112	-1.059923	-0.458066
H209	H	1.236445	-0.726590	-0.124733
H210	H	1.569779	-0.393256	0.208600
O211	O	0.136077	-0.653997	-0.385460
O212	O	0.469410	-0.320663	-0.052127
O213	O	0.802744	0.012670	0.281206
H214	H	0.106318	-0.606500	-0.417434
H215	H	0.439651	-0.273167	-0.084100
H216	H	0.772984	0.060166	0.249233
O217	O	0.473713	-0.494669	-0.184868
O218	O	0.807046	-0.161336	0.148466
O219	O	1.140379	0.171998	0.481799
H220	H	0.439929	-0.488747	-0.145630
H221	H	0.773262	-0.155413	0.187703
H222	H	1.106596	0.177920	0.521036
H223	H	0.978250	-0.635669	-0.660109
H224	H	1.311584	-0.302335	-0.326776
H225	H	1.644917	0.030998	0.006558
H226	H	0.832911	-0.388754	-0.541316
H227	H	1.166244	-0.055420	-0.207983
H228	H	1.499578	0.277913	0.125351
O229	O	0.337706	-0.494617	-0.184914
O230	O	0.671039	-0.161283	0.148420
O231	O	1.004373	0.172050	0.481753
H232	H	0.307863	-0.565901	-0.178451
H233	H	0.641196	-0.232568	0.154883
H234	H	0.974529	0.100766	0.488216
O235	O	1.026706	-0.935117	-0.334872
O236	O	1.360039	-0.601784	-0.001539
O237	O	1.693373	-0.268451	0.331795
H238	H	1.023217	-0.885394	-0.377568
H239	H	1.356550	-0.552061	-0.044235
H240	H	1.689883	-0.218728	0.289098
H241	H	0.803176	-0.496914	-0.861814
H242	H	1.136510	-0.163580	-0.528480
H243	H	1.469843	0.169753	-0.195147
O244	O	1.022918	-0.529577	-0.734592
O245	O	1.356251	-0.196243	-0.401258
O246	O	1.689584	0.137090	-0.067925
H247	H	1.053698	-0.461879	-0.747164
H248	H	1.387032	-0.128545	-0.413831
H249	H	1.720365	0.204788	-0.080498
O250	O	0.873008	-0.935575	-0.180941
O251	O	1.206341	-0.602242	0.152392
O252	O	1.539674	-0.268908	0.485725
H253	H	0.830017	-0.886624	-0.184302
H254	H	1.163351	-0.553290	0.149032
H255	H	1.496684	-0.219957	0.482365
O256	O	0.816693	-0.935374	-0.390797
O257	O	1.150026	-0.602041	-0.057464
O258	O	1.483359	-0.268708	0.275870
H259	H	0.828944	-0.964888	-0.438119
H260	H	1.162277	-0.631554	-0.104786
H261	H	1.495611	-0.298221	0.228547
H262	H	0.800077	-1.078570	-0.273857
H263	H	1.133410	-0.745237	0.059476
H264	H	1.466743	-0.411904	0.392809
H265	H	0.982859	-1.077907	-0.224999
H266	H	1.316192	-0.744574	0.108334
H267	H	1.649525	-0.411240	0.441668
H268	H	0.978247	-0.635726	-0.541396
H269	H	1.311580	-0.302392	-0.208062
H270	H	1.644914	0.030941	0.125271
H271	H	0.832925	-0.388604	-0.944952
H272	H	1.166258	-0.055271	-0.611619
H273	H	1.499592	0.278062	-0.278286
H274	H	0.832916	-0.388712	-0.660023
H275	H	1.166249	-0.055379	-0.326689
H276	H	1.499582	0.277955	0.006644
H277	H	0.803171	-0.496958	-0.743101
H278	H	1.136504	-0.163624	-0.409768
H279	H	1.469838	0.169709	-0.076435
O280	O	0.539607	-0.370737	-0.219011
O281	O	0.872941	-0.037403	0.114322
O282	O	1.206274	0.295930	0.447655
H283	H	0.509838	-0.316646	-0.247110
H284	H	0.843171	0.016688	0.086223
H285	H	1.176505	0.350021	0.419556
O286	O	0.675675	-0.654113	-0.385270
O287	O	1.009009	-0.320780	-0.051937
O288	O	1.342342	0.012554	0.281397
H289	H	0.663065	-0.737621	-0.374450
H290	H	0.996398	-0.404288	-0.041117
H291	H	1.329732	-0.070955	0.292216
O292	O	0.473958	-0.530073	-0.419511
O293	O	0.807292	-0.196739	-0.086177
O294	O	1.140625	0.136594	0.247156
H295	H	0.440258	-0.535972	-0.458774
H296	H	0.773592	-0.202639	-0.125441
H297	H	1.106925	0.130695	0.207893
H298	H	0.832920	-0.388581	-1.063659
H299	H	1.166254	-0.055247	-0.730326
H300	H	1.499587	0.278086	-0.396993
O301	O	0.988860	-0.653512	-1.072392
O302	O	1.322193	-0.320179	-0.739059
O303	O	1.655526	0.013154	-0.405725
H304	H	0.982137	-0.642056	-1.123385
H305	H	1.315470	-0.308723	-0.790052
H306	H	1.648804	0.024611	-0.456719
O307	O	0.988858	-0.653538	-0.936387
O308	O	1.322191	-0.320205	-0.603053
O309	O	1.655525	0.013129	-0.269720
H310	H	1.016719	-0.700837	-0.970146
H311	H	1.350053	-0.367504	-0.636812
H312	H	1.683386	-0.034171	-0.303479
H313	H	0.346575	-0.527788	-0.404640
H314	H	0.679908	-0.194455	-0.071307
H315	H	1.013242	0.138879	0.262026
H316	H	1.008010	-0.527306	-0.861950
H317	H	1.341343	-0.193973	-0.528617
H318	H	1.674677	0.139360	-0.195284
O319	O	0.272050	-0.653961	-0.385417
O320	O	0.605384	-0.320628	-0.052083
O321	O	0.938717	0.012706	0.281250
H322	H	0.259446	-0.737476	-0.374608
H323	H	0.592780	-0.404143	-0.041274
H324	H	0.926113	-0.070810	0.292059
O325	O	0.135980	-0.370581	-0.219156
O326	O	0.469313	-0.037248	0.114177
O327	O	0.802647	0.296085	0.447510
H328	H	0.084985	-0.382022	-0.225888
H329	H	0.418319	-0.048689	0.107445
H330	H	0.751652	0.284645	0.440778
H331	H	0.263334	-0.388635	-0.229692
H332	H	0.596668	-0.055302	0.103641
H333	H	0.930001	0.278032	0.436974
H334	H	0.666974	-0.388755	-0.229553
H335	H	1.000307	-0.055422	0.103780
H336	H	1.333641	0.277912	0.437114
