data_functionalizedCrystal
_audit_creation_method	'MofGen! by Chris Wilmer'
_symmetry_space_group_name_H-M	'P1'
_symmetry_Int_Tables_number	1
_symmetry_cell_setting	triclinic
loop_
_symmetry_equiv_pos_as_xyz
  x,y,z
_cell_length_a	14.908308
_cell_length_b	18.215407
_cell_length_c	18.215405
_cell_angle_alpha	90.025333
_cell_angle_beta	86.737442
_cell_angle_gamma	86.722162
loop_
_atom_site_label
_atom_site_type_symbol
_atom_site_fract_x
_atom_site_fract_y
_atom_site_fract_z
Zn1	Zn	-0.510069	-1.101048	0.316974
Zn2	Zn	-0.010069	-0.601048	0.816974
Zn3	Zn	-0.359205	-1.108062	0.432949
Zn4	Zn	0.140795	-0.608062	0.932949
Zn5	Zn	-0.359228	-0.985085	0.309903
Zn6	Zn	0.140772	-0.485085	0.809903
Zn7	Zn	-0.510012	-0.977949	0.440002
Zn8	Zn	-0.010012	-0.477949	0.940002
O9	O	-0.434628	-1.043036	0.374957
O10	O	0.065372	-0.543036	0.874957
O11	O	-0.490071	-1.204962	0.332366
O12	O	0.009929	-0.704962	0.832366
O13	O	-0.232967	-1.097671	0.410717
O14	O	0.267033	-0.597671	0.910717
O15	O	-0.379272	-1.000519	0.207859
O16	O	0.120728	-0.500519	0.707859
O17	O	-0.379231	-1.210115	0.417573
O18	O	0.120769	-0.710115	0.917573
O19	O	-0.490094	-1.085716	0.213053
O20	O	0.009906	-0.585716	0.713053
O21	O	-0.232984	-1.007320	0.320315
O22	O	0.267016	-0.507320	0.820315
O23	O	-0.379216	-0.881155	0.327153
O24	O	0.120784	-0.381155	0.827153
O25	O	-0.636260	-0.988356	0.429592
O26	O	-0.136260	-0.488356	0.929592
O27	O	-0.489996	-0.875912	0.422736
O28	O	0.010004	-0.375912	0.922736
O29	O	-0.636302	-1.078796	0.339204
O30	O	-0.136302	-0.578796	0.839204
O31	O	-0.379175	-1.090751	0.536868
O32	O	0.120825	-0.590751	1.036868
O33	O	-0.489973	-0.995158	0.542049
O34	O	0.010027	-0.495158	1.042049
C35	C	-0.434603	-0.851831	0.374943
C36	C	0.065397	-0.351831	0.874943
C37	C	-0.434613	-0.770031	0.374956
C38	C	0.065387	-0.270031	0.874956
C39	C	-0.434585	-1.042960	0.566161
C40	C	0.065415	-0.542960	1.066161
C41	C	-0.434597	-1.042994	0.647961
C42	C	0.065403	-0.542994	1.147961
C43	C	-0.669929	-1.031998	0.385974
C44	C	-0.169929	-0.531998	0.885974
C45	C	-0.770201	-1.027294	0.390668
C46	C	-0.270201	-0.527294	0.890668
C47	C	-0.958667	-1.112629	0.305352
C48	C	-0.458667	-0.612629	0.805352
C49	C	-1.052880	-1.108212	0.309760
C50	C	-0.552880	-0.608212	0.809760
C51	C	-1.052844	-1.014039	0.403890
C52	C	-0.552844	-0.514039	0.903890
C53	C	-0.958630	-1.018457	0.399481
C54	C	-0.458630	-0.518457	0.899481
C55	C	-0.911545	-1.067754	0.350211
C56	C	-0.411545	-0.567754	0.850211
C57	C	-0.817329	-1.072174	0.345807
C58	C	-0.317329	-0.572174	0.845807
C59	C	-0.817294	-0.977999	0.439932
C60	C	-0.317294	-0.477999	0.939932
C61	C	-0.911508	-0.973582	0.444340
C62	C	-0.411508	-0.473582	0.944340
C63	C	-0.200243	-1.054073	0.363930
C64	C	0.299757	-0.554073	0.863930
C65	C	-0.099972	-1.058919	0.359028
C66	C	0.400028	-0.558919	0.859028
C67	C	-0.434655	-1.234987	0.374972
C68	C	0.065345	-0.734987	0.874972
C69	C	-0.434666	-1.316786	0.374978
C70	C	0.065334	-0.816786	0.874978
C71	C	-0.492224	-0.579130	0.424797
C72	C	0.007776	-0.079130	0.924797
C73	C	-0.492235	-0.502271	0.424799
C74	C	0.007765	-0.002271	0.924799
C75	C	-0.377053	-0.507692	0.325132
C76	C	0.122947	-0.007692	0.825132
C77	C	-0.377047	-0.584550	0.325126
C78	C	0.122953	-0.084550	0.825126
C79	C	-0.434631	-0.620267	0.374963
C80	C	0.065369	-0.120267	0.874963
C81	C	-0.434648	-0.466550	0.374971
C82	C	0.065352	0.033450	0.874971
C83	C	-0.434660	-0.383216	0.374974
C84	C	0.065340	0.116784	0.874974
C85	C	-0.434621	-0.703606	0.374959
C86	C	0.065379	-0.203606	0.874959
C87	C	-0.434692	-1.043131	0.183007
C88	C	0.065308	-0.543131	0.683007
C89	C	-0.434719	-1.043171	0.101209
C90	C	0.065281	-0.543171	0.601209
C91	C	-0.377011	-1.092875	0.833437
C92	C	0.122989	-0.592875	1.333437
C93	C	-0.377032	-1.092907	0.910297
C94	C	0.122968	-0.592907	1.410297
C95	C	-0.492311	-0.993288	0.915728
C96	C	0.007689	-0.493288	1.415728
C97	C	-0.492293	-0.993260	0.838870
C98	C	0.007707	-0.493260	1.338870
C99	C	-0.434638	-1.043053	0.797726
C100	C	0.065362	-0.543053	1.297726
C101	C	-0.434678	-1.043112	0.951444
C102	C	0.065322	-0.543112	1.451444
C103	C	-0.434702	-1.043147	1.034779
C104	C	0.065298	-0.543147	1.534779
C105	C	-0.434615	-1.043020	0.714386
C106	C	0.065385	-0.543020	1.214386
H107	H	-0.920329	-1.152772	0.265238
H108	H	-0.420329	-0.652772	0.765238
C109	C	-0.554718	-0.939128	0.799991
C110	C	-0.054718	-0.439128	1.299991
C111	C	-0.503574	-0.894392	0.753514
C112	C	-0.003574	-0.394392	1.253514
C113	C	-0.561048	-0.844529	0.717679
C114	C	-0.061048	-0.344529	1.217679
H115	H	-0.589074	-0.909403	0.835417
H116	H	-0.089074	-0.409403	1.335417
H117	H	-0.594034	-0.965381	0.771771
H118	H	-0.094034	-0.465381	1.271771
H119	H	-0.464273	-0.868142	0.781732
H120	H	0.035727	-0.368142	1.281732
H121	H	-0.469219	-0.924096	0.718074
H122	H	0.030781	-0.424096	1.218074
H123	H	-0.600365	-0.870781	0.689459
H124	H	-0.100365	-0.370781	1.189459
H125	H	-0.595402	-0.814809	0.753111
H126	H	-0.095402	-0.314809	1.253111
H127	H	-0.526356	-0.814174	0.686136
H128	H	-0.026356	-0.314174	1.186136
C129	C	-1.104029	-0.960633	0.457459
C130	C	-0.604029	-0.460633	0.957459
C131	C	-1.158104	-0.999738	0.507168
C132	C	-0.658104	-0.499738	1.007168
C133	C	-1.205262	-0.950563	0.556529
C134	C	-0.705262	-0.450563	1.056529
H135	H	-1.140852	-0.926845	0.431102
H136	H	-0.640852	-0.426845	0.931102
H137	H	-1.062507	-0.934544	0.483593
H138	H	-0.562507	-0.434544	0.983593
H139	H	-1.199621	-1.025815	0.481038
H140	H	-0.699621	-0.525815	0.981038
H141	H	-1.121303	-1.033523	0.533543
H142	H	-0.621303	-0.533523	1.033543
H143	H	-1.163741	-0.924474	0.582662
H144	H	-0.663741	-0.424474	1.082662
H145	H	-1.242080	-0.916778	0.530166
H146	H	-0.742080	-0.416778	1.030166
H147	H	-1.241952	-0.977089	0.590267
H148	H	-0.741952	-0.477089	1.090267
H149	H	-1.091244	-1.144752	0.273229
H150	H	-0.591244	-0.644752	0.773229
C151	C	-0.766255	-1.125599	0.292193
C152	C	-0.266255	-0.625599	0.792193
C153	C	-0.789177	-1.108514	0.220452
C154	C	-0.289177	-0.608514	0.720452
C155	C	-0.742140	-1.157706	0.171039
C156	C	-0.242140	-0.657706	0.671039
H157	H	-0.781660	-1.174346	0.303583
H158	H	-0.281660	-0.674346	0.803583
H159	H	-0.703386	-1.121801	0.295939
H160	H	-0.203386	-0.621801	0.795939
H161	H	-0.852032	-1.112319	0.216708
H162	H	-0.352032	-0.612319	0.716708
H163	H	-0.773770	-1.059776	0.209039
H164	H	-0.273770	-0.559776	0.709039
H165	H	-0.679272	-1.153907	0.174786
H166	H	-0.179272	-0.653907	0.674786
H167	H	-0.757549	-1.206449	0.182437
H168	H	-0.257549	-0.706449	0.682437
H169	H	-0.757681	-1.146116	0.122358
H170	H	-0.257681	-0.646116	0.622358
C171	C	-0.962682	-0.920183	0.497924
C172	C	-0.462682	-0.420183	0.997924
C173	C	-1.016745	-0.959299	0.547633
C174	C	-0.516745	-0.459299	1.047633
C175	C	-1.063888	-0.910134	0.597014
C176	C	-0.563888	-0.410134	1.097014
H177	H	-0.999512	-0.886387	0.471582
H178	H	-0.499512	-0.386387	0.971582
H179	H	-0.921151	-0.894102	0.524056
H180	H	-0.421151	-0.394102	1.024056
H181	H	-1.058271	-0.985368	0.521505
H182	H	-0.558271	-0.485368	1.021505
H183	H	-0.979938	-0.993092	0.573993
H184	H	-0.479938	-0.493092	1.073993
H185	H	-1.022357	-0.884053	0.623145
H186	H	-0.522357	-0.384053	1.123145
H187	H	-1.100713	-0.876341	0.570665
H188	H	-0.600713	-0.376341	1.070665
H189	H	-1.100569	-0.936668	0.630751
H190	H	-0.600569	-0.436668	1.130751
H191	H	-0.330169	-0.478602	0.284558
H192	H	0.169831	0.021398	0.784558
H193	H	-0.778917	-0.941460	0.476462
H194	H	-0.278917	-0.441460	0.976462
H195	H	-0.539114	-0.608208	0.465375
H196	H	-0.039114	-0.108208	0.965375
H197	H	-0.539251	-0.952748	0.949236
H198	H	-0.039251	-0.452748	1.449236
H199	H	-0.330108	-1.133478	0.939370
H200	H	0.169892	-0.633478	1.439370
C201	C	-0.554797	-0.457739	0.478989
C202	C	-0.054797	0.042261	0.978989
C203	C	-0.605206	-0.505473	0.522641
C204	C	-0.105206	-0.005473	1.022641
C205	C	-0.662843	-0.464478	0.572577
C206	C	-0.162843	0.035522	1.072577
H207	H	-0.594250	-0.425921	0.452819
H208	H	-0.094250	0.074079	0.952819
H209	H	-0.520240	-0.429375	0.509435
H210	H	-0.020240	0.070625	1.009435
H211	H	-0.639761	-0.533824	0.492200
H212	H	-0.139761	-0.033824	0.992200
H213	H	-0.565777	-0.537291	0.548828
H214	H	-0.065777	-0.037291	1.048828
H215	H	-0.628286	-0.436114	0.603022
H216	H	-0.128286	0.063886	1.103022
H217	H	-0.702290	-0.432662	0.546400
H218	H	-0.202290	0.067338	1.046400
H219	H	-0.697046	-0.496859	0.602205
H220	H	-0.197046	0.003141	1.102205
C221	C	-0.314414	-0.629091	0.270985
C222	C	0.185586	-0.129091	0.770985
C223	C	-0.263963	-0.581364	0.227359
C224	C	0.236037	-0.081364	0.727359
C225	C	-0.206254	-0.622369	0.177484
C226	C	0.293746	-0.122369	0.677484
H227	H	-0.348892	-0.657475	0.240510
H228	H	0.151108	-0.157475	0.740510
H229	H	-0.274997	-0.660891	0.297226
H230	H	0.225003	-0.160891	0.797226
H231	H	-0.303375	-0.549577	0.201120
H232	H	0.196625	-0.049577	0.701120
H233	H	-0.229466	-0.552980	0.257813
H234	H	0.270534	-0.052980	0.757813
H235	H	-0.166836	-0.654169	0.203725
H236	H	0.333164	-0.154169	0.703725
H237	H	-0.240739	-0.650752	0.147015
H238	H	0.259261	-0.150752	0.647015
H239	H	-0.172010	-0.589993	0.147882
H240	H	0.327990	-0.089993	0.647882
C241	C	-0.314386	-1.147019	0.788898
C242	C	0.185614	-0.647019	1.288898
C243	C	-0.263941	-1.190670	0.836628
C244	C	0.236059	-0.690670	1.336628
C245	C	-0.206250	-1.240564	0.795627
C246	C	0.293750	-0.740564	1.295627
H247	H	-0.274958	-1.120815	0.757106
H248	H	0.225042	-0.620815	1.257106
H249	H	-0.348906	-1.177469	0.760508
H250	H	0.151094	-0.677469	1.260508
H251	H	-0.229424	-1.160224	0.865005
H252	H	0.270576	-0.660224	1.365005
H253	H	-0.303345	-1.216890	0.868421
H254	H	0.196655	-0.716890	1.368421
H255	H	-0.240770	-1.271015	0.767237
H256	H	0.259230	-0.771015	1.267237
H257	H	-0.166828	-1.214355	0.763837
H258	H	0.333172	-0.714355	1.263837
H259	H	-0.172022	-1.270192	0.828006
H260	H	0.327978	-0.770192	1.328006
