data_functionalizedCrystal
_audit_creation_method	'MofGen! by Chris Wilmer'
_symmetry_space_group_name_H-M	'P1'
_symmetry_Int_Tables_number	1
_symmetry_cell_setting	triclinic
loop_
_symmetry_equiv_pos_as_xyz
  x,y,z
_cell_length_a	34.490303
_cell_length_b	34.489386
_cell_length_c	34.485816
_cell_angle_alpha	60.004462
_cell_angle_beta	60.008900
_cell_angle_gamma	59.994399
loop_
_atom_site_label
_atom_site_type_symbol
_atom_site_fract_x
_atom_site_fract_y
_atom_site_fract_z
O1	O	0.053846	-0.566517	0.473678
O2	O	0.553846	-0.066517	0.973678
O3	O	0.020329	-0.441078	0.381663
O4	O	0.520329	0.058922	0.881663
O5	O	0.099768	-0.520436	0.381578
O6	O	0.599768	-0.020436	0.881578
O7	O	-0.025592	-0.487159	0.473762
O8	O	0.474408	0.012841	0.973762
O9	O	0.126127	-0.494082	0.407849
O10	O	0.626127	0.005918	0.907849
O11	O	0.046689	-0.414724	0.407933
O12	O	0.546689	0.085276	0.907933
O13	O	0.080206	-0.540163	0.499949
O14	O	0.580206	-0.040163	0.999949
Zn15	Zn	0.067632	-0.473259	0.458112
Zn16	Zn	0.567632	0.026741	0.958112
Zn17	Zn	0.032903	-0.507982	0.423499
Zn18	Zn	0.532903	-0.007982	0.923499
O19	O	0.000767	-0.460805	0.500033
O20	O	0.500767	0.039195	1.000033
N21	N	0.091336	-0.449565	0.481736
N22	N	0.591336	0.050435	0.981736
N23	N	0.009203	-0.531680	0.399875
N24	N	0.509203	-0.031680	0.899875
C25	C	0.142510	-0.268211	0.532817
C26	C	0.642510	0.231789	1.032817
C27	C	0.142641	-0.398441	0.662987
C28	C	0.642641	0.101559	1.162987
C29	C	0.142524	-0.398421	0.532817
C30	C	0.642524	0.101579	1.032817
C31	C	0.272762	-0.398394	0.532723
C32	C	0.772762	0.101606	1.032723
C33	C	0.156853	-0.311177	0.547124
C34	C	0.656853	0.188823	1.047124
C35	C	0.156928	-0.384109	0.620020
C36	C	0.656928	0.115891	1.120020
C37	C	0.229794	-0.384081	0.547073
C38	C	0.729794	0.115919	1.047073
C39	C	0.156863	-0.384097	0.547124
C40	C	0.656863	0.115903	1.047124
C41	C	0.124253	-0.213522	0.514606
C42	C	0.624253	0.286478	1.014606
C43	C	0.124277	-0.416652	0.514606
C44	C	0.624277	0.083348	1.014606
C45	C	0.175110	-0.365866	0.565335
C46	C	0.675110	0.134134	1.065335
C47	C	0.352285	-0.384669	0.490824
C48	C	0.852285	0.115331	0.990824
C49	C	0.401998	-0.401229	0.474223
C50	C	0.901998	0.098771	0.974223
C51	C	0.402027	-0.481671	0.504898
C52	C	0.902027	0.018329	1.004898
C53	C	0.352316	-0.465109	0.521500
C54	C	0.852316	0.034891	1.021500
C55	C	0.136220	-0.188652	0.465734
C56	C	0.636220	0.311348	0.965734
C57	C	0.119621	-0.138936	0.449181
C58	C	0.619621	0.361064	0.949181
C59	C	0.079092	-0.138961	0.530374
C60	C	0.579092	0.361039	1.030374
C61	C	0.095691	-0.188678	0.546927
C62	C	0.595691	0.311322	1.046927
C63	C	0.075398	-0.404656	0.526651
C64	C	0.575398	0.095344	1.026651
C65	C	0.058814	-0.421229	0.510091
C66	C	0.558814	0.078771	1.010091
C67	C	0.139984	-0.461794	0.469452
C68	C	0.639984	0.038206	0.969452
C69	C	0.156570	-0.445221	0.486007
C70	C	0.656570	0.054779	0.986007
C71	C	0.075593	-0.404694	0.742565
C72	C	0.575593	0.095306	1.242565
C73	C	0.059066	-0.421281	0.792280
C74	C	0.559066	0.078719	1.292280
C75	C	0.140274	-0.461856	0.792215
C76	C	0.640274	0.038144	1.292215
C77	C	0.156800	-0.445269	0.742499
C78	C	0.656800	0.054731	1.242499
C79	C	0.124458	-0.416687	0.717675
C80	C	0.624458	0.083313	1.217675
C81	C	0.327446	-0.416608	0.514460
C82	C	0.827446	0.083392	1.014460
C83	C	-0.023585	-0.564792	0.161919
C84	C	0.476415	-0.064792	0.661919
C85	C	-0.023910	-0.769260	0.366530
C86	C	0.476090	-0.269260	0.866530
C87	C	-0.023880	-0.564780	0.366623
C88	C	0.476120	-0.064780	0.866623
C89	C	-0.228325	-0.564561	0.366222
C90	C	0.271675	-0.064561	0.866222
C91	C	-0.129610	-0.597564	0.333467
C92	C	0.370390	-0.097564	0.833467
C93	C	-0.056729	-0.597644	0.333613
C94	C	0.443271	-0.097644	0.833613
C95	C	-0.074925	-0.615849	0.315324
C96	C	0.425075	-0.115849	0.815324
C97	C	-0.088689	-0.695351	0.357144
C98	C	0.411311	-0.195351	0.857144
C99	C	-0.072155	-0.745068	0.373736
C100	C	0.427845	-0.245068	0.873736
C101	C	0.008283	-0.745150	0.343188
C102	C	0.508283	-0.245150	0.843188
C103	C	-0.008252	-0.695435	0.326596
C104	C	0.491748	-0.195435	0.826596
C105	C	-0.154529	-0.609541	0.382326
C106	C	0.345471	-0.109541	0.882326
C107	C	-0.204241	-0.592916	0.398818
C108	C	0.295759	-0.092916	0.898818
C109	C	-0.204114	-0.552341	0.317588
C110	C	0.295886	-0.052341	0.817588
C111	C	-0.154401	-0.568966	0.301096
C112	C	0.345599	-0.068966	0.801096
C113	C	-0.068707	-0.548770	0.321590
C114	C	0.431293	-0.048770	0.821590
C115	C	-0.052166	-0.532225	0.338221
C116	C	0.447834	-0.032225	0.838221
C117	C	-0.011669	-0.613425	0.378886
C118	C	0.488331	-0.113425	0.878886
C119	C	-0.028210	-0.629972	0.362261
C120	C	0.471790	-0.129972	0.862261
C121	C	-0.068581	-0.548777	0.235758
C122	C	0.431419	-0.048777	0.735758
C123	C	-0.051939	-0.532234	0.186043
C124	C	0.448061	-0.032234	0.686043
C125	C	-0.011379	-0.613438	0.186090
C126	C	0.488621	-0.113438	0.686090
C127	C	-0.028020	-0.629981	0.235806
C128	C	0.471980	-0.129981	0.735806
C129	C	-0.056622	-0.597649	0.260639
C130	C	0.443378	-0.097649	0.760639
C131	C	-0.056739	-0.670537	0.333576
C132	C	0.443261	-0.170537	0.833576
C133	C	-0.005614	-0.545951	0.107238
C134	C	0.494386	-0.045951	0.607238
C135	C	-0.006360	-0.823943	0.385033
C136	C	0.493640	-0.323943	0.885033
C137	C	-0.005995	-0.545937	0.384582
C138	C	0.494005	-0.045937	0.884582
C139	C	-0.283006	-0.545971	0.383725
C140	C	0.216994	-0.045971	0.883725
N141	N	0.426163	-0.449489	0.481488
N142	N	0.926163	0.050511	0.981488
O143	O	0.588601	-0.457377	0.364497
O144	O	1.088601	0.042623	0.864497
O145	O	0.588789	-0.549696	0.489801
O146	O	1.088789	-0.049696	0.989801
O147	O	0.588709	-0.549485	0.410335
O148	O	1.088709	-0.049485	0.910335
O149	O	0.588681	-0.457588	0.443963
O150	O	1.088681	0.042412	0.943963
O151	O	0.509731	-0.523223	0.436741
O152	O	1.009731	-0.023223	0.936741
O153	O	0.509811	-0.523434	0.516207
O154	O	1.009811	-0.023434	1.016207
O155	O	0.509624	-0.431115	0.390903
O156	O	1.009624	0.068885	0.890903
Zn157	Zn	0.497178	-0.473105	0.457747
Zn158	Zn	0.997178	0.026895	0.957747
Zn159	Zn	0.601234	-0.507706	0.422956
Zn160	Zn	1.101234	-0.007706	0.922956
O161	O	0.509704	-0.431326	0.470368
O162	O	1.009704	0.068674	0.970368
N163	N	0.672250	-0.531322	0.399211
N164	N	1.172250	-0.031322	0.899211
N165	N	0.091303	-0.114798	0.481730
N166	N	0.591303	0.385202	0.981730
O167	O	-0.025603	0.047729	0.473733
O168	O	0.474397	0.547729	0.973733
O169	O	0.099703	0.047764	0.381394
O170	O	0.599703	0.547764	0.881394
O171	O	0.020199	0.047731	0.381655
O172	O	0.520199	0.547731	0.881655
O173	O	0.053901	0.047761	0.473472
O174	O	0.553901	0.547761	0.973472
O175	O	0.046564	-0.031252	0.407974
O176	O	0.546564	0.468748	0.907974
O177	O	0.126068	-0.031219	0.407713
O178	O	0.626068	0.468781	0.907713
O179	O	0.000762	-0.031254	0.500052
O180	O	0.500762	0.468746	1.000052
Zn181	Zn	0.067601	-0.043777	0.458061
Zn182	Zn	0.567601	0.456223	0.958061
Zn183	Zn	0.032864	0.060287	0.423385
Zn184	Zn	0.532864	0.560287	0.923385
O185	O	0.080266	-0.031222	0.499791
O186	O	0.580266	0.468778	0.999791
N187	N	0.009156	0.131307	0.399717
N188	N	0.509156	0.631307	0.899717
N189	N	0.091635	-0.449614	0.816396
N190	N	0.591635	0.050386	1.316396
O191	O	0.083664	-0.566502	0.978913
O192	O	0.583664	-0.066502	1.478913
O193	O	-0.008637	-0.441152	0.978954
O194	O	0.491363	0.058848	1.478954
O195	O	-0.008421	-0.520640	0.978930
O196	O	0.491579	-0.020640	1.478930
O197	O	0.083448	-0.487013	0.978936
O198	O	0.583448	0.012987	1.478936
O199	O	0.017877	-0.494296	0.899950
O200	O	0.517877	0.005704	1.399950
O201	O	0.017661	-0.414807	0.899974
O202	O	0.517661	0.085193	1.399974
O203	O	0.109961	-0.540157	0.899933
O204	O	0.609961	-0.040157	1.399933
Zn205	Zn	0.067986	-0.473299	0.887414
Zn206	Zn	0.567986	0.026701	1.387414
Zn207	Zn	0.033338	-0.508010	0.991473
Zn208	Zn	0.533338	-0.008010	1.491473
O209	O	0.109746	-0.460669	0.899956
O210	O	0.609746	0.039331	1.399956
N211	N	0.009689	-0.531700	1.062491
N212	N	0.509689	-0.031700	1.562491
C213	C	0.030367	-0.412095	0.382120
C214	C	0.530367	0.087905	0.882120
C215	C	0.128741	-0.510370	0.382016
C216	C	0.628741	-0.010370	0.882016
C217	C	0.070168	-0.569147	0.499490
C218	C	0.570168	-0.069147	0.999490
C219	C	-0.028207	-0.470871	0.499595
C220	C	0.471793	0.029129	0.999595
C221	C	0.549323	-0.549278	0.518791
C222	C	1.049323	-0.049278	1.018791
C223	C	0.549225	-0.549017	0.420381
C224	C	1.049225	-0.049017	0.920381
C225	C	0.549087	-0.431532	0.361914
C226	C	1.049087	0.068468	0.861914
C227	C	0.549188	-0.431794	0.460322
C228	C	1.049188	0.068206	0.960322
C229	C	0.128638	0.008374	0.381806
C230	C	0.628638	0.508374	0.881806
C231	C	0.030215	0.008236	0.382161
C232	C	0.530215	0.508236	0.882161
C233	C	-0.028206	0.008233	0.499608
C234	C	0.471794	0.508233	0.999608
C235	C	0.070250	0.008272	0.499285
C236	C	0.570250	0.508272	0.999285
C237	C	-0.008199	-0.412187	0.939469
C238	C	0.491801	0.087813	1.439469
C239	C	-0.007927	-0.510619	0.939425
C240	C	0.492073	-0.010619	1.439425
C241	C	0.109523	-0.569121	0.939417
C242	C	0.609523	-0.069121	1.439417
C243	C	0.109257	-0.470684	0.939444
C244	C	0.609257	0.029316	1.439444
H245	H	0.019274	-0.411508	0.812539
H246	H	0.519274	0.088492	1.312539
H247	H	0.549237	-0.577886	0.413185
H248	H	1.049237	-0.077886	0.913185
H249	H	0.549371	-0.578259	0.554780
H250	H	1.049371	-0.078259	1.054780
O251	O	0.143750	-0.462137	0.939375
O252	O	0.643750	0.037863	1.439375
C253	C	0.183776	-0.467395	0.898455
C254	C	0.683776	0.032605	1.398455
H255	H	0.183398	-0.491214	0.884813
H256	H	0.683398	0.008786	1.384813
H257	H	0.217489	-0.484150	0.907644
H258	H	0.717489	0.015850	1.407644
H259	H	0.182806	-0.431076	0.869820
H260	H	0.682806	0.068924	1.369820
H261	H	0.549027	-0.402547	0.325928
H262	H	1.049027	0.097453	0.825928
O263	O	0.084039	-0.212869	0.594394
O264	O	0.584039	0.287131	1.094394
C265	C	0.059043	-0.241664	0.606441
C266	C	0.559043	0.258336	1.106441
H267	H	0.042161	-0.226682	0.578458
H268	H	0.542161	0.273318	1.078458
H269	H	0.030121	-0.242266	0.642559
H270	H	0.530121	0.257734	1.142559
H271	H	0.084633	-0.279328	0.608049
H272	H	0.584633	0.220672	1.108049
H273	H	0.138503	-0.605120	0.939399
H274	H	0.638503	-0.105120	1.439399
O275	O	0.021775	-0.369129	0.347626
O276	O	0.521775	0.130871	0.847626
C277	C	-0.016688	-0.360656	0.336721
C278	C	0.483312	0.139344	0.836721
H279	H	-0.020460	-0.395933	0.347200
H280	H	0.479540	0.104067	0.847200
H281	H	-0.009978	-0.341392	0.296978
H282	H	0.490022	0.158608	0.796978
H283	H	-0.050727	-0.337791	0.357164
H284	H	0.449273	0.162209	0.857164
H285	H	0.077330	-0.605181	0.528391
H286	H	0.577330	-0.105181	1.028391
H287	H	-0.064192	0.008222	0.528596
H288	H	0.435808	0.508222	1.028596
O289	O	0.549156	-0.397397	0.468988
O290	O	1.049156	0.102603	0.968988
C291	C	0.549229	-0.414704	0.515650
C292	C	1.049229	0.085296	1.015650
H293	H	0.534316	-0.445210	0.538125
H294	H	1.034316	0.054790	1.038125
H295	H	0.526295	-0.384972	0.531647
H296	H	1.026295	0.115028	1.031647
H297	H	0.587131	-0.427923	0.514911
H298	H	1.087131	0.072077	1.014911
H299	H	-0.064213	-0.463781	0.528541
H300	H	0.435787	0.036219	1.028541
O301	O	0.171498	0.008671	0.347179
O302	O	0.671498	0.508671	0.847179
C303	C	0.201044	0.008764	0.364223
C304	C	0.701044	0.508764	0.864223
H305	H	0.178209	0.023559	0.394819
H306	H	0.678209	0.523559	0.894819
H307	H	0.223603	0.031885	0.334397
H308	H	0.723603	0.531885	0.834397
H309	H	0.225212	-0.029075	0.377234
H310	H	0.725212	0.470925	0.877234
H311	H	0.022995	0.008233	0.353314
H312	H	0.522995	0.508233	0.853314
H313	H	0.077468	0.008281	0.528131
H314	H	0.577468	0.508281	1.028131
O315	O	-0.042726	-0.369221	0.939504
O316	O	0.457274	0.130779	1.439504
C317	C	-0.025629	-0.339664	0.939499
C318	C	0.474371	0.160336	1.439499
H319	H	0.004863	-0.362499	0.954444
H320	H	0.504863	0.137501	1.454444
H321	H	-0.055469	-0.316916	0.962439
H322	H	0.444531	0.183084	1.462439
H323	H	-0.012457	-0.315676	0.901611
H324	H	0.487543	0.184324	1.401611
O325	O	-0.042329	-0.519262	0.939446
O326	O	0.457671	-0.019262	1.439446
C327	C	-0.053249	-0.557716	0.980335
C328	C	0.446751	-0.057716	1.480335
H329	H	-0.021869	-0.580461	0.993990
H330	H	0.478131	-0.080461	1.493990
H331	H	-0.060826	-0.580143	0.971100
H332	H	0.439174	-0.080143	1.471100
H333	H	-0.085883	-0.543640	1.008977
H334	H	0.414117	-0.043640	1.508977
H335	H	0.049253	-0.381417	0.722357
H336	H	0.549253	0.118583	1.222357
H337	H	0.166612	-0.485121	0.812425
H338	H	0.666612	0.014879	1.312425
O339	O	0.171726	-0.518898	0.347538
O340	O	0.671726	-0.018898	0.847538
C341	C	0.201240	-0.565564	0.364692
C342	C	0.701240	-0.065564	0.864692
H343	H	0.188361	-0.578142	0.405142
H344	H	0.688361	-0.078142	0.905142
H345	H	0.239292	-0.566160	0.350140
H346	H	0.739292	-0.066160	0.850140
H347	H	0.199931	-0.590123	0.352666
H348	H	0.699931	-0.090123	0.852666
H349	H	0.196592	-0.455039	0.722237
H350	H	0.696592	0.044961	1.222237
H351	H	0.049100	-0.381393	0.549936
H352	H	0.549100	0.118607	1.049936
H353	H	0.166284	-0.485062	0.446169
H354	H	0.666284	0.014938	0.946169
O355	O	0.011318	-0.409555	0.521854
O356	O	0.511318	0.090445	1.021854
C357	C	-0.013630	-0.380782	0.550643
C358	C	0.486370	0.119218	1.050643
H359	H	0.010104	-0.387124	0.568692
H360	H	0.510104	0.112876	1.068692
H361	H	-0.046784	-0.390121	0.578790
H362	H	0.453216	0.109879	1.078790
H363	H	-0.024384	-0.341836	0.527729
H364	H	0.475616	0.158164	1.027729
H365	H	0.332093	-0.491119	0.540748
H366	H	0.832093	0.008881	1.040748
O367	O	0.204061	-0.456845	0.474222
O368	O	0.704061	0.043155	0.974222
C369	C	0.224657	-0.439811	0.424426
C370	C	0.724657	0.060189	0.924426
H371	H	0.201065	-0.434947	0.407052
H372	H	0.701065	0.065053	0.907052
H373	H	0.261230	-0.466440	0.412774
H374	H	0.761230	0.033560	0.912774
H375	H	0.228333	-0.404275	0.413183
H376	H	0.728333	0.095725	0.913183
O377	O	0.426134	-0.528786	0.511706
O378	O	0.926134	-0.028786	1.011706
C379	C	0.413974	-0.543968	0.489385
C380	C	0.913974	-0.043968	0.989385
H381	H	0.377864	-0.518763	0.485178
H382	H	0.877864	-0.018763	0.985178
H383	H	0.412296	-0.581374	0.512011
H384	H	0.912296	-0.081374	1.012011
H385	H	0.441929	-0.544044	0.452919
H386	H	0.941929	-0.044044	0.952919
O387	O	0.426109	-0.370174	0.451188
O388	O	0.926109	0.129826	0.951188
C389	C	0.413911	-0.336418	0.410224
C390	C	0.913911	0.163582	0.910224
H391	H	0.400229	-0.351739	0.398817
H392	H	0.900229	0.148261	0.898817
H393	H	0.446588	-0.327310	0.380365
H394	H	0.946588	0.172690	0.880365
H395	H	0.385055	-0.302908	0.418365
H396	H	0.885055	0.197092	0.918365
O397	O	0.328104	-0.337548	0.483926
O398	O	0.828104	0.162452	0.983926
C399	C	0.299309	-0.320326	0.456923
C400	C	0.799309	0.179674	0.956923
H401	H	0.314278	-0.344481	0.435673
H402	H	0.814278	0.155519	0.935673
H403	H	0.298724	-0.282808	0.431564
H404	H	0.798724	0.217192	0.931564
H405	H	0.261643	-0.319763	0.481694
H406	H	0.761643	0.180237	0.981694
H407	H	0.159477	-0.208876	0.439413
H408	H	0.659477	0.291124	0.939413
H409	H	0.129365	-0.118686	0.409385
H410	H	0.629365	0.381314	0.909385
H411	H	-0.061683	-0.492436	0.165791
H412	H	0.438317	0.007564	0.665791
O413	O	0.051407	-0.114880	0.561816
O414	O	0.551407	0.385120	1.061816
C415	C	0.076552	-0.127018	0.590519
C416	C	0.576552	0.372982	1.090519
H417	H	0.105502	-0.163107	0.590982
H418	H	0.605502	0.336893	1.090982
H419	H	0.051074	-0.128736	0.628232
H420	H	0.551074	0.371264	1.128232
H421	H	0.093411	-0.099027	0.575554
H422	H	0.593411	0.400973	1.075554
O423	O	-0.096290	-0.517353	0.259863
O424	O	0.403710	-0.017353	0.759863
C425	C	-0.071179	-0.488641	0.247757
C426	C	0.428821	0.011359	0.747757
H427	H	-0.031407	-0.507874	0.234142
H428	H	0.468593	-0.007874	0.734142
H429	H	-0.080107	-0.481123	0.280463
H430	H	0.419893	0.018877	0.780463
H431	H	-0.081717	-0.453711	0.218876
H432	H	0.418283	0.046289	0.718876
O433	O	0.016342	-0.644893	0.162024
O434	O	0.516342	-0.144893	0.662024
C435	C	-0.008780	-0.673587	0.174115
C436	C	0.491220	-0.173587	0.674115
H437	H	-0.037758	-0.674036	0.210180
H438	H	0.462242	-0.174036	0.710180
H439	H	0.016706	-0.711307	0.175856
H440	H	0.516706	-0.211307	0.675856
H441	H	-0.025601	-0.658622	0.146085
H442	H	0.474399	-0.158622	0.646085
O443	O	-0.016486	-0.677446	0.260028
O444	O	0.483514	-0.177446	0.760028
C445	C	-0.058280	-0.689410	0.288710
C446	C	0.441720	-0.189410	0.788710
H447	H	-0.089509	-0.656624	0.296115
H448	H	0.410491	-0.156624	0.796115
H449	H	-0.053891	-0.718235	0.323694
H450	H	0.446109	-0.218235	0.823694
H451	H	-0.065236	-0.703046	0.269516
H452	H	0.434764	-0.203046	0.769516
H453	H	-0.091926	-0.522444	0.298262
H454	H	0.408074	-0.022444	0.798262
H455	H	0.011557	-0.639751	0.402207
H456	H	0.511557	-0.139751	0.902207
O457	O	-0.063731	-0.484745	0.326458
O458	O	0.436269	0.015255	0.826458
C459	C	-0.046659	-0.464135	0.276666
C460	C	0.453341	0.035865	0.776666
H461	H	-0.016000	-0.492476	0.260684
H462	H	0.484000	0.007524	0.760684
H463	H	-0.033726	-0.434861	0.267178
H464	H	0.466274	0.065139	0.767178
H465	H	-0.076443	-0.448403	0.261871
H466	H	0.423557	0.051597	0.761871
H467	H	-0.018458	-0.669769	0.372051
H468	H	0.481542	-0.169769	0.872051
H469	H	0.047765	-0.765423	0.337508
H470	H	0.547765	-0.265423	0.837508
O471	O	0.022848	-0.671402	0.303730
O472	O	0.522848	-0.171402	0.803730
C473	C	0.069189	-0.704041	0.301120
C474	C	0.569189	-0.204041	0.801120
H475	H	0.067255	-0.739465	0.330485
H476	H	0.567255	-0.239465	0.830485
H477	H	0.089580	-0.689701	0.305670
H478	H	0.589580	-0.189701	0.805670
H479	H	0.088206	-0.709349	0.265097
H480	H	0.588206	-0.209349	0.765097
O481	O	-0.228524	-0.604488	0.446267
O482	O	0.271476	-0.104488	0.946267
C483	C	-0.277718	-0.583694	0.453882
C484	C	0.222282	-0.083694	0.953882
H485	H	-0.284449	-0.551783	0.421235
H486	H	0.215551	-0.051783	0.921235
H487	H	-0.296651	-0.571617	0.486098
H488	H	0.203349	-0.071617	0.986098
H489	H	-0.291832	-0.610866	0.460470
H490	H	0.208168	-0.110866	0.960470
O491	O	-0.103255	-0.769099	0.396608
O492	O	0.396745	-0.269099	0.896608
C493	C	-0.126518	-0.756949	0.366160
C494	C	0.373482	-0.256949	0.866160
H495	H	-0.125304	-0.720887	0.337824
H496	H	0.374696	-0.220887	0.837824
H497	H	-0.165071	-0.755169	0.387628
H498	H	0.334929	-0.255169	0.887628
H499	H	-0.107991	-0.784967	0.348408
H500	H	0.392009	-0.284967	0.848408
O501	O	-0.130497	-0.637368	0.413814
O502	O	0.369503	-0.137368	0.913814
C503	C	-0.142682	-0.679040	0.442532
C504	C	0.357318	-0.179040	0.942532
H505	H	-0.178761	-0.672334	0.442956
H506	H	0.321239	-0.172334	0.942956
H507	H	-0.144438	-0.689519	0.480255
H508	H	0.355562	-0.189519	0.980255
H509	H	-0.114699	-0.708964	0.427610
H510	H	0.385301	-0.208964	0.927610
O511	O	-0.228149	-0.524619	0.286101
O512	O	0.271851	-0.024619	0.786101
C513	C	-0.215985	-0.549735	0.257362
C514	C	0.284015	-0.049735	0.757362
H515	H	-0.179910	-0.578705	0.256928
H516	H	0.320090	-0.078705	0.756928
H517	H	-0.214228	-0.524239	0.219645
H518	H	0.285772	-0.024239	0.719645
H519	H	-0.243979	-0.566571	0.272271
H520	H	0.256021	-0.066571	0.772271
H521	H	-0.134111	-0.559208	0.261309
H522	H	0.365889	-0.059208	0.761309
H523	H	-0.128170	-0.675084	0.362831
H524	H	0.371830	-0.175084	0.862831
