data_functionalizedCrystal
_audit_creation_method	'MofGen! by Chris Wilmer'
_symmetry_space_group_name_H-M	'P1'
_symmetry_Int_Tables_number	1
_symmetry_cell_setting	triclinic
loop_
_symmetry_equiv_pos_as_xyz
  x,y,z
_cell_length_a	16.974800
_cell_length_b	10.654550
_cell_length_c	15.455313
_cell_angle_alpha	92.692163
_cell_angle_beta	90.973911
_cell_angle_gamma	83.936244
loop_
_atom_site_label
_atom_site_type_symbol
_atom_site_fract_x
_atom_site_fract_y
_atom_site_fract_z
O1	O	1.049949	0.160090	0.001602
O2	O	0.820622	0.179269	-0.014503
O3	O	0.940558	-0.013114	-0.006077
O4	O	0.930013	0.352473	-0.006824
O5	O	0.933699	-0.002158	0.137703
O6	O	0.813763	0.190225	0.129277
O7	O	1.043091	0.171046	0.145383
Cu8	Cu	0.927800	0.181636	0.150458
Cu9	Cu	0.935912	0.168679	-0.019579
O10	O	0.923154	0.363429	0.136956
C11	C	0.787828	0.183817	0.055325
C12	C	0.700331	0.181030	0.049180
C13	C	0.655491	0.185690	0.124669
C14	C	0.573279	0.183052	0.118898
C15	C	0.535909	0.175763	0.037636
C16	C	0.580756	0.171099	-0.037859
C17	C	0.662966	0.173728	-0.032087
C18	C	0.290438	0.167250	0.011969
C19	C	0.208222	0.164625	0.006202
C20	C	0.200751	0.176576	0.162960
C21	C	0.282963	0.179212	0.168725
C22	C	0.327803	0.174541	0.093230
N23	N	0.451876	0.173070	0.031735
N24	N	0.411835	0.177225	0.099132
C25	C	0.936354	-0.054426	0.065758
C26	C	0.934038	-0.193845	0.065592
C27	C	1.004655	-0.274061	0.070554
C28	C	1.002473	-0.405060	0.070395
C29	C	0.859053	-0.375614	0.060315
C30	C	0.861235	-0.244618	0.060468
C31	C	1.077458	-0.223289	0.075678
C32	C	1.148080	-0.303506	0.080642
C33	C	1.145899	-0.434505	0.080482
C34	C	1.073095	-0.485286	0.075360
C35	C	1.075885	0.166498	0.075553
C36	C	1.163382	0.169285	0.081692
C37	C	0.927358	0.404741	0.065120
C38	C	0.929675	0.544160	0.065280
N39	N	0.922101	0.190748	0.270053
N40	N	0.941617	0.159557	-0.139173
C41	C	0.973072	0.109047	0.319028
C42	C	0.968770	0.115950	0.409534
C43	C	0.913499	0.204561	0.451063
C44	C	0.862522	0.286265	0.402081
C45	C	0.866822	0.279355	0.311577
C46	C	0.894940	0.234352	0.721340
C47	C	0.890646	0.241258	0.811851
C48	C	0.996893	0.070941	0.819298
C49	C	1.001191	0.064044	0.728792
C50	C	0.950211	0.145744	0.679818
N51	N	0.909101	0.211621	0.543574
N52	N	0.954606	0.138676	0.587308
H53	H	0.177798	0.158692	-0.059974
H54	H	1.071325	-0.591956	0.075221
O55	O	1.018314	0.036774	0.457210
C56	C	1.064814	0.108255	0.512968
H57	H	1.033311	0.207418	0.524353
H58	H	1.124758	0.114392	0.482170
C59	C	1.115878	-0.077701	0.586117
C60	C	1.077183	0.044090	0.600105
H61	H	1.123511	-0.117282	0.639866
H62	H	1.084552	-0.125861	0.548549
H63	H	1.165828	-0.072570	0.560449
H64	H	1.027230	0.038957	0.625762
H65	H	1.108500	0.092248	0.637679
H66	H	1.207355	-0.262153	0.084791
H67	H	0.799779	-0.416971	0.056145
O68	O	0.792564	-0.166865	0.055680
C69	C	0.727839	-0.239765	0.051109
H70	H	0.746000	-0.335386	0.079702
H71	H	0.708854	-0.254428	-0.019436
C72	C	0.635942	-0.052983	0.067668
C73	C	0.658247	-0.170422	0.102793
H74	H	0.593012	-0.010208	0.099546
H75	H	0.679548	-0.003867	0.070745
H76	H	0.620126	-0.065218	0.008882
H77	H	0.674071	-0.158184	0.161575
H78	H	0.614642	-0.219534	0.099728
H79	H	0.326938	0.163443	-0.049505
O80	O	0.845356	0.313549	0.673727
C81	C	0.798870	0.242093	0.617935
H82	H	0.795694	0.145129	0.645085
H83	H	0.826759	0.230381	0.551069
C84	C	0.718610	0.429937	0.577292
C85	C	0.714704	0.310847	0.610643
H86	H	0.666693	0.472348	0.572790
H87	H	0.749930	0.478079	0.614878
H88	H	0.741854	0.420159	0.521574
H89	H	0.691470	0.320626	0.666364
H90	H	0.683378	0.262708	0.573067
H91	H	0.817515	0.358410	0.435899
H92	H	1.018083	0.036897	0.285222
O93	O	1.046373	-0.008608	0.866776
C94	C	1.033915	-0.134667	0.843741
H95	H	1.006665	-0.139656	0.775902
H96	H	0.992053	-0.169783	0.891919
C97	C	1.147136	-0.212065	0.928460
C98	C	1.113673	-0.218194	0.845135
H99	H	1.196333	-0.263591	0.929323
H100	H	1.155528	-0.127137	0.943982
H101	H	1.112243	-0.241326	0.968599
H102	H	1.148561	-0.188918	0.805000
H103	H	1.105290	-0.303120	0.829606
O104	O	0.836875	0.327363	0.852054
C105	C	0.792810	0.398008	0.789423
H106	H	0.794709	0.341596	0.724829
H107	H	0.819347	0.490694	0.781617
C108	C	0.703929	0.495465	0.898143
C109	C	0.706256	0.426173	0.818809
H110	H	0.650539	0.512844	0.916270
H111	H	0.733618	0.447874	0.940340
H112	H	0.726048	0.572695	0.891627
H113	H	0.684147	0.348939	0.825329
H114	H	0.676562	0.473752	0.776614
H115	H	1.046197	-0.008110	0.694981
O116	O	0.817275	0.358854	0.264131
C117	C	0.767556	0.438527	0.320190
H118	H	0.796808	0.445018	0.386965
H119	H	0.708339	0.398221	0.325709
C120	C	0.717799	0.563264	0.201752
C121	C	0.753729	0.571244	0.283765
H122	H	0.709266	0.645129	0.179283
H123	H	0.751293	0.509584	0.163984
H124	H	0.668455	0.529670	0.206362
H125	H	0.803077	0.604822	0.279153
H126	H	0.720243	0.624933	0.321533
H127	H	0.536775	0.186825	0.180370
O128	O	0.691770	0.192547	0.203629
C129	C	0.677726	0.086887	0.250492
H130	H	0.663140	0.006721	0.203455
H131	H	0.625790	0.113650	0.295879
C132	C	0.770159	0.142067	0.361686
C133	C	0.752251	0.043603	0.303913
H134	H	0.816127	0.115369	0.394642
H135	H	0.779619	0.213255	0.330116
H136	H	0.726873	0.164360	0.399500
H137	H	0.795531	0.021322	0.266093
H138	H	0.742800	-0.027591	0.335478
O139	O	0.319141	0.186239	0.247733
C140	C	0.261931	0.189821	0.313126
H141	H	0.207472	0.146467	0.286253
H142	H	0.244315	0.292038	0.336063
C143	C	0.363687	0.167466	0.422883
C144	C	0.296802	0.114209	0.389879
H145	H	0.385197	0.120831	0.470229
H146	H	0.402231	0.165058	0.378826
H147	H	0.348997	0.252645	0.441990
H148	H	0.311494	0.029037	0.370762
H149	H	0.258262	0.116601	0.433934
H150	H	1.079242	-0.116625	0.075811
H151	H	1.203403	-0.499816	0.084515
O152	O	0.544328	0.164074	-0.116729
C153	C	0.462153	0.162725	-0.105638
H154	H	0.444666	0.207222	-0.039283
H155	H	0.446721	0.061038	-0.110447
C156	C	0.438338	0.183852	-0.258162
C157	C	0.416858	0.238514	-0.176666
H158	H	0.410397	0.230597	-0.301977
H159	H	0.493701	0.184756	-0.265635
H160	H	0.425477	0.099115	-0.262157
H161	H	0.429729	0.323244	-0.172668
H162	H	0.361497	0.237626	-0.169194
O163	O	0.157177	0.180874	0.236268
C164	C	0.117722	0.071060	0.238195
H165	H	0.150443	-0.007485	0.195865
H166	H	0.054535	0.092030	0.212634
C167	C	0.075589	0.125346	0.384001
C168	C	0.115781	0.028873	0.332016
H169	H	0.074388	0.099325	0.441874
H170	H	0.102168	0.199333	0.382702
H171	H	0.022936	0.142812	0.362690
H172	H	0.168435	0.011419	0.353321
H173	H	0.089211	-0.045118	0.333321
O174	O	0.706576	0.168987	-0.105393
C175	C	0.762702	0.061502	-0.106147
H176	H	0.741633	-0.011851	-0.062998
H177	H	0.822119	0.089665	-0.080850
C178	C	0.798085	0.095227	-0.252427
C179	C	0.772205	0.005129	-0.199437
H180	H	0.803951	0.060456	-0.309972
H181	H	0.760275	0.167644	-0.251918
H182	H	0.847598	0.118689	-0.231336
H183	H	0.722689	-0.018319	-0.220522
H184	H	0.810007	-0.067294	-0.199951
