data_functionalizedCrystal
_audit_creation_method	'MofGen! by Chris Wilmer'
_symmetry_space_group_name_H-M	'P1'
_symmetry_Int_Tables_number	1
_symmetry_cell_setting	triclinic
loop_
_symmetry_equiv_pos_as_xyz
  x,y,z
_cell_length_a	19.805407
_cell_length_b	18.215405
_cell_length_c	18.215399
_cell_angle_alpha	90.030551
_cell_angle_beta	89.979366
_cell_angle_gamma	89.975115
loop_
_atom_site_label
_atom_site_type_symbol
_atom_site_fract_x
_atom_site_fract_y
_atom_site_fract_z
Zn1	Zn	1.034750	0.292992	-0.416118
Zn2	Zn	1.534750	0.792992	0.083882
Zn3	Zn	1.034666	0.416063	-0.293046
Zn4	Zn	1.534666	0.916063	0.206954
Zn5	Zn	0.921562	0.293015	-0.293064
Zn6	Zn	1.421562	0.793015	0.206936
Zn7	Zn	0.921531	0.416021	-0.416070
Zn8	Zn	1.421531	0.916021	0.083930
O9	O	0.978127	0.354523	-0.354575
O10	O	1.478127	0.854523	0.145425
O11	O	1.129455	0.309325	-0.399806
O12	O	1.629455	0.809325	0.100194
O13	O	1.019640	0.399768	-0.190064
O14	O	1.519640	0.899768	0.309936
O15	O	0.936625	0.190028	-0.309415
O16	O	1.436625	0.690028	0.190585
O17	O	1.129393	0.399745	-0.309385
O18	O	1.629393	0.899745	0.190615
O19	O	1.019784	0.190011	-0.399823
O20	O	1.519784	0.690011	0.100177
O21	O	0.936544	0.309365	-0.190077
O22	O	1.436544	0.809365	0.309923
O23	O	0.826842	0.309324	-0.309368
O24	O	1.326842	0.809324	0.190632
O25	O	0.936572	0.399674	-0.519060
O26	O	1.436572	0.899674	-0.019060
O27	O	0.826819	0.399696	-0.399740
O28	O	1.326819	0.899696	0.100260
O29	O	1.019753	0.309285	-0.519096
O30	O	1.519753	0.809285	-0.019096
O31	O	1.019610	0.519042	-0.309338
O32	O	1.519610	1.019042	0.190662
O33	O	0.936490	0.519011	-0.399723
O34	O	1.436490	1.019011	0.100277
C35	C	0.978056	0.545729	-0.354539
C36	C	1.478056	1.045729	0.145461
C37	C	0.978087	0.627528	-0.354549
C38	C	1.478087	1.127528	0.145451
C39	C	0.802271	0.354509	-0.354551
C40	C	1.302271	0.854509	0.145449
C41	C	0.727039	0.354520	-0.354558
C42	C	1.227039	0.854520	0.145442
C43	C	0.978169	0.354472	-0.546528
C44	C	1.478169	0.854472	-0.046528
C45	C	0.978186	0.354450	-0.628327
C46	C	1.478186	0.854450	-0.128327
C47	C	0.691701	0.401648	-0.401538
C48	C	1.191701	0.901648	0.098462
C49	C	0.621012	0.401649	-0.401549
C50	C	1.121012	0.901649	0.098451
C51	C	0.585664	0.354526	-0.354575
C52	C	1.085664	0.854526	0.145425
C53	C	0.621007	0.307393	-0.307592
C54	C	1.121007	0.807393	0.192408
C55	C	0.691694	0.307389	-0.307586
C56	C	1.191694	0.807389	0.192414
C57	C	0.335934	0.307410	-0.307616
C58	C	0.835934	0.807410	0.192384
C59	C	0.265242	0.307419	-0.307625
C60	C	0.765242	0.807419	0.192375
C61	C	0.265252	0.401670	-0.401579
C62	C	0.765252	0.901670	0.098421
C63	C	0.335939	0.401666	-0.401573
C64	C	0.835939	0.901666	0.098427
C65	C	0.371276	0.354530	-0.354594
C66	C	0.871276	0.854530	0.145406
C67	C	0.447925	0.354529	-0.354584
C68	C	0.947925	0.854529	0.145416
C69	C	0.509017	0.354531	-0.354580
C70	C	1.009017	0.854531	0.145420
C71	C	1.154670	0.354537	-0.354599
C72	C	1.654670	0.854537	0.145401
C73	C	1.229902	0.354544	-0.354609
C74	C	1.729902	0.854544	0.145391
C75	C	0.978217	0.162570	-0.354626
C76	C	1.478217	0.662570	0.145374
C77	C	0.978256	0.080771	-0.354648
C78	C	1.478256	0.580771	0.145352
C79	C	1.021469	0.815713	-0.307572
C80	C	1.521469	1.315713	0.192428
C81	C	1.021499	0.892572	-0.307590
C82	C	1.521499	1.392572	0.192410
C83	C	0.934872	0.892580	-0.401630
C84	C	1.434872	1.392580	0.098370
C85	C	0.934846	0.815723	-0.401615
C86	C	1.434846	1.315723	0.098385
C87	C	0.978143	0.777291	-0.354582
C88	C	1.478143	1.277291	0.145418
C89	C	0.978200	0.931007	-0.354615
C90	C	1.478200	1.431007	0.145385
C91	C	0.978232	1.014341	-0.354634
C92	C	1.478232	1.514341	0.145366
C93	C	0.978112	0.693952	-0.354563
C94	C	1.478112	1.193952	0.145437
C95	C	1.021514	0.307341	-0.816540
C96	C	1.521514	0.807341	-0.316540
C97	C	1.021522	0.307319	-0.893399
C98	C	1.521522	0.807319	-0.393399
C99	C	0.934906	0.401446	-0.893351
C100	C	1.434906	0.901446	-0.393351
C101	C	0.934895	0.401463	-0.816493
C102	C	1.434895	0.901463	-0.316493
C103	C	0.978203	0.354412	-0.778090
C104	C	1.478203	0.854412	-0.278090
C105	C	0.978222	0.354373	-0.931806
C106	C	1.478222	0.854373	-0.431806
C107	C	0.978230	0.354350	-1.015140
C108	C	1.478230	0.854350	-0.515140
C109	C	0.978194	0.354433	-0.694751
C110	C	1.478194	0.854433	-0.194751
C111	C	0.978125	0.354520	-0.163368
C112	C	1.478125	0.854520	0.336632
C113	C	0.978239	0.354334	-0.081570
C114	C	1.478239	0.854334	0.418430
H115	H	0.720477	0.440024	-0.439788
H116	H	1.220477	0.940024	0.060212
O117	O	0.888102	0.774281	-0.452315
O118	O	1.388102	1.274281	0.047685
H119	H	0.899672	0.788983	-0.510090
H120	H	1.399672	1.288983	-0.010090
H121	H	0.899621	0.439794	-0.785186
H122	H	1.399621	0.939794	-0.285186
H123	H	1.056726	0.784424	-0.269276
H124	H	1.556726	1.284424	0.230724
H125	H	0.899620	0.923880	-0.439922
H126	H	1.399620	1.423880	0.060078
H127	H	0.364697	0.269035	-0.269357
H128	H	0.864697	0.769035	0.230643
H129	H	1.056790	0.268988	-0.924702
H130	H	1.556790	0.768988	-0.424702
O131	O	1.068217	0.256590	-0.775116
O132	O	1.568217	0.756590	-0.275116
H133	H	1.098331	0.223850	-0.814769
H134	H	1.598331	0.723850	-0.314769
O135	O	1.068238	0.934010	-0.256891
O136	O	1.568238	1.434010	0.243109
H137	H	1.060993	0.993911	-0.264810
H138	H	1.560993	1.493911	0.235190
O139	O	0.888197	0.452195	-0.934770
O140	O	1.388197	0.952195	-0.434770
H141	H	0.895484	0.444280	-0.994674
H142	H	1.395484	0.944280	-0.494674
H143	H	0.364717	0.440041	-0.439822
H144	H	0.864717	0.940041	0.060178
O145	O	0.582895	0.452620	-0.452079
O146	O	1.082895	0.952620	0.047921
H147	H	0.619350	0.485444	-0.484683
H148	H	1.119350	0.985444	0.015317
O149	O	0.227164	0.452530	-0.452257
O150	O	0.727164	0.952530	0.047743
H151	H	0.194987	0.419671	-0.489789
H152	H	0.694987	0.919671	0.010211
O153	O	0.227111	0.256585	-0.256964
O154	O	0.727111	0.756585	0.243036
H155	H	0.263558	0.223802	-0.224301
H156	H	0.763558	0.723802	0.275699
H157	H	0.720466	0.269009	-0.269334
H158	H	1.220466	0.769009	0.230666
H159	H	0.592221	0.269022	-0.269348
H160	H	1.092221	0.769022	0.230652
