data_functionalizedCrystal
_audit_creation_method	'MofGen! by Chris Wilmer'
_symmetry_space_group_name_H-M	'P1'
_symmetry_Int_Tables_number	1
_symmetry_cell_setting	triclinic
loop_
_symmetry_equiv_pos_as_xyz
  x,y,z
_cell_length_a	21.295419
_cell_length_b	21.295417
_cell_length_c	21.295412
_cell_angle_alpha	89.970379
_cell_angle_beta	89.976510
_cell_angle_gamma	90.044503
loop_
_atom_site_label
_atom_site_type_symbol
_atom_site_fract_x
_atom_site_fract_y
_atom_site_fract_z
Zn1	Zn	0.962353	-0.250376	-0.355916
Zn2	Zn	0.962258	-0.355645	-0.250643
Zn3	Zn	0.857078	-0.250421	-0.250661
Zn4	Zn	0.857047	-0.355639	-0.355875
O5	O	0.909684	-0.303020	-0.303274
O6	O	1.050429	-0.264324	-0.341961
O7	O	0.948279	-0.341708	-0.162556
O8	O	0.871095	-0.162325	-0.264648
O9	O	1.050360	-0.341665	-0.264617
O10	O	0.948440	-0.162293	-0.341978
O11	O	0.871004	-0.264400	-0.162569
O12	O	0.768984	-0.264394	-0.264608
O13	O	0.871042	-0.341654	-0.443970
O14	O	0.768961	-0.341697	-0.341908
O15	O	0.948410	-0.264319	-0.444000
O16	O	0.948249	-0.443733	-0.264578
O17	O	0.870951	-0.443729	-0.341891
C18	C	0.746132	-0.303050	-0.303256
C19	C	0.676164	-0.303078	-0.303263
C20	C	0.643356	-0.262873	-0.343598
C21	C	0.577613	-0.262856	-0.343601
C22	C	0.544682	-0.303056	-0.303275
C23	C	0.577498	-0.343264	-0.262932
C24	C	0.643239	-0.343275	-0.262926
N25	N	0.441407	-0.358134	-0.298356
N26	N	0.378956	-0.358121	-0.298365
C27	C	0.346607	-0.303023	-0.303289
N28	N	0.379069	-0.247937	-0.308215
N29	N	0.441526	-0.247950	-0.308209
C30	C	0.473396	-0.303048	-0.303276
C31	C	0.242513	-0.262796	-0.343628
C32	C	0.176769	-0.262778	-0.343626
C33	C	0.176655	-0.343192	-0.262961
C34	C	0.242397	-0.343204	-0.262960
C35	C	0.275323	-0.303007	-0.303297
C36	C	0.909604	-0.466572	-0.303242
C37	C	0.909627	-0.536540	-0.303249
C38	C	0.949877	-0.569332	-0.343544
C39	C	0.949900	-0.635075	-0.343559
C40	C	0.909678	-0.668022	-0.303269
C41	C	0.869420	-0.635222	-0.262971
C42	C	0.869394	-0.569481	-0.262962
N43	N	0.904919	-0.771284	-0.248178
N44	N	0.904947	-0.833736	-0.248189
C45	C	0.909751	-0.866097	-0.303297
N46	N	0.914539	-0.833647	-0.358395
N47	N	0.914514	-0.771190	-0.358383
C48	C	0.909701	-0.739308	-0.303276
C49	C	0.950028	-0.970175	-0.343612
C50	C	0.950046	-1.035919	-0.343629
C51	C	0.869569	-1.036064	-0.263035
C52	C	0.869548	-0.970322	-0.263024
C53	C	0.909781	-0.937381	-0.303312
C54	C	1.073874	-0.302990	-0.303292
C55	C	1.143842	-0.302977	-0.303299
C56	C	0.909733	-0.302981	-0.467464
C57	C	0.909754	-0.302964	-0.537432
C58	C	0.909782	-0.138830	-0.303319
C59	C	0.909823	-0.068862	-0.303339
C60	C	0.869527	-0.262706	-0.570296
C61	C	0.869525	-0.262694	-0.636038
C62	C	0.909761	-0.302934	-0.668915
C63	C	0.949990	-0.343201	-0.636043
C64	C	0.949987	-0.343216	-0.570302
N65	N	0.964865	-0.307728	-0.772153
N66	N	0.964867	-0.307710	-0.834604
C67	C	0.909772	-0.302892	-0.866989
N68	N	0.854675	-0.298081	-0.834564
N69	N	0.854675	-0.298096	-0.772107
C70	C	0.909769	-0.302923	-0.740200
C71	C	0.869540	-0.262619	-0.971139
C72	C	0.869537	-0.262611	-1.036882
C73	C	0.950008	-0.343115	-1.036886
C74	C	0.950005	-0.343126	-0.971144
C75	C	0.909772	-0.302874	-0.938274
C76	C	0.909671	-0.303014	-0.139722
C77	C	0.909772	-0.302853	-0.069754
H78	H	0.269110	-0.375946	-0.230117
Br79	Br	1.004475	-0.524630	-0.398223
H80	H	0.836779	-0.229844	-0.944375
Br81	Br	0.287201	-0.208241	-0.398366
H82	H	0.669951	-0.376016	-0.230080
H83	H	0.836816	-1.062890	-0.230234
Br84	Br	0.532806	-0.397816	-0.208199
H85	H	0.836669	-0.662052	-0.230168
Br86	Br	0.814917	-0.207991	-1.081484
Br87	Br	1.004532	-0.679589	-0.398246
Br88	Br	1.004585	-0.397857	-0.525698
Br89	Br	1.004608	-0.397734	-1.081497
H90	H	0.150058	-0.230035	-0.376471
Br91	Br	0.814762	-0.524973	-0.208273
H92	H	0.836769	-0.229907	-0.662801
Br93	Br	1.004605	-0.397763	-0.926540
H94	H	0.550896	-0.230113	-0.376445
Br95	Br	0.688037	-0.208321	-0.398341
Br96	Br	0.131969	-0.397743	-0.208225
H97	H	0.982786	-0.943354	-0.376419
Br98	Br	1.004667	-1.080425	-0.398330
H99	H	0.836775	-0.943620	-0.230210
Br100	Br	0.814924	-0.208081	-0.525689
H101	H	0.982751	-0.375965	-0.662815
