data_functionalizedCrystal
_audit_creation_method	'MofGen! by Chris Wilmer'
_symmetry_space_group_name_H-M	'P1'
_symmetry_Int_Tables_number	1
_symmetry_cell_setting	triclinic
loop_
_symmetry_equiv_pos_as_xyz
  x,y,z
_cell_length_a	12.759395
_cell_length_b	12.759394
_cell_length_c	12.759395
_cell_angle_alpha	89.988280
_cell_angle_beta	90.003702
_cell_angle_gamma	89.983626
loop_
_atom_site_label
_atom_site_type_symbol
_atom_site_fract_x
_atom_site_fract_y
_atom_site_fract_z
Zn1	Zn	1.606093	0.418375	0.593998
Zn2	Zn	1.606035	0.594031	0.418316
Zn3	Zn	1.430443	0.418371	0.418335
Zn4	Zn	1.430384	0.594017	0.593955
O5	O	1.518239	0.506198	0.506151
O6	O	1.753107	0.441683	0.570704
O7	O	1.582743	0.570733	0.271298
O8	O	1.453793	0.271350	0.441663
O9	O	1.753064	0.570737	0.441631
O10	O	1.582842	0.271353	0.570722
O11	O	1.453736	0.441677	0.271312
O12	O	1.283414	0.441663	0.441622
O13	O	1.453691	0.570714	0.740982
O14	O	1.283370	0.570710	0.570649
O15	O	1.582785	0.441670	0.741014
O16	O	1.582685	0.741050	0.441589
O17	O	1.453635	0.741040	0.570630
C18	C	1.245271	0.506186	0.506133
C19	C	1.128495	0.506205	0.506150
C20	C	1.128488	0.640799	0.640289
C21	C	1.073623	0.708104	0.707361
C22	C	0.963902	0.708116	0.707374
C23	C	0.909042	0.640815	0.640310
C24	C	0.963906	0.573510	0.573237
C25	C	1.073630	0.573507	0.573230
C26	C	0.963913	0.438913	0.439106
C27	C	1.073635	0.438904	0.439086
C28	C	0.909053	0.371611	0.372041
C29	C	0.963918	0.304310	0.304962
C30	C	1.073646	0.304301	0.304951
C31	C	1.128499	0.371599	0.372014
C32	C	1.518176	0.779166	0.506126
C33	C	1.518245	0.895943	0.506150
C34	C	1.518238	0.506191	0.780185
C35	C	1.518237	0.506188	0.896961
C36	C	1.792272	0.506212	0.506170
C37	C	1.909049	0.506218	0.506178
C38	C	1.518331	0.232165	0.506200
C39	C	1.518370	0.115388	0.506220
C40	C	1.652726	0.895900	0.371880
C41	C	1.719994	0.950739	0.304758
C42	C	1.720055	1.060460	0.304786
C43	C	1.652844	1.115345	0.371947
C44	C	1.585576	1.060506	0.439069
C45	C	1.585520	0.950782	0.439031
C46	C	1.451102	1.060549	0.573343
C47	C	1.451033	0.950827	0.573311
C48	C	1.383891	1.115434	0.640504
C49	C	1.316616	1.060594	0.707622
C50	C	1.316556	0.950866	0.707590
C51	C	1.383766	0.895988	0.640433
C52	C	1.383911	0.371792	0.896995
C53	C	1.316753	0.304594	0.951872
C54	C	1.316756	0.304596	1.061594
C55	C	1.383921	0.371806	1.116441
C56	C	1.451080	0.439005	1.061563
C57	C	1.451072	0.438993	0.951839
C58	C	1.585399	0.573404	1.061530
C59	C	1.585403	0.573398	0.951808
C60	C	1.652564	0.640614	1.116376
C61	C	1.719730	0.707809	1.061499
C62	C	1.719725	0.707803	0.951770
C63	C	1.652561	0.640596	0.896930
C64	C	1.518234	0.506223	1.233184
C65	C	1.518240	0.506206	1.116407
H66	H	1.118310	0.249485	0.250340
C67	C	1.242876	0.230663	0.891538
C68	C	1.251504	0.111230	0.906657
C69	C	1.177626	0.037302	0.846327
C70	C	1.095120	0.082808	0.770878
C71	C	1.086490	0.202248	0.755756
C72	C	1.160368	0.276175	0.816086
H73	H	1.312582	0.077538	0.962512
H74	H	1.184015	-0.051116	0.857522
H75	H	1.040431	0.028082	0.726218
H76	H	1.025411	0.235939	0.699901
H77	H	1.153978	0.364593	0.804892
C78	C	1.242558	0.890546	0.781427
C79	C	1.123137	0.905741	0.772767
C80	C	1.049138	0.845425	0.846605
C81	C	1.094560	0.769915	0.929104
C82	C	1.213987	0.754716	0.937768
C83	C	1.287987	0.815032	0.863930
H84	H	1.089508	0.961642	0.711693
H85	H	0.960730	0.856677	0.840191
H86	H	1.039781	0.725265	0.983763
H87	H	1.247617	0.698815	0.998841
H88	H	1.376395	0.803780	0.870344
H89	H	1.217829	0.640803	0.640278
H90	H	0.919242	0.249514	0.250369
C91	C	1.794046	1.120790	0.230950
C92	C	1.867976	1.060431	0.157077
C93	C	1.941965	1.120761	0.083241
C94	C	1.942025	1.241451	0.083277
C95	C	1.868092	1.301817	0.157153
C96	C	1.794103	1.241487	0.230989
H97	H	1.867934	0.971083	0.157048
H98	H	1.996695	1.076073	0.028553
H99	H	1.996796	1.286111	0.028619
H100	H	1.868134	1.391165	0.157182
H101	H	1.739374	1.286175	0.285677
C102	C	1.242881	0.230681	1.121966
C103	C	1.168999	0.156756	1.061648
C104	C	1.095125	0.082842	1.122020
C105	C	1.095133	0.082852	1.242710
C106	C	1.169018	0.156780	1.303035
C107	C	1.242892	0.230694	1.242663
H108	H	1.168991	0.156745	0.972300
H109	H	1.040430	0.028116	1.077363
H110	H	1.040447	0.028137	1.287401
H111	H	1.169026	0.156790	1.392383
H112	H	1.297587	0.285420	1.287320
H113	H	0.819701	0.640822	0.640335
H114	H	1.118302	0.762897	0.761966
H115	H	1.652555	0.640581	0.807589
H116	H	0.919231	0.762917	0.761996
H117	H	0.819712	0.371622	0.372061
H118	H	1.217840	0.371601	0.372008
H119	H	1.774417	0.762521	0.907096
H120	H	1.652669	0.806559	0.371837
H121	H	1.774719	0.906042	0.250078
H122	H	1.652909	1.204686	0.371973
H123	H	1.383908	0.371812	1.205782
H124	H	1.383950	1.204775	0.640527
H125	H	1.383717	0.806647	0.640394
H126	H	1.261903	1.105290	0.762304
H127	H	1.383911	0.371775	0.807654
H128	H	1.652557	0.640617	1.205717
H129	H	1.774406	0.762530	1.106163
