data_functionalizedCrystal
_audit_creation_method	'MofGen! by Chris Wilmer'
_symmetry_space_group_name_H-M	'P1'
_symmetry_Int_Tables_number	1
_symmetry_cell_setting	triclinic
loop_
_symmetry_equiv_pos_as_xyz
  x,y,z
_cell_length_a	15.297475
_cell_length_b	12.827892
_cell_length_c	12.827885
_cell_angle_alpha	90.029786
_cell_angle_beta	80.312948
_cell_angle_gamma	99.681360
loop_
_atom_site_label
_atom_site_type_symbol
_atom_site_fract_x
_atom_site_fract_y
_atom_site_fract_z
Zn1	Zn	1.379325	0.692883	-0.866944
Zn2	Zn	1.379233	0.867642	-0.692186
Zn3	Zn	1.228449	0.662646	-0.662017
Zn4	Zn	1.228437	0.837292	-0.836701
O5	O	1.303861	0.765116	-0.764462
O6	O	1.505563	0.741422	-0.869044
O7	O	1.359199	0.840496	-0.541941
O8	O	1.248507	0.520430	-0.689232
O9	O	1.505496	0.869816	-0.740650
O10	O	1.359354	0.542645	-0.839791
O11	O	1.248418	0.689886	-0.519776
O12	O	1.102197	0.660457	-0.659907
O13	O	1.248485	0.818089	-0.986956
O14	O	1.102188	0.788769	-0.788247
O15	O	1.359342	0.711992	-1.009175
O16	O	1.359186	1.009844	-0.711325
O17	O	1.248397	0.987545	-0.817500
C18	C	1.069457	0.718039	-0.717522
C19	C	0.969178	0.697925	-0.697466
C20	C	1.303805	1.036615	-0.764432
C21	C	1.303863	1.152779	-0.764471
C22	C	1.303922	0.765028	-1.037045
C23	C	1.303949	0.764990	-1.153203
C24	C	0.686588	0.908885	-0.907810
C25	C	0.780805	0.927791	-0.926651
C26	C	0.827903	0.870326	-0.869357
C27	C	0.780774	0.793952	-0.793217
C28	C	0.686548	0.775049	-0.774369
C29	C	0.827863	0.736490	-0.735916
C30	C	0.780734	0.660116	-0.659776
C31	C	0.686517	0.641216	-0.640932
C32	C	0.639419	0.698682	-0.698226
C33	C	0.922089	0.755393	-0.754764
C34	C	0.922049	0.621557	-0.621323
C35	C	0.827832	0.602651	-0.602482
C36	C	1.539180	0.812377	-0.811586
C37	C	1.639460	0.832517	-0.831667
C38	C	1.303942	0.492562	-0.764520
C39	C	1.303977	0.376416	-0.764544
C40	C	1.358750	1.215576	-0.712016
C41	C	1.358812	1.335639	-0.712055
C42	C	1.358810	0.712479	-1.215984
C43	C	1.358838	0.712439	-1.336040
C44	C	1.303852	0.765139	-0.492950
C45	C	1.304000	0.764917	-0.376827
H46	H	0.960452	0.817577	-0.816758
C47	C	1.240521	0.825686	-1.200648
H48	H	1.206093	0.858630	-1.145690
H49	H	1.275060	0.878099	-1.250140
H50	H	1.201262	0.777763	-1.235367
H51	H	0.904619	0.885724	-0.884702
C52	C	0.973842	0.558338	-0.558295
H53	H	0.932281	0.510156	-0.510240
H54	H	1.010620	0.520232	-0.605704
H55	H	1.010574	0.605634	-0.520038
H56	H	1.257032	0.809880	-1.322887
H57	H	0.819171	0.989978	-0.988641
H58	H	0.648233	0.955671	-0.954444
C59	C	0.535779	0.677904	-0.677486
H60	H	0.514484	0.723073	-0.722508
H61	H	0.514466	0.606218	-0.691402
H62	H	0.514448	0.691628	-0.605744
C63	C	1.422237	0.651786	-1.168534
H64	H	1.413902	0.659782	-1.094068
H65	H	1.409077	0.578906	-1.183745
H66	H	1.482871	0.679246	-1.198509
H67	H	0.648147	0.579038	-0.578924
C68	C	1.422295	0.651709	-1.408911
H69	H	1.413987	0.659646	-1.480042
H70	H	1.482917	0.679169	-1.403209
H71	H	1.409118	0.578834	-1.388450
C72	C	1.240491	1.303537	-0.825220
H73	H	1.206093	1.344695	-0.858151
H74	H	1.274992	1.267814	-0.877644
H75	H	1.201206	1.253143	-0.777288
C76	C	0.775984	0.518650	-0.518728
H77	H	0.713126	0.515632	-0.515708
H78	H	0.791438	0.451554	-0.537231
H79	H	0.791392	0.536957	-0.451565
C80	C	1.422173	1.168139	-0.651308
H81	H	1.413807	1.093666	-0.659241
H82	H	1.482806	1.198077	-0.678787
H83	H	1.409019	1.183398	-0.578431
C84	C	1.422292	1.408528	-0.651379
H85	H	1.414008	1.479662	-0.659369
H86	H	1.409126	1.388111	-0.578498
H87	H	1.482912	1.402793	-0.678854
H88	H	1.256921	1.187903	-0.809413
