data_functionalizedCrystal
_audit_creation_method	'MofGen! by Chris Wilmer'
_symmetry_space_group_name_H-M	'P1'
_symmetry_Int_Tables_number	1
_symmetry_cell_setting	triclinic
loop_
_symmetry_equiv_pos_as_xyz
  x,y,z
_cell_length_a	8.597226
_cell_length_b	8.597249
_cell_length_c	14.048226
_cell_angle_alpha	82.302515
_cell_angle_beta	82.290086
_cell_angle_gamma	93.638849
loop_
_atom_site_label
_atom_site_type_symbol
_atom_site_fract_x
_atom_site_fract_y
_atom_site_fract_z
O1	O	-2.086080	0.234366	0.231064
O2	O	-1.629412	0.252327	0.192130
O3	O	-1.866735	0.015019	0.231059
O4	O	-1.848756	0.471674	0.192134
O5	O	-1.866706	0.015005	0.072737
O6	O	-1.629382	0.252313	0.033807
O7	O	-2.086050	0.234351	0.072741
Zn8	Zn	-1.857712	0.243330	0.028137
Zn9	Zn	-1.857750	0.243349	0.236734
O10	O	-1.848727	0.471659	0.033812
C11	C	-1.570895	0.250388	0.108328
C12	C	-1.396575	0.244612	0.094502
C13	C	-1.864791	-0.043489	0.156539
C14	C	-1.859022	-0.217803	0.170368
C15	C	-1.144568	0.236286	0.156541
C16	C	-1.318888	0.242050	0.170360
C17	C	-1.850671	0.530167	0.108334
C18	C	-1.856440	0.704481	0.094512
N19	N	-1.857697	0.243316	-0.114224
C20	C	-1.962818	0.138280	-0.146805
C21	C	-1.962829	0.138279	-0.246461
C22	C	-1.857725	0.243323	-0.313535
C23	C	-1.752592	0.348363	-0.280949
C24	C	-1.752575	0.348355	-0.181294
C25	C	-1.752638	0.348375	-0.488660
C26	C	-1.752656	0.348386	-0.588322
C27	C	-1.962891	0.138300	-0.553828
C28	C	-1.962874	0.138292	-0.454173
C29	C	-1.857743	0.243334	-0.421593
N30	N	-1.857777	0.243350	0.379097
H31	H	-1.329726	0.242404	0.018984
H32	H	-1.667023	0.433907	-0.462139
Cl33	Cl	-1.422098	0.245485	0.286962
H34	H	-1.858643	-0.228699	0.018994
H35	H	-1.856835	-0.284633	0.245891
H36	H	-1.667068	0.433922	-0.642931
H37	H	-2.048413	0.052748	-0.092197
Cl38	Cl	-1.620451	0.480413	-0.365269
H39	H	-1.666973	0.433884	-0.154769
Cl40	Cl	-2.095015	0.006246	-0.369849
Cl41	Cl	-2.094982	0.006231	-0.287422
H42	H	-2.048492	0.052770	-0.580359
