data_functionalizedCrystal
_audit_creation_method	'MofGen! by Chris Wilmer'
_symmetry_space_group_name_H-M	'P1'
_symmetry_Int_Tables_number	1
_symmetry_cell_setting	triclinic
loop_
_symmetry_equiv_pos_as_xyz
  x,y,z
_cell_length_a	19.288840
_cell_length_b	10.654545
_cell_length_c	17.766277
_cell_angle_alpha	89.996032
_cell_angle_beta	89.983415
_cell_angle_gamma	83.805722
loop_
_atom_site_label
_atom_site_type_symbol
_atom_site_fract_x
_atom_site_fract_y
_atom_site_fract_z
O1	O	0.922389	0.156507	-0.062716
O2	O	0.720265	0.177672	-0.062690
O3	O	0.825974	-0.015750	-0.062703
O4	O	0.816680	0.349929	-0.062703
O5	O	0.825955	-0.015760	0.062485
O6	O	0.720246	0.177663	0.062499
O7	O	0.922371	0.156497	0.062472
Cu8	Cu	0.821307	0.167079	0.073916
Cu9	Cu	0.821329	0.167090	-0.074134
O10	O	0.816662	0.349919	0.062486
C11	C	0.694374	0.176992	-0.000092
C12	C	0.617256	0.174963	-0.000082
C13	C	0.581057	0.173994	-0.068324
C14	C	0.508597	0.172074	-0.068333
C15	C	0.472342	0.171097	-0.000097
C16	C	0.508550	0.172074	0.068155
C17	C	0.581007	0.174007	0.068162
C18	C	0.362505	0.094477	0.052172
C19	C	0.290049	0.092536	0.052162
C20	C	0.248859	0.165142	-0.000116
C21	C	0.280135	0.239672	-0.052397
C22	C	0.352592	0.241605	-0.052390
C23	C	0.393774	0.169003	-0.000097
C24	C	0.134091	0.162093	-0.068373
C25	C	0.061629	0.160180	-0.068380
C26	C	0.061584	0.160168	0.068110
C27	C	0.134043	0.162093	0.068115
C28	C	0.170293	0.163049	-0.000129
C29	C	0.825282	-0.062538	-0.000110
C30	C	0.823240	-0.201937	-0.000114
C31	C	0.823269	-0.201935	-0.136599
C32	C	0.822326	-0.267424	-0.204840
C33	C	0.820408	-0.398401	-0.204841
C34	C	0.819429	-0.463893	-0.136593
C35	C	0.820372	-0.398404	-0.068351
C36	C	0.822292	-0.267424	-0.068358
C37	C	0.820338	-0.398405	0.068132
C38	C	0.822261	-0.267429	0.068134
C39	C	0.819360	-0.463897	0.136380
C40	C	0.820307	-0.398410	0.204624
C41	C	0.822226	-0.267424	0.204622
C42	C	0.823204	-0.201941	0.136376
C43	C	0.948261	0.157178	-0.000127
C44	C	1.025379	0.159206	-0.000142
C45	C	0.817353	0.396707	-0.000109
C46	C	0.819396	0.536107	-0.000110
N47	N	0.821296	0.167070	0.178047
N48	N	0.821345	0.167089	-0.178264
C49	C	0.868119	0.081464	0.217428
C50	C	0.868123	0.081459	0.296229
C51	C	0.821311	0.167080	0.335647
C52	C	0.774478	0.252692	0.296257
C53	C	0.774471	0.252687	0.217456
C54	C	0.812761	0.281502	0.460486
C55	C	0.812774	0.281509	0.539285
C56	C	0.821329	0.167095	0.578693
C57	C	0.829888	0.052669	0.539294
C58	C	0.829880	0.052664	0.460493
C59	C	0.821313	0.167094	0.421093
C60	C	0.868160	0.081476	0.703520
C61	C	0.868159	0.081469	0.782324
C62	C	0.774517	0.252713	0.782349
C63	C	0.774515	0.252709	0.703548
C64	C	0.821340	0.167092	0.664138
H65	H	0.032156	0.159399	-0.123953
H66	H	0.396036	0.035349	0.094747
C67	C	0.757061	-0.637046	-0.099438
C68	C	0.817313	-0.607863	-0.136595
H69	H	0.755753	-0.725928	-0.099444
H70	H	0.757492	-0.607427	-0.049034
H71	H	0.717074	-0.597589	-0.124646
H72	H	0.857300	-0.647313	-0.111384
H73	H	0.816888	-0.637496	-0.187008
C74	C	-0.049502	0.157175	0.128703
C75	C	0.021742	0.159081	0.143119
H76	H	-0.074099	0.156495	0.175013
H77	H	-0.066316	0.230076	0.100674
H78	H	-0.056406	0.083645	0.100656
H79	H	0.028647	0.232616	0.171162
H80	H	0.038561	0.086172	0.171160
H81	H	0.836847	-0.040505	0.428417
C82	C	0.757027	-0.637070	0.099221
C83	C	0.817255	-0.607870	0.136378
H84	H	0.755734	-0.725956	0.099217
H85	H	0.717028	-0.597644	0.124427
H86	H	0.757481	-0.607431	0.048813
H87	H	0.816799	-0.637502	0.186789
H88	H	0.857264	-0.647312	0.111174
C89	C	0.763353	-0.212595	-0.321179
C90	C	0.823407	-0.195420	-0.279852
H91	H	0.764020	-0.168135	-0.367484
H92	H	0.762079	-0.299960	-0.330951
H93	H	0.723232	-0.181315	-0.293133
H94	H	0.863528	-0.226709	-0.307896
H95	H	0.824688	-0.108037	-0.270083
H96	H	0.163518	0.162874	0.123685
C97	C	0.479021	0.279396	-0.184677
C98	C	0.468795	0.171005	-0.143350
H99	H	0.454452	0.278730	-0.230990
H100	H	0.462183	0.352282	-0.156642
H101	H	0.527363	0.280672	-0.194438
H102	H	0.420452	0.169733	-0.133584
H103	H	0.485628	0.098100	-0.171391
C104	C	0.877862	-0.560159	-0.284033
C105	C	0.819366	-0.470381	-0.279856
H106	H	0.877214	-0.604595	-0.330343
H107	H	0.919036	-0.518875	-0.281203
H108	H	0.877001	-0.617907	-0.243389
H109	H	0.820229	-0.412626	-0.320497
H110	H	0.778182	-0.511666	-0.282693
H111	H	0.610480	0.174797	0.123735
H112	H	0.819506	-0.451742	0.260186
H113	H	0.378053	0.302293	-0.094957
C114	C	0.478894	0.279396	0.184484
C115	C	0.468700	0.170999	0.143162
H116	H	0.454288	0.278738	0.230789
H117	H	0.527222	0.280679	0.194254
H118	H	0.462073	0.352286	0.156434
H119	H	0.485526	0.098109	0.171209
H120	H	0.420361	0.169705	0.133393
C121	C	0.960688	-0.087802	0.288297
C122	C	0.919593	-0.012650	0.339529
H123	H	0.992463	-0.145896	0.315028
H124	H	0.931560	-0.132838	0.257578
H125	H	0.985919	-0.035637	0.257547
H126	H	0.894358	-0.064814	0.370275
H127	H	0.948725	0.032390	0.370261
C128	C	0.821988	-0.280591	0.339533
C129	C	0.823255	-0.195443	0.279637
H130	H	0.822625	-0.236153	0.385844
H131	H	0.780812	-0.321865	0.336688
H132	H	0.861677	-0.341490	0.336694
H133	H	0.783564	-0.134549	0.282473
H134	H	0.864436	-0.154148	0.282483
H135	H	0.736362	0.322404	0.328354
C136	C	0.766415	0.000158	-0.099441
C137	C	0.825385	-0.057965	-0.136596
H138	H	0.767726	0.089039	-0.099437
H139	H	0.725562	-0.019649	-0.124649
H140	H	0.765972	-0.029485	-0.049033
H141	H	0.825825	-0.028328	-0.187006
H142	H	0.866248	-0.038147	-0.111389
H143	H	0.824770	-0.095293	0.136367
H144	H	0.264591	0.031843	0.094728
H145	H	0.610567	0.174773	-0.123894
H146	H	0.906245	0.011747	0.185342
C147	C	0.785415	-0.145393	0.563567
C148	C	0.839302	-0.073115	0.582593
H149	H	0.791235	-0.223048	0.590296
H150	H	0.741832	-0.100419	0.576506
H151	H	0.786641	-0.161747	0.510996
H152	H	0.838073	-0.056753	0.635164
H153	H	0.882897	-0.118099	0.569659
H154	H	0.805809	0.374681	0.571358
C155	C	0.680119	0.280420	0.614966
C156	C	0.723053	0.346825	0.660253
H157	H	0.648345	0.338528	0.588242
H158	H	0.707999	0.229437	0.580220
H159	H	0.654886	0.228275	0.645728
H160	H	0.748290	0.398963	0.629491
H161	H	0.695169	0.397830	0.695003
H162	H	0.906285	0.011757	0.671432
H163	H	0.906286	0.011752	0.814388
C164	C	0.187310	0.405571	-0.071709
C165	C	0.234876	0.319496	-0.109870
H166	H	0.159373	0.454849	-0.107193
H167	H	0.158312	0.360914	-0.040588
H168	H	0.211989	0.459339	-0.041473
H169	H	0.210196	0.265721	-0.140102
H170	H	0.263877	0.364156	-0.141004
C171	C	0.149150	0.270648	-0.184696
C172	C	0.173944	0.163172	-0.143382
H173	H	0.173756	0.271319	-0.231000
H174	H	0.100823	0.269353	-0.194470
H175	H	0.156066	0.344163	-0.156641
H176	H	0.167022	0.089657	-0.171435
H177	H	0.222283	0.164456	-0.133610
C178	C	0.795873	0.507710	0.468392
C179	C	0.803369	0.407279	0.417172
H180	H	0.790082	0.585355	0.441651
H181	H	0.756155	0.500947	0.499138
H182	H	0.836307	0.504950	0.499117
H183	H	0.762932	0.410034	0.386451
H184	H	0.843090	0.414044	0.386414
H185	H	0.736399	0.322423	0.814443
H186	H	0.736341	0.322398	0.185392
