data_functionalizedCrystal
_audit_creation_method	'MofGen! by Chris Wilmer'
_symmetry_space_group_name_H-M	'P1'
_symmetry_Int_Tables_number	1
_symmetry_cell_setting	triclinic
loop_
_symmetry_equiv_pos_as_xyz
  x,y,z
_cell_length_a	16.120490
_cell_length_b	16.120484
_cell_length_c	11.169409
_cell_angle_alpha	92.860730
_cell_angle_beta	87.080796
_cell_angle_gamma	90.164100
loop_
_atom_site_label
_atom_site_type_symbol
_atom_site_fract_x
_atom_site_fract_y
_atom_site_fract_z
Zn1	Zn	1.254512	-0.395595	-0.798882
Zn2	Zn	1.504512	-0.145595	-0.548882
Zn3	Zn	1.754512	0.104405	-0.298882
Zn4	Zn	2.004512	0.354405	-0.048882
Zn5	Zn	1.247346	-0.534674	-0.607804
Zn6	Zn	1.497346	-0.284674	-0.357804
Zn7	Zn	1.747346	-0.034674	-0.107804
Zn8	Zn	1.997346	0.215326	0.142196
Zn9	Zn	1.115442	-0.388576	-0.587559
Zn10	Zn	1.365442	-0.138576	-0.337559
Zn11	Zn	1.615442	0.111424	-0.087559
Zn12	Zn	1.865442	0.361424	0.162441
Zn13	Zn	1.108364	-0.527541	-0.797789
Zn14	Zn	1.358364	-0.277541	-0.547789
Zn15	Zn	1.608364	-0.027541	-0.297789
Zn16	Zn	1.858364	0.222459	-0.047789
O17	O	1.181416	-0.461597	-0.698009
O18	O	1.431416	-0.211597	-0.448009
O19	O	1.681416	0.038403	-0.198009
O20	O	1.931416	0.288403	0.051991
O21	O	1.369927	-0.419968	-0.782466
O22	O	1.619927	-0.169968	-0.532466
O23	O	1.869927	0.080032	-0.282466
O24	O	2.119927	0.330032	-0.032466
O25	O	1.229812	-0.515342	-0.437169
O26	O	1.479812	-0.265342	-0.187169
O27	O	1.729812	-0.015342	0.062831
O28	O	1.979812	0.234658	0.312831
O29	O	1.139850	-0.273145	-0.607576
O30	O	1.389850	-0.023145	-0.357576
O31	O	1.639850	0.226855	-0.107576
O32	O	1.889850	0.476855	0.142424
O33	O	1.364663	-0.522148	-0.642081
O34	O	1.614663	-0.272148	-0.392081
O35	O	1.864663	-0.022148	-0.142081
O36	O	2.114663	0.227852	0.107919
O37	O	1.242025	-0.278302	-0.762835
O38	O	1.492025	-0.028302	-0.512835
O39	O	1.742025	0.221698	-0.262835
O40	O	1.992025	0.471698	-0.012835
O41	O	1.132902	-0.408004	-0.422295
O42	O	1.382902	-0.158004	-0.172295
O43	O	1.632902	0.091996	0.077705
O44	O	1.882902	0.341996	0.327705
O45	O	0.998137	-0.401087	-0.606516
O46	O	1.248137	-0.151087	-0.356516
O47	O	1.498137	0.098913	-0.106516
O48	O	1.748137	0.348913	0.143484
O49	O	1.127788	-0.509990	-0.965883
O50	O	1.377788	-0.259990	-0.715883
O51	O	1.627788	-0.009990	-0.465883
O52	O	1.877788	0.240010	-0.215883
O53	O	0.992937	-0.503184	-0.760971
O54	O	1.242937	-0.253184	-0.510971
O55	O	1.492937	-0.003184	-0.260971
O56	O	1.742937	0.246816	-0.010971
O57	O	1.235162	-0.413050	-0.966686
O58	O	1.485162	-0.163050	-0.716686
O59	O	1.735162	0.086950	-0.466686
O60	O	1.985162	0.336950	-0.216686
O61	O	1.222949	-0.650090	-0.641021
O62	O	1.472949	-0.400090	-0.391021
O63	O	1.722949	-0.150090	-0.141021
O64	O	1.972949	0.099910	0.108979
O65	O	1.120839	-0.644849	-0.780602
O66	O	1.370839	-0.394849	-0.530602
O67	O	1.620839	-0.144849	-0.280602
O68	O	1.870839	0.105151	-0.030602
C69	C	0.965364	-0.450600	-0.681429
C70	C	1.215364	-0.200600	-0.431429
C71	C	1.465364	0.049400	-0.181429
C72	C	1.715364	0.299400	0.068571
C73	C	0.872935	-0.445916	-0.674365
C74	C	1.122935	-0.195916	-0.424365
C75	C	1.372935	0.054084	-0.174365
C76	C	1.622935	0.304084	0.075635
C77	C	0.659968	-0.485888	-0.734648
C78	C	0.909968	-0.235888	-0.484648
C79	C	1.159968	0.014112	-0.234648
C80	C	1.409968	0.264112	0.015352
C81	C	0.703711	-0.437371	-0.661469
C82	C	0.953711	-0.187371	-0.411469
C83	C	1.203711	0.062629	-0.161469
C84	C	1.453711	0.312629	0.088531
C85	C	0.797876	-0.442127	-0.668647
C86	C	1.047876	-0.192127	-0.418647
C87	C	1.297876	0.057873	-0.168647
C88	C	1.547876	0.307873	0.081353
C89	C	0.565795	-0.481134	-0.727471
C90	C	0.815795	-0.231134	-0.477471
C91	C	1.065795	0.018866	-0.227471
C92	C	1.315795	0.268866	0.022529
C93	C	1.170371	-0.677642	-0.712918
C94	C	1.420371	-0.427642	-0.462918
C95	C	1.670371	-0.177642	-0.212918
C96	C	1.920371	0.072358	0.037082
C97	C	1.165722	-0.770071	-0.719342
C98	C	1.415722	-0.520071	-0.469342
C99	C	1.665722	-0.270071	-0.219342
C100	C	1.915722	-0.020071	0.030658
C101	C	1.157240	-0.939300	-0.731096
C102	C	1.407240	-0.689300	-0.481096
C103	C	1.657240	-0.439300	-0.231096
C104	C	1.907240	-0.189300	0.018904
C105	C	1.205741	-0.983060	-0.664953
C106	C	1.455741	-0.733060	-0.414953
C107	C	1.705741	-0.483060	-0.164953
C108	C	1.955741	-0.233060	0.085047
C109	C	1.201022	-1.077225	-0.671492
C110	C	1.451022	-0.827225	-0.421492
C111	C	1.701022	-0.577225	-0.171492
C112	C	1.951022	-0.327225	0.078508
C113	C	1.161958	-0.845127	-0.724557
C114	C	1.411958	-0.595127	-0.474557
C115	C	1.661958	-0.345127	-0.224557
C116	C	1.911958	-0.095127	0.025443
C117	C	1.398311	-0.472636	-0.714654
C118	C	1.648311	-0.222636	-0.464654
C119	C	1.898311	0.027364	-0.214654
C120	C	2.148311	0.277364	0.035346
C121	C	1.490739	-0.477341	-0.721747
C122	C	1.740739	-0.227341	-0.471747
C123	C	1.990739	0.022659	-0.221747
C124	C	2.240739	0.272659	0.028253
C125	C	1.181485	-0.461508	-1.011050
C126	C	1.431485	-0.211508	-0.761050
C127	C	1.681485	0.038492	-0.511050
C128	C	1.931485	0.288492	-0.261050
C129	C	1.181514	-0.461470	-1.144449
C130	C	1.431514	-0.211470	-0.894449
C131	C	1.681514	0.038530	-0.644449
C132	C	1.931514	0.288530	-0.394449
C133	C	1.192526	-0.244709	-0.683069
C134	C	1.442526	0.005291	-0.433069
C135	C	1.692526	0.255291	-0.183069
C136	C	1.942526	0.505291	0.066931
C137	C	1.197261	-0.152284	-0.676703
C138	C	1.447261	0.097716	-0.426703
C139	C	1.697261	0.347716	-0.176703
C140	C	1.947261	0.597716	0.073297
C141	C	1.181399	-0.461628	-0.386185
C142	C	1.431399	-0.211628	-0.136185
C143	C	1.681399	0.038372	0.113815
C144	C	1.931399	0.288372	0.363815
C145	C	1.181542	-0.461440	-0.252782
C146	C	1.431542	-0.211440	-0.002782
C147	C	1.681542	0.038560	0.247218
C148	C	1.931542	0.288560	0.497218
H149	H	0.693237	-0.530993	-0.802682
H150	H	0.943237	-0.280993	-0.552682
H151	H	1.193237	-0.030993	-0.302682
H152	H	1.443237	0.219007	-0.052682
H153	H	1.112174	-0.972554	-0.792628
H154	H	1.362174	-0.722554	-0.542628
H155	H	1.612174	-0.472554	-0.292628
H156	H	1.862174	-0.222554	-0.042628
H157	H	1.250809	-0.949804	-0.603413
H158	H	1.500809	-0.699804	-0.353413
H159	H	1.750809	-0.449804	-0.103413
H160	H	2.000809	-0.199804	0.146587
H161	H	0.670441	-0.392263	-0.593428
H162	H	0.920441	-0.142263	-0.343428
H163	H	1.170441	0.107737	-0.093428
H164	H	1.420441	0.357737	0.156572
