data_functionalizedCrystal
_audit_creation_method	'MofGen! by Chris Wilmer'
_symmetry_space_group_name_H-M	'P1'
_symmetry_Int_Tables_number	1
_symmetry_cell_setting	triclinic
loop_
_symmetry_equiv_pos_as_xyz
  x,y,z
_cell_length_a	15.944551
_cell_length_b	15.021413
_cell_length_c	10.654551
_cell_angle_alpha	89.996925
_cell_angle_beta	83.992083
_cell_angle_gamma	89.988701
loop_
_atom_site_label
_atom_site_type_symbol
_atom_site_fract_x
_atom_site_fract_y
_atom_site_fract_z
O1	O	1.115449	0.073936	0.161957
O2	O	0.871015	0.073957	0.181926
O3	O	0.998851	0.073944	-0.010870
O4	O	0.987613	0.073949	0.354753
O5	O	0.998867	-0.074120	-0.010858
O6	O	0.871030	-0.074107	0.181938
O7	O	1.115464	-0.074129	0.161969
Zn8	Zn	0.993249	-0.097626	0.171955
Zn9	Zn	0.993230	0.097455	0.171940
O10	O	0.987628	-0.074115	0.354765
C11	C	0.839724	-0.000072	0.181103
C12	C	0.746463	-0.000064	0.178618
N13	N	0.993269	-0.230764	0.171965
C14	C	1.052392	-0.470429	0.082796
C15	C	0.976351	-0.529752	0.058400
C16	C	0.993250	-0.412371	0.171950
C17	C	1.069272	-0.529790	0.196272
C18	C	0.993237	-0.587795	0.171932
C19	C	0.917170	-0.470387	0.147498
C20	C	1.010140	-0.470420	0.285418
C21	C	0.934045	-0.529715	0.261071
C22	C	0.993258	-0.311313	0.171957
C23	C	0.993221	-0.688850	0.171925
C24	C	0.530880	-0.000082	0.053173
C25	C	0.470190	0.072922	0.111419
C26	C	0.575711	-0.000074	0.174122
C27	C	0.470227	-0.073058	0.111460
C28	C	0.410774	-0.000088	0.169770
C29	C	0.516250	0.072990	0.232401
C30	C	0.516293	-0.073055	0.232425
C31	C	0.455621	-0.000033	0.290759
C32	C	0.670728	-0.000065	0.176625
C33	C	0.315758	-0.000091	0.167275
C34	C	1.146755	-0.000097	0.162792
C35	C	1.240016	-0.000100	0.165277
C36	C	0.998034	-0.000087	-0.057652
C37	C	0.995564	-0.000082	-0.197063
N38	N	0.993216	0.230593	0.171920
C39	C	0.994397	0.080629	-0.262558
C40	C	0.992069	0.080630	-0.393548
C41	C	0.992080	-0.080798	-0.393537
C42	C	0.994401	-0.080798	-0.262548
C43	C	0.988445	-0.000083	0.401547
C44	C	0.990915	-0.000081	0.540958
H45	H	1.102354	-0.444397	0.007360
H46	H	0.536727	-0.134776	0.283543
F47	F	1.028860	-0.436324	0.410812
H48	H	0.449851	-0.134775	0.060286
H49	H	0.423044	0.000009	0.391240
F50	F	0.990825	0.166533	-0.463247
H51	H	0.962054	-0.555814	-0.037565
H52	H	0.883969	-0.555582	0.336462
H53	H	1.133567	-0.555883	0.216852
F54	F	0.833110	-0.436428	0.120453
F55	F	0.995631	0.166534	-0.192868
F56	F	0.995636	-0.166706	-0.192837
F57	F	0.573656	0.000007	-0.078047
H58	H	0.449777	0.134640	0.060258
F59	F	0.542750	0.153751	0.299210
H60	H	0.991135	-0.146514	-0.446872
