data_functionalizedCrystal
_audit_creation_method	'MofGen! by Chris Wilmer'
_symmetry_space_group_name_H-M	'P1'
_symmetry_Int_Tables_number	1
_symmetry_cell_setting	triclinic
loop_
_symmetry_equiv_pos_as_xyz
  x,y,z
_cell_length_a	10.967926
_cell_length_b	11.792254
_cell_length_c	10.065875
_cell_angle_alpha	98.849918
_cell_angle_beta	93.120479
_cell_angle_gamma	84.460570
loop_
_atom_site_label
_atom_site_type_symbol
_atom_site_fract_x
_atom_site_fract_y
_atom_site_fract_z
O1	O	1.614190	0.197972	0.266153
O2	O	1.264167	0.201214	0.183827
O3	O	1.447663	0.034735	0.226996
O4	O	1.430694	0.364451	0.222985
O5	O	1.412674	0.066614	0.445753
O6	O	1.229178	0.233092	0.402585
O7	O	1.579201	0.229851	0.484911
Zn8	Zn	1.398634	0.236533	0.478480
Zn9	Zn	1.444734	0.194532	0.190258
O10	O	1.395705	0.396330	0.441742
C11	C	1.201862	0.214509	0.282666
C12	C	1.068340	0.206615	0.251262
C13	C	0.990686	0.219610	0.350584
C14	C	0.852683	0.211451	0.318128
C15	C	1.429100	0.008344	0.336122
C16	C	1.425900	-0.117786	0.335368
C17	C	1.423300	-0.220218	0.334752
C18	C	1.420051	-0.348725	0.333975
C19	C	1.641507	0.216556	0.386068
C20	C	1.775030	0.224448	0.417464
C21	C	1.414269	0.422720	0.332613
C22	C	1.417470	0.548849	0.333358
N23	N	1.367181	0.265198	0.675186
N24	N	1.476197	0.165858	-0.006446
C25	C	1.433783	0.204497	0.758633
C26	C	1.409585	0.226567	0.910108
H27	H	1.032655	0.189447	0.142202
H28	H	1.334641	0.294875	0.950798
H29	H	1.292241	0.333500	0.715882
H30	H	0.817005	0.194282	0.209061
H31	H	1.551132	0.097542	0.952862
C32	C	0.984166	0.348475	0.559926
C33	C	1.038839	0.242779	0.497820
H34	H	1.013886	0.362772	0.650828
H35	H	1.003787	0.408304	0.513670
H36	H	0.897744	0.346020	0.557417
H37	H	1.125261	0.245236	0.500320
H38	H	1.019227	0.182934	0.544088
C39	C	1.509379	0.004659	0.732061
C40	C	1.534950	0.112302	0.703670
H41	H	1.571836	-0.052253	0.698113
H42	H	1.506419	0.007371	0.826637
H43	H	1.432546	-0.014152	0.690664
H44	H	1.611780	0.131116	0.745075
H45	H	1.537923	0.109591	0.609076
H46	H	0.810708	0.241610	0.526533
