data_functionalizedCrystal
_audit_creation_method	'MofGen! by Chris Wilmer'
_symmetry_space_group_name_H-M	'P1'
_symmetry_Int_Tables_number	1
_symmetry_cell_setting	triclinic
loop_
_symmetry_equiv_pos_as_xyz
  x,y,z
_cell_length_a	10.685594
_cell_length_b	10.686220
_cell_length_c	10.685910
_cell_angle_alpha	90.323968
_cell_angle_beta	89.672925
_cell_angle_gamma	81.595529
loop_
_atom_site_label
_atom_site_type_symbol
_atom_site_fract_x
_atom_site_fract_y
_atom_site_fract_z
Zn1	Zn	-0.307655	-1.950470	0.587647
Zn2	Zn	0.192345	-1.450470	1.087647
Zn3	Zn	-0.535744	-1.918263	0.396603
Zn4	Zn	-0.035744	-1.418263	0.896603
Zn5	Zn	-0.339809	-1.722387	0.396599
Zn6	Zn	0.160191	-1.222387	0.896599
Zn7	Zn	-0.533304	-1.724793	0.622185
Zn8	Zn	-0.033304	-1.224793	1.122185
O9	O	-0.429128	-1.828978	0.500759
O10	O	0.070872	-1.328978	1.000759
O11	O	-0.325477	-2.122618	0.547852
O12	O	0.174523	-1.622618	1.047852
O13	O	-0.524231	-1.877794	0.222241
O14	O	-0.024231	-1.377794	0.722241
O15	O	-0.159109	-1.765115	0.407487
O16	O	0.340891	-1.265115	0.907487
O17	O	-0.493053	-2.098956	0.407492
O18	O	0.006947	-1.598956	0.907492
O19	O	-0.135486	-1.932686	0.547849
O20	O	0.364514	-1.432686	1.047849
O21	O	-0.380278	-1.733885	0.222238
O22	O	0.119722	-1.233885	0.722238
O23	O	-0.377911	-1.546286	0.440976
O24	O	0.122089	-1.046286	0.940976
O25	O	-0.488893	-1.769215	0.791965
O26	O	0.011107	-1.269215	1.291965
O27	O	-0.520071	-1.548053	0.606714
O28	O	-0.020071	-1.048053	1.106714
O29	O	-0.323110	-1.935019	0.766590
O30	O	0.176890	-1.435019	1.266590
O31	O	-0.711855	-1.880127	0.440982
O32	O	-0.211855	-1.380127	0.940982
O33	O	-0.710062	-1.737985	0.606717
O34	O	-0.210062	-1.237985	1.106717
C35	C	-0.452216	-1.501426	0.527593
C36	C	0.047784	-1.001426	1.027593
C37	C	-0.462121	-1.361297	0.539105
C38	C	0.037879	-0.861297	1.039105
C39	C	-0.756701	-1.805859	0.527622
C40	C	-0.256701	-1.305859	1.027622
C41	C	-0.896827	-1.796087	0.539147
C42	C	-0.396827	-1.296087	1.039147
C43	C	-0.402143	-1.855978	0.825752
C44	C	0.097857	-1.355978	1.325752
C45	C	-0.390643	-1.867484	0.964245
C46	C	0.109357	-1.367484	1.464245
C47	C	-0.100271	-1.852225	0.473815
C48	C	0.399729	-1.352225	0.973815
C49	C	0.039869	-1.862131	0.462333
C50	C	0.539869	-1.362131	0.962333
C51	C	-0.405950	-2.157810	0.473820
C52	C	0.094050	-1.657810	0.973820
C53	C	-0.396074	-2.297938	0.462341
C54	C	0.103926	-1.797938	0.962341
C55	C	-0.456039	-1.802074	1.177033
C56	C	0.043961	-1.302074	1.677033
C57	C	-0.467545	-1.790575	1.038540
C58	C	0.032455	-1.290575	1.538540
H59	H	-0.949836	-1.732068	0.613736
H60	H	-0.449836	-1.232068	1.113736
H61	H	-0.907129	-1.926157	0.387757
H62	H	-0.407129	-1.426157	0.887757
H63	H	-0.331950	-1.350896	0.387811
H64	H	0.168050	-0.850896	0.887811
C65	C	-0.289813	-1.968339	1.021444
C66	C	0.210187	-1.468339	1.521444
H67	H	-0.295046	-1.963102	1.110145
H68	H	0.204954	-1.463102	1.610145
H69	H	-0.304042	-2.049992	0.994740
H70	H	0.195958	-1.549992	1.494740
H71	H	-0.208140	-1.954124	0.994748
H72	H	0.291860	-1.454124	1.494748
H73	H	-0.526258	-1.308332	0.613632
H74	H	-0.026258	-0.808332	1.113632
H75	H	-0.542186	-1.715931	0.996196
H76	H	-0.042186	-1.215931	1.496196
