data_functionalizedCrystal
_audit_creation_method	'MofGen! by Chris Wilmer'
_symmetry_space_group_name_H-M	'P1'
_symmetry_Int_Tables_number	1
_symmetry_cell_setting	triclinic
loop_
_symmetry_equiv_pos_as_xyz
  x,y,z
_cell_length_a	14.908571
_cell_length_b	17.637651
_cell_length_c	14.908308
_cell_angle_alpha	81.356405
_cell_angle_beta	90.175053
_cell_angle_gamma	97.315537
loop_
_atom_site_label
_atom_site_type_symbol
_atom_site_fract_x
_atom_site_fract_y
_atom_site_fract_z
Zn1	Zn	1.257978	-0.403217	-0.489413
Zn2	Zn	1.757978	0.096783	0.010587
Zn3	Zn	1.240094	-0.525429	-0.309299
Zn4	Zn	1.740094	-0.025429	0.190701
Zn5	Zn	1.119507	-0.388376	-0.334024
Zn6	Zn	1.619507	0.111624	0.165976
Zn7	Zn	1.081320	-0.524511	-0.451174
Zn8	Zn	1.581320	-0.024511	0.048826
O9	O	1.174725	-0.460383	-0.395977
O10	O	1.674725	0.039617	0.104023
O11	O	1.380004	-0.426024	-0.471176
O12	O	1.880004	0.073976	0.028824
O13	O	1.232594	-0.501422	-0.188173
O14	O	1.732594	-0.001422	0.311827
O15	O	1.161342	-0.282226	-0.380987
O16	O	1.661342	0.217774	0.119013
O17	O	1.366864	-0.515812	-0.338847
O18	O	1.866864	-0.015812	0.161153
O19	O	1.263076	-0.293130	-0.495151
O20	O	1.763076	0.206870	0.004849
O21	O	1.144000	-0.400730	-0.206338
O22	O	1.644000	0.099270	0.293662
O23	O	0.990044	-0.399840	-0.343908
O24	O	1.490044	0.100160	0.156092
O25	O	1.096258	-0.514248	-0.580653
O26	O	1.596258	-0.014248	-0.080653
O27	O	0.961988	-0.499858	-0.429978
O28	O	1.461988	0.000142	0.070022
O29	O	1.226048	-0.425134	-0.608746
O30	O	1.726048	0.074866	-0.108746
O31	O	1.195566	-0.633426	-0.301768
O32	O	1.695566	-0.133426	0.198232
O33	O	1.078915	-0.632752	-0.406003
O34	O	1.578915	-0.132752	0.093997
C35	C	0.943761	-0.448139	-0.385477
C36	C	1.443761	0.051861	0.114523
C37	C	0.844948	-0.442921	-0.381002
C38	C	1.344948	0.057079	0.118998
C39	C	0.630079	-0.537409	-0.462026
C40	C	1.130079	-0.037409	0.037974
C41	C	0.537235	-0.532508	-0.457824
C42	C	1.037235	-0.032508	0.042176
C43	C	0.566414	-0.428216	-0.368400
C44	C	1.066414	0.071784	0.131600
C45	C	0.659258	-0.433116	-0.372603
C46	C	1.159258	0.066884	0.127397
C47	C	0.691087	-0.487716	-0.419416
C48	C	1.191087	0.012284	0.080584
C49	C	0.783932	-0.492620	-0.423613
C50	C	1.283932	0.007380	0.076387
C51	C	0.813110	-0.388324	-0.334195
C52	C	1.313110	0.111676	0.165805
C53	C	0.720266	-0.383423	-0.329992
C54	C	1.220266	0.116577	0.170008
C55	C	1.131179	-0.661125	-0.347074
C56	C	1.631179	-0.161125	0.152926
C57	C	1.112629	-0.747009	-0.326186
C58	C	1.612629	-0.247009	0.173814
C59	C	1.316205	-1.057562	-0.554965
C60	C	1.816205	-0.557562	-0.054965
C61	C	1.298747	-1.138260	-0.535321
C62	C	1.798747	-0.638260	-0.035321
C63	C	1.192895	-1.127013	-0.416336
C64	C	1.692895	-0.627013	0.083664
C65	C	1.210347	-1.046312	-0.435967
C66	C	1.710347	-0.546312	0.064033
C67	C	1.272002	-1.011592	-0.505283
C68	C	1.772002	-0.511592	-0.005283
C69	C	1.166144	-1.000342	-0.386285
C70	C	1.666144	-0.500342	0.113715
C71	C	1.183592	-0.919648	-0.405918
C72	C	1.683592	-0.419648	0.094082
C73	C	1.245242	-0.884923	-0.475233
C74	C	1.745242	-0.384923	0.024767
C75	C	1.289450	-0.930898	-0.524916
C76	C	1.789450	-0.430898	-0.024916
C77	C	1.104485	-1.035063	-0.316974
C78	C	1.604485	-0.535063	0.183026
C79	C	1.060282	-0.989094	-0.267292
C80	C	1.560282	-0.489094	0.232708
C81	C	1.077734	-0.908398	-0.286920
C82	C	1.577734	-0.408398	0.213080
C83	C	1.139384	-0.873673	-0.356235
C84	C	1.639384	-0.373673	0.143765
C85	C	1.033526	-0.862423	-0.237237
C86	C	1.533526	-0.362423	0.262763
C87	C	1.050974	-0.781728	-0.256870
C88	C	1.550974	-0.281728	0.243130
C89	C	1.156832	-0.792978	-0.375868
C90	C	1.656832	-0.292978	0.124132
C91	C	1.406591	-0.472676	-0.406519
C92	C	1.906591	0.027324	0.093481
C93	C	1.505398	-0.477914	-0.411011
C94	C	2.005398	0.022086	0.088989
C95	C	1.158888	-0.471244	-0.627859
C96	C	1.658888	0.028756	-0.127859
C97	C	1.152139	-0.475872	-0.726672
C98	C	1.652139	0.024128	-0.226672
C99	C	1.218464	-0.258860	-0.445092
C100	C	1.718464	0.241140	0.054908
C101	C	1.237103	-0.172983	-0.466022
C102	C	1.737103	0.327017	0.033978
C103	C	1.274609	-0.391756	-0.941615
C104	C	1.774609	0.108244	-0.441615
C105	C	1.268271	-0.396102	-1.034460
C106	C	1.768271	0.103898	-0.534460
C107	C	1.133123	-0.488905	-1.005211
C108	C	1.633123	0.011095	-0.505211
C109	C	1.139461	-0.484559	-0.912366
C110	C	1.639461	0.015441	-0.412366
C111	C	1.210207	-0.435984	-0.880571
C112	C	1.710207	0.064016	-0.380571
C113	C	1.216548	-0.431642	-0.787723
C114	C	1.716548	0.068358	-0.287723
C115	C	1.081396	-0.524441	-0.758477
C116	C	1.581396	-0.024441	-0.258477
C117	C	1.075059	-0.528787	-0.851322
C118	C	1.575059	-0.028787	-0.351322
C119	C	1.190563	-0.449512	-0.165014
C120	C	1.690563	0.050488	0.334986
C121	C	1.197532	-0.444676	-0.066262
C122	C	1.697532	0.055324	0.433738
H123	H	0.655993	-0.581870	-0.500138
H124	H	1.155993	-0.081870	-0.000138
H125	H	1.339663	-0.902629	-0.581354
H126	H	1.839663	-0.402629	-0.081354
H127	H	1.259447	-0.819216	-0.491216
H128	H	1.759447	-0.319216	0.008784
H129	H	1.334734	-1.175687	-0.575795
H130	H	1.834734	-0.675687	-0.075795
C131	C	0.880227	-0.333659	-0.287317
C132	C	1.380227	0.166341	0.212683
N133	N	0.930780	-0.292490	-0.252007
N134	N	1.430780	0.207510	0.247993
C135	C	1.384028	-1.019366	-0.631218
C136	C	1.884028	-0.519366	-0.131218
N137	N	1.435106	-0.990597	-0.688652
N138	N	1.935106	-0.490597	-0.188652
H139	H	0.809845	-0.537078	-0.461729
H140	H	1.309845	-0.037078	0.038271
C141	C	1.352433	-0.338327	-0.906638
C142	C	1.852433	0.161673	-0.406638
N143	N	1.411051	-0.298083	-0.880295
N144	N	1.911051	0.201917	-0.380295
C145	C	1.339121	-0.347450	-1.101605
C146	C	1.839121	0.152550	-0.601605
N147	N	1.392488	-0.310803	-1.152179
N148	N	1.892488	0.189197	-0.652179
C149	C	1.055291	-0.542313	-1.040206
C150	C	1.555291	-0.042313	-0.540206
N151	N	0.996662	-0.582535	-1.066567
N152	N	1.496662	-0.082535	-0.566567
H153	H	0.487564	-0.572973	-0.492523
H154	H	0.987564	-0.072973	0.007477
H155	H	1.142693	-1.155292	-0.359901
H156	H	1.642693	-0.655292	0.140099
H157	H	1.017458	-0.568334	-0.877223
H158	H	1.517458	-0.068334	-0.377223
H159	H	0.540482	-0.383759	-0.330294
H160	H	1.040482	0.116241	0.169706
C161	C	1.085288	-1.123830	-0.295384
C162	C	1.585288	-0.623830	0.204616
N163	N	1.070830	-1.190689	-0.279124
N164	N	1.570830	-0.690689	0.220876
H165	H	0.694338	-0.338968	-0.291881
H166	H	1.194338	0.161032	0.208119
C167	C	1.224654	-0.754783	-0.452121
C168	C	1.724654	-0.254783	0.047879
N169	N	1.275733	-0.726014	-0.509555
N170	N	1.775733	-0.226014	-0.009555
C171	C	0.992523	-1.027295	-0.190993
C172	C	1.492523	-0.527295	0.309007
N173	N	0.941509	-1.056067	-0.133503
N174	N	1.441509	-0.556067	0.366497
H175	H	0.983320	-0.890703	-0.180806
H176	H	1.483320	-0.390703	0.319194
C177	C	1.002357	-0.731159	-0.202210
C178	C	1.502357	-0.231159	0.297790
N179	N	0.965738	-0.693071	-0.161037
N180	N	1.465738	-0.193071	0.338963
C181	C	1.294367	-0.378206	-0.752751
C182	C	1.794367	0.121794	-0.252751
N183	N	1.352980	-0.337954	-0.726414
N184	N	1.852980	0.162046	-0.226414
C185	C	1.010549	-0.573096	-0.691320
C186	C	1.510549	-0.073096	-0.191320
N187	N	0.957190	-0.609743	-0.640737
N188	N	1.457190	-0.109743	-0.140737
