data_functionalizedCrystal
_audit_creation_method	'MofGen! by Chris Wilmer'
_symmetry_space_group_name_H-M	'P1'
_symmetry_Int_Tables_number	1
_symmetry_cell_setting	triclinic
loop_
_symmetry_equiv_pos_as_xyz
  x,y,z
_cell_length_a	14.044220
_cell_length_b	19.288840
_cell_length_c	18.366186
_cell_angle_alpha	90.016305
_cell_angle_beta	90.005656
_cell_angle_gamma	88.157446
loop_
_atom_site_label
_atom_site_type_symbol
_atom_site_fract_x
_atom_site_fract_y
_atom_site_fract_z
O1	O	0.118099	0.928952	0.060674
O2	O	0.368099	1.178952	0.310674
O3	O	0.618099	1.428952	0.560674
O4	O	0.868099	1.678952	0.810674
O5	O	0.134070	0.727715	0.060649
O6	O	0.384070	0.977715	0.310649
O7	O	0.634070	1.227715	0.560649
O8	O	0.884070	1.477715	0.810649
O9	O	-0.011887	0.825313	0.060654
O10	O	0.238113	1.075313	0.310654
O11	O	0.488113	1.325313	0.560654
O12	O	0.738113	1.575313	0.810654
O13	O	0.264056	0.831354	0.060669
O14	O	0.514056	1.081354	0.310669
O15	O	0.764056	1.331354	0.560669
O16	O	1.014056	1.581354	0.810669
O17	O	-0.011891	0.825294	-0.060445
O18	O	0.238109	1.075294	0.189555
O19	O	0.488109	1.325294	0.439555
O20	O	0.738109	1.575294	0.689555
O21	O	0.134066	0.727697	-0.060450
O22	O	0.384066	0.977697	0.189550
O23	O	0.634066	1.227697	0.439550
O24	O	0.884066	1.477697	0.689550
O25	O	0.118095	0.928933	-0.060425
O26	O	0.368095	1.178933	0.189575
O27	O	0.618095	1.428933	0.439575
O28	O	0.868095	1.678933	0.689575
Zn29	Zn	0.126080	0.828312	-0.079665
Zn30	Zn	0.376080	1.078312	0.170335
Zn31	Zn	0.626080	1.328312	0.420335
Zn32	Zn	0.876080	1.578312	0.670335
Zn33	Zn	0.126085	0.828337	0.079889
Zn34	Zn	0.376085	1.078337	0.329889
Zn35	Zn	0.626085	1.328337	0.579889
Zn36	Zn	0.876085	1.578337	0.829889
O37	O	0.264052	0.831336	-0.060430
O38	O	0.514052	1.081336	0.189570
O39	O	0.764052	1.331336	0.439570
O40	O	1.014052	1.581336	0.689570
C41	C	0.133559	0.701796	0.000096
C42	C	0.383559	0.951796	0.250096
C43	C	0.633559	1.201796	0.500096
C44	C	0.883559	1.451796	0.750096
C45	C	0.132028	0.624594	0.000087
C46	C	0.382028	0.874594	0.250087
C47	C	0.632028	1.124594	0.500087
C48	C	0.882028	1.374594	0.750087
C49	C	-0.047191	0.822659	0.000104
C50	C	0.202809	1.072659	0.250104
C51	C	0.452809	1.322659	0.500104
C52	C	0.702809	1.572659	0.750104
C53	C	-0.152383	0.814772	0.000102
C54	C	0.097617	1.064772	0.250102
C55	C	0.347617	1.314772	0.500102
C56	C	0.597617	1.564772	0.750102
C57	C	0.131295	0.588353	0.066100
C58	C	0.381295	0.838353	0.316100
C59	C	0.631295	1.088353	0.566100
C60	C	0.881295	1.338353	0.816100
C61	C	0.129846	0.515813	0.066109
C62	C	0.379846	0.765813	0.316109
C63	C	0.629846	1.015813	0.566109
C64	C	0.879846	1.265813	0.816109
C65	C	0.129111	0.479517	0.000101
C66	C	0.379111	0.729517	0.250101
C67	C	0.629111	0.979517	0.500101
C68	C	0.879111	1.229517	0.750101
C69	C	0.129850	0.515766	-0.065921
C70	C	0.379850	0.765766	0.184079
C71	C	0.629850	1.015766	0.434079
C72	C	0.879850	1.265766	0.684079
C73	C	0.131308	0.588304	-0.065928
C74	C	0.381308	0.838304	0.184072
C75	C	0.631308	1.088304	0.434072
C76	C	0.881308	1.338304	0.684072
C77	C	0.071294	0.366467	-0.050464
C78	C	0.321294	0.616467	0.199536
C79	C	0.571294	0.866467	0.449536
C80	C	0.821294	1.116467	0.699536
C81	C	0.069829	0.293930	-0.050454
C82	C	0.319829	0.543930	0.199546
C83	C	0.569829	0.793930	0.449546
C84	C	0.819829	1.043930	0.699546
C85	C	0.124617	0.255785	0.000119
C86	C	0.374617	0.505785	0.250119
C87	C	0.624617	0.755785	0.500119
C88	C	0.874617	1.005785	0.750119
C89	C	0.180856	0.290185	0.050695
C90	C	0.430856	0.540185	0.300695
C91	C	0.680856	0.790185	0.550695
C92	C	0.930856	1.040185	0.800695
C93	C	0.182315	0.362724	0.050688
C94	C	0.432315	0.612724	0.300688
C95	C	0.682315	0.862724	0.550688
C96	C	0.932315	1.112724	0.800688
C97	C	0.127530	0.400861	0.000101
C98	C	0.377530	0.650861	0.250101
C99	C	0.627530	0.900861	0.500101
C100	C	0.877530	1.150861	0.750101
C101	C	0.122314	0.140888	0.066147
C102	C	0.372314	0.390888	0.316147
C103	C	0.622314	0.640888	0.566147
C104	C	0.872314	0.890888	0.816147
C105	C	0.120871	0.068346	0.066153
C106	C	0.370871	0.318346	0.316153
C107	C	0.620871	0.568346	0.566153
C108	C	0.870871	0.818346	0.816153
C109	C	0.120865	0.068301	-0.065879
C110	C	0.370865	0.318301	0.184121
C111	C	0.620865	0.568301	0.434121
C112	C	0.870865	0.818301	0.684121
C113	C	0.122318	0.140841	-0.065883
C114	C	0.372318	0.390841	0.184117
C115	C	0.622318	0.640841	0.434117
C116	C	0.872318	0.890841	0.684117
C117	C	0.123037	0.177130	0.000132
C118	C	0.373037	0.427130	0.250132
C119	C	0.623037	0.677130	0.500132
C120	C	0.873037	0.927130	0.750132
C121	C	-0.344981	0.800351	0.000111
C122	C	-0.094981	1.050351	0.250111
C123	C	0.155019	1.300351	0.500111
C124	C	0.405019	1.550351	0.750111
C125	C	-0.402860	0.856295	0.000120
C126	C	-0.152860	1.106295	0.250120
C127	C	0.097140	1.356295	0.500120
C128	C	0.347140	1.606295	0.750120
C129	C	-0.510028	0.848271	0.000125
C130	C	-0.260028	1.098271	0.250125
C131	C	-0.010028	1.348271	0.500125
C132	C	0.239972	1.598271	0.750125
C133	C	-0.237802	0.808374	0.000106
C134	C	0.012198	1.058374	0.250106
C135	C	0.262198	1.308374	0.500106
C136	C	0.512198	1.558374	0.750106
C137	C	0.299357	0.833989	0.000122
C138	C	0.549357	1.083989	0.250122
C139	C	0.799357	1.333989	0.500122
C140	C	1.049357	1.583989	0.750122
C141	C	0.404548	0.841877	0.000129
C142	C	0.654548	1.091877	0.250129
C143	C	0.904548	1.341877	0.500129
C144	C	1.154548	1.591877	0.750129
C145	C	0.118607	0.954852	0.000129
C146	C	0.368607	1.204852	0.250129
C147	C	0.618607	1.454852	0.500129
C148	C	0.868607	1.704852	0.750129
C149	C	0.120138	1.032055	0.000144
C150	C	0.370138	1.282055	0.250144
C151	C	0.620138	1.532055	0.500144
C152	C	0.870138	1.782055	0.750144
N153	N	0.126076	0.828300	-0.188556
N154	N	0.376076	1.078300	0.061444
N155	N	0.626076	1.328300	0.311444
N156	N	0.876076	1.578300	0.561444
C157	C	0.183403	0.873972	-0.226641
C158	C	0.433403	1.123972	0.023359
C159	C	0.683403	1.373972	0.273359
C160	C	0.933403	1.623972	0.523359
C161	C	0.183401	0.873983	-0.302869
C162	C	0.433401	1.123983	-0.052869
C163	C	0.683401	1.373983	0.197131
C164	C	0.933401	1.623983	0.447131
C165	C	0.126082	0.828310	-0.341009
C166	C	0.376082	1.078310	-0.091009
C167	C	0.626082	1.328310	0.158991
C168	C	0.876082	1.578310	0.408991
C169	C	0.068743	0.782635	-0.302914
C170	C	0.318743	1.032635	-0.052914
C171	C	0.568743	1.282635	0.197086
C172	C	0.818743	1.532635	0.447086
C173	C	0.068740	0.782630	-0.226687
C174	C	0.318740	1.032630	0.023313
C175	C	0.568740	1.282630	0.273313
C176	C	0.818740	1.532630	0.523313
C177	C	0.123692	0.765544	-0.461798
C178	C	0.373692	1.015544	-0.211798
C179	C	0.623692	1.265544	0.038202
C180	C	0.873692	1.515544	0.288202
C181	C	0.123702	0.765548	-0.538022
C182	C	0.373702	1.015548	-0.288022
C183	C	0.623702	1.265548	-0.038022
C184	C	0.873702	1.515548	0.211978
C185	C	0.126085	0.828326	-0.576116
C186	C	0.376085	1.078326	-0.326116
C187	C	0.626085	1.328326	-0.076116
C188	C	0.876085	1.578326	0.173884
C189	C	0.128478	0.891102	-0.537975
C190	C	0.378478	1.141102	-0.287975
C191	C	0.628478	1.391102	-0.037975
C192	C	0.878478	1.641102	0.212025
C193	C	0.128475	0.891097	-0.461749
C194	C	0.378475	1.141097	-0.211749
C195	C	0.628475	1.391097	0.038251
C196	C	0.878475	1.641097	0.288251
C197	C	0.126078	0.828311	-0.423663
C198	C	0.376078	1.078311	-0.173663
C199	C	0.626078	1.328311	0.076337
C200	C	0.876078	1.578311	0.326337
C201	C	0.183412	0.874014	-0.696856
C202	C	0.433412	1.124014	-0.446856
C203	C	0.683412	1.374014	-0.196856
C204	C	0.933412	1.624014	0.053144
C205	C	0.183403	0.874026	-0.773086
C206	C	0.433403	1.124026	-0.523086
C207	C	0.683403	1.374026	-0.273086
C208	C	0.933403	1.624026	-0.023086
C209	C	0.068750	0.782672	-0.773129
C210	C	0.318750	1.032672	-0.523129
C211	C	0.568750	1.282672	-0.273129
C212	C	0.818750	1.532672	-0.023129
C213	C	0.068754	0.782666	-0.696901
C214	C	0.318754	1.032666	-0.446901
C215	C	0.568754	1.282666	-0.196901
C216	C	0.818754	1.532666	0.053099
C217	C	0.126090	0.828336	-0.658770
C218	C	0.376090	1.078336	-0.408770
C219	C	0.626090	1.328336	-0.158770
C220	C	0.876090	1.578336	0.091230
N221	N	0.126082	0.828354	0.188780
N222	N	0.376082	1.078354	0.438780
N223	N	0.626082	1.328354	0.688780
N224	N	0.876082	1.578354	0.938780
H225	H	0.131881	0.617895	0.119854
H226	H	0.381881	0.867895	0.369854
H227	H	0.631881	1.117895	0.619854
H228	H	0.881881	1.367895	0.869854
Br229	Br	0.128853	0.466618	0.155704
Br230	Br	0.378853	0.716618	0.405704
Br231	Br	0.628853	0.966618	0.655704
Br232	Br	0.878853	1.216618	0.905704
H233	H	0.120273	0.038749	-0.119624
H234	H	0.370273	0.288749	0.130376
H235	H	0.620273	0.538749	0.380376
H236	H	0.870273	0.788749	0.630376
Br237	Br	-0.396537	0.710484	0.000106
Br238	Br	-0.146537	0.960484	0.250106
Br239	Br	0.103463	1.210484	0.500106
Br240	Br	0.353463	1.460484	0.750106
Br241	Br	-0.351306	0.946168	0.000125
Br242	Br	-0.101306	1.196168	0.250125
Br243	Br	0.148694	1.446168	0.500125
Br244	Br	0.398694	1.696168	0.750125
H245	H	0.230087	0.911162	-0.195599
H246	H	0.480087	1.161162	0.054401
H247	H	0.730087	1.411162	0.304401
H248	H	0.980087	1.661162	0.554401
H249	H	0.230086	0.911175	-0.333884
H250	H	0.480086	1.161175	-0.083884
H251	H	0.730086	1.411175	0.166116
H252	H	0.980086	1.661175	0.416116
H253	H	0.130421	0.942212	-0.430698
H254	H	0.380421	1.192212	-0.180698
H255	H	0.630421	1.442212	0.069302
H256	H	0.880421	1.692212	0.319302
Br257	Br	0.131715	0.976307	-0.589663
Br258	Br	0.381715	1.226307	-0.339663
Br259	Br	0.631715	1.476307	-0.089663
Br260	Br	0.881715	1.726307	0.160337
Br261	Br	0.261202	0.936006	-0.645102
Br262	Br	0.511202	1.186006	-0.395102
Br263	Br	0.761202	1.436006	-0.145102
Br264	Br	1.011202	1.686006	0.104898
Br265	Br	0.261204	0.936019	-0.824775
Br266	Br	0.511204	1.186019	-0.574775
Br267	Br	0.761204	1.436019	-0.324775
Br268	Br	1.011204	1.686019	-0.074775
Br269	Br	0.258638	0.409409	0.119321
Br270	Br	0.508638	0.659409	0.369321
Br271	Br	0.758638	0.909409	0.619321
Br272	Br	1.008638	1.159409	0.869321
Br273	Br	-0.009057	0.720697	-0.824881
Br274	Br	0.240943	0.970697	-0.574881
Br275	Br	0.490943	1.220697	-0.324881
Br276	Br	0.740943	1.470697	-0.074881
Br277	Br	-0.009034	0.720668	-0.645210
Br278	Br	0.240966	0.970668	-0.395210
Br279	Br	0.490966	1.220668	-0.145210
Br280	Br	0.740966	1.470668	0.104790
Br281	Br	-0.009064	0.720640	-0.174996
Br282	Br	0.240936	0.970640	0.075004
Br283	Br	0.490936	1.220640	0.325004
Br284	Br	0.740936	1.470640	0.575004
Br285	Br	0.120469	0.680353	-0.589777
Br286	Br	0.370469	0.930353	-0.339777
Br287	Br	0.620469	1.180353	-0.089777
Br288	Br	0.870469	1.430353	0.160223
Br289	Br	0.120368	0.680342	-0.410107
Br290	Br	0.370368	0.930342	-0.160107
Br291	Br	0.620368	1.180342	0.089893
Br292	Br	0.870368	1.430342	0.339893
Br293	Br	-0.009054	0.720655	-0.354672
Br294	Br	0.240946	0.970655	-0.104672
Br295	Br	0.490946	1.220655	0.145328
Br296	Br	0.740946	1.470655	0.395328
H297	H	0.122910	0.170436	0.119900
H298	H	0.372910	0.420436	0.369900
H299	H	0.622910	0.670436	0.619900
H300	H	0.872910	0.920436	0.869900
Br301	Br	0.119888	0.019160	0.155750
Br302	Br	0.369888	0.269160	0.405750
Br303	Br	0.619888	0.519160	0.655750
Br304	Br	0.869888	0.769160	0.905750
Br305	Br	0.255218	0.238426	0.119335
Br306	Br	0.505218	0.488426	0.369335
Br307	Br	0.755218	0.738426	0.619335
Br308	Br	1.005218	0.988426	0.869335
H309	H	0.122909	0.170349	-0.119638
H310	H	0.372909	0.420349	0.130362
H311	H	0.622909	0.670349	0.380362
H312	H	0.872909	0.920349	0.630362
H313	H	0.129254	0.486209	-0.119665
H314	H	0.379254	0.736209	0.130335
H315	H	0.629254	0.986209	0.380335
H316	H	0.879254	1.236209	0.630335
H317	H	0.026677	0.397519	-0.091650
H318	H	0.276677	0.647519	0.158350
H319	H	0.526677	0.897519	0.408350
H320	H	0.776677	1.147519	0.658350
Br321	Br	-0.006471	0.247250	-0.119106
Br322	Br	0.243529	0.497250	0.130894
Br323	Br	0.493529	0.747250	0.380894
Br324	Br	0.743529	0.997250	0.630894
H325	H	0.131906	0.617811	-0.119686
H326	H	0.381906	0.867811	0.130314
H327	H	0.631906	1.117811	0.380314
H328	H	0.881906	1.367811	0.630314
