data_functionalizedCrystal
_audit_creation_method	'MofGen! by Chris Wilmer'
_symmetry_space_group_name_H-M	'P1'
_symmetry_Int_Tables_number	1
_symmetry_cell_setting	triclinic
loop_
_symmetry_equiv_pos_as_xyz
  x,y,z
_cell_length_a	21.295418
_cell_length_b	21.295417
_cell_length_c	15.296720
_cell_angle_alpha	99.638166
_cell_angle_beta	99.639667
_cell_angle_gamma	90.046319
loop_
_atom_site_label
_atom_site_type_symbol
_atom_site_fract_x
_atom_site_fract_y
_atom_site_fract_z
Zn1	Zn	0.900635	-0.311990	-0.510462
Zn2	Zn	1.400635	0.188010	-0.010462
Zn3	Zn	0.918777	-0.399045	-0.359609
Zn4	Zn	1.418777	0.100955	0.140391
Zn5	Zn	0.813600	-0.293820	-0.359587
Zn6	Zn	1.313600	0.206180	0.140413
Zn7	Zn	0.795341	-0.417240	-0.510350
Zn8	Zn	1.295341	0.082760	-0.010350
O9	O	0.857088	-0.355524	-0.435002
O10	O	1.357088	0.144476	0.064998
O11	O	0.991124	-0.323527	-0.490507
O12	O	1.491124	0.176473	0.009493
O13	O	0.920059	-0.369868	-0.233380
O14	O	1.420059	0.130132	0.266620
O15	O	0.825195	-0.208145	-0.379639
O16	O	1.325195	0.291855	0.120361
O17	O	1.004453	-0.387486	-0.379677
O18	O	1.504453	0.112514	0.120323
O19	O	0.889139	-0.221494	-0.490486
O20	O	1.389139	0.278506	0.009514
O21	O	0.842787	-0.292559	-0.233363
O22	O	1.342787	0.207441	0.266637
O23	O	0.723096	-0.310203	-0.379530
O24	O	1.223096	0.189797	0.120470
O25	O	0.794074	-0.418498	-0.636592
O26	O	1.294074	0.081502	-0.136592
O27	O	0.709680	-0.400879	-0.490295
O28	O	1.209680	0.099121	0.009705
O29	O	0.871433	-0.341170	-0.636674
O30	O	1.371433	0.158830	-0.136674
O31	O	0.902354	-0.489543	-0.379568
O32	O	1.402354	0.010457	0.120432
O33	O	0.811666	-0.502912	-0.490316
O34	O	1.311666	-0.002912	0.009684
C35	C	0.693549	-0.355544	-0.434898
C36	C	1.193549	0.144456	0.065102
C37	C	0.623584	-0.355571	-0.434875
C38	C	1.123584	0.144429	0.065125
C39	C	0.583759	-0.402829	-0.492464
C40	C	1.083759	0.097171	0.007536
C41	C	0.518011	-0.402818	-0.492505
C42	C	1.018011	0.097182	0.007495
C43	C	0.492093	-0.355554	-0.434940
C44	C	0.992093	0.144446	0.065060
C45	C	0.531927	-0.308288	-0.377347
C46	C	1.031927	0.191712	0.122653
C47	C	0.597672	-0.308296	-0.377315
C48	C	1.097672	0.191704	0.122685
N49	N	0.398357	-0.341111	-0.356046
N50	N	0.898357	0.158889	0.143954
N51	N	0.335901	-0.341107	-0.356079
N52	N	0.835901	0.158893	0.143921
C53	C	0.294007	-0.355526	-0.435036
C54	C	0.794007	0.144474	0.064964
N55	N	0.316928	-0.369961	-0.513959
N56	N	0.816928	0.130039	-0.013959
N57	N	0.379389	-0.369968	-0.513925
N58	N	0.879389	0.130032	-0.013925
C59	C	0.420805	-0.355540	-0.434969
C60	C	0.920805	0.144460	0.065031
C61	C	0.182891	-0.402775	-0.492674
C62	C	0.682891	0.097225	0.007326
C63	C	0.117142	-0.402760	-0.492716
C64	C	0.617142	0.097240	0.007284
C65	C	0.131060	-0.308232	-0.377550
C66	C	0.631060	0.191768	0.122450
C67	C	0.196806	-0.308244	-0.377516
C68	C	0.696806	0.191756	0.122484
C69	C	0.222718	-0.355519	-0.435077
C70	C	0.722718	0.144481	0.064923
C71	C	0.857012	-0.519069	-0.434952
C72	C	1.357012	-0.019069	0.065048
C73	C	0.857033	-0.589038	-0.434961
C74	C	1.357033	-0.089038	0.065039
C75	C	0.904283	-0.614931	-0.377353
C76	C	1.404283	-0.114931	0.122647
C77	C	0.904310	-0.680676	-0.377374
C78	C	1.404310	-0.180676	0.122626
C79	C	0.857077	-0.720525	-0.434992
C80	C	1.357077	-0.220525	0.065008
C81	C	0.809823	-0.694626	-0.492611
C82	C	1.309823	-0.194626	0.007389
C83	C	0.809801	-0.628883	-0.492595
C84	C	1.309801	-0.128883	0.007405
N85	N	0.801183	-0.824632	-0.441834
N86	N	1.301183	-0.324632	0.058166
N87	N	0.801206	-0.887084	-0.441843
N88	N	1.301206	-0.387084	0.058157
C89	C	0.857141	-0.918606	-0.435044
C90	C	1.357141	-0.418606	0.064956
N91	N	0.913056	-0.885313	-0.428217
N92	N	1.413056	-0.385313	0.071783
N93	N	0.913032	-0.822854	-0.428203
N94	N	1.413032	-0.322854	0.071797
C95	C	0.857096	-0.791813	-0.435016
C96	C	1.357096	-0.291813	0.064984
C97	C	0.904424	-1.015786	-0.377455
C98	C	1.404424	-0.515786	0.122545
C99	C	0.904452	-1.081532	-0.377482
C100	C	1.404452	-0.581532	0.122518
C101	C	0.809960	-1.095481	-0.492714
C102	C	1.309960	-0.595481	0.007286
C103	C	0.809937	-1.029736	-0.492692
C104	C	1.309937	-0.529736	0.007308
C105	C	0.857169	-0.989892	-0.435058
C106	C	1.357169	-0.489892	0.064942
C107	C	1.021266	-0.355504	-0.435107
C108	C	1.521266	0.144496	0.064893
C109	C	1.091229	-0.355495	-0.435151
C110	C	1.591229	0.144505	0.064849
C111	C	0.828693	-0.383890	-0.670277
C112	C	1.328693	0.116110	-0.170277
C113	C	0.816592	-0.395979	-0.770537
C114	C	1.316592	0.104021	-0.270537
C115	C	0.857180	-0.191342	-0.435072
C116	C	1.357180	0.308658	0.064928
C117	C	0.857219	-0.121377	-0.435102
C118	C	1.357219	0.378623	0.064898
C119	C	0.943595	-0.269017	-1.053326
C120	C	1.443595	0.230983	-0.553326
C121	C	0.954968	-0.257661	-0.959126
C122	C	1.454968	0.242339	-0.459126
C123	C	0.920375	-0.292239	-0.911975
C124	C	1.420375	0.207761	-0.411975
C125	C	0.874407	-0.338176	-0.959031
C126	C	1.374407	0.161824	-0.459031
C127	C	0.863037	-0.349537	-1.053240
C128	C	1.363037	0.150463	-0.553240
C129	C	0.839817	-0.372759	-0.911889
C130	C	1.339817	0.127241	-0.411889
C131	C	0.793849	-0.418696	-0.958946
C132	C	1.293849	0.081304	-0.458946
C133	C	0.782480	-0.430055	-1.053145
C134	C	1.282480	0.069945	-0.553145
C135	C	0.817073	-0.395476	-1.100297
C136	C	1.317073	0.104524	-0.600297
C137	C	0.851187	-0.361398	-0.817680
C138	C	1.351187	0.138602	-0.317680
C139	C	0.770629	-0.441918	-0.817594
C140	C	1.270629	0.058082	-0.317594
C141	C	0.759256	-0.453274	-0.911794
C142	C	1.259256	0.046726	-0.411794
C143	C	0.885409	-0.327222	-0.200642
C144	C	1.385409	0.172778	0.299358
C145	C	0.897632	-0.314956	-0.100383
C146	C	1.397632	0.185044	0.399617
H147	H	0.109958	-0.269746	-0.330684
H148	H	0.609958	0.230254	0.169316
O149	O	0.804803	-0.407727	-1.201902
O150	O	1.304803	0.092273	-0.701902
H151	H	0.836581	-0.375964	-1.226779
H152	H	1.336581	0.124036	-0.726779
H153	H	0.742461	-0.470076	-0.779203
H154	H	1.242461	0.029924	-0.279203
H155	H	0.888614	-0.323995	-0.779375
H156	H	1.388614	0.176005	-0.279375
O157	O	0.980904	-0.231732	-1.104186
O158	O	1.480904	0.268268	-0.604186
H159	H	1.014781	-0.197882	-1.055642
H160	H	1.514781	0.302118	-0.555642
H161	H	0.942789	-0.701761	-0.330463
H162	H	1.442789	-0.201761	0.169537
H163	H	0.084716	-0.441243	-0.539617
H164	H	0.584716	0.058757	-0.039617
O165	O	0.611707	-0.453814	-0.554549
O166	O	1.111707	0.046186	-0.054549
H167	H	0.636169	-0.431235	-0.600498
H168	H	1.136169	0.068765	-0.100498
O169	O	0.732902	-0.479599	-1.103905
O170	O	1.232902	0.020401	-0.603905
H171	H	0.710751	-0.501731	-1.055295
H172	H	1.210751	-0.001731	-0.555295
H173	H	0.721828	-0.490677	-0.950121
H174	H	1.221828	0.009323	-0.450121
H175	H	0.485579	-0.441302	-0.539404
H176	H	0.985579	0.058698	-0.039404
H177	H	0.229234	-0.269764	-0.330616
H178	H	0.729234	0.230236	0.169384
O179	O	0.955231	-0.571956	-0.315206
O180	O	1.455231	-0.071956	0.184794
H181	H	0.988096	-0.601011	-0.275158
H182	H	1.488096	-0.101011	0.224842
O183	O	0.758874	-0.737604	-0.554746
O184	O	1.258874	-0.237604	-0.054746
H185	H	0.781484	-0.773056	-0.600689
H186	H	1.281484	-0.273056	-0.100689
O187	O	0.503981	-0.257320	-0.315237
O188	O	1.003981	0.242680	0.184763
H189	H	0.451575	-0.265260	-0.324921
H190	H	0.951575	0.234740	0.175079
O191	O	0.758825	-0.600955	-0.554719
O192	O	1.258825	-0.100955	-0.054719
H193	H	0.761029	-0.622076	-0.625539
H194	H	1.261029	-0.122076	-0.125539
O195	O	0.640635	-0.257333	-0.315182
O196	O	1.140635	0.242667	0.184818
H197	H	0.611571	-0.224468	-0.275151
H198	H	1.111571	0.275532	0.224849
H199	H	0.942885	-0.983343	-0.330529
H200	H	1.442885	-0.483343	0.169471
O201	O	0.955417	-1.109467	-0.315350
O202	O	1.455417	-0.609467	0.184650
H203	H	0.953196	-1.088355	-0.244532
H204	H	1.453196	-0.588355	0.255468
O205	O	0.210845	-0.453754	-0.554764
O206	O	0.710845	0.046246	-0.054764
H207	H	0.172102	-0.486608	-0.594830
H208	H	0.672102	0.013392	-0.094830
O209	O	0.759011	-1.138453	-0.554856
O210	O	1.259011	-0.638453	-0.054856
H211	H	0.781624	-1.173901	-0.600803
H212	H	1.281624	-0.673901	-0.100803
O213	O	0.758961	-1.001800	-0.554803
O214	O	1.258961	-0.501800	-0.054803
H215	H	0.726115	-1.040552	-0.594863
H216	H	1.226115	-0.540552	-0.094863
H217	H	0.929638	-0.282990	-0.835273
H218	H	1.429638	0.217010	-0.335273
H219	H	0.992397	-0.220260	-0.920819
H220	H	1.492397	0.279740	-0.420819
