data_functionalizedCrystal
_audit_creation_method	'MofGen! by Chris Wilmer'
_symmetry_space_group_name_H-M	'P1'
_symmetry_Int_Tables_number	1
_symmetry_cell_setting	triclinic
loop_
_symmetry_equiv_pos_as_xyz
  x,y,z
_cell_length_a	17.699083
_cell_length_b	10.268362
_cell_length_c	17.699103
_cell_angle_alpha	89.989758
_cell_angle_beta	96.712962
_cell_angle_gamma	89.998556
loop_
_atom_site_label
_atom_site_type_symbol
_atom_site_fract_x
_atom_site_fract_y
_atom_site_fract_z
O1	O	1.004083	0.108132	-0.095711
O2	O	1.504083	0.608132	0.404289
O3	O	0.783705	0.108177	-0.108163
O4	O	1.283705	0.608177	0.391837
O5	O	0.900112	0.108128	0.008251
O6	O	1.400112	0.608128	0.508251
O7	O	0.887675	0.108180	-0.212125
O8	O	1.387675	0.608180	0.287875
O9	O	0.900102	-0.108473	0.008256
O10	O	1.400102	0.391527	0.508256
O11	O	0.783695	-0.108424	-0.108158
O12	O	1.283695	0.391576	0.391842
O13	O	1.004073	-0.108469	-0.095706
O14	O	1.504073	0.391531	0.404294
Cu15	Cu	0.893883	-0.128224	-0.101932
Cu16	Cu	1.393883	0.371776	0.398068
Cu17	Cu	0.893895	0.127932	-0.101937
Cu18	Cu	1.393895	0.627932	0.398063
O19	O	0.887665	-0.108420	-0.212120
O20	O	1.387665	0.391580	0.287880
C21	C	0.755503	-0.000118	-0.107715
C22	C	1.255503	0.499882	0.392285
C23	C	0.671485	-0.000103	-0.106376
C24	C	1.171485	0.499897	0.393624
N25	N	0.893880	-0.308390	-0.101927
N26	N	1.393880	0.191610	0.398073
C27	C	0.622869	-0.000087	-0.174709
C28	C	1.122869	0.499913	0.325291
C29	C	0.543925	-0.000104	-0.173447
C30	C	1.043925	0.499896	0.326553
C31	C	0.513600	-0.000128	-0.103851
C32	C	1.013600	0.499872	0.396149
C33	C	0.562222	-0.000147	-0.035513
C34	C	1.062222	0.499853	0.464487
C35	C	0.641164	-0.000140	-0.036776
C36	C	1.141164	0.499860	0.463224
C37	C	0.243859	-0.000181	-0.030418
C38	C	0.743859	0.499819	0.469582
C39	C	0.164910	-0.000185	-0.029160
C40	C	0.664910	0.499815	0.470840
C41	C	0.146620	-0.000145	-0.167088
C42	C	0.646620	0.499855	0.332912
C43	C	0.225562	-0.000137	-0.168351
C44	C	0.725562	0.499863	0.331649
C45	C	0.274177	-0.000164	-0.100014
C46	C	0.774177	0.499836	0.399986
C47	C	0.359777	-0.000148	-0.101383
C48	C	0.859777	0.499852	0.398617
C49	C	0.428002	-0.000134	-0.102480
C50	C	0.928002	0.499866	0.397520
C51	C	0.893891	-0.574060	-0.101936
C52	C	1.393891	-0.074060	0.398064
C53	C	0.893882	-0.426222	-0.101933
C54	C	1.393882	0.073778	0.398067
C55	C	1.032275	-0.000171	-0.096155
C56	C	1.532275	0.499829	0.403845
C57	C	1.116293	-0.000178	-0.097493
C58	C	1.616293	0.499822	0.402507
C59	C	0.899659	-0.000176	0.036450
C60	C	1.399659	0.499824	0.536450
C61	C	0.898315	-0.000186	0.120468
C62	C	1.398315	0.499814	0.620468
N63	N	0.893904	0.308097	-0.101936
N64	N	1.393904	0.808097	0.398064
C65	C	0.888119	-0.000113	-0.240320
C66	C	1.388119	0.499887	0.259680
C67	C	0.889463	-0.000094	-0.324337
C68	C	1.389463	0.499906	0.175663
C69	C	0.890096	0.117969	0.636176
C70	C	1.390096	0.617969	1.136176
C71	C	0.891358	0.117958	0.557233
C72	C	1.391358	0.617958	1.057233
C73	C	0.891982	-0.000119	0.517777
C74	C	1.391982	0.499881	1.017777
C75	C	0.891352	-0.118192	0.557270
C76	C	1.391352	0.381808	1.057270
C77	C	0.890095	-0.118179	0.636212
C78	C	1.390095	0.381821	1.136212
C79	C	0.896422	-0.118248	0.238903
C80	C	1.396422	0.381752	0.738903
C81	C	0.897676	-0.118252	0.159955
C82	C	1.397676	0.381748	0.659955
C83	C	0.897685	0.117889	0.159924
C84	C	1.397685	0.617889	0.659924
C85	C	0.896428	0.117902	0.238867
C86	C	1.396428	0.617902	0.738867
C87	C	0.895802	-0.000170	0.278353
C88	C	1.395802	0.499830	0.778353
C89	C	0.894434	-0.000156	0.363952
C90	C	1.394434	0.499844	0.863952
C91	C	0.893344	-0.000135	0.432178
C92	C	1.393344	0.499865	0.932178
H93	H	0.647553	-0.000067	-0.231382
H94	H	1.147553	0.499933	0.268618
H95	H	0.891875	0.214097	0.525087
H96	H	1.391875	0.714097	1.025087
H97	H	0.504345	-0.000090	-0.229090
H98	H	1.004345	0.499910	0.270910
H99	H	0.889579	-0.214319	0.668361
H100	H	1.389579	0.285681	1.168361
H101	H	0.889581	0.214122	0.668295
H102	H	1.389581	0.714122	1.168295
H103	H	0.107027	-0.000130	-0.222732
H104	H	0.607027	0.499870	0.277268
H105	H	0.898197	0.214029	0.127765
H106	H	1.398197	0.714029	0.627765
H107	H	0.140223	-0.000206	0.027517
H108	H	0.640223	0.499794	0.527517
Br109	Br	0.707144	-0.000172	0.055965
Br110	Br	1.207144	0.499828	0.555965
H111	H	0.283432	-0.000204	0.025227
H112	H	0.783432	0.499796	0.525227
H113	H	0.895916	0.214053	0.270987
H114	H	1.395916	0.714053	0.770987
Br115	Br	0.895566	-0.278488	0.292481
Br116	Br	1.395566	0.221512	0.792481
Br117	Br	0.898521	-0.278510	0.106407
Br118	Br	1.398521	0.221490	0.606407
H119	H	0.537525	-0.000185	0.021153
H120	H	1.037525	0.499815	0.521153
Br121	Br	0.266714	-0.000093	-0.262806
Br122	Br	0.766714	0.499907	0.237194
Br123	Br	0.892206	-0.278442	0.503725
Br124	Br	1.392206	0.221558	1.003725
