data_functionalizedCrystal
_audit_creation_method	'MofGen! by Chris Wilmer'
_symmetry_space_group_name_H-M	'P1'
_symmetry_Int_Tables_number	1
_symmetry_cell_setting	triclinic
loop_
_symmetry_equiv_pos_as_xyz
  x,y,z
_cell_length_a	12.594516
_cell_length_b	12.759401
_cell_length_c	12.759393
_cell_angle_alpha	90.020938
_cell_angle_beta	89.971950
_cell_angle_gamma	89.982423
loop_
_atom_site_label
_atom_site_type_symbol
_atom_site_fract_x
_atom_site_fract_y
_atom_site_fract_z
Zn1	Zn	-0.423647	-1.606257	-0.594038
Zn2	Zn	-0.601663	-1.606143	-0.418366
Zn3	Zn	-0.423704	-1.430555	-0.418373
Zn4	Zn	-0.601589	-1.430543	-0.594003
O5	O	-0.512651	-1.518375	-0.506195
O6	O	-0.447269	-1.753263	-0.570746
O7	O	-0.578111	-1.582809	-0.271345
O8	O	-0.274751	-1.453915	-0.441693
O9	O	-0.578056	-1.753179	-0.441680
O10	O	-0.274709	-1.583002	-0.570754
O11	O	-0.447365	-1.453805	-0.271351
O12	O	-0.447293	-1.283533	-0.441659
O13	O	-0.577930	-1.453894	-0.741029
O14	O	-0.577985	-1.283524	-0.570694
O15	O	-0.447197	-1.582990	-0.741054
O16	O	-0.750599	-1.582797	-0.441646
O17	O	-0.750545	-1.453784	-0.570686
C18	C	-0.512638	-1.245407	-0.506174
C19	C	-0.512658	-1.128631	-0.506190
C20	C	-0.789192	-1.518306	-0.506185
C21	C	-0.907497	-1.518372	-0.506215
C22	C	-0.512549	-1.518453	-0.780228
C23	C	-0.512505	-1.518487	-0.897005
C24	C	-0.976759	-1.448195	-0.576351
C25	C	-1.047629	-1.422594	-0.480484
C26	C	-1.047427	-1.544069	-0.602099
C27	C	-0.976808	-1.492721	-0.410297
C28	C	-0.976600	-1.614240	-0.531977
C29	C	-1.047438	-1.588675	-0.436044
C30	C	-0.235030	-1.518472	-0.506228
C31	C	-0.116725	-1.518514	-0.506242
C32	C	-0.512665	-1.792408	-0.506216
C33	C	-0.512671	-1.909184	-0.506226
C34	C	-0.580812	-1.073791	-0.573272
C35	C	-0.580817	-0.964067	-0.573293
C36	C	-0.444509	-0.964031	-0.439140
C37	C	-0.444500	-1.073753	-0.439125
C38	C	-0.444422	-1.585712	-0.951882
C39	C	-0.444376	-1.585730	-1.061606
C40	C	-0.580506	-1.451294	-1.061567
C41	C	-0.580546	-1.451272	-0.951844
C42	C	-0.512676	-1.518357	-0.233228
C43	C	-0.512420	-1.518527	-0.116451
H44	H	-0.945724	-1.388743	-0.635576
C45	C	-0.369553	-0.903663	-0.365364
H46	H	-0.379327	-0.830462	-0.374970
H47	H	-0.298054	-0.921665	-0.380851
H48	H	-0.385054	-0.921610	-0.294743
H49	H	-0.389016	-1.640440	-0.907235
C50	C	-0.369528	-1.134081	-0.365330
H51	H	-0.328947	-1.085685	-0.325380
H52	H	-0.323200	-1.176914	-0.405592
H53	H	-0.410192	-1.176850	-0.319477
H54	H	-0.388934	-1.640470	-1.106282
C55	C	-0.655355	-1.377370	-1.121888
H56	H	-0.695902	-1.337323	-1.073488
H57	H	-0.701718	-1.417551	-1.164691
H58	H	-0.614615	-1.331613	-1.164689
C59	C	-1.089780	-1.313159	-0.451054
H60	H	-1.065587	-1.263326	-0.500944
H61	H	-1.064562	-1.294471	-0.383431
H62	H	-1.165202	-1.314164	-0.450656
C63	C	-0.935090	-1.463306	-0.300738
H64	H	-0.993361	-1.451117	-0.255018
H65	H	-0.893161	-1.401619	-0.305522
H66	H	-0.893019	-1.519052	-0.274079
C67	C	-1.089110	-1.668925	-0.355849
H68	H	-1.064800	-1.650549	-0.287808
H69	H	-1.063716	-1.736771	-0.373558
H70	H	-1.164535	-1.668943	-0.356692
C71	C	-0.934458	-1.723667	-0.561424
H72	H	-0.958605	-1.741779	-0.629592
H73	H	-0.959736	-1.773716	-0.512293
H74	H	-0.859037	-1.723012	-0.560574
H75	H	-1.078448	-1.565747	-0.683176
C76	C	-0.655786	-0.903744	-0.647081
H77	H	-0.646024	-0.830537	-0.637496
H78	H	-0.727280	-0.921699	-0.631582
H79	H	-0.640288	-0.921769	-0.717698
H80	H	-0.635987	-1.396521	-0.907162
C81	C	-0.655773	-1.134153	-0.647050
H82	H	-0.696355	-1.085774	-0.687011
H83	H	-0.702099	-1.176927	-0.606782
H84	H	-0.615100	-1.176985	-0.692892
