data_functionalizedCrystal
_audit_creation_method	'MofGen! by Chris Wilmer'
_symmetry_space_group_name_H-M	'P1'
_symmetry_Int_Tables_number	1
_symmetry_cell_setting	triclinic
loop_
_symmetry_equiv_pos_as_xyz
  x,y,z
_cell_length_a	17.640112
_cell_length_b	16.120444
_cell_length_c	17.640968
_cell_angle_alpha	82.193498
_cell_angle_beta	92.139080
_cell_angle_gamma	103.500183
loop_
_atom_site_label
_atom_site_type_symbol
_atom_site_fract_x
_atom_site_fract_y
_atom_site_fract_z
Zn1	Zn	1.246897	-0.023860	-0.196404
Zn2	Zn	1.746897	0.476140	0.303596
Zn3	Zn	1.214803	-0.195188	-0.078928
Zn4	Zn	1.714803	0.304812	0.421072
Zn5	Zn	1.092235	-0.077878	-0.098047
Zn6	Zn	1.592235	0.422122	0.401953
Zn7	Zn	1.113947	-0.184257	-0.230904
Zn8	Zn	1.613947	0.315743	0.269096
O9	O	1.166971	-0.120296	-0.151071
O10	O	1.666971	0.379704	0.348929
O11	O	1.349575	-0.028555	-0.158381
O12	O	1.849575	0.471445	0.341619
O13	O	1.176026	-0.206808	0.023300
O14	O	1.676026	0.293192	0.523300
O15	O	1.117097	0.045508	-0.104658
O16	O	1.617097	0.545508	0.395342
O17	O	1.325995	-0.154429	-0.072072
O18	O	1.825995	0.345571	0.427928
O19	O	1.230726	0.085195	-0.176920
O20	O	1.730726	0.585195	0.323080
O21	O	1.085976	-0.120621	0.009254
O22	O	1.585976	0.379379	0.509254
O23	O	0.988181	-0.110022	-0.138111
O24	O	1.488181	0.389978	0.361889
O25	O	1.154102	-0.135798	-0.331092
O26	O	1.654102	0.364202	0.168908
O27	O	1.004132	-0.188178	-0.235720
O28	O	1.504132	0.311822	0.264280
O29	O	1.251780	-0.017956	-0.305745
O30	O	1.751780	0.482044	0.194255
O31	O	1.197079	-0.309959	-0.105525
O32	O	1.697079	0.190041	0.394475
O33	O	1.122981	-0.301928	-0.217181
O34	O	1.622981	0.198072	0.282819
C35	C	0.968429	-0.153776	-0.192734
C36	C	1.468429	0.346224	0.307266
C37	C	0.883496	-0.168114	-0.210577
C38	C	1.383496	0.331886	0.289423
C39	C	0.562620	-0.011353	-0.015528
C40	C	1.062620	0.488647	0.484472
C41	C	0.482813	-0.024841	-0.032305
C42	C	0.982813	0.475159	0.467695
C43	C	0.499437	-0.106413	-0.133788
C44	C	0.999437	0.393587	0.366212
C45	C	0.579248	-0.092929	-0.117022
C46	C	1.079248	0.407071	0.382978
C47	C	0.610832	-0.045400	-0.057891
C48	C	1.110832	0.454600	0.442109
C49	C	0.627460	-0.126976	-0.159385
C50	C	1.127460	0.373024	0.340615
C51	C	0.707263	-0.113496	-0.142617
C52	C	1.207263	0.386504	0.357383
C53	C	0.738853	-0.065971	-0.083487
C54	C	1.238853	0.434029	0.416513
C55	C	0.690635	-0.031920	-0.041123
C56	C	1.190635	0.468080	0.458877
C57	C	0.595873	-0.174510	-0.218512
C58	C	1.095873	0.325490	0.281488
C59	C	0.644085	-0.208557	-0.260875
C60	C	1.144085	0.291443	0.239125
C61	C	0.723890	-0.195072	-0.244111
C62	C	1.223890	0.304928	0.255889
C63	C	0.755481	-0.147547	-0.184981
C64	C	1.255481	0.352453	0.315019
C65	C	0.772108	-0.229123	-0.286475
C66	C	1.272108	0.270877	0.213525
C67	C	0.851911	-0.215644	-0.269708
C68	C	1.351911	0.284356	0.230292
C69	C	0.835283	-0.134068	-0.168214
C70	C	1.335283	0.365932	0.331786
C71	C	1.158928	-0.336071	-0.163034
C72	C	1.658928	0.163929	0.336966
C73	C	1.155562	-0.428362	-0.168162
C74	C	1.655562	0.071638	0.331838
C75	C	1.184652	-0.642385	-0.124590
C76	C	1.684652	-0.142385	0.375410
C77	C	1.149433	-0.597329	-0.177529
C78	C	1.649433	-0.097329	0.322471
C79	C	1.152844	-0.503307	-0.172316
C80	C	1.652844	-0.003307	0.327684
C81	C	1.181241	-0.736416	-0.129803
C82	C	1.681241	-0.236416	0.370197
C83	C	1.366287	-0.086686	-0.109245
C84	C	1.866287	0.413314	0.390755
C85	C	1.451224	-0.072363	-0.091422
C86	C	1.951224	0.427637	0.408578
C87	C	1.208943	-0.069632	-0.346342
C88	C	1.708943	0.430368	0.153658
C89	C	1.226828	-0.048042	-0.429556
C90	C	1.726828	0.451958	0.070444
C91	C	1.175070	0.096329	-0.139073
C92	C	1.675070	0.596329	0.360927
C93	C	1.178521	0.188642	-0.133961
C94	C	1.678521	0.688642	0.366039
C95	C	1.031404	-0.283810	-0.769211
C96	C	1.531404	0.216190	-0.269211
C97	C	1.048227	-0.263510	-0.847398
C98	C	1.548227	0.236490	-0.347398
C99	C	1.149930	-0.140811	-0.820997
C100	C	1.649930	0.359189	-0.320997
C101	C	1.133113	-0.161098	-0.742806
C102	C	1.633113	0.338902	-0.242806
C103	C	1.073849	-0.232600	-0.716919
C104	C	1.573849	0.267400	-0.216919
C105	C	1.175559	-0.109888	-0.690514
C106	C	1.675559	0.390112	-0.190514
C107	C	1.158746	-0.130177	-0.612330
C108	C	1.658746	0.369823	-0.112330
C109	C	1.099486	-0.201676	-0.586437
C110	C	1.599486	0.298324	-0.086437
C111	C	1.057036	-0.252889	-0.638735
C112	C	1.557036	0.247111	-0.138735
C113	C	1.234826	-0.038390	-0.716401
C114	C	1.734826	0.461610	-0.216401
C115	C	1.277271	0.012820	-0.664110
C116	C	1.777271	0.512820	-0.164110
C117	C	1.260455	-0.007465	-0.585925
C118	C	1.760455	0.492535	-0.085925
C119	C	1.201196	-0.078964	-0.560032
C120	C	1.701196	0.421036	-0.060032
C121	C	1.302905	0.043748	-0.533626
C122	C	1.802905	0.543748	-0.033626
C123	C	1.286092	0.023459	-0.455442
C124	C	1.786092	0.523459	0.044558
C125	C	1.184383	-0.099253	-0.481847
C126	C	1.684383	0.400747	0.018153
C127	C	1.125208	-0.170695	0.043454
C128	C	1.625208	0.329305	0.543454
C129	C	1.107479	-0.192026	0.126711
C130	C	1.607479	0.307974	0.626711
H131	H	0.861004	-0.095349	-0.120074
H132	H	1.361004	0.404651	0.379926
Br133	Br	1.383341	0.140771	-0.568766
Br134	Br	1.883341	0.640771	-0.068766
Br135	Br	0.990614	-0.333018	-0.918366
Br136	Br	1.490614	0.166982	-0.418366
Br137	Br	1.076672	-0.229220	-0.480327
Br138	Br	1.576672	0.270780	0.019673
H139	H	1.008761	-0.311095	-0.617660
H140	H	1.508761	0.188905	-0.117660
Br141	Br	1.094905	-0.650727	-0.259596
Br142	Br	1.594905	-0.150727	0.240404
Br143	Br	1.343702	0.092955	-0.384469
Br144	Br	1.843702	0.592955	0.115531
H145	H	1.217362	-0.610350	-0.075355
H146	H	1.717362	-0.110350	0.424645
Br147	Br	0.950965	-0.380841	-0.734073
Br148	Br	1.450965	0.119159	-0.234073
Br149	Br	1.230360	-0.043780	-0.856135
Br150	Br	1.730360	0.456220	-0.356135
H151	H	1.136107	-0.157460	-0.460772
H152	H	1.636107	0.342540	0.039228
H153	H	1.248515	-0.021875	-0.780065
H154	H	1.748515	0.478125	-0.280065
H155	H	1.325526	0.071035	-0.685198
H156	H	1.825526	0.571035	-0.185198
H157	H	0.716355	0.006798	0.007017
H158	H	1.216355	0.506798	0.507017
Br159	Br	0.847156	-0.047684	-0.060723
Br160	Br	1.347156	0.452316	0.439277
H161	H	0.588340	0.027365	0.032612
H162	H	1.088340	0.527365	0.532612
H163	H	0.443562	0.002895	0.002191
H164	H	0.943562	0.502895	0.502191
H165	H	0.618357	-0.247258	-0.309018
H166	H	1.118357	0.252742	0.190982
H167	H	0.530892	-0.185484	-0.232162
H168	H	1.030892	0.314516	0.267838
Br169	Br	0.456562	-0.170931	-0.214024
Br170	Br	0.956562	0.329069	0.285976
Br171	Br	0.917346	-0.261855	-0.327196
Br172	Br	1.417346	0.238145	0.172804
Br173	Br	0.729229	-0.293649	-0.366705
Br174	Br	1.229229	0.206351	0.133295
