data_functionalizedCrystal
_audit_creation_method	'MofGen! by Chris Wilmer'
_symmetry_space_group_name_H-M	'P1'
_symmetry_Int_Tables_number	1
_symmetry_cell_setting	triclinic
loop_
_symmetry_equiv_pos_as_xyz
  x,y,z
_cell_length_a	19.188930
_cell_length_b	7.681481
_cell_length_c	8.559649
_cell_angle_alpha	94.904209
_cell_angle_beta	103.538277
_cell_angle_gamma	95.740879
loop_
_atom_site_label
_atom_site_type_symbol
_atom_site_fract_x
_atom_site_fract_y
_atom_site_fract_z
O1	O	0.923164	0.146985	-0.184364
O2	O	0.718442	0.146862	-0.211241
O3	O	0.838839	0.146932	0.034926
O4	O	0.802767	0.146914	-0.430532
O5	O	0.823979	-0.145934	0.004657
O6	O	0.703582	-0.146005	-0.241510
O7	O	0.908304	-0.145882	-0.214633
Zn8	Zn	0.803583	-0.192442	-0.232877
Zn9	Zn	0.823163	0.193422	-0.192997
O10	O	0.787907	-0.145952	-0.460800
C11	C	0.685046	0.000413	-0.225507
C12	C	0.607675	0.000367	-0.222900
N13	N	0.790226	-0.455784	-0.260094
C14	C	0.834143	0.000504	0.079341
C15	C	0.842281	0.000519	0.256780
C16	C	0.555200	0.000389	-0.367337
C17	C	0.482506	0.000409	-0.364881
C18	C	0.462292	0.000441	-0.217978
C19	C	0.514777	0.000409	-0.073523
C20	C	0.587469	0.000372	-0.075985
N21	N	0.365244	0.100192	-0.095381
N22	N	0.296189	0.100231	-0.093052
C23	C	0.243276	0.000549	-0.210553
N24	N	0.262026	-0.099151	-0.330493
N25	N	0.331087	-0.099182	-0.332826
C26	C	0.383471	0.000480	-0.215293
C27	C	0.111976	0.000590	-0.352337
C28	C	0.039281	0.000599	-0.349877
C29	C	0.071555	0.000617	-0.058513
C30	C	0.144248	0.000591	-0.060979
C31	C	0.164454	0.000586	-0.207895
C32	C	0.941701	0.000571	-0.200367
C33	C	1.019072	0.000628	-0.202972
N34	N	0.836526	0.456764	-0.165768
C35	C	0.792603	0.000480	-0.505215
C36	C	0.784466	0.000477	-0.682652
H37	H	0.571647	0.000388	-0.486967
H38	H	0.883783	0.531998	-0.069462
Cl39	Cl	0.717261	0.428078	-0.408760
H40	H	0.728744	0.000438	0.233457
H41	H	0.898006	0.000538	0.340677
Cl42	Cl	0.137382	0.000566	-0.537029
H43	H	0.186975	0.000582	0.056638
Cl44	Cl	-0.026691	0.000617	-0.531473
H45	H	0.439772	0.000422	-0.482503
H46	H	0.055103	0.000753	0.061110
Cl47	Cl	0.489366	0.000440	0.111155
H48	H	0.630196	0.000355	0.041637
