data_functionalizedCrystal
_audit_creation_method	'MofGen! by Chris Wilmer'
_symmetry_space_group_name_H-M	'P1'
_symmetry_Int_Tables_number	1
_symmetry_cell_setting	triclinic
loop_
_symmetry_equiv_pos_as_xyz
  x,y,z
_cell_length_a	12.759401
_cell_length_b	15.297327
_cell_length_c	12.759393
_cell_angle_alpha	99.641178
_cell_angle_beta	89.982961
_cell_angle_gamma	99.706546
loop_
_atom_site_label
_atom_site_type_symbol
_atom_site_fract_x
_atom_site_fract_y
_atom_site_fract_z
Zn1	Zn	1.533783	-0.359099	-0.666296
Zn2	Zn	1.503236	-0.509987	-0.521002
Zn3	Zn	1.358079	-0.359147	-0.490645
Zn4	Zn	1.327642	-0.509917	-0.696629
O5	O	1.430685	-0.434538	-0.593643
O6	O	1.676750	-0.379124	-0.647032
O7	O	1.483935	-0.490028	-0.369964
O8	O	1.406909	-0.232896	-0.488547
O9	O	1.654307	-0.489981	-0.540285
O10	O	1.535997	-0.232861	-0.617597
O11	O	1.377289	-0.379206	-0.347661
O12	O	1.207023	-0.379138	-0.517959
O13	O	1.355033	-0.489861	-0.839616
O14	O	1.184660	-0.489908	-0.669295
O15	O	1.506483	-0.379056	-0.817331
O16	O	1.454421	-0.636223	-0.569698
O17	O	1.325413	-0.636171	-0.698730
C18	C	1.157721	-0.434521	-0.593625
C19	C	1.040941	-0.434536	-0.593647
C20	C	0.974444	-0.492306	-0.672355
C21	C	0.864718	-0.492317	-0.672369
C22	C	0.887996	-0.376786	-0.514957
C23	C	0.997721	-0.376771	-0.514949
C24	C	0.961003	-0.559010	-0.763233
C25	C	0.851277	-0.559021	-0.763246
C26	C	1.383328	-0.668931	-0.640822
C27	C	1.363164	-0.769205	-0.661041
C28	C	1.575230	-1.051844	-0.449495
C29	C	1.594174	-0.957631	-0.430493
C30	C	1.536424	-0.910520	-0.488128
C31	C	1.459725	-0.957631	-0.564769
C32	C	1.440773	-1.051853	-0.583767
C33	C	1.401967	-0.910529	-0.622401
C34	C	1.325268	-0.957640	-0.699041
C35	C	1.306320	-1.051853	-0.718036
C36	C	1.364071	-1.098964	-0.660400
C37	C	1.420919	-0.816307	-0.603403
C38	C	1.286462	-0.816316	-0.737675
C39	C	1.267518	-0.910529	-0.756677
C40	C	1.704715	-0.434555	-0.593661
C41	C	1.821490	-0.434563	-0.593669
C42	C	1.430770	-0.434445	-0.867658
C43	C	1.430806	-0.434406	-0.984427
C44	C	1.478256	-0.199229	-0.546302
C45	C	1.498528	-0.098955	-0.526128
C46	C	1.352021	-0.492055	-1.160610
C47	C	1.351976	-0.492082	-1.050891
C48	C	1.509682	-0.376694	-1.027685
C49	C	1.509722	-0.376664	-1.137401
C50	C	1.260973	-0.558676	-1.174007
C51	C	1.260928	-0.558703	-1.064289
C52	C	1.430674	-0.434565	-0.320681
C53	C	1.430892	-0.434350	-0.203861
H54	H	0.807387	-0.628875	-0.755381
H55	H	1.183397	-0.539952	-1.200019
H56	H	1.243855	-1.090208	-0.780430
Br57	Br	1.653591	-1.115783	-0.371279
Br58	Br	0.995393	-0.669605	-0.736803
Br59	Br	1.087970	-0.298345	-0.408146
H60	H	1.276716	-0.625039	-1.221385
Br61	Br	1.525004	-0.752382	-0.499392
H62	H	1.551852	-0.833808	-0.472651
Br63	Br	1.337893	-1.226829	-0.685714
Br64	Br	1.016958	-0.527958	-0.892659
H65	H	0.852793	-0.329755	-0.450884
Br66	Br	1.140513	-0.516997	-0.999174
H67	H	0.822309	-0.534081	-0.835576
H68	H	1.205068	-0.948900	-0.819078
H69	H	1.573861	-0.329727	-0.973559
H70	H	1.656620	-0.919277	-0.368092
Br71	Br	1.208071	-0.752388	-0.815889
Br72	Br	1.616778	-0.298360	-1.196100
H73	H	1.268644	-0.628571	-1.048559
