data_functionalizedCrystal
_audit_creation_method	'MofGen! by Chris Wilmer'
_symmetry_space_group_name_H-M	'P1'
_symmetry_Int_Tables_number	1
_symmetry_cell_setting	triclinic
loop_
_symmetry_equiv_pos_as_xyz
  x,y,z
_cell_length_a	19.188930
_cell_length_b	16.956984
_cell_length_c	16.053802
_cell_angle_alpha	87.610701
_cell_angle_beta	92.551696
_cell_angle_gamma	79.599100
loop_
_atom_site_label
_atom_site_type_symbol
_atom_site_fract_x
_atom_site_fract_y
_atom_site_fract_z
O1	O	0.025799	1.061314	-0.069436
O2	O	0.050317	0.829071	-0.069439
O3	O	-0.063966	0.951893	-0.069421
O4	O	0.140082	0.938491	-0.069454
O5	O	-0.057700	0.945133	0.069437
O6	O	0.056583	0.822310	0.069419
O7	O	0.032065	1.054553	0.069422
Zn8	Zn	0.045319	0.937358	0.091467
Zn9	Zn	0.037063	0.946266	-0.091484
O10	O	0.146348	0.931731	0.069404
C11	C	0.054706	0.795978	-0.000011
C12	C	0.058438	0.707444	-0.000011
C13	C	-0.003971	0.675577	0.000000
C14	C	-0.000459	0.592390	-0.000006
C15	C	0.065461	0.541071	-0.000018
C16	C	0.127875	0.572944	-0.000032
C17	C	0.124363	0.656130	-0.000032
C18	C	0.082845	0.291238	-0.000027
C19	C	0.086353	0.208047	-0.000025
C20	C	-0.041982	0.227500	-0.000000
C21	C	-0.045488	0.310686	0.000005
C22	C	0.016925	0.342551	-0.000013
N23	N	0.069052	0.456040	-0.000022
N24	N	0.013333	0.427581	-0.000015
C25	C	-0.086820	0.948079	0.000010
C26	C	-0.164252	0.946776	0.000017
C27	C	-0.213143	1.018844	0.000022
C28	C	-0.285900	1.017621	0.000009
C29	C	-0.309762	0.944324	0.000007
C30	C	-0.260861	0.872246	-0.000002
C31	C	-0.188106	0.873472	0.000003
N32	N	-0.412550	0.885996	0.047263
N33	N	-0.481665	0.884836	0.047260
C34	C	-0.528968	0.940626	-0.000010
N35	N	-0.504546	0.997630	-0.047265
N36	N	-0.435425	0.998792	-0.047258
C37	C	-0.388651	0.942986	0.000001
C38	C	-0.656751	1.011373	-0.000020
C39	C	-0.729509	1.010146	-0.000039
C40	C	-0.704468	0.864769	-0.000042
C41	C	-0.631712	0.865998	-0.000032
C42	C	-0.607858	0.939302	-0.000017
C43	C	0.169202	0.935545	-0.000029
C44	C	0.246634	0.936849	-0.000042
C45	C	0.027677	1.087646	-0.000009
C46	C	0.023944	1.176180	-0.000013
N47	N	0.050953	0.931285	0.216326
N48	N	0.031424	0.952345	-0.216344
C49	C	0.002340	0.983566	0.260028
C50	C	0.006287	0.979325	0.347434
C51	C	0.058850	0.922807	0.391137
C52	C	0.107465	0.870521	0.347429
C53	C	0.103514	0.874759	0.260025
C54	C	0.076088	0.904297	0.652544
C55	C	0.080036	0.900065	0.739955
C56	C	-0.021143	1.008868	0.739954
C57	C	-0.025086	1.013104	0.652547
C58	C	0.023526	0.960815	0.608847
N59	N	0.062888	0.918473	0.480480
N60	N	0.019485	0.965146	0.519506
H61	H	0.133666	0.317173	-0.000047
O62	O	-0.048643	1.038517	0.217523
C63	C	-0.016374	1.090033	0.166898
H64	H	0.039804	1.089961	0.193220
H65	H	-0.048571	1.153557	0.165867
H66	H	-0.014262	1.068239	0.100674
H67	H	0.175183	0.682074	-0.000037
H68	H	0.181548	0.531153	-0.000048
H69	H	-0.148298	0.814783	-0.000001
O70	O	-0.777102	1.080087	-0.000075
C71	C	-0.846433	1.063288	-0.000069
H72	H	-0.846791	1.001934	-0.026364
H73	H	-0.883889	1.111208	-0.040385
H74	H	-0.864682	1.063139	0.066545
O75	O	-0.190094	1.090121	-0.000006
C76	C	-0.248853	1.153468	0.000018
H77	H	-0.298227	1.132565	-0.026276
H78	H	-0.238403	1.206624	-0.040290
H79	H	-0.257444	1.172439	0.066637
H80	H	0.122842	0.854039	0.775534
H81	H	-0.067887	1.059125	0.616966
H82	H	-0.099168	0.352465	0.000019
O83	O	-0.067971	0.725512	-0.000100
C84	C	-0.077094	0.777699	-0.072025
H85	H	-0.022990	0.782887	-0.096008
H86	H	-0.105992	0.839524	-0.055847
H87	H	-0.109676	0.752889	-0.122379
O88	O	-0.102620	0.196576	0.000156
C89	C	-0.139281	0.219335	0.072065
H90	H	-0.100435	0.234063	0.122328
H91	H	-0.164992	0.167866	0.096205
H92	H	-0.182059	0.274478	0.055811
H93	H	-0.325714	1.076310	0.000010
H94	H	-0.280294	0.812567	-0.000006
O95	O	-0.633491	1.082531	-0.000128
C96	C	-0.595401	1.091095	-0.072049
H97	H	-0.574711	1.029335	-0.096022
H98	H	-0.548809	1.121930	-0.055869
H99	H	-0.631879	1.128943	-0.122412
H100	H	-0.033297	1.021895	0.383016
O101	O	0.150448	0.158310	-0.000081
C102	C	0.204784	0.204271	-0.000080
H103	H	0.182285	0.267700	-0.026363
H104	H	0.248850	0.175394	-0.040408
H105	H	0.227155	0.206883	0.066531
H106	H	-0.060722	1.051438	0.775542
H107	H	0.150261	0.824499	0.383017
O108	O	-0.061072	0.561407	-0.000142
C109	C	-0.066123	0.517362	-0.072051
H110	H	-0.033036	0.539359	-0.122321
H111	H	-0.123925	0.526201	-0.096179
H112	H	-0.045494	0.450911	-0.055800
H113	H	0.143099	0.832186	0.224444
H114	H	-0.591903	0.807311	-0.000031
O115	O	-0.727757	0.793635	-0.000011
C116	C	-0.802458	0.808007	-0.000041
H117	H	-0.821973	0.869025	0.026252
H118	H	-0.820302	0.759154	0.040265
H119	H	-0.825504	0.807461	-0.066661
O120	O	0.123386	0.853473	0.610231
C121	C	0.170615	0.802672	0.667550
H122	H	0.172347	0.832352	0.729844
H123	H	0.225941	0.791530	0.642284
H124	H	0.151750	0.743057	0.676870
