data_functionalizedCrystal
_audit_creation_method	'MofGen! by Chris Wilmer'
_symmetry_space_group_name_H-M	'P1'
_symmetry_Int_Tables_number	1
_symmetry_cell_setting	triclinic
loop_
_symmetry_equiv_pos_as_xyz
  x,y,z
_cell_length_a	17.699077
_cell_length_b	11.792241
_cell_length_c	16.176319
_cell_angle_alpha	89.999276
_cell_angle_beta	89.993156
_cell_angle_gamma	83.736996
loop_
_atom_site_label
_atom_site_type_symbol
_atom_site_fract_x
_atom_site_fract_y
_atom_site_fract_z
O1	O	1.004847	0.143484	-0.068736
O2	O	1.338181	0.476818	0.264597
O3	O	1.671514	0.810151	0.597931
O4	O	0.784568	0.162165	-0.068740
O5	O	1.117901	0.495498	0.264593
O6	O	1.451234	0.828831	0.597927
O7	O	0.900053	-0.012410	-0.068732
O8	O	1.233386	0.320923	0.264601
O9	O	1.566720	0.654256	0.597935
O10	O	0.889362	0.318059	-0.068744
O11	O	1.222695	0.651393	0.264590
O12	O	1.556029	0.984726	0.597923
O13	O	0.900036	-0.012401	0.068761
O14	O	1.233369	0.320933	0.402094
O15	O	1.566702	0.654266	0.735428
O16	O	0.784550	0.162174	0.068753
O17	O	1.117884	0.495507	0.402087
O18	O	1.451217	0.828841	0.735420
O19	O	1.004830	0.143494	0.068757
O20	O	1.338163	0.476827	0.402091
O21	O	1.671496	0.810161	0.735424
Cu22	Cu	0.894688	0.152835	0.081309
Cu23	Cu	1.228022	0.486168	0.414643
Cu24	Cu	1.561355	0.819502	0.747976
Cu25	Cu	0.894709	0.152824	-0.081292
Cu26	Cu	1.228042	0.486157	0.252041
Cu27	Cu	1.561376	0.819490	0.585375
O28	O	0.889344	0.318069	0.068749
O29	O	1.222678	0.651402	0.402083
O30	O	1.556011	0.984735	0.735416
C31	C	0.756358	0.161501	0.000006
C32	C	1.089692	0.494834	0.333339
C33	C	1.423025	0.828168	0.666673
C34	C	0.672329	0.159497	0.000005
C35	C	1.005663	0.492830	0.333338
C36	C	1.338996	0.826163	0.666671
C37	C	0.632847	0.158557	0.074953
C38	C	0.966181	0.491891	0.408286
C39	C	1.299514	0.825224	0.741620
C40	C	0.553895	0.156656	0.074954
C41	C	0.887228	0.489989	0.408287
C42	C	1.220561	0.823322	0.741621
C43	C	0.514425	0.155701	0.000006
C44	C	0.847758	0.489035	0.333339
C45	C	1.181091	0.822368	0.666672
C46	C	0.553913	0.156637	-0.074949
C47	C	0.887246	0.489971	0.258385
C48	C	1.220579	0.823304	0.591718
C49	C	0.632864	0.158531	-0.074949
C50	C	0.966198	0.491864	0.258385
C51	C	1.299531	0.825198	0.591718
C52	C	0.235509	0.149000	-0.074950
C53	C	0.568842	0.482333	0.258384
C54	C	0.902175	0.815666	0.591717
C55	C	0.156551	0.147109	-0.074944
C56	C	0.489884	0.480443	0.258389
C57	C	0.823217	0.813776	0.591723
C58	C	0.156539	0.147124	0.074953
C59	C	0.489872	0.480458	0.408286
C60	C	0.823205	0.813791	0.741620
C61	C	0.235491	0.149018	0.074953
C62	C	0.568824	0.482351	0.408286
C63	C	0.902157	0.815684	0.741619
C64	C	0.274972	0.149948	-0.000001
C65	C	0.608305	0.483281	0.333332
C66	C	0.941639	0.816614	0.666666
C67	C	0.360582	0.152007	-0.000001
C68	C	0.693915	0.485341	0.333332
C69	C	1.027248	0.818674	0.666666
C70	C	0.428816	0.153650	0.000005
C71	C	0.762149	0.486983	0.333338
C72	C	1.095483	0.820316	0.666672
C73	C	0.899373	-0.054688	0.000014
C74	C	1.232706	0.278645	0.333348
C75	C	1.566039	0.611978	0.666681
C76	C	0.897363	-0.180678	0.000013
C77	C	1.230696	0.152655	0.333347
C78	C	1.564029	0.485989	0.666680
C79	C	0.893666	-0.411346	-0.000000
C80	C	1.227000	-0.078012	0.333333
C81	C	1.560333	0.255321	0.666666
C82	C	0.895720	-0.282985	0.000007
C83	C	1.229053	0.050348	0.333340
C84	C	1.562387	0.383681	0.666674
C85	C	1.033039	0.144157	0.000009
C86	C	1.366372	0.477491	0.333343
C87	C	1.699706	0.810824	0.666676
C88	C	1.117068	0.146162	0.000005
C89	C	1.450401	0.479495	0.333339
C90	C	1.783735	0.812829	0.666672
C91	C	0.890025	0.360347	0.000001
C92	C	1.223358	0.693680	0.333335
C93	C	1.556691	1.027014	0.666668
C94	C	0.892035	0.486336	-0.000003
C95	C	1.225368	0.819670	0.333330
C96	C	1.558701	1.153003	0.666663
N97	N	0.894679	0.152842	0.195675
N98	N	1.228013	0.486175	0.529008
N99	N	1.561346	0.819509	0.862341
N100	N	0.894724	0.152807	-0.195657
N101	N	1.228057	0.486141	0.137676
N102	N	1.561391	0.819474	0.471009
C103	C	0.945868	0.075533	0.761061
C104	C	1.279201	0.408867	1.094394
C105	C	1.612534	0.742200	1.427727
C106	C	0.945864	0.075541	0.674514
C107	C	1.279198	0.408875	1.007847
C108	C	1.612531	0.742208	1.341180
C109	C	0.894713	0.152818	0.631250
C110	C	1.228047	0.486152	0.964583
C111	C	1.561380	0.819485	1.297917
C112	C	0.843567	0.230101	0.674538
C113	C	1.176901	0.563434	1.007871
C114	C	1.510234	0.896767	1.341205
C115	C	0.843575	0.230097	0.761083
C116	C	1.176908	0.563431	1.094417
C117	C	1.510242	0.896764	1.427750
C118	C	0.843537	0.230116	0.325510
C119	C	1.176870	0.563450	0.658843
C120	C	1.510203	0.896783	0.992176
C121	C	0.843532	0.230112	0.238958
C122	C	1.176865	0.563445	0.572291
C123	C	1.510198	0.896778	0.905625
C124	C	0.945826	0.075560	0.238940
C125	C	1.279159	0.408894	0.572273
C126	C	1.612493	0.742227	0.905607
C127	C	0.945834	0.075557	0.325485
C128	C	1.279167	0.408890	0.658819
C129	C	1.612500	0.742224	0.992152
C130	C	0.894691	0.152843	0.368766
C131	C	1.228024	0.486176	0.702099
C132	C	1.561357	0.819509	1.035432
C133	C	0.894696	0.152835	0.462610
C134	C	1.228029	0.486168	0.795943
C135	C	1.561363	0.819501	1.129277
C136	C	0.894704	0.152822	0.537407
C137	C	1.228037	0.486155	0.870741
C138	C	1.561371	0.819488	1.204074
H139	H	0.521770	0.155852	-0.135973
H140	H	0.855104	0.489186	0.197361
H141	H	1.188437	0.822519	0.530694
H142	H	0.521754	0.155872	0.135985
H143	H	0.855087	0.489205	0.469318
H144	H	1.188420	0.822538	0.802651
H145	H	0.801877	0.293044	0.203734
H146	H	1.135210	0.626378	0.537068
H147	H	1.468544	0.959711	0.870401
H148	H	0.124384	0.146362	0.135984
H149	H	0.457717	0.479695	0.469317
H150	H	0.791051	0.813028	0.802651
F151	F	1.000272	-0.006695	0.371526
F152	F	1.333605	0.326639	0.704860
F153	F	1.666939	0.659972	1.038193
H154	H	0.987517	0.012601	0.796280
H155	H	1.320851	0.345934	1.129614
H156	H	1.654184	0.679267	1.462947
F157	F	0.277517	0.149990	-0.154722
F158	F	0.610851	0.483324	0.178611
F159	F	0.944184	0.816657	0.511944
H160	H	0.124417	0.146332	-0.135980
H161	H	0.457750	0.479665	0.197354
H162	H	0.791083	0.812998	0.530687
H163	H	0.665009	0.159298	-0.135979
H164	H	0.998343	0.492631	0.197354
H165	H	1.331676	0.825965	0.530687
F166	F	0.789131	0.312352	0.628493
F167	F	1.122465	0.645685	0.961826
F168	F	1.455798	0.979018	1.295160
F169	F	1.000298	-0.006701	0.628450
F170	F	1.333631	0.326633	0.961783
F171	F	1.666964	0.659966	1.295116
F172	F	1.000260	-0.006692	0.192872
F173	F	1.333593	0.326642	0.526205
F174	F	1.666927	0.659975	0.859538
H175	H	0.801893	0.293043	0.360742
H176	H	1.135226	0.626376	0.694075
H177	H	1.468560	0.959710	1.027408
F178	F	0.674847	0.159580	0.154725
F179	F	1.008180	0.492913	0.488058
F180	F	1.341513	0.826247	0.821392
H181	H	0.801930	0.293023	0.796323
H182	H	1.135263	0.626356	1.129656
H183	H	1.468596	0.959690	1.462989
H184	H	0.267623	0.149800	0.135984
H185	H	0.600956	0.483134	0.469317
H186	H	0.934289	0.816467	0.802650
