data_functionalizedCrystal
_audit_creation_method	'MofGen! by Chris Wilmer'
_symmetry_space_group_name_H-M	'P1'
_symmetry_Int_Tables_number	1
_symmetry_cell_setting	triclinic
loop_
_symmetry_equiv_pos_as_xyz
  x,y,z
_cell_length_a	14.908979
_cell_length_b	14.908178
_cell_length_c	18.215399
_cell_angle_alpha	86.674478
_cell_angle_beta	93.275137
_cell_angle_gamma	96.795332
loop_
_atom_site_label
_atom_site_type_symbol
_atom_site_fract_x
_atom_site_fract_y
_atom_site_fract_z
Zn1	Zn	1.363013	-0.280463	-0.338819
Zn2	Zn	1.863013	0.219537	0.161181
Zn3	Zn	1.354183	-0.431853	-0.209038
Zn4	Zn	1.854183	0.068147	0.290962
Zn5	Zn	1.211646	-0.289234	-0.222470
Zn6	Zn	1.711646	0.210766	0.277530
Zn7	Zn	1.202892	-0.440541	-0.338767
Zn8	Zn	1.702892	0.059459	0.161233
O9	O	1.282933	-0.360523	-0.277274
O10	O	1.782933	0.139477	0.222726
O11	O	1.488505	-0.293238	-0.316003
O12	O	1.988505	0.206762	0.183997
O13	O	1.335244	-0.412969	-0.107835
O14	O	1.835244	0.087031	0.392165
O15	O	1.239084	-0.161391	-0.243547
O16	O	1.739084	0.338609	0.256453
O17	O	1.482018	-0.404464	-0.220654
O18	O	1.982018	0.095536	0.279346
O19	O	1.350292	-0.154947	-0.329028
O20	O	1.850292	0.345053	0.170972
O21	O	1.230522	-0.308188	-0.117704
O22	O	1.730522	0.191812	0.382296
O23	O	1.083821	-0.316613	-0.243497
O24	O	1.583821	0.183387	0.256503
O25	O	1.224164	-0.419271	-0.441759
O26	O	1.724164	0.080729	0.058241
O27	O	1.077390	-0.427777	-0.328940
O28	O	1.577390	0.072223	0.171060
O29	O	1.341804	-0.301662	-0.441796
O30	O	1.841804	0.198338	0.058204
O31	O	1.326755	-0.559685	-0.220604
O32	O	1.826755	-0.059685	0.279396
O33	O	1.215602	-0.566068	-0.315915
O34	O	1.715602	-0.066068	0.184085
C35	C	1.047763	-0.374090	-0.287671
C36	C	1.547763	0.125910	0.212329
C37	C	0.947155	-0.379916	-0.292136
C38	C	1.447155	0.120084	0.207864
C39	C	0.802023	-0.446092	-0.342825
C40	C	1.302023	0.053908	0.157175
C41	C	0.896553	-0.440619	-0.338637
C42	C	1.396553	0.059381	0.161363
C43	C	0.903221	-0.324684	-0.249819
C44	C	1.403221	0.175316	0.250181
C45	C	0.808690	-0.330158	-0.254007
C46	C	1.308690	0.169842	0.245993
C47	C	0.758095	-0.390863	-0.300513
C48	C	1.258095	0.109137	0.199487
C49	C	0.663563	-0.396331	-0.304705
C50	C	1.163563	0.103669	0.195295
C51	C	0.670232	-0.280402	-0.215883
C52	C	1.170232	0.219598	0.284117
C53	C	0.764762	-0.274928	-0.211695
C54	C	1.264762	0.225072	0.288305
C55	C	1.269295	-0.595722	-0.266811
C56	C	1.769295	-0.095722	0.233189
C57	C	1.263543	-0.696336	-0.262357
C58	C	1.763543	-0.196336	0.237643
C59	C	1.368449	-0.878545	-0.343102
C60	C	1.868449	-0.378545	0.156898
C61	C	1.363048	-0.973081	-0.338918
C62	C	1.863048	-0.473081	0.161082
C63	C	1.247336	-0.979945	-0.249811
C64	C	1.747336	-0.479945	0.250189
C65	C	1.252737	-0.885410	-0.253994
C66	C	1.752737	-0.385410	0.246006
C67	C	1.313297	-0.834712	-0.300640
C68	C	1.813297	-0.334712	0.199360
C69	C	1.318702	-0.740175	-0.304819
C70	C	1.818702	-0.240175	0.195181
C71	C	1.202986	-0.747041	-0.215716
C72	C	1.702986	-0.247041	0.284284
C73	C	1.197585	-0.841577	-0.211533
C74	C	1.697585	-0.341577	0.288467
C75	C	1.519022	-0.346903	-0.266836
C76	C	2.019022	0.153097	0.233164
C77	C	1.619629	-0.341099	-0.262388
C78	C	2.119629	0.158901	0.237612
C79	C	1.282992	-0.360457	-0.469227
C80	C	1.782992	0.139543	0.030773
C81	C	1.283017	-0.360429	-0.551026
C82	C	1.783017	0.139571	-0.051026
C83	C	1.296649	-0.124404	-0.287792
C84	C	1.796649	0.375596	0.212208
C85	C	1.302494	-0.023784	-0.292274
C86	C	1.802494	0.476216	0.207726
C87	C	1.344296	-0.299135	-0.739242
C88	C	1.844296	0.200865	-0.239242
C89	C	1.344309	-0.299108	-0.816102
C90	C	1.844309	0.200892	-0.316102
C91	C	1.221810	-0.421580	-0.816051
C92	C	1.721810	0.078420	-0.316051
C93	C	1.221794	-0.421602	-0.739193
C94	C	1.721794	0.078398	-0.239193
C95	C	1.283042	-0.360380	-0.700791
C96	C	1.783042	0.139620	-0.200791
C97	C	1.283071	-0.360331	-0.854508
C98	C	1.783071	0.139669	-0.354508
C99	C	1.283083	-0.360303	-0.937842
C100	C	1.783083	0.139697	-0.437842
C101	C	1.283029	-0.360408	-0.617451
C102	C	1.783029	0.139592	-0.117451
C103	C	1.282931	-0.360520	-0.086068
C104	C	1.782931	0.139480	0.413932
C105	C	1.283096	-0.360282	-0.004273
C106	C	1.783096	0.139718	0.495727
H107	H	0.622370	-0.445757	-0.342575
H108	H	1.122370	0.054243	0.157425
H109	H	1.368014	-0.698898	-0.342799
H110	H	1.868014	-0.198898	0.157201
H111	H	0.944431	-0.275268	-0.211950
H112	H	1.444431	0.224732	0.288050
H113	H	0.760827	-0.495513	-0.380699
H114	H	1.260827	0.004487	0.119301
H115	H	0.932315	-0.485593	-0.373092
H116	H	1.432315	0.014407	0.126908
C117	C	1.423725	-1.021293	-0.385625
C118	C	1.923725	-0.521293	0.114375
N119	N	1.469430	-1.057606	-0.420805
N120	N	1.969430	-0.557606	0.079195
C121	C	0.820428	-0.208147	-0.160549
C122	C	1.320428	0.291853	0.339451
N123	N	0.862356	-0.157841	-0.122029
N124	N	1.362356	0.342159	0.377971
H125	H	1.148277	-0.882867	-0.173557
H126	H	1.648277	-0.382867	0.326443
H127	H	0.634456	-0.235426	-0.181432
H128	H	1.134456	0.264574	0.318568
H129	H	1.417765	-0.837266	-0.381077
H130	H	1.917765	-0.337266	0.118923
C131	C	1.180834	-1.035722	-0.198413
C132	C	1.680834	-0.535722	0.301587
N133	N	1.130784	-1.077731	-0.159665
N134	N	1.630784	-0.577731	0.340335
C135	C	1.411695	-0.231735	-0.858395
C136	C	1.911695	0.268265	-0.358395
N137	N	1.462453	-0.180987	-0.890250
N138	N	1.962453	0.319013	-0.390250
H139	H	1.394166	-0.249282	-0.707977
H140	H	1.894166	0.250718	-0.207977
H141	H	1.158080	-0.711342	-0.181139
H142	H	1.658080	-0.211342	0.318861
H143	H	1.171946	-0.471426	-0.847328
H144	H	1.671946	0.028574	-0.347328
H145	H	1.171908	-0.471475	-0.707885
H146	H	1.671908	0.028525	-0.207885
