data_functionalizedCrystal
_audit_creation_method	'MofGen! by Chris Wilmer'
_symmetry_space_group_name_H-M	'P1'
_symmetry_Int_Tables_number	1
_symmetry_cell_setting	triclinic
loop_
_symmetry_equiv_pos_as_xyz
  x,y,z
_cell_length_a	20.453700
_cell_length_b	23.752966
_cell_length_c	11.102315
_cell_angle_alpha	84.894068
_cell_angle_beta	108.606275
_cell_angle_gamma	79.933465
loop_
_atom_site_label
_atom_site_type_symbol
_atom_site_fract_x
_atom_site_fract_y
_atom_site_fract_z
V1	V	1.356252	-0.079163	0.396971
O2	O	1.357542	0.003801	0.388680
O3	O	1.334496	-0.156964	0.394962
O4	O	1.348733	-0.077947	0.569782
O5	O	1.343206	-0.075763	0.212651
V6	V	1.517074	-0.069239	0.374839
O7	O	1.444112	-0.100931	0.445520
O8	O	1.579280	-0.047471	0.326291
O9	O	1.464428	0.008562	0.376848
O10	O	1.554917	-0.152203	0.383130
O11	O	1.569252	-0.072639	0.559160
O12	O	1.450191	-0.070456	0.202029
V13	V	1.689586	-0.079163	0.396971
O14	O	1.690875	0.003801	0.388680
O15	O	1.667829	-0.156964	0.394962
O16	O	1.682066	-0.077947	0.569782
O17	O	1.676539	-0.075763	0.212651
V18	V	1.850407	-0.069239	0.374839
O19	O	1.777445	-0.100931	0.445520
O20	O	1.912614	-0.047471	0.326291
O21	O	1.797762	0.008562	0.376848
O22	O	1.888250	-0.152203	0.383130
O23	O	1.902586	-0.072639	0.559160
O24	O	1.783524	-0.070456	0.202029
V25	V	2.022919	-0.079163	0.396971
O26	O	2.024209	0.003801	0.388680
O27	O	2.001162	-0.156964	0.394962
O28	O	2.015400	-0.077947	0.569782
O29	O	2.009873	-0.075763	0.212651
V30	V	2.183741	-0.069239	0.374839
O31	O	2.110778	-0.100931	0.445520
O32	O	2.245947	-0.047471	0.326291
O33	O	2.131095	0.008562	0.376848
O34	O	2.221583	-0.152203	0.383130
O35	O	2.235919	-0.072639	0.559160
O36	O	2.116858	-0.070456	0.202029
C37	C	1.281183	-0.175930	0.388882
C38	C	1.290547	-0.239533	0.388392
C39	C	1.409524	-0.636867	0.391855
C40	C	1.418336	-0.696630	0.391414
O41	O	1.474617	-0.730021	0.396645
N42	N	1.361928	-0.723606	0.384817
C43	C	1.296706	-0.690816	0.378675
O44	O	1.249536	-0.719249	0.373025
C45	C	1.287897	-0.631054	0.379126
C46	C	1.344307	-0.604081	0.385710
C47	C	1.465930	-0.609893	0.398440
C48	C	1.457119	-0.550133	0.398879
C49	C	1.391901	-0.517347	0.392733
C50	C	1.335496	-0.544321	0.386149
C51	C	1.222677	-0.598266	0.372993
C52	C	1.213873	-0.538500	0.373445
C53	C	1.270284	-0.511526	0.380029
C54	C	1.261467	-0.451775	0.380442
N55	N	1.317875	-0.424799	0.387038
C56	C	1.383092	-0.457585	0.393184
C57	C	1.315211	-0.816321	0.377731
C58	C	1.324018	-0.876081	0.377271
C59	C	1.445647	-0.881891	0.390013
C60	C	1.436838	-0.822129	0.390463
C61	C	1.371619	-0.789345	0.384328
C62	C	1.364583	-0.332085	0.394104
C63	C	1.355764	-0.272319	0.394537
C64	C	1.234137	-0.266515	0.381803
C65	C	1.242953	-0.326274	0.381363
C66	C	1.308182	-0.359059	0.387519
O67	O	1.205208	-0.418348	0.375219
O68	O	1.430255	-0.429146	0.398850
C69	C	1.299343	-0.075135	0.611880
C70	C	1.320253	-0.074655	0.753159
C71	C	1.405522	0.027525	0.382925
C72	C	1.389237	0.091127	0.383424
C73	C	1.387361	-0.073269	0.159924
C74	C	1.359531	-0.073746	0.018644
C75	C	1.614516	-0.175930	0.388882
C76	C	1.623881	-0.239533	0.388392
C77	C	1.441908	-0.080373	0.766180
C78	C	1.512556	-0.083008	0.839063
C79	C	1.532198	-0.082557	0.971805
C80	C	1.481185	-0.079468	1.031666
C81	C	1.410537	-0.076833	0.958784
C82	C	1.390902	-0.077286	0.826040
C83	C	1.288883	-0.071111	0.945761
C84	C	1.269240	-0.071566	0.813020
C85	C	1.237870	-0.068022	1.005623
C86	C	1.167222	-0.065391	0.932742
C87	C	1.147581	-0.065843	0.799992
C88	C	1.198592	-0.068931	0.740138
C89	C	1.632677	-0.075135	0.611880
C90	C	1.653586	-0.074655	0.753159
C91	C	1.738855	0.027525	0.382925
C92	C	1.722570	0.091127	0.383424
C93	C	1.720694	-0.073269	0.159924
C94	C	1.692864	-0.073746	0.018644
C95	C	1.947849	-0.175930	0.388882
C96	C	1.957214	-0.239533	0.388392
C97	C	1.966010	-0.075135	0.611880
C98	C	1.986920	-0.074655	0.753159
C99	C	2.072188	0.027525	0.382925
C100	C	2.055904	0.091127	0.383424
C101	C	2.054028	-0.073269	0.159924
C102	C	2.026198	-0.073746	0.018644
C103	C	1.689098	-0.272319	0.394537
C104	C	1.697909	-0.332083	0.394096
C105	C	1.641501	-0.359059	0.387499
C106	C	1.576279	-0.326269	0.381357
C107	C	1.567470	-0.266507	0.381808
C108	C	1.772349	0.123913	0.377282
C109	C	1.757053	0.183676	0.377729
C110	C	1.691979	0.210652	0.384329
C111	C	1.642196	0.177862	0.390468
C112	C	1.657491	0.118101	0.390011
C113	C	2.022431	-0.272319	0.394537
C114	C	2.031242	-0.332083	0.394096
C115	C	1.974834	-0.359059	0.387499
C116	C	1.909613	-0.326269	0.381357
C117	C	1.900804	-0.266507	0.381808
C118	C	2.105683	0.123913	0.377282
C119	C	2.090386	0.183676	0.377729
C120	C	2.025312	0.210652	0.384329
C121	C	1.975529	0.177862	0.390468
C122	C	1.990824	0.118101	0.390011
C123	C	1.674819	-0.179448	0.790430
C124	C	1.695256	-0.231617	0.875437
C125	C	1.714902	-0.231163	1.008179
C126	C	1.714113	-0.178534	1.055915
C127	C	1.693676	-0.126366	0.970909
C128	C	1.674028	-0.126825	0.838166
C129	C	1.672449	-0.021574	0.933639
C130	C	1.652797	-0.022027	0.800896
C131	C	1.671660	0.031054	0.981376
C132	C	1.651218	0.083224	0.896368
C133	C	1.631570	0.082768	0.763619
C134	C	1.632360	0.030142	0.715889
C135	C	2.008152	-0.179448	0.790430
C136	C	2.028589	-0.231617	0.875437
C137	C	2.048236	-0.231163	1.008179
C138	C	2.047446	-0.178534	1.055915
C139	C	2.027010	-0.126366	0.970909
C140	C	2.007362	-0.126825	0.838166
C141	C	2.005782	-0.021574	0.933639
C142	C	1.986131	-0.022027	0.800896
C143	C	2.004993	0.031054	0.981376
C144	C	1.984551	0.083224	0.896368
C145	C	1.964903	0.082768	0.763619
C146	C	1.965694	0.030142	0.715889
H147	H	1.417697	-0.358771	0.399119
H148	H	2.158673	0.101958	0.371909
H149	H	2.068368	-0.250363	0.399901
H150	H	1.695898	-0.274466	0.836555
H151	H	1.530355	-0.348242	0.375986
O152	O	2.026180	0.031549	1.124545
H153	H	2.040516	-0.013567	1.175638
H154	H	1.982017	-0.407721	0.387133
H155	H	1.482773	-0.800171	0.395822
O156	O	1.497123	-0.231144	0.375162
H157	H	1.459383	-0.259946	0.370487
H158	H	1.863689	-0.348242	0.375986
H159	H	1.648684	-0.407721	0.387133
O160	O	1.263170	-0.905166	0.370158
H161	H	1.280244	-0.952232	0.370876
H162	H	1.825340	0.101958	0.371909
O163	O	1.905345	0.206960	0.397592
H164	H	1.899493	0.187983	0.487639
O165	O	1.603803	0.082738	0.396664
H166	H	1.555991	0.111540	0.401346
O167	O	1.830458	-0.231145	0.375170
H168	H	1.789097	-0.235115	0.284941
O169	O	1.810760	0.219034	0.371153
H170	H	1.858585	0.190229	0.366525
H171	H	1.160764	-0.511810	0.368455
H172	H	1.950287	0.091410	0.395024
O173	O	1.768256	-0.367438	0.400703
H174	H	1.764916	-0.413528	0.399296
O175	O	1.675491	0.275108	0.384848
H176	H	1.721047	0.293368	0.379487
O177	O	1.515995	-0.917259	0.396653
H178	H	1.512641	-0.963347	0.395247
O179	O	1.259059	-0.067538	1.148797
H180	H	1.230051	-0.027005	1.167068
O181	O	1.244860	-0.780959	0.371092
H182	H	1.207120	-0.809761	0.366418
H183	H	2.029231	-0.274466	0.836555
H184	H	1.589212	0.199835	0.395839
O185	O	1.112206	-0.062062	0.997301
H186	H	1.137733	-0.062191	1.101849
O187	O	2.144099	0.219027	0.371149
H188	H	2.155847	0.215052	0.280948
O189	O	1.749947	-0.243235	0.401658
H190	H	1.732874	-0.196169	0.400929
O191	O	1.653622	-0.179941	0.647259
H192	H	1.598378	-0.155306	0.599368
H193	H	1.731545	-0.273643	1.077392
H194	H	1.176739	-0.620216	0.367622
O195	O	2.101588	-0.367438	0.400696
H196	H	2.122425	-0.400909	0.487880
O197	O	1.182114	-0.355373	0.374258
H198	H	1.135285	-0.322532	0.370064
O199	O	2.008824	0.275108	0.384848
H200	H	2.054380	0.293368	0.379487
H201	H	1.503056	-0.528178	0.404249
O202	O	1.163799	-0.231149	0.375194
H203	H	1.167158	-0.185063	0.376628
H204	H	1.730120	-0.178170	1.164004
O205	O	1.420720	-0.080860	0.623007
H206	H	1.468057	-0.083446	0.593625
O207	O	1.692846	0.031549	1.124545
H208	H	1.707183	-0.013567	1.175638
H209	H	1.554086	-0.085521	0.790308
H210	H	2.064878	-0.273643	1.077392
O211	O	1.650363	0.139983	0.947850
H212	H	1.667458	0.131534	1.054434
O213	O	1.609523	0.139036	0.671932
H214	H	1.612271	0.175704	0.727433
O215	O	1.611167	0.029652	0.572717
H216	H	1.615154	-0.015707	0.553810
H217	H	1.948266	0.125250	0.694413
H218	H	1.992145	-0.179822	0.682346
H219	H	2.063453	-0.178170	1.164004
O220	O	1.983697	0.139983	0.947850
H221	H	2.000791	0.131534	1.054434
O222	O	1.944497	0.029651	0.572717
H223	H	1.989379	0.004775	0.550617
O224	O	1.416619	-0.243236	0.401654
H225	H	1.401630	-0.210046	0.315077
H226	H	1.519040	-0.636582	0.403450
H227	H	1.497183	-0.079093	1.139750
O228	O	1.608395	-0.085393	1.050423
H229	H	1.641733	-0.126030	1.042009
O230	O	1.071382	-0.062997	0.721370
H231	H	1.053914	-0.100715	0.757639
O232	O	1.177412	-0.069411	0.596964
H233	H	1.206430	-0.109938	0.578691
