data_functionalizedCrystal
_audit_creation_method	'MofGen! by Chris Wilmer'
_symmetry_space_group_name_H-M	'P1'
_symmetry_Int_Tables_number	1
_symmetry_cell_setting	triclinic
loop_
_symmetry_equiv_pos_as_xyz
  x,y,z
_cell_length_a	27.732048
_cell_length_b	27.732048
_cell_length_c	22.610064
_cell_angle_alpha	89.999096
_cell_angle_beta	89.997337
_cell_angle_gamma	82.642655
loop_
_atom_site_label
_atom_site_type_symbol
_atom_site_fract_x
_atom_site_fract_y
_atom_site_fract_z
O1	O	0.640931	0.057510	-0.049115
O2	O	0.974264	0.390844	0.284219
O3	O	1.307597	0.724177	0.617552
O4	O	0.500137	0.066256	-0.049133
O5	O	0.833470	0.399589	0.284200
O6	O	1.166804	0.732923	0.617533
O7	O	0.574907	-0.008514	-0.049112
O8	O	0.908240	0.324820	0.284221
O9	O	1.241573	0.658153	0.617554
O10	O	0.566161	0.132280	-0.049136
O11	O	0.899494	0.465613	0.284197
O12	O	1.232828	0.798947	0.617531
O13	O	0.574893	-0.008503	0.049257
O14	O	0.908227	0.324831	0.382590
O15	O	1.241560	0.658164	0.715924
O16	O	0.500124	0.066267	0.049236
O17	O	0.833457	0.399600	0.382569
O18	O	1.166791	0.732933	0.715902
O19	O	0.640917	0.057521	0.049255
O20	O	0.974251	0.390855	0.382588
O21	O	1.307584	0.724188	0.715921
Zn22	Zn	0.570518	0.061896	0.064863
Zn23	Zn	0.903852	0.395229	0.398197
Zn24	Zn	1.237185	0.728562	0.731530
Zn25	Zn	0.570536	0.061881	-0.064742
Zn26	Zn	0.903869	0.395215	0.268591
Zn27	Zn	1.237203	0.728548	0.601924
O28	O	0.566148	0.132291	0.049233
O29	O	0.899481	0.465624	0.382567
O30	O	1.232815	0.798957	0.715900
C31	C	0.482124	0.066078	0.000049
C32	C	0.815457	0.399411	0.333382
C33	C	1.148790	0.732744	0.666716
C34	C	0.428469	0.065525	0.000042
C35	C	0.761802	0.398858	0.333376
C36	C	1.095135	0.732192	0.666709
C37	C	0.089654	0.106229	0.000061
C38	C	0.422987	0.439562	0.333394
C39	C	0.756320	0.772895	0.666728
C40	C	-0.112006	0.104178	0.000067
C41	C	0.221327	0.437511	0.333400
C42	C	0.554661	0.770844	0.666733
O43	O	-0.143262	0.141398	0.000086
O44	O	0.190072	0.474732	0.333419
O45	O	0.523405	0.808065	0.666753
N46	N	-0.131130	0.059843	0.000073
N47	N	0.202204	0.393176	0.333406
N48	N	0.535537	0.726509	0.666740
C49	C	-0.099835	0.016017	0.000082
C50	C	0.233498	0.349350	0.333415
C51	C	0.566832	0.682684	0.666749
O52	O	-0.120728	-0.021740	0.000094
O53	O	0.212605	0.311593	0.333427
O54	O	0.545938	0.644927	0.666760
C55	C	0.101824	0.018068	0.000081
C56	C	0.435157	0.351402	0.333414
C57	C	0.768490	0.684735	0.666747
C58	C	0.120944	0.062407	0.000068
C59	C	0.454278	0.395740	0.333401
C60	C	0.787611	0.729073	0.666735
C61	C	0.108775	0.150563	0.000049
C62	C	0.442108	0.483897	0.333383
C63	C	0.775442	0.817230	0.666716
C64	C	0.159187	0.151076	0.000045
C65	C	0.492520	0.484409	0.333378
C66	C	0.825853	0.817742	0.666711
C67	C	0.190477	0.107253	0.000052
C68	C	0.523811	0.440587	0.333385
C69	C	0.857144	0.773920	0.666718
C70	C	0.171356	0.062919	0.000063
C71	C	0.504690	0.396252	0.333397
C72	C	0.838023	0.729585	0.666730
C73	C	0.133117	-0.025757	0.000094
C74	C	0.466451	0.307577	0.333427
C75	C	0.799784	0.640910	0.666760
C76	C	0.183535	-0.025240	0.000095
C77	C	0.516868	0.308094	0.333428
C78	C	0.850201	0.641427	0.666761
C79	C	0.202655	0.019098	0.000082
C80	C	0.535989	0.352432	0.333416
C81	C	0.869322	0.685765	0.666749
C82	C	0.253059	0.019609	0.000066
C83	C	0.586392	0.352942	0.333399
C84	C	0.919725	0.686276	0.666733
N85	N	0.272183	0.063944	0.000060
N86	N	0.605516	0.397277	0.333393
N87	N	0.938849	0.730611	0.666726
C88	C	0.240892	0.107766	0.000052
C89	C	0.574225	0.441100	0.333386
C90	C	0.907559	0.774433	0.666719
C91	C	-0.205709	0.014943	0.000081
C92	C	0.127624	0.348276	0.333415
C93	C	0.460957	0.681610	0.666748
C94	C	-0.256124	0.014430	0.000081
C95	C	0.077210	0.347763	0.333414
C96	C	0.410543	0.681097	0.666747
C97	C	-0.268291	0.102591	0.000067
C98	C	0.065042	0.435924	0.333400
C99	C	0.398376	0.769258	0.666733
C100	C	-0.217876	0.103104	0.000063
C101	C	0.115458	0.436437	0.333396
C102	C	0.448791	0.769770	0.666730
C103	C	-0.186585	0.059278	0.000075
C104	C	0.146748	0.392612	0.333408
C105	C	0.480081	0.725945	0.666742
C106	C	0.346761	0.108839	0.000042
C107	C	0.680094	0.442172	0.333376
C108	C	1.013428	0.775505	0.666709
C109	C	0.397178	0.109347	0.000035
C110	C	0.730511	0.442681	0.333368
C111	C	1.063845	0.776014	0.666702
C112	C	0.409341	0.021186	0.000052
C113	C	0.742674	0.354520	0.333386
C114	C	1.076008	0.687853	0.666719
C115	C	0.358929	0.020678	0.000056
C116	C	0.692262	0.354011	0.333390
C117	C	1.025595	0.687344	0.666723
C118	C	0.327639	0.064508	0.000053
C119	C	0.660973	0.397841	0.333387
C120	C	0.994306	0.731175	0.666720
O121	O	0.284343	-0.017592	0.000053
O122	O	0.617676	0.315741	0.333387
O123	O	0.951009	0.649075	0.666720
O124	O	0.261794	0.145518	0.000054
O125	O	0.595128	0.478851	0.333387
O126	O	0.928461	0.812184	0.666721
C127	C	0.039242	0.105716	0.000066
C128	C	0.372575	0.439050	0.333399
C129	C	0.705908	0.772383	0.666732
C130	C	0.020120	0.061382	0.000077
C131	C	0.353454	0.394715	0.333411
C132	C	0.686787	0.728049	0.666744
C133	C	0.051411	0.017560	0.000084
C134	C	0.384744	0.350893	0.333418
C135	C	0.718078	0.684226	0.666751
C136	C	-0.030294	0.060869	0.000077
C137	C	0.303039	0.394202	0.333410
C138	C	0.636373	0.727536	0.666743
C139	C	-0.061585	0.104691	0.000070
C140	C	0.271749	0.438025	0.333403
C141	C	0.605082	0.771358	0.666736
C142	C	-0.042461	0.149026	0.000063
C143	C	0.290872	0.482360	0.333396
C144	C	0.624206	0.815693	0.666730
C145	C	0.007951	0.149539	0.000059
C146	C	0.341284	0.482872	0.333392
C147	C	0.674618	0.816205	0.666725
C148	C	0.032287	-0.026775	0.000091
C149	C	0.365621	0.306558	0.333424
C150	C	0.698954	0.639891	0.666758
C151	C	-0.018125	-0.027284	0.000095
C152	C	0.315208	0.306049	0.333428
C153	C	0.648541	0.639383	0.666762
C154	C	-0.049416	0.016538	0.000088
C155	C	0.283917	0.349871	0.333421
C156	C	0.617251	0.683205	0.666754
C157	C	0.574716	-0.026515	0.000074
C158	C	0.908050	0.306818	0.333407
C159	C	1.241383	0.640152	0.666741
C160	C	0.574164	-0.080170	0.000079
C161	C	0.907497	0.253163	0.333412
C162	C	1.240830	0.586497	0.666745
C163	C	0.614867	-0.418985	0.000054
C164	C	0.948201	-0.085652	0.333387
C165	C	1.281534	0.247682	0.666721
C166	C	0.612816	-0.620645	0.000045
C167	C	0.946150	-0.287311	0.333379
C168	C	1.279483	0.046022	0.666712
O169	O	0.650037	-0.651900	0.000024
O170	O	0.983370	-0.318567	0.333358
O171	O	1.316704	0.014766	0.666691
N172	N	0.568481	-0.639768	0.000040
N173	N	0.901814	-0.306435	0.333373
N174	N	1.235148	0.026898	0.666707
C175	C	0.524656	-0.608474	0.000033
C176	C	0.857989	-0.275140	0.333366
C177	C	1.191322	0.058193	0.666700
O178	O	0.486899	-0.629367	0.000022
O179	O	0.820232	-0.296033	0.333355
O180	O	1.153565	0.037300	0.666689
C181	C	0.526707	-0.406815	0.000037
C182	C	0.860040	-0.073482	0.333370
C183	C	1.193374	0.259852	0.666704
C184	C	0.571045	-0.387694	0.000049
C185	C	0.904378	-0.054361	0.333382
C186	C	1.237712	0.278972	0.666715
C187	C	0.659202	-0.399864	0.000065
C188	C	0.992535	-0.066530	0.333398
C189	C	1.325868	0.266803	0.666731
C190	C	0.659714	-0.349452	0.000070
C191	C	0.993047	-0.016118	0.333403
C192	C	1.326381	0.317215	0.666737
C193	C	0.615892	-0.318161	0.000065
C194	C	0.949225	0.015172	0.333398
C195	C	1.282559	0.348506	0.666731
C196	C	0.571557	-0.337282	0.000054
C197	C	0.904891	-0.003949	0.333387
C198	C	1.238224	0.329384	0.666721
C199	C	0.482882	-0.375521	0.000026
C200	C	0.816215	-0.042188	0.333359
C201	C	1.149549	0.291145	0.666692
C202	C	0.483399	-0.325104	0.000025
C203	C	0.816732	0.008229	0.333359
C204	C	1.150066	0.341563	0.666692
C205	C	0.527737	-0.305983	0.000037
C206	C	0.861070	0.027350	0.333370
C207	C	1.194404	0.360683	0.666703
C208	C	0.528247	-0.255580	0.000054
C209	C	0.861581	0.077754	0.333387
C210	C	1.194914	0.411087	0.666721
N211	N	0.572583	-0.236456	0.000059
N212	N	0.905916	0.096877	0.333393
N213	N	1.239249	0.430211	0.666726
C214	C	0.616405	-0.267747	0.000065
C215	C	0.949738	0.065587	0.333398
C216	C	1.283072	0.398920	0.666731
C217	C	0.523582	-0.714348	0.000032
C218	C	0.856915	-0.381014	0.333365
C219	C	1.190248	-0.047681	0.666698
C220	C	0.523069	-0.764762	0.000032
C221	C	0.856402	-0.431429	0.333365
C222	C	1.189735	-0.098096	0.666698
C223	C	0.611230	-0.776930	0.000043
C224	C	0.944563	-0.443596	0.333376
C225	C	1.277896	-0.110263	0.666710
C226	C	0.611742	-0.726514	0.000047
C227	C	0.945075	-0.393181	0.333381
C228	C	1.278409	-0.059848	0.666714
C229	C	0.567917	-0.695224	0.000037
C230	C	0.901250	-0.361891	0.333370
C231	C	1.234583	-0.028557	0.666704
C232	C	0.617477	-0.161878	0.000076
C233	C	0.950811	0.171456	0.333410
C234	C	1.284144	0.504789	0.666743
C235	C	0.617986	-0.111461	0.000084
C236	C	0.951319	0.221873	0.333417
C237	C	1.284652	0.555206	0.666751
C238	C	0.529825	-0.099298	0.000070
C239	C	0.863158	0.234036	0.333403
C240	C	1.196492	0.567369	0.666736
C241	C	0.529316	-0.149710	0.000065
C242	C	0.862650	0.183623	0.333398
C243	C	1.195983	0.516957	0.666732
C244	C	0.573147	-0.180999	0.000066
C245	C	0.906480	0.152334	0.333400
C246	C	1.239813	0.485667	0.666733
O247	O	0.491047	-0.224296	0.000068
O248	O	0.824380	0.109038	0.333401
O249	O	1.157713	0.442371	0.666735
O250	O	0.654156	-0.246844	0.000062
O251	O	0.987490	0.086489	0.333396
O252	O	1.320823	0.419823	0.666729
C253	C	0.614355	-0.469397	0.000049
C254	C	0.947688	-0.136064	0.333382
C255	C	1.281022	0.197270	0.666715
C256	C	0.570021	-0.488518	0.000038
C257	C	0.903354	-0.155185	0.333371
C258	C	1.236687	0.178148	0.666704
C259	C	0.526198	-0.457228	0.000032
C260	C	0.859532	-0.123894	0.333366
C261	C	1.192865	0.209439	0.666699
C262	C	0.569508	-0.538933	0.000038
C263	C	0.902841	-0.205599	0.333371
C264	C	1.236174	0.127734	0.666704
C265	C	0.613330	-0.570223	0.000043
C266	C	0.946663	-0.236890	0.333376
C267	C	1.279996	0.096443	0.666710
C268	C	0.657665	-0.551100	0.000048
C269	C	0.990998	-0.217766	0.333382
C270	C	1.324332	0.115567	0.666715
C271	C	0.658177	-0.500688	0.000054
C272	C	0.991511	-0.167354	0.333387
C273	C	1.324844	0.165979	0.666721
C274	C	0.481863	-0.476351	0.000027
C275	C	0.815197	-0.143018	0.333360
C276	C	1.148530	0.190315	0.666694
C277	C	0.481355	-0.526764	0.000022
C278	C	0.814688	-0.193430	0.333356
C279	C	1.148021	0.139903	0.666689
C280	C	0.525177	-0.558054	0.000028
C281	C	0.858510	-0.224721	0.333361
C282	C	1.191843	0.108612	0.666694
C283	C	0.658931	0.057699	0.000071
C284	C	0.992264	0.391033	0.333404
C285	C	1.325598	0.724366	0.666738
C286	C	0.712586	0.058252	0.000074
C287	C	1.045919	0.391586	0.333407
C288	C	1.379252	0.724919	0.666740
C289	C	0.566338	0.150292	0.000046
C290	C	0.899671	0.483626	0.333379
C291	C	1.233005	0.816959	0.666712
C292	C	0.566891	0.203947	0.000037
C293	C	0.900224	0.537280	0.333370
C294	C	1.233557	0.870614	0.666704
N295	N	0.570510	0.061905	0.153316
N296	N	0.903843	0.395239	0.486649
N297	N	1.237177	0.728572	0.819982
N298	N	0.570548	0.061868	-0.153195
N299	N	0.903881	0.395201	0.180139
N300	N	1.237215	0.728535	0.513472
C301	C	0.603645	0.028779	0.561967
C302	C	0.936979	0.362112	0.895300
C303	C	1.270312	0.695445	1.228633
C304	C	0.603648	0.028775	0.623887
C305	C	0.936981	0.362108	0.957220
C306	C	1.270314	0.695442	1.290553
O307	O	0.631800	0.000617	0.655913
O308	O	0.965133	0.333950	0.989247
O309	O	1.298466	0.667283	1.322580
N310	N	0.570536	0.061871	0.654853
N311	N	0.903869	0.395205	0.988186
N312	N	1.237202	0.728538	1.321520
C313	C	0.537415	0.094970	0.623896
C314	C	0.870749	0.428304	0.957230
C315	C	1.204082	0.761637	1.290563
O316	O	0.509251	0.123121	0.655921
O317	O	0.842584	0.456454	0.989255
O318	O	1.175918	0.789787	1.322588
C319	C	0.537411	0.094971	0.561978
C320	C	0.870744	0.428304	0.895311
C321	C	1.204078	0.761638	1.228644
C322	C	0.570529	0.061876	0.531014
C323	C	0.903862	0.395209	0.864348
C324	C	1.237195	0.728542	1.197681
C325	C	0.636760	-0.004314	0.531003
C326	C	0.970093	0.329019	0.864337
C327	C	1.303426	0.662352	1.197670
C328	C	0.636758	-0.004310	0.469088
C329	C	0.970091	0.329023	0.802421
C330	C	1.303424	0.662356	1.135754
C331	C	0.603641	0.028787	0.438135
C332	C	0.936975	0.362120	0.771469
C333	C	1.270308	0.695454	1.104802
C334	C	0.570527	0.061880	0.469099
C335	C	0.903860	0.395213	0.802432
C336	C	1.237193	0.728547	1.135765
C337	C	0.504289	0.128067	0.531022
C338	C	0.837622	0.461400	0.864355
C339	C	1.170956	0.794734	1.197689
C340	C	0.504287	0.128065	0.469099
C341	C	0.837621	0.461398	0.802432
C342	C	1.170954	0.794732	1.135766
C343	C	0.537405	0.094970	0.438136
C344	C	0.870738	0.428303	0.771469
C345	C	1.204072	0.761636	1.104802
C346	C	0.537408	0.094981	0.376231
C347	C	0.870741	0.428315	0.709564
C348	C	1.204075	0.761648	1.042897
N349	N	0.570520	0.061885	0.345264
N350	N	0.903854	0.395218	0.678598
N351	N	1.237187	0.728552	1.011931
C352	C	0.603637	0.028788	0.376217
C353	C	0.936970	0.362121	0.709550
C354	C	1.270303	0.695455	1.042883
C355	C	0.537427	0.094965	0.753930
C356	C	0.870760	0.428299	1.087263
C357	C	1.204093	0.761632	1.420597
C358	C	0.537433	0.094967	0.815848
C359	C	0.870766	0.428301	1.149181
C360	C	1.204100	0.761634	1.482514
C361	C	0.603665	0.028771	0.815834
C362	C	0.936998	0.362105	1.149167
C363	C	1.270331	0.695438	1.482500
C364	C	0.603660	0.028772	0.753915
C365	C	0.936994	0.362105	1.087248
C366	C	1.270327	0.695439	1.420581
C367	C	0.570539	0.061869	0.722963
C368	C	0.903872	0.395202	1.056297
C369	C	1.237206	0.728536	1.389630
C370	C	0.603630	0.028800	0.246189
C371	C	0.936964	0.362133	0.579523
C372	C	1.270297	0.695466	0.912856
C373	C	0.603627	0.028808	0.184268
C374	C	0.936960	0.362141	0.517601
C375	C	1.270293	0.695475	0.850935
C376	C	0.537393	0.095002	0.184288
C377	C	0.870727	0.428335	0.517621
C378	C	1.204060	0.761669	0.850954
C379	C	0.537399	0.094995	0.246203
C380	C	0.870732	0.428329	0.579537
C381	C	1.204065	0.761662	0.912870
C382	C	0.570519	0.061890	0.277153
C383	C	0.903852	0.395224	0.610486
C384	C	1.237186	0.728557	0.943819
O385	O	0.509269	0.123124	0.344165
O386	O	0.842602	0.456457	0.677498
O387	O	1.175936	0.789791	1.010831
O388	O	0.631792	0.000638	0.344184
O389	O	0.965126	0.333971	0.677517
O390	O	1.298459	0.667305	1.010851
H391	H	-0.180236	-0.020747	0.000091
H392	H	0.153097	0.312586	0.333425
H393	H	0.486430	0.645920	0.666758
H394	H	0.434827	-0.014492	0.000056
H395	H	0.768160	0.318841	0.333389
H396	H	1.101494	0.652174	0.666723
O397	O	-0.199245	0.146142	0.000132
O398	O	0.134088	0.479475	0.333465
O399	O	0.467421	0.812809	0.666799
C400	C	-0.170462	0.149093	0.051086
C401	C	0.162871	0.482426	0.384419
C402	C	0.496204	0.815759	0.717753
H403	H	-0.157624	0.110901	0.068081
H404	H	0.175709	0.444235	0.401414
H405	H	0.509042	0.777568	0.734747
H406	H	-0.137587	0.168110	0.039624
H407	H	0.195746	0.501444	0.372958
H408	H	0.529079	0.834777	0.706291
H409	H	-0.192899	0.170651	0.086755
H410	H	0.140434	0.503985	0.420088
H411	H	0.473767	0.837318	0.753421
O412	O	0.114492	-0.068796	0.000187
O413	O	0.447826	0.264537	0.333520
O414	O	0.781159	0.597871	0.666853
C415	C	0.085705	-0.071730	0.051143
C416	C	0.419038	0.261603	0.384476
C417	C	0.752371	0.594936	0.717810
H418	H	0.072862	-0.033534	0.068117
H419	H	0.406196	0.299800	0.401450
H420	H	0.739529	0.633133	0.734784
H421	H	0.052833	-0.090755	0.039693
H422	H	0.386166	0.242578	0.373026
H423	H	0.719499	0.575912	0.706360
H424	H	0.108139	-0.093275	0.086823
H425	H	0.441473	0.240058	0.420156
H426	H	0.774806	0.573392	0.753490
O427	O	0.177819	0.194113	0.000108
O428	O	0.511153	0.527446	0.333441
O429	O	0.844486	0.860780	0.666775
C430	C	0.206608	0.197065	0.051056
C431	C	0.539942	0.530398	0.384390
C432	C	0.873275	0.863732	0.717723
H433	H	0.219445	0.158875	0.068054
H434	H	0.552778	0.492208	0.401388
H435	H	0.886112	0.825541	0.734721
H436	H	0.239484	0.216079	0.039586
H437	H	0.572817	0.549413	0.372920
H438	H	0.906150	0.882746	0.706253
H439	H	0.184176	0.218628	0.086726
H440	H	0.517510	0.551962	0.420059
H441	H	0.850843	0.885295	0.753392
H442	H	0.630629	0.001821	0.841046
H443	H	0.963963	0.335154	1.174380
H444	H	1.297296	0.668488	1.507713
O445	O	0.472070	0.160234	0.560998
O446	O	0.805404	0.493567	0.894332
O447	O	1.138737	0.826901	1.227665
C448	C	0.442851	0.189448	0.520389
C449	C	0.776184	0.522781	0.853722
C450	C	1.109518	0.856115	1.187056
H451	H	0.442460	0.169629	0.476254
H452	H	0.775794	0.502962	0.809587
H453	H	1.109127	0.836295	1.142920
H454	H	0.404192	0.197086	0.538276
H455	H	0.737525	0.530419	0.871609
H456	H	1.070859	0.863753	1.204943
H457	H	0.458272	0.225251	0.513800
H458	H	0.791606	0.558585	0.847134
H459	H	1.124939	0.891918	1.180467
O460	O	0.316322	0.151383	-0.000044
O461	O	0.649656	0.484716	0.333290
O462	O	0.982989	0.818050	0.666623
C463	C	0.286807	0.153725	-0.050997
C464	C	0.620140	0.487059	0.282336
C465	C	0.953474	0.820392	0.615669
H466	H	0.284531	0.115375	-0.067971
H467	H	0.617865	0.448708	0.265363
H468	H	0.951198	0.782042	0.598696
H469	H	0.248782	0.172029	-0.039544
H470	H	0.582115	0.505363	0.293790
H471	H	0.915449	0.838696	0.627123
H472	H	0.303239	0.175665	-0.086679
H473	H	0.636573	0.508999	0.246655
H474	H	0.969906	0.842332	0.579988
O475	O	0.505243	0.127103	0.154123
O476	O	0.838576	0.460436	0.487456
O477	O	1.171909	0.793770	0.820789
C478	C	0.512352	0.120011	0.092833
C479	C	0.845686	0.453345	0.426167
C480	C	1.179019	0.786678	0.759500
H481	H	0.530713	0.081456	0.084380
H482	H	0.864046	0.414790	0.417713
H483	H	1.197379	0.748123	0.751047
H484	H	0.475707	0.125634	0.069302
H485	H	0.809040	0.458968	0.402635
H486	H	1.142374	0.792301	0.735969
H487	H	0.536385	0.147209	0.075257
H488	H	0.869718	0.480542	0.408591
H489	H	1.203052	0.813875	0.741924
O490	O	0.438293	-0.545358	0.000115
O491	O	0.771627	-0.212025	0.333449
O492	O	1.104960	0.121309	0.666782
C493	C	0.435348	-0.574170	0.051047
C494	C	0.768681	-0.240837	0.384381
C495	C	1.102015	0.092496	0.717714
H496	H	0.460509	-0.562438	0.086667
H497	H	0.793842	-0.229104	0.420001
H498	H	1.127175	0.104229	0.753334
H499	H	0.396352	-0.569358	0.068135
H500	H	0.729685	-0.236025	0.401469
H501	H	1.063018	0.097308	0.734802
H502	H	0.446801	-0.614013	0.039525
H503	H	0.780134	-0.280679	0.372858
H504	H	1.113467	0.052654	0.706192
O505	O	0.635847	-0.003425	0.723931
O506	O	0.969180	0.329908	1.057265
O507	O	1.302513	0.663241	1.390598
C508	C	0.665084	-0.032626	0.764536
C509	C	0.998417	0.300707	1.097869
C510	C	1.331751	0.634041	1.431203
H511	H	0.645272	-0.033032	0.808676
H512	H	0.978605	0.300301	1.142009
H513	H	1.311938	0.633635	1.475343
H514	H	0.672748	-0.071283	0.746651
H515	H	1.006082	0.262051	1.079984
H516	H	1.339415	0.595384	1.413317
H517	H	0.700873	-0.017176	0.771115
H518	H	1.034206	0.316157	1.104448
H519	H	1.367540	0.649490	1.437782
H520	H	0.023514	0.185643	0.000049
H521	H	0.356847	0.518977	0.333383
H522	H	0.690181	0.852310	0.666716
O523	O	-0.072911	0.191564	-0.000022
O524	O	0.260423	0.524898	0.333311
O525	O	0.593756	0.858231	0.666644
C526	C	-0.102428	0.193903	-0.050974
C527	C	0.230905	0.527236	0.282359
C528	C	0.564238	0.860569	0.615693
H529	H	-0.104691	0.155552	-0.067954
H530	H	0.228642	0.488885	0.265379
H531	H	0.561976	0.822219	0.598713
H532	H	-0.140457	0.212193	-0.039515
H533	H	0.192876	0.545526	0.293818
H534	H	0.526209	0.878859	0.627152
H535	H	-0.086006	0.215854	-0.086652
H536	H	0.247327	0.549187	0.246681
H537	H	0.580661	0.882520	0.580014
H538	H	0.663727	-0.031268	0.556199
H539	H	0.997061	0.302065	0.889533
H540	H	1.330394	0.635398	1.222866
O541	O	0.668943	-0.036510	0.439106
O542	O	1.002277	0.296823	0.772439
O543	O	1.335610	0.630157	1.105773
C544	C	0.698176	-0.065712	0.479714
C545	C	1.031509	0.267621	0.813047
C546	C	1.364843	0.600955	1.146380
H547	H	0.678361	-0.066115	0.523852
H548	H	1.011694	0.267218	0.857186
H549	H	1.345028	0.600551	1.190519
H550	H	0.705838	-0.104369	0.461829
H551	H	1.039171	0.228964	0.795163
H552	H	1.372504	0.562297	1.128496
H553	H	0.733967	-0.050266	0.486295
H554	H	1.067300	0.283067	0.819628
H555	H	1.400633	0.616401	1.152962
O556	O	0.415670	0.152462	0.000051
O557	O	0.749004	0.485795	0.333384
O558	O	1.082337	0.819129	0.666718
C559	C	0.377238	0.191029	0.000033
C560	C	0.710571	0.524362	0.333366
C561	C	1.043904	0.857696	0.666700
H562	H	0.343086	0.177741	0.018662
H563	H	0.676419	0.511074	0.351995
H564	H	1.009752	0.844407	0.685328
H565	H	0.387546	0.222010	0.028586
H566	H	0.720880	0.555343	0.361919
H567	H	1.054213	0.888677	0.695252
H568	H	0.370004	0.204523	-0.047162
H569	H	0.703337	0.537856	0.286172
H570	H	1.036671	0.871189	0.619505
O571	O	-0.036638	-0.070388	0.000027
O572	O	0.296696	0.262945	0.333360
O573	O	0.630029	0.596278	0.666694
C574	C	-0.020625	-0.097083	-0.050920
C575	C	0.312708	0.236251	0.282413
C576	C	0.646042	0.569584	0.615746
H577	H	0.014246	-0.084175	-0.067915
H578	H	0.347579	0.249159	0.265418
H579	H	0.680912	0.582492	0.598751
H580	H	-0.013327	-0.137387	-0.039450
H581	H	0.320006	0.195946	0.293883
H582	H	0.653339	0.529279	0.627217
H583	H	-0.049844	-0.091272	-0.086592
H584	H	0.283489	0.242062	0.246741
H585	H	0.616822	0.575395	0.580075
H586	H	-0.271687	-0.021674	0.000082
H587	H	0.061646	0.311659	0.333415
H588	H	0.394980	0.644992	0.666748
O589	O	0.635725	-0.003351	0.154100
O590	O	0.969058	0.329983	0.487433
O591	O	1.302392	0.663316	0.820766
C592	C	0.628588	0.003709	0.092810
C593	C	0.961922	0.337043	0.426143
C594	C	1.295255	0.670376	0.759477
H595	H	0.610311	0.042291	0.084330
H596	H	0.943644	0.375624	0.417663
H597	H	1.276977	0.708957	0.750997
H598	H	0.665215	-0.002020	0.069239
H599	H	0.998548	0.331314	0.402572
H600	H	1.331882	0.664647	0.735906
H601	H	0.604469	-0.023434	0.075301
H602	H	0.937802	0.309900	0.408635
H603	H	1.271136	0.643233	0.741968
H604	H	0.510436	0.121949	0.271414
H605	H	0.843769	0.455283	0.604747
H606	H	1.177103	0.788616	0.938081
O607	O	0.078452	0.193180	0.000014
O608	O	0.411785	0.526513	0.333347
O609	O	0.745119	0.859847	0.666681
C610	C	0.106150	0.232414	0.000020
C611	C	0.439484	0.565748	0.333353
C612	C	0.772817	0.899081	0.666686
H613	H	0.143872	0.219846	-0.018597
H614	H	0.477205	0.553179	0.314736
H615	H	0.810539	0.886512	0.648070
H616	H	0.087338	0.263093	-0.028550
H617	H	0.420671	0.596426	0.304784
H618	H	0.754004	0.929760	0.638117
H619	H	0.109639	0.246030	0.047209
H620	H	0.442972	0.579364	0.380542
H621	H	0.776305	0.912697	0.713875
H622	H	0.510471	0.121921	0.841054
H623	H	0.843804	0.455255	1.174387
H624	H	1.177137	0.788588	1.507720
O625	O	-0.298760	0.145116	0.000087
O626	O	0.034573	0.478450	0.333420
O627	O	0.367906	0.811783	0.666754
C628	C	-0.347355	0.135150	0.000073
C629	C	-0.014022	0.468484	0.333407
C630	C	0.319311	0.801817	0.666740
H631	H	-0.349006	0.097197	0.018698
H632	H	-0.015673	0.430530	0.352032
H633	H	0.317661	0.763864	0.685365
H634	H	-0.370407	0.163104	0.028631
H635	H	-0.037073	0.496438	0.361965
H636	H	0.296260	0.829771	0.695298
H637	H	-0.361949	0.137091	-0.047119
H638	H	-0.028615	0.470424	0.286214
H639	H	0.304718	0.803758	0.619547
O640	O	0.505237	0.127170	0.723958
O641	O	0.838570	0.460503	1.057291
O642	O	1.171903	0.793837	1.390624
C643	C	0.476008	0.156370	0.764573
C644	C	0.809341	0.489704	1.097906
C645	C	1.142674	0.823037	1.431240
H646	H	0.495828	0.156773	0.808706
H647	H	0.829161	0.490106	1.142039
H648	H	1.162494	0.823439	1.475373
H649	H	0.468343	0.195028	0.746690
H650	H	0.801676	0.528361	1.080024
H651	H	1.135010	0.861695	1.413357
H652	H	0.440218	0.140923	0.771165
H653	H	0.773552	0.474256	1.104498
H654	H	1.106885	0.807590	1.437831
O655	O	0.340296	-0.022361	0.000143
O656	O	0.673629	0.310972	0.333476
O657	O	1.006962	0.644305	0.666809
C658	C	0.311512	-0.025297	0.051103
C659	C	0.644846	0.308037	0.384436
C660	C	0.978179	0.641370	0.717770
H661	H	0.298675	0.012900	0.068082
H662	H	0.632008	0.346233	0.401415
H663	H	0.965342	0.679566	0.734748
H664	H	0.278637	-0.044317	0.039656
H665	H	0.611971	0.289016	0.372990
H666	H	0.945304	0.622349	0.706323
H667	H	0.333949	-0.046845	0.086778
H668	H	0.667283	0.286488	0.420111
H669	H	1.000616	0.619821	0.753445
H670	H	0.694282	-0.485125	0.000063
H671	H	1.027615	-0.151791	0.333396
H672	H	1.360949	0.181542	0.666730
O673	O	0.213861	-0.067857	0.000077
O674	O	0.547194	0.265476	0.333410
O675	O	0.880527	0.598809	0.666744
C676	C	0.186168	-0.107096	0.000103
C677	C	0.519502	0.226237	0.333436
C678	C	0.852835	0.559570	0.666769
H679	H	0.148448	-0.094539	-0.018519
H680	H	0.481781	0.238794	0.314814
H681	H	0.815114	0.572128	0.648147
H682	H	0.204988	-0.137782	-0.028452
H683	H	0.538321	0.195551	0.304881
H684	H	0.871655	0.528885	0.638214
H685	H	0.182677	-0.120698	0.047298
H686	H	0.516011	0.212635	0.380632
H687	H	0.849344	0.545968	0.713965
H688	H	0.446777	-0.391080	0.000013
H689	H	0.780111	-0.057747	0.333346
H690	H	1.113444	0.275586	0.666680
O691	O	0.487302	-0.068828	0.000037
O692	O	0.820636	0.264505	0.333371
O693	O	1.153969	0.597838	0.666704
C694	C	0.497268	-0.020233	0.000056
C695	C	0.830601	0.313100	0.333390
C696	C	1.163934	0.646434	0.666723
H697	H	0.535226	-0.018582	-0.018557
H698	H	0.868559	0.314751	0.314777
H699	H	1.201892	0.648084	0.648110
H700	H	0.469320	0.002817	-0.028510
H701	H	0.802654	0.336150	0.304823
H702	H	1.135987	0.669484	0.638157
H703	H	0.495315	-0.005638	0.047249
H704	H	0.828649	0.327695	0.380582
H705	H	1.161982	0.661029	0.713915
H706	H	0.447710	-0.299629	0.000016
H707	H	0.781043	0.033704	0.333349
H708	H	1.114377	0.367037	0.666683
H709	H	0.057760	-0.062462	0.000098
H710	H	0.391093	0.270872	0.333431
H711	H	0.724427	0.604205	0.666765
H712	H	0.477314	0.155016	0.443901
H713	H	0.810648	0.488349	0.777235
H714	H	1.143981	0.821683	1.110568
H715	H	0.653168	-0.187348	0.000075
H716	H	0.986501	0.145985	0.333408
H717	H	1.319835	0.479319	0.666742
O718	O	0.661101	-0.092968	0.000067
O719	O	0.994434	0.240365	0.333400
O720	O	1.327767	0.573698	0.666733
C721	C	0.699668	-0.131401	0.000083
C722	C	1.033001	0.201933	0.333416
C723	C	1.366334	0.535266	0.666749
H724	H	0.686379	-0.165552	-0.018546
H725	H	1.019713	0.167781	0.314788
H726	H	1.353046	0.501115	0.648121
H727	H	0.730649	-0.121091	-0.028472
H728	H	1.063982	0.212242	0.304862
H729	H	1.397316	0.545576	0.638195
H730	H	0.713161	-0.138637	0.047276
H731	H	1.046494	0.194696	0.380610
H732	H	1.379827	0.528030	0.713943
O733	O	0.702827	-0.330962	0.000050
O734	O	1.036160	0.002371	0.333383
O735	O	1.369494	0.335705	0.666716
C736	C	0.741390	-0.369399	0.000067
C737	C	1.074724	-0.036065	0.333401
C738	C	1.408057	0.297268	0.666734
H739	H	0.728098	-0.403549	-0.018558
H740	H	1.061431	-0.070215	0.314776
H741	H	1.394764	0.263118	0.648109
H742	H	0.772373	-0.359094	-0.028489
H743	H	1.105706	-0.025760	0.304845
H744	H	1.439039	0.307573	0.638178
H745	H	0.754884	-0.376634	0.047261
H746	H	1.088217	-0.043301	0.380595
H747	H	1.421550	0.290033	0.713928
O748	O	0.653831	-0.807281	-0.000034
O749	O	0.987165	-0.473947	0.333299
O750	O	1.320498	-0.140614	0.666632
C751	C	0.680769	-0.798673	-0.050989
C752	C	1.014102	-0.465339	0.282345
C753	C	1.347435	-0.132006	0.615678
H754	H	0.668612	-0.760336	-0.067971
H755	H	1.001946	-0.427003	0.265363
H756	H	1.335279	-0.093670	0.598696
H757	H	0.721111	-0.802521	-0.039533
H758	H	1.054445	-0.469187	0.293800
H759	H	1.387778	-0.135854	0.627134
H760	H	0.674366	-0.826200	-0.086665
H761	H	1.007699	-0.492867	0.246669
H762	H	1.341032	-0.159533	0.580002
O763	O	0.701743	-0.430305	0.000149
O764	O	1.035076	-0.096971	0.333483
O765	O	1.368409	0.236362	0.666816
C766	C	0.704086	-0.459821	0.051105
C767	C	1.037419	-0.126487	0.384438
C768	C	1.370752	0.206846	0.717771
H769	H	0.665736	-0.462097	0.068081
H770	H	0.999069	-0.128764	0.401415
H771	H	1.332402	0.204570	0.734748
H772	H	0.722390	-0.497845	0.039652
H773	H	1.055724	-0.164512	0.372985
H774	H	1.389057	0.168821	0.706319
H775	H	0.726025	-0.443388	0.086783
H776	H	1.059359	-0.110055	0.420117
H777	H	1.392692	0.223279	0.753450
O778	O	0.635824	-0.003292	0.276311
O779	O	0.969157	0.330042	0.609645
O780	O	1.302491	0.663375	0.942978
C781	C	0.665462	0.022387	0.312114
C782	C	0.998796	0.355720	0.645447
C783	C	1.332129	0.689053	0.978780
H784	H	0.645926	0.060343	0.321404
H785	H	0.979259	0.393676	0.654738
H786	H	1.312593	0.727009	0.988071
H787	H	0.673270	0.002149	0.355648
H788	H	1.006603	0.335483	0.688981
H789	H	1.339937	0.668816	1.022315
H790	H	0.701157	0.025431	0.288241
H791	H	1.034490	0.358765	0.621574
H792	H	1.367823	0.692098	0.954907
H793	H	0.647846	-0.710950	0.000056
H794	H	0.981179	-0.377617	0.333389
H795	H	1.314513	-0.044283	0.666723
H796	H	0.486964	-0.780325	0.000033
H797	H	0.820297	-0.446992	0.333366
H798	H	1.153631	-0.113659	0.666699
H799	H	0.487892	-0.688875	0.000024
H800	H	0.821225	-0.355542	0.333357
H801	H	1.154558	-0.022208	0.666690
H802	H	0.493213	-0.165279	0.000072
H803	H	0.826546	0.168055	0.333405
H804	H	1.159879	0.501388	0.666739
H805	H	0.446177	-0.450879	0.000021
H806	H	0.779510	-0.117545	0.333355
H807	H	1.112844	0.215788	0.666688
O808	O	0.700222	-0.581520	-0.000053
O809	O	1.033555	-0.248187	0.333281
O810	O	1.366888	0.085147	0.666614
C811	C	0.702557	-0.611050	-0.050995
C812	C	1.035890	-0.277717	0.282339
C813	C	1.369223	0.055617	0.615672
H814	H	0.677702	-0.592398	-0.086603
H815	H	1.011036	-0.259064	0.246730
H816	H	1.344369	0.074269	0.580064
H817	H	0.741538	-0.617009	-0.068093
H818	H	1.074871	-0.283676	0.265240
H819	H	1.408205	0.049658	0.598573
H820	H	0.690318	-0.647622	-0.039481
H821	H	1.023652	-0.314288	0.293852
H822	H	1.356985	0.019045	0.627185
