data_functionalizedCrystal
_audit_creation_method	'MofGen! by Chris Wilmer'
_symmetry_space_group_name_H-M	'P1'
_symmetry_Int_Tables_number	1
_symmetry_cell_setting	triclinic
loop_
_symmetry_equiv_pos_as_xyz
  x,y,z
_cell_length_a	23.532356
_cell_length_b	23.532407
_cell_length_c	12.376457
_cell_angle_alpha	78.781502
_cell_angle_beta	78.790078
_cell_angle_gamma	97.161748
loop_
_atom_site_label
_atom_site_type_symbol
_atom_site_fract_x
_atom_site_fract_y
_atom_site_fract_z
O1	O	-0.058169	0.766222	-0.093916
O2	O	-0.068171	0.600359	-0.093931
O3	O	0.019766	0.688309	-0.093939
O4	O	-0.146105	0.678272	-0.093908
O5	O	-0.002189	0.666329	0.094075
O6	O	-0.090125	0.578379	0.094083
O7	O	-0.080123	0.744243	0.094098
Zn8	Zn	-0.088610	0.657821	0.123942
Zn9	Zn	-0.059684	0.686780	-0.123775
O10	O	-0.168060	0.656292	0.094106
C11	C	-0.078893	0.568153	0.000073
C12	C	-0.078126	0.504937	0.000067
C13	C	-0.022932	0.238777	0.000087
C14	C	-0.023643	0.298178	0.000087
O15	O	0.020140	0.334927	0.000118
N16	N	-0.075921	0.320794	0.000089
C17	C	-0.127492	0.284005	0.000103
O18	O	-0.172024	0.308696	0.000106
C19	C	-0.126781	0.224605	0.000111
C20	C	-0.074498	0.201994	0.000097
C21	C	0.029346	0.216165	0.000075
C22	C	0.030058	0.156769	0.000073
C23	C	-0.021509	0.119986	0.000083
C24	C	-0.073787	0.142598	0.000095
C25	C	-0.178353	0.187817	0.000133
C26	C	-0.177637	0.128413	0.000142
C27	C	-0.125354	0.105802	0.000128
C28	C	-0.124642	0.046419	0.000104
N29	N	-0.072365	0.023802	0.000102
C30	C	-0.020798	0.060586	0.000091
C31	C	-0.128982	0.408749	0.000087
C32	C	-0.129693	0.468149	0.000071
C33	C	-0.025844	0.482317	0.000057
C34	C	-0.025132	0.422917	0.000065
C35	C	-0.076704	0.386133	0.000085
C36	C	-0.019307	-0.064150	0.000086
C37	C	-0.018600	-0.123551	0.000080
C38	C	-0.122449	-0.137715	0.000099
C39	C	-0.123156	-0.078318	0.000100
C40	C	-0.071581	-0.041537	0.000097
O41	O	-0.168403	0.009635	0.000078
O42	O	0.023725	0.035885	0.000103
C43	C	-0.178300	0.667532	0.000103
C44	C	-0.241520	0.668285	0.000115
C45	C	-0.621560	0.685010	-0.102426
C46	C	-0.680959	0.685728	-0.102431
O47	O	-0.701500	0.696308	-0.189592
N48	N	-0.722634	0.674103	0.000054
C49	C	-0.704908	0.661765	0.102552
O50	O	-0.745811	0.651943	0.189723
C51	C	-0.645510	0.661051	0.102556
C52	C	-0.603837	0.672671	0.000064
C53	C	-0.579888	0.696630	-0.204910
C54	C	-0.520494	0.695911	-0.204904
C55	C	-0.502771	0.683572	-0.102414
C56	C	-0.544443	0.671952	0.000070
C57	C	-0.627784	0.648717	0.205053
C58	C	-0.568380	0.648004	0.205048
C59	C	-0.526708	0.659625	0.102556
C60	C	-0.467326	0.658894	0.102565
N61	N	-0.425650	0.670519	0.000080
C62	C	-0.443373	0.682858	-0.102410
C63	C	-0.829648	0.663266	0.102535
C64	C	-0.889046	0.663975	0.102532
C65	C	-0.865092	0.687940	-0.102452
C66	C	-0.805694	0.687226	-0.102447
C67	C	-0.787972	0.674891	0.000050
C68	C	-0.318641	0.681347	-0.102390
C69	C	-0.259242	0.680624	-0.102375
C70	C	-0.283201	0.656663	0.102608
C71	C	-0.342595	0.657382	0.102594
C72	C	-0.360312	0.669727	0.000086
O73	O	-0.446741	0.648321	0.189681
O74	O	-0.402463	0.692686	-0.189567
C75	C	0.030006	0.677069	0.000061
C76	C	0.093227	0.676317	0.000042
C77	C	-0.069401	0.776448	0.000091
C78	C	-0.070167	0.839665	0.000090
N79	N	-0.108351	0.638061	0.293002
N80	N	-0.039939	0.706544	-0.292835
C81	C	0.005897	0.752413	0.647976
C82	C	0.019713	0.766240	0.529635
C83	C	-0.012301	0.734196	0.470471
C84	C	-0.058135	0.688324	0.529660
C85	C	-0.071956	0.674499	0.648012
C86	C	-0.090154	0.656282	0.470507
C87	C	-0.135988	0.610410	0.529695
C88	C	-0.149806	0.596587	0.648037
C89	C	-0.117792	0.628630	0.707201
C90	C	-0.076333	0.670107	0.352154
C91	C	-0.154186	0.592193	0.352190
C92	C	-0.168003	0.578366	0.470531
H93	H	0.016145	0.512277	0.000049
C94	C	-0.338122	0.694921	-0.215146
H95	H	-0.304792	0.701733	-0.276173
H96	H	-0.356260	0.728915	-0.219421
H97	H	-0.365329	0.662479	-0.219412
C98	C	-0.235866	0.212675	0.000164
H99	H	-0.266472	0.182251	0.000189
H100	H	-0.230660	0.243215	-0.065395
H101	H	-0.245957	0.227884	0.065743
H102	H	-0.922973	0.654502	0.185992
C103	C	-0.187202	0.493017	0.000074
H104	H	-0.217809	0.462597	0.000088
H105	H	-0.181986	0.523557	-0.065488
H106	H	-0.197297	0.508227	0.065650
H107	H	0.031956	0.778502	0.696155
C108	C	-0.132991	0.613424	0.837377
H109	H	-0.107360	0.639080	0.864130
H110	H	-0.128509	0.573943	0.864160
H111	H	-0.172482	0.617880	0.864152
H112	H	-0.165729	-0.059907	0.000110
C113	C	-0.200231	0.546138	0.713141
H114	H	-0.217317	0.529032	0.660960
H115	H	-0.229224	0.561096	0.759301
H116	H	-0.185255	0.517155	0.759316
H117	H	-0.205322	0.541016	0.518737
H118	H	-0.376530	0.647897	0.186051
C119	C	-0.673610	0.635942	0.317796
H120	H	-0.654538	0.628501	0.378826
H121	H	-0.701819	0.602508	0.322078
H122	H	-0.692739	0.668947	0.322052
H123	H	-0.219634	0.098465	0.000163
C124	C	0.038912	-0.148421	0.000072
H125	H	0.069519	-0.118005	0.000078
H126	H	0.049008	-0.163635	-0.065492
H127	H	0.033691	-0.178961	0.065645
C128	C	0.037426	-0.023697	0.000067
H129	H	0.068660	-0.045677	0.000047
H130	H	0.031661	-0.007890	0.065626
H131	H	0.046963	0.007429	-0.065511
C132	C	0.087567	0.131902	0.000079
H133	H	0.118170	0.162321	0.000086
H134	H	0.097668	0.116684	-0.065480
H135	H	0.082344	0.101365	0.065658
H136	H	-0.268760	0.646614	0.186053
C137	C	-0.213404	0.693415	-0.215121
H138	H	-0.232469	0.700873	-0.276158
H139	H	-0.194267	0.660420	-0.219394
H140	H	-0.185203	0.726853	-0.219371
H141	H	-0.594309	0.706681	-0.288374
C142	C	-0.474661	0.708696	-0.317646
H143	H	-0.493730	0.716150	-0.378678
H144	H	-0.455525	0.675700	-0.321916
H145	H	-0.446457	0.742135	-0.321911
C146	C	-0.189407	0.556945	0.287122
H147	H	-0.174609	0.571745	0.208163
H148	H	-0.229651	0.560641	0.306521
H149	H	-0.185679	0.516705	0.306523
H150	H	-0.815225	0.653215	0.186006
H151	H	0.071340	0.246109	0.000070
H152	H	-0.553956	0.637960	0.288516
H153	H	-0.170979	0.378803	0.000095
C154	C	0.032376	0.398048	0.000062
H155	H	0.062982	0.428467	0.000060
H156	H	0.042472	0.382830	-0.065497
H157	H	0.027156	0.367512	0.065641
C158	C	-0.759857	0.700023	-0.215187
H159	H	-0.778924	0.707480	-0.276222
H160	H	-0.740712	0.667034	-0.219468
H161	H	-0.731662	0.733466	-0.219435
H162	H	-0.164433	-0.167674	0.000102
H163	H	-0.879532	0.697985	-0.185905
C164	C	-0.025924	0.720564	0.287055
H165	H	-0.022280	0.724215	0.208099
H166	H	0.009794	0.712346	0.306444
H167	H	-0.034193	0.756269	0.306448
C168	C	0.070129	0.816691	0.464536
H169	H	0.087220	0.833791	0.516718
H170	H	0.055153	0.845670	0.418364
H171	H	0.099126	0.801733	0.418374
H172	H	-0.001050	0.745456	0.374112
