data_functionalizedCrystal
_audit_creation_method	'MofGen! by Chris Wilmer'
_symmetry_space_group_name_H-M	'P1'
_symmetry_Int_Tables_number	1
_symmetry_cell_setting	triclinic
loop_
_symmetry_equiv_pos_as_xyz
  x,y,z
_cell_length_a	17.038272
_cell_length_b	15.995350
_cell_length_c	15.072220
_cell_angle_alpha	89.998899
_cell_angle_beta	89.989222
_cell_angle_gamma	92.698035
loop_
_atom_site_label
_atom_site_type_symbol
_atom_site_fract_x
_atom_site_fract_y
_atom_site_fract_z
O1	O	1.037421	-0.181819	-0.073740
O2	O	0.809790	-0.178931	-0.073749
O3	O	0.929828	-0.058931	-0.073744
O4	O	0.917383	-0.301819	-0.073746
O5	O	0.929798	-0.058936	0.073822
O6	O	0.809760	-0.178936	0.073816
O7	O	1.037391	-0.181824	0.073825
Zn8	Zn	0.923571	-0.180381	0.097250
Zn9	Zn	0.923610	-0.180374	-0.097174
O10	O	0.917353	-0.301824	0.073819
C11	C	0.780646	-0.176308	0.000032
C12	C	0.693851	-0.168474	0.000028
C13	C	0.929298	-0.027702	0.000037
C14	C	0.927756	0.065359	0.000032
C15	C	1.066535	-0.184447	0.000042
C16	C	1.153330	-0.192281	0.000040
C17	C	1.203426	-0.120353	0.000038
C18	C	1.284979	-0.127719	0.000041
C19	C	1.316433	-0.207014	0.000040
C20	C	1.266330	-0.278948	0.000045
C21	C	1.184779	-0.271581	0.000048
C22	C	1.562197	-0.233041	0.000036
C23	C	1.643754	-0.240402	0.000030
C24	C	1.662398	-0.089172	0.000028
C25	C	1.580844	-0.081812	0.000026
C26	C	1.530749	-0.153746	0.000035
C27	C	1.399792	-0.214546	0.000040
C28	C	1.447391	-0.146214	0.000041
C29	C	0.917883	-0.333053	0.000037
C30	C	0.919425	-0.426114	0.000036
N31	N	0.923550	-0.180385	0.229938
C32	C	0.922217	0.403501	0.000035
C33	C	0.836728	0.362156	-0.000300
C34	C	0.838270	0.265356	0.000033
C35	C	0.924964	0.235744	0.000033
C36	C	0.967114	0.273815	0.084300
C37	C	0.964966	0.370604	0.084371
C38	C	0.966766	0.370842	-0.083438
C39	C	0.966746	0.273898	-0.084552
C40	C	0.926522	0.140936	0.000035
C41	C	0.920662	0.498309	0.000039
N42	N	0.923637	-0.180364	-0.229863
C43	C	0.923608	-0.180371	0.589140
C44	C	0.859163	-0.244335	0.551530
C45	C	0.859310	-0.244596	0.448704
C46	C	0.923579	-0.180378	0.410936
C47	C	1.005158	-0.205271	0.448230
C48	C	1.004797	-0.205732	0.551088
C49	C	0.907202	-0.091363	0.551240
C50	C	0.905331	-0.091815	0.448377
C51	C	0.923567	-0.180381	0.310222
C52	C	0.923625	-0.180370	0.689853
H53	H	1.177823	-0.055782	0.000033
Cl54	Cl	1.065448	0.245004	0.089144
Cl55	Cl	1.305873	-0.378635	0.000045
H56	H	1.555241	-0.017241	0.000027
Cl57	Cl	0.786731	0.225995	0.093449
Cl58	Cl	0.784042	0.396513	0.092201
H59	H	1.143991	-0.330154	0.000053
H60	H	0.798327	-0.228819	0.576289
H61	H	1.669361	-0.304977	0.000042
Cl62	Cl	1.064079	0.412948	-0.084316
Cl63	Cl	1.064356	0.243225	-0.092414
H64	H	1.325765	-0.069147	0.000043
H65	H	1.421777	-0.081652	0.000032
Cl66	Cl	1.439342	-0.314229	0.000029
H67	H	0.949221	-0.041536	0.422670
Cl68	Cl	0.979760	-0.017766	0.588790
H69	H	1.019254	-0.270823	0.575070
H70	H	0.845320	-0.073059	0.424002
H71	H	1.703194	-0.030608	0.000021
H72	H	1.521419	-0.291615	0.000040
Cl73	Cl	1.080971	-0.135632	0.410462
Cl74	Cl	0.765673	-0.220428	0.409773
H75	H	0.805137	0.239297	-0.060373
Cl76	Cl	1.080990	-0.136920	0.589502
Cl77	Cl	0.783987	0.394527	-0.093599
H78	H	0.935929	0.248848	-0.146891
H79	H	0.869494	-0.309888	0.577368
Cl80	Cl	0.875454	-0.346395	0.410695
Cl81	Cl	1.028015	-0.304676	0.408449
H82	H	0.934206	0.391094	0.147362
Cl83	Cl	1.061865	0.413494	0.090287
Cl84	Cl	0.921879	0.233219	0.181120
H85	H	0.938828	0.393375	-0.147308
Cl86	Cl	0.817337	-0.056648	0.591332
