data_functionalizedCrystal
_audit_creation_method	'MofGen! by Chris Wilmer'
_symmetry_space_group_name_H-M	'P1'
_symmetry_Int_Tables_number	1
_symmetry_cell_setting	triclinic
loop_
_symmetry_equiv_pos_as_xyz
  x,y,z
_cell_length_a	19.188933
_cell_length_b	18.266242
_cell_length_c	15.944551
_cell_angle_alpha	89.993922
_cell_angle_beta	96.677846
_cell_angle_gamma	90.007525
loop_
_atom_site_label
_atom_site_type_symbol
_atom_site_fract_x
_atom_site_fract_y
_atom_site_fract_z
O1	O	0.926420	0.060858	-0.104873
O2	O	1.426420	0.560858	0.395127
O3	O	0.723145	0.060865	-0.118989
O4	O	1.223145	0.560865	0.381011
O5	O	0.830333	0.060855	0.010365
O6	O	1.330333	0.560855	0.510365
O7	O	0.819231	0.060868	-0.234227
O8	O	1.319231	0.560868	0.265773
O9	O	0.830315	-0.060907	0.010368
O10	O	1.330315	0.439093	0.510368
O11	O	0.723127	-0.060897	-0.118985
O12	O	1.223127	0.439103	0.381015
O13	O	0.926401	-0.060904	-0.104870
O14	O	1.426401	0.439096	0.395130
Zn15	Zn	0.824761	-0.080233	-0.111927
Zn16	Zn	1.324761	0.419767	0.388073
Zn17	Zn	0.824785	0.080194	-0.111932
Zn18	Zn	1.324785	0.580194	0.388068
O19	O	0.819213	-0.060894	-0.234223
O20	O	1.319213	0.439106	0.265777
C21	C	0.697124	-0.000015	-0.118529
C22	C	1.197124	0.499985	0.381471
C23	C	0.619616	-0.000013	-0.117156
C24	C	1.119616	0.499987	0.382844
N25	N	0.824750	-0.189720	-0.111923
N26	N	1.324750	0.310280	0.388077
C27	C	0.066345	0.066351	-0.107359
C28	C	0.566345	0.566351	0.392641
C29	C	0.139172	0.066354	-0.108644
C30	C	0.639172	0.566354	0.391356
C31	C	0.175581	-0.000018	-0.109289
C32	C	0.675581	0.499982	0.390711
C33	C	0.139159	-0.066398	-0.108627
C34	C	0.639159	0.433602	0.391373
C35	C	0.066333	-0.066399	-0.107333
C36	C	0.566333	0.433601	0.392667
N37	N	0.284722	-0.049419	-0.159115
N38	N	0.784722	0.450581	0.340885
N39	N	0.353903	-0.049413	-0.160346
N40	N	0.853903	0.450587	0.339654
C41	C	0.395000	-0.000019	-0.113184
C42	C	0.895000	0.499981	0.386816
N43	N	0.364301	0.049381	-0.064756
N44	N	0.864301	0.549381	0.435244
N45	N	0.295113	0.049378	-0.063529
N46	N	0.795113	0.549378	0.436471
C47	C	0.254548	-0.000024	-0.110691
C48	C	0.754548	0.499976	0.389309
C49	C	0.510382	0.066360	-0.115234
C50	C	1.010382	0.566360	0.384766
C51	C	0.583212	0.066360	-0.116513
C52	C	1.083212	0.566360	0.383487
C53	C	0.583196	-0.066394	-0.116504
C54	C	1.083196	0.433606	0.383496
C55	C	0.510368	-0.066392	-0.115216
C56	C	1.010368	0.433608	0.384784
C57	C	0.473966	-0.000013	-0.114585
C58	C	0.973966	0.499987	0.385415
C59	C	0.867090	-0.228021	-0.162746
C60	C	1.367090	0.271979	0.337254
C61	C	0.867102	-0.304666	-0.162744
C62	C	1.367102	0.195334	0.337256
C63	C	0.824760	-0.343007	-0.111928
C64	C	1.324760	0.156993	0.388072
C65	C	0.782417	-0.304696	-0.061095
C66	C	1.282417	0.195304	0.438905
C67	C	0.782412	-0.228053	-0.061092
C68	C	1.282412	0.271947	0.438908
N69	N	0.763607	-0.463357	-0.109858
N70	N	1.263607	0.036643	0.390142
N71	N	0.763613	-0.536165	-0.109866
N72	N	1.263613	-0.036165	0.390134
C73	C	0.824774	-0.573929	-0.111931
C74	C	1.324774	-0.073929	0.388069
N75	N	0.885928	-0.536134	-0.114006
N76	N	1.385928	-0.036134	0.385994
N77	N	0.885920	-0.463319	-0.114003
N78	N	1.385920	0.036681	0.385997
C79	C	0.824761	-0.426114	-0.111925
C80	C	1.324761	0.073886	0.388075
C81	C	0.867130	-0.695337	-0.162755
C82	C	1.367130	-0.195337	0.337245
C83	C	0.867143	-0.771984	-0.162746
C84	C	1.367143	-0.271984	0.337254
C85	C	0.782452	-0.772012	-0.061102
C86	C	1.282452	-0.272012	0.438898
C87	C	0.782445	-0.695368	-0.061105
C88	C	1.282445	-0.195368	0.438895
C89	C	0.824783	-0.657035	-0.111936
C90	C	1.324783	-0.157035	0.388064
C91	C	0.952423	-0.000022	-0.105329
C92	C	1.452423	0.499978	0.394671
C93	C	1.029931	-0.000020	-0.106702
C94	C	1.529931	0.499980	0.393298
C95	C	0.829863	-0.000026	0.041659
C96	C	1.329863	0.499974	0.541659
C97	C	0.828481	-0.000027	0.134899
C98	C	1.328481	0.499973	0.634899
N99	N	0.824802	0.189681	-0.111929
N100	N	1.324802	0.689681	0.388071
C101	C	0.819683	-0.000011	-0.265517
C102	C	1.319683	0.499989	0.234483
C103	C	0.821065	-0.000006	-0.358758
C104	C	1.321065	0.499994	0.141242
C105	C	0.758738	-0.000014	0.349496
C106	C	1.258738	0.499986	0.849496
C107	C	0.791116	-0.060051	0.410636
C108	C	1.291116	0.439949	0.910636
C109	C	0.825982	-0.000021	0.305616
C110	C	1.325982	0.499979	0.805616
C111	C	0.791150	0.059996	0.410616
C112	C	1.291150	0.559996	0.910616
C113	C	0.823562	-0.000012	0.470520
C114	C	1.323562	0.499988	0.970520
C115	C	0.858378	-0.060108	0.365528
C116	C	1.358378	0.439892	0.865528
C117	C	0.858402	0.059994	0.365501
C118	C	1.358402	0.559994	0.865501
C119	C	0.890828	-0.000058	0.426624
C120	C	1.390828	0.499942	0.926624
C121	C	0.827374	-0.000027	0.210619
C122	C	1.327374	0.499973	0.710619
C123	C	0.822176	-0.000012	0.565516
C124	C	1.322176	0.499988	1.065516
H125	H	0.036711	0.120403	-0.106842
H126	H	0.536711	0.620403	0.393158
C127	C	0.735879	-0.814174	-0.005199
C128	C	1.235879	-0.314174	0.494801
H129	H	0.710663	-0.780383	0.025074
H130	H	1.210663	-0.280383	0.525074
H131	H	0.703750	-0.844079	-0.039711
H132	H	1.203750	-0.344079	0.460289
H133	H	0.764499	-0.844067	0.033546
H134	H	1.264499	-0.344067	0.533546
H135	H	0.480719	-0.120439	-0.114684
H136	H	0.980719	0.379561	0.385316
H137	H	0.168826	0.120404	-0.109184
H138	H	0.668826	0.620404	0.390816
H139	H	0.946692	-0.000094	0.459991
H140	H	1.446692	0.499906	0.959991
C141	C	0.913666	-0.185859	-0.218651
C142	C	1.413666	0.314141	0.281349
H143	H	0.938889	-0.219651	-0.248914
H144	H	1.438889	0.280349	0.251086
H145	H	0.885056	-0.155959	-0.257391
H146	H	1.385056	0.344041	0.242609
H147	H	0.945800	-0.155961	-0.184128
H148	H	1.445800	0.344039	0.315872
C149	C	0.179204	-0.139405	-0.109339
C150	C	0.679204	0.360595	0.390661
H151	H	0.227792	-0.129899	-0.110213
H152	H	0.727792	0.370101	0.389787
H153	H	0.172592	-0.166680	-0.060154
H154	H	0.672592	0.333320	0.439846
H155	H	0.161941	-0.166674	-0.158102
H156	H	0.661941	0.333326	0.341898
H157	H	0.901605	-0.664125	-0.204144
H158	H	1.401605	-0.164125	0.295856
H159	H	0.612839	-0.120435	-0.117026
H160	H	1.112839	0.379565	0.382974
H161	H	0.747964	-0.664182	-0.019723
H162	H	1.247964	-0.164182	0.480277
C163	C	0.735819	-0.185916	-0.005206
C164	C	1.235819	0.314084	0.494794
H165	H	0.741878	-0.134780	-0.012486
H166	H	1.241878	0.365220	0.487514
H167	H	0.688055	-0.198494	-0.020966
H168	H	1.188055	0.301506	0.479034
H169	H	0.748786	-0.198471	0.052313
H170	H	1.248786	0.301529	0.552313
C171	C	0.896751	-0.128754	0.338674
C172	C	1.396751	0.371246	0.838674
H173	H	0.897369	-0.128352	0.279183
H174	H	1.397369	0.371648	0.779183
H175	H	0.943531	-0.128933	0.365778
H176	H	1.443531	0.371067	0.865778
H177	H	0.873010	-0.171333	0.354481
H178	H	1.373010	0.328667	0.854481
C179	C	0.683342	-0.000090	0.304212
C180	C	1.183342	0.499910	0.804212
H181	H	0.659556	-0.042800	0.319547
H182	H	1.159556	0.457200	0.819547
H183	H	0.659220	0.042126	0.320292
H184	H	1.159220	0.542126	0.820292
H185	H	0.684738	0.000340	0.244851
H186	H	1.184738	0.500340	0.744851
C187	C	0.913671	-0.346806	-0.218660
C188	C	1.413671	0.153194	0.281340
H189	H	0.938881	-0.312999	-0.248937
H190	H	1.438881	0.187001	0.251063
H191	H	0.945806	-0.376707	-0.184153
H192	H	1.445806	0.123293	0.315847
H193	H	0.885049	-0.376701	-0.257402
H194	H	1.385049	0.123299	0.242598
H195	H	0.747942	-0.335918	-0.019719
H196	H	1.247942	0.164082	0.480281
C197	C	0.470336	0.139372	-0.114543
C198	C	0.970336	0.639372	0.385457
H199	H	0.502457	0.178903	-0.115110
H200	H	1.002457	0.678903	0.384890
H201	H	0.436609	0.142126	-0.163015
H202	H	0.936609	0.642126	0.336985
H203	H	0.447245	0.142136	-0.065067
H204	H	0.947245	0.642136	0.434933
C205	C	0.913720	-0.814115	-0.218655
C206	C	1.413720	-0.314115	0.281345
H207	H	0.938927	-0.780306	-0.248931
H208	H	1.438927	-0.280306	0.251069
H209	H	0.945857	-0.844010	-0.184144
H210	H	1.445857	-0.344010	0.315856
H211	H	0.885105	-0.844016	-0.257398
H212	H	1.385105	-0.344016	0.242602
C213	C	0.752687	-0.128614	0.437665
C214	C	1.252687	0.371386	0.937665
H215	H	0.705764	-0.128541	0.410989
H216	H	1.205764	0.371459	0.910989
H217	H	0.776116	-0.171247	0.421471
H218	H	1.276116	0.328753	0.921471
H219	H	0.752459	-0.128342	0.497213
H220	H	1.252459	0.371658	0.997213
H221	H	0.886826	0.110751	0.345476
H222	H	1.386826	0.610751	0.845476
H223	H	0.762707	0.110757	0.430585
H224	H	1.262707	0.610757	0.930585
C225	C	0.623271	0.139371	-0.117241
C226	C	1.123271	0.639371	0.382759
H227	H	0.671858	0.129866	-0.118094
H228	H	1.171858	0.629866	0.381906
H229	H	0.606015	0.166637	-0.166007
H230	H	1.106015	0.666637	0.333993
H231	H	0.616661	0.166647	-0.068059
H232	H	1.116661	0.666647	0.431941
C233	C	0.026252	-0.139408	-0.106800
C234	C	0.526252	0.360592	0.393200
H235	H	-0.022339	-0.129902	-0.105991
H236	H	0.477661	0.370098	0.394009
H237	H	0.032913	-0.166578	-0.156036
H238	H	0.532913	0.333422	0.343964
H239	H	0.043442	-0.166782	-0.058086
H240	H	0.543442	0.333218	0.441914
