data_functionalizedCrystal
_audit_creation_method	'MofGen! by Chris Wilmer'
_symmetry_space_group_name_H-M	'P1'
_symmetry_Int_Tables_number	1
_symmetry_cell_setting	triclinic
loop_
_symmetry_equiv_pos_as_xyz
  x,y,z
_cell_length_a	12.837943
_cell_length_b	12.784905
_cell_length_c	11.295483
_cell_angle_alpha	93.662891
_cell_angle_beta	85.461227
_cell_angle_gamma	83.968130
loop_
_atom_site_label
_atom_site_type_symbol
_atom_site_fract_x
_atom_site_fract_y
_atom_site_fract_z
O1	O	1.358329	0.267425	-0.098997
O2	O	1.057743	0.253898	-0.099004
O3	O	1.230032	0.108162	-0.098997
O4	O	1.186040	0.413161	-0.099004
O5	O	1.214902	0.120941	0.099054
O6	O	1.042613	0.266677	0.099046
O7	O	1.343199	0.280203	0.099053
Cu8	Cu	1.191524	0.274607	0.117133
Cu9	Cu	1.209418	0.259495	-0.117084
O10	O	1.170910	0.425939	0.099046
C11	C	1.011969	0.255718	0.000020
C12	C	0.898121	0.242090	0.000017
C13	C	0.642394	0.405922	0.000030
C14	C	0.535422	0.393123	0.000028
C15	C	0.577202	0.203692	0.000020
C16	C	0.684174	0.216492	0.000022
C17	C	0.716766	0.317610	0.000025
C18	C	0.823740	0.330408	0.000018
C19	C	0.865518	0.140980	0.000019
C20	C	0.758546	0.128180	0.000017
C21	C	1.225328	0.075242	0.000027
C22	C	1.233841	-0.041890	0.000022
C23	C	1.060398	-0.255841	0.000030
C24	C	1.068392	-0.365896	0.000025
C25	C	1.257822	-0.372059	0.000017
C26	C	1.249828	-0.262003	0.000021
C27	C	1.151113	-0.203898	0.000026
C28	C	1.143120	-0.093841	0.000022
C29	C	1.332549	-0.100004	0.000022
C30	C	1.340543	-0.210060	0.000018
C31	C	1.388973	0.278383	0.000027
C32	C	1.502822	0.292011	0.000022
C33	C	1.175614	0.458860	0.000020
C34	C	1.167101	0.575991	0.000017
N35	N	1.178946	0.285236	0.281869
N36	N	1.222004	0.248858	-0.281820
C37	C	1.312552	0.172285	0.531164
C38	C	1.303054	0.180326	0.655828
C39	C	1.150447	0.309352	0.655861
C40	C	1.159945	0.301311	0.531198
C41	C	1.241002	0.232777	0.468854
C42	C	1.250504	0.224742	0.344188
C43	C	1.097894	0.353762	0.344224
C44	C	1.088395	0.361802	0.468887
H45	H	0.550639	0.121373	0.000116
H46	H	0.850274	0.412744	0.000023
O47	O	1.329143	0.157998	0.283704
C48	C	1.319500	0.054017	0.314233
H49	H	1.234686	0.047371	0.348503
H50	H	1.373684	0.033555	0.386607
C51	C	1.454513	-0.014785	0.161429
C52	C	1.350341	-0.022950	0.203511
H53	H	1.473541	-0.062263	0.093134
H54	H	1.461013	0.055269	0.140864
H55	H	1.499653	-0.031835	0.221752
H56	H	1.305202	-0.005888	0.143195
H57	H	1.343834	-0.093003	0.224064
H58	H	1.084447	0.365143	0.706638
O59	O	1.391322	0.105634	0.470781
C60	C	1.452461	0.053991	0.552512
H61	H	1.403687	0.054239	0.641387
H62	H	1.524668	0.096823	0.565751
C63	C	1.547496	-0.060920	0.394692
C64	C	1.487588	-0.060623	0.503847
H65	H	1.569168	-0.131618	0.364672
H66	H	1.506308	-0.026125	0.339627
H67	H	1.607661	-0.025222	0.405739
H68	H	1.427418	-0.096309	0.492795
H69	H	1.528766	-0.095427	0.558909
H70	H	1.338190	-0.419386	0.000027
O71	O	1.436421	-0.266568	-0.000200
C72	C	1.454527	-0.337046	-0.102759
H73	H	1.403840	-0.306754	-0.174444
H74	H	1.433368	-0.418132	-0.079567
C75	C	1.633608	-0.382626	-0.061235
C76	C	1.571360	-0.345415	-0.149285
H77	H	1.705677	-0.387793	-0.089933
H78	H	1.621410	-0.335147	0.007863
H79	H	1.615964	-0.450193	-0.041917
H80	H	1.588996	-0.277844	-0.168591
H81	H	1.583564	-0.392883	-0.218387
O82	O	1.372579	0.121723	0.716486
C83	C	1.425392	0.189232	0.788559
H84	H	1.375632	0.268692	0.807248
H85	H	1.504321	0.201017	0.740494
C86	C	1.504793	0.042121	0.884014
C87	C	1.443673	0.139713	0.906977
H88	H	1.516075	0.011574	0.957058
H89	H	1.469216	-0.003362	0.835455
H90	H	1.570561	0.051955	0.843957
H91	H	1.377902	0.129875	0.947019
H92	H	1.479239	0.185193	0.955546
O93	O	1.009624	0.428233	0.529587
C94	C	0.945827	0.370021	0.601687
H95	H	0.992739	0.292967	0.620349
H96	H	0.874216	0.352043	0.553661
C97	C	0.851884	0.529445	0.697193
C98	C	0.909506	0.434809	0.720122
H99	H	0.829475	0.569410	0.770247
H100	H	0.894862	0.568664	0.648615
H101	H	0.792216	0.514450	0.657169
H102	H	0.969179	0.449806	0.760132
H103	H	0.866537	0.395594	0.768710
O104	O	0.964554	-0.199358	-0.000184
C105	C	0.962112	-0.142105	-0.102738
H106	H	1.023745	-0.181645	-0.174429
H107	H	0.979732	-0.058030	-0.079543
C108	C	0.776690	-0.091164	-0.061203
C109	C	0.852382	-0.139732	-0.149258
H110	H	0.709003	-0.089695	-0.089897
H111	H	0.778334	-0.129732	0.007892
H112	H	0.791386	-0.021106	-0.041882
H113	H	0.837693	-0.209792	-0.168567
H114	H	0.850733	-0.101175	-0.218359
H115	H	0.474871	0.465036	0.000035
O116	O	1.028532	0.412583	0.283568
C117	C	1.083183	0.478535	0.211478
H118	H	1.168761	0.443557	0.192780
H119	H	1.079491	0.560185	0.259533
C120	C	0.927158	0.530495	0.116041
C121	C	1.032264	0.487528	0.093067
H122	H	0.895747	0.536047	0.043001
H123	H	0.890336	0.486065	0.164612
H124	H	0.924096	0.598531	0.156089
H125	H	1.035324	0.419488	0.053034
H126	H	1.069085	0.531947	0.044487
H127	H	0.668930	0.488257	0.000031
H128	H	0.731993	0.045853	0.000028
H129	H	0.926085	0.069069	0.000007
H130	H	1.062741	-0.046533	0.000023
H131	H	0.994522	-0.408183	0.000034
H132	H	1.406424	-0.057708	-0.000085
