data_functionalizedCrystal
_audit_creation_method	'MofGen! by Chris Wilmer'
_symmetry_space_group_name_H-M	'P1'
_symmetry_Int_Tables_number	1
_symmetry_cell_setting	triclinic
loop_
_symmetry_equiv_pos_as_xyz
  x,y,z
_cell_length_a	19.188933
_cell_length_b	14.971486
_cell_length_c	18.266242
_cell_angle_alpha	90.005330
_cell_angle_beta	89.992475
_cell_angle_gamma	96.620151
loop_
_atom_site_label
_atom_site_type_symbol
_atom_site_fract_x
_atom_site_fract_y
_atom_site_fract_z
O1	O	0.926508	-0.111677	-0.060857
O2	O	1.176508	0.138323	0.189143
O3	O	1.426508	0.388323	0.439143
O4	O	1.676508	0.638323	0.689143
O5	O	0.723245	-0.126707	-0.060864
O6	O	0.973245	0.123293	0.189136
O7	O	1.223245	0.373293	0.439136
O8	O	1.473245	0.623293	0.689136
O9	O	0.830324	0.011037	-0.060855
O10	O	1.080324	0.261037	0.189145
O11	O	1.330324	0.511037	0.439145
O12	O	1.580324	0.761037	0.689145
O13	O	0.819429	-0.249421	-0.060866
O14	O	1.069429	0.000579	0.189134
O15	O	1.319429	0.250579	0.439134
O16	O	1.569429	0.500579	0.689134
O17	O	0.830306	0.011041	0.060907
O18	O	1.080306	0.261041	0.310907
O19	O	1.330306	0.511041	0.560907
O20	O	1.580306	0.761041	0.810907
O21	O	0.723227	-0.126703	0.060898
O22	O	0.973227	0.123297	0.310898
O23	O	1.223227	0.373297	0.560898
O24	O	1.473227	0.623297	0.810898
O25	O	0.926490	-0.111673	0.060905
O26	O	1.176490	0.138327	0.310905
O27	O	1.426490	0.388327	0.560905
O28	O	1.676490	0.638327	0.810905
Zn29	Zn	0.824855	-0.119187	0.080234
Zn30	Zn	1.074855	0.130813	0.330234
Zn31	Zn	1.324855	0.380813	0.580234
Zn32	Zn	1.574855	0.630813	0.830234
Zn33	Zn	0.824879	-0.119193	-0.080193
Zn34	Zn	1.074879	0.130807	0.169807
Zn35	Zn	1.324879	0.380807	0.419807
Zn36	Zn	1.574879	0.630807	0.669807
O37	O	0.819410	-0.249417	0.060896
O38	O	1.069410	0.000583	0.310896
O39	O	1.319410	0.250583	0.560896
O40	O	1.569410	0.500583	0.810896
C41	C	0.697223	-0.126218	0.000016
C42	C	0.947223	0.123782	0.250016
C43	C	1.197223	0.373782	0.500016
C44	C	1.447223	0.623782	0.750016
C45	C	0.619714	-0.124756	0.000014
C46	C	0.869714	0.125244	0.250014
C47	C	1.119714	0.375244	0.500014
C48	C	1.369714	0.625244	0.750014
C49	C	0.066435	-0.114324	-0.066350
C50	C	0.316435	0.135676	0.183650
C51	C	0.566435	0.385676	0.433650
C52	C	0.816435	0.635676	0.683650
C53	C	0.139264	-0.115692	-0.066353
C54	C	0.389264	0.134308	0.183647
C55	C	0.639264	0.384308	0.433647
C56	C	0.889264	0.634308	0.683647
C57	C	0.175673	-0.116378	0.000019
C58	C	0.425673	0.133622	0.250019
C59	C	0.675673	0.383622	0.500019
C60	C	0.925673	0.633622	0.750019
C61	C	0.139250	-0.115673	0.066399
C62	C	0.389250	0.134327	0.316399
C63	C	0.639250	0.384327	0.566399
C64	C	0.889250	0.634327	0.816399
C65	C	0.066424	-0.114296	0.066400
C66	C	0.316424	0.135704	0.316400
C67	C	0.566424	0.385704	0.566400
C68	C	0.816424	0.635704	0.816400
N69	N	0.284857	-0.169437	0.049421
N70	N	0.534857	0.080563	0.299421
N71	N	0.784857	0.330563	0.549421
N72	N	1.034857	0.580563	0.799421
N73	N	0.354038	-0.170747	0.049415
N74	N	0.604038	0.079253	0.299415
N75	N	0.854038	0.329253	0.549415
N76	N	1.104038	0.579253	0.799415
C77	C	0.395095	-0.120526	0.000020
C78	C	0.645095	0.129474	0.250020
C79	C	0.895095	0.379474	0.500020
C80	C	1.145095	0.629474	0.750020
N81	N	0.364356	-0.068957	-0.049381
N82	N	0.614356	0.181043	0.200619
N83	N	0.864356	0.431043	0.450619
N84	N	1.114356	0.681043	0.700619
N85	N	0.295167	-0.067650	-0.049377
N86	N	0.545167	0.182350	0.200623
N87	N	0.795167	0.432350	0.450623
N88	N	1.045167	0.682350	0.700623
C89	C	0.254641	-0.117871	0.000025
C90	C	0.504641	0.132129	0.250025
C91	C	0.754641	0.382129	0.500025
C92	C	1.004641	0.632129	0.750025
C93	C	0.510479	-0.122709	-0.066359
C94	C	0.760479	0.127291	0.183641
C95	C	1.010479	0.377291	0.433641
C96	C	1.260479	0.627291	0.683641
C97	C	0.583310	-0.124072	-0.066359
C98	C	0.833310	0.125928	0.183641
C99	C	1.083310	0.375928	0.433641
C100	C	1.333310	0.625928	0.683641
C101	C	0.583294	-0.124062	0.066395
C102	C	0.833294	0.125938	0.316395
C103	C	1.083294	0.375938	0.566395
C104	C	1.333294	0.625938	0.816395
C105	C	0.510465	-0.122690	0.066393
C106	C	0.760465	0.127310	0.316393
C107	C	1.010465	0.377310	0.566393
C108	C	1.260465	0.627310	0.816393
C109	C	0.474062	-0.122018	0.000014
C110	C	0.724062	0.127982	0.250014
C111	C	0.974062	0.377982	0.500014
C112	C	1.224062	0.627982	0.750014
C113	C	0.829828	0.044361	0.000026
C114	C	1.079828	0.294361	0.250026
C115	C	1.329828	0.544361	0.500026
C116	C	1.579828	0.794361	0.750026
C117	C	0.828368	0.143650	0.000025
C118	C	1.078368	0.393650	0.250025
C119	C	1.328368	0.643650	0.500025
C120	C	1.578368	0.893650	0.750025
C121	C	0.952511	-0.112162	0.000023
C122	C	1.202511	0.137838	0.250023
C123	C	1.452511	0.387838	0.500023
C124	C	1.702511	0.637838	0.750023
C125	C	1.030020	-0.113624	0.000021
C126	C	1.280020	0.136376	0.250021
C127	C	1.530020	0.386376	0.500021
C128	C	1.780020	0.636376	0.750021
C129	C	0.819907	-0.282741	0.000014
C130	C	1.069907	-0.032741	0.250014
C131	C	1.319907	0.217259	0.500014
C132	C	1.569907	0.467259	0.750014
C133	C	0.821367	-0.382030	0.000010
C134	C	1.071367	-0.132030	0.250010
C135	C	1.321367	0.117970	0.500010
C136	C	1.571367	0.367970	0.750010
N137	N	0.824844	-0.119183	0.189721
N138	N	1.074844	0.130817	0.439721
N139	N	1.324844	0.380817	0.689721
N140	N	1.574844	0.630817	0.939721
C141	C	0.891274	0.201207	0.000028
C142	C	1.141274	0.451207	0.250028
C143	C	1.391274	0.701207	0.500028
C144	C	1.641274	0.951207	0.750028
C145	C	0.889898	0.294500	0.000020
C146	C	1.139898	0.544500	0.250020
C147	C	1.389898	0.794500	0.500020
C148	C	1.639898	1.044500	0.750020
C149	C	0.825615	0.330233	0.000016
C150	C	1.075615	0.580233	0.250016
C151	C	1.325615	0.830233	0.500016
C152	C	1.575615	1.080233	0.750016
C153	C	0.762704	0.272668	0.000011
C154	C	1.012704	0.522668	0.250011
C155	C	1.262704	0.772668	0.500011
C156	C	1.512704	1.022668	0.750011
C157	C	0.764081	0.179378	0.000013
C158	C	1.014081	0.429378	0.250013
C159	C	1.264081	0.679378	0.500013
C160	C	1.514081	0.929378	0.750013
C161	C	0.759838	0.467116	0.000008
C162	C	1.009838	0.717116	0.250008
C163	C	1.259838	0.967116	0.500008
C164	C	1.509838	1.217116	0.750008
C165	C	0.758461	0.560413	0.000007
C166	C	1.008461	0.810413	0.250007
C167	C	1.258461	1.060413	0.500007
C168	C	1.508461	1.310413	0.750007
C169	C	0.885655	0.582237	0.000015
C170	C	1.135655	0.832237	0.250015
C171	C	1.385655	1.082237	0.500015
C172	C	1.635655	1.332237	0.750015
C173	C	0.887032	0.488947	0.000018
C174	C	1.137032	0.738947	0.250018
C175	C	1.387032	0.988947	0.500018
C176	C	1.637032	1.238947	0.750018
C177	C	0.824121	0.431389	0.000014
C178	C	1.074121	0.681389	0.250014
C179	C	1.324121	0.931389	0.500014
C180	C	1.574121	1.181389	0.750014
N181	N	0.824896	-0.119189	-0.189680
N182	N	1.074896	0.130811	0.060320
N183	N	1.324896	0.380811	0.310320
N184	N	1.574896	0.630811	0.560320
C185	C	0.867227	-0.173304	0.228023
C186	C	1.117227	0.076696	0.478023
C187	C	1.367227	0.326696	0.728023
C188	C	1.617227	0.576696	0.978023
C189	C	0.867239	-0.173301	0.304668
C190	C	1.117239	0.076699	0.554668
C191	C	1.367239	0.326699	0.804668
C192	C	1.617239	0.576699	1.054668
C193	C	0.824854	-0.119189	0.343008
C194	C	1.074854	0.130811	0.593008
C195	C	1.324854	0.380811	0.843008
C196	C	1.574854	0.630811	1.093008
C197	C	0.782468	-0.065058	0.304697
C198	C	1.032468	0.184942	0.554697
C199	C	1.282468	0.434942	0.804697
C200	C	1.532468	0.684942	1.054697
C201	C	0.782463	-0.065055	0.228053
C202	C	1.032463	0.184945	0.478053
C203	C	1.282463	0.434945	0.728053
C204	C	1.532463	0.684945	0.978053
N205	N	0.763699	-0.116985	0.463358
N206	N	1.013699	0.133015	0.713358
N207	N	1.263699	0.383015	0.963358
N208	N	1.513699	0.633015	1.213358
N209	N	0.763706	-0.116992	0.536167
N210	N	1.013706	0.133008	0.786167
N211	N	1.263706	0.383008	1.036167
N212	N	1.513706	0.633008	1.286167
C213	C	0.824868	-0.119192	0.573930
C214	C	1.074868	0.130808	0.823930
C215	C	1.324868	0.380808	1.073930
C216	C	1.574868	0.630808	1.323930
N217	N	0.886024	-0.121401	0.536135
N218	N	1.136024	0.128599	0.786135
N219	N	1.386024	0.378599	1.036135
N220	N	1.636024	0.628599	1.286135
N221	N	0.886016	-0.121398	0.463321
N222	N	1.136016	0.128602	0.713321
N223	N	1.386016	0.378602	0.963321
N224	N	1.636016	0.628602	1.213321
C225	C	0.824855	-0.119185	0.426115
C226	C	1.074855	0.130815	0.676115
C227	C	1.324855	0.380815	0.926115
C228	C	1.574855	0.630815	1.176115
C229	C	0.867268	-0.173312	0.695339
C230	C	1.117268	0.076688	0.945339
C231	C	1.367268	0.326688	1.195339
C232	C	1.617268	0.576688	1.445339
C233	C	0.867281	-0.173303	0.771986
C234	C	1.117281	0.076697	1.021986
C235	C	1.367281	0.326697	1.271986
C236	C	1.617281	0.576697	1.521986
C237	C	0.782503	-0.065065	0.772013
C238	C	1.032503	0.184935	1.022013
C239	C	1.282503	0.434935	1.272013
C240	C	1.532503	0.684935	1.522013
C241	C	0.782497	-0.065069	0.695368
C242	C	1.032497	0.184931	0.945368
C243	C	1.282497	0.434931	1.195368
C244	C	1.532497	0.684931	1.445368
C245	C	0.824878	-0.119197	0.657036
C246	C	1.074878	0.130803	0.907036
C247	C	1.324878	0.380803	1.157036
C248	C	1.574878	0.630803	1.407036
H249	H	0.036775	-0.113729	0.120449
H250	H	0.286775	0.136271	0.370449
H251	H	0.536775	0.386271	0.620449
H252	H	0.786775	0.636271	0.870449
H253	H	0.712856	0.132515	0.000011
H254	H	0.962856	0.382515	0.250011
H255	H	1.212856	0.632515	0.500011
H256	H	1.462856	0.882515	0.750011
H257	H	0.480816	-0.122123	0.120440
H258	H	0.730816	0.127877	0.370440
H259	H	0.980816	0.377877	0.620440
H260	H	1.230816	0.627877	0.870440
H261	H	0.747959	-0.020998	0.335918
H262	H	0.997959	0.229002	0.585918
H263	H	1.247959	0.479002	0.835918
H264	H	1.497959	0.729002	1.085918
H265	H	0.939377	0.459856	0.000027
H266	H	1.189377	0.709856	0.250027
H267	H	1.439377	0.959856	0.500027
H268	H	1.689377	1.209856	0.750027
H269	H	0.747948	-0.020983	0.196868
H270	H	0.997948	0.229017	0.446868
H271	H	1.247948	0.479017	0.696868
H272	H	1.497948	0.729017	0.946868
H273	H	0.612938	-0.124617	0.120437
H274	H	0.862938	0.125383	0.370437
H275	H	1.112938	0.375383	0.620437
H276	H	1.362938	0.625383	0.870437
H277	H	0.901799	-0.217372	0.803170
H278	H	1.151799	0.032628	1.053170
H279	H	1.401799	0.282628	1.303170
H280	H	1.651799	0.532628	1.553170
H281	H	0.747981	-0.021002	0.664182
H282	H	0.997981	0.228998	0.914182
H283	H	1.247981	0.478998	1.164182
H284	H	1.497981	0.728998	1.414182
H285	H	0.901777	-0.217386	0.664127
H286	H	1.151777	0.032614	0.914127
H287	H	1.401777	0.282614	1.164127
H288	H	1.651777	0.532614	1.414127
H289	H	0.901740	-0.217376	0.196817
H290	H	1.151740	0.032624	0.446817
H291	H	1.401740	0.282624	0.696817
H292	H	1.651740	0.532624	0.946817
H293	H	0.943621	0.172121	0.000036
H294	H	1.193621	0.422121	0.250036
H295	H	1.443621	0.672121	0.500036
H296	H	1.693621	0.922121	0.750036
H297	H	0.747994	-0.021005	0.803229
H298	H	0.997994	0.228995	1.053229
H299	H	1.247994	0.478995	1.303229
H300	H	1.497994	0.728995	1.553229
H301	H	0.941122	0.341360	0.000024
H302	H	1.191122	0.591360	0.250024
H303	H	1.441122	0.841360	0.500024
H304	H	1.691122	1.091360	0.750024
H305	H	0.036801	-0.113773	-0.120401
H306	H	0.286801	0.136227	0.129599
H307	H	0.536801	0.386227	0.379599
H308	H	0.786801	0.636227	0.629599
H309	H	0.706116	0.589503	0.000015
H310	H	0.956116	0.839503	0.250015
H311	H	1.206116	1.089503	0.500015
H312	H	1.456116	1.339503	0.750015
H313	H	0.936880	0.629106	0.000016
H314	H	1.186880	0.879106	0.250016
H315	H	1.436880	1.129106	0.500016
H316	H	1.686880	1.379106	0.750016
H317	H	0.901753	-0.217375	0.335859
H318	H	1.151753	0.032625	0.585859
H319	H	1.401753	0.282625	0.835859
H320	H	1.651753	0.532625	1.085859
H321	H	0.710363	0.301770	0.000002
H322	H	0.960363	0.551770	0.250002
H323	H	1.210363	0.801770	0.500002
H324	H	1.460363	1.051770	0.750002
H325	H	0.708609	0.420254	0.000003
H326	H	0.958609	0.670254	0.250003
H327	H	1.208609	0.920254	0.500003
H328	H	1.458609	1.170254	0.750003
H329	H	0.168899	-0.116230	0.120440
H330	H	0.418899	0.133770	0.370440
H331	H	0.668899	0.383770	0.620440
H332	H	0.918899	0.633770	0.870440
H333	H	0.168918	-0.116267	-0.120402
H334	H	0.418918	0.133733	0.129598
H335	H	0.668918	0.383733	0.379598
H336	H	0.918918	0.633733	0.629598
H337	H	0.480839	-0.122159	-0.120409
H338	H	0.730839	0.127841	0.129591
H339	H	0.980839	0.377841	0.379591
H340	H	1.230839	0.627841	0.629591
H341	H	0.612958	-0.124635	-0.120409
H342	H	0.862958	0.125365	0.129591
H343	H	1.112958	0.375365	0.379591
H344	H	1.362958	0.625365	0.629591
