data_functionalizedCrystal
_audit_creation_method	'MofGen! by Chris Wilmer'
_symmetry_space_group_name_H-M	'P1'
_symmetry_Int_Tables_number	1
_symmetry_cell_setting	triclinic
loop_
_symmetry_equiv_pos_as_xyz
  x,y,z
_cell_length_a	10.540539
_cell_length_b	14.519709
_cell_length_c	12.996460
_cell_angle_alpha	90.007090
_cell_angle_beta	90.003509
_cell_angle_gamma	84.102818
loop_
_atom_site_label
_atom_site_type_symbol
_atom_site_fract_x
_atom_site_fract_y
_atom_site_fract_z
O1	O	-1.684562	-0.129969	-0.085521
O2	O	-1.351229	0.203364	0.247812
O3	O	-1.017896	0.536697	0.581146
O4	O	-1.315024	-0.142215	-0.085534
O5	O	-0.981691	0.191118	0.247800
O6	O	-0.648358	0.524452	0.581133
O7	O	-1.509591	-0.001906	-0.085518
O8	O	-1.176258	0.331427	0.247816
O9	O	-0.842924	0.664760	0.581149
O10	O	-1.489995	-0.270278	-0.085537
O11	O	-1.156662	0.063056	0.247796
O12	O	-0.823329	0.396389	0.581130
O13	O	-1.509571	-0.001899	0.085616
O14	O	-1.176237	0.331435	0.418949
O15	O	-0.842904	0.664768	0.752283
O16	O	-1.315004	-0.142207	0.085600
O17	O	-0.981671	0.191126	0.418933
O18	O	-0.648337	0.524460	0.752267
O19	O	-1.684542	-0.129961	0.085613
O20	O	-1.351209	0.203372	0.418946
O21	O	-1.017875	0.536705	0.752280
Cu22	Cu	-1.499771	-0.136083	0.101232
Cu23	Cu	-1.166438	0.197250	0.434566
Cu24	Cu	-0.833104	0.530583	0.767899
Cu25	Cu	-1.499795	-0.136093	-0.101153
Cu26	Cu	-1.166462	0.197240	0.232180
Cu27	Cu	-0.833128	0.530574	0.565513
O28	O	-1.489975	-0.270270	0.085597
O29	O	-1.156642	0.063063	0.418930
O30	O	-0.823308	0.396397	0.752264
C31	C	-1.267720	-0.141293	0.000032
C32	C	-0.934387	0.192041	0.333365
C33	C	-0.601054	0.525374	0.666698
C34	C	-1.126800	-0.138545	0.000027
C35	C	-0.793467	0.194788	0.333360
C36	C	-0.460134	0.528122	0.666694
C37	C	-1.508668	0.032462	0.000049
C38	C	-1.175334	0.365796	0.333383
C39	C	-0.842001	0.699129	0.666716
C40	C	-1.505931	0.134858	0.000050
C41	C	-1.172598	0.468192	0.333383
C42	C	-0.839264	0.801525	0.666716
C43	C	-1.731846	-0.130884	0.000045
C44	C	-1.398512	0.202450	0.333379
C45	C	-1.065179	0.535783	0.666712
C46	C	-1.872766	-0.133631	0.000043
C47	C	-1.539432	0.199702	0.333377
C48	C	-1.206099	0.533035	0.666710
C49	C	-0.944448	-0.033266	0.000434
C50	C	-0.611115	0.300068	0.333767
C51	C	-0.277782	0.633401	0.667101
C52	C	-1.091038	-0.036051	0.000037
C53	C	-0.757705	0.297283	0.333371
C54	C	-0.424371	0.630616	0.666704
C55	C	-1.064636	-0.187874	-0.097699
C56	C	-0.731303	0.145459	0.235635
C57	C	-0.397969	0.478792	0.568968
C58	C	-0.918127	-0.184376	-0.097770
C59	C	-0.584794	0.148957	0.235564
C60	C	-0.251460	0.482290	0.568897
C61	C	-0.917594	-0.186452	0.096841
C62	C	-0.584261	0.146881	0.430175
C63	C	-0.250928	0.480214	0.763508
C64	C	-1.064567	-0.187396	0.098122
C65	C	-0.731233	0.145937	0.431456
C66	C	-0.397900	0.479270	0.764789
C67	C	-1.490899	-0.304639	0.000028
C68	C	-1.157565	0.028695	0.333361
C69	C	-0.824232	0.362028	0.666694
C70	C	-1.493635	-0.407035	0.000020
C71	C	-1.160302	-0.073701	0.333354
C72	C	-0.826968	0.259632	0.666687
N73	N	-1.499763	-0.136076	0.243579
N74	N	-1.166430	0.197257	0.576913
N75	N	-0.833097	0.530590	0.910246
C76	C	-1.495856	0.509808	0.000023
C77	C	-1.162523	0.843142	0.333356
C78	C	-0.829190	1.176475	0.666689
C79	C	-1.498654	0.405485	0.000031
C80	C	-1.165321	0.738819	0.333364
C81	C	-0.831987	1.072152	0.666697
C82	C	-1.500893	0.322337	0.000037
C83	C	-1.167560	0.655670	0.333371
C84	C	-0.834227	0.989003	0.666704
C85	C	-1.503692	0.218007	0.000043
C86	C	-1.170358	0.551340	0.333377
C87	C	-0.837025	0.884674	0.666710
N88	N	-1.499813	-0.136093	-0.243500
N89	N	-1.166479	0.197241	0.089833
N90	N	-0.833146	0.530574	0.423166
C91	C	-1.499793	-0.136094	0.663394
C92	C	-1.166460	0.197240	0.996727
C93	C	-0.833127	0.530573	1.330060
C94	C	-1.499781	-0.136092	0.546589
C95	C	-1.166448	0.197241	0.879922
C96	C	-0.833115	0.530575	1.213255
C97	C	-1.499779	-0.136086	0.453490
C98	C	-1.166446	0.197248	0.786824
C99	C	-0.833112	0.530581	1.120157
C100	C	-1.499766	-0.136083	0.336678
C101	C	-1.166432	0.197251	0.670011
C102	C	-0.833099	0.530584	1.003344
H103	H	-1.134040	0.002763	0.070092
H104	H	-0.800706	0.336096	0.403425
H105	H	-0.467373	0.669430	0.736758
F106	F	-1.092877	-0.286250	-0.102478
F107	F	-0.759544	0.047084	0.230855
F108	F	-0.426211	0.380417	0.564189
H109	H	-1.088029	-0.262121	0.104017
H110	H	-0.754696	0.071212	0.437351
H111	H	-0.421363	0.404546	0.770684
F112	F	-0.905508	0.019437	-0.090648
F113	F	-0.572175	0.352770	0.242685
F114	F	-0.238842	0.686103	0.576019
F115	F	-1.120766	-0.143094	-0.192757
F116	F	-0.787433	0.190239	0.140576
F117	F	-0.454100	0.523572	0.473910
H118	H	-1.105888	-0.151360	0.170419
H119	H	-0.772555	0.181974	0.503753
H120	H	-0.439221	0.515307	0.837086
H121	H	-0.890298	-0.147924	-0.170815
H122	H	-0.556964	0.185409	0.162518
H123	H	-0.223631	0.518742	0.495851
H124	H	-0.916268	0.007229	0.070519
H125	H	-0.582935	0.340562	0.403852
H126	H	-0.249601	0.673895	0.737186
H127	H	-0.886378	-0.153279	0.170917
H128	H	-0.553045	0.180054	0.504250
H129	H	-0.219711	0.513388	0.837583
H130	H	-1.133191	0.003030	-0.070132
H131	H	-0.799857	0.336363	0.263201
H132	H	-0.466524	0.669697	0.596534
F133	F	-0.854441	-0.280722	-0.103575
F134	F	-0.521108	0.052612	0.229759
F135	F	-0.187775	0.385945	0.563092
H136	H	-0.869612	-0.260483	0.097496
H137	H	-0.536278	0.072850	0.430830
H138	H	-0.202945	0.406184	0.764163
