data_functionalizedCrystal
_audit_creation_method	'MofGen! by Chris Wilmer'
_symmetry_space_group_name_H-M	'P1'
_symmetry_Int_Tables_number	1
_symmetry_cell_setting	triclinic
loop_
_symmetry_equiv_pos_as_xyz
  x,y,z
_cell_length_a	16.120530
_cell_length_b	18.215404
_cell_length_c	18.215399
_cell_angle_alpha	90.029924
_cell_angle_beta	87.086235
_cell_angle_gamma	92.880662
loop_
_atom_site_label
_atom_site_type_symbol
_atom_site_fract_x
_atom_site_fract_y
_atom_site_fract_z
Zn1	Zn	1.274516	0.350098	-0.473094
Zn2	Zn	1.607849	0.683431	-0.139761
Zn3	Zn	1.941183	1.016765	0.193572
Zn4	Zn	1.274422	0.473170	-0.350025
Zn5	Zn	1.607755	0.806503	-0.016691
Zn6	Zn	1.941089	1.139837	0.316642
Zn7	Zn	1.135107	0.343878	-0.343810
Zn8	Zn	1.468440	0.677211	-0.010476
Zn9	Zn	1.801773	1.010545	0.322857
Zn10	Zn	1.135063	0.466877	-0.466820
Zn11	Zn	1.468397	0.800210	-0.133486
Zn12	Zn	1.801730	1.133544	0.199847
O13	O	1.204777	0.408506	-0.408437
O14	O	1.538110	0.741839	-0.075104
O15	O	1.871444	1.075172	0.258230
O16	O	1.391169	0.371661	-0.461996
O17	O	1.724502	0.704994	-0.128663
O18	O	2.057836	1.038327	0.204671
O19	O	1.255920	0.456050	-0.246215
O20	O	1.589254	0.789383	0.087118
O21	O	1.922587	1.122717	0.420452
O22	O	1.153657	0.241721	-0.360984
O23	O	1.486990	0.575055	-0.027651
O24	O	1.820324	0.908388	0.305682
O25	O	1.391100	0.462081	-0.371577
O26	O	1.724433	0.795414	-0.038244
O27	O	2.057767	1.128748	0.295089
O28	O	1.256080	0.246291	-0.455969
O29	O	1.589414	0.579624	-0.122636
O30	O	1.922747	0.912958	0.210697
O31	O	1.153566	0.361059	-0.241649
O32	O	1.486899	0.694393	0.091685
O33	O	1.820233	1.027726	0.425018
O34	O	1.018435	0.354957	-0.354900
O35	O	1.351769	0.688291	-0.021567
O36	O	1.685102	1.021624	0.311767
O37	O	1.153583	0.451355	-0.570637
O38	O	1.486916	0.784689	-0.237304
O39	O	1.820250	1.118022	0.096029
O40	O	1.018404	0.445324	-0.445275
O41	O	1.351737	0.778657	-0.111942
O42	O	1.685070	1.111991	0.221392
O43	O	1.256038	0.365558	-0.575247
O44	O	1.589372	0.698892	-0.241914
O45	O	1.922705	1.032225	0.091419
O46	O	1.255878	0.575317	-0.365493
O47	O	1.589212	0.908650	-0.032160
O48	O	1.922545	1.241984	0.301174
O49	O	1.153492	0.570694	-0.451302
O50	O	1.486825	0.904027	-0.117969
O51	O	1.820159	1.237360	0.215365
C52	C	0.988169	0.398783	-0.398733
C53	C	1.321503	0.732117	-0.065399
C54	C	1.654836	1.065450	0.267934
C55	C	0.895504	0.394642	-0.394599
C56	C	1.228837	0.727975	-0.061265
C57	C	1.562171	1.061308	0.272068
C58	C	1.204693	0.599708	-0.408408
C59	C	1.538026	0.933042	-0.075075
C60	C	1.871360	1.266375	0.258259
C61	C	1.204733	0.681509	-0.408424
C62	C	1.538067	1.014842	-0.075090
C63	C	1.871400	1.348176	0.258243
C64	C	1.204816	0.408449	-0.600392
C65	C	1.538150	0.741782	-0.267059
C66	C	1.871483	1.075115	0.066275
C67	C	1.204833	0.408424	-0.682192
C68	C	1.538166	0.741758	-0.348858
C69	C	1.871500	1.075091	-0.015525
C70	C	0.725843	0.387063	-0.387057
C71	C	1.059176	0.720397	-0.053724
C72	C	1.392509	1.053730	0.279610
C73	C	0.684552	0.430003	-0.429871
C74	C	1.017885	0.763336	-0.096537
C75	C	1.351218	1.096669	0.236796
C76	C	0.590146	0.425786	-0.425675
C77	C	0.923480	0.759119	-0.092341
C78	C	1.256813	1.092452	0.240992
C79	C	0.820257	0.391279	-0.391252
C80	C	1.153590	0.724612	-0.057919
C81	C	1.486923	1.057946	0.275414
C82	C	1.422230	0.418267	-0.418180
C83	C	1.755564	0.751600	-0.084846
C84	C	2.088897	1.084933	0.248487
C85	C	1.514896	0.422426	-0.422332
C86	C	1.848229	0.755759	-0.088998
C87	C	2.181563	1.089093	0.244335
C88	C	1.258175	0.872092	-0.363845
C89	C	1.591508	1.205425	-0.030512
C90	C	1.924842	1.538758	0.302821
C91	C	1.258214	0.948952	-0.363869
C92	C	1.591547	1.282285	-0.030536
C93	C	1.924880	1.615619	0.302798
C94	C	1.151507	0.944173	-0.453140
C95	C	1.484840	1.277507	-0.119807
C96	C	1.818173	1.610840	0.213526
C97	C	1.151473	0.867315	-0.453120
C98	C	1.484806	1.200648	-0.119787
C99	C	1.818139	1.533981	0.213547
C100	C	1.204805	0.831276	-0.408468
C101	C	1.538139	1.164609	-0.075135
C102	C	1.871472	1.497942	0.258198
C103	C	1.204878	0.984995	-0.408512
C104	C	1.538212	1.318328	-0.075179
C105	C	1.871545	1.651662	0.258154
C106	C	1.204920	1.068330	-0.408538
C107	C	1.538254	1.401664	-0.075205
C108	C	1.871587	1.734997	0.258128
C109	C	1.204765	0.747935	-0.408443
C110	C	1.538098	1.081268	-0.075110
C111	C	1.871432	1.414602	0.258223
C112	C	1.204889	1.216558	-0.408497
C113	C	1.538223	1.549891	-0.075164
C114	C	1.871556	1.883225	0.258170
C115	C	1.204951	1.134762	-0.408557
C116	C	1.538284	1.468095	-0.075224
C117	C	1.871617	1.801428	0.258110
C118	C	1.151582	0.358933	-0.868011
C119	C	1.484916	0.692267	-0.534677
C120	C	1.818249	1.025600	-0.201344
C121	C	1.151597	0.358919	-0.944870
C122	C	1.484930	0.692252	-0.611537
C123	C	1.818263	1.025586	-0.278204
C124	C	1.258184	0.457832	-0.949615
C125	C	1.591517	0.791166	-0.616281
C126	C	1.924850	1.124499	-0.282948
C127	C	1.258164	0.457850	-0.872756
C128	C	1.591498	0.791183	-0.539423
C129	C	1.924831	1.124516	-0.206090
C130	C	1.204865	0.408396	-0.831957
C131	C	1.538198	0.741729	-0.498623
C132	C	1.871532	1.075062	-0.165290
C133	C	1.204899	0.408364	-0.985674
C134	C	1.538232	0.741698	-0.652341
C135	C	1.871565	1.075031	-0.319008
C136	C	1.204915	0.408349	-1.069009
C137	C	1.538248	0.741683	-0.735675
C138	C	1.871581	1.075016	-0.402342
C139	C	1.204847	0.408412	-0.748617
C140	C	1.538181	0.741745	-0.415283
C141	C	1.871514	1.075078	-0.081950
C142	C	1.204786	0.408512	-0.217231
C143	C	1.538119	0.741845	0.116102
C144	C	1.871452	1.075178	0.449435
C145	C	1.204930	0.408336	-0.135439
C146	C	1.538264	0.741669	0.197894
C147	C	1.871597	1.075003	0.531227
H148	H	0.720102	0.469930	-0.469677
H149	H	1.053435	0.803263	-0.136344
H150	H	1.386769	1.136597	0.196990
O151	O	1.315674	0.511169	-0.993617
O152	O	1.649008	0.844502	-0.660284
O153	O	1.982341	1.177835	-0.326951
H154	H	1.358124	0.480127	-1.030537
H155	H	1.691457	0.813460	-0.697204
H156	H	2.024790	1.146793	-0.363870
H157	H	1.108182	0.318665	-0.834794
H158	H	1.441516	0.651998	-0.501460
H159	H	1.774849	0.985332	-0.168127
H160	H	0.690295	0.347139	-0.347254
H161	H	1.023628	0.680472	-0.013921
H162	H	1.356961	1.013805	0.319412
O163	O	1.315705	0.833218	-0.315697
O164	O	1.649038	1.166551	0.017636
O165	O	1.982371	1.499884	0.350969
H166	H	1.352829	0.874516	-0.284679
H167	H	1.686162	1.207849	0.048654
H168	H	2.019496	1.541182	0.381988
O169	O	1.093906	0.823289	-0.501255
O170	O	1.427239	1.156622	-0.167922
O171	O	1.760573	1.489955	0.165412
H172	H	1.102851	0.763790	-0.493745
H173	H	1.436185	1.097124	-0.160412
H174	H	1.769518	1.430457	0.172922
H175	H	1.301674	0.982181	-0.327534
H176	H	1.635007	1.315515	0.005800
H177	H	1.968340	1.648848	0.339133
H178	H	1.108084	0.973526	-0.489493
H179	H	1.441417	1.306859	-0.156160
H180	H	1.774750	1.640192	0.177174
O181	O	1.094134	0.305565	-0.983761
O182	O	1.427468	0.638899	-0.650427
O183	O	1.760801	0.972232	-0.317094
H184	H	1.057077	0.271178	-0.942475
H185	H	1.390410	0.604512	-0.609142
H186	H	1.723743	0.937845	-0.275809
H187	H	1.301556	0.498131	-0.843401
H188	H	1.634889	0.831464	-0.510067
H189	H	1.968222	1.164798	-0.176734
