data_functionalizedCrystal
_audit_creation_method	'MofGen! by Chris Wilmer'
_symmetry_space_group_name_H-M	'P1'
_symmetry_Int_Tables_number	1
_symmetry_cell_setting	triclinic
loop_
_symmetry_equiv_pos_as_xyz
  x,y,z
_cell_length_a	6.817900
_cell_length_b	17.078472
_cell_length_c	16.255661
_cell_angle_alpha	96.262601
_cell_angle_beta	103.488922
_cell_angle_gamma	99.306020
loop_
_atom_site_label
_atom_site_type_symbol
_atom_site_fract_x
_atom_site_fract_y
_atom_site_fract_z
V1	V	-4.005724	-0.110408	-0.263786
O2	O	-4.015074	0.004646	-0.258852
O3	O	-3.936769	-0.218286	-0.261897
O4	O	-3.957554	-0.108999	-0.378870
O5	O	-3.994145	-0.105398	-0.141069
V6	V	-4.491986	-0.096612	-0.249118
O7	O	-4.260975	-0.140671	-0.295960
O8	O	-4.686932	-0.066349	-0.216943
O9	O	-4.337734	0.011266	-0.251006
O10	O	-4.600033	-0.211666	-0.254052
O11	O	-4.620962	-0.101622	-0.371834
O12	O	-4.316949	-0.098021	-0.134034
C13	C	-3.776761	-0.244575	-0.257714
C14	C	-3.801671	-0.332769	-0.256938
C15	C	-3.994710	-0.378254	-0.260791
C16	C	-4.018106	-0.461122	-0.260066
C17	C	-3.848456	-0.498502	-0.255482
C18	C	-3.655402	-0.453012	-0.251631
C19	C	-3.632012	-0.370147	-0.252362
C20	C	-3.898967	-0.745900	-0.252849
C21	C	-3.922372	-0.828771	-0.252116
C22	C	-4.285076	-0.836875	-0.260553
C23	C	-4.261666	-0.754007	-0.261278
C24	C	-4.068617	-0.708525	-0.257432
N25	N	-3.872364	-0.583206	-0.254738
N26	N	-4.044714	-0.623823	-0.258181
C27	C	-3.803274	-0.105168	-0.406923
C28	C	-3.845037	-0.104730	-0.501005
C29	C	-3.756589	-0.099496	-0.723828
C30	C	-3.900164	-0.167046	-0.793252
C31	C	-3.921578	-0.103908	-0.673254
C32	C	-3.852440	-0.035585	-0.771468
C33	C	-3.995497	-0.103111	-0.839638
C34	C	-4.064623	-0.171518	-0.741448
C35	C	-4.016849	-0.039998	-0.719649
C36	C	-4.160557	-0.107567	-0.789054
C37	C	-3.878989	-0.104368	-0.577405
C38	C	-4.038102	-0.102657	-0.935487
C39	C	-4.161083	0.037551	-0.255187
C40	C	-4.115412	0.125744	-0.255969
C41	C	-4.134570	-0.101855	-0.105976
C42	C	-4.072047	-0.102289	-0.011893
H43	H	-4.175297	-0.498152	-0.263205
O44	O	-3.711484	-0.701626	-0.248987
C45	C	-3.650943	-0.642523	-0.175515
H46	H	-3.792850	-0.629973	-0.154751
H47	H	-3.565837	-0.585000	-0.190794
H48	H	-3.545190	-0.664803	-0.121590
H49	H	-3.517275	-0.483455	-0.247903
O50	O	-4.075025	0.024022	-0.681248
C51	C	-4.036126	0.022274	-0.592457
H52	H	-4.030568	-0.041767	-0.579731
H53	H	-4.163898	0.044039	-0.567431
H54	H	-3.882463	0.063136	-0.558409
O55	O	-3.444328	-0.326073	-0.248572
C56	C	-3.299613	-0.376836	-0.244389
H57	H	-3.356238	-0.433093	-0.218189
H58	H	-3.145760	-0.343922	-0.200377
H59	H	-3.279819	-0.394540	-0.311218
H60	H	-4.399820	-0.723579	-0.265017
H61	H	-4.331777	-0.110998	-0.817398
O62	O	-3.552482	-0.095668	-0.689906
C63	C	-3.491294	-0.162800	-0.727772
H64	H	-3.630763	-0.213448	-0.754272
H65	H	-3.372224	-0.183699	-0.677616
H66	H	-3.421419	-0.145538	-0.782047
H67	H	-3.763123	0.021847	-0.785122
O68	O	-3.841686	-0.231034	-0.831572
C69	C	-3.691480	-0.203610	-0.873977
H70	H	-3.705487	-0.140718	-0.888781
H71	H	-3.715512	-0.245994	-0.936239
H72	H	-3.531984	-0.201943	-0.831204
O73	O	-3.757361	-0.864980	-0.247547
C74	C	-3.605192	-0.831335	-0.171523
H75	H	-3.627703	-0.768669	-0.148711
H76	H	-3.446621	-0.827263	-0.184248
H77	H	-3.618201	-0.870866	-0.120135
O78	O	-4.472754	-0.880991	-0.264414
C79	C	-4.613483	-0.874167	-0.340799
H80	H	-4.556977	-0.816497	-0.364676
H81	H	-4.770459	-0.872578	-0.328127
H82	H	-4.626814	-0.927906	-0.391359
O83	O	-4.170816	-0.240183	-0.725299
C84	C	-4.031863	-0.282995	-0.680129
H85	H	-3.874353	-0.264495	-0.692576
H86	H	-4.089824	-0.350146	-0.702622
H87	H	-4.019051	-0.268966	-0.608667
O88	O	-4.159373	-0.341885	-0.265091
C89	C	-4.120538	-0.283238	-0.192148
H90	H	-3.999418	-0.298261	-0.138071
H91	H	-4.268537	-0.282211	-0.171175
H92	H	-4.062258	-0.221821	-0.208214
