data_functionalizedCrystal
_audit_creation_method	'MofGen! by Chris Wilmer'
_symmetry_space_group_name_H-M	'P1'
_symmetry_Int_Tables_number	1
_symmetry_cell_setting	triclinic
loop_
_symmetry_equiv_pos_as_xyz
  x,y,z
_cell_length_a	17.077404
_cell_length_b	16.959453
_cell_length_c	17.077396
_cell_angle_alpha	90.029064
_cell_angle_beta	90.018362
_cell_angle_gamma	90.017958
loop_
_atom_site_label
_atom_site_type_symbol
_atom_site_fract_x
_atom_site_fract_y
_atom_site_fract_z
Zn1	Zn	1.200070	-0.314724	0.443816
Zn2	Zn	1.199984	-0.446912	0.312548
Zn3	Zn	1.068802	-0.314747	0.312566
Zn4	Zn	1.068777	-0.446860	0.443775
O5	O	1.134408	-0.380811	0.378176
O6	O	1.309906	-0.332272	0.426413
O7	O	1.182557	-0.429411	0.202704
O8	O	1.086262	-0.204133	0.330001
O9	O	1.309842	-0.429390	0.329971
O10	O	1.182704	-0.204116	0.426430
O11	O	1.086178	-0.332310	0.202717
O12	O	0.958952	-0.332260	0.329962
O13	O	1.086219	-0.429301	0.553627
O14	O	0.958933	-0.429323	0.426360
O15	O	1.182680	-0.332221	0.553657
O16	O	1.182532	-0.557516	0.329931
O17	O	1.086135	-0.557478	0.426342
C18	C	0.930461	-0.380788	0.378159
C19	C	0.843211	-0.380798	0.378170
C20	C	0.802254	-0.330319	0.428463
C21	C	0.720274	-0.330324	0.428467
C22	C	0.679251	-0.380813	0.378180
C23	C	0.720213	-0.431294	0.327881
C24	C	0.802192	-0.431285	0.327874
C25	C	0.549343	-0.431312	0.327900
C26	C	0.467359	-0.431323	0.327908
C27	C	0.467425	-0.330351	0.428494
C28	C	0.549404	-0.330342	0.428487
C29	C	0.590360	-0.380824	0.378188
C30	C	1.134343	-0.586177	0.378147
C31	C	1.134387	-0.674034	0.378161
C32	C	1.184690	-1.045442	0.428481
C33	C	1.084346	-1.045576	0.327988
C34	C	1.084317	-0.963031	0.327970
C35	C	1.134474	-0.921687	0.378209
C36	C	1.184661	-0.962889	0.428466
C37	C	1.034126	-0.921822	0.277719
C38	C	1.034094	-0.839271	0.277699
C39	C	1.084256	-0.797926	0.327935
C40	C	1.134445	-0.839133	0.378194
C41	C	1.184603	-0.797789	0.428434
C42	C	1.234796	-0.838995	0.478689
C43	C	1.234823	-0.921543	0.478702
C44	C	1.084229	-0.715378	0.327922
C45	C	1.184573	-0.715236	0.428419
C46	C	1.339153	-0.380834	0.378194
C47	C	1.426402	-0.380844	0.378202
C48	C	1.134456	-0.380753	0.582921
C49	C	1.134476	-0.380728	0.670170
C50	C	1.134496	-0.174643	0.378222
C51	C	1.134533	-0.086786	0.378242
C52	C	1.134406	-0.380812	0.174228
C53	C	1.134538	-0.380614	0.086979
C54	C	1.184705	-0.330174	0.711178
C55	C	1.184715	-0.330148	0.793158
C56	C	1.134498	-0.380680	0.834130
C57	C	1.084264	-0.431236	0.793117
C58	C	1.084251	-0.431257	0.711138
C59	C	1.084296	-0.431188	0.963987
C60	C	1.084309	-0.431168	1.045972
C61	C	1.184759	-0.330079	1.046007
C62	C	1.184746	-0.330100	0.964028
C63	C	1.134512	-0.380657	0.923021
H64	H	0.434074	-0.289245	0.469447
H65	H	1.225421	-0.681579	0.469327
H66	H	0.686931	-0.289220	0.469423
C67	C	1.029069	-0.486746	1.091040
H68	H	0.999141	-0.516852	1.054878
H69	H	1.059084	-0.521183	1.123016
H70	H	0.994887	-0.456487	1.123022
H71	H	1.043359	-0.681832	0.287009
H72	H	1.225641	-0.288957	0.930671
C73	C	1.289966	-0.793511	0.533948
H74	H	1.282758	-0.738448	0.526737
H75	H	1.278459	-0.807010	0.586684
H76	H	1.342724	-0.807005	0.522503
C77	C	0.422235	-0.486856	0.272591
H78	H	0.458367	-0.516913	0.242626
H79	H	0.390261	-0.521340	0.302559
H80	H	0.390247	-0.456570	0.238448
H81	H	0.993224	-0.805727	0.236778
C82	C	0.594394	-0.486850	0.272581
H83	H	0.558223	-0.516929	0.242640
H84	H	0.626371	-0.456575	0.238427
H85	H	0.626374	-0.521325	0.302558
C86	C	1.240024	-0.274476	1.091111
H87	H	1.232838	-0.281696	1.145803
H88	H	1.292754	-0.286068	1.077677
H89	H	1.228565	-0.221363	1.077691
C90	C	1.029065	-0.486826	0.918881
H91	H	0.999173	-0.516931	0.955022
H92	H	0.994862	-0.456620	0.886888
H93	H	1.059104	-0.521271	0.886912
H94	H	1.275687	-0.955100	0.519618
C95	C	1.029019	-0.486886	0.666030
H96	H	0.999124	-0.516988	0.702171
H97	H	0.994819	-0.456670	0.634043
H98	H	1.059047	-0.521335	0.634056
H99	H	0.686806	-0.472399	0.286933
H100	H	0.582802	-0.289234	0.469439
H101	H	1.043374	-0.472377	0.826483
C102	C	0.847245	-0.486818	0.272557
H103	H	0.811073	-0.516896	0.242615
H104	H	0.879219	-0.456538	0.238405
H105	H	0.879227	-0.521295	0.302530
C106	C	1.239897	-1.090763	0.483760
H107	H	1.232731	-1.145848	0.476579
H108	H	1.292640	-1.077203	0.472320
H109	H	1.228365	-1.077206	0.536492
C110	C	1.029180	-1.091052	0.272727
H111	H	1.036388	-1.146117	0.279931
H112	H	0.976425	-1.077552	0.284158
H113	H	1.040704	-1.077554	0.219991
C114	C	0.978952	-0.967296	0.222464
H115	H	0.949049	-0.930935	0.192539
H116	H	1.009008	-0.999502	0.188294
H117	H	0.944745	-0.999500	0.252477
C118	C	0.847376	-0.274783	0.483780
H119	H	0.902066	-0.282011	0.476580
H120	H	0.833947	-0.221661	0.472389
H121	H	0.833958	-0.286427	0.536505
C122	C	1.239940	-0.274585	0.666116
H123	H	1.269849	-0.244467	0.702282
H124	H	1.274126	-0.304828	0.634131
H125	H	1.209913	-0.240148	0.634143
H126	H	1.225618	-0.288984	0.826542
