data_functionalizedCrystal
_audit_creation_method	'MofGen! by Chris Wilmer'
_symmetry_space_group_name_H-M	'P1'
_symmetry_Int_Tables_number	1
_symmetry_cell_setting	triclinic
loop_
_symmetry_equiv_pos_as_xyz
  x,y,z
_cell_length_a	23.096457
_cell_length_b	23.096457
_cell_length_c	23.096457
_cell_angle_alpha	89.999736
_cell_angle_beta	60.001973
_cell_angle_gamma	59.998275
loop_
_atom_site_label
_atom_site_type_symbol
_atom_site_fract_x
_atom_site_fract_y
_atom_site_fract_z
Zr1	Zr	0.633761	0.557749	-0.075990
O2	O	0.754550	0.465296	-0.168434
O3	O	0.512971	0.586093	-0.047652
O4	O	0.633762	0.586088	-0.168440
O5	O	0.633759	0.465304	0.047636
O6	O	0.633763	0.681368	-0.168444
O7	O	0.633759	0.465302	-0.047646
O8	O	0.417691	0.681378	0.047624
O9	O	0.849831	0.465294	-0.168432
O10	O	0.562655	0.669286	-0.035568
O11	O	0.562654	0.598181	0.035542
O12	O	0.704869	0.598174	-0.106670
O13	O	0.704868	0.527070	-0.035560
Zr14	Zr	0.633763	0.709714	0.075967
Zr15	Zr	0.633763	0.709711	-0.075995
Zr16	Zr	0.633760	0.557753	0.075973
Zr17	Zr	0.785723	0.557746	-0.075987
Zr18	Zr	0.481800	0.709718	0.075964
O19	O	0.754553	0.681371	0.047630
O20	O	0.754553	0.681365	-0.168441
O21	O	0.754549	0.465302	0.047638
O22	O	0.512974	0.802168	0.168411
O23	O	0.512975	0.802162	-0.047660
O24	O	0.512971	0.586099	0.168419
O25	O	0.633765	0.802160	-0.047658
O26	O	0.633762	0.681376	0.168418
O27	O	0.633761	0.586096	0.168421
O28	O	0.633765	0.802162	0.047623
O29	O	0.849833	0.586083	-0.168436
O30	O	0.417691	0.681381	0.168414
O31	O	0.417693	0.802170	0.168409
O32	O	0.417693	0.802167	0.047619
O33	O	0.849831	0.465297	-0.047642
O34	O	0.849833	0.586086	-0.047646
O35	O	0.562655	0.669289	0.106647
O36	O	0.562656	0.740394	0.035537
O37	O	0.704870	0.669283	-0.035565
O38	O	0.704869	0.598178	0.035545
C39	C	0.443680	0.633736	-0.000015
C40	C	0.379168	0.633737	-0.000016
C41	C	0.633759	0.443652	-0.000004
C42	C	0.633758	0.379140	-0.000002
C43	C	-0.081350	0.670849	-0.037118
C44	C	-0.020729	0.670848	-0.037125
C45	C	0.009582	0.633733	-0.000006
C46	C	-0.020716	0.596602	0.037107
C47	C	-0.081329	0.596599	0.037107
N48	N	0.071976	0.638887	0.060399
N49	N	0.129555	0.638893	0.060398
C50	C	0.192208	0.633738	-0.000004
N51	N	0.195100	0.628589	-0.060404
N52	N	0.137513	0.628587	-0.060401
C53	C	0.075308	0.633731	-0.000002
C54	C	0.288234	0.670861	-0.037126
C55	C	0.348859	0.670854	-0.037134
C56	C	0.348866	0.596613	0.037105
C57	C	0.288248	0.596615	0.037106
C58	C	0.257933	0.633743	-0.000007
C59	C	0.559526	0.385954	0.037106
C60	C	0.559525	0.325338	0.037109
C61	C	0.633760	0.257910	-0.000010
C62	C	0.708001	0.251098	-0.037119
C63	C	0.708000	0.311714	-0.037115
N64	N	0.689017	0.135111	-0.060419
N65	N	0.689013	0.077532	-0.060422
C66	C	0.633767	0.075277	-0.000022
N67	N	0.578513	0.132783	0.060379
N68	N	0.578515	0.190369	0.060380
C69	C	0.633769	0.192178	-0.000018
C70	C	0.559529	0.016367	0.037092
C71	C	0.559531	-0.044251	0.037097
C72	C	0.708009	-0.118491	-0.037138
C73	C	0.708005	-0.057873	-0.037136
C74	C	0.633763	0.009553	-0.000022
C75	C	0.823844	0.633728	-0.000008
C76	C	0.888356	0.633727	-0.000006
C77	C	0.633762	0.633727	-0.190093
C78	C	0.633763	0.633726	-0.254606
C79	C	0.633765	0.823812	-0.000018
C80	C	0.633766	0.888324	-0.000021
C81	C	0.633770	0.581243	-0.715119
C82	C	0.633764	0.581242	-0.654500
C83	C	0.633766	0.633733	-0.624190
C84	C	0.633753	0.686238	-0.654493
C85	C	0.633750	0.686241	-0.715106
N86	N	0.680123	0.649624	-0.552196
N87	N	0.680127	0.649617	-0.494616
C88	C	0.633772	0.633728	-0.441563
N89	N	0.587422	0.617834	-0.448270
N90	N	0.587422	0.617837	-0.505857
C91	C	0.633768	0.633736	-0.558464
C92	C	0.633773	0.581230	-0.345535
C93	C	0.633762	0.581234	-0.284913
C94	C	0.633759	0.686227	-0.284910
C95	C	0.633761	0.686225	-0.345528
C96	C	0.633772	0.633723	-0.375838
C97	C	0.633761	0.633737	0.190071
C98	C	0.633761	0.633738	0.254583
C99	C	0.443683	0.823816	-0.000022
C100	C	0.379172	0.888329	-0.000025
C101	C	0.443679	0.633741	0.190067
C102	C	0.379167	0.633744	0.254578
C103	C	0.443683	0.823821	0.190060
C104	C	0.379171	0.888335	0.254569
C105	C	0.823841	0.443643	-0.190083
C106	C	0.888353	0.379128	-0.254591
C107	C	0.823841	0.443648	-0.000001
C108	C	0.888352	0.379135	0.000003
C109	C	0.823845	0.633723	-0.190090
C110	C	0.888357	0.633720	-0.254601
C111	C	0.348876	0.881507	-0.037149
C112	C	0.288270	0.942118	-0.037167
C113	C	0.257956	1.009550	-0.000056
C114	C	0.288257	1.016371	0.037069
C115	C	0.348867	0.955761	0.037082
C116	C	0.348872	0.670863	0.321996
C117	C	0.288264	0.670863	0.382616
C118	C	0.257949	0.633748	0.375818
C119	C	0.288250	0.596624	0.308394
C120	C	0.348860	0.596620	0.247774
C121	C	0.348877	0.955755	0.247744
C122	C	0.288270	1.016379	0.308351
C123	C	0.257955	1.009582	0.375782
C124	C	0.288255	0.942156	0.382605
C125	C	0.348865	0.881533	0.321999
C126	C	0.918654	0.311709	-0.247767
C127	C	0.979280	0.251085	-0.308374
C128	C	1.009598	0.257882	-0.375804
C129	C	0.979294	0.325308	-0.382628
C130	C	0.918674	0.385931	-0.322022
C131	C	0.918654	0.385957	0.037120
C132	C	0.979277	0.325346	0.037121
C133	C	1.009593	0.257914	0.000008
C134	C	0.979289	0.251093	-0.037114
C135	C	0.918671	0.311703	-0.037119
C136	C	0.918653	0.670843	-0.247780
C137	C	0.979261	0.670854	-0.308389
C138	C	1.009576	0.633738	-0.375818
C139	C	0.979274	0.596614	-0.382638
C140	C	0.918663	0.596608	-0.322029
H141	H	-0.106028	0.701079	-0.067340
N142	N	0.379850	0.708764	0.328938
N143	N	0.433970	0.708759	0.274817
H144	H	0.455850	0.735524	0.279723
N145	N	0.633775	0.527603	-0.376487
N146	N	0.633770	0.480740	-0.349418
H147	H	0.633768	0.442866	-0.371275
H148	H	0.263553	0.701090	-0.067349
H149	H	1.003982	0.196182	-0.067331
N150	N	0.257277	0.558720	0.301443
N151	N	0.284322	0.525582	0.241248
H152	H	0.262443	0.498816	0.236339
N153	N	1.071522	0.195947	-0.437702
N154	N	1.098565	0.135757	-0.431590
H155	H	1.142298	0.092012	-0.475302
H156	H	0.499072	0.440852	0.067322
N157	N	0.887729	0.304716	-0.075038
N158	N	0.914809	0.244502	-0.108168
H159	H	0.892960	0.239561	-0.134952
N160	N	1.071495	0.633735	-0.437732
N161	N	1.098561	0.600594	-0.497936
H162	H	1.142292	0.600593	-0.541661
N163	N	0.196044	1.071503	0.437694
N164	N	0.209572	1.081997	0.481324
H165	H	0.165845	1.125731	0.525048
N166	N	1.010251	0.558708	-0.451523
N167	N	1.064370	0.558723	-0.505625
H168	H	1.086254	0.531949	-0.554278
N169	N	0.010226	0.708762	-0.075049
N170	N	-0.016840	0.741900	-0.108190
H171	H	0.005023	0.768674	-0.134978
H172	H	0.894002	0.566375	-0.327593
H173	H	0.893980	0.701067	-0.192881
H174	H	1.003927	0.701084	-0.302822
H175	H	0.003970	0.566381	0.067328
H176	H	0.373557	0.826606	-0.067378
N177	N	0.633747	0.739854	-0.623522
N178	N	0.633750	0.739845	-0.569403
H179	H	0.633741	0.777715	-0.547527
N180	N	-0.112265	0.558671	0.075019
N181	N	-0.085192	0.525529	0.108153
H182	H	-0.107042	0.498742	0.134930
N183	N	0.379801	0.708775	-0.075053
N184	N	0.352724	0.741919	-0.108185
H185	H	0.374577	0.768703	-0.134966
H186	H	0.263600	0.701096	0.437510
N187	N	0.633738	0.739873	-0.746047
N188	N	0.633731	0.786741	-0.718977
H189	H	0.633723	0.824620	-0.740830
H190	H	0.263606	1.071274	0.302783
H191	H	0.373549	0.566389	0.067324
H192	H	0.263578	0.566389	0.067330
H193	H	0.499074	0.330887	0.067327
H194	H	0.208603	1.058897	-0.000072
N195	N	0.783823	0.182219	-0.075026
N196	N	0.783815	0.128103	-0.075026
H197	H	0.837366	0.079456	-0.101796
N198	N	0.887683	0.454837	0.075032
N199	N	0.813270	0.496948	0.123907
H200	H	0.791401	0.545595	0.150681
H201	H	0.768451	0.306160	-0.067331
N202	N	0.887705	0.454796	-0.329000
N203	N	0.813293	0.496893	-0.303477
H204	H	0.791422	0.545529	-0.308410
N205	N	0.196038	0.633760	0.437750
N206	N	0.169000	0.666910	0.497938
H207	H	0.125274	0.666923	0.541681
N208	N	0.379796	0.812673	0.328989
N209	N	0.352715	0.806622	0.389202
H210	H	0.374558	0.757991	0.394145
H211	H	1.058952	0.208567	0.000018
N212	N	0.483689	0.085238	0.075001
N213	N	0.417413	0.091310	0.108135
H214	H	0.363849	0.139949	0.134908
H215	H	0.499080	-0.038697	0.067320
N216	N	1.010216	0.332335	0.075045
N217	N	0.983130	0.392549	0.108183
H218	H	1.004979	0.397488	0.134968
N219	N	0.633768	0.527615	-0.746061
N220	N	0.576367	0.521166	-0.710587
H221	H	0.576364	0.483290	-0.732439
N222	N	0.633765	0.527617	-0.253948
N223	N	0.576361	0.544603	-0.191424
H224	H	0.576363	0.506736	-0.169553
H225	H	0.633755	0.728968	-0.260230
N226	N	0.783832	-0.187366	-0.075045
N227	N	0.783825	-0.241482	-0.075043
H228	H	0.837377	-0.290130	-0.101814
N229	N	0.633773	0.527612	-0.623552
N230	N	0.633781	0.480742	-0.650621
H231	H	0.633788	0.442864	-0.628766
H232	H	1.003943	0.196190	-0.302804
H233	H	0.768453	-0.063425	-0.067358
H234	H	0.633759	0.728969	-0.370200
N235	N	1.010280	0.332232	-0.451514
N236	N	1.064403	0.278094	-0.505615
H237	H	1.086287	0.282981	-0.554269
N238	N	0.257334	0.935129	-0.075095
N239	N	0.284405	0.874915	-0.108217
H240	H	0.262559	0.869976	-0.135004
H241	H	0.373519	0.566395	0.192882
N242	N	0.257292	1.085254	0.074969
N243	N	0.264056	1.127359	0.042657
H244	H	0.242182	1.176010	0.069427
N245	N	0.379799	0.962748	0.075011
N246	N	0.352720	1.022962	0.108141
H247	H	0.374563	1.027903	0.134930
H248	H	0.263564	0.936632	0.437516
N249	N	0.379855	0.962695	0.178865
N250	N	0.433974	0.908571	0.124751
H251	H	0.455854	0.913477	0.076105
H252	H	0.893972	0.306162	-0.192867
