data_functionalizedCrystal
_audit_creation_method	'MofGen! by Chris Wilmer'
_symmetry_space_group_name_H-M	'P1'
_symmetry_Int_Tables_number	1
_symmetry_cell_setting	triclinic
loop_
_symmetry_equiv_pos_as_xyz
  x,y,z
_cell_length_a	16.109318
_cell_length_b	16.109304
_cell_length_c	15.186229
_cell_angle_alpha	89.999066
_cell_angle_beta	90.000224
_cell_angle_gamma	83.465600
loop_
_atom_site_label
_atom_site_type_symbol
_atom_site_fract_x
_atom_site_fract_y
_atom_site_fract_z
O1	O	1.103123	0.106935	-0.073150
O2	O	1.603123	0.606935	0.426850
O3	O	0.861063	0.120219	-0.073167
O4	O	1.361063	0.620219	0.426833
O5	O	0.988741	-0.007454	-0.073158
O6	O	1.488741	0.492546	0.426842
O7	O	0.975444	0.234607	-0.073158
O8	O	1.475444	0.734607	0.426842
O9	O	0.988733	-0.007456	0.073299
O10	O	1.488733	0.492544	0.573299
O11	O	0.861054	0.120217	0.073290
O12	O	1.361054	0.620217	0.573290
O13	O	1.103114	0.106933	0.073308
O14	O	1.603114	0.606933	0.573308
Zn15	Zn	0.982083	0.113575	0.096552
Zn16	Zn	1.482083	0.613575	0.596552
Zn17	Zn	0.982094	0.113577	-0.096412
Zn18	Zn	1.482094	0.613577	0.403588
O19	O	0.975436	0.234605	0.073299
O20	O	1.475436	0.734605	0.573299
C21	C	0.830084	0.119677	0.000059
C22	C	1.330084	0.619677	0.500059
C23	C	0.737789	0.118056	0.000053
C24	C	1.237789	0.618056	0.500053
C25	C	0.438720	0.112822	-0.079766
C26	C	0.938720	0.612822	0.420234
C27	C	0.525442	0.114340	-0.079771
C28	C	1.025442	0.614340	0.420229
C29	C	0.525451	0.114326	0.079905
C30	C	1.025451	0.614326	0.579905
C31	C	0.438732	0.112803	0.079909
C32	C	0.938732	0.612803	0.579909
C33	C	0.395368	0.112055	0.000071
C34	C	0.895368	0.612055	0.500071
C35	C	0.568809	0.115096	0.000062
C36	C	1.068809	0.615096	0.500062
C37	C	0.662836	0.116741	0.000056
C38	C	1.162836	0.616741	0.500056
C39	C	0.301336	0.110408	0.000076
C40	C	0.801336	0.610408	0.500076
C41	C	0.988198	-0.038430	0.000068
C42	C	1.488198	0.461570	0.500068
C43	C	0.986582	-0.130725	0.000062
C44	C	1.486582	0.369275	0.500062
C45	C	0.982853	-0.343061	-0.079769
C46	C	1.482853	0.156939	0.420231
C47	C	0.981327	-0.429782	-0.079768
C48	C	1.481327	0.070218	0.420232
C49	C	0.981322	-0.429781	0.079908
C50	C	1.481322	0.070219	0.579908
C51	C	0.982842	-0.343061	0.079906
C52	C	1.482842	0.156939	0.579906
C53	C	0.983612	-0.299704	0.000065
C54	C	1.483612	0.200296	0.500065
C55	C	0.980565	-0.473144	0.000068
C56	C	1.480565	0.026856	0.500068
C57	C	0.978911	-0.567170	0.000069
C58	C	1.478911	-0.067170	0.500069
C59	C	0.985265	-0.205672	0.000064
C60	C	1.485265	0.294328	0.500064
C61	C	1.134093	0.107474	0.000079
C62	C	1.634093	0.607474	0.500079
C63	C	1.226388	0.109095	0.000080
C64	C	1.726388	0.609095	0.500080
C65	C	0.975979	0.265581	0.000070
C66	C	1.475979	0.765581	0.500070
C67	C	0.977595	0.357876	0.000071
C68	C	1.477595	0.857876	0.500071
N69	N	0.982081	0.113572	0.228245
N70	N	1.482081	0.613572	0.728245
N71	N	0.982102	0.113572	-0.228104
N72	N	1.482102	0.613572	0.271896
C73	C	1.038636	0.057058	0.453972
C74	C	1.538636	0.557058	0.953972
C75	C	1.038639	0.057056	0.546161
C76	C	1.538639	0.557056	1.046161
C77	C	0.925541	0.170090	0.546163
C78	C	1.425541	0.670090	1.046163
C79	C	0.925535	0.170087	0.453975
C80	C	1.425535	0.670087	0.953975
C81	C	0.982088	0.113572	0.407881
C82	C	1.482088	0.613572	0.907881
C83	C	0.982096	0.113573	0.592259
C84	C	1.482096	0.613573	1.092259
C85	C	0.982099	0.113571	0.692215
C86	C	1.482099	0.613571	1.192215
C87	C	0.982084	0.113573	0.307919
C88	C	1.482084	0.613573	0.807919
H89	H	0.983477	-0.307763	-0.144780
H90	H	1.483477	0.192237	0.355220
O91	O	0.980444	-0.471917	-0.157296
O92	O	1.480444	0.028083	0.342704
C93	C	0.907612	-0.512661	-0.162069
C94	C	1.407612	-0.012661	0.337931
H95	H	0.857771	-0.479933	-0.116768
H96	H	1.357771	0.020067	0.383232
H97	H	0.883444	-0.510477	-0.232682
H98	H	1.383444	-0.010477	0.267318
H99	H	0.922725	-0.580517	-0.140619
H100	H	1.422725	-0.080517	0.359381
O101	O	1.093433	0.002089	0.409119
O102	O	1.593433	0.502089	0.909119
C103	C	1.048889	-0.049229	0.355844
C104	C	1.548889	0.450771	0.855844
H105	H	0.983843	-0.016106	0.342015
H106	H	1.483843	0.483894	0.842015
H107	H	1.083588	-0.062427	0.291024
H108	H	1.583588	0.437573	0.791024
H109	H	1.043217	-0.110651	0.391412
H110	H	1.543217	0.389349	0.891412
H111	H	0.560735	0.114963	-0.144782
H112	H	1.060735	0.614963	0.355218
O113	O	0.870683	0.225105	0.409238
O114	O	1.370683	0.725105	0.909238
C115	C	0.884162	0.307414	0.431773
C116	C	1.384162	0.807414	0.931773
H117	H	0.950724	0.307845	0.457111
H118	H	1.450724	0.807845	0.957111
H119	H	0.874584	0.349133	0.371143
H120	H	1.374584	0.849133	0.871143
H121	H	0.838077	0.331821	0.485285
H122	H	1.338077	0.831821	0.985285
H123	H	0.879498	0.216104	0.583701
H124	H	1.379498	0.716104	1.083701
O125	O	1.093493	0.002192	0.591069
O126	O	1.593493	0.502192	1.091069
C127	C	1.081387	0.014321	0.682321
C128	C	1.581387	0.514321	1.182321
H129	H	1.015282	0.045369	0.694916
H130	H	1.515282	0.545369	1.194916
H131	H	1.090659	-0.048640	0.717357
H132	H	1.590659	0.451360	1.217357
H133	H	1.128431	0.056038	0.708480
H134	H	1.628431	0.556038	1.208480
H135	H	0.403416	0.112212	-0.144775
H136	H	0.903416	0.612212	0.355225
H137	H	0.403434	0.112178	0.144926
H138	H	0.903434	0.612178	0.644926
O139	O	0.567699	0.115100	0.157376
O140	O	1.067699	0.615100	0.657376
C141	C	0.653538	0.116591	0.140255
C142	C	1.153538	0.616591	0.640255
H143	H	0.661929	0.143109	0.071643
H144	H	1.161929	0.643109	0.571643
H145	H	0.681208	0.157509	0.191242
H146	H	1.181208	0.657509	0.691242
H147	H	0.686889	0.050364	0.144036
H148	H	1.186889	0.550364	0.644036
H149	H	0.980697	-0.465093	0.144911
H150	H	1.480697	0.034907	0.644911
O151	O	0.983613	-0.301072	0.157541
O152	O	1.483613	0.198928	0.657541
C153	C	0.982593	-0.357931	0.228011
C154	C	1.482593	0.142069	0.728011
H155	H	1.007819	-0.423197	0.204613
H156	H	1.507819	0.076803	0.704613
H157	H	1.023368	-0.338157	0.283849
H158	H	1.523368	0.161843	0.783849
H159	H	0.915771	-0.358418	0.252554
H160	H	1.415771	0.141582	0.752554
