data_functionalizedCrystal
_audit_creation_method	'MofGen! by Chris Wilmer'
_symmetry_space_group_name_H-M	'P1'
_symmetry_Int_Tables_number	1
_symmetry_cell_setting	triclinic
loop_
_symmetry_equiv_pos_as_xyz
  x,y,z
_cell_length_a	14.853558
_cell_length_b	15.944545
_cell_length_c	13.330367
_cell_angle_alpha	89.993254
_cell_angle_beta	89.992972
_cell_angle_gamma	83.563653
loop_
_atom_site_label
_atom_site_type_symbol
_atom_site_fract_x
_atom_site_fract_y
_atom_site_fract_z
O1	O	1.196231	0.109628	-0.083416
O2	O	0.933753	0.122700	-0.083421
O3	O	1.072162	-0.006104	-0.083407
O4	O	1.057821	0.238431	-0.083431
O5	O	1.072142	-0.006107	0.083441
O6	O	0.933733	0.122697	0.083426
O7	O	1.196211	0.109625	0.083431
Cu8	Cu	1.064970	0.116160	0.098663
Cu9	Cu	1.064994	0.116164	-0.098653
O10	O	1.057801	0.238428	0.083416
C11	C	0.900155	0.122107	0.000002
C12	C	0.800073	0.120337	0.000000
C13	C	0.753065	0.119508	-0.090952
C14	C	0.753041	0.119495	0.090951
C15	C	0.659010	0.117826	0.090953
C16	C	0.612002	0.116998	0.000001
C17	C	0.659025	0.117837	-0.090953
C18	C	0.611981	0.116978	0.181905
C19	C	0.517944	0.115309	0.181911
C20	C	0.470933	0.114486	0.090958
C21	C	0.517962	0.115327	-0.000000
C22	C	0.470954	0.114498	-0.090952
C23	C	0.517980	0.115344	-0.181911
C24	C	0.612014	0.117014	-0.181906
C25	C	0.376899	0.112817	0.090953
C26	C	0.376914	0.112827	-0.090953
C27	C	1.071558	-0.037400	0.000018
C28	C	1.069776	-0.130648	0.000021
C29	C	0.978659	-0.401380	-0.000001
C30	C	1.022598	-0.350745	-0.082265
C31	C	1.063421	-0.466299	-0.000008
C32	C	1.022601	-0.350775	0.082233
C33	C	1.066539	-0.301382	0.000008
C34	C	1.107338	-0.416893	-0.082340
C35	C	1.107328	-0.416926	0.082232
C36	C	1.151330	-0.366324	-0.000052
C37	C	1.061623	-0.561303	-0.000018
C38	C	1.068344	-0.206381	0.000010
C39	C	1.229809	0.110217	0.000006
C40	C	1.329890	0.111988	0.000001
C41	C	1.058405	0.269724	-0.000010
C42	C	1.060187	0.362973	-0.000020
N43	N	1.064960	0.116158	0.237444
N44	N	1.065011	0.116160	-0.237435
C45	C	1.003703	0.173176	0.710061
C46	C	1.126308	0.059146	0.710042
C47	C	1.126298	0.059143	0.605023
C48	C	1.064990	0.116158	0.552519
C49	C	1.003693	0.173176	0.605033
C50	C	1.187600	0.002132	0.552502
C51	C	1.187593	0.002128	0.447477
C52	C	1.126281	0.059140	0.394971
C53	C	1.064980	0.116159	0.447491
C54	C	1.003673	0.173175	0.394986
C55	C	0.942367	0.230191	0.447505
C56	C	0.942380	0.230189	0.552526
C57	C	1.126267	0.059142	0.289949
C58	C	1.003662	0.173176	0.289958
H59	H	0.650312	0.117702	-0.255960
N60	N	0.328903	0.111962	-0.183862
N61	N	0.284754	0.051863	-0.204155
H62	H	0.250846	0.051250	-0.269773
N63	N	1.152231	-0.452956	-0.169689
N64	N	1.233737	-0.444301	-0.184756
H65	H	1.265441	-0.469770	-0.246447
N66	N	0.977689	-0.314557	0.169492
N67	N	1.020130	-0.274847	0.231098
H68	H	0.988407	-0.249269	0.292722
N69	N	0.977720	-0.314481	-0.169518
N70	N	1.020190	-0.274752	-0.231099
H71	H	0.988492	-0.249144	-0.292721
H72	H	0.953735	0.219602	0.247215
N73	N	0.328861	0.111968	0.183852
N74	N	0.268078	0.170200	0.204148
H75	H	0.234151	0.169603	0.269764
H76	H	1.224385	-0.350754	-0.000097
H77	H	0.905660	-0.417111	-0.000083
N78	N	1.152180	-0.453192	0.169491
N79	N	1.123251	-0.431833	0.254848
H80	H	1.154921	-0.457447	0.316483
N81	N	0.660005	0.117868	0.274794
N82	N	0.641182	0.176857	0.335667
H83	H	0.675107	0.177498	0.401270
N84	N	0.469961	0.114478	-0.274814
N85	N	0.425810	0.054378	-0.295098
H86	H	0.391893	0.053763	-0.360709
N87	N	0.879758	0.288443	0.393868
N88	N	0.908364	0.340631	0.335256
H89	H	0.864150	0.381772	0.297371
N90	N	0.469911	0.114476	0.274820
N91	N	0.409135	0.172716	0.295107
H92	H	0.375211	0.172134	0.360726
H93	H	0.892468	0.276610	0.595293
H94	H	0.953786	0.219595	0.752824
N95	N	1.188943	0.000934	0.763685
N96	N	1.188956	0.000955	0.857454
H97	H	1.233199	-0.040155	0.895345
H98	H	1.237520	-0.044285	0.595254
N99	N	1.250235	-0.056113	0.393870
N100	N	1.249032	-0.133758	0.405622
H101	H	1.293282	-0.174889	0.367768
N102	N	0.801107	0.120382	-0.183851
N103	N	0.885065	0.121882	-0.183844
H104	H	0.918996	0.122501	-0.249455
N105	N	0.801071	0.120330	0.183842
N106	N	0.885030	0.121815	0.183829
H107	H	0.918956	0.122405	0.249437
N108	N	1.188805	0.000827	0.236319
N109	N	1.243484	-0.050125	0.283210
H110	H	1.287621	-0.091346	0.245335
