data_functionalizedCrystal
_audit_creation_method	'MofGen! by Chris Wilmer'
_symmetry_space_group_name_H-M	'P1'
_symmetry_Int_Tables_number	1
_symmetry_cell_setting	triclinic
loop_
_symmetry_equiv_pos_as_xyz
  x,y,z
_cell_length_a	6.817900
_cell_length_b	11.168121
_cell_length_c	16.015572
_cell_angle_alpha	76.765931
_cell_angle_beta	104.485554
_cell_angle_gamma	108.508496
loop_
_atom_site_label
_atom_site_type_symbol
_atom_site_fract_x
_atom_site_fract_y
_atom_site_fract_z
V1	V	-3.999072	-0.050929	-0.269395
O2	O	-3.960769	0.129811	-0.264259
O3	O	-3.976115	-0.223478	-0.267560
O4	O	-3.927036	0.005739	-0.386884
O5	O	-4.010187	-0.100993	-0.144109
V6	V	-4.482466	-0.035914	-0.254409
O7	O	-4.260614	-0.083867	-0.302268
O8	O	-4.671122	-0.002977	-0.221536
O9	O	-4.282217	0.136635	-0.256244
O10	O	-4.638166	-0.216654	-0.259545
O11	O	-4.588748	0.014149	-0.379695
O12	O	-4.331295	-0.092583	-0.136920
C13	C	-3.828070	-0.267288	-0.263312
C14	C	-3.890428	-0.407989	-0.262594
C15	C	-4.091383	-0.474945	-0.266372
C16	C	-4.155839	-0.620367	-0.265631
C17	C	-3.765464	0.025102	-0.415521
C18	C	-3.788019	0.070293	-0.511569
C19	C	-4.135798	-0.330821	-0.889218
C20	C	-4.156989	-0.288316	-0.979466
C21	C	-4.047576	-0.068411	-0.954750
C22	C	-4.026364	-0.110897	-0.864498
C23	C	-4.070481	-0.242103	-0.831740
C24	C	-3.961048	-0.022180	-0.807020
C25	C	-3.939849	-0.064663	-0.716776
C26	C	-3.983967	-0.195864	-0.684011
C27	C	-4.049283	-0.284587	-0.741497
C28	C	-3.916947	0.109026	-0.839780
C29	C	-3.851630	0.197743	-0.782302
C30	C	-3.830416	0.155261	-0.692056
C31	C	-3.874533	0.024060	-0.659291
C32	C	-3.765100	0.243983	-0.634571
C33	C	-3.743901	0.201500	-0.544327
C34	C	-3.853335	-0.018424	-0.569047
C35	C	-4.093605	0.180437	-0.260490
C36	C	-4.010484	0.321139	-0.261213
C37	C	-4.156211	-0.111952	-0.108278
C38	C	-4.112894	-0.157137	-0.012230
H39	H	-3.838327	-0.621305	-0.257976
H40	H	-3.815723	0.304572	-0.808987
H41	H	-3.934179	0.143613	-0.913263
O42	O	-4.091716	-0.412076	-0.709801
C43	C	-4.200983	-0.625696	-0.743796
C44	C	-4.153429	-0.481373	-0.779819
H45	H	-4.250846	-0.681763	-0.800387
H46	H	-4.333603	-0.654831	-0.705467
H47	H	-4.053540	-0.647332	-0.698851
H48	H	-4.300749	-0.459631	-0.824800
H49	H	-4.020729	-0.452312	-0.818097
H50	H	-3.729206	0.350812	-0.661257
H51	H	-4.011669	0.038418	-0.981435
O52	O	-4.220381	-0.374674	-1.035179
C53	C	-4.326842	-0.597296	-1.050174
C54	C	-4.255010	-0.499638	-0.986982
H55	H	-4.354903	-0.698353	-1.011234
H56	H	-4.199663	-0.579720	-1.089658
H57	H	-4.479299	-0.586106	-1.096426
H58	H	-4.102597	-0.510772	-0.940677
H59	H	-4.382320	-0.517242	-0.947560
O60	O	-4.239855	-0.414936	-0.271035
C61	C	-4.559177	-0.364499	-0.353771
C62	C	-4.391141	-0.432480	-0.348614
H63	H	-4.681559	-0.378683	-0.416479
H64	H	-4.480907	-0.257888	-0.353622
H65	H	-4.639544	-0.406678	-0.294986
H66	H	-4.310718	-0.390408	-0.407386
H67	H	-4.469530	-0.539088	-0.348721
O68	O	-3.680338	0.287849	-0.488607
C69	C	-3.574156	0.510460	-0.473606
C70	C	-3.646063	0.412809	-0.536806
H71	H	-3.546467	0.611511	-0.512551
H72	H	-3.421575	0.499447	-0.427378
H73	H	-3.701351	0.492701	-0.434096
H74	H	-3.519014	0.430507	-0.576374
H75	H	-3.798698	0.423845	-0.582976
O76	O	-3.741861	-0.467912	-0.257961
C77	C	-3.422705	-0.518495	-0.175155
C78	C	-3.590793	-0.450557	-0.180303
H79	H	-3.300548	-0.504511	-0.112365
H80	H	-3.342052	-0.476294	-0.233860
H81	H	-3.501178	-0.625066	-0.175405
H82	H	-3.512484	-0.343982	-0.180026
H83	H	-3.671433	-0.492860	-0.121601
O84	O	-3.963567	-0.236992	-0.596338
C85	C	-4.076351	-0.241774	-0.464234
C86	C	-4.099624	-0.195089	-0.563514
H87	H	-4.186366	-0.207937	-0.437668
H88	H	-3.906546	-0.201253	-0.430829
H89	H	-4.119014	-0.350784	-0.450716
H90	H	-4.057071	-0.086087	-0.577112
H91	H	-4.269438	-0.235706	-0.596867
O92	O	-4.361113	-0.689192	-0.269365
C93	C	-4.612660	-0.861129	-0.198366
C94	C	-4.380099	-0.783306	-0.194039
H95	H	-4.628092	-0.937220	-0.137464
H96	H	-4.670056	-0.909283	-0.258967
H97	H	-4.712035	-0.794425	-0.201848
H98	H	-4.280559	-0.849923	-0.190523
H99	H	-4.322872	-0.735136	-0.133448
H100	H	-3.889232	-0.125265	-0.542374
H101	H	-4.171695	-0.437661	-0.862545
