data_functionalizedCrystal
_audit_creation_method	'MofGen! by Chris Wilmer'
_symmetry_space_group_name_H-M	'P1'
_symmetry_Int_Tables_number	1
_symmetry_cell_setting	triclinic
loop_
_symmetry_equiv_pos_as_xyz
  x,y,z
_cell_length_a	14.044220
_cell_length_b	12.503552
_cell_length_c	14.044220
_cell_angle_alpha	93.839943
_cell_angle_beta	86.811122
_cell_angle_gamma	93.839891
loop_
_atom_site_label
_atom_site_type_symbol
_atom_site_fract_x
_atom_site_fract_y
_atom_site_fract_z
O1	O	1.282207	0.089210	-0.225121
O2	O	1.615540	0.422544	0.108212
O3	O	1.948873	0.755877	0.441546
O4	O	1.005537	0.089237	-0.216814
O5	O	1.338870	0.422571	0.116520
O6	O	1.672204	0.755904	0.449853
O7	O	1.139718	0.089214	-0.082632
O8	O	1.473052	0.422547	0.250701
O9	O	1.806385	0.755880	0.584034
O10	O	1.148025	0.089234	-0.359303
O11	O	1.481359	0.422567	-0.025969
O12	O	1.814692	0.755901	0.307364
O13	O	1.129615	-0.089427	-0.092732
O14	O	1.462949	0.243906	0.240601
O15	O	1.796282	0.577240	0.573935
O16	O	0.995434	-0.089403	-0.226914
O17	O	1.328767	0.243930	0.106420
O18	O	1.662100	0.577263	0.439753
O19	O	1.272104	-0.089430	-0.235221
O20	O	1.605437	0.243903	0.098112
O21	O	1.938770	0.577236	0.431446
Cu22	Cu	1.132846	-0.105728	-0.231989
Cu23	Cu	1.466180	0.227605	0.101344
Cu24	Cu	1.799513	0.560938	0.434677
Cu25	Cu	1.144794	0.105535	-0.220045
Cu26	Cu	1.478128	0.438869	0.113288
Cu27	Cu	1.811461	0.772202	0.446621
O28	O	1.137922	-0.089407	-0.369402
O29	O	1.471255	0.243927	-0.036069
O30	O	1.804589	0.577260	0.297264
C31	C	0.964864	-0.000080	-0.218228
C32	C	1.298197	0.333254	0.115105
C33	C	1.631530	0.666587	0.448439
C34	C	0.858721	-0.000070	-0.207383
C35	C	1.192055	0.333264	0.125951
C36	C	1.525388	0.666597	0.459284
N37	N	1.124449	-0.254319	-0.240390
N38	N	1.457783	0.079014	0.092943
N39	N	1.791116	0.412347	0.426276
C40	C	0.664382	-0.000092	-0.187558
C41	C	0.997716	0.333241	0.145776
C42	C	1.331049	0.666574	0.479109
C43	C	0.613253	-0.000091	-0.264472
C44	C	0.946586	0.333242	0.068861
C45	C	1.279919	0.666575	0.402195
C46	C	0.505116	-0.000104	-0.253441
C47	C	0.838449	0.333229	0.079892
C48	C	1.171782	0.666563	0.413225
C49	C	0.772529	-0.000080	-0.198587
C50	C	1.105863	0.333254	0.134746
C51	C	1.439196	0.666587	0.468079
C52	C	1.165545	-0.526760	-0.199276
C53	C	1.498878	-0.193426	0.134058
C54	C	1.832211	0.139907	0.467391
C55	C	1.112106	-0.473426	-0.252749
C56	C	1.445439	-0.140093	0.080584
C57	C	1.778772	0.193240	0.413918
C58	C	1.118975	-0.351504	-0.245871
C59	C	1.452309	-0.018171	0.087462
C60	C	1.785642	0.315163	0.420796
C61	C	1.158676	-0.648693	-0.206153
C62	C	1.492009	-0.315360	0.127180
C63	C	1.825343	0.017973	0.460514
C64	C	1.312777	-0.000111	-0.233807
C65	C	1.646110	0.333222	0.099527
C66	C	1.979444	0.666556	0.432860
C67	C	1.418920	-0.000114	-0.244651
C68	C	1.752253	0.333219	0.088682
C69	C	2.085586	0.666553	0.422015
C70	C	1.131031	-0.000107	-0.052060
C71	C	1.464365	0.333227	0.281273
C72	C	1.797698	0.666560	0.614606
C73	C	1.120187	-0.000107	0.054082
C74	C	1.453520	0.333226	0.387416
C75	C	1.786853	0.666560	0.720749
N76	N	1.153198	0.254126	-0.211637
N77	N	1.486531	0.587460	0.121696
N78	N	1.819865	0.920793	0.455029
C79	C	1.146609	-0.000084	-0.399974
C80	C	1.479943	0.333249	-0.066641
C81	C	1.813276	0.666583	0.266692
C82	C	1.157454	-0.000077	-0.506117
C83	C	1.490788	0.333257	-0.172783
C84	C	1.824121	0.666590	0.160550
C85	C	1.100361	-0.000090	0.248421
C86	C	1.433695	0.333244	0.581754
C87	C	1.767028	0.666577	0.915088
C88	C	1.177275	-0.000094	0.299551
C89	C	1.510609	0.333239	0.632884
C90	C	1.843942	0.666573	0.966217
C91	C	1.166244	-0.000084	0.407687
C92	C	1.499578	0.333249	0.741021
C93	C	1.832911	0.666582	1.074354
C94	C	1.111391	-0.000099	0.140274
C95	C	1.444724	0.333234	0.473608
C96	C	1.778058	0.666567	0.806941
H97	H	0.650692	-0.000081	-0.338605
H98	H	0.984026	0.333253	-0.005272
H99	H	1.317359	0.666586	0.328062
H100	H	1.061196	-0.519333	-0.303695
H101	H	1.394529	-0.186000	0.029638
H102	H	1.727863	0.147334	0.362971
H103	H	0.626945	-0.000104	-0.113431
H104	H	0.960278	0.333230	0.219902
H105	H	1.293612	0.666563	0.553236
H106	H	1.216452	-0.480859	-0.148334
H107	H	1.549786	-0.147525	0.184999
H108	H	1.883119	0.185808	0.518332
H109	H	1.251413	-0.000029	0.262115
H110	H	1.584746	0.333304	0.595449
H111	H	1.918079	0.666638	0.928782
H112	H	1.026234	-0.000080	0.285859
H113	H	1.359568	0.333253	0.619192
H114	H	1.692901	0.666587	0.952525
