data_functionalizedCrystal
_audit_creation_method	'MofGen! by Chris Wilmer'
_symmetry_space_group_name_H-M	'P1'
_symmetry_Int_Tables_number	1
_symmetry_cell_setting	triclinic
loop_
_symmetry_equiv_pos_as_xyz
  x,y,z
_cell_length_a	13.897449
_cell_length_b	12.594509
_cell_length_c	13.897448
_cell_angle_alpha	89.969579
_cell_angle_beta	90.018519
_cell_angle_gamma	89.977480
loop_
_atom_site_label
_atom_site_type_symbol
_atom_site_fract_x
_atom_site_fract_y
_atom_site_fract_z
Zn1	Zn	1.474694	-0.601878	-0.383965
Zn2	Zn	1.974694	-0.101878	0.116035
Zn3	Zn	1.474591	-0.423892	-0.545286
Zn4	Zn	1.974591	0.076108	-0.045286
Zn5	Zn	1.313386	-0.423903	-0.384009
Zn6	Zn	1.813386	0.076097	0.115991
Zn7	Zn	1.313365	-0.601819	-0.545222
Zn8	Zn	1.813365	-0.101819	-0.045222
O9	O	1.394009	-0.512873	-0.464620
O10	O	1.894009	-0.012873	0.035380
O11	O	1.609662	-0.578288	-0.405372
O12	O	2.109662	-0.078288	0.094628
O13	O	1.453172	-0.274948	-0.523937
O14	O	1.953172	0.225052	-0.023937
O15	O	1.334836	-0.447541	-0.249021
O16	O	1.834836	0.052459	0.250979
O17	O	1.609586	-0.447523	-0.523894
O18	O	2.109586	0.052477	-0.023894
O19	O	1.453348	-0.578298	-0.248989
O20	O	1.953348	-0.078298	0.251011
O21	O	1.334735	-0.274956	-0.405448
O22	O	1.834735	0.225044	0.094552
O23	O	1.178402	-0.447483	-0.405386
O24	O	1.678402	0.052517	0.094614
O25	O	1.334800	-0.750772	-0.523785
O26	O	1.834800	-0.250772	-0.023785
O27	O	1.178386	-0.578197	-0.523828
O28	O	1.678386	-0.078197	-0.023828
O29	O	1.453328	-0.750816	-0.405310
O30	O	1.953328	-0.250816	0.094690
O31	O	1.453152	-0.447466	-0.680259
O32	O	1.953152	0.052534	-0.180259
O33	O	1.334700	-0.578187	-0.680212
O34	O	1.834700	-0.078187	-0.180212
C35	C	1.143395	-0.512836	-0.464605
C36	C	1.643395	-0.012836	0.035395
C37	C	1.036181	-0.512845	-0.464622
C38	C	1.536181	-0.012845	0.035378
C39	C	0.949111	-0.512863	-0.464625
C40	C	1.449111	-0.012863	0.035375
C41	C	0.839879	-0.512895	-0.464632
C42	C	1.339879	-0.012895	0.035368
C43	C	1.394074	-0.790494	-0.464536
C44	C	1.894074	-0.290494	0.035464
C45	C	1.394101	-0.908800	-0.464500
C46	C	1.894101	-0.408800	0.035500
C47	C	1.329654	-0.978029	-0.528901
C48	C	1.829654	-0.478029	-0.028901
C49	C	1.417669	-1.048821	-0.552468
C50	C	1.917669	-0.548821	-0.052468
C51	C	1.306155	-1.048807	-0.440875
C52	C	1.806155	-0.548807	0.059125
C53	C	1.482162	-0.978033	-0.488113
C54	C	1.982162	-0.478033	0.011887
C55	C	1.370589	-0.978013	-0.376478
C56	C	1.870589	-0.478013	0.123522
C57	C	1.458664	-1.048773	-0.400011
C58	C	1.958664	-0.548773	0.099989
C59	C	1.645602	-0.512911	-0.464636
C60	C	2.145602	-0.012911	0.035364
C61	C	1.752816	-0.512927	-0.464642
C62	C	2.252816	-0.012927	0.035358
C63	C	1.393939	-0.512842	-0.715234
C64	C	1.893939	-0.012842	-0.215234
C65	C	1.393997	-0.512865	-0.822448
C66	C	1.893997	-0.012865	-0.322448
C67	C	1.394000	-0.236332	-0.464635
C68	C	1.894000	0.263668	0.035365
C69	C	1.394160	-0.118027	-0.464399
C70	C	1.894160	0.381973	0.035601
C71	C	1.394098	-0.512931	-1.018743
C72	C	1.894098	-0.012931	-0.518743
C73	C	1.394039	-0.512897	-0.909511
C74	C	1.894039	-0.012897	-0.409511
C75	C	1.394106	-0.512927	-0.213027
C76	C	1.894106	-0.012927	0.286973
C77	C	1.394147	-0.512950	-0.105813
C78	C	1.894147	-0.012950	0.394187
H79	H	1.275196	-0.946968	-0.583449
H80	H	1.775196	-0.446968	-0.083449
Br81	Br	1.549643	-1.100226	-0.309164
Br82	Br	2.049643	-0.600226	0.190836
H83	H	1.556582	-0.947075	-0.508137
H84	H	2.056582	-0.447075	-0.008137
H85	H	1.231756	-1.079896	-0.420935
H86	H	1.731756	-0.579896	0.079065
Br87	Br	1.450872	-1.100660	-0.676463
Br88	Br	1.950872	-0.600660	-0.176463
Br89	Br	1.337349	-0.926131	-0.252515
Br90	Br	1.837349	-0.426131	0.247485
