data_functionalizedCrystal
_audit_creation_method	'MofGen! by Chris Wilmer'
_symmetry_space_group_name_H-M	'P1'
_symmetry_Int_Tables_number	1
_symmetry_cell_setting	triclinic
loop_
_symmetry_equiv_pos_as_xyz
  x,y,z
_cell_length_a	12.645331
_cell_length_b	12.645323
_cell_length_c	13.897448
_cell_angle_alpha	90.028168
_cell_angle_beta	89.983329
_cell_angle_gamma	89.977324
loop_
_atom_site_label
_atom_site_type_symbol
_atom_site_fract_x
_atom_site_fract_y
_atom_site_fract_z
Zn1	Zn	1.620731	-0.599422	0.384034
Zn2	Zn	1.620613	-0.422152	0.545348
Zn3	Zn	1.443446	-0.422166	0.384066
Zn4	Zn	1.443428	-0.599367	0.545285
O5	O	1.532054	-0.510777	0.464683
O6	O	1.769063	-0.575924	0.405445
O7	O	1.597069	-0.273806	0.523994
O8	O	1.467020	-0.445709	0.249080
O9	O	1.768976	-0.445684	0.523962
O10	O	1.597271	-0.575938	0.249056
O11	O	1.466906	-0.273817	0.405501
O12	O	1.295096	-0.445656	0.405439
O13	O	1.466989	-0.747722	0.523855
O14	O	1.295083	-0.575844	0.523887
O15	O	1.597253	-0.747762	0.405384
O16	O	1.597052	-0.445631	0.680322
O17	O	1.466874	-0.575830	0.680275
C18	C	1.256625	-0.510746	0.464660
C19	C	1.138795	-0.510758	0.464674
C20	C	0.971204	-0.429308	0.389816
C21	C	1.093763	-0.428949	0.390010
C22	C	1.094274	-0.480237	0.566286
C23	C	0.971676	-0.479681	0.565877
C24	C	0.971645	-0.623044	0.438886
C25	C	1.094251	-0.622420	0.436616
C26	C	1.532132	-0.787282	0.464609
C27	C	1.532166	-0.905112	0.464577
C28	C	1.449964	-1.072651	0.538756
C29	C	1.450179	-0.950091	0.539123
C30	C	1.643865	-0.949631	0.492166
C31	C	1.643414	-1.072229	0.492631
C32	C	1.503724	-1.072317	0.362395
C33	C	1.501232	-0.949710	0.363007
C34	C	1.808560	-0.510808	0.464707
C35	C	1.926390	-0.510822	0.464717
C36	C	1.531977	-0.510746	0.715298
C37	C	1.532041	-0.510768	0.822512
C38	C	1.532038	-0.235347	0.464688
C39	C	1.532210	-0.117518	0.464448
C40	C	1.532161	-0.510831	0.213090
C41	C	1.532206	-0.510854	0.105876
C42	C	1.532152	-0.510835	1.018807
C43	C	1.532087	-0.510801	0.909574
H44	H	1.123355	-0.645435	0.361841
C45	C	1.135658	-0.708859	0.504947
N46	N	1.166843	-0.773961	0.556423
H47	H	1.563628	-1.101334	0.307032
H48	H	0.941740	-0.448234	0.314240
C49	C	1.677042	-0.908174	0.591899
N50	N	1.702024	-0.876951	0.667021
H51	H	1.123864	-0.448081	0.314660
C52	C	1.337728	-1.112460	0.515652
N53	N	1.253190	-1.142452	0.498249
C54	C	1.728875	-0.910270	0.421367
N55	N	1.792904	-0.880620	0.368042
C56	C	1.133321	-0.316603	0.413080
N57	N	1.163115	-0.231979	0.430461
C58	C	0.929513	-0.317624	0.412610
N59	N	0.898109	-0.233504	0.429781
C60	C	0.932974	-0.368845	0.595459
N61	N	0.903829	-0.285358	0.617736
H62	H	1.124930	-0.399077	0.588568
H63	H	0.942031	-0.536463	0.623574
H64	H	1.423691	-1.103222	0.337247
C65	C	1.390204	-0.910357	0.334875
N66	N	1.306584	-0.880694	0.313681
H67	H	1.123444	-0.537744	0.623585
H68	H	0.940749	-0.650800	0.366084
H69	H	0.942666	-0.683779	0.493441
H70	H	1.367350	-0.919990	0.521859
C71	C	1.475129	-1.114263	0.640330
N72	N	1.494091	-1.145601	0.716837
H73	H	1.468983	-0.920772	0.614780
H74	H	1.667559	-1.100835	0.567234
C75	C	1.729022	-1.112330	0.422706
N76	N	1.793508	-1.142530	0.370046
H77	H	1.556760	-0.919093	0.304716
