data_functionalizedCrystal
_audit_creation_method	'MofGen! by Chris Wilmer'
_symmetry_space_group_name_H-M	'P1'
_symmetry_Int_Tables_number	1
_symmetry_cell_setting	triclinic
loop_
_symmetry_equiv_pos_as_xyz
  x,y,z
_cell_length_a	16.109302
_cell_length_b	19.188930
_cell_length_c	15.186229
_cell_angle_alpha	89.991143
_cell_angle_beta	89.994701
_cell_angle_gamma	83.303281
loop_
_atom_site_label
_atom_site_type_symbol
_atom_site_fract_x
_atom_site_fract_y
_atom_site_fract_z
O1	O	1.102833	0.089746	-0.073278
O2	O	1.436166	0.423080	0.260055
O3	O	1.769500	0.756413	0.593388
O4	O	0.860734	0.100914	-0.073273
O5	O	1.194067	0.434248	0.260061
O6	O	1.527401	0.767581	0.593394
O7	O	0.988770	-0.006309	-0.073258
O8	O	1.322103	0.327024	0.260075
O9	O	1.655437	0.660358	0.593408
O10	O	0.974797	0.196970	-0.073292
O11	O	1.308130	0.530303	0.260041
O12	O	1.641464	0.863636	0.593374
O13	O	0.988761	-0.006310	0.073199
O14	O	1.322095	0.327023	0.406532
O15	O	1.655428	0.660356	0.739866
O16	O	0.860725	0.100913	0.073185
O17	O	1.194059	0.434246	0.406518
O18	O	1.527392	0.767579	0.739851
O19	O	1.102824	0.089745	0.073179
O20	O	1.436158	0.423078	0.406512
O21	O	1.769491	0.756411	0.739846
Zn22	Zn	0.981774	0.095329	0.096435
Zn23	Zn	1.315107	0.428662	0.429768
Zn24	Zn	1.648440	0.761995	0.763102
Zn25	Zn	0.981785	0.095331	-0.096529
Zn26	Zn	1.315118	0.428664	0.236805
Zn27	Zn	1.648451	0.761997	0.570138
O28	O	0.974788	0.196968	0.073165
O29	O	1.308122	0.530301	0.406498
O30	O	1.641455	0.863635	0.739832
C31	C	0.829756	0.100461	-0.000043
C32	C	1.163090	0.433794	0.333290
C33	C	1.496423	0.767128	0.666624
C34	C	0.737466	0.099105	-0.000040
C35	C	1.070799	0.432438	0.333293
C36	C	1.404132	0.765771	0.666627
C37	C	0.525130	0.095967	0.079786
C38	C	0.858464	0.429300	0.413119
C39	C	1.191797	0.762634	0.746452
C40	C	0.438415	0.094685	0.079783
C41	C	0.771748	0.428018	0.413116
C42	C	1.105081	0.761352	0.746449
C43	C	0.438434	0.094690	-0.079893
C44	C	0.771768	0.428023	0.253440
C45	C	1.105101	0.761357	0.586774
C46	C	0.525149	0.095967	-0.079889
C47	C	0.858483	0.429301	0.253444
C48	C	1.191816	0.762634	0.586777
C49	C	0.568495	0.096609	-0.000047
C50	C	0.901828	0.429943	0.333286
C51	C	1.235161	0.763276	0.666619
C52	C	0.395064	0.094050	-0.000054
C53	C	0.728397	0.427383	0.333279
C54	C	1.061730	0.760717	0.666613
C55	C	0.301043	0.092660	-0.000058
C56	C	0.634376	0.425993	0.333276
C57	C	0.967709	0.759327	0.666609
C58	C	0.662522	0.097998	-0.000043
C59	C	0.995855	0.431331	0.333290
C60	C	1.329189	0.764665	0.666623
C61	C	0.988313	-0.032322	-0.000027
C62	C	1.321646	0.301012	0.333306
C63	C	1.654980	0.634345	0.666640
C64	C	0.986955	-0.109829	-0.000020
C65	C	1.320288	0.223504	0.333314
C66	C	1.653621	0.556837	0.666647
C67	C	1.062082	-0.154578	-0.000017
C68	C	1.395415	0.178756	0.333316
C69	C	1.728749	0.512089	0.666650
C70	C	1.060806	-0.227404	-0.000031
C71	C	1.394139	0.105929	0.333302
C72	C	1.727473	0.439262	0.666635
C73	C	0.984398	-0.255480	-0.000030
C74	C	1.317732	0.077854	0.333303
C75	C	1.651065	0.411187	0.666637
C76	C	0.909261	-0.210722	-0.000037
C77	C	1.242594	0.122612	0.333296
C78	C	1.575928	0.455945	0.666629
C79	C	0.910539	-0.137897	-0.000032
C80	C	1.243873	0.195437	0.333301
C81	C	1.577206	0.528770	0.666634
N82	N	0.925991	-0.363622	0.049814
N83	N	1.259324	-0.030289	0.383147
N84	N	1.592657	0.303045	0.716480
N85	N	0.924782	-0.432803	0.049810
N86	N	1.258115	-0.099470	0.383144
N87	N	1.591448	0.233863	0.716477
C88	C	0.980542	-0.474897	-0.000048
C89	C	1.313876	-0.141564	0.333286
C90	C	1.647209	0.191769	0.666619
N91	N	1.037571	-0.445198	-0.049892
N92	N	1.370904	-0.111865	0.283442
N93	N	1.704237	0.221469	0.616775
N94	N	1.038782	-0.376011	-0.049885
N95	N	1.372116	-0.042677	0.283449
N96	N	1.705449	0.290656	0.616782
C97	C	0.983004	-0.334446	-0.000036
C98	C	1.316337	-0.001112	0.333297
C99	C	1.649670	0.332221	0.666630
C100	C	1.054291	-0.598613	-0.000062
C101	C	1.387624	-0.265280	0.333272
C102	C	1.720958	0.068053	0.666605
C103	C	1.053012	-0.671441	-0.000081
C104	C	1.386345	-0.338108	0.333252
C105	C	1.719679	-0.004774	0.666585
C106	C	0.901465	-0.654757	-0.000079
C107	C	1.234798	-0.321423	0.333255
C108	C	1.568132	0.011910	0.666588
C109	C	0.902746	-0.581931	-0.000068
C110	C	1.236080	-0.248597	0.333265
C111	C	1.569413	0.084736	0.666599
C112	C	0.979162	-0.553864	-0.000055
C113	C	1.312495	-0.220530	0.333278
C114	C	1.645828	0.112803	0.666611
C115	C	1.133802	0.090198	-0.000052
C116	C	1.467135	0.423531	0.333281
C117	C	1.800469	0.756865	0.666614
C118	C	1.226093	0.091555	-0.000061
C119	C	1.559426	0.424888	0.333272
C120	C	1.892759	0.758221	0.666605
N121	N	0.981772	0.095327	0.228128
N122	N	1.315105	0.428660	0.561461
N123	N	1.648439	0.761993	0.894794
C124	C	0.975245	0.222981	-0.000068
C125	C	1.308579	0.556314	0.333265
C126	C	1.641912	0.889648	0.666598
C127	C	0.976604	0.300489	-0.000082
C128	C	1.309937	0.633822	0.333252
C129	C	1.643270	0.967155	0.666585
N130	N	0.981793	0.095327	-0.228221
N131	N	1.315126	0.428660	0.105112
N132	N	1.648460	0.761993	0.438445
C133	C	1.038485	0.047864	0.453857
C134	C	1.371819	0.381198	0.787190
C135	C	1.705152	0.714531	1.120524
C136	C	1.038488	0.047863	0.546047
C137	C	1.371821	0.381196	0.879380
C138	C	1.705155	0.714529	1.212713
C139	C	0.925073	0.142792	0.546043
C140	C	1.258407	0.476125	0.879376
C141	C	1.591740	0.809458	1.212710
C142	C	0.925068	0.142789	0.453855
C143	C	1.258401	0.476123	0.787188
C144	C	1.591734	0.809456	1.120522
C145	C	0.981778	0.095327	0.407764
C146	C	1.315112	0.428660	0.741098
C147	C	1.648445	0.761993	1.074431
C148	C	0.981787	0.095327	0.592142
C149	C	1.315120	0.428660	0.925475
C150	C	1.648453	0.761994	1.258809
C151	C	0.981789	0.095326	0.692098
C152	C	1.315123	0.428659	1.025432
C153	C	1.648456	0.761992	1.358765
C154	C	0.981775	0.095327	0.307802
C155	C	1.315108	0.428660	0.641135
C156	C	1.648442	0.761994	0.974469
H157	H	1.124305	-0.131731	-0.000010
H158	H	1.457639	0.201603	0.333324
H159	H	1.790972	0.534936	0.666657
H160	H	1.121986	-0.263845	-0.000033
H161	H	1.455319	0.069488	0.333301
H162	H	1.788652	0.402821	0.666634
H163	H	0.847049	-0.233585	-0.000038
H164	H	1.180383	0.099748	0.333295
H165	H	1.513716	0.433081	0.666628
H166	H	0.841569	-0.545495	-0.000065
H167	H	1.174903	-0.212162	0.333268
H168	H	1.508236	0.121171	0.666602
C169	C	0.572857	0.096677	-0.167707
C170	C	0.906190	0.430011	0.165626
C171	C	1.239523	0.763344	0.498959
H172	H	0.630709	0.097523	-0.156268
H173	H	0.964043	0.430856	0.177065
H174	H	1.297376	0.764190	0.510399
H175	H	0.552162	0.137160	-0.200517
H176	H	0.885495	0.470493	0.132816
H177	H	1.218829	0.803827	0.466150
H178	H	0.565141	0.055773	-0.200507
H179	H	0.898475	0.389107	0.132827
H180	H	1.231808	0.722440	0.466160
H181	H	0.849360	-0.101462	-0.000034
H182	H	1.182693	0.231872	0.333299
H183	H	1.516026	0.565205	0.666633
H184	H	1.116513	-0.575760	-0.000056
H185	H	1.449846	-0.242427	0.333278
H186	H	1.783180	0.090907	0.666611
H187	H	1.114192	-0.707875	-0.000084
H188	H	1.447525	-0.374542	0.333249
H189	H	1.780859	-0.041209	0.666582
H190	H	0.839252	-0.677615	-0.000082
H191	H	1.172586	-0.344281	0.333251
H192	H	1.505919	-0.010948	0.666584
H193	H	1.084662	0.009216	0.416332
H194	H	1.417995	0.342550	0.749665
H195	H	1.751328	0.675883	1.082999
C196	C	1.100869	-0.004343	0.596745
C197	C	1.434203	0.328990	0.930078
C198	C	1.767536	0.662324	1.263411
H199	H	1.134644	-0.032605	0.556089
H200	H	1.467978	0.300728	0.889422
H201	H	1.801311	0.634062	1.222755
H202	H	1.071075	-0.033416	0.632719
H203	H	1.404408	0.299917	0.966052
H204	H	1.737742	0.633250	1.299386
H205	H	1.135388	0.020788	0.632695
H206	H	1.468721	0.354121	0.966028
H207	H	1.802055	0.687454	1.299362
C208	C	0.862705	0.195003	0.596746
C209	C	1.196038	0.528336	0.930079
C210	C	1.529371	0.861669	1.263412
H211	H	0.870835	0.188212	0.658251
H212	H	1.204168	0.521546	0.991585
H213	H	1.537502	0.854879	1.324918
H214	H	0.807245	0.187410	0.581651
H215	H	1.140578	0.520743	0.914985
H216	H	1.473912	0.854076	1.248318
H217	H	0.871570	0.241604	0.581622
H218	H	1.204904	0.574937	0.914955
H219	H	1.538237	0.908270	1.248288
C220	C	0.862694	0.195004	0.403146
C221	C	1.196027	0.528337	0.736479
C222	C	1.529361	0.861670	1.069812
H223	H	0.870810	0.188200	0.341641
H224	H	1.204143	0.521533	0.674975
H225	H	1.537476	0.854867	1.008308
H226	H	0.871555	0.241604	0.418241
H227	H	1.204889	0.574937	0.751574
H228	H	1.538222	0.908270	1.084907
H229	H	0.807233	0.187408	0.418262
H230	H	1.140566	0.520741	0.751595
H231	H	1.473899	0.854074	1.084928
C232	C	0.572811	0.096653	0.167607
C233	C	0.906144	0.429986	0.500941
C234	C	1.239478	0.763319	0.834274
H235	H	0.534564	0.096076	0.215152
H236	H	0.867897	0.429410	0.548485
H237	H	1.201230	0.762743	0.881818
H238	H	0.600156	0.137837	0.170937
H239	H	0.933489	0.471171	0.504271
H240	H	1.266822	0.804504	0.837604
H241	H	0.613122	0.056450	0.170920
H242	H	0.946455	0.389783	0.504253
H243	H	1.279788	0.723117	0.837587
C244	C	0.390751	0.093993	-0.167712
C245	C	0.724084	0.427327	0.165622
C246	C	1.057417	0.760660	0.498955
H247	H	0.332894	0.093149	-0.156282
H248	H	0.666227	0.426482	0.177052
H249	H	0.999561	0.759815	0.510385
H250	H	0.411452	0.053514	-0.200513
H251	H	0.744786	0.386848	0.132820
H252	H	1.078119	0.720181	0.466153
H253	H	0.398478	0.134901	-0.200514
H254	H	0.731811	0.468235	0.132819
H255	H	1.065145	0.801568	0.466152
C256	C	0.390717	0.093983	0.167599
C257	C	0.724050	0.427316	0.500932
C258	C	1.057383	0.760650	0.834266
H259	H	0.428953	0.094554	0.215147
H260	H	0.762286	0.427887	0.548480
H261	H	1.095620	0.761220	0.881813
H262	H	0.363378	0.052794	0.170927
H263	H	0.696712	0.386127	0.504260
H264	H	1.030045	0.719461	0.837593
H265	H	0.350399	0.134181	0.170908
H266	H	0.683732	0.467514	0.504241
H267	H	1.017066	0.800848	0.837575
