data_functionalizedCrystal
_audit_creation_method	'MofGen! by Chris Wilmer'
_symmetry_space_group_name_H-M	'P1'
_symmetry_Int_Tables_number	1
_symmetry_cell_setting	triclinic
loop_
_symmetry_equiv_pos_as_xyz
  x,y,z
_cell_length_a	16.109301
_cell_length_b	10.654550
_cell_length_c	14.586319
_cell_angle_alpha	89.996358
_cell_angle_beta	89.999213
_cell_angle_gamma	83.973206
loop_
_atom_site_label
_atom_site_type_symbol
_atom_site_fract_x
_atom_site_fract_y
_atom_site_fract_z
O1	O	1.104091	0.161419	-0.076182
O2	O	1.604091	0.661419	0.423818
O3	O	0.862148	0.181507	-0.076197
O4	O	1.362148	0.681507	0.423803
O5	O	0.988682	-0.011352	-0.076183
O6	O	1.488682	0.488648	0.423817
O7	O	0.977557	0.354278	-0.076195
O8	O	1.477557	0.854278	0.423805
O9	O	0.988673	-0.011354	0.076298
O10	O	1.488673	0.488646	0.576298
O11	O	0.862139	0.181504	0.076284
O12	O	1.362139	0.681504	0.576284
O13	O	1.104082	0.161416	0.076299
O14	O	1.604082	0.661416	0.576299
Cu15	Cu	0.983110	0.171460	0.090214
Cu16	Cu	1.483110	0.671460	0.590214
Cu17	Cu	0.983120	0.171463	-0.090112
Cu18	Cu	1.483120	0.671463	0.409888
O19	O	0.977548	0.354275	0.076285
O20	O	1.477548	0.854275	0.576285
C21	C	0.831164	0.180692	0.000042
C22	C	1.331164	0.680692	0.500042
C23	C	0.738854	0.178253	0.000037
C24	C	1.238854	0.678253	0.500037
C25	C	0.517228	0.287019	0.000044
C26	C	1.017228	0.787019	0.500044
C27	C	0.430494	0.284717	0.000049
C28	C	0.930494	0.784717	0.500049
C29	C	0.449008	0.055896	0.000053
C30	C	0.949008	0.555896	0.500053
C31	C	0.535741	0.058199	0.000054
C32	C	1.035741	0.558199	0.500054
C33	C	0.569848	0.173764	0.000044
C34	C	1.069848	0.673764	0.500044
C35	C	0.396382	0.169159	0.000050
C36	C	0.896382	0.669159	0.500050
C37	C	0.302341	0.166662	0.000056
C38	C	0.802341	0.666662	0.500056
C39	C	0.663895	0.176262	0.000040
C40	C	1.163895	0.676262	0.500040
C41	C	0.987861	-0.058140	0.000057
C42	C	1.487861	0.441860	0.500057
C43	C	0.985417	-0.197550	0.000055
C44	C	1.485417	0.302450	0.500055
C45	C	1.059918	-0.278046	0.000059
C46	C	1.559918	0.221954	0.500059
C47	C	1.057616	-0.409036	0.000048
C48	C	1.557616	0.090964	0.500048
C49	C	0.906306	-0.379020	0.000032
C50	C	1.406306	0.120980	0.500032
C51	C	0.908608	-0.248033	0.000037
C52	C	1.408608	0.251967	0.500037
C53	C	1.145364	-0.606070	-0.053373
C54	C	1.645364	-0.106070	0.446627
C55	C	1.219869	-0.686572	-0.053353
C56	C	1.719869	-0.186572	0.446647
C57	C	1.287407	-0.657317	0.000086
C58	C	1.787407	-0.157317	0.500086
C59	C	1.280443	-0.547563	0.053528
C60	C	1.780443	-0.047563	0.553528
C61	C	1.205937	-0.467068	0.053516
C62	C	1.705937	0.032932	0.553516
C63	C	1.138402	-0.496322	0.000056
C64	C	1.638402	0.003678	0.500056
C65	C	0.820866	-0.050997	0.053465
C66	C	1.320866	0.449003	0.553465
C67	C	0.746359	0.029500	0.053460
C68	C	1.246359	0.529500	0.553460
C69	C	0.678814	0.000249	0.000026
C70	C	1.178814	0.500249	0.500026
C71	C	0.685770	-0.109507	-0.053402
C72	C	1.185770	0.390493	0.446598
C73	C	0.760277	-0.190004	-0.053397
C74	C	1.260277	0.309996	0.446603
C75	C	0.827822	-0.160745	0.000036
C76	C	1.327822	0.339255	0.500036
C77	C	1.135066	0.162231	0.000058
C78	C	1.635066	0.662231	0.500058
C79	C	1.227376	0.164671	0.000058
C80	C	1.727376	0.664671	0.500058
C81	C	0.978369	0.401063	0.000043
C82	C	1.478369	0.901063	0.500043
C83	C	0.980813	0.540473	0.000039
C84	C	1.480813	1.040473	0.500039
N85	N	0.983108	0.171457	0.217046
N86	N	1.483108	0.671457	0.717046
N87	N	0.983128	0.171457	-0.216944
N88	N	1.483128	0.671457	0.283056
C89	C	1.039156	0.086088	0.452058
C90	C	1.539156	0.586088	0.952058
C91	C	1.039159	0.086084	0.548040
C92	C	1.539159	0.586084	1.048040
C93	C	0.927074	0.256830	0.548037
C94	C	1.427074	0.756830	1.048037
C95	C	0.927068	0.256826	0.452058
C96	C	1.427068	0.756826	0.952058
C97	C	0.983114	0.171456	0.404071
C98	C	1.483114	0.671456	0.904071
C99	C	0.983122	0.171457	0.596031
C100	C	1.483122	0.671457	1.096031
C101	C	0.983124	0.171455	0.700099
C102	C	1.483124	0.671455	1.200099
C103	C	0.983111	0.171457	0.299997
C104	C	1.483111	0.671457	0.799997
H105	H	0.421227	-0.038193	0.000067
H106	H	0.921227	0.461807	0.500067
Br107	Br	0.736907	0.178434	0.125997
Br108	Br	1.236907	0.678434	0.625997
Br109	Br	0.359084	0.438426	0.000053
Br110	Br	0.859084	0.938426	0.500053
Br111	Br	0.607160	-0.095514	0.000067
Br112	Br	1.107160	0.404486	0.500067
H113	H	1.122460	-0.236948	0.000072
H114	H	1.622460	0.263052	0.500072
Br115	Br	0.850999	0.372682	0.386924
Br116	Br	1.350999	0.872682	0.886924
H117	H	1.200265	-0.377712	0.097031
H118	H	1.700265	0.122288	0.597031
Br119	Br	1.372104	-0.507876	0.126067
Br120	Br	1.872104	-0.007876	0.626067
H121	H	0.630762	-0.133341	-0.096893
H122	H	1.130762	0.366659	0.403107
Br123	Br	0.912540	-0.011285	0.125981
Br124	Br	1.412540	0.488715	0.625981
Br125	Br	1.115217	-0.029773	0.386936
Br126	Br	1.615217	0.470227	0.886936
H127	H	1.348071	-0.722871	0.000101
H128	H	1.848071	-0.222871	0.500101
Br129	Br	0.851016	0.372687	0.613165
Br130	Br	1.351016	0.872687	1.113165
H131	H	1.084792	0.016568	0.587108
H132	H	1.584792	0.516568	1.087108
H133	H	1.225535	-0.775931	-0.096872
H134	H	1.725535	-0.275931	0.403128
H135	H	1.090378	-0.629892	-0.096901
H136	H	1.590378	-0.129892	0.403099
H137	H	0.544996	0.381119	0.000043
H138	H	1.044996	0.881119	0.500043
Br139	Br	0.802071	-0.447541	0.000005
Br140	Br	1.302071	0.052459	0.500005
H141	H	0.618142	0.065794	0.000039
H142	H	1.118142	0.565794	0.500039
Br143	Br	0.769717	-0.338965	-0.125905
Br144	Br	1.269717	0.161035	0.374095
