data_functionalizedCrystal
_audit_creation_method	'MofGen! by Chris Wilmer'
_symmetry_space_group_name_H-M	'P1'
_symmetry_Int_Tables_number	1
_symmetry_cell_setting	triclinic
loop_
_symmetry_equiv_pos_as_xyz
  x,y,z
_cell_length_a	18.050591
_cell_length_b	18.050589
_cell_length_c	19.077174
_cell_angle_alpha	92.276796
_cell_angle_beta	87.688915
_cell_angle_gamma	90.027061
loop_
_atom_site_label
_atom_site_type_symbol
_atom_site_fract_x
_atom_site_fract_y
_atom_site_fract_z
Zn1	Zn	1.152165	-0.312561	-0.397893
Zn2	Zn	1.652165	0.187439	0.102107
Zn3	Zn	1.147085	-0.431766	-0.280206
Zn4	Zn	1.647085	0.068234	0.219794
Zn5	Zn	1.022994	-0.307593	-0.280220
Zn6	Zn	1.522994	0.192407	0.219780
Zn7	Zn	1.027931	-0.436710	-0.397872
Zn8	Zn	1.527931	0.063290	0.102128
O9	O	1.087544	-0.372158	-0.339048
O10	O	1.587544	0.127842	0.160952
O11	O	1.255416	-0.328384	-0.382285
O12	O	1.755416	0.171616	0.117715
O13	O	1.126432	-0.411146	-0.181718
O14	O	1.626432	0.088854	0.318282
O15	O	1.040189	-0.204328	-0.295844
O16	O	1.540189	0.295672	0.204156
O17	O	1.251684	-0.415964	-0.295821
O18	O	1.751684	0.084036	0.204179
O19	O	1.135090	-0.207978	-0.382298
O20	O	1.635090	0.292022	0.117702
O21	O	1.035263	-0.319916	-0.181728
O22	O	1.535263	0.180084	0.318272
O23	O	0.919724	-0.324710	-0.295823
O24	O	1.419724	0.175290	0.204177
O25	O	1.048603	-0.424390	-0.496364
O26	O	1.548603	0.075610	0.003636
O27	O	0.923352	-0.419573	-0.382261
O28	O	1.423352	0.080427	0.117739
O29	O	1.139877	-0.333179	-0.496380
O30	O	1.639877	0.166821	0.003620
O31	O	1.131219	-0.536346	-0.295800
O32	O	1.631219	-0.036346	0.204200
O33	O	1.043677	-0.539979	-0.382248
O34	O	1.543677	-0.039979	0.117752
C35	C	0.894591	-0.372139	-0.339042
C36	C	1.394591	0.127861	0.160958
C37	C	0.812046	-0.372150	-0.339056
C38	C	1.312046	0.127850	0.160944
C39	C	0.565212	-0.423836	-0.385997
C40	C	1.065212	0.076164	0.114003
C41	C	0.611858	-0.439189	-0.321757
C42	C	1.111858	0.060811	0.178243
C43	C	0.514926	-0.372173	-0.339055
C44	C	1.014926	0.127827	0.160945
C45	C	0.615361	-0.356843	-0.403291
C46	C	1.115361	0.143157	0.096709
C47	C	0.660911	-0.372164	-0.339059
C48	C	1.160911	0.127836	0.160941
C49	C	0.560483	-0.387560	-0.274781
C50	C	1.060483	0.112440	0.225219
C51	C	0.563984	-0.305184	-0.356358
C52	C	1.063984	0.194816	0.143642
C53	C	0.610606	-0.320510	-0.292074
C54	C	1.110606	0.179490	0.207926
C55	C	0.430827	-0.372181	-0.339053
C56	C	0.930827	0.127819	0.160947
C57	C	0.745007	-0.372156	-0.339053
C58	C	1.245007	0.127844	0.160947
C59	C	1.087454	-0.565109	-0.339036
C60	C	1.587454	-0.065109	0.160964
C61	C	1.087484	-0.647656	-0.339054
C62	C	1.587484	-0.147656	0.160946
C63	C	1.039927	-0.849108	-0.386048
C64	C	1.539927	-0.349108	0.113952
C65	C	1.019106	-0.895825	-0.321826
C66	C	1.519106	-0.395825	0.178174
C67	C	1.087557	-0.798787	-0.339064
C68	C	1.587557	-0.298787	0.160936
C69	C	1.108415	-0.899152	-0.403293
C70	C	1.608415	-0.399152	0.096707
C71	C	1.087627	-0.944772	-0.339078
C72	C	1.587627	-0.444772	0.160922
C73	C	1.066699	-0.844415	-0.274807
C74	C	1.566699	-0.344415	0.225193
C75	C	1.156042	-0.847739	-0.356318
C76	C	1.656042	-0.347739	0.143682
C77	C	1.135245	-0.894432	-0.292051
C78	C	1.635245	-0.394432	0.207949
C79	C	1.087515	-0.714688	-0.339056
C80	C	1.587515	-0.214688	0.160944
C81	C	1.087669	-1.028869	-0.339078
C82	C	1.587669	-0.528869	0.160922
C83	C	1.281250	-0.372177	-0.339054
C84	C	1.781250	0.127823	0.160946
C85	C	1.363796	-0.372185	-0.339056
C86	C	1.863796	0.127815	0.160944
C87	C	1.095357	-0.379890	-0.522624
C88	C	1.595357	0.120110	-0.022624
C89	C	1.098687	-0.383185	-0.600853
C90	C	1.598687	0.116815	-0.100853
C91	C	1.087655	-0.178453	-0.339075
C92	C	1.587655	0.321547	0.160925
C93	C	1.087703	-0.095908	-0.339086
C94	C	1.587703	0.404092	0.160914
C95	C	1.052787	-0.337236	-0.637610
C96	C	1.552787	0.162764	-0.137610
C97	C	1.055912	-0.340338	-0.711114
C98	C	1.555912	0.159662	-0.211114
C99	C	1.104943	-0.389387	-0.747861
C100	C	1.604943	0.110613	-0.247861
C101	C	1.150845	-0.435341	-0.711099
C102	C	1.650845	0.064659	-0.211099
C103	C	1.147715	-0.432242	-0.637595
C104	C	1.647715	0.067758	-0.137595
C105	C	1.119390	-0.403752	-0.967692
C106	C	1.619390	0.096248	-0.467692
C107	C	1.122518	-0.406847	-1.041200
C108	C	1.622518	0.093153	-0.541200
C109	C	1.027584	-0.311844	-1.041210
C110	C	1.527584	0.188156	-0.541210
C111	C	1.024462	-0.308746	-0.967706
C112	C	1.524462	0.191254	-0.467706
C113	C	1.070361	-0.354703	-0.930950
C114	C	1.570361	0.145297	-0.430950
N115	N	1.108141	-0.392558	-0.822994
N116	N	1.608141	0.107442	-0.322994
N117	N	1.067159	-0.351536	-0.855818
N118	N	1.567159	0.148464	-0.355818
C119	C	1.079803	-0.364401	-0.156186
C120	C	1.579803	0.135599	0.343814
C121	C	1.076618	-0.360897	-0.077957
C122	C	1.576618	0.139103	0.422043
H123	H	0.639377	-0.343880	-0.457614
H124	H	1.139377	0.156120	0.042386
N125	N	1.006403	-0.290781	-0.750760
N126	N	1.506403	0.209219	-0.250760
H127	H	0.974871	-0.259237	-0.716328
H128	H	1.474871	0.240763	-0.216328
H129	H	1.037951	-0.257704	-0.781266
H130	H	1.537951	0.242296	-0.281266
H131	H	1.156757	-0.441182	-0.937774
H132	H	1.656757	0.058818	-0.437774
N133	N	0.986495	-0.822653	-0.438609
N134	N	1.486495	-0.322653	0.061391
H135	H	0.934797	-0.840124	-0.425486
H136	H	1.434797	-0.340124	0.074514
H137	H	0.987255	-0.766703	-0.438528
H138	H	1.487255	-0.266703	0.061472
H139	H	0.542915	-0.248555	-0.371016
H140	H	1.042915	0.251445	0.128984
N141	N	0.942431	-0.923827	-0.302487
N142	N	1.442431	-0.423827	0.197513
H143	H	0.906459	-0.907400	-0.337999
H144	H	1.406459	-0.407400	0.162001
H145	H	0.943190	-0.979759	-0.302174
H146	H	1.443190	-0.479759	0.197826
H147	H	0.545213	-0.467560	-0.425643
H148	H	1.045213	0.032440	0.074357
N149	N	1.043282	-0.812812	-0.202842
N150	N	1.543282	-0.312812	0.297158
H151	H	1.043379	-0.756879	-0.203285
H152	H	1.543379	-0.256879	0.296715
H153	H	0.991754	-0.830773	-0.189751
H154	H	1.491754	-0.330773	0.310249
H155	H	1.175552	-0.914260	-0.252278
H156	H	1.675552	-0.414260	0.247722
N157	N	1.232699	-0.819710	-0.375670
N158	N	1.732699	-0.319710	0.124330
H159	H	1.230765	-0.789952	-0.419290
H160	H	1.730765	-0.289952	0.080710
H161	H	1.251209	-0.787267	-0.335730
H162	H	1.751209	-0.287267	0.164270
H163	H	0.632910	-0.495836	-0.307118
H164	H	1.132910	0.004164	0.192882
H165	H	1.162448	-0.446789	-1.071117
H166	H	1.662448	0.053211	-0.571117
N167	N	0.528795	-0.404817	-0.202804
N168	N	1.028795	0.095183	0.297196
H169	H	0.497766	-0.451304	-0.206153
H170	H	0.997766	0.048696	0.293847
H171	H	0.570614	-0.412570	-0.170244
H172	H	1.070614	0.087430	0.329756
N173	N	0.636921	-0.262631	-0.239438
N174	N	1.136921	0.237369	0.260562
H175	H	0.616788	-0.274306	-0.190959
H176	H	1.116788	0.225694	0.309041
H177	H	0.692896	-0.262681	-0.240078
H178	H	1.192896	0.237319	0.259922
N179	N	0.971595	-0.255827	-0.928073
N180	N	1.471595	0.244173	-0.428073
H181	H	0.942995	-0.227184	-0.962513
H182	H	1.442995	0.272816	-0.462513
H183	H	0.935905	-0.284752	-0.897561
H184	H	1.435905	0.215248	-0.397561
H185	H	1.126029	-0.923105	-0.457606
H186	H	1.626029	-0.423105	0.042394
H187	H	1.012865	-0.297291	-0.607696
H188	H	1.512865	0.202709	-0.107696
N189	N	1.203720	-0.488254	-0.750728
N190	N	1.703720	0.011746	-0.250728
H191	H	1.198739	-0.483245	-0.802870
H192	H	1.698739	0.016755	-0.302870
H193	H	1.256221	-0.476164	-0.737884
H194	H	1.756221	0.023836	-0.237884
N195	N	0.978066	-0.262293	-1.080853
N196	N	1.478066	0.237707	-0.580853
H197	H	0.987481	-0.271702	-1.132993
H198	H	1.487481	0.228298	-0.632993
H199	H	0.924478	-0.273320	-1.067993
H200	H	1.424478	0.226680	-0.567993
H201	H	1.185098	-0.469654	-0.607669
H202	H	1.685098	0.030346	-0.107669
