data_functionalizedCrystal
_audit_creation_method	'MofGen! by Chris Wilmer'
_symmetry_space_group_name_H-M	'P1'
_symmetry_Int_Tables_number	1
_symmetry_cell_setting	triclinic
loop_
_symmetry_equiv_pos_as_xyz
  x,y,z
_cell_length_a	14.908743
_cell_length_b	14.909241
_cell_length_c	14.908520
_cell_angle_alpha	89.840258
_cell_angle_beta	83.579664
_cell_angle_gamma	90.176409
loop_
_atom_site_label
_atom_site_type_symbol
_atom_site_fract_x
_atom_site_fract_y
_atom_site_fract_z
Zn1	Zn	1.390246	-0.444384	0.253203
Zn2	Zn	1.372790	-0.303759	0.413204
Zn3	Zn	1.230262	-0.303784	0.270594
Zn4	Zn	1.231231	-0.462690	0.412147
O5	O	1.306132	-0.378654	0.337287
O6	O	1.514128	-0.418058	0.267592
O7	O	1.346173	-0.178407	0.402006
O8	O	1.258385	-0.314784	0.142085
O9	O	1.501303	-0.314741	0.385144
O10	O	1.375924	-0.418082	0.129308
O11	O	1.241458	-0.178425	0.297231
O12	O	1.104194	-0.332535	0.296207
O13	O	1.260036	-0.585617	0.383343
O14	O	1.104906	-0.449283	0.400206
O15	O	1.376863	-0.572168	0.266567
O16	O	1.347112	-0.332492	0.539265
O17	O	1.243109	-0.449259	0.538489
C18	C	1.071828	-0.392899	0.349979
C19	C	0.971592	-0.399015	0.355429
C20	C	1.293347	-0.392877	0.571597
C21	C	1.287962	-0.398987	0.671830
C22	C	1.541351	-0.364355	0.324546
C23	C	1.641588	-0.358261	0.319116
C24	C	1.320505	-0.612304	0.322897
C25	C	1.326629	-0.711872	0.316765
C26	C	1.830684	-0.468379	0.417229
C27	C	1.924865	-0.462657	0.412130
C28	C	1.924132	-0.341090	0.303826
C29	C	1.829951	-0.346813	0.308924
C30	C	1.783230	-0.410460	0.365627
C31	C	1.689048	-0.416186	0.370720
C32	C	1.688316	-0.294616	0.262421
C33	C	1.782497	-0.288894	0.257322
C34	C	1.216487	-0.912979	0.426862
C35	C	1.222238	-1.006532	0.421103
C36	C	1.343888	-0.992533	0.299495
C37	C	1.338136	-0.898980	0.305253
C38	C	1.274432	-0.859206	0.368938
C39	C	1.268677	-0.765651	0.374691
C40	C	1.390331	-0.751655	0.253088
C41	C	1.396082	-0.845208	0.247330
C42	C	1.291872	-0.145906	0.351553
C43	C	1.285935	-0.046313	0.357421
C44	C	1.318994	-0.364394	0.102059
C45	C	1.324474	-0.358317	0.001819
C46	C	1.386265	-0.288963	0.860913
C47	C	1.381208	-0.294701	0.955090
C48	C	1.272796	-0.416202	0.954364
C49	C	1.277853	-0.410465	0.860186
C50	C	1.334588	-0.346842	0.813464
C51	C	1.339640	-0.341101	0.719285
C52	C	1.231234	-0.462607	0.718560
C53	C	1.226177	-0.468344	0.812737
H54	H	1.651010	-0.468014	0.416886
H55	H	1.226611	-0.468006	0.992420
H56	H	1.963498	-0.509820	0.454150
H57	H	1.649670	-0.247457	0.220399
C58	C	1.438049	-0.231030	1.007285
C59	C	1.432491	-0.237337	1.110877
C60	C	1.489337	-0.173665	1.163072
C61	C	1.551741	-0.103686	1.111675
C62	C	1.557301	-0.097376	1.008078
C63	C	1.500456	-0.161048	0.955883
H64	H	1.386294	-0.289143	1.148929
H65	H	1.485220	-0.178336	1.239761
H66	H	1.593821	-0.056551	1.150313
H67	H	1.603498	-0.045570	0.970026
H68	H	1.504572	-0.156377	0.879193
C69	C	1.448668	-0.218981	0.809510
C70	C	1.408793	-0.147054	0.751273
C71	C	1.471197	-0.077072	0.699871
C72	C	1.573476	-0.079017	0.706706
C73	C	1.613356	-0.150947	0.764946
C74	C	1.550952	-0.220929	0.816348
H75	H	1.333075	-0.145612	0.746211
H76	H	1.441675	-0.023825	0.656758
H77	H	1.619671	-0.027212	0.668655
H78	H	1.689073	-0.152389	0.770008
H79	H	1.580474	-0.274176	0.859461
C80	C	1.466151	-0.888966	0.177280
C81	C	1.567479	-0.870320	0.179867
C82	C	1.637548	-0.914076	0.109815
C83	C	1.606290	-0.976478	0.037174
C84	C	1.504957	-0.995127	0.034584
C85	C	1.434888	-0.951371	0.104636
H86	H	1.590623	-0.824123	0.233643
H87	H	1.712561	-0.900270	0.111733
H88	H	1.658159	-1.008869	-0.014683
H89	H	1.481813	-1.041324	-0.019192
H90	H	1.359875	-0.965177	0.102718
H91	H	1.179987	-0.520146	0.850791
H92	H	1.164601	-0.880594	0.478700
C93	C	1.975525	-0.271089	0.241443
C94	C	1.955913	-0.170483	0.255750
C95	C	2.007302	-0.100485	0.193359
C96	C	2.078303	-0.131092	0.116661
C97	C	2.097917	-0.231703	0.102351
C98	C	2.046529	-0.301701	0.164742
H99	H	1.903352	-0.147821	0.312529
H100	H	1.992782	-0.026006	0.203953
H101	H	2.116344	-0.079276	0.070476
H102	H	2.150479	-0.254365	0.045572
H103	H	2.061049	-0.376180	0.154149
C104	C	1.158494	-1.065682	0.484817
C105	C	1.197656	-1.131912	0.549545
C106	C	1.133909	-1.191063	0.613263
C107	C	1.031001	-1.183983	0.612254
C108	C	0.991834	-1.117750	0.547524
C109	C	1.055580	-1.058599	0.483805
H110	H	1.273839	-1.137156	0.550295
H111	H	1.162904	-1.240093	0.661181
H112	H	0.983812	-1.227769	0.659422
H113	H	0.915650	-1.112506	0.546774
H114	H	1.026586	-1.009569	0.435888
H115	H	1.216798	-0.733269	0.426538
H116	H	1.395759	-1.024934	0.247653
C117	C	1.454076	-0.692506	0.189363
C118	C	1.414906	-0.626282	0.124635
C119	C	1.478645	-0.567134	0.060907
C120	C	1.581555	-0.574211	0.061907
C121	C	1.620730	-0.640438	0.126637
C122	C	1.556991	-0.699586	0.190365
H123	H	1.338721	-0.621040	0.123893
H124	H	1.449645	-0.518109	0.012989
H125	H	1.628739	-0.530427	0.014731
H126	H	1.696915	-0.645680	0.127379
H127	H	1.585991	-0.748611	0.238283
H128	H	1.385834	-0.289295	0.681245
C129	C	1.833899	-0.218890	0.194950
C130	C	1.904906	-0.249493	0.118257
C131	C	1.956308	-0.179491	0.055880
C132	C	1.936701	-0.078885	0.070197
C133	C	1.865690	-0.048277	0.146893
C134	C	1.814289	-0.118279	0.209269
H135	H	1.919423	-0.323972	0.107656
H136	H	2.008875	-0.202150	-0.000895
H137	H	1.974751	-0.027066	0.024022
H138	H	1.851173	0.026202	0.157494
H139	H	1.761722	-0.095620	0.266045
C140	C	1.174387	-0.526284	0.666368
C141	C	1.070719	-0.525914	0.685431
C142	C	1.013871	-0.589588	0.633241
C143	C	1.060692	-0.653634	0.561988
C144	C	1.164365	-0.654007	0.542921
C145	C	1.221213	-0.590332	0.595111
H146	H	1.036054	-0.478501	0.738180
H147	H	0.937125	-0.589312	0.647355
H148	H	1.018610	-0.700770	0.523353
H149	H	1.199030	-0.701419	0.490172
H150	H	1.297959	-0.590609	0.580997
C151	C	1.779284	-0.538390	0.479593
C152	C	1.786169	-0.536511	0.581867
C153	C	1.734770	-0.606523	0.644232
C154	C	1.676485	-0.678415	0.604323
C155	C	1.669597	-0.680297	0.502045
C156	C	1.720996	-0.610285	0.439680
H157	H	1.829318	-0.483290	0.611414
H158	H	1.739869	-0.605130	0.719945
H159	H	1.638436	-0.730243	0.650490
H160	H	1.626448	-0.733518	0.472498
H161	H	1.715897	-0.611678	0.363966
