data_functionalizedCrystal
_audit_creation_method	'MofGen! by Chris Wilmer'
_symmetry_space_group_name_H-M	'P1'
_symmetry_Int_Tables_number	1
_symmetry_cell_setting	triclinic
loop_
_symmetry_equiv_pos_as_xyz
  x,y,z
_cell_length_a	15.625020
_cell_length_b	10.654550
_cell_length_c	14.185569
_cell_angle_alpha	76.716513
_cell_angle_beta	94.305604
_cell_angle_gamma	95.647469
loop_
_atom_site_label
_atom_site_type_symbol
_atom_site_fract_x
_atom_site_fract_y
_atom_site_fract_z
O1	O	1.081412	-0.326495	0.476843
O2	O	0.840357	-0.316136	0.389147
O3	O	0.966428	-0.139199	0.435008
O4	O	0.955342	-0.503431	0.430982
O5	O	1.003670	-0.086937	0.281721
O6	O	0.877600	-0.263873	0.235860
O7	O	1.118654	-0.274232	0.323556
Cu8	Cu	1.001528	-0.264281	0.265712
Cu9	Cu	0.957484	-0.326087	0.446991
O10	O	0.992584	-0.451169	0.277695
C11	C	0.828112	-0.285292	0.301274
C12	C	0.736141	-0.271236	0.267815
C13	C	0.626810	-0.222936	0.137105
C14	C	0.713229	-0.236148	0.168555
C15	C	0.672638	-0.293118	0.335665
C16	C	0.586214	-0.279905	0.304229
C17	C	0.563308	-0.244815	0.204948
C18	C	0.522712	-0.301784	0.372073
C19	C	0.436296	-0.288578	0.340639
C20	C	0.413382	-0.253493	0.241362
C21	C	0.476892	-0.231609	0.173515
C22	C	0.545620	-0.336883	0.471353
C23	C	0.482118	-0.358762	0.539197
C24	C	0.395700	-0.345547	0.507764
C25	C	0.372786	-0.310462	0.408487
C26	C	0.332190	-0.367431	0.575611
C27	C	0.245774	-0.354225	0.544177
C28	C	0.286370	-0.297256	0.377053
C29	C	0.984235	-0.066179	0.358069
C30	C	0.981799	0.073538	0.357187
C31	C	1.130899	-0.305077	0.411431
C32	C	1.222868	-0.319135	0.444896
C33	C	0.974776	-0.524190	0.354636
C34	C	0.977211	-0.663909	0.355524
N35	N	1.032511	-0.220810	0.138212
C36	C	1.056028	0.144659	0.384188
C37	C	1.053733	0.275936	0.383360
C38	C	0.902976	0.264959	0.328524
C39	C	0.905270	0.133682	0.329358
C40	C	1.132557	0.084515	0.412017
C41	C	1.206792	0.155637	0.439019
C42	C	1.204497	0.286914	0.438192
C43	C	1.127968	0.347069	0.410361
C44	C	0.835476	-0.497213	-0.301114
C45	C	0.858952	-0.464294	-0.397596
C46	C	0.970610	-0.307683	-0.356939
C47	C	0.947141	-0.340585	-0.260452
C48	C	0.879574	-0.435352	-0.232548
C49	C	0.991239	-0.278724	-0.191886
C50	C	0.967775	-0.311628	-0.095408
C51	C	0.900212	-0.406394	-0.067495
C52	C	0.856110	-0.468257	-0.136069
C53	C	1.058810	-0.183964	-0.219791
C54	C	1.102908	-0.122102	-0.151225
C55	C	1.079440	-0.155000	-0.054746
C56	C	1.011878	-0.249766	-0.026833
C57	C	1.123543	-0.093138	0.013829
C58	C	1.100078	-0.126043	0.110308
C59	C	0.988413	-0.282671	0.069646
N60	N	0.926507	-0.369549	0.574494
H61	H	0.194068	-0.372045	0.599422
C62	C	0.874631	-0.442350	0.037217
C63	C	0.806036	-0.538604	0.046981
C64	C	0.782455	-0.571770	0.143428
H65	H	0.857467	-0.368147	0.054854
H66	H	0.922333	-0.473785	0.078382
H67	H	0.758344	-0.507165	0.005829
H68	H	0.823181	-0.612828	0.029364
H69	H	0.830157	-0.603205	0.184594
H70	H	0.765294	-0.497559	0.161057
H71	H	0.735917	-0.637089	0.150068
C72	C	0.601764	-0.184784	0.029356
C73	C	0.512495	-0.177878	0.016355
C74	C	0.489391	-0.142726	-0.082883
H75	H	0.618288	-0.247629	-0.002074
H76	H	0.630115	-0.102757	0.002288
H77	H	0.484154	-0.259894	0.043410
H78	H	0.495949	-0.115030	0.047763
H79	H	0.517742	-0.060699	-0.109951
H80	H	0.505920	-0.205575	-0.114305
H81	H	0.428821	-0.138024	-0.091717
H82	H	0.801084	-0.545416	-0.113353
C83	C	1.289804	0.090114	0.469162
C84	C	1.275935	-0.040065	0.464084
C85	C	1.352391	-0.100458	0.491834
H86	H	1.307481	0.095510	0.533756
H87	H	1.333398	0.132050	0.426819
H88	H	1.232356	-0.081990	0.506426
H89	H	1.258270	-0.045498	0.399498
H90	H	1.395985	-0.058522	0.449491
H91	H	1.370062	-0.095053	0.556427
H92	H	1.342994	-0.188787	0.488384
H93	H	1.134434	-0.022376	0.412691
C94	C	0.356888	-0.405617	0.683438
C95	C	0.282775	-0.421986	0.736125
C96	C	0.305489	-0.457185	0.835458
H97	H	0.395627	-0.339583	0.701454
H98	H	0.383820	-0.484447	0.697065
H99	H	0.255856	-0.343166	0.722505
H100	H	0.244027	-0.488024	0.718139
H101	H	0.332421	-0.536014	0.849085
H102	H	0.344229	-0.391146	0.853464
H103	H	0.255207	-0.468307	0.871218
H104	H	0.780450	-0.574372	-0.278397
C105	C	0.810927	-0.531551	-0.471912
C106	C	0.746719	-0.621557	-0.426825
C107	C	0.702455	-0.683522	-0.495257
H108	H	0.850074	-0.574917	-0.498638
H109	H	0.785294	-0.469158	-0.522187
H110	H	0.772352	-0.683941	-0.376568
H111	H	0.707554	-0.578224	-0.400104
H112	H	0.676822	-0.621128	-0.545531
H113	H	0.741608	-0.726880	-0.521978
H114	H	0.658880	-0.744589	-0.464677
H115	H	0.840670	0.313948	0.305864
H116	H	1.025626	-0.230526	-0.379669
C117	C	1.285192	0.363929	0.467498
C118	C	1.352704	0.283161	0.492023
C119	C	1.427059	0.354064	0.519009
H120	H	1.274570	0.397157	0.521798
H121	H	1.300465	0.433581	0.414853
H122	H	1.337433	0.213533	0.544663
H123	H	1.363353	0.249931	0.437737
H124	H	1.442332	0.423716	0.466364
H125	H	1.416428	0.387289	0.573307
H126	H	1.472877	0.299277	0.535644
C127	C	0.824582	0.056559	0.300163
C128	C	0.759384	0.058315	0.362267
C129	C	0.685037	-0.012706	0.335399
H130	H	0.836782	-0.030282	0.304655
H131	H	0.806165	0.094052	0.235315
H132	H	0.777798	0.020818	0.427098
H133	H	0.747157	0.145138	0.357783
H134	H	0.666620	0.024787	0.270551
H135	H	0.697246	-0.099542	0.339892
H136	H	0.640789	-0.011514	0.377526
H137	H	1.135989	-0.075669	0.166137
C138	C	0.782057	-0.212261	0.094741
C139	C	0.743498	-0.178672	0.001071
C140	C	0.806876	-0.156643	-0.066947
H141	H	0.810755	-0.288607	0.101256
H142	H	0.822503	-0.143731	0.105616
H143	H	0.703068	-0.247196	-0.009801
H144	H	0.714806	-0.102321	-0.005475
H145	H	0.847321	-0.088113	-0.056071
H146	H	0.835569	-0.232993	-0.060422
H147	H	0.780724	-0.133839	-0.130508
H148	H	0.615986	-0.347643	0.496943
C149	C	1.084136	-0.148095	-0.324595
C150	C	1.013664	-0.101882	-0.385002
C151	C	1.036965	-0.068810	-0.481552
H152	H	1.101213	-0.222328	-0.342268
H153	H	1.130666	-0.082751	-0.331442
H154	H	0.967150	-0.167221	-0.378160
H155	H	0.996578	-0.027639	-0.367361
H156	H	1.083494	-0.003466	-0.488399
H157	H	1.054042	-0.143049	-0.499214
H158	H	0.989157	-0.037440	-0.522549
C159	C	1.176211	-0.019200	-0.181727
C160	C	1.187311	-0.003600	-0.280899
C161	C	1.254820	0.091198	-0.309032
H162	H	1.227786	-0.045131	-0.145858
H163	H	1.162891	0.060468	-0.169422
H164	H	1.200635	-0.083252	-0.293196
H165	H	1.135754	0.022348	-0.316792
H166	H	1.241500	0.170866	-0.296727
H167	H	1.306389	0.065258	-0.273157
H168	H	1.262355	0.101803	-0.376325
C169	C	1.196826	0.009916	-0.016377
C170	C	1.176986	0.127107	0.001959
C171	C	1.244478	0.222068	-0.025844
H172	H	1.204545	0.020820	-0.083649
H173	H	1.248350	-0.016062	0.019614
H174	H	1.125477	0.153080	-0.034034
H175	H	1.169276	0.116246	0.069225
H176	H	1.296002	0.196090	0.010148
H177	H	1.252191	0.232960	-0.093115
H178	H	1.231029	0.301589	-0.013398
H179	H	0.267719	-0.268698	0.296208
H180	H	0.500780	-0.387337	0.620032
H181	H	0.343015	-0.242748	0.215770
H182	H	0.458240	-0.203051	0.092669
H183	H	0.691300	-0.321694	0.416500
H184	H	1.126103	0.453960	0.409699
H185	H	0.933387	-0.359830	0.092363
