data_functionalizedCrystal
_audit_creation_method	'MofGen! by Chris Wilmer'
_symmetry_space_group_name_H-M	'P1'
_symmetry_Int_Tables_number	1
_symmetry_cell_setting	triclinic
loop_
_symmetry_equiv_pos_as_xyz
  x,y,z
_cell_length_a	13.635800
_cell_length_b	7.076076
_cell_length_c	7.190339
_cell_angle_alpha	83.152871
_cell_angle_beta	60.611724
_cell_angle_gamma	62.298680
loop_
_atom_site_label
_atom_site_type_symbol
_atom_site_fract_x
_atom_site_fract_y
_atom_site_fract_z
V1	V	-2.142693	0.663512	0.291705
V2	V	-1.642693	1.163512	0.791705
O3	O	-2.089354	0.652433	-0.017514
O4	O	-1.589354	1.152433	0.482486
O5	O	-2.160494	0.657482	0.581764
O6	O	-1.660494	1.157482	1.081764
O7	O	-2.155306	0.953573	0.285684
O8	O	-1.655306	1.453573	0.785684
O9	O	-2.094579	0.354292	0.280616
O10	O	-1.594579	0.854292	0.780616
V11	V	-2.374294	0.626708	0.254900
V12	V	-1.874294	1.126708	0.754900
O13	O	-2.295609	0.744244	0.372439
O14	O	-1.795609	1.244244	0.872439
O15	O	-2.446477	0.545975	0.174166
O16	O	-1.946477	1.045975	0.674166
O17	O	-2.244890	0.632738	-0.035159
O18	O	-1.744890	1.132738	0.464841
O19	O	-2.486332	0.637787	0.564119
O20	O	-1.986332	1.137787	1.064119
O21	O	-2.481107	0.935928	0.265989
O22	O	-1.981107	1.435928	0.765989
O23	O	-2.250079	0.336647	0.260921
O24	O	-1.750079	0.836647	0.760921
V25	V	-1.874287	0.626708	0.254900
V26	V	-1.374287	1.126708	0.754900
O27	O	-1.922401	0.935928	0.265989
O28	O	-1.422401	1.435928	0.765989
O29	O	-1.861675	0.336647	0.260921
O30	O	-1.361675	0.836647	0.760921
O31	O	-1.856486	0.632738	-0.035159
O32	O	-1.356486	1.132738	0.464841
O33	O	-1.927626	0.637787	0.564119
O34	O	-1.427626	1.137787	1.064119
V35	V	-1.642686	0.663512	0.291705
V36	V	-1.142686	1.163512	0.791705
O37	O	-1.721371	0.545975	0.174166
O38	O	-1.221371	1.045975	0.674166
O39	O	-1.570503	0.744244	0.372439
O40	O	-1.070503	1.244244	0.872439
O41	O	-1.766901	0.953573	0.285684
O42	O	-1.266901	1.453573	0.785684
O43	O	-1.535873	0.354292	0.280616
O44	O	-1.035873	0.854292	0.780616
O45	O	-1.530648	0.652433	-0.017514
O46	O	-1.030648	1.152433	0.482486
O47	O	-1.772090	0.657482	0.581764
O48	O	-1.272090	1.157482	1.081764
C49	C	-1.928088	1.265887	0.271768
C50	C	-1.428088	1.765887	0.771768
C51	C	-1.865323	1.024313	0.274826
C52	C	-1.365323	1.524313	0.774826
C53	C	-2.092031	0.646639	0.652525
C54	C	-1.592031	1.146639	1.152525
C55	C	-2.148517	0.643591	0.894100
C56	C	-1.648517	1.143591	1.394100
C57	C	-2.151645	0.265888	0.271768
C58	C	-1.651645	0.765888	0.771768
C59	C	-2.088876	0.024313	0.274826
C60	C	-1.588876	0.524313	0.774826
C61	C	-1.924955	0.643593	-0.105906
C62	C	-1.424955	1.143593	0.394094
C63	C	-1.868476	0.646668	-0.347477
C64	C	-1.368476	1.146668	0.152523
