data_functionalizedCrystal
_audit_creation_method	'MofGen! by Chris Wilmer'
_symmetry_space_group_name_H-M	'P1'
_symmetry_Int_Tables_number	1
_symmetry_cell_setting	triclinic
loop_
_symmetry_equiv_pos_as_xyz
  x,y,z
_cell_length_a	10.686285
_cell_length_b	17.077404
_cell_length_c	17.077396
_cell_angle_alpha	90.017244
_cell_angle_beta	85.607459
_cell_angle_gamma	94.368190
loop_
_atom_site_label
_atom_site_type_symbol
_atom_site_fract_x
_atom_site_fract_y
_atom_site_fract_z
Zn1	Zn	-0.502329	-1.224097	-0.419935
Zn2	Zn	-0.002329	-0.724097	0.080065
Zn3	Zn	-0.713352	-1.234117	-0.278626
Zn4	Zn	-0.213352	-0.734117	0.221374
Zn5	Zn	-0.502376	-1.092837	-0.288681
Zn6	Zn	-0.002376	-0.592837	0.211319
Zn7	Zn	-0.713274	-1.102901	-0.409853
Zn8	Zn	-0.213274	-0.602901	0.090147
O9	O	-0.607833	-1.163488	-0.349274
O10	O	-0.107833	-0.663488	0.150726
O11	O	-0.530335	-1.335274	-0.401201
O12	O	-0.030335	-0.835274	0.098799
O13	O	-0.685418	-1.215357	-0.170110
O14	O	-0.185418	-0.715357	0.329890
O15	O	-0.325795	-1.101844	-0.314519
O16	O	0.174205	-0.601844	0.185481
O17	O	-0.685373	-1.342636	-0.297382
O18	O	-0.185373	-0.842636	0.202618
O19	O	-0.325760	-1.198280	-0.410951
O20	O	0.174240	-0.698280	0.089049
O21	O	-0.530415	-1.111559	-0.177498
O22	O	-0.030415	-0.611559	0.322502
O23	O	-0.530340	-0.984324	-0.304743
O24	O	-0.030340	-0.484324	0.195257
O25	O	-0.685240	-1.118997	-0.521040
O26	O	-0.185240	-0.618997	-0.021040
O27	O	-0.685286	-0.991718	-0.393768
O28	O	-0.185286	-0.491718	0.106232
O29	O	-0.530259	-1.208039	-0.528447
O30	O	-0.030259	-0.708039	-0.028447
O31	O	-0.889918	-1.225116	-0.287606
O32	O	-0.389918	-0.725116	0.212394
O33	O	-0.889860	-1.128712	-0.384018
O34	O	-0.389860	-0.628712	0.115982
C35	C	-0.607810	-0.959539	-0.349253
C36	C	-0.107810	-0.459539	0.150747
C37	C	-0.607831	-0.872290	-0.349262
C38	C	-0.107831	-0.372290	0.150738
C39	C	-0.935673	-1.179115	-0.333644
C40	C	-0.435673	-0.679115	0.166356
C41	C	-1.075924	-1.185872	-0.326984
C42	C	-0.575924	-0.685872	0.173016
C43	C	-0.607735	-1.163523	-0.554023
C44	C	-0.107735	-0.663523	-0.054023
C45	C	-0.607694	-1.163538	-0.641275
C46	C	-0.107694	-0.663538	-0.141275
C47	C	-0.278713	-1.147822	-0.364982
C48	C	0.221287	-0.647822	0.135018
C49	C	-0.138462	-1.141145	-0.371675
C50	C	0.361538	-0.641145	0.128325
C51	C	-0.607857	-1.368234	-0.349295
C52	C	-0.107857	-0.868234	0.150705
C53	C	-0.607867	-1.455484	-0.349304
C54	C	-0.107867	-0.955484	0.150696
C55	C	-0.688633	-0.835177	-0.395530
C56	C	-0.188633	-0.335177	0.104470
C57	C	-0.688636	-0.753196	-0.395543
C58	C	-0.188636	-0.253196	0.104457
C59	C	-0.607842	-0.708331	-0.349282
C60	C	-0.107842	-0.208331	0.150718
C61	C	-0.527031	-0.745450	-0.303011
C62	C	-0.027031	-0.245450	0.196989
C63	C	-0.527023	-0.827429	-0.303003
C64	C	-0.027023	-0.327429	0.196997
C65	C	-0.527056	-0.574582	-0.303029
C66	C	-0.027056	-0.074582	0.196971
C67	C	-0.527065	-0.492597	-0.303035
C68	C	-0.027065	0.007403	0.196965
C69	C	-0.688669	-0.500349	-0.395568
C70	C	-0.188669	-0.000349	0.104432
C71	C	-0.688660	-0.582328	-0.395561
C72	C	-0.188660	-0.082328	0.104439
C73	C	-0.607851	-0.619441	-0.349289
C74	C	-0.107851	-0.119441	0.150711
C75	C	-0.526974	-1.109505	-0.686111
C76	C	-0.026974	-0.609505	-0.186111
C77	C	-0.526945	-1.109516	-0.768093
C78	C	-0.026945	-0.609516	-0.268093
C79	C	-0.607631	-1.163565	-0.805237
C80	C	-0.107631	-0.663565	-0.305237
C81	C	-0.688360	-1.217600	-0.760394
C82	C	-0.188360	-0.717600	-0.260394
C83	C	-0.688394	-1.217585	-0.678414
C84	C	-0.188394	-0.717585	-0.178414
C85	C	-0.688281	-1.217631	-0.931268
C86	C	-0.188281	-0.717631	-0.431268
C87	C	-0.688245	-1.217647	-1.013255
C88	C	-0.188245	-0.717647	-0.513255
C89	C	-0.526832	-1.109562	-1.020948
C90	C	-0.026832	-0.609562	-0.520948
C91	C	-0.526866	-1.109546	-0.938967
C92	C	-0.026866	-0.609546	-0.438967
C93	C	-0.607594	-1.163583	-0.894130
C94	C	-0.107594	-0.663583	-0.394130
C95	C	-0.607839	-1.163494	-0.145326
C96	C	-0.107839	-0.663494	0.354674
C97	C	-0.607526	-1.163615	-0.058091
C98	C	-0.107526	-0.663615	0.441909
H99	H	-1.084708	-1.097684	-0.415034
H100	H	-0.584708	-0.597684	0.084966
H101	H	-0.461242	-0.708915	-0.265348
H102	H	0.038758	-0.208915	0.234652
F103	F	-1.146189	-1.242676	-0.270298
F104	F	-0.646189	-0.742676	0.229702
F105	F	-0.774636	-0.713701	-0.444789
F106	F	-0.274636	-0.213701	0.055211
H107	H	-0.754429	-0.871701	-0.433199
H108	H	-0.254429	-0.371701	0.066801
F109	F	-0.774658	-0.630075	-0.444791
F110	F	-0.274658	-0.130075	0.055209
H111	H	-0.754463	-0.470127	-0.433247
H112	H	-0.254463	0.029873	0.066753
H113	H	-0.754115	-1.261589	-0.641909
H114	H	-0.254115	-0.761589	-0.141909
F115	F	-0.441080	-0.444850	-0.253795
F116	F	0.058920	0.055150	0.246205
H117	H	-0.461241	-0.604796	-0.265357
H118	H	0.038759	-0.104796	0.234643
H119	H	-0.461219	-0.857645	-0.265331
H120	H	0.038781	-0.357645	0.234669
H121	H	-0.754062	-1.261604	-0.790643
H122	H	-0.254062	-0.761604	-0.290643
F123	F	-0.441089	-1.051981	-0.646588
F124	F	0.058911	-0.551981	-0.146588
F125	F	-0.441079	-1.051980	-0.815806
F126	F	0.058921	-0.551980	-0.315806
H127	H	-0.461159	-1.065539	-0.908727
H128	H	0.038841	-0.565539	-0.408727
H129	H	-0.461100	-1.065564	-1.057458
H130	H	0.038900	-0.565564	-0.557458
H131	H	-0.753947	-1.261659	-1.043495
H132	H	-0.253947	-0.761659	-0.543495
F133	F	-0.774206	-1.275140	-0.883551
F134	F	-0.274206	-0.775140	-0.383551
