data_functionalizedCrystal
_audit_creation_method	'MofGen! by Chris Wilmer'
_symmetry_space_group_name_H-M	'P1'
_symmetry_Int_Tables_number	1
_symmetry_cell_setting	triclinic
loop_
_symmetry_equiv_pos_as_xyz
  x,y,z
_cell_length_a	13.033291
_cell_length_b	25.639239
_cell_length_c	13.032268
_cell_angle_alpha	82.858909
_cell_angle_beta	90.920764
_cell_angle_gamma	97.208341
loop_
_atom_site_label
_atom_site_type_symbol
_atom_site_fract_x
_atom_site_fract_y
_atom_site_fract_z
Zn1	Zn	1.498345	-0.162668	0.781439
Zn2	Zn	1.520033	-0.237806	0.609447
Zn3	Zn	1.348207	-0.159907	0.587616
Zn4	Zn	1.326268	-0.259603	0.759482
O5	O	1.423214	-0.204996	0.684496
O6	O	1.645147	-0.164669	0.776950
O7	O	1.515499	-0.217195	0.462645
O8	O	1.368228	-0.087105	0.613380
O9	O	1.661081	-0.219872	0.650588
O10	O	1.478534	-0.089133	0.755781
O11	O	1.389259	-0.159963	0.446606
O12	O	1.201372	-0.181098	0.592089
O13	O	1.330837	-0.257021	0.906300
O14	O	1.185254	-0.254344	0.718358
O15	O	1.457260	-0.185804	0.922432
O16	O	1.494225	-0.313866	0.629297
O17	O	1.351867	-0.329880	0.739527
C18	C	1.155995	-0.219787	0.650472
C19	C	1.041675	-0.226129	0.635941
C20	C	1.423044	-0.340845	0.684424
C21	C	1.423061	-0.398959	0.684440
C22	C	0.864656	-0.208250	0.677070
C23	C	0.982813	-0.201696	0.692088
C24	C	1.349078	-0.658496	0.741870
C25	C	1.349041	-0.603893	0.741853
O26	O	1.285973	-0.582758	0.790627
N27	N	1.423184	-0.568229	0.684510
C28	C	1.497374	-0.587171	0.627187
O29	O	1.560436	-0.551822	0.578411
C30	C	1.497415	-0.641773	0.627211
C31	C	1.423261	-0.677434	0.684550
C32	C	1.274930	-0.694157	0.799206
C33	C	1.274966	-0.748756	0.799221
C34	C	1.349149	-0.767694	0.741900
C35	C	1.423296	-0.732034	0.684565
C36	C	1.571609	-0.660714	0.569895
C37	C	1.571643	-0.715321	0.569924
C38	C	1.497489	-0.750982	0.627263
C39	C	1.497515	-0.805571	0.627260
N40	N	1.423372	-0.841235	0.684603
C41	C	1.349189	-0.822297	0.741924
C42	C	1.497285	-0.472503	0.627144
C43	C	1.497241	-0.417902	0.627115
C44	C	1.348909	-0.434628	0.741782
C45	C	1.348949	-0.489230	0.741806
C46	C	1.423143	-0.508167	0.684488
C47	C	1.349269	-0.936958	0.741950
C48	C	1.349309	-0.991562	0.741957
C49	C	1.497644	-0.974831	0.627294
C50	C	1.497602	-0.920232	0.627282
C51	C	1.423410	-0.901298	0.684619
O52	O	1.560553	-0.826745	0.578514
O53	O	1.286147	-0.857651	0.790702
C54	C	1.691475	-0.190147	0.718654
C55	C	1.805792	-0.183820	0.733209
C56	C	1.389182	-0.224152	0.952723
C57	C	1.374680	-0.232315	1.067025
C58	C	1.423409	-0.068617	0.684594
C59	C	1.423492	-0.010500	0.684636
C60	C	1.457172	-0.185873	0.417320
C61	C	1.471873	-0.177552	0.303044
C62	C	1.430766	-0.200718	1.125967
C63	C	1.415779	-0.209154	1.244104
H64	H	0.827578	-0.234015	0.617884
F65	F	1.549156	-0.134031	1.254698
H66	H	1.557702	-0.487917	0.580461
F67	F	1.031268	-0.168010	0.769443
H68	H	1.004602	-0.251899	0.576755
F69	F	0.854252	-0.150136	0.810560
H70	H	1.315560	-0.265610	1.104023
F71	F	1.270306	-0.916815	0.802973
H72	H	1.288921	-1.020596	0.788651
F73	F	1.196051	-0.786704	0.860263
F74	F	1.650543	-0.622772	0.508876
F75	F	1.195969	-0.674011	0.860221
H76	H	1.288506	-0.419199	0.788457
F77	F	1.270026	-0.527179	0.802834
H78	H	1.557614	-0.388869	0.580411
H79	H	1.356655	-0.242451	1.281098
H80	H	1.632065	-0.730735	0.523252
F81	F	1.576593	-0.994997	0.566296
F82	F	1.576508	-0.882277	0.566235
H83	H	1.489876	-0.167419	1.088967
