data_functionalizedCrystal
_audit_creation_method	'MofGen! by Chris Wilmer'
_symmetry_space_group_name_H-M	'P1'
_symmetry_Int_Tables_number	1
_symmetry_cell_setting	triclinic
loop_
_symmetry_equiv_pos_as_xyz
  x,y,z
_cell_length_a	18.215405
_cell_length_b	18.215407
_cell_length_c	18.215399
_cell_angle_alpha	89.979405
_cell_angle_beta	90.030551
_cell_angle_gamma	89.975194
loop_
_atom_site_label
_atom_site_type_symbol
_atom_site_fract_x
_atom_site_fract_y
_atom_site_fract_z
Zn1	Zn	-0.292993	-1.125072	0.416118
Zn2	Zn	0.207007	-0.625072	0.916118
Zn3	Zn	-0.416065	-1.124980	0.293046
Zn4	Zn	0.083935	-0.624980	0.793046
Zn5	Zn	-0.293016	-1.002005	0.293063
Zn6	Zn	0.206984	-0.502005	0.793063
Zn7	Zn	-0.416023	-1.001970	0.416069
Zn8	Zn	0.083977	-0.501970	0.916069
O9	O	-0.354524	-1.063507	0.354574
O10	O	0.145476	-0.563507	0.854574
O11	O	-0.309327	-1.228044	0.399805
O12	O	0.190673	-0.728044	0.899805
O13	O	-0.399769	-1.108643	0.190064
O14	O	0.100231	-0.608643	0.690064
O15	O	-0.190029	-1.018382	0.309414
O16	O	0.309971	-0.518382	0.809414
O17	O	-0.399747	-1.227977	0.309384
O18	O	0.100253	-0.727977	0.809384
O19	O	-0.190012	-1.108799	0.399822
O20	O	0.309988	-0.608799	0.899822
O21	O	-0.309366	-1.018293	0.190077
O22	O	0.190634	-0.518293	0.690077
O23	O	-0.309325	-0.899016	0.309367
O24	O	0.190675	-0.399016	0.809367
O25	O	-0.399675	-1.018324	0.519060
O26	O	0.100325	-0.518324	1.019060
O27	O	-0.399697	-0.898991	0.399739
O28	O	0.100303	-0.398991	0.899739
O29	O	-0.309286	-1.108766	0.519095
O30	O	0.190714	-0.608766	1.019095
O31	O	-0.519043	-1.108610	0.309337
O32	O	-0.019043	-0.608610	0.809337
O33	O	-0.519012	-1.018235	0.399722
O34	O	-0.019012	-0.518235	0.899722
C35	C	-0.354510	-0.872301	0.354550
C36	C	0.145490	-0.372301	0.854550
C37	C	-0.354521	-0.790502	0.354558
C38	C	0.145479	-0.290502	0.854558
C39	C	-0.545731	-1.063429	0.354538
C40	C	-0.045731	-0.563429	0.854538
C41	C	-0.627529	-1.063463	0.354548
C42	C	-0.127529	-0.563463	0.854548
C43	C	-0.401650	-0.602314	0.401553
C44	C	0.098350	-0.102314	0.901553
C45	C	-0.401652	-0.525455	0.401561
C46	C	0.098348	-0.025455	0.901561
C47	C	-0.307402	-0.525452	0.307598
C48	C	0.192598	-0.025452	0.807598
C49	C	-0.307397	-0.602309	0.307594
C50	C	0.192603	-0.102309	0.807594
C51	C	-0.354526	-0.640738	0.354570
C52	C	0.145474	-0.140738	0.854570
C53	C	-0.354532	-0.487022	0.354582
C54	C	0.145468	0.012978	0.854582
C55	C	-0.354533	-0.403688	0.354591
C56	C	0.145467	0.096312	0.854591
C57	C	-0.354524	-0.724077	0.354563
C58	C	0.145476	-0.224077	0.854563
C59	C	-0.815715	-1.110632	0.307571
C60	C	-0.315715	-0.610632	0.807571
C61	C	-0.892574	-1.110665	0.307589
C62	C	-0.392574	-0.610665	0.807589
C63	C	-0.892581	-1.016476	0.401629
C64	C	-0.392581	-0.516476	0.901629
C65	C	-0.815724	-1.016447	0.401615
C66	C	-0.315724	-0.516447	0.901615
C67	C	-0.777293	-1.063524	0.354581
C68	C	-0.277293	-0.563524	0.854581
C69	C	-0.931009	-1.063586	0.354614
C70	C	-0.431009	-0.563586	0.854614
C71	C	-1.014343	-1.063621	0.354634
C72	C	-0.514343	-0.563621	0.854634
C73	C	-0.693954	-1.063490	0.354563
C74	C	-0.193954	-0.563490	0.854563
C75	C	-0.162571	-1.063605	0.354625
C76	C	0.337429	-0.563605	0.854625
C77	C	-0.080772	-1.063647	0.354648
C78	C	0.419228	-0.563647	0.854648
C79	C	-0.354473	-1.063552	0.546527
C80	C	0.145527	-0.563552	1.046527
C81	C	-0.354452	-1.063571	0.628326
C82	C	0.145548	-0.563571	1.128326
C83	C	-0.354537	-0.255460	0.354595
C84	C	0.145463	0.244540	0.854595
C85	C	-0.354536	-0.337259	0.354595
C86	C	0.145464	0.162741	0.854595
C87	C	-0.354522	-1.063504	0.163368
C88	C	0.145478	-0.563504	0.663368
C89	C	-0.354336	-1.063628	0.081569
C90	C	0.145664	-0.563628	0.581569
C91	C	-0.307342	-1.110681	0.816540
C92	C	0.192658	-0.610681	1.316540
C93	C	-0.307321	-1.110690	0.893398
C94	C	0.192679	-0.610690	1.393398
C95	C	-0.401448	-1.016513	0.893350
C96	C	0.098552	-0.516513	1.393350
C97	C	-0.401465	-1.016501	0.816493
C98	C	0.098535	-0.516501	1.316493
C99	C	-0.354413	-1.063589	0.778089
C100	C	0.145587	-0.563589	1.278089
C101	C	-0.354375	-1.063610	0.931806
C102	C	0.145625	-0.563610	1.431806
C103	C	-0.354352	-1.063619	1.015139
C104	C	0.145648	-0.563619	1.515139
C105	C	-0.354435	-1.063579	0.694750
C106	C	0.145565	-0.563579	1.194750
H107	H	-0.440025	-0.494174	0.439819
H108	H	0.059975	0.005826	0.939819
O109	O	-0.774260	-1.161413	0.256854
O110	O	-0.274260	-0.661413	0.756854
H111	H	-0.813893	-1.194182	0.224175
H112	H	-0.313893	-0.694182	0.724175
H113	H	-0.269033	-0.494153	0.269351
H114	H	0.230967	0.005847	0.769351
H115	H	-0.269018	-0.633595	0.269335
H116	H	0.230982	-0.133595	0.769335
H117	H	-0.269028	-1.149021	0.785274
H118	H	0.230972	-0.649021	1.285274
H119	H	-0.923854	-1.149026	0.269310
H120	H	-0.423854	-0.649026	0.769310
O121	O	-0.452215	-0.965685	0.775012
O122	O	0.047785	-0.465685	1.275012
H123	H	-0.484930	-0.932944	0.814627
H124	H	0.015070	-0.432944	1.314627
H125	H	-0.923881	-0.978146	0.439921
H126	H	-0.423881	-0.478146	0.939921
H127	H	-0.440024	-0.633601	0.439805
H128	H	0.059976	-0.133601	0.939805
H129	H	-0.268990	-1.149035	0.924701
H130	H	0.231010	-0.649035	1.424701
H131	H	-0.439757	-0.978177	0.924627
H132	H	0.060243	-0.478177	1.424627
O133	O	-0.774274	-0.965625	0.452310
O134	O	-0.274274	-0.465625	0.952310
H135	H	-0.813909	-0.932883	0.485006
H136	H	-0.313909	-0.432883	0.985006
