data_functionalizedCrystal
_audit_creation_method	'MofGen! by Chris Wilmer'
_symmetry_space_group_name_H-M	'P1'
_symmetry_Int_Tables_number	1
_symmetry_cell_setting	triclinic
loop_
_symmetry_equiv_pos_as_xyz
  x,y,z
_cell_length_a	14.519710
_cell_length_b	8.559649
_cell_length_c	7.681481
_cell_angle_alpha	94.930900
_cell_angle_beta	95.735070
_cell_angle_gamma	103.270596
loop_
_atom_site_label
_atom_site_type_symbol
_atom_site_fract_x
_atom_site_fract_y
_atom_site_fract_z
O1	O	1.199050	-0.224508	-0.146383
O2	O	1.699050	0.275492	0.353617
O3	O	0.928802	-0.249170	-0.146394
O4	O	1.428802	0.250830	0.353606
O5	O	1.087735	-0.004305	-0.146385
O6	O	1.587735	0.495695	0.353615
O7	O	1.040117	-0.469374	-0.146391
O8	O	1.540117	0.030626	0.353609
O9	O	1.107302	0.025902	0.146473
O10	O	1.607302	0.525902	0.646473
O11	O	0.948369	-0.218963	0.146465
O12	O	1.448369	0.281037	0.646465
O13	O	1.218617	-0.194301	0.146476
O14	O	1.718617	0.305699	0.646476
Zn15	Zn	1.086600	-0.201836	0.192968
Zn16	Zn	1.586600	0.298164	0.692968
Zn17	Zn	1.060820	-0.241635	-0.192886
Zn18	Zn	1.560820	0.258365	0.307114
O19	O	1.059684	-0.439166	0.146468
O20	O	1.559684	0.060834	0.646468
C21	C	0.904308	-0.232918	0.000034
C22	C	1.404308	0.267082	0.500034
C23	C	0.802174	-0.229474	0.000030
C24	C	1.302174	0.270526	0.500030
C25	C	1.243111	-0.210554	0.000044
C26	C	1.743111	0.289446	0.500044
C27	C	1.345244	-0.213999	0.000037
C28	C	1.845244	0.286001	0.500037
C29	C	1.719230	-0.226678	0.000036
C30	C	2.219230	0.273322	0.500036
C31	C	1.615175	-0.223157	0.000036
C32	C	2.115175	0.276843	0.500036
C33	C	1.532240	-0.220339	0.000035
C34	C	2.032240	0.279661	0.500035
C35	C	1.428179	-0.216817	0.000038
C36	C	1.928179	0.283183	0.500038
C37	C	1.101127	0.070318	0.000041
C38	C	1.601127	0.570318	0.500041
C39	C	1.111868	0.247666	0.000032
C40	C	1.611868	0.747666	0.500032
C41	C	1.046292	-0.513790	0.000038
C42	C	1.546292	-0.013790	0.500038
C43	C	1.035550	-0.691139	0.000036
C44	C	1.535550	-0.191139	0.500036
N45	N	1.104201	-0.174673	0.456303
N46	N	1.604201	0.325327	0.956303
N47	N	1.043227	-0.268786	-0.456221
N48	N	1.543227	0.231214	0.043779
H49	H	0.961993	0.225574	0.000038
H50	H	1.461993	0.725574	0.500038
H51	H	1.185431	0.330964	0.000049
H52	H	1.685431	0.830964	0.500049
H53	H	0.980985	-0.364846	0.468579
H54	H	1.480985	0.135154	0.968579
H55	H	1.166453	-0.078618	0.531513
H56	H	1.666453	0.421382	1.031513
