data_functionalizedCrystal
_audit_creation_method	'MofGen! by Chris Wilmer'
_symmetry_space_group_name_H-M	'P1'
_symmetry_Int_Tables_number	1
_symmetry_cell_setting	triclinic
loop_
_symmetry_equiv_pos_as_xyz
  x,y,z
_cell_length_a	10.489716
_cell_length_b	10.489741
_cell_length_c	12.996460
_cell_angle_alpha	89.994152
_cell_angle_beta	89.994805
_cell_angle_gamma	84.534155
loop_
_atom_site_label
_atom_site_type_symbol
_atom_site_fract_x
_atom_site_fract_y
_atom_site_fract_z
O1	O	1.694074	0.179821	-0.085558
O2	O	2.194074	0.679821	0.414442
O3	O	1.322874	0.196747	-0.085562
O4	O	1.822874	0.696747	0.414438
O5	O	1.516920	0.002685	-0.085554
O6	O	2.016920	0.502685	0.414446
O7	O	1.500027	0.373883	-0.085566
O8	O	2.000027	0.873883	0.414434
O9	O	1.516900	0.002674	0.085580
O10	O	2.016900	0.502674	0.585580
O11	O	1.322853	0.196736	0.085572
O12	O	1.822853	0.696736	0.585572
O13	O	1.694053	0.179810	0.085576
O14	O	2.194053	0.679810	0.585576
Cu15	Cu	1.508451	0.188272	0.101200
Cu16	Cu	2.008451	0.688272	0.601200
Cu17	Cu	1.508476	0.188285	-0.101186
Cu18	Cu	2.008476	0.688285	0.398814
O19	O	1.500007	0.373872	0.085568
O20	O	2.000007	0.873872	0.585568
C21	C	1.275332	0.195470	0.000005
C22	C	1.775332	0.695470	0.500005
C23	C	1.133701	0.191665	0.000003
C24	C	1.633701	0.691665	0.500003
C25	C	1.036027	0.310669	-0.000003
C26	C	1.536027	0.810669	0.499997
C27	C	0.958671	0.247780	0.084382
C28	C	1.458671	0.747780	0.584382
C29	C	0.958697	0.247762	-0.084343
C30	C	1.458697	0.747762	0.415657
C31	C	1.058210	0.128825	0.084458
C32	C	1.558210	0.628825	0.584458
C33	C	1.058242	0.128825	-0.084343
C34	C	1.558242	0.628825	0.415657
C35	C	0.980935	0.065848	0.000063
C36	C	1.480935	0.565848	0.500063
C37	C	1.515634	-0.044852	0.000013
C38	C	2.015634	0.455148	0.500013
C39	C	1.511817	-0.186481	0.000011
C40	C	2.011817	0.313519	0.500011
C41	C	1.388351	-0.254610	0.000002
C42	C	1.888351	0.245390	0.500002
C43	C	1.446665	-0.346743	0.084380
C44	C	1.946665	0.153257	0.584380
C45	C	1.446714	-0.346707	-0.084344
C46	C	1.946714	0.153293	0.415656
C47	C	1.570182	-0.276748	0.084459
C48	C	2.070182	0.223252	0.584459
C49	C	1.570214	-0.276703	-0.084342
C50	C	2.070214	0.223297	0.415658
C51	C	1.628618	-0.368808	0.000058
C52	C	2.128618	0.131192	0.500058
C53	C	1.741596	0.181087	0.000007
C54	C	2.241596	0.681087	0.500007
C55	C	1.883227	0.184892	0.000002
C56	C	2.383227	0.684892	0.500002
C57	C	1.501293	0.421409	-0.000001
C58	C	2.001293	0.921409	0.499999
C59	C	1.505110	0.563038	-0.000006
C60	C	2.005110	1.063038	0.499994
N61	N	1.508444	0.188262	0.243547
N62	N	2.008444	0.688262	0.743547
N63	N	1.508493	0.188285	-0.243533
N64	N	2.008493	0.688285	0.256467
C65	C	1.508474	0.188286	0.663361
C66	C	2.008474	0.688286	1.163361
C67	C	1.508462	0.188284	0.546556
C68	C	2.008462	0.688284	1.046556
C69	C	1.508459	0.188275	0.453458
C70	C	2.008459	0.688275	0.953458
C71	C	1.508446	0.188271	0.336645
C72	C	2.008446	0.688271	0.836645
H73	H	1.101746	0.078631	-0.155683
H74	H	1.601746	0.578631	0.344317
Br75	Br	0.940202	-0.106807	0.000147
Br76	Br	1.440202	0.393193	0.500147
H77	H	1.730222	-0.418241	0.000105
H78	H	2.230222	0.081759	0.500105
Br79	Br	1.657231	-0.224956	-0.203245
Br80	Br	2.157231	0.275044	0.296755
H81	H	0.915222	0.298028	-0.155673
H82	H	1.415222	0.798028	0.344327
Br83	Br	1.359585	-0.398430	0.203279
Br84	Br	1.859585	0.101570	0.703279
H85	H	1.286838	-0.204950	0.000086
H86	H	1.786838	0.295050	0.500086
H87	H	1.622369	-0.245926	0.155874
H88	H	2.122369	0.254074	0.655874
H89	H	1.394466	-0.377662	-0.155686
H90	H	1.894466	0.122338	0.344314
H91	H	0.915180	0.298012	0.155718
H92	H	1.415180	0.798012	0.655718
Br93	Br	1.130382	0.045133	0.203483
Br94	Br	1.630382	0.545133	0.703483
Br95	Br	1.077159	0.483196	0.000120
Br96	Br	1.577159	0.983196	0.500120
