data_functionalizedCrystal
_audit_creation_method	'MofGen! by Chris Wilmer'
_symmetry_space_group_name_H-M	'P1'
_symmetry_Int_Tables_number	1
_symmetry_cell_setting	triclinic
loop_
_symmetry_equiv_pos_as_xyz
  x,y,z
_cell_length_a	16.959453
_cell_length_b	19.121241
_cell_length_c	16.959447
_cell_angle_alpha	87.541091
_cell_angle_beta	89.968936
_cell_angle_gamma	92.454254
loop_
_atom_site_label
_atom_site_type_symbol
_atom_site_fract_x
_atom_site_fract_y
_atom_site_fract_z
Zn1	Zn	-0.263219	1.073744	-0.498569
Zn2	Zn	-0.395415	1.073675	-0.366386
Zn3	Zn	-0.268878	0.956299	-0.360756
Zn4	Zn	-0.400988	0.956268	-0.492875
O5	O	-0.332125	1.014996	-0.429646
O6	O	-0.276054	1.172021	-0.485774
O7	O	-0.378665	1.058089	-0.255027
O8	O	-0.157514	0.971920	-0.379064
O9	O	-0.373178	1.171970	-0.388659
O10	O	-0.153357	1.058206	-0.480315
O11	O	-0.285699	0.971853	-0.250891
O12	O	-0.291104	0.858008	-0.373542
O13	O	-0.382677	0.971867	-0.604242
O14	O	-0.388164	0.857985	-0.470610
O15	O	-0.281459	1.058176	-0.608426
O16	O	-0.506767	1.058059	-0.383138
O17	O	-0.510862	0.971800	-0.476069
C18	C	-0.340853	0.832512	-0.420848
C19	C	-0.344606	0.754445	-0.417102
C20	C	-0.295883	0.717796	-0.465983
C21	C	-0.299405	0.644443	-0.462457
C22	C	-0.351656	0.607741	-0.410054
C23	C	-0.400382	0.644395	-0.361169
C24	C	-0.396855	0.717747	-0.364691
C25	C	-0.364828	0.386266	-0.396881
C26	C	-0.368353	0.312910	-0.393364
C27	C	-0.267375	0.312962	-0.494651
C28	C	-0.263856	0.386315	-0.498173
C29	C	-0.312579	0.422963	-0.449284
C30	C	-0.355260	0.532763	-0.406450
C31	C	-0.308970	0.497940	-0.452884
C32	C	-0.537494	1.014938	-0.429615
C33	C	-0.625349	1.014977	-0.429631
C34	C	-0.994597	1.059983	-0.482466
C35	C	-0.999040	0.970206	-0.376954
C36	C	-0.916496	0.970180	-0.376934
C37	C	-0.872998	1.015055	-0.429682
C38	C	-0.912045	1.059957	-0.482450
C39	C	-0.877443	0.925274	-0.324173
C40	C	-0.794893	0.925246	-0.324152
C41	C	-0.751394	0.970125	-0.376897
C42	C	-0.790446	1.015029	-0.429666
C43	C	-0.746948	1.059905	-0.482414
C44	C	-0.785998	1.104813	-0.535180
C45	C	-0.868546	1.104837	-0.535195
C46	C	-0.668846	0.970101	-0.376882
C47	C	-0.664396	1.059879	-0.482398
C48	C	-0.125953	1.015074	-0.429697
C49	C	-0.038095	1.015107	-0.429718
C50	C	-0.332058	1.015026	-0.635816
C51	C	-0.332030	1.015038	-0.723673
C52	C	-0.323363	1.198193	-0.438480
C53	C	-0.319629	1.276260	-0.442244
C54	C	-0.384642	0.970185	-1.092978
C55	C	-0.279243	1.060059	-1.097329
C56	C	-0.279260	1.060040	-1.014782
C57	C	-0.331970	1.015094	-0.971329
C58	C	-0.384663	0.970166	-1.010423
C59	C	-0.226574	1.104972	-0.975682
C60	C	-0.226590	1.104956	-0.893130
C61	C	-0.279297	1.060006	-0.849676
C62	C	-0.331991	1.015075	-0.888775
C63	C	-0.384701	0.970129	-0.845322
C64	C	-0.437392	0.925195	-0.884419
C65	C	-0.437370	0.925215	-0.966968
C66	C	-0.279320	1.059985	-0.767126
C67	C	-0.384722	0.970110	-0.762767
C68	C	-0.332133	1.015008	-0.224281
C69	C	-0.331932	1.015131	-0.136430
H70	H	-0.253337	0.747673	-0.508656
C71	C	-0.495330	0.875798	-1.009973
H72	H	-0.526722	0.849021	-0.972273
H73	H	-0.528476	0.902663	-1.043455
H74	H	-0.466545	0.845212	-1.040715
H75	H	-0.236333	1.096656	-1.132713
C76	C	-1.037544	1.109381	-0.540503
H77	H	-0.999813	1.136106	-0.571910
H78	H	-1.071035	1.082510	-0.573630
H79	H	-1.068270	1.140016	-0.511769
H80	H	-0.427539	0.933598	-1.124814
H81	H	-0.183665	1.141570	-1.011068
C82	C	-0.616551	1.109242	-0.540420
H83	H	-0.561795	1.102799	-0.532852
H84	H	-0.630545	1.098941	-0.593025
H85	H	-0.627787	1.156447	-0.531164
C86	C	-0.911498	1.154229	-0.593233
H87	H	-0.873772	1.180958	-0.624641
H88	H	-0.944985	1.127352	-0.626358
H89	H	-0.942230	1.184860	-0.564501
H90	H	-1.034461	0.933667	-0.334012
C91	C	-0.925289	0.875920	-0.266151
H92	H	-0.980043	0.882376	-0.273711
H93	H	-0.914059	0.828716	-0.275392
H94	H	-0.911292	0.886234	-0.213546
C95	C	-0.450457	0.758061	-0.310930
H96	H	-0.482087	0.725698	-0.279222
H97	H	-0.418806	0.786673	-0.277917
H98	H	-0.483560	0.786676	-0.342487
C99	C	-0.751941	0.875853	-0.266113
H100	H	-0.696549	0.882261	-0.273659
H101	H	-0.765008	0.886165	-0.213514
H102	H	-0.767759	0.828657	-0.275372
C103	C	-0.206373	0.426682	-0.555808
H104	H	-0.177853	0.394349	-0.584409
H105	H	-0.235271	0.455304	-0.591569
H106	H	-0.170519	0.455290	-0.526997
H107	H	-0.266425	0.527826	-0.495547
H108	H	-0.637056	0.933535	-0.333925
C109	C	-0.442715	0.920678	-0.714976
H110	H	-0.474097	0.893929	-0.750085
H111	H	-0.413962	0.890078	-0.681300
H112	H	-0.475881	0.947539	-0.684065
H113	H	-0.397803	0.502872	-0.363784
H114	H	-0.480312	0.888602	-0.849029
C115	C	-0.221371	1.109406	-0.724119
H116	H	-0.228934	1.102961	-0.668732
H117	H	-0.168748	1.099157	-0.737171
H118	H	-0.230690	1.156597	-0.739913
H119	H	-0.183686	1.141544	-0.861305
C120	C	-0.245811	0.604132	-0.516226
H121	H	-0.214194	0.636496	-0.547946
H122	H	-0.212706	0.575516	-0.484679
H123	H	-0.277471	0.575522	-0.549240
C124	C	-0.213781	0.272651	-0.548422
H125	H	-0.182162	0.305016	-0.580139
H126	H	-0.180679	0.244032	-0.516876
H127	H	-0.245442	0.244045	-0.581439
C128	C	-0.425830	0.272538	-0.335717
H129	H	-0.454338	0.304870	-0.307101
H130	H	-0.461684	0.243929	-0.364520
H131	H	-0.396920	0.243917	-0.299958
H132	H	-0.404502	0.416096	-0.357074
H133	H	-0.750573	1.141348	-0.578131
C134	C	-0.457857	0.604025	-0.303528
H135	H	-0.452987	0.555091	-0.308436
H136	H	-0.445649	0.616031	-0.251016
H137	H	-0.510405	0.616043	-0.315585
