data_functionalizedCrystal
_audit_creation_method	'MofGen! by Chris Wilmer'
_symmetry_space_group_name_H-M	'P1'
_symmetry_Int_Tables_number	1
_symmetry_cell_setting	triclinic
loop_
_symmetry_equiv_pos_as_xyz
  x,y,z
_cell_length_a	19.188905
_cell_length_b	19.188930
_cell_length_c	9.130313
_cell_angle_alpha	89.993647
_cell_angle_beta	89.992651
_cell_angle_gamma	83.139668
loop_
_atom_site_label
_atom_site_type_symbol
_atom_site_fract_x
_atom_site_fract_y
_atom_site_fract_z
O1	O	0.926152	0.087081	-0.122057
O2	O	1.426152	0.587081	0.377943
O3	O	0.722838	0.098834	-0.122009
O4	O	1.222838	0.598834	0.377991
O5	O	0.830362	-0.008699	-0.122006
O6	O	1.330362	0.491301	0.377994
O7	O	0.818628	0.194614	-0.122060
O8	O	1.318628	0.694614	0.377940
O9	O	0.830361	-0.008696	0.121593
O10	O	1.330361	0.491304	0.621593
O11	O	0.722837	0.098837	0.121590
O12	O	1.222837	0.598837	0.621590
O13	O	0.926151	0.087084	0.121542
O14	O	1.426151	0.587084	0.621542
Cu15	Cu	0.824494	0.092961	0.143808
Cu16	Cu	1.324494	0.592961	0.643808
Cu17	Cu	0.824495	0.092957	-0.144276
Cu18	Cu	1.324495	0.592957	0.355724
O19	O	0.818627	0.194617	0.121539
O20	O	1.318627	0.694617	0.621539
C21	C	0.696826	0.098458	-0.000203
C22	C	1.196826	0.598458	0.499797
C23	C	0.619321	0.097324	-0.000184
C24	C	1.119321	0.597324	0.499816
C25	C	0.582930	0.096778	-0.132973
C26	C	1.082930	0.596778	0.367027
C27	C	0.510106	0.095705	-0.132991
C28	C	1.010106	0.595705	0.367009
C29	C	0.473678	0.095164	-0.000212
C30	C	0.973678	0.595164	0.499788
C31	C	0.510078	0.095714	0.132595
C32	C	1.010078	0.595714	0.632595
C33	C	0.582899	0.096794	0.132609
C34	C	1.082899	0.596794	0.632609
N35	N	0.364657	0.053736	0.098614
N36	N	0.864657	0.553736	0.598614
N37	N	0.295480	0.052709	0.098591
N38	N	0.795480	0.552709	0.598591
C39	C	0.254272	0.091911	-0.000246
C40	C	0.754272	0.591911	0.499754
N41	N	0.284854	0.132171	-0.099083
N42	N	0.784854	0.632171	0.400917
N43	N	0.354038	0.133195	-0.099065
N44	N	0.854038	0.633195	0.400935
C45	C	0.394716	0.093993	-0.000212
C46	C	0.894716	0.593993	0.499788
C47	C	0.138917	0.090203	-0.133064
C48	C	0.638917	0.590203	0.366936
C49	C	0.066091	0.089134	-0.133077
C50	C	0.566091	0.589134	0.366923
C51	C	0.066065	0.089136	0.132513
C52	C	0.566065	0.589136	0.632513
C53	C	0.138888	0.090212	0.132522
C54	C	0.638888	0.590212	0.632522
C55	C	0.175310	0.090742	-0.000271
C56	C	0.675310	0.590742	0.499729
C57	C	0.829982	-0.034708	-0.000202
C58	C	1.329982	0.465292	0.499798
C59	C	0.828841	-0.112213	-0.000189
C60	C	1.328841	0.387787	0.499811
C61	C	0.891933	-0.157142	-0.000197
C62	C	1.391933	0.342858	0.499803
C63	C	0.890861	-0.229966	-0.000220
C64	C	1.390861	0.270034	0.499780
C65	C	0.826694	-0.257857	-0.000206
C66	C	1.326694	0.242143	0.499794
C67	C	0.763594	-0.212917	-0.000207
C68	C	1.263594	0.287083	0.499793
C69	C	0.764668	-0.140095	-0.000198
C70	C	1.264668	0.359905	0.499802
N71	N	0.777646	-0.365856	0.082707
N72	N	1.277646	0.134144	0.582707
N73	N	0.776630	-0.435035	0.082702
N74	N	1.276630	0.064965	0.582702
C75	C	0.823456	-0.477265	-0.000235
C76	C	1.323456	0.022735	0.499765
N77	N	0.871346	-0.447705	-0.083148
N78	N	1.371346	0.052295	0.416852
N79	N	0.872363	-0.378520	-0.083137
N80	N	1.372363	0.121480	0.416863
C81	C	0.825523	-0.336819	-0.000216
C82	C	1.325523	0.163181	0.499784
C83	C	0.885390	-0.601159	-0.000270
C84	C	1.385390	-0.101159	0.499730
C85	C	0.884315	-0.673984	-0.000302
C86	C	1.384315	-0.173984	0.499698
C87	C	0.757047	-0.656933	-0.000274
C88	C	1.257047	-0.156933	0.499726
C89	C	0.758123	-0.584110	-0.000257
C90	C	1.258123	-0.084110	0.499743
C91	C	0.822296	-0.556228	-0.000248
C92	C	1.322296	-0.056228	0.499752
C93	C	0.952163	0.087460	-0.000267
C94	C	1.452163	0.587460	0.499733
C95	C	1.029668	0.088594	-0.000296
C96	C	1.529668	0.588594	0.499704
C97	C	0.819007	0.220626	-0.000268
C98	C	1.319007	0.720626	0.499732
C99	C	0.820148	0.298131	-0.000291
C100	C	1.320148	0.798131	0.499709
N101	N	0.824498	0.092963	0.346431
N102	N	1.324498	0.592963	0.846431
N103	N	0.824497	0.092950	-0.346898
N104	N	1.324497	0.592950	0.153102
C105	C	0.872121	0.045363	0.423084
C106	C	1.372121	0.545363	0.923084
C107	C	0.872119	0.045355	0.576421
C108	C	1.372119	0.545355	1.076421
C109	C	0.776868	0.140551	0.576438
C110	C	1.276868	0.640551	1.076438
C111	C	0.776867	0.140556	0.423104
C112	C	1.276867	0.640556	0.923104
C113	C	0.919752	-0.002230	0.346412
C114	C	1.419752	0.497770	0.846412
C115	C	0.967380	-0.049833	0.423065
C116	C	1.467380	0.450167	0.923065
C117	C	0.967378	-0.049841	0.576402
C118	C	1.467378	0.450159	1.076402
C119	C	0.919748	-0.002247	0.653085
C120	C	1.419748	0.497753	1.153085
H121	H	0.612580	0.097209	-0.241104
H122	H	1.112580	0.597209	0.258896
H123	H	0.704801	-0.679641	-0.000270
H124	H	1.204801	-0.179641	0.499730
H125	H	1.006155	-0.088587	0.360622
H126	H	1.506155	0.411413	0.860622
Cl127	Cl	0.966063	-0.566103	-0.000251
Cl128	Cl	1.466063	-0.066103	0.499749
H129	H	0.036462	0.088693	-0.241214
H130	H	0.536462	0.588693	0.258786
Cl131	Cl	0.972607	-0.122094	-0.000227
Cl132	Cl	1.472607	0.377906	0.499773
Cl133	Cl	0.464348	0.095017	-0.299939
Cl134	Cl	0.964348	0.595017	0.200061
Cl135	Cl	0.678803	-0.527624	-0.000240
Cl136	Cl	1.178803	-0.027624	0.499760
H137	H	0.480413	0.095275	0.240705
H138	H	0.980413	0.595275	0.740705
Cl139	Cl	0.919759	-0.002220	0.153646
Cl140	Cl	1.419759	0.497780	0.653646
Cl141	Cl	0.716997	0.200382	0.672839
Cl142	Cl	1.216997	0.700382	1.172839
H143	H	0.738087	0.179315	0.360692
H144	H	1.238087	0.679315	0.860692
H145	H	0.919746	-0.002262	0.777943
H146	H	1.419746	0.497738	1.277943
H147	H	1.006154	-0.088605	0.638812
H148	H	1.506154	0.411395	1.138812
Cl149	Cl	0.628650	0.097480	0.299559
Cl150	Cl	1.128650	0.597480	0.799559
Cl151	Cl	0.970182	-0.286459	-0.000231
Cl152	Cl	1.470182	0.213541	0.499769
H153	H	0.711349	-0.235631	-0.000198
H154	H	1.211349	0.264369	0.499802
H155	H	0.935694	-0.710565	-0.000317
H156	H	1.435694	-0.210565	0.499683
Cl157	Cl	0.685346	-0.083609	-0.000187
Cl158	Cl	1.185346	0.416391	0.499813
H159	H	0.168572	0.090641	-0.241192
H160	H	0.668572	0.590641	0.258808
Cl161	Cl	0.020276	0.088463	0.299438
Cl162	Cl	0.520276	0.588463	0.799438
H163	H	0.168519	0.090652	0.240653
H164	H	0.668519	0.590652	0.740653
