data_functionalizedCrystal
_audit_creation_method	'MofGen! by Chris Wilmer'
_symmetry_space_group_name_H-M	'P1'
_symmetry_Int_Tables_number	1
_symmetry_cell_setting	triclinic
loop_
_symmetry_equiv_pos_as_xyz
  x,y,z
_cell_length_a	14.908520
_cell_length_b	18.215407
_cell_length_c	14.908308
_cell_angle_alpha	86.722162
_cell_angle_beta	96.360765
_cell_angle_gamma	86.678826
loop_
_atom_site_label
_atom_site_type_symbol
_atom_site_fract_x
_atom_site_fract_y
_atom_site_fract_z
Zn1	Zn	-0.389866	-1.081649	-0.532577
Zn2	Zn	-0.532511	-1.081565	-0.389947
Zn3	Zn	-0.381169	-0.966119	-0.381233
Zn4	Zn	-0.541185	-0.951021	-0.541255
O5	O	-0.461183	-1.020088	-0.461253
O6	O	-0.408798	-1.184621	-0.513671
O7	O	-0.505166	-1.072535	-0.262130
O8	O	-0.255658	-0.987798	-0.394031
O9	O	-0.513598	-1.184559	-0.408882
O10	O	-0.262048	-1.072677	-0.505222
O11	O	-0.393975	-0.987717	-0.255729
O12	O	-0.402386	-0.861133	-0.402446
O13	O	-0.528382	-0.962065	-0.666764
O14	O	-0.519949	-0.850040	-0.520013
O15	O	-0.417208	-1.058037	-0.660388
O16	O	-0.660327	-1.057895	-0.417297
O17	O	-0.666699	-0.961984	-0.528462
C18	C	-0.461166	-0.828884	-0.461226
C19	C	-0.461182	-0.747084	-0.461237
C20	C	-0.696357	-1.008311	-0.474786
C21	C	-0.796967	-1.003338	-0.480606
C22	C	-0.474733	-1.008376	-0.697336
C23	C	-0.480507	-1.003385	-0.797941
C24	C	-0.979332	-1.093958	-0.375879
C25	C	-1.073864	-1.089289	-0.381345
C26	C	-1.080565	-0.989334	-0.497006
C27	C	-0.986033	-0.994003	-0.491541
C28	C	-0.935420	-1.046316	-0.430974
C29	C	-0.840886	-1.050982	-0.425505
C30	C	-0.847588	-0.951031	-0.541171
C31	C	-0.942120	-0.946362	-0.546636
C32	C	-0.225092	-1.031931	-0.447686
C33	C	-0.124484	-1.036977	-0.441905
C34	C	-0.461201	-1.212039	-0.461280
C35	C	-0.461208	-1.293837	-0.461292
C36	C	-0.522484	-0.553133	-0.522387
C37	C	-0.522487	-0.476273	-0.522398
C38	C	-0.399900	-0.487794	-0.400139
C39	C	-0.399893	-0.564652	-0.400133
C40	C	-0.461190	-0.597319	-0.461256
C41	C	-0.461200	-0.443602	-0.461274
C42	C	-0.461203	-0.360267	-0.461286
C43	C	-0.461185	-0.680659	-0.461245
C44	C	-0.375571	-1.093941	-0.980349
C45	C	-0.380993	-1.089254	-1.074875
C46	C	-0.496769	-0.989321	-1.081522
C47	C	-0.491346	-0.994008	-0.986996
C48	C	-0.430747	-1.046321	-0.936412
C49	C	-0.425330	-1.051011	-0.841884
C50	C	-0.541100	-0.951075	-0.848532
C51	C	-0.546522	-0.946388	-0.943059
C52	C	-0.447620	-1.031800	-0.226084
C53	C	-0.441591	-1.036947	-0.125466
H54	H	-0.799677	-1.093576	-0.376187
O55	O	-0.805040	-0.904771	-0.594825
C56	C	-0.784893	-0.862751	-0.747067
C57	C	-0.833155	-0.915168	-0.686417
H58	H	-0.807591	-0.871149	-0.821132
H59	H	-0.802663	-0.803277	-0.732250
H60	H	-0.708635	-0.875058	-0.732712
H61	H	-0.909423	-0.902928	-0.700738
H62	H	-0.815311	-0.974626	-0.701246
O63	O	-0.930300	-1.144830	-0.317022
C64	C	-0.933623	-1.243436	-0.202821
C65	C	-0.989262	-1.185871	-0.269456
H66	H	-0.981270	-1.276622	-0.164333
H67	H	-0.891716	-1.282067	-0.241811
H68	H	-0.886681	-1.214194	-0.152941
H69	H	-1.036253	-1.215050	-0.319352
H70	H	-1.031109	-1.147244	-0.230407
H71	H	-0.349974	-0.600631	-0.350352
O72	O	-0.316586	-1.144683	-0.931239
C73	C	-0.160969	-1.189596	-0.893502
C74	C	-0.227668	-1.132076	-0.949151
H75	H	-0.089066	-1.179433	-0.907978
H76	H	-0.166493	-1.184766	-0.818379
H77	H	-0.177984	-1.247211	-0.912998
H78	H	-0.210697	-1.074435	-0.929732
H79	H	-0.222131	-1.136971	-1.024261
H80	H	-0.572397	-0.440299	-0.572179
H81	H	-0.983342	-0.903772	-0.595950
O82	O	-0.605288	-0.895477	-0.992152
C83	C	-0.650929	-0.766663	-1.023544
C84	C	-0.584299	-0.824239	-0.967906
H85	H	-0.633995	-0.709055	-1.003948
H86	H	-0.645326	-0.771425	-1.098664
H87	H	-0.722843	-0.776893	-1.009166
H88	H	-0.512357	-0.814046	-0.982207
H89	H	-0.589982	-0.819462	-0.892804
H90	H	-1.121791	-0.946747	-0.546322
H91	H	-0.572393	-0.579727	-0.572159
O92	O	-0.340447	-0.455940	-0.340800
C93	C	-0.286086	-0.342643	-0.286667
C94	C	-0.353480	-0.378619	-0.353904
H95	H	-0.296587	-0.280124	-0.297250
H96	H	-0.297675	-0.360522	-0.214543
H97	H	-0.214052	-0.360660	-0.298474
H98	H	-0.425540	-0.360620	-0.342179
H99	H	-0.341813	-0.360742	-0.426004
H100	H	-1.109614	-1.128085	-0.336482
O101	O	-0.366336	-1.101749	-0.792779
C102	C	-0.210710	-1.146641	-0.755058
C103	C	-0.277424	-1.089128	-0.810699
H104	H	-0.138812	-1.136467	-0.769540
H105	H	-0.216229	-1.141818	-0.679933
H106	H	-0.227714	-1.204258	-0.774558
H107	H	-0.260463	-1.031485	-0.791277
H108	H	-0.271892	-1.094016	-0.885810
H109	H	-0.336062	-1.128030	-1.110645
H110	H	-0.546106	-0.946731	-1.122724
H111	H	-0.586030	-0.912300	-0.812749
