data_functionalizedCrystal
_audit_creation_method	'MofGen! by Chris Wilmer'
_symmetry_space_group_name_H-M	'P1'
_symmetry_Int_Tables_number	1
_symmetry_cell_setting	triclinic
loop_
_symmetry_equiv_pos_as_xyz
  x,y,z
_cell_length_a	19.077269
_cell_length_b	16.120444
_cell_length_c	19.076919
_cell_angle_alpha	84.952692
_cell_angle_beta	85.330942
_cell_angle_gamma	90.514064
loop_
_atom_site_label
_atom_site_type_symbol
_atom_site_fract_x
_atom_site_fract_y
_atom_site_fract_z
Zn1	Zn	1.043833	-0.399339	0.373069
Zn2	Zn	1.543833	0.100661	0.873069
Zn3	Zn	1.042506	-0.533369	0.261162
Zn4	Zn	1.542506	-0.033369	0.761162
Zn5	Zn	0.931170	-0.388596	0.259457
Zn6	Zn	1.431170	0.111404	0.759457
Zn7	Zn	0.919939	-0.533328	0.383743
Zn8	Zn	1.419939	-0.033328	0.883743
O9	O	0.984362	-0.463658	0.319358
O10	O	1.484362	0.036342	0.819358
O11	O	1.142102	-0.421632	0.354470
O12	O	1.642102	0.078368	0.854470
O13	O	1.031882	-0.509686	0.162088
O14	O	1.531882	-0.009686	0.662088
O15	O	0.951370	-0.273358	0.269348
O16	O	1.451370	0.226642	0.769348
O17	O	1.141127	-0.520103	0.272252
O18	O	1.641127	-0.020103	0.772252
O19	O	1.034143	-0.281251	0.352817
O20	O	1.534143	0.218749	0.852817
O21	O	0.950083	-0.403322	0.160836
O22	O	1.450083	0.096678	0.660836
O23	O	0.831235	-0.403281	0.279698
O24	O	1.331235	0.096719	0.779698
O25	O	0.932229	-0.520032	0.481174
O26	O	1.432229	-0.020032	0.981174
O27	O	0.822984	-0.509615	0.371010
O28	O	1.322984	-0.009615	0.871010
O29	O	1.023253	-0.421591	0.473332
O30	O	1.523253	0.078409	0.973332
O31	O	1.020992	-0.650027	0.282603
O32	O	1.520992	-0.150027	0.782603
O33	O	0.930942	-0.649996	0.372662
O34	O	1.430942	-0.149996	0.872662
C35	C	0.801584	-0.455279	0.326328
C36	C	1.301584	0.044721	0.826328
C37	C	0.723389	-0.451715	0.329327
C38	C	1.223389	0.048285	0.829327
C39	C	0.686149	-0.501220	0.287859
C40	C	1.186149	-0.001220	0.787859
C41	C	0.612676	-0.497872	0.290687
C42	C	1.112676	0.002128	0.790687
C43	C	0.576445	-0.445014	0.334979
C44	C	1.076445	0.054986	0.834979
C45	C	0.613690	-0.395507	0.376452
C46	C	1.113690	0.104493	0.876452
C47	C	0.687161	-0.398860	0.373628
C48	C	1.187161	0.101140	0.873628
C49	C	0.356763	-0.429502	0.348028
C50	C	0.856763	0.070498	0.848028
C51	C	0.283287	-0.426151	0.350847
C52	C	0.783287	0.073849	0.850847
C53	C	0.282278	-0.528517	0.265082
C54	C	0.782278	-0.028517	0.765082
C55	C	0.355751	-0.531861	0.262259
C56	C	0.855751	-0.031861	0.762259
C57	C	0.392990	-0.482358	0.303734
C58	C	0.892990	0.017642	0.803734
N59	N	0.501344	-0.441588	0.337869
N60	N	1.001344	0.058412	0.837869
N61	N	0.468089	-0.485788	0.300848
N62	N	0.968089	0.014212	0.800848
C63	C	0.974623	-0.680263	0.328990
C64	C	1.474623	-0.180263	0.828990
C65	C	0.970520	-0.772931	0.333132
C66	C	1.470520	-0.272931	0.833132
C67	C	1.005812	-0.983878	0.298016
C68	C	1.505812	-0.483878	0.798016
C69	C	0.963042	-0.942593	0.340702
C70	C	1.463042	-0.442593	0.840702
C71	C	0.967204	-0.848184	0.336489
C72	C	1.467204	-0.348184	0.836489
C73	C	1.001651	-1.078295	0.302227
C74	C	1.501651	-0.578295	0.802227
C75	C	1.167854	-0.472071	0.312361
C76	C	1.667854	0.027929	0.812361
C77	C	1.246047	-0.475656	0.309379
C78	C	1.746047	0.024344	0.809379
C79	C	0.976637	-0.472005	0.503599
C80	C	1.476637	0.027995	1.003599
C81	C	0.973344	-0.475562	0.582112
C82	C	1.473344	0.024438	1.082112
C83	C	0.994157	-0.246209	0.309702
C84	C	1.494157	0.253791	0.809702
C85	C	0.998332	-0.153545	0.305587
C86	C	1.498332	0.346455	0.805587
C87	C	0.992100	-0.455285	0.135828
C88	C	1.492100	0.044715	0.635828
C89	C	0.995539	-0.451499	0.057300
C90	C	1.495539	0.048501	0.557300
C91	C	1.019187	-0.425983	0.614916
C92	C	1.519187	0.074017	1.114916
C93	C	1.016085	-0.429322	0.688688
C94	C	1.516085	0.070678	1.188688
C95	C	0.967144	-0.482245	0.729654
C96	C	1.467144	0.017755	1.229654
C97	C	0.921296	-0.531826	0.696845
C98	C	1.421296	-0.031826	1.196845
C99	C	0.924395	-0.528483	0.623075
C100	C	1.424395	-0.028483	1.123075
C101	C	0.952791	-0.497737	0.950721
C102	C	1.452791	0.002263	1.450721
C103	C	0.949697	-0.501078	1.024496
C104	C	1.449697	-0.001078	1.524496
C105	C	1.044485	-0.398572	1.016333
C106	C	1.544485	0.101428	1.516333
C107	C	1.047582	-0.395237	0.942562
C108	C	1.547582	0.104763	1.442562
C109	C	1.001733	-0.444815	0.909760
C110	C	1.501733	0.055185	1.409760
N111	N	0.963974	-0.485661	0.805060
N112	N	1.463974	0.014339	1.305060
N113	N	1.004900	-0.441394	0.834355
N114	N	1.504900	0.058606	1.334355
H115	H	0.582358	-0.538184	0.256919
H116	H	1.082358	-0.038184	0.756919
H117	H	0.387074	-0.389193	0.381801
H118	H	0.887074	0.110807	0.881801
H119	H	1.081813	-0.358208	1.043049
H120	H	1.581813	0.141792	1.543049
H121	H	0.923298	-0.978150	0.380411
H122	H	1.423298	-0.478150	0.880411
H123	H	1.045552	-0.948324	0.258309
H124	H	1.545552	-0.448324	0.758309
C125	C	0.913094	-0.636299	0.935594
C126	C	1.413094	-0.136299	1.435594
C127	C	0.902385	-0.552230	0.914678
C128	C	1.402385	-0.052230	1.414678
H129	H	0.881972	-0.669938	0.913339
H130	H	1.381972	-0.169938	1.413339
H131	H	0.904255	-0.645854	0.985387
H132	H	1.404255	-0.145854	1.485387
H133	H	0.960316	-0.650120	0.922230
H134	H	1.460316	-0.150120	1.422230
H135	H	0.855165	-0.538407	0.928047
H136	H	1.355165	-0.038407	1.428047
H137	H	0.911219	-0.542670	0.864875
H138	H	1.411219	-0.042670	1.364875
C139	C	1.107737	-0.425830	0.767549
C140	C	1.607737	0.074170	1.267549
C141	C	1.066468	-0.374820	0.724754
C142	C	1.566468	0.125180	1.224754
H143	H	1.138835	-0.392177	0.789819
H144	H	1.638835	0.107823	1.289819
H145	H	1.134226	-0.462072	0.739363
H146	H	1.634226	0.037928	1.239363
H147	H	1.078135	-0.457826	0.802497
H148	H	1.578135	0.042174	1.302497
H149	H	1.096069	-0.342828	0.689803
H150	H	1.596069	0.157172	1.189803
H151	H	1.039977	-0.338563	0.752942
H152	H	1.539977	0.161437	1.252942
H153	H	1.059042	-0.382890	0.581566
H154	H	1.559042	0.117110	1.081566
C155	C	1.140959	-0.294241	0.941907
C156	C	1.640959	0.205759	1.441907
C157	C	1.101377	-0.337057	0.897534
C158	C	1.601377	0.162943	1.397534
H159	H	1.174167	-0.258321	0.914106
H160	H	1.674167	0.241679	1.414106
H161	H	1.165023	-0.333101	0.971266
H162	H	1.665023	0.166899	1.471266
H163	H	1.110529	-0.262252	0.970433
H164	H	1.610529	0.237748	1.470433
H165	H	1.131807	-0.369052	0.869012
H166	H	1.631807	0.130948	1.369012
H167	H	1.077311	-0.298192	0.868163
H168	H	1.577311	0.201808	1.368163
H169	H	0.715643	-0.544259	0.251788
H170	H	1.215643	-0.044259	0.751788
C171	C	0.622071	-0.294668	0.460949
C172	C	1.122071	0.205332	0.960949
C173	C	0.573867	-0.337408	0.425144
C174	C	1.073867	0.162592	0.925144
H175	H	0.597486	-0.258803	0.491012
H176	H	1.097486	0.241197	0.991012
H177	H	0.653440	-0.262636	0.427697
H178	H	1.153440	0.237364	0.927697
H179	H	0.647973	-0.333582	0.488430
H180	H	1.147973	0.166418	0.988430
H181	H	0.547969	-0.298494	0.397658
H182	H	1.047969	0.201506	0.897658
H183	H	0.542486	-0.369441	0.458400
H184	H	1.042486	0.130559	0.958400
C185	C	0.931374	-0.616527	1.112814
C186	C	1.431374	-0.116527	1.612814
C187	C	0.895891	-0.559246	1.069532
C188	C	1.395891	-0.059246	1.569532
H189	H	0.898157	-0.652436	1.140614
H190	H	1.398157	-0.152436	1.640614
H191	H	0.958234	-0.587478	1.142900
H192	H	1.458234	-0.087478	1.642900
H193	H	0.961786	-0.648524	1.084277
H194	H	1.461786	-0.148524	1.584277
H195	H	0.865483	-0.527244	1.098069
H196	H	1.365483	-0.027244	1.598069
H197	H	0.869020	-0.588298	1.039442
H198	H	1.369020	-0.088298	1.539442
C199	C	0.879710	-0.672450	0.727125
C200	C	1.379710	-0.172450	1.227125
C201	C	0.867498	-0.590001	0.741873
C202	C	1.367498	-0.090001	1.241873
H203	H	0.846494	-0.708365	0.754920
H204	H	1.346494	-0.208365	1.254920
H205	H	0.925914	-0.687361	0.737960
H206	H	1.425914	-0.187361	1.237960
H207	H	0.874993	-0.677542	0.678494
H208	H	1.374993	-0.177542	1.178494
H209	H	0.872221	-0.584908	0.790504
H210	H	1.372221	-0.084908	1.290504
H211	H	0.821283	-0.575086	0.731043
H212	H	1.321283	-0.075086	1.231043
C213	C	0.347371	-0.632712	0.177769
C214	C	0.847371	-0.132712	0.677769
C215	C	0.395574	-0.589965	0.213571
C216	C	0.895574	-0.089965	0.713571
H217	H	0.371958	-0.668583	0.147712
H218	H	0.871958	-0.168583	0.647712
H219	H	0.321471	-0.593809	0.150288
H220	H	0.821471	-0.093809	0.650288
H221	H	0.316000	-0.664746	0.211029
H222	H	0.816000	-0.164746	0.711029
H223	H	0.426942	-0.557926	0.180311
H224	H	0.926942	-0.057926	0.680311
H225	H	0.421487	-0.628873	0.241053
H226	H	0.921487	-0.128873	0.741053
H227	H	0.887059	-0.568847	0.596367
H228	H	1.387059	-0.068847	1.096367
H229	H	0.253790	-0.383101	0.386913
H230	H	0.753790	0.116899	0.886913
H231	H	0.717481	-0.358547	0.407395
H232	H	1.217481	0.141453	0.907395
C233	C	0.169204	-0.568838	0.231334
C234	C	0.669204	-0.068838	0.731334
C235	C	0.241344	-0.582937	0.219502
C236	C	0.741344	-0.082937	0.719502
H237	H	0.143934	-0.602444	0.203197
H238	H	0.643934	-0.102444	0.703197
H239	H	0.160109	-0.511798	0.219041
H240	H	0.660109	-0.011798	0.719041
H241	H	0.154644	-0.582726	0.279789
H242	H	0.654644	-0.082726	0.779789
H243	H	0.255905	-0.569044	0.171048
H244	H	0.755905	-0.069044	0.671048
H245	H	0.250443	-0.639991	0.231791
H246	H	0.750443	-0.139991	0.731791
