data_functionalizedCrystal
_audit_creation_method	'MofGen! by Chris Wilmer'
_symmetry_space_group_name_H-M	'P1'
_symmetry_Int_Tables_number	1
_symmetry_cell_setting	triclinic
loop_
_symmetry_equiv_pos_as_xyz
  x,y,z
_cell_length_a	16.959455
_cell_length_b	12.594516
_cell_length_c	16.959447
_cell_angle_alpha	89.974772
_cell_angle_beta	89.983056
_cell_angle_gamma	90.013000
loop_
_atom_site_label
_atom_site_type_symbol
_atom_site_fract_x
_atom_site_fract_y
_atom_site_fract_z
Zn1	Zn	1.208426	-0.423807	-0.446937
Zn2	Zn	1.208352	-0.601814	-0.314771
Zn3	Zn	1.076249	-0.423841	-0.314775
Zn4	Zn	1.076229	-0.601734	-0.446909
O5	O	1.142314	-0.512799	-0.380848
O6	O	1.319027	-0.447439	-0.429415
O7	O	1.190806	-0.578253	-0.204160
O8	O	1.093822	-0.274890	-0.332320
O9	O	1.318973	-0.578220	-0.332313
O10	O	1.190932	-0.274866	-0.429419
O11	O	1.093750	-0.447497	-0.204163
O12	O	0.965635	-0.447419	-0.332293
O13	O	1.093788	-0.578084	-0.557524
O14	O	0.965620	-0.578117	-0.429371
O15	O	1.190913	-0.447362	-0.557544
O16	O	1.190786	-0.750749	-0.332286
O17	O	1.093716	-0.750691	-0.429367
C18	C	0.936948	-0.512764	-0.380830
C19	C	0.849091	-0.512775	-0.380841
C20	C	1.142262	-0.789340	-0.380840
C21	C	1.142312	-0.907645	-0.380863
C22	C	0.477599	-0.444689	-0.330405
C23	C	0.477632	-0.580997	-0.431336
C24	C	0.560178	-0.580981	-0.431332
C25	C	0.601438	-0.512820	-0.380862
C26	C	0.560152	-0.444674	-0.330396
C27	C	0.601470	-0.649134	-0.481790
C28	C	0.684021	-0.649122	-0.481787
C29	C	0.725283	-0.580955	-0.431320
C30	C	0.683992	-0.512805	-0.380854
C31	C	0.725252	-0.444643	-0.330384
C32	C	0.683962	-0.376487	-0.279920
C33	C	0.601414	-0.376506	-0.279930
C34	C	0.807831	-0.580936	-0.431311
C35	C	0.807805	-0.444628	-0.330376
C36	C	1.089511	-0.976905	-0.433629
C37	C	1.070255	-1.047768	-0.361503
C38	C	1.161639	-1.047582	-0.453001
C39	C	1.123019	-0.976950	-0.308699
C40	C	1.214437	-0.976758	-0.400246
C41	C	1.195209	-1.047588	-0.328071
C42	C	1.348482	-0.512835	-0.380866
C43	C	1.436339	-0.512850	-0.380874
C44	C	1.142356	-0.512711	-0.587016
C45	C	1.142374	-0.512673	-0.674873
C46	C	1.142387	-0.235178	-0.380873
C47	C	1.142419	-0.116873	-0.380884
C48	C	1.091911	-0.444482	-1.046356
C49	C	1.192976	-0.580640	-1.046341
C50	C	1.192963	-0.580665	-0.963795
C51	C	1.142422	-0.512598	-0.922526
C52	C	1.091895	-0.444507	-0.963803
C53	C	1.243483	-0.648762	-0.922512
C54	C	1.243471	-0.648791	-0.839961
C55	C	1.192933	-0.580718	-0.798690
C56	C	1.142405	-0.512623	-0.839972
C57	C	1.091864	-0.444557	-0.798703
C58	C	1.041339	-0.376455	-0.839984
C59	C	1.041357	-0.376434	-0.922532
C60	C	1.192915	-0.580739	-0.716142
C61	C	1.091847	-0.444582	-0.716150
C62	C	1.142317	-0.512810	-0.175482
C63	C	1.142452	-0.512548	-0.087625
H64	H	0.841393	-0.389116	-0.289281
N65	N	0.989525	-1.089074	-0.339780
H66	H	0.949635	-1.063368	-0.379659
H67	H	0.990361	-1.169255	-0.339430
H68	H	0.444033	-0.636497	-0.472422
H69	H	0.567870	-0.704635	-0.522874
H70	H	1.177943	-1.078608	-0.513999
N71	N	1.297973	-0.722222	-0.795439
H72	H	1.290295	-0.711905	-0.736883
H73	H	1.285657	-0.798236	-0.809849
N74	N	0.556882	-0.303034	-0.225481
H75	H	0.498327	-0.313403	-0.233135
H76	H	0.571303	-0.319538	-0.169017
H77	H	1.106645	-0.946051	-0.247685
H78	H	1.239907	-1.078428	-0.283406
N79	N	1.295147	-0.935410	-0.421978
H80	H	1.309660	-0.961055	-0.476501
H81	H	1.294573	-0.855230	-0.421253
N82	N	1.037343	-0.371154	-0.671640
H83	H	1.005344	-0.328010	-0.710319
H84	H	1.000741	-0.414476	-0.637379
N85	N	0.728552	-0.722629	-0.536210
H86	H	0.689887	-0.765811	-0.568182
H87	H	0.762817	-0.679357	-0.572842
N88	N	0.852366	-0.654444	-0.485725
H89	H	0.813701	-0.697631	-0.517695
H90	H	0.886632	-0.611177	-0.522359
H91	H	1.000185	-0.321040	-0.806372
N92	N	1.247489	-0.654043	-1.090850
H93	H	1.279496	-0.697180	-1.052174
H94	H	1.215309	-0.703287	-1.125089
H95	H	1.284622	-0.704190	-0.956119
H96	H	1.000221	-0.320991	-0.956150
H97	H	1.044778	-0.945869	-0.478186
N98	N	0.433068	-0.371200	-0.275967
H99	H	0.398829	-0.321931	-0.308145
H100	H	0.398852	-0.414494	-0.239304
N101	N	1.247403	-0.654189	-0.671625
H102	H	1.303886	-0.637668	-0.686003
H103	H	1.239662	-0.643847	-0.613082
N104	N	1.037407	-0.371052	-1.090877
H105	H	1.069541	-0.321719	-1.125143
H106	H	1.000790	-0.414384	-1.125066
N107	N	0.728467	-0.302979	-0.225481
H108	H	0.787025	-0.313320	-0.233134
H109	H	0.714056	-0.226983	-0.237879
