data_functionalizedCrystal
_audit_creation_method	'MofGen! by Chris Wilmer'
_symmetry_space_group_name_H-M	'P1'
_symmetry_Int_Tables_number	1
_symmetry_cell_setting	triclinic
loop_
_symmetry_equiv_pos_as_xyz
  x,y,z
_cell_length_a	17.699083
_cell_length_b	16.974885
_cell_length_c	16.176319
_cell_angle_alpha	93.644606
_cell_angle_beta	89.992304
_cell_angle_gamma	83.338128
loop_
_atom_site_label
_atom_site_type_symbol
_atom_site_fract_x
_atom_site_fract_y
_atom_site_fract_z
O1	O	0.096438	1.048949	0.001365
O2	O	0.596438	1.548949	0.501365
O3	O	0.108731	0.818722	-0.014026
O4	O	0.608731	1.318722	0.485974
O5	O	-0.007600	0.940340	-0.005888
O6	O	0.492400	1.440340	0.494112
O7	O	0.212769	0.927331	-0.006772
O8	O	0.712769	1.427331	0.493228
O9	O	-0.007608	0.940324	0.131604
O10	O	0.492392	1.440324	0.631604
O11	O	0.108724	0.818706	0.123467
O12	O	0.608724	1.318706	0.623467
O13	O	0.096430	1.048932	0.138857
O14	O	0.596430	1.548932	0.638857
Cu15	Cu	0.102576	0.933818	0.143716
Cu16	Cu	0.602576	1.433818	0.643716
Cu17	Cu	0.102585	0.933837	-0.018884
Cu18	Cu	0.602585	1.433837	0.481116
O19	O	0.212762	0.927315	0.130720
O20	O	0.712762	1.427315	0.630720
C21	C	0.108261	0.789257	0.052751
C22	C	0.608261	1.289257	0.552751
C23	C	0.106862	0.701484	0.046884
C24	C	0.606862	1.201484	0.546884
C25	C	0.098961	0.207422	0.005755
C26	C	0.598961	0.707422	0.505755
C27	C	0.100276	0.289894	0.011279
C28	C	0.600276	0.789894	0.511279
C29	C	0.100935	0.331112	0.088989
C30	C	0.600935	0.831112	0.588989
C31	C	0.100271	0.289855	0.161180
C32	C	0.600271	0.789855	0.661180
C33	C	0.098951	0.207385	0.155655
C34	C	0.598951	0.707385	0.655655
C35	C	0.104878	0.577758	0.113549
C36	C	0.604878	1.077758	0.613549
C37	C	0.106200	0.660233	0.119069
C38	C	0.606200	1.160233	0.619069
C39	C	0.106203	0.660266	-0.030832
C40	C	0.606203	1.160266	0.469168
C41	C	0.104888	0.577795	-0.036350
C42	C	0.604888	1.077795	0.463650
C43	C	0.104220	0.536545	0.035840
C44	C	0.604220	1.036545	0.535840
N45	N	0.102281	0.415411	0.094638
N46	N	0.602281	0.915411	0.594638
N47	N	0.102869	0.452249	0.030191
N48	N	0.602869	0.952249	0.530191
C49	C	-0.035801	0.939866	0.062827
C50	C	0.464199	1.439866	0.562827
C51	C	-0.119821	0.938467	0.062734
C52	C	0.380179	1.438467	0.562734
C53	C	-0.168392	1.009854	0.067507
C54	C	0.331608	1.509854	0.567507
C55	C	-0.247336	1.008536	0.067412
C56	C	0.252664	1.508536	0.567412
C57	C	-0.277707	0.935829	0.062549
C58	C	0.222293	1.435829	0.562549
C59	C	-0.229130	0.864437	0.057772
C60	C	0.270870	1.364437	0.557772
C61	C	-0.150187	0.865756	0.057862
C62	C	0.349813	1.365756	0.557862
C63	C	-0.547496	0.859114	0.057410
C64	C	-0.047496	1.359114	0.557410
C65	C	-0.626445	0.857800	0.057323
C66	C	-0.126445	1.357800	0.557323
C67	C	-0.644646	1.001893	0.066959
C68	C	-0.144646	1.501893	0.566959
C69	C	-0.565703	1.003213	0.067049
C70	C	-0.065703	1.503213	0.567049
C71	C	-0.517132	0.931821	0.062268
C72	C	-0.017132	1.431821	0.562268
C73	C	-0.431532	0.933251	0.062370
C74	C	0.068468	1.433251	0.562370
C75	C	-0.363306	0.934398	0.062452
C76	C	0.136694	1.434398	0.562452
C77	C	0.240963	0.927789	0.062003
C78	C	0.740963	1.427789	0.562003
C79	C	0.324982	0.929187	0.062091
C80	C	0.824982	1.429187	0.562091
N81	N	0.102570	0.933809	0.258081
N82	N	0.602570	1.433809	0.758081
C83	C	0.096900	1.078398	0.072078
C84	C	0.596900	1.578398	0.572078
C85	C	0.098300	1.166170	0.077940
C86	C	0.598300	1.666170	0.577940
N87	N	0.102586	0.933852	-0.133249
N88	N	0.602586	1.433852	0.366751
C89	C	0.051079	0.987678	0.304949
C90	C	0.551079	1.487678	0.804949
C91	C	0.051078	0.987682	0.391496
C92	C	0.551078	1.487682	0.891496
C93	C	0.102572	0.933821	0.431174
C94	C	0.602572	1.433821	0.931174
C95	C	0.154065	0.879946	0.384299
C96	C	0.654065	1.379946	0.884299
C97	C	0.154062	0.879939	0.297753
C98	C	0.654062	1.379939	0.797753
C99	C	0.154079	0.879973	0.733329
C100	C	0.654079	1.379973	1.233329
C101	C	0.154080	0.879986	0.819881
C102	C	0.654080	1.379986	1.319881
C103	C	0.051096	0.987716	0.827072
C104	C	0.551096	1.487716	1.327072
C105	C	0.051092	0.987709	0.740527
C106	C	0.551092	1.487709	1.240527
C107	C	0.102582	0.933832	0.693659
C108	C	0.602582	1.433832	1.193659
C109	C	0.102582	0.933828	0.599814
C110	C	0.602582	1.433828	1.099814
C111	C	0.102577	0.933828	0.525017
C112	C	0.602577	1.433828	1.025017
H113	H	0.106742	0.693790	0.182353
H114	H	0.606742	1.193790	0.682353
H115	H	0.104350	0.544241	-0.099629
H116	H	0.604350	1.044241	0.400371
H117	H	0.009150	1.031545	0.429657
H118	H	0.509150	1.531545	0.929657
H119	H	0.098430	0.173867	-0.057524
H120	H	0.598430	0.673867	0.442476
C121	C	-0.050850	0.783634	0.123049
C122	C	0.449150	1.283634	0.623049
C123	C	-0.096792	0.787286	0.052616
C124	C	0.403208	1.287286	0.552616
H125	H	-0.017884	0.735191	0.119802
H126	H	0.482116	1.235191	0.619802
H127	H	-0.082029	0.786102	0.171152
H128	H	0.417971	1.286102	0.671152
H129	H	-0.021469	0.827129	0.125949
H130	H	0.478531	1.327129	0.625949
H131	H	-0.126177	0.743795	0.049719
H132	H	0.373823	1.243795	0.549719
H133	H	-0.065609	0.784810	0.004499
H134	H	0.434391	1.284810	0.504499
H135	H	-0.286881	1.066666	0.071300
H136	H	0.213119	1.566666	0.571300
C137	C	0.170545	0.772326	0.474464
C138	C	0.670545	1.272326	0.974464
C139	C	0.210667	0.820741	0.427915
C140	C	0.710667	1.320741	0.927915
H141	H	0.205492	0.735780	0.501393
H142	H	0.705492	1.235780	1.001393
H143	H	0.139061	0.743945	0.438819
H144	H	0.639061	1.243945	0.938819
H145	H	0.139881	0.804420	0.514760
H146	H	0.639881	1.304420	1.014760
H147	H	0.241327	0.788648	0.387614
H148	H	0.741327	1.288648	0.887614
H149	H	0.242165	0.849124	0.463563
H150	H	0.742165	1.349124	0.963563
H151	H	0.196006	0.836107	0.695176
H152	H	0.696006	1.336107	1.195176
C153	C	-0.418407	0.797145	0.053252
C154	C	0.081593	1.297145	0.553252
C155	C	-0.494113	0.780641	0.052156
C156	C	0.005887	1.280641	0.552156
H157	H	-0.385449	0.748695	0.050003
H158	H	0.114551	1.248695	0.550003
H159	H	-0.409214	0.826948	0.103190
H160	H	0.090786	1.326948	0.603190
H161	H	-0.409214	0.826973	0.007297
H162	H	0.090786	1.326973	0.507297
H163	H	-0.503308	0.750818	0.098115
H164	H	-0.003308	1.250818	0.598115
H165	H	-0.503310	0.750825	0.002213
H166	H	-0.003310	1.250825	0.502213
H167	H	0.104323	0.544184	0.172332
H168	H	0.604323	1.044184	0.672332
H169	H	-0.143671	1.069061	0.071472
H170	H	0.356329	1.569061	0.571472
C171	C	-0.591626	1.145516	0.076555
C172	C	-0.091626	1.645516	0.576555
C173	C	-0.532320	1.083134	0.072390
C174	C	-0.032320	1.583134	0.572390
H175	H	-0.571016	1.194856	0.079845
H176	H	-0.071016	1.694856	0.579845
H177	H	-0.622041	1.142003	0.124265
H178	H	-0.122041	1.642003	0.624265
H179	H	-0.622034	1.142003	0.028371
H180	H	-0.122034	1.642003	0.528371
H181	H	-0.501916	1.086644	0.120578
H182	H	-0.001916	1.586644	0.620578
H183	H	-0.501893	1.086649	0.024676
H184	H	-0.001893	1.586649	0.524676
C185	C	0.100151	0.281642	-0.137443
C186	C	0.600151	0.781642	0.362557
C187	C	0.101002	0.335237	-0.068069
C188	C	0.601002	0.835237	0.431931
H189	H	0.100602	0.309637	-0.186430
H190	H	0.600602	0.809637	0.313570
H191	H	0.055527	0.255591	-0.136066
H192	H	0.555527	0.755591	0.363934
H193	H	0.143757	0.243360	-0.136887
H194	H	0.643757	0.743360	0.363113
H195	H	0.057394	0.373517	-0.068621
H196	H	0.557394	0.873517	0.431379
H197	H	0.145632	0.361302	-0.069447
H198	H	0.645632	0.861302	0.430553
H199	H	0.106746	0.693860	-0.089605
H200	H	0.606746	1.193860	0.410395
C201	C	-0.743969	1.084029	0.001762
C202	C	-0.243969	1.584029	0.501762
C203	C	-0.698036	1.080372	0.072202
C204	C	-0.198036	1.580372	0.572202
H205	H	-0.776924	1.132480	0.004999
H206	H	-0.276924	1.632480	0.504999
H207	H	-0.773354	1.040546	-0.001143
H208	H	-0.273354	1.540546	0.498857
H209	H	-0.712778	1.081553	-0.046343
H210	H	-0.212778	1.581553	0.453657
H211	H	-0.729228	1.082842	0.120306
H212	H	-0.229228	1.582842	0.620306
H213	H	-0.668649	1.123867	0.075114
H214	H	-0.168649	1.623867	0.575114
H215	H	0.009150	1.031541	0.272650
H216	H	0.509150	1.531541	0.772650
C217	C	-0.600528	0.715489	0.047783
C218	C	-0.100528	1.215489	0.547783
C219	C	-0.659830	0.777874	0.051967
C220	C	-0.159830	1.277874	0.551967
H221	H	-0.621141	0.666150	0.044471
H222	H	-0.121141	1.166150	0.544471
H223	H	-0.570122	0.718984	0.095961
H224	H	-0.070122	1.218984	0.595961
H225	H	-0.570110	0.719017	0.000069
H226	H	-0.070110	1.219017	0.500069
H227	H	-0.690245	0.774350	0.099684
H228	H	-0.190245	1.274350	0.599684
H229	H	-0.690249	0.774377	0.003783
H230	H	-0.190249	1.274377	0.503783
H231	H	0.009164	1.031570	0.708224
H232	H	0.509164	1.531570	1.208224
H233	H	0.100803	0.323422	0.224453
H234	H	0.600803	0.823422	0.724453
H235	H	0.009167	1.031583	0.865241
H236	H	0.509167	1.531583	1.365241
H237	H	0.196014	0.836123	0.852185
H238	H	0.696014	1.336123	1.352185
C239	C	0.099088	0.215629	0.304378
C240	C	0.599088	0.715629	0.804378
C241	C	0.098227	0.162038	0.235002
C242	C	0.598227	0.662038	0.735002
H243	H	0.098643	0.187632	0.353365
H244	H	0.598643	0.687632	0.853365
H245	H	0.055492	0.253912	0.303830
H246	H	0.555492	0.753912	0.803830
H247	H	0.143722	0.241679	0.302996
H248	H	0.643722	0.741679	0.802996
H249	H	0.053591	0.135992	0.236382
H250	H	0.553591	0.635992	0.736382
H251	H	0.141828	0.123741	0.235552
H252	H	0.641828	0.623741	0.735552
C253	C	0.285113	0.833252	0.267963
C254	C	0.785113	1.333252	0.767963
C255	C	0.210664	0.820729	0.246230
C256	C	0.710664	1.320729	0.746230
H257	H	0.320055	0.796698	0.236151
H258	H	0.820055	1.296698	0.736151
H259	H	0.292481	0.825545	0.325177
H260	H	0.792481	1.325545	0.825177
H261	H	0.293296	0.886004	0.257287
H262	H	0.793296	1.386004	0.757287
H263	H	0.202479	0.767979	0.256912
H264	H	0.702479	1.267979	0.756912
H265	H	0.203293	0.828430	0.189003
H266	H	0.703293	1.328430	0.689003
C267	C	-0.307345	0.779370	-0.018594
C268	C	0.192655	1.279370	0.481406
C269	C	-0.262514	0.784517	0.052427
C270	C	0.237486	1.284517	0.552427
H271	H	-0.327957	0.730031	-0.021888
H272	H	0.172043	1.230031	0.478112
H273	H	-0.276921	0.782880	-0.066298
H274	H	0.223079	1.282880	0.433702
H275	H	-0.347568	0.821702	-0.015754
H276	H	0.152432	1.321702	0.484246
H277	H	-0.222288	0.742188	0.049584
H278	H	0.277712	1.242188	0.549584
H279	H	-0.292940	0.780998	0.100143
H280	H	0.207060	1.280998	0.600143
