data_functionalizedCrystal
_audit_creation_method	'MofGen! by Chris Wilmer'
_symmetry_space_group_name_H-M	'P1'
_symmetry_Int_Tables_number	1
_symmetry_cell_setting	triclinic
loop_
_symmetry_equiv_pos_as_xyz
  x,y,z
_cell_length_a	15.944551
_cell_length_b	16.992694
_cell_length_c	16.053802
_cell_angle_alpha	87.249047
_cell_angle_beta	87.429376
_cell_angle_gamma	92.916520
loop_
_atom_site_label
_atom_site_type_symbol
_atom_site_fract_x
_atom_site_fract_y
_atom_site_fract_z
O1	O	-0.174799	1.043703	-0.069310
O2	O	0.325201	1.543703	0.430690
O3	O	-0.172844	0.815418	-0.069334
O4	O	0.327156	1.315418	0.430666
O5	O	-0.051964	0.935795	-0.069326
O6	O	0.448036	1.435795	0.430674
O7	O	-0.295678	0.923326	-0.069318
O8	O	0.204322	1.423326	0.430682
O9	O	-0.058589	0.929169	0.069532
O10	O	0.441411	1.429169	0.569532
O11	O	-0.179468	0.808793	0.069524
O12	O	0.320532	1.308793	0.569524
O13	O	-0.181423	1.037077	0.069549
O14	O	0.318577	1.537077	0.569549
Zn15	Zn	-0.181497	0.921883	0.091583
Zn16	Zn	0.318503	1.421883	0.591583
Zn17	Zn	-0.172770	0.930613	-0.091369
Zn18	Zn	0.327230	1.430613	0.408631
O19	O	-0.302303	0.916701	0.069541
O20	O	0.197697	1.416701	0.569541
C21	C	-0.173642	0.782893	0.000091
C22	C	0.326358	1.282893	0.500091
C23	C	-0.166142	0.695849	0.000082
C24	C	0.333858	1.195849	0.500082
C25	C	-0.238507	0.645612	0.000085
C26	C	0.261493	1.145612	0.500085
C27	C	-0.231455	0.563825	0.000096
C28	C	0.268545	1.063825	0.500096
C29	C	-0.152038	0.532276	0.000098
C30	C	0.347962	1.032276	0.500098
C31	C	-0.079667	0.582519	0.000098
C32	C	0.420333	1.082519	0.500098
C33	C	-0.086720	0.664305	0.000092
C34	C	0.413280	1.164305	0.500092
C35	C	-0.122807	0.288675	0.000119
C36	C	0.377193	0.788675	0.500119
C37	C	-0.115760	0.206884	0.000122
C38	C	0.384240	0.706884	0.500122
C39	C	-0.267549	0.188195	0.000122
C40	C	0.232451	0.688195	0.500122
C41	C	-0.274594	0.269983	0.000112
C42	C	0.225406	0.769983	0.500112
C43	C	-0.202224	0.320219	0.000116
C44	C	0.297776	0.820219	0.500116
N45	N	-0.144828	0.448676	0.000107
N46	N	0.355172	0.948676	0.500107
N47	N	-0.209435	0.403817	0.000113
N48	N	0.290565	0.903817	0.500113
C49	C	-0.330319	0.920531	0.000113
C50	C	0.169681	1.420531	0.500113
C51	C	-0.423669	0.922083	0.000116
C52	C	0.076331	1.422083	0.500116
C53	C	-0.643779	1.000407	0.000112
C54	C	-0.143779	1.500407	0.500112
C55	C	-0.705622	0.960769	0.068573
C56	C	-0.205622	1.460769	0.568573
C57	C	-0.594583	0.924890	0.000109
C58	C	-0.094583	1.424890	0.500109
C59	C	-0.699075	0.967284	-0.068330
C60	C	-0.199075	1.467284	0.431670
C61	C	-0.759678	0.927608	0.000099
C62	C	-0.259678	1.427608	0.500099
C63	C	-0.655199	0.885229	0.068627
C64	C	-0.155199	1.385229	0.568627
C65	C	-0.648644	0.891757	-0.068338
C66	C	-0.148644	1.391757	0.431662
C67	C	-0.710466	0.852064	0.000140
C68	C	-0.210466	1.352064	0.500140
C69	C	-0.499476	0.923327	0.000116
C70	C	0.000524	1.423327	0.500116
C71	C	-0.854783	0.929165	0.000098
C72	C	-0.354783	1.429165	0.500098
C73	C	-0.023948	0.931964	0.000100
C74	C	0.476052	1.431964	0.500100
C75	C	0.069403	0.930413	0.000091
C76	C	0.569403	1.430413	0.500091
C77	C	-0.180625	1.069602	0.000121
C78	C	0.319375	1.569602	0.500121
C79	C	-0.188125	1.156647	0.000125
C80	C	0.311875	1.656647	0.500125
N81	N	-0.187454	0.915931	0.216443
N82	N	0.312546	1.415931	0.716443
N83	N	-0.166807	0.936571	-0.216229
N84	N	0.333193	1.436571	0.283771
C85	C	-0.136040	0.967170	0.260141
C86	C	0.363960	1.467170	0.760141
C87	C	-0.140215	0.963013	0.347547
C88	C	0.359785	1.463013	0.847547
C89	C	-0.195809	0.907621	0.391254
C90	C	0.304191	1.407621	0.891254
C91	C	-0.247224	0.856377	0.347551
C92	C	0.252776	1.356377	0.847551
C93	C	-0.243044	0.860530	0.260146
C94	C	0.256956	1.360530	0.760146
C95	C	-0.214043	0.889480	0.652663
C96	C	0.285957	1.389480	1.152663
C97	C	-0.218221	0.885332	0.740074
C98	C	0.281779	1.385332	1.240074
C99	C	-0.111210	0.991968	0.740064
C100	C	0.388790	1.491968	1.240064
C101	C	-0.107039	0.996119	0.652657
C102	C	0.392961	1.496119	1.152657
C103	C	-0.158451	0.944872	0.608961
C104	C	0.341549	1.444872	1.108961
N105	N	-0.200079	0.903373	0.480598
N106	N	0.299921	1.403373	0.980598
N107	N	-0.154176	0.949117	0.519620
N108	N	0.345824	1.449117	1.019620
H109	H	-0.063878	0.329568	0.000123
H110	H	0.436122	0.829568	0.500123
C111	C	-0.007118	0.719565	0.000080
C112	C	0.492882	1.219565	0.500080
H113	H	0.041191	0.689065	0.000073
H114	H	0.541191	1.189065	0.500073
H115	H	-0.009022	0.749558	0.048500
H116	H	0.490978	1.249558	0.548500
H117	H	-0.004406	0.754159	-0.048352
H118	H	0.495594	1.254159	0.451648
H119	H	-0.614681	1.063087	0.000186
H120	H	-0.114681	1.563087	0.500186
H121	H	-0.290383	0.522924	0.000098
H122	H	0.209617	1.022924	0.500098
H123	H	-0.730632	0.989947	0.126459
H124	H	-0.230632	1.489947	0.626459
C125	C	-0.361954	0.304681	0.000122
C126	C	0.138046	0.804681	0.500122
H127	H	-0.404044	0.263046	0.000134
H128	H	0.095956	0.763046	0.500134
H129	H	-0.365555	0.338502	-0.048300
H130	H	0.134445	0.838502	0.451700
H131	H	-0.370164	0.333890	0.048552
H132	H	0.129836	0.833890	0.548552
C133	C	-0.347149	0.132935	0.000129
C134	C	0.152851	0.632935	0.500129
H135	H	-0.331578	0.079707	0.000140
H136	H	0.168422	0.579707	0.500140
H137	H	-0.377181	0.144800	-0.048292
H138	H	0.122819	0.644800	0.451708
H139	H	-0.381793	0.140197	0.048560
H140	H	0.118207	0.640197	0.548560
C141	C	-0.028397	0.172181	0.000126
C142	C	0.471603	0.672181	0.500126
H143	H	0.013694	0.213813	0.000134
H144	H	0.513694	0.713813	0.500134
H145	H	-0.020180	0.142971	-0.048296
H146	H	0.479820	0.642971	0.451704
H147	H	-0.024808	0.138359	0.048556
H148	H	0.475192	0.638359	0.548556
H149	H	-0.739419	0.789324	0.000171
H150	H	-0.239419	1.289324	0.500171
H151	H	-0.098350	1.004735	0.383125
H152	H	0.401650	1.504735	0.883125
C153	C	-0.614824	0.852376	-0.146538
C154	C	-0.114824	1.352376	0.353462
H155	H	-0.629655	0.881602	-0.195136
H156	H	-0.129655	1.381602	0.304864
H157	H	-0.638584	0.799999	-0.147033
H158	H	-0.138584	1.299999	0.352967
H159	H	-0.555358	0.851250	-0.145698
H160	H	-0.055358	1.351250	0.354302
C161	C	-0.308377	0.795448	0.395627
C162	C	0.191623	1.295448	0.895627
H163	H	-0.303511	0.800318	0.453941
H164	H	0.196489	1.300318	0.953941
H165	H	-0.295027	0.743799	0.381312
H166	H	0.204973	1.243799	0.881312
H167	H	-0.364331	0.804651	0.381294
H168	H	0.135669	1.304651	0.881294
C169	C	-0.045881	1.057046	0.604585
C170	C	0.454119	1.557046	1.104585
H171	H	-0.015852	1.086963	0.643129
H172	H	0.484148	1.586963	1.143129
H173	H	-0.076676	1.091304	0.570480
H174	H	0.423324	1.591304	1.070480
H175	H	-0.007371	1.030454	0.570498
H176	H	0.492629	1.530454	1.070498
C177	C	-0.629042	0.838383	0.146903
C178	C	-0.129042	1.338383	0.646903
H179	H	-0.569481	0.837709	0.146444
H180	H	-0.069481	1.337709	0.646444
H181	H	-0.652459	0.785837	0.147094
H182	H	-0.152459	1.285837	0.647094
H183	H	-0.649039	0.862716	0.195466
H184	H	-0.149039	1.362716	0.695466
C185	C	-0.725379	1.014177	-0.146516
C186	C	-0.225379	1.514177	0.353484
H187	H	-0.702402	1.066864	-0.146419
H188	H	-0.202402	1.566864	0.353581
H189	H	-0.784954	1.014421	-0.146226
H190	H	-0.284954	1.514421	0.353774
H191	H	-0.704989	0.990184	-0.195139
H192	H	-0.204989	1.490184	0.304861
H193	H	-0.015004	0.556825	0.000111
H194	H	0.484996	1.056825	0.500111
H195	H	-0.090774	1.012279	0.224560
H196	H	0.409226	1.512279	0.724560
H197	H	-0.263495	0.840223	0.775657
H198	H	0.236505	1.340223	1.275657
H199	H	-0.069351	1.033690	0.775649
H200	H	0.430649	1.533690	1.275649
C201	C	-0.270602	0.833117	0.604608
C202	C	0.229398	1.333117	1.104608
H203	H	-0.304316	0.799541	0.643159
H204	H	0.195684	1.299541	1.143159
H205	H	-0.236548	0.802095	0.570518
H206	H	0.263452	1.302095	1.070518
H207	H	-0.305852	0.862946	0.570506
H208	H	0.194148	1.362946	1.070506
H209	H	-0.284910	0.818805	0.224568
H210	H	0.215090	1.318805	0.724568
H211	H	-0.303177	0.671292	0.000082
H212	H	0.196823	1.171292	0.500082
