data_functionalizedCrystal
_audit_creation_method	'MofGen! by Chris Wilmer'
_symmetry_space_group_name_H-M	'P1'
_symmetry_Int_Tables_number	1
_symmetry_cell_setting	triclinic
loop_
_symmetry_equiv_pos_as_xyz
  x,y,z
_cell_length_a	19.188930
_cell_length_b	14.519709
_cell_length_c	13.596369
_cell_angle_alpha	89.999684
_cell_angle_beta	90.005514
_cell_angle_gamma	96.587536
loop_
_atom_site_label
_atom_site_type_symbol
_atom_site_fract_x
_atom_site_fract_y
_atom_site_fract_z
O1	O	0.091519	-1.223302	0.081675
O2	O	0.424852	-0.889968	0.415008
O3	O	0.758185	-0.556635	0.748342
O4	O	0.102297	-0.954758	0.081706
O5	O	0.435630	-0.621424	0.415040
O6	O	0.768963	-0.288091	0.748373
O7	O	-0.004720	-1.096779	0.081670
O8	O	0.328613	-0.763446	0.415004
O9	O	0.661946	-0.430113	0.748337
O10	O	0.198536	-1.081280	0.081711
O11	O	0.531869	-0.747947	0.415044
O12	O	0.865202	-0.414613	0.748377
O13	O	-0.004714	-1.096762	-0.081912
O14	O	0.328619	-0.763428	0.251421
O15	O	0.661952	-0.430095	0.584754
O16	O	0.102303	-0.954740	-0.081877
O17	O	0.435636	-0.621407	0.251457
O18	O	0.768969	-0.288074	0.584790
O19	O	0.091525	-1.223284	-0.081908
O20	O	0.424858	-0.889951	0.251425
O21	O	0.758191	-0.556617	0.584759
Zn22	Zn	0.096915	-1.089009	-0.107865
Zn23	Zn	0.430248	-0.755676	0.225469
Zn24	Zn	0.763581	-0.422343	0.558802
Zn25	Zn	0.096907	-1.089032	0.107663
Zn26	Zn	0.430240	-0.755699	0.440996
Zn27	Zn	0.763573	-0.422366	0.774330
O28	O	0.198542	-1.081263	-0.081872
O29	O	0.531875	-0.747929	0.251461
O30	O	0.865208	-0.414596	0.584794
C31	C	-0.030730	-1.096269	-0.000124
C32	C	0.302603	-0.762935	0.333210
C33	C	0.635936	-0.429602	0.666543
C34	C	-0.108240	-1.094762	-0.000132
C35	C	0.225093	-0.761429	0.333201
C36	C	0.558427	-0.428095	0.666535
C37	C	0.101797	-0.920392	-0.000081
C38	C	0.435131	-0.587059	0.333252
C39	C	0.768464	-0.253726	0.666585
C40	C	0.100292	-0.818020	-0.000070
C41	C	0.433625	-0.484687	0.333263
C42	C	0.766959	-0.151354	0.666596
C43	C	0.092024	-1.257649	-0.000118
C44	C	0.425357	-0.924316	0.333215
C45	C	0.758691	-0.590983	0.666549
C46	C	0.093529	-1.360021	-0.000123
C47	C	0.426862	-1.026688	0.333211
C48	C	0.760196	-0.693355	0.666544
C49	C	-0.152867	-1.178095	-0.000146
C50	C	0.180466	-0.844762	0.333187
C51	C	0.513799	-0.511429	0.666520
C52	C	-0.225696	-1.176680	-0.000131
C53	C	0.107637	-0.843347	0.333203
C54	C	0.440970	-0.510013	0.666536
C55	C	-0.253895	-1.091926	-0.000120
C56	C	0.079439	-0.758593	0.333213
C57	C	0.412772	-0.425259	0.666547
C58	C	-0.209257	-1.008582	-0.000100
C59	C	0.124076	-0.675248	0.333233
C60	C	0.457409	-0.341915	0.666567
C61	C	-0.136430	-1.009999	-0.000106
C62	C	0.196903	-0.676666	0.333227
C63	C	0.530236	-0.343333	0.666561
N64	N	-0.362128	-1.027136	-0.055783
N65	N	-0.028795	-0.693803	0.277551
N66	N	0.304539	-0.360469	0.610884
N67	N	-0.431312	-1.025795	-0.055779
N68	N	-0.097978	-0.692461	0.277554
N69	N	0.235355	-0.359128	0.610888
C70	C	-0.473318	-1.087649	-0.000100
C71	C	-0.139985	-0.754316	0.333234
C72	C	0.193348	-0.420982	0.666567
N73	N	-0.443530	-1.150909	0.055564
N74	N	-0.110196	-0.817576	0.388897
N75	N	0.223137	-0.484243	0.722231
N76	N	-0.374340	-1.152253	0.055556
N77	N	-0.041007	-0.818920	0.388889
N78	N	0.292326	-0.485587	0.722222
C79	C	-0.332863	-1.090379	-0.000113
C80	C	0.000471	-0.757046	0.333221
C81	C	0.333804	-0.423713	0.666554
C82	C	-0.596916	-1.169454	-0.000095
C83	C	-0.263582	-0.836120	0.333238
C84	C	0.069751	-0.502787	0.666571
C85	C	-0.669745	-1.168035	-0.000073
C86	C	-0.336412	-0.834701	0.333260
C87	C	-0.003079	-0.501368	0.666593
C88	C	-0.653305	-0.999934	-0.000053
C89	C	-0.319972	-0.666600	0.333281
C90	C	0.013362	-0.333267	0.666614
C91	C	-0.580477	-1.001355	-0.000065
C92	C	-0.247144	-0.668022	0.333269
C93	C	0.086190	-0.334689	0.666602
C94	C	-0.552287	-1.086118	-0.000091
C95	C	-0.218953	-0.752784	0.333243
C96	C	0.114380	-0.419451	0.666576
C97	C	0.224551	-1.081773	-0.000076
C98	C	0.557885	-0.748440	0.333258
C99	C	0.891218	-0.415107	0.666591
C100	C	0.302061	-1.083280	-0.000061
C101	C	0.635395	-0.749947	0.333272
C102	C	0.968728	-0.416613	0.666606
N103	N	0.096919	-1.089000	-0.254956
N104	N	0.430253	-0.755667	0.078377
N105	N	0.763586	-0.422334	0.411710
C106	C	0.094751	-0.443159	-0.000116
C107	C	0.428084	-0.109826	0.333217
C108	C	0.761417	0.223508	0.666551
C109	C	0.096290	-0.547457	-0.000103
C110	C	0.429623	-0.214124	0.333230
C111	C	0.762956	0.119209	0.666564
C112	C	0.097521	-0.630586	-0.000092
C113	C	0.430855	-0.297253	0.333241
C114	C	0.764188	0.036080	0.666574
C115	C	0.099060	-0.734891	-0.000081
C116	C	0.432394	-0.401558	0.333252
C117	C	0.765727	-0.068225	0.666586
C118	C	0.096921	-1.089005	-0.343954
C119	C	0.430254	-0.755672	-0.010621
C120	C	0.763588	-0.422338	0.322712
C121	C	0.096916	-1.089014	-0.455606
C122	C	0.430250	-0.755681	-0.122272
C123	C	0.763583	-0.422347	0.211061
C124	C	0.096908	-1.089026	-0.544596
C125	C	0.430242	-0.755693	-0.211263
C126	C	0.763575	-0.422360	0.122070
C127	C	0.096904	-1.089037	-0.656255
C128	C	0.430237	-0.755703	-0.322921
C129	C	0.763571	-0.422370	0.010412
N130	N	0.096896	-1.089049	0.254755
N131	N	0.430230	-0.755715	0.588088
N132	N	0.763563	-0.422382	0.921421
H133	H	-0.129920	-1.247116	-0.000164
H134	H	0.203413	-0.913782	0.333169
H135	H	0.536747	-0.580449	0.666502
H136	H	-0.262039	-1.244542	-0.000138
H137	H	0.071295	-0.911209	0.333195
H138	H	0.404628	-0.577876	0.666528
H139	H	-0.544140	-0.933496	-0.000058
H140	H	-0.210807	-0.600162	0.333275
H141	H	0.122527	-0.266829	0.666608
N142	N	-0.683701	-0.908513	-0.000039
N143	N	-0.350368	-0.575180	0.333295
N144	N	-0.017034	-0.241847	0.666628
H145	H	-0.713543	-0.904182	0.060605
H146	H	-0.380210	-0.570848	0.393939
H147	H	-0.046877	-0.237515	0.727272
H148	H	-0.713522	-0.904222	-0.060715
H149	H	-0.380189	-0.570889	0.272618
H150	H	-0.046855	-0.237555	0.605951
H151	H	-0.232221	-0.939574	-0.000089
H152	H	0.101112	-0.606241	0.333244
H153	H	0.434445	-0.272908	0.666578
H154	H	-0.706081	-1.235898	-0.000080
H155	H	-0.372748	-0.902564	0.333254
H156	H	-0.039414	-0.569231	0.666587
H157	H	-0.100094	-0.942137	-0.000095
H158	H	0.233239	-0.608804	0.333239
H159	H	0.566573	-0.275470	0.666572
H160	H	-0.573962	-1.238472	-0.000112
H161	H	-0.240629	-0.905139	0.333221
H162	H	0.092705	-0.571805	0.666555
