data_functionalizedCrystal
_audit_creation_method	'MofGen! by Chris Wilmer'
_symmetry_space_group_name_H-M	'P1'
_symmetry_Int_Tables_number	1
_symmetry_cell_setting	triclinic
loop_
_symmetry_equiv_pos_as_xyz
  x,y,z
_cell_length_a	23.532361
_cell_length_b	23.532357
_cell_length_c	9.482900
_cell_angle_alpha	99.268091
_cell_angle_beta	80.775783
_cell_angle_gamma	82.828980
loop_
_atom_site_label
_atom_site_type_symbol
_atom_site_fract_x
_atom_site_fract_y
_atom_site_fract_z
O1	O	0.764183	0.060051	-0.120763
O2	O	0.598317	0.070079	-0.120800
O3	O	0.686265	-0.017867	-0.120750
O4	O	0.676236	0.147997	-0.120812
O5	O	0.668400	0.000068	0.121032
O6	O	0.580453	0.088014	0.120982
O7	O	0.746319	0.077986	0.121020
Cu8	Cu	0.661755	0.084638	0.143078
Cu9	Cu	0.682881	0.063427	-0.142858
O10	O	0.658371	0.165932	0.120970
C11	C	0.568169	0.078795	0.000087
C12	C	0.504951	0.078039	0.000074
C13	C	0.677081	-0.030116	0.000145
C14	C	0.676325	-0.093333	0.000159
C15	C	0.241445	0.064960	-0.131712
C16	C	0.300845	0.065674	-0.131716
O17	O	0.339853	0.057710	-0.243800
N18	N	0.320813	0.075812	0.000080
C19	C	0.281378	0.085230	0.131889
O20	O	0.303816	0.093918	0.243991
C21	C	0.221980	0.084511	0.131891
C22	C	0.202015	0.074379	0.000087
C23	C	0.221480	0.054828	-0.263506
C24	C	0.162084	0.054114	-0.263501
C25	C	0.122653	0.063533	-0.131703
C26	C	0.142619	0.073665	0.000091
C27	C	0.182546	0.093925	0.263698
C28	C	0.123145	0.093204	0.263689
C29	C	0.103180	0.083072	0.131884
C30	C	0.043792	0.082370	0.131894
N31	N	0.023825	0.072233	0.000098
C32	C	0.063255	0.062814	-0.131701
C33	C	0.406119	0.086738	0.131874
C34	C	0.465515	0.087461	0.131873
C35	C	0.484979	0.067904	-0.131732
C36	C	0.425581	0.067185	-0.131729
C37	C	0.386151	0.076600	0.000078
C38	C	-0.061481	0.061317	-0.131681
C39	C	-0.120884	0.060606	-0.131665
C40	C	-0.140342	0.080160	0.131939
C41	C	-0.080945	0.080873	0.131924
C42	C	-0.041515	0.071449	0.000102
O43	O	0.004752	0.090328	0.243921
O44	O	0.040809	0.054120	-0.243784
C45	C	0.681332	-0.495126	-0.131716
C46	C	0.680616	-0.554526	-0.131725
O47	O	0.688507	-0.593557	-0.243812
N48	N	0.670522	-0.574461	0.000069
C49	C	0.661139	-0.534991	0.131880
O50	O	0.652487	-0.557402	0.243980
C51	C	0.661852	-0.475592	0.131887
C52	C	0.671952	-0.455662	0.000084
C53	C	0.691431	-0.475195	-0.263508
C54	C	0.692149	-0.415799	-0.263499
C55	C	0.682768	-0.376335	-0.131698
C56	C	0.672669	-0.396266	0.000093
C57	C	0.652464	-0.436123	0.263696
C58	C	0.653178	-0.376720	0.263691
C59	C	0.663277	-0.356790	0.131889
C60	C	0.664006	-0.297406	0.131903
N61	N	0.674099	-0.277471	0.000109
C62	C	0.683480	-0.316935	-0.131691
C63	C	0.659642	-0.659734	0.131855
C64	C	0.658934	-0.719133	0.131850
C65	C	0.678409	-0.738664	-0.131755
C66	C	0.679122	-0.679264	-0.131748
C67	C	0.669736	-0.639800	0.000061
C68	C	0.684987	-0.192199	-0.131663
C69	C	0.685706	-0.132798	-0.131642
C70	C	0.666228	-0.113272	0.131962
C71	C	0.665511	-0.172669	0.131943
C72	C	0.674890	-0.212132	0.000118
O73	O	0.656117	-0.258341	0.243933
O74	O	0.692123	-0.294515	-0.243773
C75	C	0.776467	0.069270	0.000130
C76	C	0.839686	0.070025	0.000133
C77	C	0.667555	0.178181	0.000071
C78	C	0.668311	0.241398	0.000048
N79	N	0.646899	0.099556	0.344189
N80	N	0.697741	0.048505	-0.343970
C81	C	0.678496	0.067825	0.416407
C82	C	0.666140	0.080241	0.583817
H83	H	-0.029384	0.053643	-0.239023
H84	H	0.650718	-0.735355	0.239176
O85	O	0.523207	0.058764	-0.259896
C86	C	0.492856	0.049647	-0.376236
H87	H	0.445197	0.070036	-0.337622
H88	H	0.513053	0.070665	-0.468429
H89	H	0.495777	0.000868	-0.416735
O90	O	-0.178640	0.089411	0.260001
C91	C	-0.176784	0.144857	0.340198
H92	H	-0.159473	0.173818	0.263082
H93	H	-0.222527	0.165374	0.399972
H94	H	-0.146854	0.140213	0.422387
O95	O	0.142797	0.044229	-0.391667
C96	C	0.190344	0.036081	-0.507980
H97	H	0.232292	0.021433	-0.469310
H98	H	0.183778	0.001376	-0.600146
H99	H	0.193409	0.078844	-0.548538
O100	O	0.740857	0.005013	0.582169
C101	C	0.728969	-0.048477	0.619524
H102	H	0.680264	-0.045230	0.661378
H103	H	0.742970	-0.084556	0.519503
H104	H	0.754061	-0.058898	0.707892
H105	H	0.645525	-0.344589	0.371029
O106	O	0.687450	-0.776939	-0.259885
C107	C	0.644208	-0.761636	-0.340060
H108	H	0.625514	-0.713483	-0.302594
H109	H	0.664234	-0.770061	-0.460632
H110	H	0.607911	-0.788990	-0.321788
O111	O	-0.140175	0.050728	-0.259837
C112	C	-0.092633	0.042581	-0.376161
H113	H	-0.050682	0.027924	-0.337510
H114	H	-0.099207	0.007883	-0.468332
H115	H	-0.089565	0.085347	-0.416705
O116	O	0.259823	0.045764	-0.391454
C117	C	0.288006	0.094933	-0.399385
H118	H	0.286215	0.119971	-0.284960
H119	H	0.335408	0.080208	-0.455193
H120	H	0.265185	0.124377	-0.464416
O121	O	0.655643	-0.192098	0.259873
C122	C	0.605306	-0.219115	0.267772
H123	H	0.597200	-0.234241	0.153338
H124	H	0.611780	-0.258271	0.323537
H125	H	0.566236	-0.186683	0.332827
H126	H	0.658593	-0.081130	0.239271
O127	O	0.694167	-0.230590	-0.259629
C128	C	0.743676	-0.272269	-0.267552
H129	H	0.751560	-0.274951	-0.153123
H130	H	0.736201	-0.316651	-0.323378
H131	H	0.783301	-0.258909	-0.332562
O132	O	0.484919	0.097407	0.259870
C133	C	0.511968	0.147728	0.267733
H134	H	0.494885	0.176445	0.192924
H135	H	0.501767	0.172941	0.384297
H136	H	0.561125	0.134490	0.232338
H137	H	0.374016	0.094412	0.239214
H138	H	0.700371	-0.399578	-0.370826
H139	H	0.198790	0.102174	0.371028
O140	O	0.084835	0.102247	0.391694
C141	C	0.056623	0.053095	0.399589
H142	H	0.084756	0.013283	0.324801
H143	H	0.049607	0.045173	0.516164
H144	H	0.012695	0.061081	0.364188
O145	O	0.406131	0.057269	-0.259671
C146	C	0.379115	0.006927	-0.267567
H147	H	0.364009	-0.001139	-0.153131
H148	H	0.339953	0.013376	-0.323366
H149	H	0.411537	-0.032162	-0.332589
O150	O	-0.061561	0.090620	0.259990
C151	C	-0.075274	0.047071	0.340202
H152	H	-0.081202	0.006678	0.263096
H153	H	-0.038365	0.035411	0.399988
H154	H	-0.117344	0.063909	0.422384
O155	O	0.721629	0.024433	0.342131
C156	C	0.697713	-0.016956	0.254094
H157	H	0.654713	0.004389	0.231479
H158	H	0.729384	-0.034022	0.146985
H159	H	0.689702	-0.054702	0.312626
H160	H	0.629937	0.116600	0.645921
O161	O	0.695499	-0.113533	-0.259811
C162	C	0.703637	-0.161108	-0.376138
H163	H	0.682237	-0.198120	-0.337502
H164	H	0.683001	-0.147000	-0.468325
H165	H	0.752251	-0.176676	-0.416653
H166	H	0.610699	0.135912	0.406299
H167	H	0.687345	-0.663042	-0.239074
O168	O	0.700582	-0.513451	-0.391680
C169	C	0.709632	-0.483107	-0.507981
H170	H	0.725312	-0.440365	-0.469304
H171	H	0.743895	-0.510870	-0.600160
H172	H	0.667007	-0.473550	-0.548525
O173	O	0.650544	-0.621482	0.260035
C174	C	0.641469	-0.651819	0.376343
H175	H	0.661850	-0.699487	0.337687
H176	H	0.662517	-0.631609	0.468539
H177	H	0.592702	-0.648893	0.416854
H178	H	0.644241	-0.452339	0.371024
