data_functionalizedCrystal
_audit_creation_method	'MofGen! by Chris Wilmer'
_symmetry_space_group_name_H-M	'P1'
_symmetry_Int_Tables_number	1
_symmetry_cell_setting	triclinic
loop_
_symmetry_equiv_pos_as_xyz
  x,y,z
_cell_length_a	19.188933
_cell_length_b	17.666332
_cell_length_c	10.489741
_cell_angle_alpha	90.004880
_cell_angle_beta	83.842371
_cell_angle_gamma	90.007838
loop_
_atom_site_label
_atom_site_type_symbol
_atom_site_fract_x
_atom_site_fract_y
_atom_site_fract_z
O1	O	0.927216	0.062923	0.159247
O2	O	1.427216	0.562923	0.659247
O3	O	0.724048	0.062930	0.180680
O4	O	1.224048	0.562930	0.680680
O5	O	0.830255	0.062922	-0.015738
O6	O	1.330255	0.562922	0.484262
O7	O	0.821009	0.062931	0.355664
O8	O	1.321009	0.562931	0.855664
O9	O	0.830236	-0.062975	-0.015744
O10	O	1.330236	0.437025	0.484256
O11	O	0.724029	-0.062967	0.180674
O12	O	1.224029	0.437033	0.680674
O13	O	0.927197	-0.062974	0.159241
O14	O	1.427197	0.437026	0.659241
Cu15	Cu	0.825611	-0.074466	0.169957
Cu16	Cu	1.325611	0.425534	0.669957
Cu17	Cu	0.825634	0.074422	0.169964
Cu18	Cu	1.325634	0.574422	0.669964
O19	O	0.820990	-0.062966	0.355659
O20	O	1.320990	0.437034	0.855659
C21	C	0.698023	-0.000018	0.179982
C22	C	1.198023	0.499982	0.679982
C23	C	0.620505	-0.000015	0.177898
C24	C	1.120505	0.499985	0.677898
N25	N	0.825601	-0.179185	0.169951
N26	N	1.325601	0.320815	0.669951
C27	C	0.067160	0.068603	0.163021
C28	C	0.567160	0.568603	0.663021
C29	C	0.139997	0.068606	0.164972
C30	C	0.639997	0.568606	0.664972
C31	C	0.176410	-0.000021	0.165951
C32	C	0.676410	0.499979	0.665951
C33	C	0.139982	-0.068655	0.164945
C34	C	0.639982	0.431345	0.664945
C35	C	0.067147	-0.068656	0.162981
C36	C	0.567147	0.431344	0.662981
N37	N	0.285930	-0.051100	0.241611
N38	N	0.785930	0.448900	0.741611
N39	N	0.355120	-0.051094	0.243479
N40	N	0.855120	0.448906	0.743479
C41	C	0.395859	-0.000022	0.171866
C42	C	0.895859	0.499978	0.671866
N43	N	0.364793	0.051057	0.098329
N44	N	0.864793	0.551057	0.598329
N45	N	0.295596	0.051054	0.096467
N46	N	0.795596	0.551054	0.596467
C47	C	0.255388	-0.000027	0.168080
C48	C	0.755388	0.499973	0.668080
C49	C	0.511257	0.068611	0.174978
C50	C	1.011257	0.568611	0.674978
C51	C	0.584096	0.068612	0.176921
C52	C	1.084096	0.568612	0.676921
C53	C	0.584079	-0.068651	0.176907
C54	C	1.084079	0.431349	0.676907
C55	C	0.511242	-0.068649	0.174951
C56	C	1.011242	0.431351	0.674951
C57	C	0.474835	-0.000016	0.173993
C58	C	0.974835	0.499984	0.673993
C59	C	0.868327	-0.218788	0.247125
C60	C	1.368327	0.281212	0.747125
C61	C	0.868338	-0.298036	0.247121
C62	C	1.368338	0.201964	0.747121
C63	C	0.825610	-0.337678	0.169959
C64	C	1.325610	0.162322	0.669959
C65	C	0.782881	-0.298065	0.092770
C66	C	1.282881	0.201935	0.592770
C67	C	0.782877	-0.218819	0.092766
C68	C	1.282877	0.281181	0.592766
N69	N	0.764441	-0.462115	0.166816
N70	N	1.264441	0.037885	0.666816
N71	N	0.764447	-0.537396	0.166827
N72	N	1.264447	-0.037396	0.666827
C73	C	0.825623	-0.576442	0.169963
C74	C	1.325623	-0.076442	0.669963
N75	N	0.886793	-0.537363	0.173114
N76	N	1.386793	-0.037363	0.673114
N77	N	0.886785	-0.462076	0.173110
N78	N	1.386785	0.037924	0.673110
C79	C	0.825611	-0.423607	0.169954
C80	C	1.325611	0.076393	0.669954
C81	C	0.868364	-0.701974	0.247136
C82	C	1.368364	-0.201974	0.747136
C83	C	0.868377	-0.781223	0.247123
C84	C	1.368377	-0.281223	0.747123
C85	C	0.782914	-0.781250	0.092780
C86	C	1.282914	-0.281250	0.592780
C87	C	0.782908	-0.702003	0.092785
C88	C	1.282908	-0.202003	0.592785
C89	C	0.825632	-0.662369	0.169971
C90	C	1.325632	-0.162369	0.669971
C91	C	0.953222	-0.000025	0.159938
C92	C	1.453222	0.499975	0.659938
C93	C	1.030740	-0.000023	0.162023
C94	C	1.530740	0.499977	0.662023
C95	C	0.829547	-0.000026	-0.063257
C96	C	1.329547	0.499974	0.436743
C97	C	0.827458	-0.000025	-0.204840
C98	C	1.327458	0.499975	0.295160
N99	N	0.825650	0.179141	0.169959
N100	N	1.325650	0.679141	0.669959
C101	C	0.759882	-0.000017	-0.271470
C102	C	1.259882	0.499983	0.228530
C103	C	0.791795	-0.062092	-0.364308
C104	C	1.291795	0.437908	0.135692
C105	C	0.791829	0.062033	-0.364278
C106	C	1.291829	0.562033	0.135722
C107	C	0.859399	-0.062151	-0.295814
C108	C	1.359399	0.437849	0.204186
C109	C	0.859424	0.062029	-0.295773
C110	C	1.359424	0.562029	0.204227
C111	C	0.891386	-0.000061	-0.388586
C112	C	1.391386	0.499939	0.111414
C113	C	0.821698	-0.000016	0.403178
C114	C	1.321698	0.499984	0.903178
C115	C	0.823787	-0.000013	0.544760
C116	C	1.323787	0.499987	1.044760
H117	H	0.169655	0.124490	0.165792
H118	H	0.669655	0.624490	0.665792
H119	H	0.887959	-0.114689	-0.265622
H120	H	1.387959	0.385311	0.234378
H121	H	0.946997	-0.000097	-0.439252
H122	H	1.446997	0.499903	0.060748
H123	H	0.903174	-0.813466	0.309963
H124	H	1.403174	-0.313466	0.809963
H125	H	0.903119	-0.186523	0.309970
H126	H	1.403119	0.313477	0.809970
H127	H	0.481613	0.124497	0.174194
H128	H	0.981613	0.624497	0.674194
N129	N	0.471955	-0.142666	0.173880
N130	N	0.971955	0.357334	0.673880
H131	H	0.506130	-0.186140	0.173910
H132	H	1.006130	0.313860	0.673910
H133	H	0.436803	-0.145883	0.252564
H134	H	0.936803	0.354117	0.752564
H135	H	0.763236	0.114517	-0.394600
H136	H	1.263236	0.614517	0.105400
H137	H	0.903131	-0.330287	0.309968
H138	H	1.403131	0.169713	0.809968
H139	H	0.748125	-0.813526	0.029952
H140	H	1.248125	-0.313526	0.529952
H141	H	0.613727	-0.124527	0.177699
H142	H	1.113727	0.375473	0.677699
N143	N	0.736819	-0.659289	0.009550
N144	N	1.236819	-0.159289	0.509550
H145	H	0.686150	-0.673090	0.034940
H146	H	1.186150	-0.173090	0.534940
H147	H	0.743356	-0.603085	0.021285
H148	H	1.243356	-0.103085	0.521285
N149	N	0.027893	0.142625	0.161971
N150	N	0.527893	0.642625	0.661971
H151	H	0.062022	0.186099	0.162894
H152	H	0.562022	0.686099	0.662894
H153	H	0.002942	0.145611	0.082101
H154	H	0.502942	0.645611	0.582101
N155	N	0.179252	-0.142674	0.165997
N156	N	0.679252	0.357326	0.665997
H157	H	0.230919	-0.132261	0.167398
H158	H	0.730919	0.367739	0.667398
H159	H	0.161251	-0.172643	0.244698
H160	H	0.661251	0.327357	0.744698
N161	N	0.027862	-0.142676	0.161903
N162	N	0.527862	0.357324	0.661903
H163	H	0.062037	-0.186150	0.161932
H164	H	0.562037	0.313850	0.661932
H165	H	-0.007290	-0.145893	0.240587
H166	H	0.492710	0.354107	0.740587
N167	N	0.623383	0.142632	0.177977
N168	N	1.123383	0.642632	0.677977
H169	H	0.589264	0.186107	0.177071
H170	H	1.089264	0.686107	0.677071
H171	H	0.648344	0.145622	0.257836
H172	H	1.148344	0.645622	0.757836
N173	N	0.736800	-0.340816	0.009537
N174	N	1.236800	0.159184	0.509537
H175	H	0.743284	-0.397028	0.021251
H176	H	1.243284	0.102972	0.521251
H177	H	0.686149	-0.326972	0.034959
H178	H	1.186149	0.173028	0.534959
H179	H	0.704321	-0.000078	-0.220577
H180	H	1.204321	0.499922	0.279423
H181	H	0.763194	-0.114570	-0.394683
H182	H	1.263194	0.385430	0.105317
N183	N	0.897277	0.131545	-0.255493
N184	N	1.397277	0.631545	0.244507
H185	H	0.864790	0.162102	-0.193166
H186	H	1.364790	0.662102	0.306834
H187	H	0.939746	0.115672	-0.212948
H188	H	1.439746	0.615672	0.287052
N189	N	0.736786	-0.176105	0.009529
N190	N	1.236786	0.323895	0.509529
H191	H	0.702890	-0.143231	0.065213
H192	H	1.202890	0.356769	0.565213
H193	H	0.766918	-0.143265	-0.053025
H194	H	1.266918	0.356735	0.446975
N195	N	0.914444	-0.659219	0.330377
N196	N	1.414444	-0.159219	0.830377
H197	H	0.941517	-0.696336	0.379260
H198	H	1.441517	-0.196336	0.879260
H199	H	0.948291	-0.626332	0.274613
H200	H	1.448291	-0.126332	0.774613
