data_functionalizedCrystal
_audit_creation_method	'MofGen! by Chris Wilmer'
_symmetry_space_group_name_H-M	'P1'
_symmetry_Int_Tables_number	1
_symmetry_cell_setting	triclinic
loop_
_symmetry_equiv_pos_as_xyz
  x,y,z
_cell_length_a	18.050589
_cell_length_b	12.759401
_cell_length_c	12.759393
_cell_angle_alpha	89.980535
_cell_angle_beta	89.969379
_cell_angle_gamma	90.027893
loop_
_atom_site_label
_atom_site_type_symbol
_atom_site_fract_x
_atom_site_fract_y
_atom_site_fract_z
Zn1	Zn	-0.295622	1.606157	-0.594015
Zn2	Zn	-0.419832	1.606010	-0.418338
Zn3	Zn	-0.295660	1.430459	-0.418352
Zn4	Zn	-0.419774	1.430406	-0.593977
O5	O	-0.357722	1.518258	-0.506171
O6	O	-0.312107	1.753158	-0.570722
O7	O	-0.403401	1.582683	-0.271319
O8	O	-0.191730	1.453849	-0.441676
O9	O	-0.403364	1.753050	-0.441653
O10	O	-0.191703	1.582934	-0.570735
O11	O	-0.312172	1.453706	-0.271329
O12	O	-0.312115	1.283431	-0.441638
O13	O	-0.403265	1.453759	-0.741003
O14	O	-0.403302	1.283392	-0.570669
O15	O	-0.312051	1.582882	-0.741031
O16	O	-0.523749	1.582632	-0.441615
O17	O	-0.523706	1.453616	-0.570656
C18	C	-0.357707	1.245290	-0.506152
C19	C	-0.357718	1.128514	-0.506169
C20	C	-0.405178	0.963872	-0.438891
C21	C	-0.405163	1.073596	-0.438873
C22	C	-0.310280	1.073701	-0.573479
C23	C	-0.310291	0.963979	-0.573491
C24	C	-0.452631	0.908960	-0.371598
C25	C	-0.500069	0.963765	-0.304285
C26	C	-0.500054	1.073489	-0.304267
C27	C	-0.452601	1.128408	-0.371562
C28	C	-0.550674	1.518131	-0.506153
C29	C	-0.633220	1.518173	-0.506181
C30	C	-0.832674	1.448083	-0.576329
C31	C	-0.882123	1.422469	-0.480460
C32	C	-0.784350	1.518276	-0.506195
C33	C	-0.881984	1.543942	-0.602074
C34	C	-0.930335	1.518374	-0.506216
C35	C	-0.832712	1.492611	-0.410275
C36	C	-0.832568	1.614129	-0.531954
C37	C	-0.881994	1.588551	-0.436019
C38	C	-0.700252	1.518217	-0.506183
C39	C	-1.014432	1.518433	-0.506216
C40	C	-0.164017	1.518414	-0.506211
C41	C	-0.081471	1.518480	-0.506228
C42	C	-0.357647	1.518331	-0.780204
C43	C	-0.357615	1.518363	-0.896981
C44	C	-0.357738	1.792291	-0.506190
C45	C	-0.357745	1.909068	-0.506198
C46	C	-0.310116	1.585606	-0.951859
C47	C	-0.310089	1.585631	-1.061583
C48	C	-0.405068	1.451166	-1.061541
C49	C	-0.405090	1.451136	-0.951819
C50	C	-0.262641	1.652833	-0.897021
C51	C	-0.215138	1.720083	-0.951900
C52	C	-0.215111	1.720108	-1.061624
C53	C	-0.262587	1.652883	-1.116470
C54	C	-0.357743	1.518245	-0.233203
C55	C	-0.357566	1.518417	-0.116427
H56	H	-0.452588	1.217753	-0.371534
C57	C	-0.552263	0.903359	-0.230262
C58	C	-0.552284	0.782669	-0.230278
C59	C	-0.604479	0.722266	-0.156252
C60	C	-0.656652	0.782553	-0.082209
C61	C	-0.656632	0.903250	-0.082190
C62	C	-0.604438	0.963653	-0.156216
H63	H	-0.513661	0.738035	-0.285091
H64	H	-0.604493	0.632918	-0.156266
H65	H	-0.695289	0.737840	-0.027410
H66	H	-0.695255	0.947884	-0.027377
H67	H	-0.604423	1.053001	-0.156201
H68	H	-0.176427	1.774858	-1.106303
H69	H	-0.452650	0.819618	-0.371607
C70	C	-0.803605	1.463214	-0.300711
C71	C	-0.754255	1.540532	-0.239790
C72	C	-0.725148	1.511135	-0.130227
C73	C	-0.745392	1.404420	-0.081587
C74	C	-0.794745	1.327096	-0.142508
C75	C	-0.823851	1.356493	-0.252071
H76	H	-0.739267	1.619534	-0.275796
H77	H	-0.688614	1.568376	-0.085129
H78	H	-0.723845	1.382659	-0.000482
H79	H	-0.809732	1.248093	-0.106502
H80	H	-0.860385	1.299251	-0.297169
C81	C	-0.911224	1.573224	-0.711598
C82	C	-0.961147	1.496196	-0.771950
C83	C	-0.990386	1.525470	-0.881475
C84	C	-0.969701	1.631771	-0.930648
C85	C	-0.919775	1.708805	-0.870295
C86	C	-0.890537	1.679532	-0.760771
H87	H	-0.976462	1.417500	-0.735550
H88	H	-1.027344	1.468443	-0.926152
H89	H	-0.991345	1.653440	-1.011725
H90	H	-0.904461	1.787502	-0.906696
H91	H	-0.853579	1.736559	-0.716094
C92	C	-0.911534	1.313023	-0.451027
C93	C	-0.892095	1.217614	-0.519598
C94	C	-0.921503	1.108167	-0.490174
C95	C	-0.970350	1.094129	-0.392179
C96	C	-0.989791	1.189541	-0.323603
C97	C	-0.960383	1.298989	-0.353027
H98	H	-0.855933	1.228003	-0.592145
H99	H	-0.907111	1.037536	-0.540939
H100	H	-0.992119	1.013110	-0.370398
H101	H	-1.025953	1.179152	-0.251056
H102	H	-0.974775	1.369619	-0.302261
C103	C	-0.162915	1.794025	-0.891575
C104	C	-0.162942	1.794005	-0.770885
C105	C	-0.110717	1.867949	-0.710564
C106	C	-0.058465	1.941912	-0.770932
C107	C	-0.058436	1.941935	-0.891629
C108	C	-0.110661	1.867991	-0.951950
H109	H	-0.201624	1.739250	-0.726191
H110	H	-0.110740	1.867931	-0.621216
H111	H	-0.019805	1.996650	-0.726278
H112	H	-0.019754	1.996690	-0.936323
H113	H	-0.110639	1.868009	-1.041299
H114	H	-0.903513	1.647952	-0.376650
H115	H	-0.538675	1.118108	-0.249451
C116	C	-0.803135	1.723546	-0.561421
C117	C	-0.857759	1.812764	-0.586467
C118	C	-0.828325	1.922182	-0.615948
C119	C	-0.744266	1.942381	-0.620384
C120	C	-0.689636	1.853161	-0.595337
C121	C	-0.719071	1.743743	-0.565856
H122	H	-0.919989	1.797813	-0.583184
H123	H	-0.868766	1.988228	-0.634489
H124	H	-0.722477	2.023378	-0.642208
H125	H	-0.627406	1.868111	-0.598620
H126	H	-0.678630	1.677696	-0.547315
H127	H	-0.262659	1.652822	-0.807678
C128	C	-0.258089	1.134111	-0.647504
C129	C	-0.290331	1.209563	-0.729902
C130	C	-0.238141	1.269973	-0.803930
C131	C	-0.153710	1.254930	-0.795559
C132	C	-0.121464	1.179475	-0.713158
C133	C	-0.173653	1.119066	-0.639130
H134	H	-0.352836	1.220702	-0.736102
H135	H	-0.262013	1.325830	-0.864929
H136	H	-0.115076	1.299649	-0.850359
H137	H	-0.058958	1.168336	-0.706958
H138	H	-0.149782	1.063209	-0.578131
H139	H	-0.262553	1.652896	-1.205814
H140	H	-0.443720	1.396434	-1.106205
H141	H	-0.443757	1.396364	-0.907136
H142	H	-0.811018	1.388636	-0.635555
H143	H	-0.271664	0.919356	-0.628295
