data_functionalizedCrystal
_audit_creation_method	'MofGen! by Chris Wilmer'
_symmetry_space_group_name_H-M	'P1'
_symmetry_Int_Tables_number	1
_symmetry_cell_setting	triclinic
loop_
_symmetry_equiv_pos_as_xyz
  x,y,z
_cell_length_a	14.971486
_cell_length_b	12.503572
_cell_length_c	14.971496
_cell_angle_alpha	86.473257
_cell_angle_beta	83.616127
_cell_angle_gamma	93.517589
loop_
_atom_site_label
_atom_site_type_symbol
_atom_site_fract_x
_atom_site_fract_y
_atom_site_fract_z
O1	O	1.192094	0.089199	0.111400
O2	O	1.692094	0.589199	0.611400
O3	O	0.931696	0.089228	0.125357
O4	O	1.431696	0.589228	0.625357
O5	O	1.068869	0.089203	-0.011820
O6	O	1.568869	0.589203	0.488180
O7	O	1.054921	0.089224	0.248578
O8	O	1.554921	0.589224	0.748578
O9	O	1.058553	-0.089437	-0.001486
O10	O	1.558553	0.410563	0.498514
O11	O	0.921380	-0.089412	0.135691
O12	O	1.421380	0.410588	0.635691
O13	O	1.181778	-0.089441	0.121734
O14	O	1.681778	0.410559	0.621734
Cu15	Cu	1.050637	-0.105738	0.129656
Cu16	Cu	1.550637	0.394262	0.629656
Cu17	Cu	1.062837	0.105525	0.117435
Cu18	Cu	1.562837	0.605525	0.617435
O19	O	1.044605	-0.089416	0.258911
O20	O	1.544605	0.410584	0.758911
C21	C	0.893213	-0.000088	0.129900
C22	C	1.393213	0.499912	0.629900
C23	C	0.793917	-0.000077	0.128028
C24	C	1.293917	0.499923	0.628028
N25	N	1.042062	-0.254329	0.138251
N26	N	1.542062	0.245671	0.638251
C27	C	0.736695	-0.000072	0.208617
C28	C	1.236695	0.499928	0.708617
C29	C	0.643394	-0.000088	0.206855
C30	C	1.143394	0.499912	0.706855
C31	C	0.607318	-0.000102	0.124503
C32	C	1.107318	0.499898	0.624503
C33	C	0.664548	-0.000110	0.043908
C34	C	1.164548	0.499890	0.543908
C35	C	0.757846	-0.000101	0.045672
C36	C	1.257846	0.499899	0.545672
C37	C	0.470084	-0.000125	0.040238
C38	C	0.970084	0.499875	0.540238
C39	C	0.376780	-0.000131	0.038474
C40	C	0.876780	0.499869	0.538474
C41	C	0.355633	-0.000112	0.201421
C42	C	0.855633	0.499888	0.701421
C43	C	0.448931	-0.000104	0.203185
C44	C	0.948931	0.499896	0.703185
C45	C	0.506154	-0.000110	0.122589
C46	C	1.006154	0.499890	0.622589
C47	C	1.029449	-0.473441	0.150902
C48	C	1.529449	0.026559	0.650902
C49	C	1.084029	-0.526779	0.096185
C50	C	1.584029	-0.026779	0.596185
C51	C	1.077011	-0.648701	0.103224
C52	C	1.577011	-0.148701	0.603224
C53	C	1.036466	-0.351509	0.143864
C54	C	1.536466	0.148491	0.643864
C55	C	1.220260	-0.000123	0.117191
C56	C	1.720260	0.499877	0.617191
C57	C	1.319557	-0.000127	0.119062
C58	C	1.819557	0.499873	0.619062
C59	C	1.063086	-0.000117	-0.039978
C60	C	1.563086	0.499883	0.460022
C61	C	1.061211	-0.000117	-0.139274
C62	C	1.561211	0.499883	0.360726
N63	N	1.071418	0.254115	0.108833
N64	N	1.571418	0.754115	0.608833
C65	C	1.058769	0.097288	-0.572613
C66	C	1.558769	0.597288	-0.072613
C67	C	1.060534	0.097283	-0.479314
C68	C	1.560534	0.597283	0.020686
C69	C	1.055787	-0.000097	-0.427037
C70	C	1.555787	0.499903	0.072963
C71	C	1.049284	-0.097480	-0.468065
C72	C	1.549284	0.402520	0.031935
C73	C	1.047525	-0.097474	-0.561364
C74	C	1.547525	0.402526	-0.061364
C75	C	1.052948	-0.097486	-0.273602
C76	C	1.552948	0.402514	0.226398
C77	C	1.054706	-0.097492	-0.180296
C78	C	1.554706	0.402508	0.319704
C79	C	1.065958	0.097272	-0.191551
C80	C	1.565958	0.597272	0.308449
C81	C	1.064199	0.097278	-0.284850
C82	C	1.564199	0.597278	0.215150
C83	C	1.057693	-0.000105	-0.325872
C84	C	1.557693	0.499895	0.174128
C85	C	1.050388	-0.000094	0.287069
C86	C	1.550388	0.499906	0.787069
C87	C	1.052263	-0.000086	0.386365
C88	C	1.552263	0.499914	0.886365
H89	H	0.766060	-0.000061	0.275677
H90	H	1.266060	0.499939	0.775677
N91	N	0.816300	-0.000128	-0.036646
N92	N	1.316300	0.499872	0.463354
N93	N	0.808622	-0.075442	-0.087031
N94	N	1.308622	0.424558	0.412969
H95	H	0.849905	-0.075469	-0.145170
H96	H	1.349905	0.424531	0.354830
N97	N	1.044427	-0.196942	-0.414653
N98	N	1.544427	0.303058	0.085347
N99	N	0.981150	-0.218657	-0.353162
N100	N	1.481150	0.281343	0.146838
H101	H	0.977717	-0.288903	-0.315438
H102	H	1.477717	0.211097	0.184562
N103	N	1.040882	-0.196950	-0.603256
N104	N	1.540882	0.303050	-0.103256
N105	N	1.036644	-0.283891	-0.556573
N106	N	1.536644	0.216109	-0.056573
H107	H	1.031955	-0.354150	-0.586158
H108	H	1.531955	0.145850	-0.086158
N109	N	1.149255	-0.469186	0.030789
N110	N	1.649255	0.030814	0.530789
N111	N	1.154939	-0.368790	0.025090
N112	N	1.654939	0.131210	0.525090
H113	H	1.201005	-0.328109	-0.021093
H114	H	1.701005	0.171891	0.478907
N115	N	0.297172	-0.000121	0.283741
N116	N	0.797172	0.499879	0.783741
N117	N	0.213871	-0.000145	0.282160
N118	N	0.713871	0.499855	0.782160
H119	H	0.172578	-0.000153	0.340296
H120	H	0.672578	0.499847	0.840296
H121	H	0.977455	-0.519339	0.203030
H122	H	1.477455	-0.019339	0.703030
N123	N	0.584956	-0.000089	0.289183
N124	N	1.084956	0.499911	0.789183
N125	N	0.617178	-0.000072	0.362705
N126	N	1.117178	0.499928	0.862705
H127	H	0.575906	-0.000075	0.420854
H128	H	1.075906	0.499925	0.920854
N129	N	1.072599	0.196756	-0.149666
N130	N	1.572599	0.696756	0.350334
N131	N	1.013167	0.261966	-0.155675
N132	N	1.513167	0.761966	0.344325
H133	H	1.017853	0.332225	-0.126090
H134	H	1.517853	0.832225	0.373910
H135	H	1.062626	0.176587	-0.615170
H136	H	1.562626	0.676587	-0.115170
H137	H	1.065833	0.176576	-0.445918
H138	H	1.565833	0.676576	0.054082
H139	H	1.068059	0.176574	-0.327411
H140	H	1.568059	0.676574	0.172589
H141	H	1.050812	-0.176788	-0.137731
H142	H	1.550812	0.323212	0.362269
H143	H	0.635166	-0.000136	-0.023144
H144	H	1.135166	0.499864	0.476856
N145	N	0.339942	-0.000148	-0.045653
N146	N	0.839942	0.499852	0.454347
N147	N	0.391039	-0.000164	-0.117604
N148	N	0.891039	0.499836	0.382396
H149	H	0.365023	-0.000177	-0.177021
H150	H	0.865023	0.499823	0.322979
N151	N	1.046305	-0.196968	-0.315492
N152	N	1.546305	0.303032	0.184508
N153	N	1.042061	-0.283909	-0.268808
N154	N	1.542061	0.216091	0.231192
H155	H	1.037364	-0.354168	-0.298392
H156	H	1.537364	0.145832	0.201608
N157	N	0.485770	-0.000074	0.287310
N158	N	0.985770	0.499926	0.787310
N159	N	0.434671	-0.000066	0.359262
N160	N	0.934671	0.499934	0.859262
H161	H	0.460687	-0.000045	0.418678
H162	H	0.960687	0.499955	0.918678
H163	H	0.516673	-0.000132	-0.025391
H164	H	1.016673	0.499868	0.474609
