data_functionalizedCrystal
_audit_creation_method	'MofGen! by Chris Wilmer'
_symmetry_space_group_name_H-M	'P1'
_symmetry_Int_Tables_number	1
_symmetry_cell_setting	triclinic
loop_
_symmetry_equiv_pos_as_xyz
  x,y,z
_cell_length_a	10.686220
_cell_length_b	16.120297
_cell_length_c	10.686285
_cell_angle_alpha	91.272393
_cell_angle_beta	89.654569
_cell_angle_gamma	97.011720
loop_
_atom_site_label
_atom_site_type_symbol
_atom_site_fract_x
_atom_site_fract_y
_atom_site_fract_z
Zn1	Zn	1.931205	-0.354352	0.381220
Zn2	Zn	2.431205	0.145648	0.881220
Zn3	Zn	1.957821	-0.203616	0.578617
Zn4	Zn	2.457821	0.296384	1.078617
Zn5	Zn	1.730559	-0.224834	0.386727
Zn6	Zn	2.230559	0.275166	0.886727
Zn7	Zn	1.737647	-0.352697	0.606906
Zn8	Zn	2.237647	0.147303	1.106906
O9	O	1.839308	-0.283875	0.488368
O10	O	2.339308	0.216125	0.988368
O11	O	2.110851	-0.326168	0.393262
O12	O	2.610851	0.173832	0.893262
O13	O	1.935847	-0.089836	0.543629
O14	O	2.435847	0.410164	1.043629
O15	O	1.743070	-0.251587	0.211240
O16	O	2.243070	0.248413	0.711240
O17	O	2.130405	-0.215423	0.538288
O18	O	2.630405	0.284577	1.038288
O19	O	1.890484	-0.346743	0.207194
O20	O	2.390484	0.153257	0.707194
O21	O	1.768879	-0.105425	0.402648
O22	O	2.268879	0.394575	0.902648
O23	O	1.555385	-0.249983	0.430078
O24	O	2.055385	0.250017	0.930078
O25	O	1.755150	-0.469511	0.586502
O26	O	2.255150	0.030489	1.086502
O27	O	1.560592	-0.343924	0.591842
O28	O	2.060592	0.156076	1.091842
O29	O	1.897357	-0.470727	0.420692
O30	O	2.397357	0.029273	0.920692
O31	O	1.942720	-0.213819	0.757126
O32	O	2.442720	0.286181	1.257126
O33	O	1.780959	-0.323349	0.777910
O34	O	2.280959	0.176651	1.277910
C35	C	1.512324	-0.299077	0.514628
C36	C	2.012324	0.200923	1.014628
C37	C	1.372440	-0.305599	0.525895
C38	C	1.872440	0.194401	1.025895
C39	C	1.824075	-0.501196	0.506138
C40	C	2.324075	-0.001196	1.006138
C41	C	1.817584	-0.593805	0.513711
C42	C	2.317584	-0.093805	1.013711
C43	C	1.805683	-0.763368	0.527512
C44	C	2.305683	-0.263368	1.027512
C45	C	1.873151	-0.805242	0.448829
C46	C	2.373151	-0.305242	0.948829
C47	C	1.866529	-0.899593	0.456508
C48	C	2.366529	-0.399593	0.956508
C49	C	1.812303	-0.669009	0.519835
C50	C	2.312303	-0.169009	1.019835
C51	C	2.167569	-0.268613	0.462005
C52	C	2.667569	0.231387	0.962005
C53	C	2.307455	-0.262110	0.450771
C54	C	2.807455	0.237890	0.950771
C55	C	1.865530	-0.266118	0.812829
C56	C	2.365530	0.233882	1.312829
C57	C	1.876860	-0.258545	0.951628
C58	C	2.376860	0.241455	1.451628
C59	C	1.854547	-0.067400	0.470570
C60	C	2.354547	0.432600	0.970570
C61	C	1.861254	0.025201	0.462626
C62	C	2.361254	0.525201	0.962626
C63	C	1.813017	-0.301717	0.162638
C64	C	2.313017	0.198283	0.662638
C65	C	1.801814	-0.309320	0.023831
C66	C	2.301814	0.190680	0.523831
H67	H	1.321055	-0.347818	0.598842
H68	H	1.821055	0.152182	1.098842
H69	H	1.742956	-0.798375	0.600638
H70	H	2.242956	-0.298375	1.100638
C71	C	1.956757	-0.758415	0.351427
C72	C	2.456757	-0.258415	0.851427
C73	C	1.946808	-0.672784	0.363094
C74	C	2.446808	-0.172784	0.863094
C75	C	2.023808	-0.629617	0.273397
C76	C	2.523808	-0.129617	0.773397
H77	H	1.930657	-0.777975	0.270073
H78	H	2.430657	-0.277975	0.770073
H79	H	2.041850	-0.767648	0.364038
H80	H	2.541850	-0.267648	0.864038
H81	H	1.861732	-0.663556	0.350473
H82	H	2.361732	-0.163556	0.850473
H83	H	1.972916	-0.653199	0.444428
H84	H	2.472916	-0.153199	0.944428
H85	H	2.108901	-0.638850	0.286009
H86	H	2.608901	-0.138850	0.786009
H87	H	1.997702	-0.649184	0.192050
H88	H	2.497702	-0.149184	0.692050
H89	H	2.017077	-0.571512	0.281309
H90	H	2.517077	-0.071512	0.781309
H91	H	1.728896	-0.358586	0.979463
H92	H	2.228896	0.141414	1.479463
C93	C	1.375729	-0.205732	0.353476
C94	C	1.875729	0.294268	0.853476
C95	C	1.287753	-0.166903	0.286453
C96	C	1.787753	0.333097	0.786453
C97	C	1.350610	-0.114951	0.196827
C98	C	1.850610	0.385049	0.696827
H99	H	1.420386	-0.238186	0.297547
H100	H	1.920386	0.261814	0.797547
H101	H	1.433378	-0.164363	0.394083
H102	H	1.933378	0.335637	0.894083
H103	H	1.230126	-0.208266	0.245848
H104	H	1.730126	0.291734	0.745848
H105	H	1.243091	-0.134434	0.342348
H106	H	1.743091	0.365566	0.842348
H107	H	1.408259	-0.073583	0.237434
H108	H	1.908259	0.426417	0.737434
H109	H	1.395266	-0.147411	0.140906
H110	H	1.895266	0.352589	0.640906
H111	H	1.290930	-0.088594	0.151349
H112	H	1.790930	0.411406	0.651349
H113	H	1.949775	-0.209271	0.996003
H114	H	2.449775	0.290729	1.496003
