data_functionalizedCrystal
_audit_creation_method	'MofGen! by Chris Wilmer'
_symmetry_space_group_name_H-M	'P1'
_symmetry_Int_Tables_number	1
_symmetry_cell_setting	triclinic
loop_
_symmetry_equiv_pos_as_xyz
  x,y,z
_cell_length_a	12.759399
_cell_length_b	18.050591
_cell_length_c	12.759393
_cell_angle_alpha	90.018936
_cell_angle_beta	90.026988
_cell_angle_gamma	90.014238
loop_
_atom_site_label
_atom_site_type_symbol
_atom_site_fract_x
_atom_site_fract_y
_atom_site_fract_z
Zn1	Zn	0.418218	-1.135422	-0.593990
Zn2	Zn	0.593934	-1.135345	-0.418320
Zn3	Zn	0.418269	-1.011224	-0.418331
Zn4	Zn	0.593856	-1.011219	-0.593964
O5	O	0.506069	-1.073302	-0.506151
O6	O	0.441539	-1.239336	-0.570693
O7	O	0.570686	-1.118851	-0.271301
O8	O	0.271242	-1.027733	-0.441648
O9	O	0.570636	-1.239280	-0.441630
O10	O	0.271204	-1.118980	-0.570703
O11	O	0.441626	-1.027659	-0.271308
O12	O	0.441550	-0.907299	-0.441623
O13	O	0.570503	-1.027724	-0.740988
O14	O	0.570552	-0.907295	-0.570659
O15	O	0.441463	-1.118976	-0.741007
O16	O	0.740945	-1.118846	-0.441605
O17	O	0.740887	-1.027650	-0.570649
C18	C	0.506049	-0.880350	-0.506140
C19	C	0.506065	-0.797804	-0.506160
C20	C	0.576368	-0.548998	-0.576231
C21	C	0.601951	-0.598363	-0.480339
C22	C	0.506106	-0.500684	-0.506154
C23	C	0.480553	-0.598401	-0.602044
C24	C	0.506088	-0.646669	-0.506162
C25	C	0.531738	-0.548962	-0.410211
C26	C	0.410296	-0.548995	-0.531980
C27	C	0.435841	-0.598337	-0.436022
C28	C	0.506119	-0.416586	-0.506151
C29	C	0.506076	-0.730766	-0.506154
C30	C	0.779037	-1.073259	-0.506146
C31	C	0.895813	-1.073309	-0.506179
C32	C	1.060401	-1.120893	-0.439103
C33	C	0.950677	-1.120848	-0.439064
C34	C	0.950679	-1.025806	-0.573331
C35	C	1.060401	-1.025848	-0.573364
C36	C	1.232036	-1.073366	-0.506195
C37	C	1.115259	-1.073395	-0.506252
C38	C	0.505968	-1.073358	-0.780185
C39	C	0.505925	-1.073382	-0.896961
C40	C	0.506097	-0.267008	-0.506160
C41	C	0.506126	-0.349554	-0.506154
C42	C	0.438724	-1.120900	-0.951835
C43	C	0.438678	-1.120912	-1.061559
C44	C	0.573046	-1.025887	-1.061526
C45	C	0.573085	-1.025871	-0.951804
C46	C	0.506094	-1.073290	-0.233184
C47	C	0.505841	-1.073410	-0.116408
H48	H	0.553442	-0.527337	-0.329099
Cl49	Cl	1.129363	-1.180663	-0.354730
H50	H	0.635840	-0.527334	-0.635415
Cl51	Cl	0.881718	-1.180562	-0.354645
Cl52	Cl	0.881707	-0.966043	-0.657705
H53	H	1.105067	-0.987167	-0.628047
H54	H	0.627727	-0.987207	-1.106193
Cl55	Cl	0.657568	-0.966125	-0.882815
Cl56	Cl	0.354291	-1.180624	-0.882893
H57	H	0.682969	-0.620049	-0.458490
Cl58	Cl	0.344082	-0.631569	-0.344432
H59	H	0.329301	-0.527293	-0.553856
Cl60	Cl	0.447194	-0.631930	-0.727237
Cl61	Cl	0.354201	-1.180659	-1.130538
