data_functionalizedCrystal
_audit_creation_method	'MofGen! by Chris Wilmer'
_symmetry_space_group_name_H-M	'P1'
_symmetry_Int_Tables_number	1
_symmetry_cell_setting	triclinic
loop_
_symmetry_equiv_pos_as_xyz
  x,y,z
_cell_length_a	8.559649
_cell_length_b	8.559649
_cell_length_c	14.048226
_cell_angle_alpha	89.995035
_cell_angle_beta	89.993095
_cell_angle_gamma	69.778664
loop_
_atom_site_label
_atom_site_type_symbol
_atom_site_fract_x
_atom_site_fract_y
_atom_site_fract_z
O1	O	2.126885	-0.055032	-0.079157
O2	O	1.651400	0.028749	-0.079158
O3	O	1.931033	-0.250884	-0.079157
O4	O	1.847252	0.224601	-0.079159
O5	O	1.931005	-0.250895	0.079165
O6	O	1.651372	0.028738	0.079163
O7	O	2.126857	-0.055043	0.079164
Zn8	Zn	1.889110	-0.013154	0.104300
Zn9	Zn	1.889147	-0.013140	-0.104295
O10	O	1.847224	0.224590	0.079162
C11	C	1.591077	0.035093	0.000002
C12	C	1.411378	0.053992	0.000002
C13	C	1.937369	-0.311198	0.000002
C14	C	1.956268	-0.490898	-0.000003
C15	C	2.187180	-0.061387	0.000001
C16	C	2.366879	-0.080286	-0.000004
C17	C	1.840889	0.284904	0.000001
C18	C	1.821990	0.464604	0.000000
N19	N	1.889097	-0.013167	0.246661
N20	N	1.889175	-0.013142	-0.246655
C21	C	2.012947	-0.136947	0.296480
C22	C	2.012958	-0.136949	0.396137
C23	C	1.889124	-0.013163	0.445975
C24	C	1.765261	0.110624	0.396149
C25	C	1.765245	0.110618	0.296493
C26	C	1.765307	0.110630	0.603863
C27	C	1.765325	0.110638	0.703526
C28	C	2.013020	-0.136937	0.703508
C29	C	2.013004	-0.136943	0.603852
C30	C	1.889142	-0.013154	0.554033
H31	H	1.466268	-0.209714	-0.000004
H32	H	1.692570	-0.436018	0.000003
H33	H	2.085696	-0.590286	0.000005
H34	H	2.113793	-0.237742	0.255909
H35	H	1.312000	0.183411	-0.000008
C36	C	2.149207	-0.273094	0.450934
H37	H	2.222970	-0.346801	0.406980
H38	H	2.099174	-0.333512	0.489825
H39	H	2.209565	-0.222955	0.489793
H40	H	2.113845	-0.237732	0.563275
H41	H	2.113872	-0.237730	0.744076
H42	H	1.664485	0.211437	0.744098
C43	C	1.629068	0.246802	0.549064
H44	H	1.555329	0.320537	0.593016
H45	H	1.568700	0.196697	0.510198
H46	H	1.679140	0.307205	0.510180
H47	H	1.664426	0.211409	0.436732
H48	H	1.664392	0.211411	0.255931
