data_functionalizedCrystal
_audit_creation_method	'MofGen! by Chris Wilmer'
_symmetry_space_group_name_H-M	'P1'
_symmetry_Int_Tables_number	1
_symmetry_cell_setting	triclinic
loop_
_symmetry_equiv_pos_as_xyz
  x,y,z
_cell_length_a	19.121595
_cell_length_b	12.759401
_cell_length_c	12.759400
_cell_angle_alpha	89.987453
_cell_angle_beta	87.537249
_cell_angle_gamma	92.457005
loop_
_atom_site_label
_atom_site_type_symbol
_atom_site_fract_x
_atom_site_fract_y
_atom_site_fract_z
Zn1	Zn	-0.397149	-1.631547	-0.393011
Zn2	Zn	-0.279706	-1.623962	-0.576198
Zn3	Zn	-0.279711	-1.448370	-0.400527
Zn4	Zn	-0.397116	-1.455836	-0.568644
O5	O	-0.338421	-1.539929	-0.484595
O6	O	-0.381582	-1.777563	-0.417327
O7	O	-0.181421	-1.594371	-0.559201
O8	O	-0.295306	-1.472719	-0.252508
O9	O	-0.295296	-1.771990	-0.551914
O10	O	-0.381587	-1.607298	-0.246986
O11	O	-0.181426	-1.465364	-0.430136
O12	O	-0.295274	-1.302339	-0.422812
O13	O	-0.495406	-1.485443	-0.539040
O14	O	-0.381531	-1.307824	-0.546327
O15	O	-0.495430	-1.614537	-0.410003
O16	O	-0.295264	-1.601610	-0.722218
O17	O	-0.381525	-1.478088	-0.716668
C18	C	-0.338400	-1.266960	-0.484566
C19	C	-0.338407	-1.150184	-0.484578
C20	C	-0.521615	-1.551669	-0.472840
C21	C	-0.599681	-1.556672	-0.467831
C22	C	-0.338406	-1.539866	-0.757563
C23	C	-0.338423	-1.539936	-0.874339
C24	C	-0.636345	-1.491811	-0.532656
C25	C	-0.709697	-1.496520	-0.527949
C26	C	-0.746383	-1.566086	-0.458412
C27	C	-0.709713	-1.630954	-0.393585
C28	C	-0.636363	-1.626249	-0.398298
C29	C	-0.967854	-1.583659	-0.440827
C30	C	-1.041209	-1.588357	-0.436117
C31	C	-1.041188	-1.453924	-0.570482
C32	C	-0.967836	-1.449221	-0.575184
C33	C	-0.931173	-1.514092	-0.510362
C34	C	-0.821360	-1.570899	-0.453597
C35	C	-0.856197	-1.509284	-0.515183
C36	C	-0.155939	-1.528295	-0.496228
C37	C	-0.077874	-1.523496	-0.500941
C38	C	-0.293416	-1.092420	-0.554551
C39	C	-0.293425	-0.982697	-0.554564
C40	C	-0.383419	-0.988511	-0.414622
C41	C	-0.383413	-1.098233	-0.414614
C42	C	-0.241456	-1.089062	-0.635343
C43	C	-0.241465	-0.979339	-0.635356
C44	C	-0.338435	-0.813963	-0.484615
C45	C	-0.338422	-0.930739	-0.484598
C46	C	-0.293557	-1.604332	-0.932052
C47	C	-0.293578	-1.604398	-1.041775
C48	C	-0.383335	-1.475664	-1.036061
C49	C	-0.383316	-1.475604	-0.926340
C50	C	-0.241734	-1.678652	-0.935353
C51	C	-0.241756	-1.678718	-1.045075
C52	C	-0.338451	-1.540022	-0.210560
C53	C	-0.338464	-1.540062	-0.093782
H54	H	-0.739546	-1.443705	-0.580737
H55	H	-0.419886	-1.423287	-1.078413
C56	C	-0.172653	-1.553997	-1.150840
C57	C	-0.168317	-1.644696	-1.090074
H58	H	-0.127317	-1.533000	-1.178625
H59	H	-0.190678	-1.499426	-1.108355
H60	H	-0.202896	-1.568061	-1.206764
H61	H	-0.138078	-1.630630	-1.034146
H62	H	-0.150283	-1.699279	-1.132562
C63	C	-0.273454	-1.857132	-0.978317
C64	C	-0.261464	-1.789712	-0.893785
H65	H	-0.285638	-1.925691	-0.952652
H66	H	-0.232190	-1.858983	-1.022340
H67	H	-0.310674	-1.832452	-1.017279
H68	H	-0.224239	-1.814388	-0.854827
H69	H	-0.302733	-1.787865	-0.849744
H70	H	-0.606481	-1.435150	-0.589268
H71	H	-0.420057	-1.145261	-0.357646
C72	C	-0.184202	-1.546811	-0.831464
C73	C	-0.171950	-1.634894	-0.893954
H74	H	-0.141119	-1.519792	-0.805913
H75	H	-0.215279	-1.566275	-0.774004
H76	H	-0.204507	-1.494621	-0.872104
H77	H	-0.151650	-1.687087	-0.853311
H78	H	-0.140861	-1.615433	-0.951422
H79	H	-0.189817	-1.119774	-0.609385
C80	C	-0.284817	-1.017887	-0.805553
C81	C	-0.267636	-0.935058	-0.738092
H82	H	-0.300969	-0.990546	-0.868977
H83	H	-0.320615	-1.062089	-0.772937
H84	H	-0.244512	-1.057188	-0.820508
H85	H	-0.307943	-0.895761	-0.723130
H86	H	-0.231835	-0.890839	-0.770715
C87	C	-0.885334	-1.302615	-0.595035
C88	C	-0.927503	-1.372753	-0.651613
H89	H	-0.860434	-1.255402	-0.642215
H90	H	-0.853011	-1.340581	-0.557105
H91	H	-0.913961	-1.264282	-0.547425
H92	H	-0.898875	-1.411092	-0.699217
H93	H	-0.959829	-1.334783	-0.689560
H94	H	-0.938012	-1.636482	-0.388044
H95	H	-1.071046	-1.401109	-0.623258
H96	H	-0.187096	-0.946062	-0.616923
H97	H	-1.071077	-1.645002	-0.379482
H98	H	-0.739589	-1.687600	-0.336972
H99	H	-0.419856	-1.423178	-0.879350
H100	H	-0.606512	-1.679065	-0.345511
H101	H	-0.826324	-1.452648	-0.571803
C102	C	-0.903867	-1.590821	-0.306984
C103	C	-0.861689	-1.647359	-0.377157
H104	H	-0.928762	-1.638028	-0.259792
H105	H	-0.936193	-1.552874	-0.344926
H106	H	-0.875246	-1.543230	-0.268629
H107	H	-0.890310	-1.694946	-0.415518
H108	H	-0.829359	-1.685324	-0.339211
H109	H	-0.261288	-1.757266	-1.077781
H110	H	-0.420061	-0.946199	-0.357660
H111	H	-0.255927	-1.119757	-0.715817
