data_functionalizedCrystal
_audit_creation_method	'MofGen! by Chris Wilmer'
_symmetry_space_group_name_H-M	'P1'
_symmetry_Int_Tables_number	1
_symmetry_cell_setting	triclinic
loop_
_symmetry_equiv_pos_as_xyz
  x,y,z
_cell_length_a	17.640112
_cell_length_b	25.639240
_cell_length_c	17.640968
_cell_angle_alpha	78.760674
_cell_angle_beta	92.139080
_cell_angle_gamma	101.259448
loop_
_atom_site_label
_atom_site_type_symbol
_atom_site_fract_x
_atom_site_fract_y
_atom_site_fract_z
Zn1	Zn	1.247774	-0.015024	-0.195077
Zn2	Zn	1.747774	0.484976	0.304923
Zn3	Zn	1.221971	-0.122901	-0.068072
Zn4	Zn	1.721971	0.377099	0.431928
Zn5	Zn	1.095095	-0.049036	-0.093716
Zn6	Zn	1.595095	0.450964	0.406284
Zn7	Zn	1.120714	-0.116018	-0.220656
Zn8	Zn	1.620714	0.383982	0.279344
O9	O	1.171388	-0.075745	-0.144380
O10	O	1.671388	0.424255	0.355620
O11	O	1.350624	-0.017980	-0.156793
O12	O	1.850624	0.482020	0.343207
O13	O	1.183620	-0.130218	0.034802
O14	O	1.683620	0.369782	0.534802
O15	O	1.115426	0.028655	-0.107189
O16	O	1.615426	0.528655	0.392811
O17	O	1.331666	-0.097237	-0.063483
O18	O	1.831666	0.402763	0.436517
O19	O	1.227598	0.053644	-0.181658
O20	O	1.727598	0.553644	0.318342
O21	O	1.090406	-0.075950	0.015962
O22	O	1.590406	0.424050	0.515962
O23	O	0.992221	-0.069276	-0.131992
O24	O	1.492221	0.430724	0.368008
O25	O	1.159089	-0.085506	-0.323539
O26	O	1.659089	0.414494	0.176461
O27	O	1.011043	-0.118487	-0.225254
O28	O	1.511043	0.381513	0.274746
O29	O	1.252439	-0.011306	-0.304747
O30	O	1.752439	0.488694	0.195253
O31	O	1.208462	-0.195167	-0.088286
O32	O	1.708462	0.304833	0.411714
O33	O	1.134069	-0.190110	-0.200388
O34	O	1.634069	0.309890	0.299612
C35	C	0.974076	-0.096826	-0.184181
C36	C	1.474076	0.403174	0.315819
C37	C	0.889669	-0.105854	-0.201227
C38	C	1.389669	0.394146	0.298773
C39	C	1.171269	-0.211608	-0.144342
C40	C	1.671269	0.288392	0.355658
C41	C	1.171293	-0.269720	-0.144338
C42	C	1.671293	0.230280	0.355662
C43	C	0.563037	-0.007149	-0.014897
C44	C	1.063037	0.492851	0.485103
C45	C	0.483725	-0.015641	-0.030923
C46	C	0.983725	0.484359	0.469077
C47	C	0.503345	-0.067004	-0.127870
C48	C	1.003345	0.432996	0.372130
C49	C	0.582660	-0.058513	-0.111854
C50	C	1.082660	0.441487	0.388146
C51	C	0.612499	-0.028586	-0.055366
C52	C	1.112499	0.471414	0.444634
C53	C	0.632123	-0.079951	-0.152323
C54	C	1.132123	0.420049	0.347677
C55	C	0.711430	-0.071464	-0.136305
C56	C	1.211430	0.428536	0.363695
C57	C	0.741276	-0.041539	-0.079818
C58	C	1.241276	0.458461	0.420182
C59	C	0.691807	-0.020099	-0.039348
C60	C	1.191807	0.479901	0.460652
C61	C	0.602281	-0.109881	-0.208807
C62	C	1.102281	0.390119	0.291193
C63	C	0.651744	-0.131319	-0.249276
C64	C	1.151744	0.368681	0.250724
C65	C	0.731054	-0.122828	-0.233262
C66	C	1.231054	0.377172	0.266738
C67	C	0.760899	-0.092904	-0.176775
C68	C	1.260899	0.407096	0.323225
C69	C	0.780522	-0.144268	-0.273732
C70	C	1.280522	0.355732	0.226268
C71	C	0.859830	-0.135781	-0.257715
C72	C	1.359830	0.364219	0.242285
C73	C	0.840207	-0.084416	-0.160757
C74	C	1.340207	0.415584	0.339243
C75	C	1.229838	-0.616997	-0.183239
C76	C	1.729838	-0.116997	0.316761
C77	C	1.229864	-0.671597	-0.183250
C78	C	1.729864	-0.171597	0.316750
O79	O	1.279501	-0.688731	-0.216290
O80	O	1.779501	-0.188731	0.283710
N81	N	1.171509	-0.711961	-0.144432
N82	N	1.671509	-0.211961	0.355568
C83	C	1.113120	-0.697723	-0.105608
C84	C	1.613120	-0.197723	0.394392
O85	O	1.063486	-0.737069	-0.072592
O86	O	1.563486	-0.237069	0.427408
C87	C	1.113092	-0.643124	-0.105602
C88	C	1.613092	-0.143124	0.394398
C89	C	1.171455	-0.602763	-0.144416
C90	C	1.671455	-0.102763	0.355584
C91	C	1.288196	-0.576637	-0.222051
C92	C	1.788196	-0.076637	0.277949
C93	C	1.288171	-0.522041	-0.222038
C94	C	1.788171	-0.022041	0.277962
C95	C	1.229788	-0.507806	-0.183215
C96	C	1.729788	-0.007806	0.316785
C97	C	1.171430	-0.548167	-0.144403
C98	C	1.671430	-0.048167	0.355597
C99	C	1.054701	-0.628887	-0.066782
C100	C	1.554701	-0.128887	0.433218
C101	C	1.054677	-0.574283	-0.066780
C102	C	1.554677	-0.074283	0.433220
C103	C	1.113041	-0.533922	-0.105594
C104	C	1.613041	-0.033922	0.394406
C105	C	1.113022	-0.479337	-0.105568
C106	C	1.613022	0.020663	0.394432
N107	N	1.171377	-0.438973	-0.144385
N108	N	1.671377	0.061027	0.355615
C109	C	1.229760	-0.453208	-0.183209
C110	C	1.729760	0.046792	0.316791
C111	C	1.113182	-0.812383	-0.105624
C112	C	1.613182	-0.312383	0.394376
C113	C	1.113212	-0.866981	-0.105625
C114	C	1.613212	-0.366981	0.394375
C115	C	1.229956	-0.840851	-0.183269
C116	C	1.729956	-0.340851	0.316731
C117	C	1.229928	-0.786252	-0.183263
C118	C	1.729928	-0.286252	0.316737
C119	C	1.171537	-0.772019	-0.144442
C120	C	1.671537	-0.272019	0.355558
C121	C	1.229704	-0.338554	-0.183180
C122	C	1.729704	0.161446	0.316820
C123	C	1.229676	-0.283955	-0.183161
C124	C	1.729676	0.216045	0.316839
C125	C	1.112930	-0.310089	-0.105521
C126	C	1.612930	0.189911	0.394479
C127	C	1.112960	-0.364684	-0.105536
C128	C	1.612960	0.135316	0.394464
C129	C	1.171351	-0.378914	-0.144371
C130	C	1.671351	0.121086	0.355629
O131	O	1.063408	-0.462162	-0.072547
O132	O	1.563408	0.037838	0.427453
O133	O	1.279380	-0.413856	-0.216228
O134	O	1.779380	0.086144	0.283772
C135	C	1.369471	-0.054582	-0.104424
C136	C	1.869471	0.445418	0.395576
C137	C	1.453882	-0.045564	-0.087397
C138	C	1.953882	0.454436	0.412603
C139	C	1.211500	-0.043844	-0.342470
C140	C	1.711500	0.456156	0.157530
C141	C	1.228593	-0.030250	-0.426884
C142	C	1.728593	0.469750	0.073116
C143	C	1.171532	0.060654	-0.144431
C144	C	1.671532	0.560654	0.355569
C145	C	1.171593	0.118779	-0.144452
C146	C	1.671593	0.618779	0.355548
C147	C	1.041826	-0.178703	-0.753426
C148	C	1.541826	0.321297	-0.253426
C149	C	1.057903	-0.165920	-0.832743
C150	C	1.557903	0.334080	-0.332743
C151	C	1.155101	-0.088662	-0.813165
C152	C	1.655101	0.411338	-0.313165
C153	C	1.139029	-0.101436	-0.733846
C154	C	1.639029	0.398564	-0.233846
C155	C	1.082391	-0.146458	-0.703983
C156	C	1.582391	0.353542	-0.203983
C157	C	1.179594	-0.069191	-0.684403
C158	C	1.679594	0.430809	-0.184403
C159	C	1.163526	-0.081966	-0.605090
C160	C	1.663526	0.418034	-0.105090
C161	C	1.106893	-0.126986	-0.575220
C162	C	1.606893	0.373014	-0.075220
C163	C	1.066323	-0.159232	-0.624670
C164	C	1.566323	0.340768	-0.124670
C165	C	1.236235	-0.024173	-0.714266
C166	C	1.736235	0.475827	-0.214266
C167	C	1.276801	0.008072	-0.664823
C168	C	1.776801	0.508072	-0.164823
C169	C	1.260729	-0.004700	-0.585509
C170	C	1.760729	0.495300	-0.085509
C171	C	1.204096	-0.049720	-0.555640
C172	C	1.704096	0.450280	-0.055640
C173	C	1.301299	0.027546	-0.536059
C174	C	1.801299	0.527546	-0.036059
C175	C	1.285230	0.014771	-0.456747
C176	C	1.785230	0.514771	0.043253
C177	C	1.188027	-0.062495	-0.476327
C178	C	1.688027	0.437505	0.023673
C179	C	1.131477	-0.107479	0.052947
C180	C	1.631477	0.392521	0.552947
C181	C	1.114531	-0.120910	0.137390
C182	C	1.614531	0.379090	0.637390
H183	H	0.864505	-0.060037	-0.114771
H184	H	1.364505	0.439963	0.385229
H185	H	1.065693	-0.899841	-0.074009
H186	H	1.565693	-0.399841	0.425991
Cl187	Cl	1.039773	-0.794497	-0.056809
Cl188	Cl	1.539773	-0.294497	0.443191
H189	H	0.900104	-0.153237	-0.290669
H190	H	1.400104	0.346763	0.209331
Cl191	Cl	1.256438	-0.008114	-0.813975
Cl192	Cl	1.756438	0.491886	-0.313975
Cl193	Cl	1.039596	-0.415426	-0.056729
Cl194	Cl	1.539596	0.084574	0.443271
H195	H	1.277205	-0.251092	-0.214767
H196	H	1.777205	0.248908	0.285233
H197	H	1.065397	-0.298491	-0.073909
H198	H	1.565397	0.201509	0.426091
H199	H	1.141889	-0.099145	-0.452015
H200	H	1.641889	0.400855	0.047985
H201	H	0.716106	0.004281	0.006639
H202	H	1.216106	0.504281	0.506639
Cl203	Cl	1.086695	-0.143050	-0.475511
Cl204	Cl	1.586695	0.356950	0.024489
H205	H	0.443455	0.001823	0.002030
H206	H	0.943455	0.501823	0.502030
H207	H	1.020185	-0.195883	-0.600358
H208	H	1.520185	0.304117	-0.100358
H209	H	1.277493	-0.852450	-0.214883
H210	H	1.777493	-0.352450	0.285117
Cl211	Cl	0.502577	-0.120559	-0.228934
Cl212	Cl	1.002577	0.379441	0.271066
Cl213	Cl	1.336230	0.055307	-0.394585
Cl214	Cl	1.836230	0.555307	0.105415
Cl215	Cl	1.372505	0.084137	-0.573610
Cl216	Cl	1.872505	0.584137	-0.073610
Cl217	Cl	0.600556	0.030479	0.056113
Cl218	Cl	1.100556	0.530479	0.556113
Cl219	Cl	0.970616	-0.235298	-0.715880
Cl220	Cl	1.470616	0.264702	-0.215880
H221	H	0.805853	-0.034631	-0.066776
H222	H	1.305853	0.465369	0.433224
H223	H	1.024866	-0.192182	-0.872998
H224	H	1.524866	0.307818	-0.372998
H225	H	1.277247	-0.350132	-0.214809
H226	H	1.777247	0.149868	0.285191
Cl227	Cl	0.981322	-0.679615	-0.017988
Cl228	Cl	1.481322	-0.179615	0.482012
H229	H	0.479038	-0.091372	-0.173860
H230	H	0.979038	0.408628	0.326140
H231	H	1.335694	-0.489181	-0.253646
H232	H	1.835694	0.010819	0.246354
H233	H	1.335740	-0.588219	-0.253670
H234	H	1.835740	-0.088219	0.246330
Cl235	Cl	0.614222	-0.168948	-0.320278
Cl236	Cl	1.114222	0.331052	0.179722
Cl237	Cl	1.303300	-0.735517	-0.232061
Cl238	Cl	1.803300	-0.235517	0.267939
Cl239	Cl	1.226302	-0.032067	-0.850715
Cl240	Cl	1.726302	0.467933	-0.350715
H241	H	1.007126	-0.562699	-0.035169
H242	H	1.507126	-0.062699	0.464831
H243	H	1.322917	0.044727	-0.689148
H244	H	1.822917	0.544727	-0.189148
Cl245	Cl	0.742997	-0.181902	-0.344728
Cl246	Cl	1.242997	0.318098	0.155272
