data_functionalizedCrystal
_audit_creation_method	'MofGen! by Chris Wilmer'
_symmetry_space_group_name_H-M	'P1'
_symmetry_Int_Tables_number	1
_symmetry_cell_setting	triclinic
loop_
_symmetry_equiv_pos_as_xyz
  x,y,z
_cell_length_a	17.077404
_cell_length_b	10.686203
_cell_length_c	17.077404
_cell_angle_alpha	85.629454
_cell_angle_beta	90.008318
_cell_angle_gamma	94.365430
loop_
_atom_site_label
_atom_site_type_symbol
_atom_site_fract_x
_atom_site_fract_y
_atom_site_fract_z
Zn1	Zn	1.224027	0.502546	0.419941
Zn2	Zn	1.724027	1.002546	0.919941
Zn3	Zn	1.234059	0.713496	0.278642
Zn4	Zn	1.734059	1.213496	0.778642
Zn5	Zn	1.092784	0.502525	0.288690
Zn6	Zn	1.592784	1.002525	0.788690
Zn7	Zn	1.102826	0.713486	0.409866
Zn8	Zn	1.602826	1.213486	0.909866
O9	O	1.163424	0.608013	0.349285
O10	O	1.663424	1.108013	0.849285
O11	O	1.335205	0.530541	0.401209
O12	O	1.835205	1.030541	0.901209
O13	O	1.215314	0.685506	0.170128
O14	O	1.715314	1.185506	0.670128
O15	O	1.101792	0.325957	0.314522
O16	O	1.601792	0.825957	0.814522
O17	O	1.342576	0.685526	0.297397
O18	O	1.842576	1.185526	0.797397
O19	O	1.198216	0.325972	0.410952
O20	O	1.698216	0.825972	0.910952
O21	O	1.111520	0.530507	0.177511
O22	O	1.611520	1.030507	0.677511
O23	O	0.984268	0.530497	0.304753
O24	O	1.484268	1.030497	0.804753
O25	O	1.118907	0.685508	0.521049
O26	O	1.618907	1.185508	1.021049
O27	O	0.991646	0.685489	0.393781
O28	O	1.491646	1.185489	0.893781
O29	O	1.207954	0.530531	0.528451
O30	O	1.707954	1.030531	1.028451
O31	O	1.225052	0.890066	0.287628
O32	O	1.725052	1.390066	0.787628
O33	O	1.128635	0.890058	0.384038
O34	O	1.628635	1.390058	0.884038
C35	C	0.959475	0.607990	0.349264
C36	C	1.459475	1.107990	0.849264
C37	C	0.872226	0.608011	0.349273
C38	C	1.372226	1.108011	0.849273
C39	C	0.835104	0.688837	0.395543
C40	C	1.335104	1.188837	0.895543
C41	C	0.753124	0.688840	0.395556
C42	C	1.253124	1.188840	0.895556
C43	C	0.708267	0.608022	0.349293
C44	C	1.208267	1.108022	0.849293
C45	C	0.745395	0.527187	0.303021
C46	C	1.245395	1.027187	0.803021
C47	C	0.827373	0.527179	0.303013
C48	C	1.327373	1.027179	0.803013
C49	C	0.574526	0.527212	0.303038
C50	C	1.074526	1.027212	0.803038
C51	C	0.492542	0.527221	0.303045
C52	C	0.992542	1.027221	0.803045
C53	C	0.500276	0.688873	0.395581
C54	C	1.000276	1.188873	0.895581
C55	C	0.582255	0.688864	0.395573
C56	C	1.082255	1.188864	0.895573
C57	C	0.619377	0.608031	0.349300
C58	C	1.119377	1.108031	0.849300
C59	C	1.179043	0.935845	0.333666
C60	C	1.679043	1.435845	0.833666
C61	C	1.185797	1.076093	0.327011
C62	C	1.685797	1.576093	0.827011
C63	C	1.368169	0.608037	0.349306
C64	C	1.868169	1.108037	0.849306
C65	C	1.455419	0.608047	0.349315
C66	C	1.955419	1.108047	0.849315
C67	C	1.147758	1.278901	0.364990
C68	C	1.647758	1.778901	0.864990
C69	C	1.141062	1.138653	0.371704
C70	C	1.641062	1.638653	0.871704
C71	C	1.163432	0.608021	0.554029
C72	C	1.663432	1.108021	1.054029
C73	C	1.163435	0.608024	0.641278
C74	C	1.663435	1.108024	1.141278
C75	C	1.209796	0.527341	0.686123
C76	C	1.709796	1.027341	1.186123
C77	C	1.209789	0.527340	0.768104
C78	C	1.709789	1.027340	1.268104
C79	C	1.163425	0.608028	0.805238
C80	C	1.663425	1.108028	1.305238
C81	C	1.117059	0.688715	0.760387
C82	C	1.617059	1.188715	1.260387
C83	C	1.117062	0.688709	0.678408
C84	C	1.617062	1.188709	1.178408
C85	C	1.117058	0.688723	0.931256
C86	C	1.617058	1.188723	1.431256
C87	C	1.117056	0.688731	1.013241
C88	C	1.617056	1.188731	1.513241
C89	C	1.209785	0.527353	1.020952
C90	C	1.709785	1.027353	1.520952
C91	C	1.209788	0.527348	0.938974
C92	C	1.709788	1.027348	1.438974
C93	C	1.163423	0.608036	0.894128
C94	C	1.663423	1.108036	1.394128
C95	C	1.163414	0.608038	1.145336
C96	C	1.663414	1.108038	1.645336
C97	C	1.163417	0.608048	1.058086
C98	C	1.663417	1.108048	1.558086
H99	H	0.871621	0.754652	0.433213
H100	H	1.371621	1.254652	0.933213
C101	C	1.244515	1.148688	0.268429
C102	C	1.744515	1.648688	0.768429
N103	N	1.288741	1.203367	0.224305
N104	N	1.788741	1.703367	0.724305
H105	H	1.247553	0.461639	0.655895
H106	H	1.747553	0.961639	1.155895
H107	H	0.722903	0.754657	0.433233
H108	H	1.222903	1.254657	0.933233
C109	C	1.066050	0.777461	0.801237
C110	C	1.566050	1.277461	1.301237
N111	N	1.027629	0.844306	0.832005
N112	N	1.527629	1.344306	1.332005
C113	C	1.082345	1.066064	0.430281
C114	C	1.582345	1.566064	0.930281
N115	N	1.038120	1.011381	0.474404
N116	N	1.538120	1.511381	0.974404
H117	H	0.708866	0.461378	0.265356
H118	H	1.208866	0.961378	0.765356
H119	H	0.604747	0.461377	0.265365
H120	H	1.104747	0.961377	0.765365
C121	C	1.066063	0.777469	0.629079
C122	C	1.566063	1.277469	1.129079
N123	N	1.027647	0.844323	0.591925
N124	N	1.527647	1.344323	1.091925
H125	H	1.247543	0.461642	0.804613
H126	H	1.747543	0.961642	1.304613
H127	H	1.247546	0.461651	0.908741
H128	H	1.747546	0.961651	1.408741
H129	H	1.247536	0.461652	1.057469
H130	H	1.747536	0.961652	1.557469
C131	C	0.459440	0.777784	0.446486
C132	C	0.959440	1.277784	0.946486
N133	N	0.428679	0.844752	0.484826
N134	N	0.928679	1.344752	0.984826
H135	H	0.618775	0.754680	0.433240
H136	H	1.118775	1.254680	0.933240
H137	H	0.857596	0.461355	0.265339
H138	H	1.357596	0.961355	0.765339
H139	H	0.456021	0.461397	0.265384
H140	H	0.956021	0.961397	0.765384
H141	H	1.079301	0.754432	1.043473
H142	H	1.579301	1.254432	1.543473
H143	H	1.079289	0.754408	0.894746
H144	H	1.579289	1.254408	1.394746
