data_functionalizedCrystal
_audit_creation_method	'MofGen! by Chris Wilmer'
_symmetry_space_group_name_H-M	'P1'
_symmetry_Int_Tables_number	1
_symmetry_cell_setting	triclinic
loop_
_symmetry_equiv_pos_as_xyz
  x,y,z
_cell_length_a	16.956995
_cell_length_b	23.532357
_cell_length_c	16.053802
_cell_angle_alpha	92.543277
_cell_angle_beta	87.607939
_cell_angle_gamma	79.441381
loop_
_atom_site_label
_atom_site_type_symbol
_atom_site_fract_x
_atom_site_fract_y
_atom_site_fract_z
O1	O	1.061232	0.021053	-0.069490
O2	O	1.561232	0.521053	0.430510
O3	O	0.828911	0.041055	-0.069482
O4	O	1.328911	0.541055	0.430518
O5	O	0.952097	-0.052181	-0.069469
O6	O	1.452097	0.447819	0.430531
O7	O	0.938046	0.114290	-0.069503
O8	O	1.438046	0.614290	0.430497
O9	O	0.945317	-0.047069	0.069389
O10	O	1.445317	0.452931	0.569389
O11	O	0.822131	0.046167	0.069377
O12	O	1.322131	0.546167	0.569377
O13	O	1.054452	0.026165	0.069368
O14	O	1.554452	0.526165	0.569368
Zn15	Zn	0.937214	0.036978	0.091419
Zn16	Zn	1.437214	0.536978	0.591419
Zn17	Zn	0.946148	0.030242	-0.091532
Zn18	Zn	1.446148	0.530242	0.408468
O19	O	0.931265	0.119402	0.069356
O20	O	1.431265	0.619402	0.569356
C21	C	0.795804	0.044635	-0.000051
C22	C	1.295804	0.544635	0.499949
C23	C	0.707259	0.047680	-0.000047
C24	C	1.207259	0.547680	0.499953
C25	C	0.207774	0.070456	-0.000083
C26	C	0.707774	0.570456	0.499917
C27	C	0.290973	0.067591	-0.000082
C28	C	0.790973	0.567591	0.499918
C29	C	0.342499	0.013810	-0.000065
C30	C	0.842499	0.513810	0.499935
C31	C	0.310825	-0.037110	-0.000057
C32	C	0.810825	0.462890	0.499943
C33	C	0.227628	-0.034244	-0.000064
C34	C	0.727628	0.465756	0.499936
C35	C	0.592387	-0.000374	-0.000047
C36	C	1.092387	0.499626	0.499953
C37	C	0.675589	-0.003236	-0.000037
C38	C	1.175589	0.496764	0.499963
C39	C	0.655731	0.101465	-0.000064
C40	C	1.155731	0.601465	0.499936
C41	C	0.572533	0.104326	-0.000066
C42	C	1.072533	0.604326	0.499934
C43	C	0.540866	0.053407	-0.000063
C44	C	1.040866	0.553407	0.499937
N45	N	0.427542	0.010880	-0.000061
N46	N	0.927542	0.510880	0.499939
N47	N	0.455825	0.056337	-0.000073
N48	N	0.955825	0.556337	0.499927
C49	C	0.948355	-0.070827	-0.000037
C50	C	1.448355	0.429173	0.499963
C51	C	0.947298	-0.133999	-0.000029
C52	C	1.447298	0.366001	0.499971
C53	C	0.944362	-0.528514	-0.075766
C54	C	1.444362	-0.028514	0.424234
C55	C	0.943357	-0.587870	-0.075770
C56	C	1.443357	-0.087870	0.424230
O57	O	0.945954	-0.620933	-0.140143
O58	O	1.445954	-0.120933	0.359857
N59	N	0.939163	-0.614773	-0.000080
N60	N	1.439163	-0.114773	0.499920
C61	C	0.935965	-0.582315	0.075621
C62	C	1.435965	-0.082315	0.575621
O63	O	0.932305	-0.610649	0.140001
O64	O	1.432305	-0.110649	0.640001
C65	C	0.936964	-0.522959	0.075624
C66	C	1.436964	-0.022959	0.575624
C67	C	0.941166	-0.496061	-0.000071
C68	C	1.441166	0.003939	0.499929
C69	C	0.948563	-0.501614	-0.151455
C70	C	1.448563	-0.001614	0.348545
C71	C	0.949569	-0.442262	-0.151450
C72	C	1.449569	0.057738	0.348550
C73	C	0.946373	-0.409809	-0.075756
C74	C	1.446373	0.090191	0.424244
C75	C	0.942172	-0.436709	-0.000066
C76	C	1.442172	0.063291	0.499934
C77	C	0.933760	-0.490502	0.151324
C78	C	1.433760	0.009498	0.651324
C79	C	0.934758	-0.431142	0.151321
C80	C	1.434758	0.068858	0.651321
C81	C	0.938961	-0.404243	0.075626
C82	C	1.438961	0.095757	0.575626
C83	C	0.939982	-0.344904	0.075633
C84	C	1.439982	0.155096	0.575633
N85	N	0.944176	-0.318000	-0.000057
N86	N	1.444176	0.182000	0.499943
C87	C	0.947372	-0.350453	-0.075752
C88	C	1.447372	0.149547	0.424248
C89	C	0.933867	-0.706967	0.075607
C90	C	1.433867	-0.206967	0.575607
C91	C	0.932874	-0.766323	0.075604
C92	C	1.432874	-0.266323	0.575604
C93	C	0.940264	-0.771873	-0.075788
C94	C	1.440264	-0.271873	0.424212
C95	C	0.941263	-0.712517	-0.075784
C96	C	1.441263	-0.212517	0.424216
C97	C	0.938061	-0.680064	-0.000084
C98	C	1.438061	-0.180064	0.499916
C99	C	0.949484	-0.225809	-0.075735
C100	C	1.449484	0.274191	0.424265
C101	C	0.950493	-0.166452	-0.075724
C102	C	1.450493	0.333548	0.424276
C103	C	0.943098	-0.160907	0.075667
C104	C	1.443098	0.339093	0.575667
C105	C	0.942094	-0.220259	0.075656
C106	C	1.442094	0.279741	0.575656
C107	C	0.945284	-0.252709	-0.000052
C108	C	1.445284	0.247291	0.499948
O109	O	0.937385	-0.311804	0.139973
O110	O	1.437385	0.188196	0.639973
O111	O	0.951021	-0.322111	-0.140121
O112	O	1.451021	0.177889	0.359879
C113	C	1.087558	0.022585	-0.000064
C114	C	1.587558	0.522585	0.499936
C115	C	1.176104	0.019540	-0.000073
C116	C	1.676104	0.519540	0.499927
C117	C	0.935007	0.138047	-0.000078
C118	C	1.435007	0.638047	0.499922
C119	C	0.936065	0.201220	-0.000091
C120	C	1.436065	0.701220	0.499909
N121	N	0.931124	0.041574	0.216279
N122	N	1.431124	0.541574	0.716279
N123	N	0.952245	0.025641	-0.216392
N124	N	1.452245	0.525641	0.283608
C125	C	0.983558	0.001914	0.259978
C126	C	1.483558	0.501914	0.759978
C127	C	0.979305	0.005134	0.347385
C128	C	1.479305	0.505134	0.847385
C129	C	0.922620	0.048017	0.391090
C130	C	1.422620	0.548017	0.891090
C131	C	0.870180	0.087679	0.347384
C132	C	1.370180	0.587679	0.847384
C133	C	0.874430	0.084456	0.259980
C134	C	1.374430	0.584456	0.759980
C135	C	0.904055	0.062080	0.652498
C136	C	1.404055	0.562080	1.152498
C137	C	0.899810	0.065301	0.739909
C138	C	1.399810	0.565301	1.239909
C139	C	1.008935	-0.017244	0.739903
C140	C	1.508935	0.482756	1.239903
C141	C	1.013183	-0.020462	0.652496
C142	C	1.513183	0.479538	1.152496
C143	C	0.960740	0.019198	0.608798
C144	C	1.460740	0.519198	1.108798
N145	N	0.918273	0.051311	0.480433
N146	N	1.418273	0.551311	0.980433
N147	N	0.965084	0.015902	0.519457
N148	N	1.465084	0.515902	1.019457
H149	H	0.316754	0.109051	-0.000098
H150	H	0.816754	0.609051	0.499902
F151	F	0.517700	0.161567	-0.000089
F152	F	1.017700	0.661567	0.499911
H153	H	0.824022	0.122594	0.382974
H154	H	1.324022	0.622594	0.882974
F155	F	0.931349	-0.396606	0.231894
F156	F	1.431349	0.103394	0.731894
F157	F	1.035111	-0.037077	0.393893
F158	F	1.535111	0.462923	0.893893
H159	H	0.201844	-0.075705	-0.000058
H160	H	0.701844	0.424295	0.499942
H161	H	0.831731	0.116750	0.224400
H162	H	1.331731	0.616750	0.724400
H163	H	0.681524	0.142921	-0.000067
H164	H	1.181524	0.642921	0.499933
F165	F	1.064743	-0.059452	0.786414
F166	F	1.564743	0.440548	1.286414
F167	F	0.928415	-0.794946	0.156169
F168	F	1.428415	-0.294946	0.656169
H169	H	0.717542	-0.047033	-0.000027
H170	H	1.217542	0.452967	0.499973
H171	H	0.953917	-0.144555	-0.137367
H172	H	1.453917	0.355445	0.362633
H173	H	0.952079	-0.252223	-0.137384
H174	H	1.452079	0.247777	0.362616
F175	F	0.951964	-0.536145	-0.232027
F176	F	1.451964	-0.036145	0.267973
H177	H	0.165825	0.114250	-0.000091
H178	H	0.665825	0.614250	0.499909
F179	F	0.945734	-0.683895	-0.156348
F180	F	1.445734	-0.183895	0.343652
H181	H	0.566614	-0.041836	-0.000042
H182	H	1.066614	0.458164	0.499958
F183	F	0.839476	0.110947	0.786418
F184	F	1.339476	0.610947	1.286418
H185	H	0.861355	0.094374	0.616926
H186	H	1.361355	0.594374	1.116926
F187	F	0.937636	-0.248890	0.156219
F188	F	1.437636	0.251110	0.656219
F189	F	0.954036	-0.413641	-0.232016
F190	F	1.454036	0.086359	0.267984
F191	F	0.365666	-0.094348	-0.000042
F192	F	0.865666	0.405652	0.499958
H193	H	1.059341	-0.055380	0.616913
H194	H	1.559341	0.444620	1.116913
H195	H	0.942864	-0.798307	-0.137422
H196	H	1.442864	-0.298307	0.362578
H197	H	1.029720	-0.033003	0.224399
H198	H	1.529720	0.466997	0.724399
F199	F	0.930464	-0.672434	0.156182
F200	F	1.430464	-0.172434	0.656182
H201	H	0.940500	-0.134474	0.137296
H202	H	1.440500	0.365526	0.637296
H203	H	0.930339	-0.512393	0.212963
H204	H	1.430339	-0.012393	0.712963
