data_functionalizedCrystal
_audit_creation_method	'MofGen! by Chris Wilmer'
_symmetry_space_group_name_H-M	'P1'
_symmetry_Int_Tables_number	1
_symmetry_cell_setting	triclinic
loop_
_symmetry_equiv_pos_as_xyz
  x,y,z
_cell_length_a	14.971487
_cell_length_b	10.654550
_cell_length_c	14.048226
_cell_angle_alpha	89.994756
_cell_angle_beta	90.000286
_cell_angle_gamma	95.950347
loop_
_atom_site_label
_atom_site_type_symbol
_atom_site_fract_x
_atom_site_fract_y
_atom_site_fract_z
O1	O	-1.187837	0.163663	-0.079022
O2	O	-0.927544	0.183261	-0.079053
O3	O	-1.063675	-0.009342	-0.079033
O4	O	-1.051706	0.356265	-0.079042
O5	O	-1.063659	-0.009353	0.079288
O6	O	-0.927527	0.183249	0.079268
O7	O	-1.187821	0.163652	0.079300
Zn8	Zn	-1.057671	0.173449	0.104421
Zn9	Zn	-1.057693	0.173464	-0.104174
O10	O	-1.051689	0.356254	0.079280
C11	C	-0.894206	0.182378	0.000103
C12	C	-0.794895	0.179751	0.000091
C13	C	-0.738285	0.292900	0.000089
C14	C	-0.644972	0.290424	0.000101
C15	C	-0.608271	0.174799	0.000109
C16	C	-0.664888	0.061641	0.000114
C17	C	-0.758199	0.064118	0.000109
C18	C	-0.470397	0.056486	0.000123
C19	C	-0.377080	0.054009	0.000127
C20	C	-0.357171	0.282792	0.000115
C21	C	-0.450482	0.285269	0.000110
C22	C	-0.507092	0.172111	0.000113
C23	C	-1.062788	-0.056136	0.000126
C24	C	-1.060159	-0.195551	0.000123
C25	C	-1.140311	-0.275896	0.000135
C26	C	-1.137835	-0.406891	0.000128
C27	C	-0.975048	-0.377181	0.000100
C28	C	-0.977525	-0.246190	0.000100
C29	C	-1.222945	-0.225258	0.000157
C30	C	-1.303103	-0.305604	0.000171
C31	C	-1.300627	-0.436598	0.000164
C32	C	-1.217993	-0.487246	0.000144
C33	C	-0.221158	0.164533	0.000135
C34	C	-0.320470	0.167157	0.000124
C35	C	-1.052576	0.403048	0.000118
C36	C	-1.055206	0.542463	0.000115
N37	N	-1.057663	0.173438	0.246781
N38	N	-1.057709	0.173465	-0.246535
C39	C	-1.117961	0.088189	0.296608
C40	C	-1.117967	0.088188	0.396266
C41	C	-1.057679	0.173443	0.446095
C42	C	-0.997374	0.258696	0.396261
C43	C	-0.997364	0.258690	0.296605
C44	C	-0.997400	0.258705	0.603975
C45	C	-0.997410	0.258714	0.703638
C46	C	-1.118003	0.088203	0.703636
C47	C	-1.117993	0.088197	0.603980
C48	C	-1.057689	0.173452	0.554153
H49	H	-0.598884	0.382562	0.000098
H50	H	-0.347201	-0.040144	0.000134
O51	O	-1.225611	-0.083971	0.000169
H52	H	-1.261406	-0.055825	-0.064353
H53	H	-0.948291	0.328125	0.563409
H54	H	-0.516488	-0.035659	0.000127
H55	H	-0.480361	0.379422	0.000094
O56	O	-1.183013	-0.003757	0.550230
H57	H	-1.224941	-0.063050	0.601618
H58	H	-1.215983	-0.593912	0.000128
H59	H	-1.365896	-0.502014	0.000166
O60	O	-0.296115	0.404842	0.000125
H61	H	-0.309237	0.460168	-0.064413
O62	O	-0.885924	-0.431800	0.000096
H63	H	-0.897668	-0.536385	0.000111
O64	O	-0.625305	-0.063071	0.000132
H65	H	-0.647992	-0.117453	-0.064390
H66	H	-0.912258	-0.180770	0.000091
O67	O	-1.182984	-0.003771	0.242865
H68	H	-1.224906	-0.063059	0.294260
H69	H	-1.167066	0.018771	0.436835
H70	H	-0.948262	0.328107	0.256037
O71	O	-1.183052	-0.003739	0.757377
H72	H	-1.224985	-0.063006	0.705985
H73	H	-0.804290	-0.028019	0.000110
O74	O	-0.777862	0.417617	0.000080
H75	H	-0.852258	0.400336	0.000067
H76	H	-0.948316	0.328136	0.744204
O77	O	-0.932352	0.350664	0.449998
H78	H	-0.888562	0.297711	0.495424
H79	H	-1.370381	-0.264358	0.000164
