data_functionalizedCrystal
_audit_creation_method	'MofGen! by Chris Wilmer'
_symmetry_space_group_name_H-M	'P1'
_symmetry_Int_Tables_number	1
_symmetry_cell_setting	triclinic
loop_
_symmetry_equiv_pos_as_xyz
  x,y,z
_cell_length_a	15.297475
_cell_length_b	19.805405
_cell_length_c	19.805399
_cell_angle_alpha	90.030709
_cell_angle_beta	80.319184
_cell_angle_gamma	99.671656
loop_
_atom_site_label
_atom_site_type_symbol
_atom_site_fract_x
_atom_site_fract_y
_atom_site_fract_z
Zn1	Zn	1.379140	0.448812	-0.561439
Zn2	Zn	1.879140	0.948812	-0.061439
Zn3	Zn	1.379034	0.561989	-0.448234
Zn4	Zn	1.879034	1.061989	0.051766
Zn5	Zn	1.228286	0.429216	-0.428714
Zn6	Zn	1.728286	0.929216	0.071286
Zn7	Zn	1.228231	0.542340	-0.541838
Zn8	Zn	1.728231	1.042340	-0.041838
O9	O	1.303673	0.495589	-0.495056
O10	O	1.803673	0.995589	0.004944
O11	O	1.505371	0.480249	-0.562795
O12	O	2.005371	0.980249	-0.062795
O13	O	1.359016	0.544399	-0.350925
O14	O	1.859016	1.044399	0.149075
O15	O	1.248365	0.337108	-0.446355
O16	O	1.748365	0.837108	0.053645
O17	O	1.505292	0.563400	-0.479623
O18	O	2.005292	1.063400	0.020377
O19	O	1.359197	0.351504	-0.543867
O20	O	1.859197	0.851504	-0.043867
O21	O	1.248262	0.446851	-0.336584
O22	O	1.748262	0.946851	0.163416
O23	O	1.102034	0.427798	-0.427348
O24	O	1.602034	0.927798	0.072652
O25	O	1.248270	0.529911	-0.639157
O26	O	1.748270	1.029911	-0.139157
O27	O	1.101994	0.510910	-0.510459
O28	O	1.601994	1.010910	-0.010459
O29	O	1.359143	0.461196	-0.653558
O30	O	1.859143	0.961196	-0.153558
O31	O	1.358962	0.654090	-0.460616
O32	O	1.858962	1.154090	0.039384
O33	O	1.248167	0.639654	-0.529386
O34	O	1.748167	1.139654	-0.029386
C35	C	1.069280	0.465096	-0.464659
C36	C	1.569280	0.965096	0.035341
C37	C	0.969006	0.452067	-0.451670
C38	C	1.469006	0.952067	0.048330
C39	C	1.303571	0.671432	-0.495010
C40	C	1.803571	1.171432	0.004990
C41	C	1.303610	0.746669	-0.495024
C42	C	1.803610	1.246669	0.004976
C43	C	1.303799	0.319063	-0.495120
C44	C	1.803799	0.819063	0.004880
C45	C	1.303853	0.243838	-0.495148
C46	C	1.803853	0.743838	0.004852
C47	C	0.686365	0.588713	-0.587887
C48	C	1.186365	1.088713	-0.087887
C49	C	0.780577	0.600959	-0.600088
C50	C	1.280577	1.100959	-0.100088
C51	C	0.827689	0.563737	-0.562985
C52	C	1.327689	1.063737	-0.062985
C53	C	0.780579	0.514267	-0.513678
C54	C	1.280579	1.014267	-0.013678
C55	C	0.686357	0.502023	-0.501472
C56	C	1.186357	1.002023	-0.001472
C57	C	0.827682	0.477047	-0.476570
C58	C	1.327682	0.977047	0.023430
C59	C	0.780572	0.427577	-0.427263
C60	C	1.280572	0.927577	0.072737
C61	C	0.686359	0.415336	-0.415060
C62	C	1.186359	0.915336	0.084940
C63	C	0.639247	0.452558	-0.452163
C64	C	1.139247	0.952558	0.047837
C65	C	0.921903	0.489291	-0.488776
C66	C	1.421903	0.989291	0.011224
C67	C	0.921896	0.402602	-0.402361
C68	C	1.421896	0.902602	0.097639
C69	C	0.827684	0.390355	-0.390160
C70	C	1.327684	0.890355	0.109840
C71	C	1.538981	0.526202	-0.525573
C72	C	2.038981	1.026202	-0.025573
C73	C	1.639255	0.539247	-0.538577
C74	C	2.139255	1.039247	-0.038577
C75	C	1.303712	0.495547	-0.671604
C76	C	1.803712	0.995547	-0.171604
C77	C	1.303729	0.495529	-0.746838
C78	C	1.803729	0.995529	-0.246838
C79	C	1.361357	0.789515	-0.459268
C80	C	1.861357	1.289515	0.040732
C81	C	1.361395	0.860208	-0.459288
C82	C	1.861395	1.360208	0.040712
C83	C	1.303682	0.888054	-0.495060
C84	C	1.803682	1.388054	0.004940
C85	C	1.245933	0.845203	-0.530821
C86	C	1.745933	1.345203	-0.030821
C87	C	1.245899	0.774511	-0.530804
C88	C	1.745899	1.274511	-0.030804
C89	C	1.246066	1.130293	-0.530888
C90	C	1.746066	1.630293	-0.030888
C91	C	1.246101	1.200990	-0.530900
C92	C	1.746101	1.700990	-0.030900
C93	C	1.361561	1.215990	-0.459372
C94	C	1.861561	1.715990	0.040628
C95	C	1.361528	1.145299	-0.459355
C96	C	1.861528	1.645299	0.040645
C97	C	1.303783	1.102454	-0.495118
C98	C	1.803783	1.602454	0.004882
C99	C	1.303743	1.025801	-0.495098
C100	C	1.803743	1.525801	0.004902
C101	C	1.303716	0.964705	-0.495078
C102	C	1.803716	1.464705	0.004922
C103	C	1.246076	0.444734	-0.774717
C104	C	1.746076	0.944734	-0.274717
C105	C	1.246089	0.444723	-0.845407
C106	C	1.746089	0.944723	-0.345407
C107	C	1.303759	0.495504	-0.888218
C108	C	1.803759	0.995504	-0.388218
C109	C	1.361415	0.546304	-0.860335
C110	C	1.861415	1.046304	-0.360335
C111	C	1.361397	0.546318	-0.789645
C112	C	1.861397	1.046318	-0.289645
C113	C	1.361486	0.546250	-1.145418
C114	C	1.861486	1.046250	-0.645418
C115	C	1.361501	0.546231	-1.216112
C116	C	1.861501	1.046231	-0.716112
C117	C	1.246178	0.444655	-1.201179
C118	C	1.746178	0.944655	-0.701179
C119	C	1.246160	0.444669	-1.130490
C120	C	1.746160	0.944669	-0.630490
C121	C	1.303812	0.495471	-1.102612
C122	C	1.803812	0.995471	-0.602612
C123	C	1.303797	0.495483	-1.025962
C124	C	1.803797	0.995483	-0.525962
C125	C	1.303780	0.495489	-0.964868
C126	C	1.803780	0.995489	-0.464868
C127	C	1.303685	0.495589	-0.319202
C128	C	1.803685	0.995589	0.180798
C129	C	1.303843	0.495439	-0.243991
C130	C	1.803843	0.995439	0.256009
H131	H	0.960251	0.529570	-0.528922
H132	H	1.460251	1.029570	-0.028922
H133	H	1.408466	0.587586	-1.250968
H134	H	1.908466	1.087586	-0.750968
C135	C	1.182613	1.231618	-0.570259
C136	C	1.682613	1.731618	-0.070259
N137	N	1.134797	1.254688	-0.599902
N138	N	1.634797	1.754688	-0.099902
H139	H	1.199046	1.095414	-0.560006
H140	H	1.699046	1.595414	-0.060006
C141	C	1.182374	0.727381	-0.570139
C142	C	1.682374	1.227381	-0.070139
N143	N	1.134527	0.691883	-0.599770
N144	N	1.634527	1.191883	-0.099770
C145	C	0.931326	0.577221	-0.576397
C146	C	1.431326	1.077221	-0.076397
N147	N	1.009389	0.587383	-0.586498
N148	N	1.509389	1.087383	-0.086498
C149	C	0.634536	0.629653	-0.628691
C150	C	1.134536	1.129653	-0.128691
N151	N	0.595497	0.660492	-0.659428
N152	N	1.095497	1.160492	-0.159428
C153	C	0.832391	0.655376	-0.654322
C154	C	1.332391	1.155376	-0.154322
N155	N	0.871418	0.696366	-0.695174
N156	N	1.371418	1.196366	-0.195174
H157	H	1.408351	0.587676	-0.766949
H158	H	1.908351	1.087676	-0.266949
H159	H	1.408521	1.122629	-0.430223
H160	H	1.908521	1.622629	0.069777
H161	H	1.198945	0.867881	-0.559951
H162	H	1.698945	1.367881	-0.059951
C163	C	1.182752	0.388776	-1.231849
C164	C	1.682752	0.888776	-0.731849
N165	N	1.134983	0.346688	-1.254949
N166	N	1.634983	0.846688	-0.754949
H167	H	0.562532	0.442588	-0.442232
H168	H	1.062532	0.942588	0.057768
H169	H	1.408418	0.895091	-0.430171
H170	H	1.908418	1.395091	0.069829
H171	H	0.648005	0.375061	-0.374904
H172	H	1.148005	0.875061	0.125096
C173	C	1.182717	0.388806	-1.083401
C174	C	1.682717	0.888806	-0.583401
N175	N	1.134927	0.346731	-1.047934
N176	N	1.634927	0.846731	-0.547934
C177	C	0.775850	0.335942	-0.335921
C178	C	1.275850	0.835942	0.164079
N179	N	0.736809	0.294958	-0.295068
N180	N	1.236809	0.794958	0.204932
C181	C	1.182633	0.388870	-0.727630
C182	C	1.682633	0.888870	-0.227630
N183	N	1.134842	0.346793	-0.692166
N184	N	1.634842	0.846793	-0.192166
H185	H	1.408420	0.587622	-1.122728
H186	H	1.908420	1.087622	-0.622728
C187	C	1.424648	0.602291	-0.907403
C188	C	1.924648	1.102291	-0.407403
N189	N	1.472205	0.644505	-0.942845
N190	N	1.972205	1.144505	-0.442845
H191	H	0.960254	0.372293	-0.372148
H192	H	1.460254	0.872293	0.127852
C193	C	1.424846	0.758892	-0.419913
C194	C	1.924846	1.258892	0.080087
N195	N	1.472669	0.735829	-0.390271
N196	N	1.972669	1.235829	0.109729
C197	C	1.425088	1.263126	-0.420035
C198	C	1.925088	1.763126	0.079965
N199	N	1.472932	1.298627	-0.390405
N200	N	1.972932	1.798627	0.109595
C201	C	1.182675	0.388839	-0.876070
C202	C	1.682675	0.888839	-0.376070
N203	N	1.134912	0.346742	-0.899166
N204	N	1.634912	0.846742	-0.399166
