data_functionalizedCrystal
_audit_creation_method	'MofGen! by Chris Wilmer'
_symmetry_space_group_name_H-M	'P1'
_symmetry_Int_Tables_number	1
_symmetry_cell_setting	triclinic
loop_
_symmetry_equiv_pos_as_xyz
  x,y,z
_cell_length_a	12.645331
_cell_length_b	12.645330
_cell_length_c	18.215399
_cell_angle_alpha	89.976970
_cell_angle_beta	89.984786
_cell_angle_gamma	90.018103
loop_
_atom_site_label
_atom_site_type_symbol
_atom_site_fract_x
_atom_site_fract_y
_atom_site_fract_z
Zn1	Zn	1.620702	-0.422039	-0.416050
Zn2	Zn	1.954035	-0.088705	-0.082717
Zn3	Zn	2.287369	0.244628	0.250616
Zn4	Zn	1.620592	-0.599321	-0.292995
Zn5	Zn	1.953926	-0.265988	0.040339
Zn6	Zn	2.287259	0.067346	0.373672
Zn7	Zn	1.443425	-0.422073	-0.293008
Zn8	Zn	1.776759	-0.088740	0.040326
Zn9	Zn	2.110092	0.244593	0.373659
Zn10	Zn	1.443398	-0.599262	-0.416029
Zn11	Zn	1.776732	-0.265928	-0.082696
Zn12	Zn	2.110065	0.067405	0.250637
O13	O	1.532029	-0.510674	-0.354521
O14	O	1.865363	-0.177340	-0.021187
O15	O	2.198696	0.155993	0.312146
O16	O	1.769035	-0.445566	-0.399730
O17	O	2.102368	-0.112232	-0.066397
O18	O	2.435701	0.221101	0.266937
O19	O	1.597056	-0.575848	-0.190012
O20	O	1.930389	-0.242515	0.143321
O21	O	2.263723	0.090819	0.476655
O22	O	1.466998	-0.273721	-0.309344
O23	O	1.800332	0.059612	0.023990
O24	O	2.133665	0.392945	0.357323
O25	O	1.768954	-0.575814	-0.309322
O26	O	2.102287	-0.242481	0.024012
O27	O	2.435621	0.090852	0.357345
O28	O	1.597243	-0.273696	-0.399743
O29	O	1.930576	0.059637	-0.066409
O30	O	2.263910	0.392971	0.266924
O31	O	1.466892	-0.445625	-0.190022
O32	O	1.800225	-0.112291	0.143312
O33	O	2.133559	0.221042	0.476645
O34	O	1.295074	-0.445567	-0.309323
O35	O	1.628408	-0.112234	0.024010
O36	O	1.961741	0.221099	0.357343
O37	O	1.466953	-0.575714	-0.519017
O38	O	1.800286	-0.242380	-0.185683
O39	O	2.133619	0.090953	0.147650
O40	O	1.295055	-0.575747	-0.399707
O41	O	1.628388	-0.242414	-0.066374
O42	O	1.961721	0.090920	0.266960
O43	O	1.597217	-0.445508	-0.519032
O44	O	1.930550	-0.112175	-0.185699
O45	O	2.263884	0.221158	0.147635
O46	O	1.597030	-0.747660	-0.309301
O47	O	1.930363	-0.414327	0.024032
O48	O	2.263697	-0.080994	0.357365
O49	O	1.466846	-0.747617	-0.399694
O50	O	1.800180	-0.414284	-0.066361
O51	O	2.133513	-0.080950	0.266972
C52	C	1.256600	-0.510655	-0.354515
C53	C	1.589933	-0.177322	-0.021181
C54	C	1.923266	0.156011	0.312152
C55	C	1.138770	-0.510673	-0.354530
C56	C	1.472103	-0.177340	-0.021196
C57	C	1.805436	0.155994	0.312137
C58	C	1.093911	-0.592709	-0.411307
C59	C	1.427244	-0.259376	-0.077974
C60	C	1.760578	0.073958	0.255360
C61	C	0.971351	-0.593046	-0.411138
C62	C	1.304684	-0.259712	-0.077805
C63	C	1.638017	0.073621	0.255528
C64	C	0.970822	-0.540508	-0.276878
C65	C	1.304155	-0.207175	0.056456
C66	C	1.637488	0.126159	0.389789
C67	C	1.093420	-0.541087	-0.277207
C68	C	1.426753	-0.207754	0.056127
C69	C	1.760086	0.125579	0.389460
C70	C	1.093622	-0.398629	-0.374726
C71	C	1.426955	-0.065295	-0.041393
C72	C	1.760289	0.268038	0.291941
C73	C	0.971017	-0.399248	-0.376436
C74	C	1.304350	-0.065914	-0.043103
C75	C	1.637683	0.267419	0.290231
C76	C	1.531952	-0.786103	-0.354510
C77	C	1.865285	-0.452770	-0.021177
C78	C	2.198619	-0.119437	0.312156
C79	C	1.532016	-0.903933	-0.354530
C80	C	1.865349	-0.570600	-0.021197
C81	C	2.198683	-0.237267	0.312136
C82	C	1.450455	-1.071514	-0.411572
C83	C	1.783788	-0.738181	-0.078239
C84	C	2.117122	-0.404848	0.255095
C85	C	1.450038	-0.948955	-0.411389
C86	C	1.783371	-0.615621	-0.078055
C87	C	2.116705	-0.282288	0.255278
C88	C	1.501776	-0.948524	-0.276974
C89	C	1.835109	-0.615191	0.056360
C90	C	2.168443	-0.281857	0.389693
C91	C	1.501278	-1.071123	-0.277320
C92	C	1.834612	-0.737789	0.056014
C93	C	2.167945	-0.404456	0.389347
C94	C	1.644316	-1.071023	-0.374417
C95	C	1.977649	-0.737690	-0.041083
C96	C	2.310982	-0.404356	0.292250
C97	C	1.643627	-0.948416	-0.376113
C98	C	1.976961	-0.615083	-0.042779
C99	C	2.310294	-0.281749	0.290554
C100	C	1.808535	-0.510693	-0.354527
C101	C	2.141868	-0.177359	-0.021193
C102	C	2.475201	0.155974	0.312140
C103	C	1.926365	-0.510701	-0.354529
C104	C	2.259698	-0.177368	-0.021196
C105	C	2.593031	0.155966	0.312137
C106	C	1.532094	-0.510601	-0.546473
C107	C	1.865427	-0.177267	-0.213140
C108	C	2.198761	0.156066	0.120193
C109	C	1.532122	-0.510569	-0.628272
C110	C	1.865455	-0.177236	-0.294939
C111	C	2.198788	0.156097	0.038394
C112	C	1.532136	-0.234168	-0.354547
C113	C	1.865469	0.099165	-0.021214
C114	C	2.198803	0.432498	0.312120
C115	C	1.532181	-0.116338	-0.354558
C116	C	1.865515	0.216995	-0.021225
C117	C	2.198848	0.550328	0.312108
C118	C	1.599974	-0.442708	-0.816476
C119	C	1.933308	-0.109375	-0.483142
C120	C	2.266641	0.223958	-0.149809
C121	C	1.599987	-0.442677	-0.893334
C122	C	1.933320	-0.109344	-0.560001
C123	C	2.266654	0.223989	-0.226668
C124	C	1.464344	-0.578267	-0.893307
C125	C	1.797677	-0.244933	-0.559974
C126	C	2.131010	0.088400	-0.226641
C127	C	1.464326	-0.578291	-0.816450
C128	C	1.797660	-0.244958	-0.483116
C129	C	2.130993	0.088375	-0.149783
C130	C	1.532148	-0.510514	-0.778036
C131	C	1.865481	-0.177180	-0.444703
C132	C	2.198814	0.156153	-0.111369
C133	C	1.532178	-0.510458	-0.931752
C134	C	1.865511	-0.177125	-0.598419
C135	C	2.198844	0.156209	-0.265086
C136	C	1.532191	-0.510425	-1.015086
C137	C	1.865524	-0.177092	-0.681753
C138	C	2.198858	0.156242	-0.348419
C139	C	1.532133	-0.510545	-0.694697
C140	C	1.865467	-0.177212	-0.361364
C141	C	2.198800	0.156122	-0.028030
C142	C	1.532026	-0.510670	-0.163314
C143	C	1.865359	-0.177337	0.170019
C144	C	2.198693	0.155997	0.503352
C145	C	1.532204	-0.510402	-0.081516
C146	C	1.865537	-0.177069	0.251818
C147	C	2.198871	0.156264	0.585151
H148	H	0.941682	-0.482591	-0.233413
H149	H	1.275015	-0.149258	0.099921
H150	H	1.608348	0.184076	0.433254
H151	H	1.367843	-1.102415	-0.398584
H152	H	1.701177	-0.769082	-0.065251
H153	H	2.034510	-0.435748	0.268082
O154	O	1.475400	-1.110750	-0.487914
O155	O	1.808733	-0.777417	-0.154581
O156	O	2.142067	-0.444083	0.178753
H157	H	1.491261	-1.042307	-0.524467
H158	H	1.824594	-0.708974	-0.191134
H159	H	2.157928	-0.375640	0.142200
O160	O	1.673117	-0.369607	-0.775039
O161	O	2.006450	-0.036273	-0.441706
O162	O	2.339783	0.297060	-0.108372
H163	H	1.654960	-0.286400	-0.789793
H164	H	1.988294	0.046934	-0.456460
H165	H	2.321627	0.380267	-0.123126
H166	H	1.409086	-0.633506	-0.785151
H167	H	1.742419	-0.300173	-0.451818
H168	H	2.075753	0.033161	-0.118485
H169	H	0.941964	-0.376762	-0.433583
H170	H	1.275298	-0.043428	-0.100250
H171	H	1.608631	0.289905	0.233083
O172	O	0.931523	-0.568407	-0.487389
O173	O	1.264856	-0.235074	-0.154056
O174	O	1.598190	0.098259	0.179278
H175	H	0.999830	-0.556150	-0.524718
H176	H	1.333163	-0.222816	-0.191385
H177	H	1.666496	0.110517	0.141948
H178	H	0.941993	-0.676079	-0.397739
H179	H	1.275327	-0.342746	-0.064406
H180	H	1.608660	-0.009412	0.268927
H181	H	1.123425	-0.574329	-0.469054
H182	H	1.456758	-0.240996	-0.135721
H183	H	1.790092	0.092337	0.197613
O184	O	0.930121	-0.647796	-0.253870
O185	O	1.263455	-0.314462	0.079463
O186	O	1.596788	0.018871	0.412796
H187	H	0.878245	-0.680060	-0.297611
H188	H	1.211578	-0.346727	0.035722
H189	H	1.544911	-0.013394	0.369056
H190	H	1.655217	-0.387462	-0.924629
H191	H	1.988550	-0.054128	-0.591295
H192	H	2.321883	0.279205	-0.257962
H193	H	1.366907	-0.919720	-0.398233
H194	H	1.700240	-0.586387	-0.064899
H195	H	2.033573	-0.253053	0.268434
H196	H	1.409128	-0.633451	-0.924593
H197	H	1.742461	-0.300118	-0.591260
H198	H	2.075795	0.033216	-0.257926
H199	H	1.124689	-0.675263	-0.398070
H200	H	1.458023	-0.341929	-0.064737
H201	H	1.791356	-0.008596	0.268596
O202	O	1.576709	-1.110408	-0.219137
O203	O	1.910043	-0.777075	0.114196
O204	O	2.243376	-0.443742	0.447529
H205	H	1.576929	-1.198183	-0.218955
H206	H	1.910262	-0.864849	0.114378
H207	H	2.243595	-0.531516	0.447712
O208	O	1.132078	-0.317674	-0.319965
O209	O	1.465412	0.015660	0.013368
O210	O	1.798745	0.348993	0.346702
H211	H	1.178190	-0.255759	-0.349002
H212	H	1.511524	0.077575	-0.015669
H213	H	1.844857	0.410908	0.317664
H214	H	1.559415	-0.919363	-0.233333
H215	H	1.892748	-0.586030	0.100000
H216	H	2.226081	-0.252697	0.433333
O217	O	1.131272	-0.649556	-0.254602
O218	O	1.464606	-0.316223	0.078731
O219	O	1.797939	0.017111	0.412065
H220	H	1.062013	-0.701105	-0.243543
H221	H	1.395346	-0.367772	0.089790
H222	H	1.728679	-0.034438	0.423124
H223	H	1.123093	-0.483889	-0.233452
H224	H	1.456427	-0.150556	0.099881
H225	H	1.789760	0.182777	0.433215
H226	H	1.707724	-0.917763	-0.337610
H227	H	2.041057	-0.584430	-0.004277
H228	H	2.374390	-0.251097	0.329056
O229	O	1.134619	-0.362537	-0.448463
O230	O	1.467952	-0.029204	-0.115130
O231	O	1.801286	0.304129	0.218203
H232	H	1.187635	-0.424066	-0.471542
H233	H	1.520968	-0.090733	-0.138209
H234	H	1.854302	0.242600	0.195125
O235	O	1.392700	-1.109141	-0.255042
O236	O	1.726034	-0.775808	0.078291
O237	O	2.059367	-0.442475	0.411624
H238	H	1.341041	-1.039961	-0.244127
H239	H	1.674375	-0.706628	0.089206
H240	H	2.007708	-0.373295	0.422539
O241	O	0.930485	-0.314008	-0.325688
O242	O	1.263819	0.019325	0.007646
O243	O	1.597152	0.352659	0.340979
H244	H	0.877651	-0.349911	-0.283870
H245	H	1.210984	-0.016578	0.049463
H246	H	1.544318	0.316756	0.382797
O247	O	1.673850	-0.909788	-0.451712
O248	O	2.007183	-0.576455	-0.118378
O249	O	2.340517	-0.243121	0.214955
H250	H	1.614343	-0.937408	-0.492182
H251	H	1.947676	-0.604074	-0.158848
H252	H	2.281010	-0.270741	0.174485
O253	O	1.394325	-0.907991	-0.254280
O254	O	1.727659	-0.574658	0.079054
O255	O	2.060992	-0.241325	0.412387
H256	H	1.362287	-0.856102	-0.298109
H257	H	1.695621	-0.522769	0.035224
H258	H	2.028954	-0.189436	0.368558
H259	H	1.468957	-0.918803	-0.468897
H260	H	1.802291	-0.585470	-0.135563
H261	H	2.135624	-0.252137	0.197770
H262	H	1.671902	-1.101869	-0.430009
H263	H	2.005235	-0.768536	-0.096676
H264	H	2.338568	-0.435202	0.236657
O265	O	1.725031	-1.109653	-0.319536
O266	O	2.058364	-0.776319	0.013797
O267	O	2.391698	-0.442986	0.347131
H268	H	1.685536	-1.160848	-0.278298
H269	H	2.018870	-0.827515	0.055035
H270	H	2.352203	-0.494181	0.388368
