data_functionalizedCrystal
_audit_creation_method	'MofGen! by Chris Wilmer'
_symmetry_space_group_name_H-M	'P1'
_symmetry_Int_Tables_number	1
_symmetry_cell_setting	triclinic
loop_
_symmetry_equiv_pos_as_xyz
  x,y,z
_cell_length_a	15.537862
_cell_length_b	23.532357
_cell_length_c	14.185569
_cell_angle_alpha	76.926768
_cell_angle_beta	97.877082
_cell_angle_gamma	65.046363
loop_
_atom_site_label
_atom_site_type_symbol
_atom_site_fract_x
_atom_site_fract_y
_atom_site_fract_z
O1	O	1.230251	-0.168054	-0.083335
O2	O	0.955335	-0.102144	-0.083360
O3	O	1.101113	-0.219728	-0.083326
O4	O	1.084473	-0.050470	-0.083369
O5	O	1.144177	-0.254460	0.083519
O6	O	0.998399	-0.136877	0.083485
O7	O	1.273315	-0.202786	0.083510
Cu8	Cu	1.139789	-0.173003	0.098732
Cu9	Cu	1.088861	-0.131928	-0.098582
O10	O	1.127537	-0.085203	0.083476
C11	C	0.941702	-0.112614	0.000059
C12	C	0.836923	-0.092072	0.000050
C13	C	1.122230	-0.258227	0.000099
C14	C	1.120982	-0.321193	0.000109
C15	C	0.677484	-0.008810	0.000025
C16	C	0.775941	-0.028119	0.000033
C17	C	0.799464	-0.136745	0.000065
C18	C	0.701008	-0.117446	0.000062
C19	C	0.640025	-0.053478	0.000041
C20	C	0.663549	-0.162114	0.000078
C21	C	0.565099	-0.142816	0.000070
C22	C	0.504109	-0.078850	0.000046
C23	C	0.541575	-0.034180	0.000033
C24	C	0.724532	-0.226081	0.000092
C25	C	0.687073	-0.270749	0.000108
C26	C	0.588624	-0.251452	0.000107
C27	C	0.527634	-0.187486	0.000083
C28	C	0.551158	-0.296123	0.000120
C29	C	0.452708	-0.276825	0.000112
C30	C	0.429184	-0.168188	0.000075
C31	C	1.089643	-0.692664	-0.090893
C32	C	1.088452	-0.751820	-0.090899
O33	O	1.067842	-0.766304	-0.168246
N34	N	1.111337	-0.800344	0.000047
C35	C	1.135403	-0.789707	0.091004
O36	O	1.154758	-0.836412	0.168360
C37	C	1.136587	-0.730549	0.091009
C38	C	1.113710	-0.682030	0.000057
C39	C	1.066767	-0.644146	-0.181837
C40	C	1.067959	-0.584994	-0.181831
C41	C	1.092027	-0.574360	-0.090881
C42	C	1.114902	-0.622878	0.000064
C43	C	1.160646	-0.719911	0.181965
C44	C	1.161827	-0.660747	0.181962
C45	C	1.138950	-0.612228	0.091011
C46	C	1.140162	-0.553092	0.091020
N47	N	1.117278	-0.504569	0.000075
C48	C	1.093210	-0.515203	-0.090876
C49	C	1.132915	-0.913940	0.090987
C50	C	1.131739	-0.973098	0.090984
C51	C	1.084786	-0.935207	-0.090920
C52	C	1.085969	-0.876050	-0.090915
C53	C	1.110031	-0.865416	0.000042
C54	C	1.095716	-0.390981	-0.090856
C55	C	1.096914	-0.331827	-0.090842
C56	C	1.143862	-0.369722	0.091061
C57	C	1.142669	-0.428872	0.091048
C58	C	1.118591	-0.439498	0.000081
O59	O	1.160759	-0.538562	0.168328
O60	O	1.073846	-0.468490	-0.168219
C61	C	1.286947	-0.192316	0.000088
C62	C	1.391725	-0.212856	0.000091
C63	C	1.106420	-0.046703	0.000048
C64	C	1.107666	0.016264	0.000032
N65	N	1.175616	-0.201895	0.237511
N66	N	1.053042	-0.103042	-0.237361
C67	C	0.947782	-0.018183	0.605108
C68	C	0.974927	-0.040065	0.710135
C69	C	1.104039	-0.144162	0.710127
C70	C	1.076901	-0.122289	0.605097
C71	C	0.998773	-0.059299	0.552595
C72	C	1.127893	-0.163406	0.552584
C73	C	1.100761	-0.141533	0.447564
C74	C	1.022637	-0.078544	0.395055
C75	C	0.971641	-0.037426	0.447574
C76	C	1.206025	-0.226394	0.605088
C77	C	1.257017	-0.267511	0.552575
C78	C	1.229880	-0.245640	0.447553
C79	C	1.151757	-0.182651	0.395044
C80	C	1.280877	-0.286758	0.395033
C81	C	1.253745	-0.264885	0.290012
C82	C	1.124625	-0.160779	0.290023
H83	H	0.379531	-0.116102	0.000071
F84	F	0.864376	-0.204822	0.000087
H85	H	1.167654	-0.195449	0.752885
H86	H	1.078287	-0.292323	-0.164909
H87	H	1.320632	-0.318797	0.595334
F88	F	1.156104	-1.024736	0.187787
F89	F	1.043604	-0.533361	-0.278635
H90	H	1.047164	-0.652794	-0.255904
F91	F	0.612580	0.059269	0.000021
H92	H	1.181407	-0.652091	0.256032
F93	F	1.061620	-0.824416	-0.187717
F94	F	0.864619	0.048857	0.549229
F95	F	1.364033	-0.353792	0.450920
F96	F	0.920648	0.003704	0.766016
F97	F	0.476671	0.033899	0.000028
F98	F	1.184991	-0.771536	0.278770
F99	F	0.815803	0.019429	0.000015
H100	H	1.163461	-0.361054	0.165111
H101	H	1.000550	-0.060735	0.309540
F102	F	1.059165	-0.946533	-0.187719
F103	F	1.234902	-0.249668	0.716862
H104	H	1.152513	-0.905289	0.165060
H105	H	1.161305	-0.468382	0.165108
F106	F	1.041462	-0.093739	0.234145
F107	F	0.399329	-0.058311	0.000033
F108	F	0.829310	-0.246617	0.000095
H109	H	0.600822	-0.348203	0.000127
H110	H	0.736737	-0.322831	0.000122
F111	F	0.888478	0.029613	0.391696
H112	H	0.422209	-0.313197	0.000123
F113	F	1.070089	-0.402281	-0.187673
F114	F	1.308019	-0.308646	0.234124
