data_functionalizedCrystal
_audit_creation_method	'MofGen! by Chris Wilmer'
_symmetry_space_group_name_H-M	'P1'
_symmetry_Int_Tables_number	1
_symmetry_cell_setting	triclinic
loop_
_symmetry_equiv_pos_as_xyz
  x,y,z
_cell_length_a	6.817900
_cell_length_b	12.200863
_cell_length_c	16.255661
_cell_angle_alpha	94.285294
_cell_angle_beta	103.488922
_cell_angle_gamma	107.143441
loop_
_atom_site_label
_atom_site_type_symbol
_atom_site_fract_x
_atom_site_fract_y
_atom_site_fract_z
V1	V	-4.045305	-0.159639	-0.263958
O2	O	-4.013408	0.006718	-0.258844
O3	O	-4.015024	-0.315621	-0.262237
O4	O	-3.996630	-0.157602	-0.379040
O5	O	-4.031930	-0.152395	-0.141233
V6	V	-4.526621	-0.139692	-0.249268
O7	O	-4.311405	-0.203396	-0.296179
O8	O	-4.710718	-0.095935	-0.217047
O9	O	-4.333695	0.016290	-0.250989
O10	O	-4.675915	-0.306049	-0.254382
O11	O	-4.657393	-0.146936	-0.371993
O12	O	-4.352090	-0.141729	-0.134186
C13	C	-3.864442	-0.353633	-0.258095
C14	C	-3.920969	-0.481153	-0.257456
C15	C	-4.024424	-0.714625	-0.256292
C16	C	-3.966846	-0.584704	-0.256940
C17	C	-3.840977	-0.152063	-0.407087
C18	C	-3.882583	-0.151429	-0.501168
C19	C	-3.792258	-0.143862	-0.723983
C20	C	-3.960050	-0.241532	-0.793512
C21	C	-3.958829	-0.150241	-0.673416
C22	C	-3.865197	-0.051453	-0.771524
C23	C	-4.032463	-0.149089	-0.839799
C24	C	-4.126113	-0.247999	-0.741715
C25	C	-4.031188	-0.057834	-0.719712
C26	C	-4.199120	-0.155532	-0.789221
C27	C	-3.916406	-0.150906	-0.577567
C28	C	-4.074904	-0.148433	-0.935647
C29	C	-4.147621	0.054296	-0.255128
C30	C	-4.070332	0.181814	-0.255773
C31	C	-4.171085	-0.147272	-0.106134
C32	C	-4.108717	-0.147900	-0.012053
H33	H	-3.619944	-0.139054	-0.695500
H34	H	-3.930422	-0.319197	-0.825640
C35	C	-4.272398	-0.358836	-0.723654
C36	C	-4.231298	-0.358193	-0.635083
C37	C	-4.365982	-0.460284	-0.618411
H38	H	-4.416595	-0.363331	-0.746499
H39	H	-4.247409	-0.424035	-0.749571
H40	H	-4.256303	-0.293013	-0.609176
H41	H	-4.087127	-0.353717	-0.612218
H42	H	-4.340993	-0.525482	-0.644329
H43	H	-4.510170	-0.464770	-0.641261
H44	H	-4.338101	-0.459866	-0.558316
H45	H	-3.755291	0.031589	-0.785088
C46	C	-4.428954	-0.162071	-0.827184
C47	C	-4.465296	-0.160420	-0.915415
C48	C	-4.676984	-0.166431	-0.950416
H49	H	-4.521846	-0.231881	-0.817301
H50	H	-4.454996	-0.097439	-0.800967
H51	H	-4.439277	-0.225046	-0.941625
H52	H	-4.372457	-0.090616	-0.925323
H53	H	-4.703026	-0.101799	-0.924198
H54	H	-4.769858	-0.236242	-0.940526
H55	H	-4.701665	-0.165301	-1.010282
H56	H	-4.060737	0.019835	-0.687561
