data_functionalizedCrystal
_audit_creation_method	'MofGen! by Chris Wilmer'
_symmetry_space_group_name_H-M	'P1'
_symmetry_Int_Tables_number	1
_symmetry_cell_setting	triclinic
loop_
_symmetry_equiv_pos_as_xyz
  x,y,z
_cell_length_a	19.077105
_cell_length_b	16.625546
_cell_length_c	19.077237
_cell_angle_alpha	92.269570
_cell_angle_beta	85.486555
_cell_angle_gamma	87.718759
loop_
_atom_site_label
_atom_site_type_symbol
_atom_site_fract_x
_atom_site_fract_y
_atom_site_fract_z
Zn1	Zn	1.093696	-0.391756	-0.441830
Zn2	Zn	1.427029	-0.058423	-0.108496
Zn3	Zn	1.760363	0.274910	0.224837
Zn4	Zn	1.088891	-0.520951	-0.323939
Zn5	Zn	1.422224	-0.187618	0.009394
Zn6	Zn	1.755557	0.145715	0.342727
Zn7	Zn	0.971087	-0.380489	-0.319228
Zn8	Zn	1.304420	-0.047155	0.014105
Zn9	Zn	1.637753	0.286178	0.347438
Zn10	Zn	0.975779	-0.520895	-0.437056
Zn11	Zn	1.309112	-0.187562	-0.103723
Zn12	Zn	1.642446	0.145772	0.229610
O13	O	1.032363	-0.453523	-0.380513
O14	O	1.365696	-0.120189	-0.047180
O15	O	1.699030	0.213144	0.286153
O16	O	1.191709	-0.413633	-0.430160
O17	O	1.525042	-0.080300	-0.096827
O18	O	1.858375	0.253033	0.236506
O19	O	1.069289	-0.497627	-0.224666
O20	O	1.402622	-0.164293	0.108668
O21	O	1.735956	0.169040	0.442001
O22	O	0.987398	-0.269154	-0.335518
O23	O	1.320732	0.064179	-0.002184
O24	O	1.654065	0.397512	0.331149
O25	O	1.188178	-0.508552	-0.343547
O26	O	1.521512	-0.175219	-0.010214
O27	O	1.854845	0.158114	0.323120
O28	O	1.077479	-0.277432	-0.425592
O29	O	1.410812	0.055901	-0.092259
O30	O	1.744145	0.389234	0.241074
O31	O	0.982739	-0.394430	-0.221204
O32	O	1.316072	-0.061096	0.112129
O33	O	1.649406	0.272237	0.445462
O34	O	0.873059	-0.394375	-0.330889
O35	O	1.206392	-0.061042	0.002444
O36	O	1.539726	0.272292	0.335777
O37	O	0.995396	-0.508456	-0.536338
O38	O	1.328729	-0.175123	-0.203005
O39	O	1.662062	0.158210	0.130328
O40	O	0.876506	-0.497531	-0.417457
O41	O	1.209840	-0.164197	-0.084124
O42	O	1.543173	0.169136	0.249210
O43	O	1.082029	-0.413579	-0.539845
O44	O	1.415362	-0.080245	-0.206512
O45	O	1.748695	0.253088	0.126822
O46	O	1.073839	-0.633773	-0.338919
O47	O	1.407172	-0.300439	-0.005585
O48	O	1.740506	0.032894	0.327748
O49	O	0.990736	-0.633731	-0.422025
O50	O	1.324070	-0.300398	-0.088692
O51	O	1.657403	0.032935	0.244642
C52	C	0.849204	-0.444725	-0.373144
C53	C	1.182537	-0.111391	-0.039811
C54	C	1.515871	0.221942	0.293522
C55	C	0.770848	-0.440981	-0.370009
C56	C	1.104182	-0.107648	-0.036675
C57	C	1.437515	0.225686	0.296658
C58	C	0.735847	-0.493004	-0.413536
C59	C	1.069180	-0.159671	-0.080202
C60	C	1.402514	0.173662	0.253131
C61	C	0.662224	-0.489476	-0.410593
C62	C	0.995557	-0.156143	-0.077259
C63	C	1.328890	0.177190	0.256074
C64	C	0.623603	-0.433928	-0.364119
C65	C	0.956936	-0.100595	-0.030785
C66	C	1.290270	0.232738	0.302548
C67	C	0.658609	-0.381900	-0.320590
C68	C	0.991942	-0.048566	0.012744
C69	C	1.325276	0.284767	0.346077
C70	C	0.732231	-0.385424	-0.323537
C71	C	1.065565	-0.052091	0.009797
C72	C	1.398898	0.281242	0.343130
C73	C	0.403222	-0.417616	-0.350482
C74	C	0.736555	-0.084282	-0.017149
C75	C	1.069889	0.249051	0.316184
C76	C	0.329595	-0.414097	-0.347537
C77	C	0.662928	-0.080763	-0.014204
C78	C	0.996262	0.252570	0.319129
C79	C	0.333215	-0.521673	-0.437541
C80	C	0.666548	-0.188340	-0.104208
C81	C	0.999881	0.144994	0.229125
C82	C	0.406838	-0.525196	-0.440481
C83	C	0.740171	-0.191863	-0.107148
C84	C	1.073505	0.141471	0.226185
C85	C	0.441838	-0.473164	-0.396955
C86	C	0.775171	-0.139831	-0.063622
C87	C	1.108505	0.193502	0.269711
N88	N	0.548348	-0.430323	-0.361108
N89	N	0.881681	-0.096989	-0.027774
N90	N	1.215015	0.236344	0.305559
N91	N	0.517092	-0.476767	-0.399970
N92	N	0.850425	-0.143433	-0.066637
N93	N	1.183758	0.189900	0.266696
C94	C	1.032295	-0.663009	-0.380481
C95	C	1.365629	-0.329676	-0.047148
C96	C	1.698962	0.003658	0.286185
C97	C	1.032332	-0.752632	-0.380494
C98	C	1.365665	-0.419299	-0.047160
C99	C	1.698998	-0.085966	0.286173
C100	C	1.032457	-1.080817	-0.380572
C101	C	1.365791	-0.747484	-0.047239
C102	C	1.699124	-0.414151	0.286095
C103	C	1.032420	-0.989506	-0.380552
C104	C	1.365754	-0.656173	-0.047219
C105	C	1.699087	-0.322840	0.286115
C106	C	1.032394	-0.916728	-0.380532
C107	C	1.365727	-0.583394	-0.047199
C108	C	1.699061	-0.250061	0.286134
C109	C	1.032358	-0.825411	-0.380513
C110	C	1.365691	-0.492078	-0.047180
C111	C	1.699025	-0.158744	0.286153
C112	C	1.216237	-0.462356	-0.387912
C113	C	1.549571	-0.129022	-0.054578
C114	C	1.882904	0.204311	0.278755
C115	C	1.294594	-0.466120	-0.391064
C116	C	1.627927	-0.132787	-0.057731
C117	C	1.961260	0.200547	0.275602
C118	C	1.039772	-0.462268	-0.564385
C119	C	1.373105	-0.128935	-0.231052
C120	C	1.706438	0.204399	0.102281
C121	C	1.042929	-0.465995	-0.642741
C122	C	1.376262	-0.132661	-0.309407
C123	C	1.709595	0.200672	0.023926
C124	C	1.032451	-0.243220	-0.380562
C125	C	1.365784	0.090113	-0.047229
C126	C	1.699118	0.423447	0.286105
C127	C	1.032489	-0.153602	-0.380583
C128	C	1.365822	0.179732	-0.047249
C129	C	1.699155	0.513065	0.286084
C130	C	1.065576	-0.492783	-1.083993
C131	C	1.398910	-0.159450	-0.750659
C132	C	1.732243	0.173884	-0.417326
C133	C	1.062599	-0.489276	-1.010369
C134	C	1.395933	-0.155942	-0.677036
C135	C	1.729266	0.177391	-0.343702
C136	C	1.016053	-0.433789	-0.971763
C137	C	1.349387	-0.100456	-0.638430
C138	C	1.682720	0.232877	-0.305097
C139	C	0.972476	-0.381812	-1.006784
C140	C	1.305809	-0.048479	-0.673451
C141	C	1.639143	0.284854	-0.340118
C142	C	0.975450	-0.385324	-1.080407
C143	C	1.308783	-0.051991	-0.747073
C144	C	1.642116	0.281343	-0.413740
C145	C	1.002325	-0.417529	-0.751384
C146	C	1.335658	-0.084196	-0.418051
C147	C	1.668991	0.249137	-0.084717
C148	C	0.999356	-0.414020	-0.677757
C149	C	1.332689	-0.080687	-0.344424
C150	C	1.666023	0.252647	-0.011090
C151	C	1.089479	-0.521485	-0.681347
C152	C	1.422812	-0.188151	-0.348013
C153	C	1.756146	0.145182	-0.014680
C154	C	1.092451	-0.524988	-0.754970
C155	C	1.425785	-0.191655	-0.421637
C156	C	1.759118	0.141679	-0.088304
C157	C	1.048872	-0.473014	-0.789985
C158	C	1.382205	-0.139681	-0.456651
C159	C	1.715538	0.193653	-0.123318
N160	N	1.013011	-0.430202	-0.896508
N161	N	1.346344	-0.096868	-0.563175
N162	N	1.679678	0.236465	-0.229842
N163	N	1.051911	-0.476606	-0.865238
N164	N	1.385244	-0.143273	-0.531905
N165	N	1.718577	0.190060	-0.198572
C166	C	1.025024	-0.444755	-0.197358
C167	C	1.358357	-0.111422	0.135975
C168	C	1.691691	0.221911	0.469308
C169	C	1.022004	-0.440808	-0.119009
C170	C	1.355337	-0.107475	0.214324
C171	C	1.688670	0.225859	0.547658
H172	H	0.760728	-0.343057	-0.288096
H173	H	1.094062	-0.009724	0.045237
H174	H	1.427395	0.323609	0.378571
F175	F	1.135856	-0.576796	-0.644076
F176	F	1.469189	-0.243463	-0.310743
F177	F	1.802522	0.089871	0.022590
F178	F	0.929076	-0.330002	-1.117673
F179	F	1.262410	0.003331	-0.784340
F180	F	1.595743	0.336665	-0.451006
H181	H	0.934574	-0.336638	-0.975346
H182	H	1.267907	-0.003304	-0.642012
H183	H	1.601240	0.330029	-0.308679
F184	F	0.624976	-0.544847	-0.456921
F185	F	0.958310	-0.211513	-0.123587
F186	F	1.291643	0.121820	0.209746
H187	H	0.767287	-0.538240	-0.451378
H188	H	1.100620	-0.204907	-0.118044
H189	H	1.433954	0.128427	0.215289
H190	H	0.438278	-0.570431	-0.478324
H191	H	0.771612	-0.237097	-0.144991
H192	H	1.104945	0.096236	0.188343
H193	H	0.961453	-0.368831	-0.646326
H194	H	1.294787	-0.035497	-0.312993
H195	H	1.628120	0.297836	0.020341
H196	H	1.103483	-0.537962	-1.115421
H197	H	1.436816	-0.204629	-0.782087
H198	H	1.770149	0.128704	-0.448754
F199	F	0.440462	-0.362237	-0.304159
F200	F	0.773796	-0.028903	0.029174
F201	F	1.107129	0.304430	0.362507
H202	H	0.304710	-0.564033	-0.472979
H203	H	0.638043	-0.230700	-0.139646
H204	H	0.971376	0.102634	0.193688
F205	F	0.288493	-0.354977	-0.298066
F206	F	0.621826	-0.021644	0.035267
F207	F	0.955159	0.311690	0.368600
F208	F	0.617504	-0.322776	-0.271133
F209	F	0.950837	0.010557	0.062201
F210	F	1.284171	0.343891	0.395534
H211	H	1.098072	-0.531609	-0.981862
H212	H	1.431406	-0.198275	-0.648529
H213	H	1.764739	0.135058	-0.315195
F214	F	0.955918	-0.362241	-0.788639
F215	F	1.289251	-0.028907	-0.455305
F216	F	1.622584	0.304426	-0.121972
H217	H	1.130354	-0.570172	-0.786398
H218	H	1.463687	-0.236838	-0.453065
H219	H	1.797021	0.096495	-0.119732
