data_functionalizedCrystal
_audit_creation_method	'MofGen! by Chris Wilmer'
_symmetry_space_group_name_H-M	'P1'
_symmetry_Int_Tables_number	1
_symmetry_cell_setting	triclinic
loop_
_symmetry_equiv_pos_as_xyz
  x,y,z
_cell_length_a	27.732048
_cell_length_b	23.532407
_cell_length_c	22.010155
_cell_angle_alpha	90.000423
_cell_angle_beta	89.989126
_cell_angle_gamma	97.254334
loop_
_atom_site_label
_atom_site_type_symbol
_atom_site_fract_x
_atom_site_fract_y
_atom_site_fract_z
O1	O	0.641035	-0.067758	-0.050565
O2	O	1.141035	0.432242	0.449435
O3	O	0.500257	-0.078062	-0.050560
O4	O	1.000257	0.421938	0.449440
O5	O	0.574891	0.010031	-0.050552
O6	O	1.074891	0.510031	0.449448
O7	O	0.566401	-0.155851	-0.050574
O8	O	1.066401	0.344149	0.449426
O9	O	0.574878	0.010018	0.050499
O10	O	1.074878	0.510018	0.550499
O11	O	0.500244	-0.078075	0.050490
O12	O	1.000244	0.421925	0.550490
O13	O	0.641021	-0.067771	0.050485
O14	O	1.141021	0.432229	0.550485
Cu15	Cu	0.570631	-0.072924	0.059714
Cu16	Cu	1.070631	0.427076	0.559714
Cu17	Cu	0.570647	-0.072909	-0.059789
Cu18	Cu	1.070647	0.427091	0.440211
O19	O	0.566387	-0.155864	0.050477
O20	O	1.066387	0.344136	0.550477
C21	C	0.482243	-0.077852	-0.000034
C22	C	0.982243	0.422148	0.499966
C23	C	0.428587	-0.077201	-0.000031
C24	C	0.928587	0.422799	0.499969
C25	C	0.659035	-0.067981	-0.000042
C26	C	1.159035	0.432019	0.499958
C27	C	0.712691	-0.068632	-0.000049
C28	C	1.212691	0.431368	0.499951
C29	C	1.051433	-0.020675	-0.000022
C30	C	1.551433	0.479325	0.499978
C31	C	1.253096	-0.023092	-0.000020
C32	C	1.753096	0.476908	0.499980
O33	O	1.284284	0.020761	0.000012
O34	O	1.784284	0.520761	0.500012
N35	N	1.272300	-0.075327	-0.000029
N36	N	1.772300	0.424673	0.499971
C37	C	1.241085	-0.126962	-0.000034
C38	C	1.741085	0.373038	0.499966
O39	O	1.262046	-0.171447	-0.000035
O40	O	1.762046	0.328553	0.499965
C41	C	1.039422	-0.124545	-0.000031
C42	C	1.539422	0.375455	0.499969
C43	C	1.020221	-0.072306	-0.000029
C44	C	1.520221	0.427694	0.499971
C45	C	1.032231	0.031559	-0.000019
C46	C	1.532231	0.531559	0.499981
C47	C	0.981818	0.032163	-0.000022
C48	C	1.481818	0.532163	0.499978
C49	C	0.950607	-0.019468	-0.000029
C50	C	1.450607	0.480532	0.499971
C51	C	0.969809	-0.071703	-0.000032
C52	C	1.469809	0.428297	0.499968
C53	C	1.008208	-0.176179	-0.000032
C54	C	1.508208	0.323821	0.499968
C55	C	0.957790	-0.175570	-0.000030
C56	C	1.457790	0.324430	0.499970
C57	C	0.938589	-0.123332	-0.000027
C58	C	1.438589	0.376668	0.499973
C59	C	0.888184	-0.122730	-0.000043
C60	C	1.388184	0.377270	0.499957
N61	N	0.868980	-0.070495	-0.000034
N62	N	1.368980	0.429505	0.499966
C63	C	0.900192	-0.018864	-0.000028
C64	C	1.400192	0.481136	0.499972
C65	C	1.346961	-0.128227	-0.000037
C66	C	1.846961	0.371773	0.499963
C67	C	1.397376	-0.128832	-0.000038
C68	C	1.897376	0.371168	0.499962
C69	C	1.409384	-0.024961	-0.000023
C70	C	1.909384	0.475039	0.499977
C71	C	1.358968	-0.024358	-0.000026
C72	C	1.858968	0.475642	0.499974
C73	C	1.327757	-0.075992	-0.000028
C74	C	1.827757	0.424008	0.499972
C75	C	0.794320	-0.017600	-0.000036
C76	C	1.294320	0.482400	0.499964
C77	C	0.743903	-0.017001	-0.000042
C78	C	1.243903	0.482999	0.499958
C79	C	0.731899	-0.120871	-0.000054
C80	C	1.231899	0.379129	0.499946
C81	C	0.782313	-0.121471	-0.000051
C82	C	1.282313	0.378529	0.499949
C83	C	0.813523	-0.069831	-0.000040
C84	C	1.313523	0.430169	0.499960
O85	O	0.856968	-0.166560	-0.000068
O86	O	1.356968	0.333440	0.499932
O87	O	0.879221	0.025614	-0.000013
O88	O	1.379221	0.525614	0.499987
C89	C	1.101845	-0.021279	-0.000018
C90	C	1.601845	0.478721	0.499982
C91	C	1.121047	-0.073513	-0.000021
C92	C	1.621047	0.426487	0.499979
C93	C	1.089836	-0.125144	-0.000028
C94	C	1.589836	0.374856	0.499972
C95	C	1.171462	-0.074118	-0.000023
C96	C	1.671462	0.425882	0.499977
C97	C	1.202674	-0.022487	-0.000016
C98	C	1.702674	0.477513	0.499984
C99	C	1.183470	0.029748	-0.000007
C100	C	1.683470	0.529748	0.499993
C101	C	1.133057	0.030352	-0.000011
C102	C	1.633057	0.530352	0.499989
C103	C	1.109040	-0.177380	-0.000037
C104	C	1.609040	0.322620	0.499963
C105	C	1.159453	-0.177979	-0.000034
C106	C	1.659453	0.322021	0.499966
C107	C	1.190665	-0.126348	-0.000027
C108	C	1.690665	0.373652	0.499973
C109	C	0.574668	0.031240	-0.000025
C110	C	1.074668	0.531240	0.499975
C111	C	0.574018	0.094455	-0.000020
C112	C	1.074018	0.594455	0.499980
C113	C	0.566610	-0.177073	-0.000051
C114	C	1.066610	0.322927	0.499949
C115	C	0.567260	-0.240289	-0.000060
C116	C	1.067260	0.259711	0.499940
N117	N	0.570624	-0.072935	0.143767
N118	N	1.070624	0.427065	0.643767
C119	C	0.614108	0.493644	-0.000055
C120	C	1.114108	0.993644	0.499945
C121	C	0.613504	0.553043	-0.000060
C122	C	1.113504	1.053043	0.499940
O123	O	0.650668	0.589867	-0.000084
O124	O	1.150668	1.089867	0.499916
N125	N	0.569134	0.575574	-0.000058
N126	N	1.069134	1.075574	0.499942
C127	C	0.525365	0.538703	-0.000057
C128	C	1.025365	1.038703	0.499943
O129	O	0.487570	0.563322	-0.000056
O130	O	0.987570	1.063322	0.499944
C131	C	0.525970	0.479306	-0.000057
C132	C	1.025970	0.979306	0.499943
C133	C	0.570343	0.456778	-0.000053
C134	C	1.070343	0.956778	0.499947
C135	C	0.658477	0.471116	-0.000052
C136	C	1.158477	0.971116	0.499948
C137	C	0.659081	0.411721	-0.000046
C138	C	1.159081	0.911721	0.499954
C139	C	0.615315	0.374854	-0.000044
C140	C	1.115315	0.874854	0.499956
C141	C	0.570946	0.397383	-0.000047
C142	C	1.070946	0.897383	0.499953
C143	C	0.482201	0.442436	-0.000061
C144	C	0.982201	0.942436	0.499939
C145	C	0.482810	0.383035	-0.000061
C146	C	0.982810	0.883035	0.499939
C147	C	0.527182	0.360507	-0.000057
C148	C	1.027182	0.860507	0.499943
C149	C	0.527784	0.301122	-0.000039
C150	C	1.027784	0.801122	0.499961
N151	N	0.572154	0.278590	-0.000041
N152	N	1.072154	0.778590	0.499959
C153	C	0.615920	0.315457	-0.000044
C154	C	1.115920	0.815457	0.499956
C155	C	0.524100	0.663443	-0.000059
C156	C	1.024100	1.163443	0.499941
C157	C	0.523495	0.722840	-0.000055
C158	C	1.023495	1.222840	0.499945
C159	C	0.611634	0.737175	-0.000058
C160	C	1.111634	1.237175	0.499942
C161	C	0.612238	0.677778	-0.000058
C162	C	1.112238	1.177778	0.499942
C163	C	0.568469	0.640912	-0.000061
C164	C	1.068469	1.140912	0.499939
C165	C	0.617184	0.190723	-0.000031
C166	C	1.117184	0.690723	0.499969
C167	C	0.617784	0.131322	-0.000023
C168	C	1.117784	0.631322	0.499977
C169	C	0.529645	0.116991	-0.000022
C170	C	1.029645	0.616991	0.499978
C171	C	0.529045	0.176387	-0.000027
C172	C	1.029045	0.676387	0.499973
C173	C	0.572818	0.213252	-0.000034
C174	C	1.072818	0.713252	0.499966
O175	O	0.490640	0.264263	-0.000018
O176	O	0.990640	0.764263	0.499982
O177	O	0.653709	0.290829	-0.000052
O178	O	1.153709	0.790829	0.499948
N179	N	0.570659	-0.072894	-0.143842
N180	N	1.070659	0.427106	0.356158
C181	C	0.603697	-0.033907	0.563550
C182	C	1.103697	0.466093	1.063550
C183	C	0.603699	-0.033903	0.627157
C184	C	1.103699	0.466097	1.127157
O185	O	0.631800	-0.000727	0.660052
O186	O	1.131800	0.499273	1.160052
N187	N	0.570647	-0.072897	0.658974
N188	N	1.070647	0.427103	1.158974
C189	C	0.537587	-0.111893	0.627179
C190	C	1.037587	0.388107	1.127179
O191	O	0.509474	-0.145060	0.660083
O192	O	1.009474	0.354940	1.160083
C193	C	0.537583	-0.111894	0.563573
C194	C	1.037583	0.388106	1.063573
C195	C	0.570641	-0.072901	0.531760
C196	C	1.070641	0.427099	1.031760
C197	C	0.636752	0.005083	0.531737
C198	C	1.136752	0.505083	1.031737
C199	C	0.636750	0.005078	0.468133
C200	C	1.136750	0.505078	0.968133
C201	C	0.603694	-0.033916	0.436343
C202	C	1.103694	0.466084	0.936343
C203	C	0.570639	-0.072906	0.468157
C204	C	1.070639	0.427094	0.968157
C205	C	0.504521	-0.150888	0.531780
C206	C	1.004521	0.349112	1.031780
C207	C	0.504520	-0.150885	0.468169
C208	C	1.004520	0.349115	0.968169
C209	C	0.537577	-0.111892	0.436356
C210	C	1.037577	0.388108	0.936356
C211	C	0.537581	-0.111906	0.372763
C212	C	1.037581	0.388094	0.872763
N213	N	0.570633	-0.072912	0.340947
N214	N	1.070633	0.427088	0.840947
C215	C	0.603689	-0.033917	0.372737
C216	C	1.103689	0.466083	0.872737
C217	C	0.537598	-0.111888	0.760757
C218	C	1.037598	0.388112	1.260757
C219	C	0.537604	-0.111891	0.824363
C220	C	1.037604	0.388109	1.324363
C221	C	0.603716	-0.033899	0.824336
C222	C	1.103716	0.466101	1.324336
C223	C	0.603712	-0.033900	0.760730
C224	C	1.103712	0.466100	1.260730
C225	C	0.570650	-0.072894	0.728941
C226	C	1.070650	0.427106	1.228941
C227	C	0.603683	-0.033930	0.239166
C228	C	1.103683	0.466070	0.739166
C229	C	0.603680	-0.033940	0.175557
C230	C	1.103680	0.466060	0.675557
C231	C	0.537567	-0.111929	0.175589
C232	C	1.037567	0.388071	0.675589
C233	C	0.537572	-0.111922	0.239192
C234	C	1.037572	0.388078	0.739192
C235	C	0.570632	-0.072918	0.270979
C236	C	1.070632	0.427082	0.770979
O237	O	0.509493	-0.145063	0.339829
O238	O	1.009493	0.354937	0.839829
O239	O	0.631794	-0.000751	0.339826
O240	O	1.131794	0.499249	0.839826
H241	H	0.728272	0.025540	-0.000042
H242	H	1.228272	0.525540	0.499958
H243	H	0.663670	0.036840	0.557614
H244	H	1.163670	0.536840	1.057614
O245	O	1.439659	0.025231	0.000067
O246	O	1.939659	0.525231	0.500067
C247	C	1.465372	0.113790	0.052463
C248	C	1.965372	0.613790	0.552463
C249	C	1.431049	0.056980	0.052423
C250	C	1.931049	0.556980	0.552423
H251	H	1.458430	0.139470	0.094794
H252	H	1.958430	0.639470	0.594794
H253	H	1.458428	0.139573	0.010209
H254	H	1.958428	0.639573	0.510209
H255	H	1.504698	0.104365	0.052432
H256	H	2.004698	0.604365	0.552432
H257	H	1.391711	0.066353	0.052475
H258	H	1.891711	0.566353	0.552475
H259	H	1.438035	0.031214	0.094672
H260	H	1.938035	0.531214	0.594672
H261	H	1.175082	-0.220521	-0.000040
H262	H	1.675082	0.279479	0.499960
H263	H	0.510654	-0.143680	0.149695
H264	H	1.010654	0.356320	0.649695
H265	H	0.706478	-0.162908	-0.000063
H266	H	1.206478	0.337092	0.499937
H267	H	0.819726	0.024450	-0.000027
H268	H	1.319726	0.524450	0.499973
O269	O	0.439055	0.464215	-0.000094
O270	O	0.939055	0.964215	0.499906
C271	C	0.351698	0.443701	-0.000068
C272	C	0.851698	0.943701	0.499932
C273	C	0.400531	0.418962	-0.000043
C274	C	0.900531	0.918962	0.499957
H275	H	0.320539	0.407127	-0.000014
H276	H	0.820539	0.907127	0.499986
H277	H	0.349183	0.471127	-0.042370
H278	H	0.849183	0.971127	0.457630
H279	H	0.349224	0.471172	0.042209
H280	H	0.849224	0.971172	0.542209
H281	H	0.403038	0.391466	-0.042291
H282	H	0.903038	0.891466	0.457709
H283	H	0.403025	0.391569	0.042287
H284	H	0.903025	0.891569	0.542287
O285	O	0.472472	-0.188817	0.562702
O286	O	0.972472	0.311183	1.062702
C287	C	0.461787	-0.266662	0.634541
C288	C	0.961787	0.233338	1.134541
C289	C	0.498139	-0.223747	0.599550
C290	C	0.998139	0.276253	1.099550
H291	H	0.482524	-0.294905	0.664352
H292	H	0.982524	0.205095	1.164352
H293	H	0.438167	-0.294568	0.600913
H294	H	0.938167	0.205432	1.100913
H295	H	0.437753	-0.242252	0.664297
H296	H	0.937753	0.257748	1.164297
H297	H	0.522205	-0.248110	0.569794
H298	H	1.022205	0.251890	1.069794
H299	H	0.521725	-0.195842	0.633211
H300	H	1.021725	0.304158	1.133211
H301	H	0.477595	-0.182638	0.442290
H302	H	0.977595	0.317362	0.942290
H303	H	0.695214	0.393385	-0.000045
H304	H	1.195214	0.893385	0.499955
H305	H	0.694118	0.501127	-0.000056
H306	H	1.194118	1.001127	0.499944
O307	O	0.655384	0.655991	-0.000087
O308	O	1.155384	1.155991	0.499913
C309	C	0.742741	0.676496	-0.000056
C310	C	1.242741	1.176496	0.499944
C311	C	0.693911	0.701240	-0.000035
C312	C	1.193911	1.201240	0.499965
H313	H	0.773902	0.713067	-0.000001
H314	H	1.273902	1.213067	0.499999
H315	H	0.745268	0.649070	-0.042358
H316	H	1.245268	1.149070	0.457642
H317	H	0.745199	0.649024	0.042221
H318	H	1.245199	1.149024	0.542221
H319	H	0.691420	0.728738	-0.042284
H320	H	1.191420	1.228738	0.457716
H321	H	0.691404	0.728633	0.042295
H322	H	1.191404	1.228633	0.542295
H323	H	0.494012	0.086964	-0.000018
H324	H	0.994012	0.586964	0.499982
O325	O	0.440304	0.347200	-0.000169
O326	O	0.940304	0.847200	0.499831
C327	C	0.389853	0.271793	-0.052498
C328	C	0.889853	0.771793	0.447502
C329	C	0.438001	0.312350	-0.052460
C330	C	0.938001	0.812350	0.447540
H331	H	0.387980	0.243599	-0.094764
H332	H	0.887980	0.743599	0.405236
H333	H	0.358019	0.298073	-0.052540
H334	H	0.858019	0.798073	0.447460
H335	H	0.387930	0.243655	-0.010187
H336	H	0.887930	0.743655	0.489813
H337	H	0.439972	0.340498	-0.094764
H338	H	0.939972	0.840498	0.405236
H339	H	0.469812	0.286036	-0.052386
H340	H	0.969812	0.786036	0.447614
O341	O	1.213725	0.079956	-0.000028
O342	O	1.713725	0.579956	0.499972
C343	C	1.220331	0.183045	0.000027
C344	C	1.720331	0.683045	0.500027
C345	C	1.186010	0.126232	0.000031
C346	C	1.686010	0.626232	0.500031
H347	H	1.197937	0.220475	0.000087
H348	H	1.697937	0.720475	0.500087
H349	H	1.244234	0.185401	-0.042271
H350	H	1.744234	0.685401	0.457729
H351	H	1.244235	0.185315	0.042308
H352	H	1.744235	0.685315	0.542308
H353	H	1.162075	0.123924	-0.042221
H354	H	1.662075	0.623924	0.457779
H355	H	1.162140	0.123900	0.042357
H356	H	1.662140	0.623900	0.542357
O357	O	0.505528	-0.149858	0.270124
O358	O	1.005528	0.350142	0.770124
C359	C	0.494852	-0.227696	0.341972
C360	C	0.994852	0.272304	0.841972
C361	C	0.531199	-0.184778	0.306977
C362	C	1.031199	0.315222	0.806977
H363	H	0.515592	-0.255932	0.371785
H364	H	1.015592	0.244068	0.871785
H365	H	0.471234	-0.255608	0.308346
H366	H	0.971234	0.244392	0.808346
H367	H	0.470814	-0.203288	0.371724
H368	H	0.970814	0.296712	0.871724
H369	H	0.555269	-0.209140	0.277224
H370	H	1.055269	0.290860	0.777224
H371	H	0.554783	-0.156867	0.340635
H372	H	1.054783	0.343133	0.840635
O373	O	0.480348	0.744625	-0.000079
O374	O	0.980348	1.244625	0.499921
C375	C	0.392992	0.724121	-0.000039
C376	C	0.892992	1.224121	0.499961
C377	C	0.441822	0.699376	-0.000021
C378	C	0.941822	1.199376	0.499979
H379	H	0.361830	0.687549	0.000021
H380	H	0.861830	1.187549	0.500021
H381	H	0.390475	0.751546	-0.042340
H382	H	0.890475	1.251546	0.457660
H383	H	0.390523	0.751593	0.042238
H384	H	0.890523	1.251593	0.542238
H385	H	0.444323	0.671879	-0.042269
H386	H	0.944323	1.171879	0.457731
H387	H	0.444318	0.671983	0.042309
H388	H	0.944318	1.171983	0.542309
H389	H	0.630630	-0.002148	0.734831
H390	H	1.130630	0.497852	1.234831
O391	O	0.481592	0.627610	-0.000160
O392	O	0.981592	1.127610	0.499840
C393	C	0.431131	0.552209	-0.052485
C394	C	0.931131	1.052209	0.447515
C395	C	0.479282	0.592762	-0.052452
C396	C	0.979282	1.092762	0.447548
H397	H	0.429252	0.524016	-0.094752
H398	H	0.929252	1.024016	0.405248
H399	H	0.399300	0.578493	-0.052522
H400	H	0.899300	1.078493	0.447478
H401	H	0.429209	0.524070	-0.010175
H402	H	0.929209	1.024070	0.489825
H403	H	0.481251	0.620910	-0.094755
H404	H	0.981251	1.120910	0.405245
H405	H	0.511091	0.566444	-0.052384
H406	H	1.011091	1.066444	0.447616
H407	H	1.083632	-0.219425	-0.000042
H408	H	1.583632	0.280575	0.499958
O409	O	0.660932	0.109534	-0.000048
O410	O	1.160932	0.609534	0.499952
C411	C	0.748289	0.130033	-0.000017
C412	C	1.248289	0.630033	0.499983
C413	C	0.699461	0.154781	-0.000001
C414	C	1.199461	0.654781	0.499999
H415	H	0.779453	0.166603	0.000034
H416	H	1.279453	0.666603	0.500034
H417	H	0.750816	0.102602	-0.042314
H418	H	1.250816	0.602602	0.457686
H419	H	0.750746	0.102566	0.042264
H420	H	1.250746	0.602566	0.542264
H421	H	0.696972	0.182273	-0.042254
H422	H	1.196972	0.682273	0.457746
H423	H	0.696956	0.182180	0.042324
H424	H	1.196956	0.682180	0.542324
O425	O	0.963250	0.082958	0.000015
O426	O	1.463250	0.582958	0.500015
C427	C	0.980500	0.185918	0.000004
C428	C	1.480500	0.685918	0.500004
C429	C	1.001588	0.128430	-0.000028
C430	C	1.501588	0.628430	0.499972
H431	H	1.011485	0.222697	-0.000044
H432	H	1.511485	0.722697	0.499956
H433	H	0.957210	0.188832	0.042306
H434	H	1.457210	0.688832	0.542306
H435	H	0.957187	0.188781	-0.042273
H436	H	1.457187	0.688781	0.457727
H437	H	1.024922	0.125528	0.042220
H438	H	1.524922	0.625528	0.542220
H439	H	1.024850	0.125540	-0.042358
H440	H	1.524850	0.625540	0.457642
O441	O	0.485954	0.198300	0.000082
O442	O	0.985954	0.698300	0.500082
C443	C	0.434120	0.257070	0.052401
C444	C	0.934120	0.757070	0.552401
C445	C	0.482933	0.232288	0.052369
C446	C	0.982933	0.732288	0.552369
H447	H	0.431666	0.284565	0.094664
H448	H	0.931666	0.784565	0.594664
H449	H	0.402926	0.220536	0.052446
H450	H	0.902926	0.720536	0.552446
H451	H	0.431645	0.284489	0.010087
H452	H	0.931645	0.784489	0.510087
H453	H	0.485455	0.204876	0.094675
H454	H	0.985455	0.704876	0.594675
H455	H	0.514104	0.268850	0.052292
H456	H	1.014104	0.768850	0.552292
H457	H	0.630601	-0.002188	0.149656
H458	H	1.130601	0.497812	0.649656
H459	H	0.630604	-0.002169	0.265039
H460	H	1.130604	0.497831	0.765039
H461	H	0.663667	0.036831	0.442235
H462	H	1.163667	0.536831	0.942235
O463	O	0.659673	0.226585	0.000047
O464	O	1.159673	0.726585	0.500047
C465	C	0.710157	0.301936	0.052415
C466	C	1.210157	0.801936	0.552415
C467	C	0.662017	0.261365	0.052391
C468	C	1.162017	0.761365	0.552391
H469	H	0.712072	0.330058	0.094738
H470	H	1.212072	0.830058	0.594738
H471	H	0.712097	0.330142	0.010153
H472	H	1.212097	0.830142	0.510153
H473	H	0.741961	0.275611	0.052390
H474	H	1.241961	0.775611	0.552390
H475	H	0.630186	0.287645	0.052438
H476	H	1.130186	0.787645	0.552438
H477	H	0.660119	0.233158	0.094650
H478	H	1.160119	0.733158	0.594650
O479	O	1.340375	0.026422	-0.000100
O480	O	1.840375	0.526422	0.499900
C481	C	1.335206	0.115378	-0.052459
C482	C	1.835206	0.615378	0.447541
C483	C	1.356300	0.057893	-0.052444
C484	C	1.856300	0.557893	0.447556
H485	H	1.348064	0.140833	-0.094780
H486	H	1.848064	0.640833	0.405220
H487	H	1.348091	0.140902	-0.010196
H488	H	1.848091	0.640902	0.489804
H489	H	1.293812	0.106933	-0.052427
H490	H	1.793812	0.606933	0.447573
H491	H	1.397694	0.066286	-0.052497
H492	H	1.897694	0.566286	0.447503
H493	H	1.343376	0.032387	-0.094703
H494	H	1.843376	0.532387	0.405297
H495	H	0.647270	0.767203	-0.000063
H496	H	1.147270	1.267203	0.499937
H497	H	1.057639	0.073606	-0.000011
H498	H	1.557639	0.573606	0.499989
H499	H	0.630632	-0.002147	0.850231
H500	H	1.130632	0.497853	1.350231
H501	H	0.510690	-0.143648	0.850260
H502	H	1.010690	0.356352	1.350260
O503	O	0.505466	-0.149831	0.729974
O504	O	1.005466	0.350169	1.229974
C505	C	0.439877	-0.227168	0.736727
C506	C	0.939877	0.272832	1.236727
C507	C	0.476247	-0.184239	0.771659
C508	C	0.976247	0.315761	1.271659
H509	H	0.416237	-0.254990	0.770414
H510	H	0.916237	0.245010	1.270414
H511	H	0.460580	-0.255493	0.706959
H512	H	0.960580	0.244507	1.206959
H513	H	0.415866	-0.202769	0.706938
H514	H	0.915866	0.297231	1.206938
H515	H	0.500267	-0.208591	0.801481
H516	H	1.000267	0.291409	1.301481
H517	H	0.455514	-0.155915	0.801388
H518	H	0.955514	0.344085	1.301388
H519	H	1.413005	-0.171370	-0.000049
H520	H	1.913005	0.328630	0.499951
H521	H	1.321553	-0.170277	-0.000039
H522	H	1.821553	0.329723	0.499961
O523	O	1.026772	-0.226975	-0.000003
O524	O	1.526772	0.273025	0.499997
C525	C	1.009519	-0.329935	-0.000035
C526	C	1.509519	0.170065	0.499965
C527	C	0.988433	-0.272445	-0.000057
C528	C	1.488433	0.227555	0.499943
H529	H	0.978533	-0.366712	-0.000092
H530	H	1.478533	0.133288	0.499908
H531	H	1.032794	-0.332858	0.042266
H532	H	1.532794	0.167142	0.542266
H533	H	1.032846	-0.332790	-0.042313
H534	H	1.532846	0.167210	0.457687
H535	H	0.965084	-0.269551	0.042192
H536	H	1.465084	0.230449	0.542192
H537	H	0.965185	-0.269546	-0.042386
H538	H	1.465185	0.230454	0.457614
O539	O	0.927423	-0.225693	-0.000115
O540	O	1.427423	0.274307	0.499885
C541	C	0.863567	-0.285308	-0.052494
C542	C	1.363567	0.214692	0.447506
C543	C	0.897920	-0.228520	-0.052464
C544	C	1.397920	0.271480	0.447536
H545	H	0.839712	-0.287617	-0.094820
H546	H	1.339712	0.212383	0.405180
H547	H	0.839621	-0.287636	-0.010236
H548	H	1.339621	0.212364	0.489764
H549	H	0.885965	-0.322734	-0.052467
H550	H	1.385965	0.177266	0.447533
H551	H	0.875561	-0.191061	-0.052513
H552	H	1.375561	0.308939	0.447487
H553	H	0.921867	-0.226241	-0.094719
H554	H	1.421867	0.273759	0.405281
H555	H	1.117428	0.072890	-0.000009
H556	H	1.617428	0.572890	0.499991
O557	O	0.800994	-0.172198	-0.000160
O558	O	1.300994	0.327802	0.499840
C559	C	0.850988	-0.233143	-0.052476
C560	C	1.350988	0.266857	0.447524
C561	C	0.829858	-0.175681	-0.052446
C562	C	1.329858	0.324319	0.447554
H563	H	0.874337	-0.235973	-0.094737
H564	H	1.374337	0.264027	0.405263
H565	H	0.820039	-0.269967	-0.052521
H566	H	1.320039	0.230033	0.447479
H567	H	0.874257	-0.236013	-0.010161
H568	H	1.374257	0.263987	0.489839
H569	H	0.806595	-0.172756	-0.094754
H570	H	1.306595	0.327244	0.405246
H571	H	0.860829	-0.138885	-0.052369
H572	H	1.360829	0.361115	0.447631
