data_functionalizedCrystal
_audit_creation_method	'MofGen! by Chris Wilmer'
_symmetry_space_group_name_H-M	'P1'
_symmetry_Int_Tables_number	1
_symmetry_cell_setting	triclinic
loop_
_symmetry_equiv_pos_as_xyz
  x,y,z
_cell_length_a	10.723023
_cell_length_b	10.540539
_cell_length_c	9.798715
_cell_angle_alpha	89.998989
_cell_angle_beta	89.996770
_cell_angle_gamma	84.496520
loop_
_atom_site_label
_atom_site_type_symbol
_atom_site_fract_x
_atom_site_fract_y
_atom_site_fract_z
O1	O	1.657276	0.178041	-0.113470
O2	O	2.157276	0.678041	0.386530
O3	O	1.294132	0.195085	-0.113475
O4	O	1.794132	0.695085	0.386525
O5	O	1.483989	0.001852	-0.113471
O6	O	1.983989	0.501852	0.386529
O7	O	1.467419	0.371274	-0.113474
O8	O	1.967419	0.871274	0.386526
O9	O	1.483975	0.001852	0.113511
O10	O	1.983975	0.501852	0.613511
O11	O	1.294118	0.195084	0.113507
O12	O	1.794118	0.695084	0.613507
O13	O	1.657262	0.178041	0.113512
O14	O	2.157262	0.678041	0.613512
Zn15	Zn	1.475688	0.186562	0.149548
Zn16	Zn	1.975688	0.686562	0.649548
Zn17	Zn	1.475707	0.186563	-0.149511
Zn18	Zn	1.975707	0.686563	0.350489
O19	O	1.467405	0.371273	0.113508
O20	O	1.967405	0.871273	0.613508
C21	C	1.247625	0.193844	0.000015
C22	C	1.747625	0.693844	0.500015
C23	C	1.109069	0.190134	0.000013
C24	C	1.609069	0.690134	0.500013
C25	C	1.047289	0.188480	0.117596
C26	C	1.547289	0.688480	0.617596
C27	C	0.904084	0.184645	0.117596
C28	C	1.404084	0.684645	0.617596
C29	C	1.482739	-0.045450	0.000018
C30	C	1.982739	0.454550	0.500018
C31	C	1.479022	-0.186397	0.000010
C32	C	1.979022	0.313603	0.500010
C33	C	1.336564	-0.369750	-0.000501
C34	C	1.836564	0.130250	0.499499
C35	C	1.340333	-0.223134	0.000010
C36	C	1.840333	0.276866	0.500010
C37	C	1.545757	-0.248089	0.129629
C38	C	2.045757	0.251911	0.629629
C39	C	1.541024	-0.394631	0.129738
C40	C	2.041024	0.105369	0.629738
C41	C	1.543861	-0.395150	-0.128383
C42	C	2.043861	0.104850	0.371617
C43	C	1.545138	-0.248169	-0.130096
C44	C	2.045138	0.251831	0.369904
C45	C	1.703769	0.179281	0.000019
C46	C	2.203769	0.679281	0.500019
C47	C	1.842326	0.182991	0.000012
C48	C	2.342326	0.682991	0.500012
C49	C	1.468655	0.418576	0.000016
C50	C	1.968655	0.918576	0.500016
C51	C	1.472373	0.559522	0.000015
C52	C	1.972373	1.059522	0.500015
N53	N	1.475684	0.186561	0.353648
N54	N	1.975684	0.686561	0.853648
N55	N	1.475720	0.186554	-0.353611
N56	N	1.975720	0.686554	0.146389
C57	C	1.555400	0.105071	0.421426
C58	C	2.055400	0.605071	0.921426
C59	C	1.555420	0.105066	0.578589
C60	C	2.055420	0.605066	1.078589
H61	H	0.850953	0.183229	0.218263
H62	H	1.350953	0.683229	0.718263
H63	H	1.100416	0.189895	0.218262
H64	H	1.600416	0.689895	0.718262
H65	H	1.640767	-0.442651	0.135620
H66	H	2.140767	0.057349	0.635620
H67	H	1.491691	-0.422805	0.226630
H68	H	1.991691	0.077195	0.726630
F69	F	1.644633	0.013878	0.654771
F70	F	2.144633	0.513878	1.154771
H71	H	1.055943	0.188708	-0.100653
H72	H	1.555943	0.688708	0.399347
H73	H	1.407473	0.256330	0.588111
H74	H	1.907473	0.756330	1.088111
H75	H	0.895446	0.184421	-0.100660
H76	H	1.395446	0.684421	0.399340
H77	H	1.287821	-0.180503	-0.092906
H78	H	1.787821	0.319497	0.407094
H79	H	1.281784	-0.398321	-0.093453
H80	H	1.781784	0.101679	0.406547
F81	F	1.265051	-0.409624	0.119979
F82	F	1.765051	0.090376	0.619979
H83	H	1.407447	0.256321	0.411970
H84	H	1.907447	0.756321	0.911970
H85	H	1.287441	-0.181350	0.093079
H86	H	1.787441	0.318650	0.593079
F87	F	1.481815	-0.194137	-0.255449
F88	F	1.981815	0.305863	0.244551
H89	H	1.647606	-0.225788	0.134450
H90	H	2.147606	0.274212	0.634450
H91	H	1.646253	-0.224000	-0.137922
H92	H	2.146253	0.276000	0.362078
F93	F	1.485150	-0.192382	0.255708
F94	F	1.985150	0.307618	0.755708
H95	H	1.498980	-0.426680	-0.226625
H96	H	1.998980	0.073320	0.273375
H97	H	1.644035	-0.442428	-0.129253
H98	H	2.144035	0.057572	0.370747
H99	H	1.623629	0.035301	0.363105
H100	H	2.123629	0.535301	0.863105
