data_functionalizedCrystal
_audit_creation_method	'MofGen! by Chris Wilmer'
_symmetry_space_group_name_H-M	'P1'
_symmetry_Int_Tables_number	1
_symmetry_cell_setting	triclinic
loop_
_symmetry_equiv_pos_as_xyz
  x,y,z
_cell_length_a	6.817900
_cell_length_b	9.514072
_cell_length_c	10.943624
_cell_angle_alpha	88.513180
_cell_angle_beta	108.838799
_cell_angle_gamma	118.843421
loop_
_atom_site_label
_atom_site_type_symbol
_atom_site_fract_x
_atom_site_fract_y
_atom_site_fract_z
V1	V	-4.173025	-0.222162	-0.403562
O2	O	-4.070428	0.010719	-0.394839
O3	O	-4.207528	-0.440552	-0.401803
O4	O	-4.150098	-0.218726	-0.579113
O5	O	-4.128256	-0.212643	-0.216302
V6	V	-4.642610	-0.194309	-0.381043
O7	O	-4.464858	-0.283260	-0.452961
O8	O	-4.800974	-0.133211	-0.331645
O9	O	-4.384900	0.024081	-0.382802
O10	O	-4.862603	-0.427190	-0.389766
O11	O	-4.804775	-0.203829	-0.568303
O12	O	-4.442331	-0.197745	-0.205492
C13	C	-4.071873	-0.493791	-0.395695
C14	C	-4.181540	-0.672327	-0.395427
C15	C	-3.998612	-0.210828	-0.621870
C16	C	-4.061699	-0.209463	-0.765390
C17	C	-3.904149	-0.200275	-0.842496
C18	C	-4.128826	-0.336665	-0.949107
C19	C	-3.949461	-0.070657	-0.914509
C20	C	-4.285620	-0.345982	-0.870125
C21	C	-4.106143	-0.079853	-0.835503
C22	C	-4.330967	-0.216283	-0.942085
C23	C	-4.183900	0.077311	-0.388907
C24	C	-4.053473	0.255846	-0.389183
C25	C	-4.257159	-0.205648	-0.162729
C26	C	-4.173308	-0.207005	-0.019207
H27	H	-4.375122	-0.747436	-0.400613
N28	N	-3.810616	-0.649943	-0.382631
N29	N	-3.659871	-0.536811	-0.289772
H30	H	-3.488342	-0.470264	-0.285141
N31	N	-3.677214	-0.192023	-0.787960
N32	N	-3.648429	-0.301081	-0.826215
H33	H	-3.488163	-0.295262	-0.787700
N34	N	-4.141757	-0.472879	-1.011155
N35	N	-4.286545	-0.613997	-1.002333
H36	H	-4.295671	-0.710197	-1.046151
N37	N	-4.463188	-0.492103	-0.845008
N38	N	-4.443010	-0.516783	-0.729989
H39	H	-4.568411	-0.619980	-0.712245
H40	H	-4.095805	0.028722	-0.786025
H41	H	-4.512043	-0.223083	-0.985360
N42	N	-3.771970	0.075275	-0.939884
N43	N	-3.559479	0.106592	-0.902806
H44	H	-3.434120	0.209637	-0.920744
