data_functionalizedCrystal
_audit_creation_method	'MofGen! by Chris Wilmer'
_symmetry_space_group_name_H-M	'P1'
_symmetry_Int_Tables_number	1
_symmetry_cell_setting	triclinic
loop_
_symmetry_equiv_pos_as_xyz
  x,y,z
_cell_length_a	15.944564
_cell_length_b	15.944551
_cell_length_c	14.421503
_cell_angle_alpha	89.999260
_cell_angle_beta	89.990021
_cell_angle_gamma	83.501336
loop_
_atom_site_label
_atom_site_type_symbol
_atom_site_fract_x
_atom_site_fract_y
_atom_site_fract_z
O1	O	-0.108336	-1.114529	0.077017
O2	O	-0.121692	-0.869980	0.077041
O3	O	0.007260	-0.998927	0.077020
O4	O	-0.237288	-0.985582	0.077039
O5	O	0.007274	-0.998916	-0.077204
O6	O	-0.121679	-0.869969	-0.077183
O7	O	-0.108323	-1.114518	-0.077206
Cu8	Cu	-0.114999	-0.992242	-0.091276
Cu9	Cu	-0.115016	-0.992256	0.091111
O10	O	-0.237275	-0.985571	-0.077185
C11	C	-0.121131	-0.838681	-0.000068
C12	C	-0.119469	-0.745434	-0.000059
C13	C	0.038560	-0.998366	-0.000092
C14	C	0.131806	-0.996699	-0.000093
C15	C	0.346661	-0.912785	-0.000073
C16	C	0.407685	-0.951739	-0.076119
C17	C	0.302531	-0.993684	-0.000086
C18	C	0.407655	-0.951769	0.075933
C19	C	0.467442	-0.990766	-0.000076
C20	C	0.362326	-1.032660	-0.076195
C21	C	0.362290	-1.032679	0.075926
C22	C	0.423296	-1.071692	-0.000138
C23	C	0.207529	-0.995363	-0.000093
C24	C	0.562443	-0.989093	-0.000076
C25	C	0.731423	-0.986121	-0.000072
C26	C	0.638173	-0.987753	-0.000068
C27	C	-0.108884	-1.145818	-0.000095
C28	C	-0.110546	-1.239064	-0.000098
N29	N	-0.114987	-0.992238	-0.219557
C30	C	-0.035565	-0.530574	-0.000084
C31	C	-0.074534	-0.469561	0.075959
C32	C	-0.116462	-0.574708	-0.000071
C33	C	-0.074539	-0.469572	-0.076093
C34	C	-0.113551	-0.409796	-0.000085
C35	C	-0.155453	-0.514924	0.076036
C36	C	-0.155447	-0.514941	-0.076085
C37	C	-0.194475	-0.453946	-0.000023
C38	C	-0.118136	-0.669711	-0.000061
C39	C	-0.111883	-0.314794	-0.000088
C40	C	-0.054885	-1.051416	-0.530996
C41	C	-0.130555	-1.068407	-0.469156
C42	C	-0.115011	-0.992257	-0.591446
C43	C	-0.039331	-0.975297	-0.469193
C44	C	-0.114995	-0.992250	-0.408725
C45	C	-0.190720	-1.009286	-0.530967
C46	C	-0.099446	-0.916143	-0.531010
C47	C	-0.175171	-0.933101	-0.469197
C48	C	-0.115019	-0.992263	-0.696708
C49	C	-0.114996	-0.992243	-0.303466
N50	N	-0.115021	-0.992266	0.219392
H51	H	0.427799	-0.917517	-0.140403
C52	C	-0.148339	-1.155353	-0.432443
H53	H	-0.105574	-1.197328	-0.453597
H54	H	-0.201682	-1.167808	-0.454502
H55	H	-0.148712	-1.154567	-0.366575
C56	C	0.434786	-0.905541	0.162782
H57	H	0.472457	-0.942971	0.198589
H58	H	0.386400	-0.886802	0.198826
H59	H	0.462254	-0.858332	0.144502
H60	H	0.342342	-1.066843	-0.140555
H61	H	0.456454	-1.138898	-0.000188
C62	C	-0.277187	-1.028769	-0.567463
H63	H	-0.276656	-1.028682	-0.633337
H64	H	-0.319907	-0.986994	-0.545810
H65	H	-0.288335	-1.082666	-0.545770
C66	C	-0.243921	-0.865513	-0.432761
H67	H	-0.297617	-0.877699	-0.454028
H68	H	-0.233326	-0.811588	-0.454877
H69	H	-0.243243	-0.865569	-0.366892
C70	C	-0.028295	-0.442430	-0.162940
H71	H	0.028150	-0.468944	-0.162844
H72	H	-0.028018	-0.382886	-0.162621
H73	H	-0.056479	-0.458736	-0.216937
H74	H	-0.004102	-1.101481	-0.558129
H75	H	0.342154	-1.066872	0.140213
C76	C	-0.081636	-0.829219	-0.567749
H77	H	-0.128123	-0.805438	-0.603970
H78	H	-0.032148	-0.835603	-0.604942
H79	H	-0.073656	-0.792982	-0.516992
H80	H	-0.189629	-0.535069	-0.140372
C81	C	0.055132	-0.575593	0.000024
H82	H	0.083732	-0.560178	0.054123
H83	H	0.084180	-0.559434	-0.053444
H84	H	0.053430	-0.634956	-0.000515
H85	H	0.024663	-0.960954	-0.442056
H86	H	0.313354	-0.845638	-0.000143
H87	H	-0.040324	-0.449455	0.140244
H88	H	-0.189649	-0.534918	0.140394
C89	C	-0.285260	-0.409147	0.000040
H90	H	-0.313862	-0.424663	0.054107
H91	H	-0.314204	-0.425371	-0.053462
H92	H	-0.283718	-0.349762	-0.000467
