data_functionalizedCrystal
_audit_creation_method	'MofGen! by Chris Wilmer'
_symmetry_space_group_name_H-M	'P1'
_symmetry_Int_Tables_number	1
_symmetry_cell_setting	triclinic
loop_
_symmetry_equiv_pos_as_xyz
  x,y,z
_cell_length_a	12.594516
_cell_length_b	12.827893
_cell_length_c	12.827885
_cell_angle_alpha	90.021189
_cell_angle_beta	89.971946
_cell_angle_gamma	89.985928
loop_
_atom_site_label
_atom_site_type_symbol
_atom_site_fract_x
_atom_site_fract_y
_atom_site_fract_z
Zn1	Zn	-0.423747	-1.597665	-0.590915
Zn2	Zn	-0.601763	-1.597557	-0.416180
Zn3	Zn	-0.423793	-1.422906	-0.416182
Zn4	Zn	-0.601678	-1.422889	-0.590874
O5	O	-0.512745	-1.510254	-0.503538
O6	O	-0.447378	-1.743887	-0.567752
O7	O	-0.578209	-1.574351	-0.269944
O8	O	-0.274841	-1.446140	-0.439379
O9	O	-0.578165	-1.743807	-0.439375
O10	O	-0.274807	-1.574535	-0.567754
O11	O	-0.447456	-1.446036	-0.269946
O12	O	-0.447373	-1.276668	-0.439340
O13	O	-0.578020	-1.446112	-0.737116
O14	O	-0.578064	-1.276656	-0.567685
O15	O	-0.447295	-1.574519	-0.737145
O16	O	-0.750697	-1.574335	-0.439336
O17	O	-0.750635	-1.446007	-0.567683
C18	C	-0.512715	-1.238744	-0.503509
C19	C	-0.512728	-1.122591	-0.503521
C20	C	-0.789286	-1.510186	-0.503528
C21	C	-0.907591	-1.510252	-0.503558
C22	C	-0.577497	-1.070828	-0.566931
C23	C	-0.577512	-0.950778	-0.566945
C24	C	-0.976849	-1.440448	-0.573317
C25	C	-1.047717	-1.414986	-0.477961
C26	C	-1.047523	-1.535809	-0.598931
C27	C	-0.976901	-1.484740	-0.408152
C28	C	-0.976700	-1.605607	-0.529186
C29	C	-1.047536	-1.580182	-0.433764
C30	C	-0.235124	-1.510352	-0.503571
C31	C	-0.116819	-1.510393	-0.503585
C32	C	-0.512643	-1.510325	-0.776108
C33	C	-0.512599	-1.510356	-0.892261
C34	C	-0.512767	-0.782824	-0.503559
C35	C	-0.512754	-0.898978	-0.503547
C36	C	-0.447900	-1.573902	-0.944061
C37	C	-0.447853	-1.573935	-1.064111
C38	C	-0.512770	-1.510244	-0.232028
C39	C	-0.512514	-1.510416	-0.115875
H40	H	-0.632934	-1.115388	-0.621212
H41	H	-0.632967	-0.906263	-0.621230
H42	H	-0.567949	-1.455969	-0.936791
O43	O	-0.446743	-0.952184	-0.438724
C44	C	-0.507314	-1.015257	-0.371161
H45	H	-0.588034	-1.031508	-0.407898
H46	H	-0.464007	-1.092053	-0.357287
H47	H	-0.518880	-0.973216	-0.293667
O48	O	-0.939876	-1.458875	-0.311989
C49	C	-0.827934	-1.459095	-0.313141
H50	H	-0.798591	-1.447407	-0.396402
H51	H	-0.797117	-1.393181	-0.261782
H52	H	-0.797573	-1.536870	-0.282170
H53	H	-0.457283	-1.078031	-0.449249
O54	O	-0.939632	-1.701758	-0.555132
C55	C	-1.025943	-1.769072	-0.574238
H56	H	-1.098900	-1.721110	-0.595817
H57	H	-1.005312	-1.823919	-0.641200
H58	H	-1.043408	-1.816617	-0.501150
H59	H	-0.945810	-1.381312	-0.632224
O60	O	-1.084469	-1.650546	-0.363258
C61	C	-1.147548	-1.598940	-0.288486
H62	H	-1.178821	-1.522940	-0.322791
H63	H	-1.217206	-1.650899	-0.265691
H64	H	-1.097626	-1.581252	-0.216512
H65	H	-1.078934	-1.334412	-0.456307
O66	O	-1.084407	-1.561414	-0.695215
C67	C	-1.048412	-1.487522	-0.768487
H68	H	-0.973942	-1.447682	-0.737477
H69	H	-1.029248	-1.528437	-0.845128
H70	H	-1.112939	-1.426698	-0.782108
O71	O	-0.381907	-1.638928	-0.891065
C72	C	-0.405166	-1.743105	-0.917648
H73	H	-0.445981	-1.745348	-0.996917
H74	H	-0.328350	-1.789996	-0.921287
H75	H	-0.459971	-1.778210	-0.856237
H76	H	-0.392465	-1.628343	-1.108657
O77	O	-0.578655	-1.445653	-1.062630
C78	C	-0.647389	-1.505171	-0.999515
H79	H	-0.609849	-1.584390	-0.983288
H80	H	-0.661607	-1.462654	-0.922710
H81	H	-0.726291	-1.516597	-1.041508
