data_functionalizedCrystal
_audit_creation_method	'MofGen! by Chris Wilmer'
_symmetry_space_group_name_H-M	'P1'
_symmetry_Int_Tables_number	1
_symmetry_cell_setting	triclinic
loop_
_symmetry_equiv_pos_as_xyz
  x,y,z
_cell_length_a	16.956984
_cell_length_b	23.532357
_cell_length_c	16.053802
_cell_angle_alpha	92.543277
_cell_angle_beta	87.610701
_cell_angle_gamma	79.440855
loop_
_atom_site_label
_atom_site_type_symbol
_atom_site_fract_x
_atom_site_fract_y
_atom_site_fract_z
O1	O	1.061232	0.021048	-0.069436
O2	O	0.828911	0.041051	-0.069440
O3	O	0.952097	-0.052186	-0.069421
O4	O	0.938046	0.114285	-0.069455
O5	O	0.945316	-0.047074	0.069437
O6	O	0.822130	0.046163	0.069418
O7	O	1.054451	0.026160	0.069422
Zn8	Zn	0.937214	0.036973	0.091467
Zn9	Zn	0.946148	0.030238	-0.091485
O10	O	0.931265	0.119397	0.069403
C11	C	0.795804	0.044631	-0.000011
C12	C	0.707259	0.047676	-0.000012
C13	C	0.675590	-0.003239	0.000000
C14	C	0.592392	-0.000375	-0.000006
C15	C	0.540863	0.053406	-0.000019
C16	C	0.572537	0.104326	-0.000033
C17	C	0.655734	0.101460	-0.000033
C18	C	0.290975	0.067589	-0.000028
C19	C	0.207773	0.070450	-0.000026
C20	C	0.227633	-0.034251	0.000000
C21	C	0.310831	-0.037111	0.000006
C22	C	0.342498	0.013808	-0.000013
N23	N	0.455821	0.056336	-0.000023
N24	N	0.427539	0.010878	-0.000015
C25	C	0.948355	-0.070831	0.000011
C26	C	0.947298	-0.134004	0.000019
C27	C	0.944361	-0.528518	-0.075718
C28	C	0.943357	-0.587874	-0.075723
O29	O	0.945954	-0.620937	-0.140095
N30	N	0.939163	-0.614778	-0.000032
C31	C	0.935965	-0.582320	0.075668
O32	O	0.932305	-0.610653	0.140048
C33	C	0.936964	-0.522964	0.075672
C34	C	0.941166	-0.496065	-0.000024
C35	C	0.948563	-0.501619	-0.151407
C36	C	0.949568	-0.442267	-0.151402
C37	C	0.946373	-0.409814	-0.075708
C38	C	0.942172	-0.436713	-0.000018
C39	C	0.933760	-0.490507	0.151371
C40	C	0.934758	-0.431147	0.151368
C41	C	0.938961	-0.404248	0.075673
C42	C	0.939982	-0.344908	0.075681
N43	N	0.944176	-0.318005	-0.000009
C44	C	0.947372	-0.350458	-0.075704
C45	C	0.933867	-0.706972	0.075654
C46	C	0.932874	-0.766327	0.075651
C47	C	0.940264	-0.771878	-0.075740
C48	C	0.941263	-0.712522	-0.075736
C49	C	0.938061	-0.680069	-0.000037
C50	C	0.949484	-0.225814	-0.075687
C51	C	0.950493	-0.166457	-0.075676
C52	C	0.943098	-0.160911	0.075715
C53	C	0.942094	-0.220264	0.075703
C54	C	0.945284	-0.252714	-0.000004
O55	O	0.937384	-0.311808	0.140021
O56	O	0.951021	-0.322115	-0.140073
C57	C	1.087558	0.022580	-0.000009
C58	C	1.176104	0.019534	-0.000014
C59	C	0.935007	0.138042	-0.000031
C60	C	0.936065	0.201215	-0.000044
N61	N	0.931123	0.041570	0.216326
N62	N	0.952245	0.025637	-0.216344
C63	C	0.983558	0.001909	0.260028
C64	C	0.979305	0.005130	0.347434
C65	C	0.922620	0.048013	0.391137
C66	C	0.870180	0.087675	0.347428
C67	C	0.874430	0.084452	0.260024
C68	C	0.904055	0.062076	0.652543
C69	C	0.899810	0.065297	0.739954
C70	C	1.008935	-0.017249	0.739954
C71	C	1.013183	-0.020467	0.652548
C72	C	0.960740	0.019194	0.608847
N73	N	0.918273	0.051306	0.480480
N74	N	0.965084	0.015897	0.519505
H75	H	0.566612	-0.041836	0.000003
H76	H	0.930339	-0.512397	0.213010
C77	C	1.066612	-0.060877	0.788031
N78	N	1.110054	-0.093741	0.824244
H79	H	0.853648	0.100220	0.775533
C80	C	0.931239	-0.395452	0.234646
N81	N	0.928591	-0.368569	0.297371
C82	C	0.846468	0.105772	0.604484
N83	N	0.803128	0.138712	0.568283
H84	H	0.201841	-0.075707	0.000006
C85	C	0.807818	0.134842	0.395504
N86	N	0.760846	0.170369	0.431714
H87	H	0.831731	0.116746	0.224443
H88	H	0.938679	-0.242167	0.137341
H89	H	0.717539	-0.047034	0.000014
C90	C	0.151093	0.129616	-0.000055
N91	N	0.108402	0.174177	-0.000080
H92	H	0.316748	0.109051	-0.000049
C93	C	0.367507	-0.096275	0.000020
N94	N	0.410195	-0.140837	0.000033
H95	H	0.530576	0.148115	-0.000049
H96	H	0.681517	0.142922	-0.000039
H97	H	0.940500	-0.134478	0.137343
C98	C	0.954182	-0.412685	-0.234674
N99	N	0.957654	-0.390407	-0.297398
C100	C	0.952113	-0.537313	-0.234684
N101	N	0.954805	-0.564197	-0.297414
H102	H	0.953917	-0.144559	-0.137318
H103	H	1.059341	-0.055385	0.616967
H104	H	1.029720	-0.033008	0.224451
C105	C	0.953008	-0.261502	-0.158970
N106	N	0.955671	-0.288384	-0.221698
C107	C	1.036969	-0.038513	0.395502
N108	N	1.080396	-0.071391	0.431707
H109	H	0.942863	-0.798311	-0.137374
C110	C	0.945879	-0.682938	-0.159006
N111	N	0.949352	-0.660658	-0.221729
H112	H	0.931261	-0.680552	0.137301
C113	C	0.928259	-0.795910	0.158922
N114	N	0.924776	-0.818189	0.221644
