data_functionalizedCrystal
_audit_creation_method	'MofGen! by Chris Wilmer'
_symmetry_space_group_name_H-M	'P1'
_symmetry_Int_Tables_number	1
_symmetry_cell_setting	triclinic
loop_
_symmetry_equiv_pos_as_xyz
  x,y,z
_cell_length_a	15.995292
_cell_length_b	15.995350
_cell_length_c	26.210047
_cell_angle_alpha	89.990744
_cell_angle_beta	89.993431
_cell_angle_gamma	96.519505
loop_
_atom_site_label
_atom_site_type_symbol
_atom_site_fract_x
_atom_site_fract_y
_atom_site_fract_z
O1	O	1.111000	-0.107705	0.042440
O2	O	0.867218	-0.121083	0.042438
O3	O	0.995773	0.007495	0.042439
O4	O	0.982445	-0.236283	0.042439
O5	O	0.995794	0.007519	-0.042419
O6	O	0.867239	-0.121059	-0.042420
O7	O	1.111021	-0.107681	-0.042418
Cu8	Cu	0.989132	-0.114368	-0.050167
Cu9	Cu	0.989107	-0.114396	0.050187
O10	O	0.982466	-0.236259	-0.042419
C11	C	0.836033	-0.120527	0.000009
C12	C	0.743080	-0.118894	0.000008
C13	C	0.405341	-0.112893	0.000014
C14	C	0.428654	-0.205697	0.000203
C15	C	0.525329	-0.207461	0.000010
C16	C	0.572897	-0.115871	0.000011
C17	C	0.543807	-0.069459	-0.048446
C18	C	0.447017	-0.068342	-0.048484
C19	C	0.447138	-0.066474	0.048016
C20	C	0.543630	-0.069914	0.048654
C21	C	0.667593	-0.117549	0.000008
C22	C	0.310646	-0.111212	0.000013
C23	C	0.995232	0.038702	0.000011
C24	C	0.993580	0.131652	0.000013
C25	C	1.142206	-0.108237	0.000013
C26	C	1.235159	-0.109870	0.000017
N27	N	0.989090	-0.114410	0.120771
C28	C	0.983006	-0.267466	0.000011
C29	C	0.984658	-0.360416	0.000011
C30	C	0.987648	0.469398	0.000012
C31	C	0.896094	0.421945	0.000201
C32	C	0.897746	0.325255	0.000010
C33	C	0.990591	0.301838	0.000013
C34	C	1.035760	0.342939	-0.048444
C35	C	1.033461	0.439574	-0.048485
C36	C	1.035328	0.439905	0.048015
C37	C	1.035306	0.342960	0.048655
C38	C	0.992259	0.207141	0.000012
C39	C	0.985983	0.564095	0.000009
N40	N	0.989155	-0.114347	-0.120751
C41	C	1.046170	-0.057567	0.473286
C42	C	1.046183	-0.057549	0.686944
O43	O	1.094710	-0.009250	0.714566
N44	N	0.989150	-0.114364	0.713665
C45	C	0.932114	-0.171190	0.686968
O46	O	0.883611	-0.219520	0.714598
C47	C	0.932107	-0.171211	0.473311
C48	C	0.989137	-0.114387	0.446592
C49	C	1.103197	-0.000748	0.446567
C50	C	1.103190	-0.000750	0.393156
C51	C	1.046157	-0.057571	0.366463
C52	C	0.989131	-0.114389	0.393181
C53	C	0.875076	-0.228041	0.446615
C54	C	0.875080	-0.228043	0.393197
C55	C	0.932111	-0.171219	0.366479
C56	C	0.932091	-0.171212	0.313076
N57	N	0.989123	-0.114397	0.286355
C58	C	1.046156	-0.057577	0.313049
C59	C	0.932121	-0.171174	0.799141
C60	C	0.932122	-0.171168	0.852556
C61	C	1.046192	-0.057528	0.852528
C62	C	1.046186	-0.057530	0.799113
C63	C	0.989154	-0.114360	0.772421
C64	C	1.046137	-0.057585	0.200881
C65	C	1.046123	-0.057589	0.147464
C66	C	0.932057	-0.171232	0.147497
C67	C	0.932068	-0.171225	0.200908
C68	C	0.989115	-0.114398	0.227599
O69	O	0.883595	-0.219491	0.285421
O70	O	1.094665	-0.009267	0.285409
C71	C	1.046177	-0.057565	0.526697
C72	C	0.989151	-0.114384	0.553415
C73	C	0.932118	-0.171204	0.526722
C74	C	0.989151	-0.114377	0.606829
C75	C	1.046184	-0.057557	0.633523
C76	C	1.103217	-0.000742	0.606802
C77	C	1.103210	-0.000744	0.553390
C78	C	0.875085	-0.228019	0.553443
C79	C	0.875096	-0.228011	0.606854
C80	C	0.932129	-0.171191	0.633548
H81	H	0.420209	-0.100465	-0.084707
H82	H	0.862019	0.297393	-0.034786
O83	O	0.427732	0.021785	-0.051406
H84	H	0.487516	0.064380	-0.052790
O85	O	0.870628	-0.232495	0.770354
H86	H	0.830980	-0.272000	0.797913
O87	O	1.107708	0.003745	0.770296
H88	H	1.147368	0.043249	0.797836
O89	O	1.122493	0.482320	-0.051406
H90	H	1.166998	0.433942	-0.052788
O91	O	0.570388	-0.112116	-0.096218
H92	H	0.513824	-0.134661	-0.119022
O93	O	0.995697	0.467084	0.096676
H94	H	0.929059	0.438926	0.098398
H95	H	1.092629	-0.011261	0.874271
H96	H	0.885619	-0.217493	0.125755
O97	O	0.813573	-0.289295	0.635671
H98	H	0.848732	-0.330075	0.660010
H99	H	1.102831	0.471680	0.048343
O100	O	0.847608	0.446479	0.046228
H101	H	0.827963	0.389677	0.069523
H102	H	0.544347	-0.243803	0.034747
O103	O	0.870607	-0.232451	0.881372
H104	H	0.830958	-0.271966	0.853831
H105	H	1.149644	0.045522	0.468296
H106	H	1.002281	0.315694	0.084502
H107	H	1.103972	0.328828	-0.050244
H108	H	1.149653	0.045526	0.628544
H109	H	1.092564	-0.011314	0.125712
O110	O	0.847845	0.447897	-0.045573
H111	H	0.783312	0.414042	-0.045069
O112	O	0.994236	0.305355	-0.096216
H113	H	0.941434	0.257416	-0.085569
H114	H	1.149631	0.045518	0.371405
O115	O	0.390237	-0.252800	-0.045573
H116	H	0.346990	-0.307832	-0.032521
H117	H	1.103012	0.327611	0.051583
H118	H	0.543741	-0.244008	-0.034785
O119	O	0.850712	0.287580	0.046020
H120	H	0.851850	0.218327	0.045931
H121	H	1.000540	0.457879	-0.084709
H122	H	1.092591	-0.011312	0.222606
H123	H	0.828637	-0.274313	0.468361
O124	O	0.813575	-0.289348	0.364406
H125	H	0.773924	-0.328855	0.391962
O126	O	0.870557	-0.232509	0.229731
H127	H	0.830901	-0.272022	0.202193
O128	O	0.586030	0.019813	-0.050844
H129	H	0.628299	0.032078	-0.017445
H130	H	0.433144	0.001836	0.048344
H131	H	0.828643	-0.274290	0.531713
O132	O	0.391547	-0.253110	0.046227
H133	H	0.356087	-0.211041	0.069458
O134	O	0.409705	-0.104986	0.096671
H135	H	0.420327	-0.172307	0.098381
H136	H	1.149650	0.045527	0.531640
H137	H	0.562191	-0.103706	0.084502
H138	H	0.576599	-0.003063	0.051581
