data_functionalizedCrystal
_audit_creation_method	'MofGen! by Chris Wilmer'
_symmetry_space_group_name_H-M	'P1'
_symmetry_Int_Tables_number	1
_symmetry_cell_setting	triclinic
loop_
_symmetry_equiv_pos_as_xyz
  x,y,z
_cell_length_a	14.971482
_cell_length_b	19.188930
_cell_length_c	17.666332
_cell_angle_alpha	90.011603
_cell_angle_beta	90.008794
_cell_angle_gamma	83.378695
loop_
_atom_site_label
_atom_site_type_symbol
_atom_site_fract_x
_atom_site_fract_y
_atom_site_fract_z
O1	O	1.186472	0.090975	0.062947
O2	O	0.926014	0.101874	0.062952
O3	O	1.063759	-0.005207	0.062935
O4	O	1.048727	0.198056	0.062965
O5	O	1.063735	-0.005213	-0.062962
O6	O	0.925990	0.101868	-0.062945
O7	O	1.186448	0.090969	-0.062949
Cu8	Cu	1.056217	0.096418	-0.074442
Cu9	Cu	1.056245	0.096425	0.074445
O10	O	1.048703	0.198050	-0.062932
C11	C	0.892680	0.101384	0.000004
C12	C	0.793390	0.099925	0.000005
C13	C	0.746736	0.099234	-0.068622
C14	C	0.653445	0.097852	-0.068623
C15	C	0.606809	0.097165	0.000004
C16	C	0.653470	0.097854	0.068637
C17	C	0.746760	0.099231	0.068637
C18	C	0.459023	0.094985	0.068631
C19	C	0.365726	0.093609	0.068631
C20	C	0.365708	0.093606	-0.068629
C21	C	0.458998	0.094983	-0.068628
C22	C	0.505653	0.095673	0.000005
C23	C	1.063261	-0.031222	-0.000016
C24	C	1.061799	-0.108732	-0.000022
C25	C	1.142624	-0.153396	-0.000027
C26	C	1.141251	-0.226224	-0.000015
C27	C	1.059049	-0.254385	-0.000013
C28	C	0.978214	-0.209710	-0.000004
C29	C	0.979589	-0.136884	-0.000008
N30	N	0.996207	-0.362593	-0.042857
N31	N	0.994906	-0.431776	-0.042854
C32	C	1.054901	-0.473807	0.000002
N33	N	1.116259	-0.444042	0.042847
N34	N	1.117562	-0.374854	0.042840
C35	C	1.057549	-0.333352	-0.000008
C36	C	1.134242	-0.597441	0.000011
C37	C	1.132866	-0.670270	0.000028
C38	C	0.969826	-0.653754	0.000032
C39	C	0.971205	-0.580926	0.000023
C40	C	1.053415	-0.552774	0.000009
C41	C	1.219782	0.091459	0.000000
C42	C	1.319072	0.092919	0.000004
C43	C	1.049202	0.224066	0.000020
C44	C	1.050663	0.301575	0.000032
N45	N	1.056203	0.096413	-0.179162
C46	C	1.117217	0.049021	-0.218779
C47	C	1.117222	0.049018	-0.298027
C48	C	1.056222	0.096418	-0.337654
C49	C	0.995198	0.143814	-0.298027
C50	C	0.995188	0.143812	-0.218781
N51	N	1.044595	0.158188	-0.462063
N52	N	1.044609	0.158189	-0.537344
C53	C	1.056246	0.096428	-0.576418
N54	N	1.067885	0.034665	-0.537368
N55	N	1.067875	0.034666	-0.462080
C56	C	1.056225	0.096426	-0.423583
C57	C	1.117268	0.049029	-0.701965
C58	C	1.117267	0.049024	-0.781214
C59	C	0.995247	0.143827	-0.781212
C60	C	0.995244	0.143825	-0.701965
C61	C	1.056259	0.096427	-0.662346
N62	N	1.056266	0.096425	0.179165
H63	H	0.497006	0.095547	0.124519
C64	C	1.183564	-0.002474	-0.340915
C65	C	1.237005	-0.043975	-0.289257
C66	C	1.298134	-0.091412	-0.328735
H67	H	1.151611	-0.031644	-0.371846
H68	H	1.220747	0.022674	-0.371800
H69	H	1.199827	-0.069122	-0.258385
H70	H	1.268979	-0.014825	-0.258325
H71	H	1.335317	-0.066264	-0.359620
H72	H	1.266173	-0.120577	-0.359664
H73	H	1.334407	-0.119572	-0.293691
H74	H	0.615492	0.097290	0.124514
H75	H	0.913770	-0.100517	-0.000004
C76	C	1.223403	-0.566734	-0.000032
C77	C	1.207310	-0.493395	-0.000061
C78	C	1.289423	-0.465087	-0.000111
H79	H	1.256747	-0.581972	0.043860
H80	H	1.256673	-0.582035	-0.043951
H81	H	1.174054	-0.478101	0.043854
H82	H	1.173979	-0.478138	-0.043950
H83	H	1.322692	-0.480387	-0.044030
H84	H	1.322761	-0.480329	0.043782
H85	H	1.278514	-0.415324	-0.000138
H86	H	0.784745	0.099794	0.124520
H87	H	1.166948	0.010432	-0.669706
C88	C	0.929010	0.195390	-0.340949
C89	C	0.943218	0.264019	-0.321634
C90	C	0.882249	0.311548	-0.361149
H91	H	0.937688	0.188704	-0.393831
H92	H	0.869329	0.187769	-0.327960
H93	H	1.002885	0.271637	-0.334628
H94	H	0.934532	0.270727	-0.268758
H95	H	0.822568	0.303927	-0.348160
H96	H	0.890932	0.304855	-0.414029
H97	H	0.891875	0.358117	-0.348044
C98	C	0.880512	-0.684224	-0.000082
C99	C	0.831642	-0.661530	-0.064842
C100	C	0.749355	-0.689581	-0.064964
H101	H	0.891141	-0.733992	-0.000117
H102	H	0.847205	-0.668865	0.043799
H103	H	0.864942	-0.676893	-0.108712
H104	H	0.820989	-0.611766	-0.064821
H105	H	0.716048	-0.674222	-0.021083
H106	H	0.759993	-0.739348	-0.064997
H107	H	0.716183	-0.674182	-0.108900
H108	H	0.496966	0.095547	-0.124510
H109	H	0.784700	0.099799	-0.124506
C110	C	0.883381	-0.532512	0.000136
C111	C	0.833868	-0.545243	0.064899
C112	C	0.752951	-0.500664	0.065026
H113	H	0.895843	-0.485082	0.000171
H114	H	0.849606	-0.541076	-0.043744
H115	H	0.867636	-0.536674	0.108767
H116	H	0.821382	-0.592664	0.064877
H117	H	0.719175	-0.509228	0.021146
H118	H	0.765422	-0.453237	0.065059
H119	H	0.719342	-0.509301	0.108963
C120	C	1.220555	-0.718851	-0.000091
C121	C	1.224499	-0.761175	-0.064846
C122	C	1.305259	-0.805944	-0.064975
H123	H	1.269785	-0.691740	-0.000139
H124	H	1.223424	-0.747631	0.043794
H125	H	1.221639	-0.732397	-0.108719
H126	H	1.175288	-0.788300	-0.064811
H127	H	1.308128	-0.834724	-0.021090
H128	H	1.354483	-0.778828	-0.065021
H129	H	1.307942	-0.834670	-0.108906
H130	H	0.945503	0.182405	-0.186524
H131	H	1.207070	-0.262597	-0.000016
C132	C	1.183617	-0.002463	-0.824094
C133	C	1.237063	-0.043956	-0.772431
C134	C	1.298204	-0.091387	-0.811905
H135	H	1.151673	-0.031639	-0.855024
H136	H	1.220796	0.022689	-0.854977
H137	H	1.199889	-0.069107	-0.741560
H138	H	1.269026	-0.014799	-0.741499
H139	H	1.335382	-0.066235	-0.842788
H140	H	1.266252	-0.120558	-0.842834
H141	H	1.334479	-0.119541	-0.776858
H142	H	0.911284	-0.232643	-0.000000
C143	C	0.315215	0.092892	-0.143225
C144	C	0.376020	0.093811	-0.203325
C145	C	0.329533	0.093167	-0.272051
H146	H	0.285803	0.051681	-0.146196
H147	H	0.271853	0.133054	-0.146111
H148	H	0.419366	0.053653	-0.200441
H149	H	0.405435	0.135019	-0.200379
H150	H	0.286171	0.133329	-0.274937
H151	H	0.300122	0.051956	-0.275014
H152	H	0.370781	0.093798	-0.312837
C153	C	0.928872	0.195211	-0.824185
C154	C	0.841026	0.183762	-0.804943
C155	C	0.779854	0.231077	-0.844525
H156	H	0.938277	0.241852	-0.811217
H157	H	0.937553	0.188423	-0.877064
H158	H	0.832350	0.190557	-0.752076
H159	H	0.831593	0.137131	-0.817914
H160	H	0.788534	0.224288	-0.897404
H161	H	0.789267	0.277715	-0.831554
H162	H	0.720244	0.223311	-0.831480
H163	H	0.945565	0.182419	-0.669706
H164	H	1.166897	0.010425	-0.186524
C165	C	1.231970	-0.122967	0.000002
C166	C	1.302459	-0.177677	0.000019
C167	C	1.384777	-0.149671	0.000056
H168	H	1.236013	-0.094920	-0.043891
H169	H	1.235956	-0.094912	0.043921
H170	H	1.298475	-0.205720	-0.043896
H171	H	1.298446	-0.205728	0.043908
H172	H	1.388763	-0.121615	0.043976
H173	H	1.388811	-0.121624	-0.043837
H174	H	1.432614	-0.186786	0.000075
H175	H	0.327757	0.093050	0.124513
C176	C	0.602946	0.097145	-0.143213
C177	C	0.663751	0.098066	-0.203313
C178	C	0.617263	0.097424	-0.272039
H179	H	0.573533	0.055935	-0.146185
H180	H	0.559585	0.137308	-0.146097
H181	H	0.707097	0.057907	-0.200430
H182	H	0.693167	0.139273	-0.200365
H183	H	0.573902	0.137587	-0.274923
H184	H	0.587852	0.056213	-0.275003
H185	H	0.658511	0.098055	-0.312824
