data_functionalizedCrystal
_audit_creation_method	'MofGen! by Chris Wilmer'
_symmetry_space_group_name_H-M	'P1'
_symmetry_Int_Tables_number	1
_symmetry_cell_setting	triclinic
loop_
_symmetry_equiv_pos_as_xyz
  x,y,z
_cell_length_a	19.121102
_cell_length_b	12.645330
_cell_length_c	12.645323
_cell_angle_alpha	89.975130
_cell_angle_beta	87.538732
_cell_angle_gamma	87.572206
loop_
_atom_site_label
_atom_site_type_symbol
_atom_site_fract_x
_atom_site_fract_y
_atom_site_fract_z
Zn1	Zn	1.073790	-0.491281	-0.668502
Zn2	Zn	1.073712	-0.668564	-0.491237
Zn3	Zn	0.956333	-0.483745	-0.483693
Zn4	Zn	0.956320	-0.660927	-0.660903
O5	O	1.015039	-0.576130	-0.576084
O6	O	1.172065	-0.521148	-0.651326
O7	O	1.058113	-0.644090	-0.341888
O8	O	0.971951	-0.336400	-0.508231
O9	O	1.172007	-0.651397	-0.521090
O10	O	1.058247	-0.341937	-0.644010
O11	O	0.971875	-0.508304	-0.336345
O12	O	0.858046	-0.500899	-0.500863
O13	O	0.971931	-0.638381	-0.810261
O14	O	0.858037	-0.631074	-0.631058
O15	O	1.058235	-0.513743	-0.815844
O16	O	1.058102	-0.815896	-0.513721
O17	O	0.971855	-0.810285	-0.638374
C18	C	1.014988	-0.851556	-0.576066
C19	C	1.015030	-0.969389	-0.576098
C20	C	0.832557	-0.564341	-0.564318
C21	C	0.754491	-0.559323	-0.559309
C22	C	0.960996	-1.133482	-0.654784
C23	C	0.960719	-1.010904	-0.654502
C24	C	0.994991	-1.012691	-0.463087
C25	C	0.994661	-1.135268	-0.463565
C26	C	1.089433	-1.141276	-0.609538
C27	C	1.088977	-1.018640	-0.611951
C28	C	0.717829	-0.624843	-0.624636
C29	C	0.644477	-0.620114	-0.619935
C30	C	0.607789	-0.549870	-0.549902
C31	C	0.644456	-0.484343	-0.484573
C32	C	0.717806	-0.489067	-0.489280
C33	C	0.386317	-0.532206	-0.532309
C34	C	0.312962	-0.527489	-0.527604
C35	C	0.312988	-0.663259	-0.662969
C36	C	0.386340	-0.667982	-0.667665
C37	C	0.423000	-0.602451	-0.602340
C38	C	0.532811	-0.545037	-0.545093
C39	C	0.497976	-0.607279	-0.607155
C40	C	1.198233	-0.587965	-0.587897
C41	C	1.276299	-0.593009	-0.592931
C42	C	1.015091	-0.576051	-0.852593
C43	C	1.015113	-0.576017	-0.970424
C44	C	1.015109	-0.299629	-0.576127
C45	C	1.015139	-0.181801	-0.576145
C46	C	0.960651	-0.654031	-1.134465
C47	C	0.960793	-0.654443	-1.011915
C48	C	1.089117	-0.611109	-1.019704
C49	C	1.088819	-0.611601	-1.142283
C50	C	0.996269	-0.462502	-1.136410
C51	C	0.994618	-0.463069	-1.013698
C52	C	1.015028	-0.576134	-0.300654
C53	C	1.015142	-0.575878	-0.182831
H54	H	0.973257	-0.981559	-0.738149
N55	N	1.140051	-1.180887	-0.537773
N56	N	1.173688	-1.117941	-0.485620
H57	H	1.209433	-1.145919	-0.434934
N58	N	0.926296	-0.429989	-0.972798
N59	N	0.892783	-0.489317	-0.912000
H60	H	0.844530	-0.465958	-0.883108
H61	H	1.104816	-0.694622	-1.171922
H62	H	1.105388	-0.693288	-0.990061
H63	H	0.502931	-0.487847	-0.488069
H64	H	1.035958	-0.404217	-1.167976
H65	H	0.905641	-0.978118	-0.632002
N66	N	1.142259	-0.983635	-0.545822
N67	N	1.192209	-0.933975	-0.585049
H68	H	1.229838	-0.909253	-0.538336
N69	N	1.040771	-0.385684	-0.978244
N70	N	1.089742	-0.412640	-0.920253
H71	H	1.122343	-0.357989	-0.895214
H72	H	0.747695	-0.682047	-0.681661
H73	H	0.614630	-0.673469	-0.673130
N74	N	1.141477	-0.543614	-1.182892
N75	N	1.178335	-0.495959	-1.120693
H76	H	1.215526	-0.447945	-1.149368
H77	H	0.940352	-1.160457	-0.435831
H78	H	0.416206	-0.725184	-0.724691
H79	H	1.033177	-0.985995	-0.402684
N80	N	0.976620	-1.171317	-0.760065
N81	N	1.027838	-1.234343	-0.778372
H82	H	1.038888	-1.261045	-0.852735
N83	N	1.041978	-1.175539	-0.387230
N84	N	1.092931	-1.235492	-0.415861
H85	H	1.126344	-1.263928	-0.361944
N86	N	0.976140	-0.758682	-1.174120
N87	N	1.034052	-0.804030	-1.157941
H88	H	1.044996	-0.877940	-1.185949
H89	H	0.906262	-1.160852	-0.632548
N90	N	0.927572	-0.969935	-0.427799
N91	N	0.894165	-0.907579	-0.485678
H92	H	0.846549	-0.877382	-0.460761
H93	H	1.130806	-0.556196	-0.993249
N94	N	0.275475	-0.455741	-0.456063
N95	N	0.234519	-0.490319	-0.385818
H96	H	0.208043	-0.439653	-0.335293
H97	H	0.943244	-0.431446	-1.163904
H98	H	0.416157	-0.478854	-0.479108
H99	H	1.107712	-1.173299	-0.690796
N100	N	0.606993	-0.412589	-0.413023
N101	N	0.639738	-0.354095	-0.354700
H102	H	0.613282	-0.303418	-0.304164
N103	N	0.535449	-0.679047	-0.678673
N104	N	0.527245	-0.776329	-0.670936
H105	H	0.553716	-0.827021	-0.721441
N106	N	1.107929	-0.983290	-0.716317
N107	N	1.067166	-0.922050	-0.764175
H108	H	1.080548	-0.897078	-0.837884
N109	N	0.275528	-0.730187	-0.729684
N110	N	0.210038	-0.725966	-0.725474
H111	H	0.183581	-0.773235	-0.772595
H112	H	0.973252	-0.738395	-0.983402
N113	N	0.755247	-0.422122	-0.422553
N114	N	0.722484	-0.359404	-0.360032
H115	H	0.748925	-0.312116	-0.312908
N116	N	0.891949	-0.626198	-0.969733
N117	N	0.843460	-0.606043	-1.030812
H118	H	0.794835	-0.586099	-1.001027
H119	H	0.905611	-0.631691	-1.160399
