data_functionalizedCrystal
_audit_creation_method	'MofGen! by Chris Wilmer'
_symmetry_space_group_name_H-M	'P1'
_symmetry_Int_Tables_number	1
_symmetry_cell_setting	triclinic
loop_
_symmetry_equiv_pos_as_xyz
  x,y,z
_cell_length_a	17.699083
_cell_length_b	23.532357
_cell_length_c	16.776229
_cell_angle_alpha	90.008950
_cell_angle_beta	89.999727
_cell_angle_gamma	83.055654
loop_
_atom_site_label
_atom_site_type_symbol
_atom_site_fract_x
_atom_site_fract_y
_atom_site_fract_z
O1	O	1.003695	0.072019	0.066186
O2	O	1.503695	0.572019	0.566186
O3	O	0.783267	0.081389	0.066214
O4	O	1.283267	0.581389	0.566214
O5	O	0.900147	-0.006210	0.066183
O6	O	1.400147	0.493790	0.566183
O7	O	0.886814	0.159619	0.066217
O8	O	1.386814	0.659619	0.566217
O9	O	0.900134	-0.006211	-0.066394
O10	O	1.400134	0.493789	0.433606
O11	O	0.783253	0.081389	-0.066363
O12	O	1.283253	0.581389	0.433637
O13	O	1.003682	0.072019	-0.066390
O14	O	1.503682	0.572019	0.433610
Zn15	Zn	0.893465	0.076704	-0.087426
Zn16	Zn	1.393465	0.576704	0.412574
Zn17	Zn	0.893483	0.076704	0.087249
Zn18	Zn	1.393483	0.576704	0.587249
O19	O	0.886801	0.159618	-0.066359
O20	O	1.386801	0.659618	0.433641
C21	C	0.755065	0.081053	-0.000071
C22	C	1.255065	0.581053	0.499929
C23	C	0.671052	0.080046	-0.000062
C24	C	1.171052	0.580046	0.499938
C25	C	0.622158	0.131465	-0.000051
C26	C	1.122158	0.631465	0.499949
C27	C	0.543220	0.130515	-0.000062
C28	C	1.043220	0.630515	0.499938
C29	C	0.513177	0.078146	-0.000077
C30	C	1.013177	0.578146	0.499923
C31	C	0.562077	0.026723	-0.000090
C32	C	1.062077	0.526723	0.499910
C33	C	0.641014	0.027673	-0.000085
C34	C	1.141014	0.527673	0.499915
C35	C	0.243735	0.022889	-0.000110
C36	C	0.743735	0.522889	0.499890
C37	C	0.164792	0.021942	-0.000113
C38	C	0.664792	0.521942	0.499887
C39	C	0.145940	0.125731	-0.000087
C40	C	0.645940	0.625731	0.499913
C41	C	0.224877	0.126681	-0.000082
C42	C	0.724877	0.626681	0.499918
C43	C	0.273770	0.075259	-0.000099
C44	C	0.773770	0.575259	0.499901
C45	C	0.359364	0.076289	-0.000089
C46	C	0.859364	0.576289	0.499911
C47	C	0.427585	0.077115	-0.000081
C48	C	0.927585	0.577115	0.499919
C49	C	0.899807	-0.027428	-0.000108
C50	C	1.399807	0.472572	0.499892
C51	C	0.898805	-0.090650	-0.000115
C52	C	1.398805	0.409350	0.499885
C53	C	0.892517	-0.482679	0.072196
C54	C	1.392517	0.017321	0.572196
C55	C	0.891564	-0.542081	0.072201
C56	C	1.391564	-0.042081	0.572201
O57	O	0.891051	-0.572799	0.133661
O58	O	1.391051	-0.072799	0.633661
N59	N	0.891084	-0.571794	-0.000066
N60	N	1.391084	-0.071794	0.499934
C61	C	0.891549	-0.542100	-0.072342
C62	C	1.391549	-0.042100	0.427658
O63	O	0.891053	-0.572828	-0.133809
O64	O	1.391053	-0.072828	0.366191
C65	C	0.892497	-0.482699	-0.072345
C66	C	1.392497	0.017301	0.427655
C67	C	0.892985	-0.452990	-0.000074
C68	C	1.392985	0.047010	0.499926
C69	C	0.893004	-0.452970	0.144461
C70	C	1.393004	0.047030	0.644461
C71	C	0.893958	-0.393572	0.144456
C72	C	1.393958	0.106428	0.644456
C73	C	0.894426	-0.363883	0.072186
C74	C	1.394426	0.136117	0.572186
C75	C	0.893939	-0.393592	-0.000079
C76	C	1.393939	0.106408	0.499921
C77	C	0.892957	-0.453006	-0.144620
C78	C	1.392957	0.046994	0.355380
C79	C	0.893905	-0.393600	-0.144618
C80	C	1.393905	0.106400	0.355382
C81	C	0.894392	-0.363891	-0.072347
C82	C	1.394392	0.136109	0.427653
C83	C	0.895362	-0.304505	-0.072354
C84	C	1.395362	0.195495	0.427646
N85	N	0.895842	-0.274792	-0.000088
N86	N	1.395842	0.225208	0.499912
C87	C	0.895374	-0.304481	0.072182
C88	C	1.395374	0.195519	0.572182
C89	C	0.889558	-0.666848	-0.072328
C90	C	1.389558	-0.166848	0.427672
C91	C	0.888616	-0.726249	-0.072325
C92	C	1.388616	-0.226249	0.427675
C93	C	0.888628	-0.726225	0.072217
C94	C	1.388628	-0.226225	0.572217
C95	C	0.889576	-0.666824	0.072214
C96	C	1.389576	-0.166824	0.572214
C97	C	0.890038	-0.637135	-0.000062
C98	C	1.390038	-0.137135	0.499938
C99	C	0.897379	-0.179741	0.072166
C100	C	1.397379	0.320259	0.572166
C101	C	0.898337	-0.120339	0.072155
C102	C	1.398337	0.379661	0.572155
C103	C	0.898320	-0.120367	-0.072387
C104	C	1.398320	0.379633	0.427613
C105	C	0.897366	-0.179765	-0.072376
C106	C	1.397366	0.320235	0.427624
C107	C	0.896893	-0.209451	-0.000093
C108	C	1.396893	0.290549	0.499907
O109	O	0.895872	-0.273749	-0.133784
O110	O	1.395872	0.226251	0.366216
O111	O	0.895860	-0.273746	0.133640
O112	O	1.395860	0.226254	0.633640
C113	C	1.031883	0.072355	-0.000104
C114	C	1.531883	0.572355	0.499896
C115	C	1.115896	0.073362	-0.000108
C116	C	1.615896	0.573362	0.499892
C117	C	0.887141	0.180836	-0.000067
C118	C	1.387141	0.680836	0.499933
C119	C	0.888144	0.244058	-0.000054
C120	C	1.388144	0.744058	0.499946
N121	N	0.893459	0.076703	-0.206637
N122	N	1.393459	0.576703	0.293363
C123	C	0.939091	0.111203	-0.248349
C124	C	1.439091	0.611203	0.251651
C125	C	0.939099	0.111201	-0.331801
C126	C	1.439099	0.611201	0.168199
C127	C	0.893471	0.076702	-0.373540
C128	C	1.393471	0.576702	0.126460
C129	C	0.847838	0.042198	-0.331822
C130	C	1.347838	0.542198	0.168178
C131	C	0.847834	0.042197	-0.248371
C132	C	1.347834	0.542197	0.251629
C133	C	0.847853	0.042198	-0.668369
C134	C	1.347853	0.542198	-0.168369
C135	C	0.847859	0.042203	-0.751826
C136	C	1.347859	0.542203	-0.251826
C137	C	0.939118	0.111202	-0.751799
C138	C	1.439118	0.611202	-0.251799
C139	C	0.939115	0.111202	-0.668349
C140	C	1.439115	0.611202	-0.168349
C141	C	0.893484	0.076696	-0.626638
C142	C	1.393484	0.576696	-0.126638
C143	C	0.893477	0.076698	-0.536150
C144	C	1.393477	0.576698	-0.036150
C145	C	0.893474	0.076702	-0.464027
C146	C	1.393474	0.576702	0.035973
N147	N	0.893495	0.076700	0.206461
N148	N	1.393495	0.576700	0.706461
H149	H	0.646612	0.174111	-0.000038
H150	H	1.146612	0.674111	0.499962
H151	H	0.249333	0.169326	-0.000066
H152	H	0.749333	0.669326	0.499934
C153	C	0.092150	0.182298	-0.000079
C154	C	0.592150	0.682298	0.499921
N155	N	0.051637	0.224902	-0.000072
N156	N	0.551637	0.724902	0.499928
C157	C	0.890078	-0.634197	-0.151842
C158	C	1.390078	-0.134197	0.348158
N159	N	0.890469	-0.609607	-0.211732
N160	N	1.390469	-0.109607	0.288268
C161	C	0.894415	-0.360947	-0.224129
C162	C	1.394415	0.139053	0.275871
N163	N	0.894803	-0.336354	-0.284016
N164	N	1.394803	0.163646	0.215984
C165	C	0.694798	-0.028892	-0.000094
C166	C	1.194798	0.471108	0.499906
N167	N	0.735307	-0.071499	-0.000103
N168	N	1.235307	0.428501	0.499897
C169	C	0.797645	0.004249	-0.377738
C170	C	1.297645	0.504249	0.122262
N171	N	0.759835	-0.024332	-0.412320
N172	N	1.259835	0.475668	0.087680
H173	H	0.896976	-0.203956	-0.131225
H174	H	1.396976	0.296044	0.368775
C175	C	0.989320	0.149155	-0.797688
C176	C	1.489320	0.649155	-0.297688
N177	N	1.027130	0.177740	-0.832251
N178	N	1.527130	0.677740	-0.332251
C179	C	0.898827	-0.087697	-0.151881
C180	C	1.398827	0.412303	0.348119
N181	N	0.899201	-0.063087	-0.211756
N182	N	1.399201	0.436913	0.288244
C183	C	0.989287	0.149156	-0.202444
C184	C	1.489287	0.649156	0.297556
N185	N	1.027098	0.177741	-0.167871
N186	N	1.527098	0.677741	0.332129
H187	H	0.810676	0.014104	-0.214411
H188	H	1.310676	0.514104	0.285589
H189	H	0.140335	-0.020706	-0.000126
H190	H	0.640335	0.479294	0.499874
H191	H	0.976267	0.139297	-0.634369
H192	H	1.476267	0.639297	-0.134369
C193	C	0.489439	0.187081	-0.000064
C194	C	0.989439	0.687081	0.499936
N195	N	0.448931	0.229688	-0.000072
N196	N	0.948931	0.729688	0.499928
H197	H	0.810701	0.014107	-0.785807
H198	H	1.310701	0.514107	-0.285807
C199	C	0.989268	0.149177	-0.377681
C200	C	1.489268	0.649177	0.122319
N201	N	1.027046	0.177789	-0.412237
N202	N	1.527046	0.677789	0.087763
C203	C	0.297508	-0.033678	-0.000124
C204	C	0.797508	0.466322	0.499876
N205	N	0.338012	-0.076287	-0.000133
N206	N	0.838012	0.423713	0.499867
C207	C	0.896872	-0.212388	0.151681
C208	C	1.396872	0.287612	0.651681
N209	N	0.896498	-0.236978	0.211572
N210	N	1.396498	0.263022	0.711572
C211	C	0.797652	0.004246	-0.622499
C212	C	1.297652	0.504246	-0.122499
N213	N	0.759836	-0.024340	-0.587946
N214	N	1.259836	0.475660	-0.087946
C215	C	0.529028	-0.030885	-0.000108
C216	C	1.029028	0.469115	0.499892
N217	N	0.504136	-0.074276	-0.000119
N218	N	1.004136	0.425724	0.499881
C219	C	0.894486	-0.360899	0.223961
C220	C	1.394486	0.139101	0.723961
N221	N	0.894880	-0.336293	0.283848
N222	N	1.394880	0.163707	0.783848
C223	C	0.898871	-0.087662	0.151662
C224	C	1.398871	0.412338	0.651662
N225	N	0.899270	-0.063052	0.211545
N226	N	1.399270	0.436948	0.711545
H227	H	0.892620	-0.477136	0.203316
H228	H	1.392620	0.022864	0.703316
H229	H	0.889972	-0.642638	0.131063
H230	H	1.389972	-0.142638	0.631063
H231	H	0.888245	-0.750408	0.131064
H232	H	1.388245	-0.250408	0.631064
H233	H	0.888230	-0.750434	-0.131176
H234	H	1.388230	-0.250434	0.368824
H235	H	0.892562	-0.477185	-0.203471
H236	H	1.392562	0.022815	0.296529
