data_functionalizedCrystal
_audit_creation_method	'MofGen! by Chris Wilmer'
_symmetry_space_group_name_H-M	'P1'
_symmetry_Int_Tables_number	1
_symmetry_cell_setting	triclinic
loop_
_symmetry_equiv_pos_as_xyz
  x,y,z
_cell_length_a	12.827893
_cell_length_b	12.594516
_cell_length_c	12.827885
_cell_angle_alpha	89.971946
_cell_angle_beta	89.980728
_cell_angle_gamma	90.016023
loop_
_atom_site_label
_atom_site_type_symbol
_atom_site_fract_x
_atom_site_fract_y
_atom_site_fract_z
Zn1	Zn	1.597665	-0.423691	-0.590861
Zn2	Zn	1.597557	-0.601707	-0.416127
Zn3	Zn	1.422906	-0.423743	-0.416135
Zn4	Zn	1.422889	-0.601628	-0.590827
O5	O	1.510254	-0.512693	-0.503487
O6	O	1.743887	-0.447317	-0.567693
O7	O	1.574351	-0.578155	-0.269892
O8	O	1.446140	-0.274791	-0.439330
O9	O	1.743807	-0.578105	-0.439317
O10	O	1.574535	-0.274752	-0.567701
O11	O	1.446036	-0.447405	-0.269898
O12	O	1.276668	-0.447329	-0.439297
O13	O	1.446112	-0.577970	-0.737067
O14	O	1.276656	-0.578020	-0.567642
O15	O	1.574519	-0.447240	-0.737093
O16	O	1.574335	-0.750643	-0.439283
O17	O	1.446007	-0.750584	-0.567635
C18	C	1.238744	-0.512672	-0.503468
C19	C	1.122591	-0.512689	-0.503484
C20	C	1.070828	-0.577460	-0.566895
C21	C	0.950778	-0.577479	-0.566914
C22	C	1.510186	-0.789234	-0.503477
C23	C	1.510252	-0.907539	-0.503508
C24	C	1.440448	-0.976799	-0.573269
C25	C	1.414986	-1.047668	-0.477914
C26	C	1.535809	-1.047469	-0.598879
C27	C	1.484740	-0.976849	-0.408102
C28	C	1.605607	-0.976645	-0.529132
C29	C	1.580182	-1.047481	-0.433711
C30	C	1.782824	-0.512714	-0.503508
C31	C	1.898978	-0.512723	-0.503517
C32	C	1.510325	-0.512590	-0.776058
C33	C	1.510356	-0.512547	-0.892211
C34	C	1.510352	-0.235072	-0.503521
C35	C	1.510393	-0.116766	-0.503535
C36	C	1.573902	-0.447845	-0.944008
C37	C	1.573935	-0.447799	-1.064059
C38	C	1.510244	-0.512718	-0.231978
C39	C	1.510416	-0.512461	-0.115825
H40	H	1.078031	-0.457246	-0.449213
H41	H	1.455969	-0.567899	-0.936742
O42	O	1.650662	-1.084464	-0.363346
C43	C	1.650543	-1.196403	-0.364712
H44	H	1.619441	-1.225519	-0.442876
H45	H	1.598662	-1.227406	-0.299251
C46	C	1.800712	-1.201708	-0.253041
C47	C	1.762520	-1.237469	-0.349047
H48	H	1.869783	-1.227041	-0.243374
H49	H	1.800791	-1.126293	-0.252117
H50	H	1.757468	-1.227547	-0.198501
H51	H	1.805756	-1.211619	-0.403585
H52	H	1.762451	-1.312881	-0.349980
O53	O	1.458730	-0.939954	-0.311932
C54	C	1.367666	-0.877731	-0.319195
H55	H	1.322228	-0.901260	-0.391968
H56	H	1.389941	-0.790242	-0.324225
C57	C	1.355288	-0.867262	-0.132647
C58	C	1.299476	-0.896167	-0.222024
H59	H	1.313227	-0.878629	-0.072706
H60	H	1.416642	-0.909179	-0.127754
H61	H	1.373847	-0.794356	-0.136853
H62	H	1.280929	-0.969075	-0.217823
H63	H	1.238118	-0.854262	-0.226915
O64	O	1.701758	-0.939573	-0.555075
C65	C	1.769072	-1.025881	-0.574179
H66	H	1.721110	-1.098841	-0.595760
H67	H	1.816617	-1.043345	-0.501089
C68	C	1.902070	-0.908403	-0.638122
C69	C	1.843163	-0.998011	-0.664636
H70	H	1.947777	-0.891211	-0.693917
H71	H	1.856722	-0.850254	-0.625248
H72	H	1.941682	-0.922968	-0.577212
H73	H	1.803543	-0.983440	-0.725537
H74	H	1.888507	-1.056156	-0.677523
O75	O	1.124094	-0.643454	-0.631700
C76	C	1.187250	-0.582866	-0.699246
H77	H	1.203483	-0.502141	-0.662506
H78	H	1.145288	-0.571313	-0.776752
C79	C	1.271052	-0.740484	-0.763084
C80	C	1.290998	-0.641340	-0.717956
H81	H	1.335048	-0.776554	-0.774630
H82	H	1.228501	-0.781304	-0.717581
H83	H	1.236082	-0.730843	-0.827668
H84	H	1.325956	-0.650983	-0.653368
H85	H	1.333558	-0.600522	-0.763449
H86	H	1.557369	-1.078491	-0.679523
O87	O	1.369970	-0.939892	-0.643678
C88	C	1.396028	-0.977398	-0.743894
H89	H	1.445222	-1.052390	-0.736504
H90	H	1.442258	-0.913940	-0.787309
C91	C	1.235169	-0.910680	-0.813779
C92	C	1.295582	-1.002793	-0.804702
H93	H	1.173210	-0.926341	-0.851290
H94	H	1.217614	-0.885408	-0.746262
H95	H	1.273706	-0.857807	-0.849954
H96	H	1.257050	-1.055659	-0.768515
H97	H	1.313128	-1.028074	-0.872214
H98	H	1.628343	-0.392409	-1.108603
O99	O	0.897519	-0.643538	-0.631650
C100	C	0.789512	-0.628864	-0.617244
H101	H	0.774703	-0.546671	-0.583141
H102	H	0.758503	-0.691908	-0.561467
C103	C	0.751614	-0.739652	-0.764805
C104	C	0.733425	-0.638698	-0.722928
H105	H	0.717015	-0.745723	-0.829994
H106	H	0.824380	-0.749542	-0.774509
H107	H	0.725773	-0.792178	-0.718315
H108	H	0.759278	-0.586175	-0.769411
H109	H	0.660661	-0.628799	-0.713234
O110	O	0.952184	-0.446710	-0.438692
C111	C	1.015257	-0.507279	-0.371127
H112	H	1.031508	-0.587998	-0.407863
H113	H	0.973216	-0.518847	-0.293634
C114	C	1.099035	-0.349636	-0.307259
C115	C	1.119002	-0.448773	-0.352383
H116	H	1.163028	-0.313546	-0.295692
H117	H	1.056539	-0.308828	-0.352776
H118	H	1.063999	-0.359290	-0.242687
H119	H	1.154026	-0.439118	-0.416960
H120	H	1.161507	-0.489578	-0.306877
H121	H	1.456012	-0.567862	-1.071287
H122	H	1.628279	-0.392482	-0.899477
O123	O	1.318795	-1.084839	-0.452233
C124	C	1.245356	-1.048812	-0.525946
H125	H	1.286858	-1.028860	-0.602073
H126	H	1.204759	-0.974813	-0.494821
C127	C	1.112939	-1.160876	-0.452173
C128	C	1.163912	-1.136379	-0.545677
H129	H	1.062697	-1.214888	-0.464342
H130	H	1.162415	-1.185145	-0.402509
H131	H	1.079117	-1.099202	-0.426246
H132	H	1.197743	-1.198048	-0.571596
H133	H	1.114439	-1.112121	-0.595347
