data_functionalizedCrystal
_audit_creation_method	'MofGen! by Chris Wilmer'
_symmetry_space_group_name_H-M	'P1'
_symmetry_Int_Tables_number	1
_symmetry_cell_setting	triclinic
loop_
_symmetry_equiv_pos_as_xyz
  x,y,z
_cell_length_a	14.044220
_cell_length_b	15.944493
_cell_length_c	13.101039
_cell_angle_alpha	93.367629
_cell_angle_beta	86.340132
_cell_angle_gamma	88.331960
loop_
_atom_site_label
_atom_site_type_symbol
_atom_site_fract_x
_atom_site_fract_y
_atom_site_fract_z
O1	O	1.262879	0.198269	-0.085081
O2	O	1.512879	0.448269	0.164919
O3	O	1.762879	0.698269	0.414919
O4	O	2.012879	0.948269	0.664919
O5	O	0.986913	0.190960	-0.085107
O6	O	1.236913	0.440960	0.164893
O7	O	1.486913	0.690960	0.414893
O8	O	1.736913	0.940960	0.664893
O9	O	1.132461	0.072903	-0.085102
O10	O	1.382461	0.322903	0.164898
O11	O	1.632461	0.572903	0.414898
O12	O	1.882461	0.822903	0.664898
O13	O	1.117331	0.316327	-0.085086
O14	O	1.367331	0.566327	0.164914
O15	O	1.617331	0.816327	0.414914
O16	O	1.867331	1.066327	0.664914
O17	O	1.122018	0.081388	0.085328
O18	O	1.372018	0.331388	0.335328
O19	O	1.622018	0.581388	0.585328
O20	O	1.872018	0.831388	0.835328
O21	O	0.976470	0.199446	0.085322
O22	O	1.226470	0.449446	0.335322
O23	O	1.476470	0.699446	0.585322
O24	O	1.726470	0.949446	0.835322
O25	O	1.252436	0.206755	0.085349
O26	O	1.502436	0.456755	0.335349
O27	O	1.752436	0.706755	0.585349
O28	O	2.002436	0.956755	0.835349
Zn29	Zn	1.112795	0.204448	0.112395
Zn30	Zn	1.362795	0.454448	0.362395
Zn31	Zn	1.612795	0.704448	0.612395
Zn32	Zn	1.862795	0.954448	0.862395
Zn33	Zn	1.126554	0.193267	-0.112153
Zn34	Zn	1.376554	0.443267	0.137847
Zn35	Zn	1.626554	0.693267	0.387847
Zn36	Zn	1.876554	0.943267	0.637847
O37	O	1.106888	0.324813	0.085343
O38	O	1.356888	0.574813	0.335343
O39	O	1.606888	0.824813	0.585343
O40	O	1.856888	1.074813	0.835343
C41	C	0.946377	0.192004	0.000104
C42	C	1.196377	0.442004	0.250104
C43	C	1.446377	0.692004	0.500104
C44	C	1.696377	0.942004	0.750104
C45	C	0.841154	0.182462	0.000093
C46	C	1.091154	0.432462	0.250093
C47	C	1.341154	0.682462	0.500093
C48	C	1.591154	0.932462	0.750093
C49	C	0.648494	0.165020	0.000112
C50	C	0.898494	0.415020	0.250112
C51	C	1.148494	0.665020	0.500112
C52	C	1.398494	0.915020	0.750112
C53	C	0.590849	0.232692	0.000121
C54	C	0.840849	0.482692	0.250121
C55	C	1.090849	0.732692	0.500121
C56	C	1.340849	0.982692	0.750121
C57	C	0.483647	0.222986	0.000131
C58	C	0.733647	0.472986	0.250131
C59	C	0.983647	0.722986	0.500131
C60	C	1.233647	0.972986	0.750131
C61	C	0.755707	0.174724	0.000101
C62	C	1.005707	0.424724	0.250101
C63	C	1.255707	0.674724	0.500101
C64	C	1.505707	0.924724	0.750101
C65	C	1.126621	0.045804	0.000109
C66	C	1.376621	0.295804	0.250109
C67	C	1.626621	0.545804	0.500109
C68	C	1.876621	0.795804	0.750109
C69	C	1.124768	-0.047584	0.000095
C70	C	1.374768	0.202416	0.250095
C71	C	1.624768	0.452416	0.500095
C72	C	1.874768	0.702416	0.750095
C73	C	1.210440	-0.276927	0.000123
C74	C	1.460440	-0.026927	0.250123
C75	C	1.710440	0.223073	0.500123
C76	C	1.960440	0.473073	0.750123
C77	C	1.169389	-0.335139	-0.083912
C78	C	1.419389	-0.085139	0.166088
C79	C	1.669389	0.164861	0.416088
C80	C	1.919389	0.414861	0.666088
C81	C	1.121332	-0.218561	0.000108
C82	C	1.371332	0.031439	0.250108
C83	C	1.621332	0.281439	0.500108
C84	C	1.871332	0.531439	0.750108
C85	C	1.159072	-0.326750	0.084119
C86	C	1.409072	-0.076750	0.334119
C87	C	1.659072	0.173250	0.584119
C88	C	1.909072	0.423250	0.834119
C89	C	1.118020	-0.383718	0.000124
C90	C	1.368020	-0.133718	0.250124
C91	C	1.618020	0.116282	0.500124
C92	C	1.868020	0.366282	0.750124
C93	C	1.080309	-0.275546	-0.083996
C94	C	1.330309	-0.025546	0.166004
C95	C	1.580309	0.224454	0.416004
C96	C	1.830309	0.474454	0.666004
C97	C	1.070001	-0.267150	0.084109
C98	C	1.320001	-0.017150	0.334109
C99	C	1.570001	0.232850	0.584109
C100	C	1.820001	0.482850	0.834109
C101	C	1.028886	-0.325334	0.000054
C102	C	1.278886	-0.075334	0.250054
C103	C	1.528886	0.174666	0.500054
C104	C	1.778886	0.424666	0.750054
C105	C	1.123243	-0.123419	0.000097
C106	C	1.373243	0.126581	0.250097
C107	C	1.623243	0.376581	0.500097
C108	C	1.873243	0.626581	0.750097
C109	C	1.116103	-0.478859	0.000127
C110	C	1.366103	-0.228859	0.250127
C111	C	1.616103	0.021141	0.500127
C112	C	1.866103	0.271141	0.750127
C113	C	1.292971	0.205711	0.000136
C114	C	1.542971	0.455711	0.250136
C115	C	1.792971	0.705711	0.500136
C116	C	2.042971	0.955711	0.750136
C117	C	1.398195	0.215253	0.000140
C118	C	1.648195	0.465253	0.250140
C119	C	1.898195	0.715253	0.500140
C120	C	2.148195	0.965253	0.750140
C121	C	1.112727	0.351911	0.000131
C122	C	1.362727	0.601911	0.250131
C123	C	1.612727	0.851911	0.500131
C124	C	1.862727	1.101911	0.750131
C125	C	1.114581	0.445299	0.000137
C126	C	1.364581	0.695299	0.250137
C127	C	1.614581	0.945299	0.500137
C128	C	1.864581	1.195299	0.750137
N129	N	1.103412	0.212078	0.265643
N130	N	1.353412	0.462078	0.515643
N131	N	1.603412	0.712078	0.765643
N132	N	1.853412	0.962078	1.015643
N133	N	1.135945	0.185631	-0.265402
N134	N	1.385945	0.435631	-0.015402
N135	N	1.635945	0.685631	0.234598
N136	N	1.885945	0.935631	0.484598
C137	C	1.090645	0.222467	0.474685
C138	C	1.340645	0.472467	0.724685
C139	C	1.590645	0.722467	0.974685
C140	C	1.840645	0.972467	1.224685
C141	C	1.148708	0.175245	0.525563
C142	C	1.398708	0.425245	0.775563
C143	C	1.648708	0.675245	1.025563
C144	C	1.898708	0.925245	1.275563
C145	C	1.141604	0.181025	0.641881
C146	C	1.391604	0.431025	0.891881
C147	C	1.641604	0.681025	1.141881
C148	C	1.891604	0.931025	1.391881
C149	C	1.097747	0.216688	0.358356
C150	C	1.347747	0.466688	0.608356
C151	C	1.597747	0.716688	0.858356
C152	C	1.847747	0.966688	1.108356
H153	H	0.622009	0.297916	0.000120
H154	H	0.872009	0.547916	0.250120
H155	H	1.122009	0.797916	0.500120
H156	H	1.372009	1.047916	0.750120
H157	H	1.028049	-0.237467	0.155150
H158	H	1.278049	0.012533	0.405150
H159	H	1.528049	0.262533	0.655150
H160	H	1.778049	0.512533	0.905150
H161	H	1.035606	0.267235	0.518480
H162	H	1.285606	0.517235	0.768480
H163	H	1.535606	0.767235	1.018480
H164	H	1.785606	1.017235	1.268480
H165	H	0.617336	0.099800	0.000113
H166	H	0.867336	0.349800	0.250113
H167	H	1.117336	0.599800	0.500113
H168	H	1.367336	0.849800	0.750113
H169	H	1.211373	-0.364804	-0.154950
H170	H	1.461373	-0.114804	0.095050
H171	H	1.711373	0.135196	0.345050
H172	H	1.961373	0.385196	0.595050
Cl173	Cl	1.328949	-0.243926	0.000009
Cl174	Cl	1.578949	0.006074	0.250009
Cl175	Cl	1.828949	0.256074	0.500009
Cl176	Cl	2.078949	0.506074	0.750009
Cl177	Cl	1.028975	-0.240872	-0.193805
Cl178	Cl	1.278975	0.009128	0.056195
Cl179	Cl	1.528975	0.259128	0.306195
Cl180	Cl	1.778975	0.509128	0.556195
H181	H	1.203752	0.130475	0.481763
H182	H	1.453752	0.380475	0.731763
H183	H	1.703752	0.630475	0.981763
H184	H	1.953752	0.880475	1.231763
H185	H	0.952074	-0.346555	0.000001
H186	H	1.202074	-0.096555	0.250001
H187	H	1.452074	0.153445	0.500001
H188	H	1.702074	0.403445	0.750001
H189	H	1.192369	-0.349325	0.155159
H190	H	1.442369	-0.099325	0.405159
H191	H	1.692369	0.150675	0.655159
H192	H	1.942369	0.400675	0.905159
