data_functionalizedCrystal
_audit_creation_method	'MofGen! by Chris Wilmer'
_symmetry_space_group_name_H-M	'P1'
_symmetry_Int_Tables_number	1
_symmetry_cell_setting	triclinic
loop_
_symmetry_equiv_pos_as_xyz
  x,y,z
_cell_length_a	6.817900
_cell_length_b	15.866870
_cell_length_c	14.125465
_cell_angle_alpha	113.228420
_cell_angle_beta	100.398878
_cell_angle_gamma	102.655915
loop_
_atom_site_label
_atom_site_type_symbol
_atom_site_fract_x
_atom_site_fract_y
_atom_site_fract_z
V1	V	-4.011086	-0.131684	-0.346677
O2	O	-3.978431	0.007174	-0.291722
O3	O	-3.982395	-0.261921	-0.390814
O4	O	-3.946868	-0.129287	-0.476657
O5	O	-4.014203	-0.126378	-0.205284
V6	V	-4.494210	-0.115118	-0.324116
O7	O	-4.273220	-0.168021	-0.396168
O8	O	-4.682273	-0.078781	-0.274625
O9	O	-4.299695	0.015119	-0.279979
O10	O	-4.644262	-0.253977	-0.379072
O11	O	-4.608490	-0.120424	-0.465510
O12	O	-4.335221	-0.117516	-0.194136
C13	C	-3.832702	-0.293681	-0.397345
C14	C	-3.890424	-0.400149	-0.434299
C15	C	-3.921038	-0.683174	-0.091525
C16	C	-3.975283	-0.783222	-0.126281
C17	C	-4.038973	-0.810065	-0.312008
C18	C	-3.984723	-0.710017	-0.277268
C19	C	-3.925761	-0.646580	-0.167026
C20	C	-3.989445	-0.673422	-0.352768
C21	C	-3.935210	-0.573384	-0.318031
C22	C	-3.876253	-0.509940	-0.207793
C23	C	-3.871526	-0.546541	-0.132288
C24	C	-4.048422	-0.736862	-0.463011
C25	C	-4.053145	-0.700267	-0.538511
C26	C	-3.998894	-0.600227	-0.503774
C27	C	-3.939937	-0.536783	-0.393536
C28	C	-4.003621	-0.563626	-0.579279
C29	C	-3.949386	-0.463587	-0.544541
C30	C	-3.885702	-0.436744	-0.358798
C31	C	-3.787383	-0.124492	-0.506846
C32	C	-3.816292	-0.123394	-0.613411
C33	C	-3.869280	-0.121380	-0.808519
C34	C	-4.055384	-0.125420	-0.862273
C35	C	-4.084869	-0.124299	-0.970839
C36	C	-3.839787	-0.122501	-0.699944
C37	C	-4.112731	0.046874	-0.273447
C38	C	-4.034246	0.153341	-0.236501
C39	C	-4.158049	-0.122313	-0.163944
C40	C	-4.108378	-0.123406	-0.057376
H41	H	-3.832101	-0.428483	-0.179512
O42	O	-3.705874	-0.116305	-0.851060
C43	C	-3.772159	-0.116290	-0.951552
H44	H	-3.950488	-0.150687	-0.986335
H45	H	-3.725776	-0.038618	-0.940208
C46	C	-3.447305	-0.132487	-0.986942
C47	C	-3.666329	-0.174741	-1.029667
H48	H	-3.382018	-0.168537	-1.035126
H49	H	-3.402642	-0.132493	-0.919237
H50	H	-3.408680	-0.067761	-0.977490
H51	H	-3.704952	-0.239461	-1.039105
H52	H	-3.710996	-0.174747	-1.097375
H53	H	-3.872993	-0.631518	-0.001754
H54	H	-3.837657	-0.385088	-0.269027
H55	H	-3.971427	-0.813012	-0.064791
O56	O	-3.814624	-0.484953	-0.025200
C57	C	-3.981673	-0.505870	0.016612
H58	H	-4.136255	-0.544471	-0.051616
H59	H	-3.954128	-0.554510	0.055776
C60	C	-3.802678	-0.363463	0.185343
C61	C	-3.992542	-0.410866	0.101546
H62	H	-3.809380	-0.304861	0.237738
H63	H	-3.690130	-0.349372	0.157176
H64	H	-3.779746	-0.404007	0.217967
H65	H	-4.015458	-0.370328	0.068915
H66	H	-4.105095	-0.424948	0.129709
O67	O	-4.096204	-0.871823	-0.419050
C68	C	-4.143118	-0.967970	-0.433525
H69	H	-4.059864	-0.968410	-0.356187
H70	H	-4.320446	-1.001277	-0.453537
C71	C	-4.169541	-1.026868	-0.621765
C72	C	-4.067272	-1.027409	-0.526779
H73	H	-4.122766	-1.063535	-0.679291
H74	H	-4.137942	-0.962093	-0.612014
H75	H	-4.317308	-1.054622	-0.638427
H76	H	-3.919512	-0.999644	-0.510112
H77	H	-4.098845	-1.092181	-0.536529
O78	O	-4.110720	-0.761998	-0.645577
C79	C	-4.317204	-0.825274	-0.677441
H80	H	-4.355431	-0.830148	-0.604081
H81	H	-4.433280	-0.796582	-0.714232
C82	C	-4.287365	-0.920585	-0.851747
C83	C	-4.334310	-0.926577	-0.761647
H84	H	-4.297923	-0.983073	-0.903693
H85	H	-4.148255	-0.877953	-0.830282
H86	H	-4.384102	-0.896671	-0.882393
H87	H	-4.237558	-0.950480	-0.730995
H88	H	-4.473404	-0.969216	-0.783109
H89	H	-4.092584	-0.818319	-0.491291
O90	O	-4.061214	-0.625359	-0.686344
C91	C	-4.267701	-0.688627	-0.718196
H92	H	-4.305911	-0.693495	-0.644831
H93	H	-4.383777	-0.659931	-0.754981
C94	C	-4.237912	-0.783949	-0.892510
C95	C	-4.284836	-0.789934	-0.802403
H96	H	-4.248487	-0.846439	-0.944457
H97	H	-4.098800	-0.741322	-0.871054
H98	H	-4.334648	-0.760031	-0.923151
H99	H	-4.188084	-0.813840	-0.771756
H100	H	-4.423932	-0.832568	-0.823857
O101	O	-4.219101	-0.130731	-0.819963
C102	C	-4.263207	-0.214895	-0.805006
H103	H	-4.202418	-0.270087	-0.861291
H104	H	-4.182316	-0.195562	-0.717748
C105	C	-4.577436	-0.190605	-0.761379
C106	C	-4.502789	-0.258396	-0.830516
H107	H	-4.725219	-0.217437	-0.777109
H108	H	-4.547718	-0.133900	-0.771452
H109	H	-4.510007	-0.174500	-0.688670
H110	H	-4.570197	-0.274491	-0.903222
H111	H	-4.532524	-0.315105	-0.820456
H112	H	-3.953263	-0.433793	-0.606022
