data_functionalizedCrystal
_audit_creation_method	'MofGen! by Chris Wilmer'
_symmetry_space_group_name_H-M	'P1'
_symmetry_Int_Tables_number	1
_symmetry_cell_setting	triclinic
loop_
_symmetry_equiv_pos_as_xyz
  x,y,z
_cell_length_a	29.839131
_cell_length_b	19.805407
_cell_length_c	29.839125
_cell_angle_alpha	90.013198
_cell_angle_beta	89.974637
_cell_angle_gamma	89.964772
loop_
_atom_site_label
_atom_site_type_symbol
_atom_site_fract_x
_atom_site_fract_y
_atom_site_fract_z
Zn1	Zn	-0.178916	-1.034652	-0.253996
Zn2	Zn	0.154417	-0.701318	0.079337
Zn3	Zn	0.487750	-0.367985	0.412671
Zn4	Zn	-0.254028	-1.034562	-0.178856
Zn5	Zn	0.079305	-0.701228	0.154478
Zn6	Zn	0.412638	-0.367895	0.487811
Zn7	Zn	-0.178913	-0.921479	-0.178877
Zn8	Zn	0.154420	-0.588145	0.154456
Zn9	Zn	0.487754	-0.254812	0.487790
Zn10	Zn	-0.254020	-0.921412	-0.253956
Zn11	Zn	0.079313	-0.588079	0.079378
Zn12	Zn	0.412647	-0.254746	0.412711
O13	O	-0.216469	-0.978026	-0.216421
O14	O	0.116864	-0.644693	0.116912
O15	O	0.450197	-0.311359	0.450246
O16	O	-0.188885	-1.129356	-0.244036
O17	O	0.144448	-0.796023	0.089297
O18	O	0.477782	-0.462690	0.422630
O19	O	-0.244066	-1.019551	-0.115991
O20	O	0.089267	-0.686218	0.217342
O21	O	0.422600	-0.352884	0.550675
O22	O	-0.116046	-0.936557	-0.188867
O23	O	0.217287	-0.603224	0.144466
O24	O	0.550620	-0.269890	0.477799
O25	O	-0.244069	-1.129290	-0.188831
O26	O	0.089264	-0.795957	0.144502
O27	O	0.422597	-0.462623	0.477835
O28	O	-0.116049	-1.019704	-0.244057
O29	O	0.217285	-0.686371	0.089276
O30	O	0.550618	-0.353038	0.422610
O31	O	-0.188880	-0.936470	-0.116007
O32	O	0.144454	-0.603136	0.217326
O33	O	0.477787	-0.269803	0.550660
O34	O	-0.188871	-0.826753	-0.188828
O35	O	0.144462	-0.493420	0.144505
O36	O	0.477795	-0.160087	0.477838
O37	O	-0.244055	-0.936444	-0.316828
O38	O	0.089278	-0.603110	0.016505
O39	O	0.422611	-0.269777	0.349838
O40	O	-0.244052	-0.826705	-0.243988
O41	O	0.089281	-0.493371	0.089345
O42	O	0.422615	-0.160038	0.422678
O43	O	-0.188877	-1.019640	-0.316858
O44	O	0.144457	-0.686307	0.016476
O45	O	0.477790	-0.352973	0.349809
O46	O	-0.316894	-1.019487	-0.188792
O47	O	0.016439	-0.686153	0.144541
O48	O	0.349772	-0.352820	0.477874
O49	O	-0.316888	-0.936356	-0.243968
O50	O	0.016445	-0.603023	0.089365
O51	O	0.349778	-0.269690	0.422699
C52	C	-0.216461	-0.802170	-0.216407
C53	C	0.116872	-0.468837	0.116927
C54	C	0.450206	-0.135503	0.450260
C55	C	-0.216468	-0.726938	-0.216411
C56	C	0.116865	-0.393605	0.116922
C57	C	0.450199	-0.060271	0.450256
C58	C	-0.333192	-0.977923	-0.216383
C59	C	0.000141	-0.644590	0.116950
C60	C	0.333475	-0.311256	0.450283
C61	C	-0.383126	-0.977941	-0.216382
C62	C	-0.049793	-0.644607	0.116951
C63	C	0.283540	-0.311274	0.450285
C64	C	-0.216465	-0.978044	-0.333599
C65	C	0.116868	-0.644711	-0.000266
C66	C	0.450201	-0.311378	0.333067
C67	C	-0.216464	-0.978052	-0.383534
C68	C	0.116870	-0.644719	-0.050201
C69	C	0.450203	-0.311386	0.283133
C70	C	-0.692736	-1.021312	-0.245199
C71	C	-0.359403	-0.687978	0.088134
C72	C	-0.026069	-0.354645	0.421467
C73	C	-0.880409	-1.021385	-0.245226
C74	C	-0.547076	-0.688052	0.088107
C75	C	-0.213743	-0.354718	0.421440
O76	O	-0.904645	-1.058159	-0.269700
O77	O	-0.571312	-0.724826	0.063634
O78	O	-0.237979	-0.391493	0.396967
N79	N	-0.903912	-0.978141	-0.216471
N80	N	-0.570578	-0.644808	0.116862
N81	N	-0.237245	-0.311474	0.450196
C82	C	-0.880493	-0.934872	-0.187709
C83	C	-0.547159	-0.601539	0.145624
C84	C	-0.213826	-0.268206	0.478958
O85	O	-0.904789	-0.898088	-0.163255
O86	O	-0.571456	-0.564754	0.170079
O87	O	-0.238122	-0.231421	0.503412
C88	C	-0.692821	-0.934796	-0.187685
C89	C	-0.359487	-0.601463	0.145649
C90	C	-0.026154	-0.268129	0.478982
C91	C	-0.669321	-0.978048	-0.216439
C92	C	-0.335987	-0.644714	0.116895
C93	C	-0.002654	-0.311381	0.450228
C94	C	-0.669236	-1.064559	-0.273951
C95	C	-0.335903	-0.731226	0.059382
C96	C	-0.002570	-0.397892	0.392715
C97	C	-0.622321	-1.064543	-0.273942
C98	C	-0.288987	-0.731210	0.059391
C99	C	0.044346	-0.397876	0.392724
C100	C	-0.598905	-1.021279	-0.245182
C101	C	-0.265572	-0.687946	0.088152
C102	C	0.067761	-0.354612	0.421485
C103	C	-0.622405	-0.978032	-0.216430
C104	C	-0.289072	-0.644698	0.116904
C105	C	0.044261	-0.311365	0.450237
C106	C	-0.669403	-0.891525	-0.158925
C107	C	-0.336069	-0.558191	0.174408
C108	C	-0.002736	-0.224858	0.507742
C109	C	-0.622482	-0.891508	-0.158922
C110	C	-0.289148	-0.558175	0.174411
C111	C	0.044185	-0.224841	0.507744
C112	C	-0.598982	-0.934760	-0.187676
C113	C	-0.265648	-0.601426	0.145657
C114	C	0.067685	-0.268093	0.478990
C115	C	-0.552074	-0.934752	-0.187660
C116	C	-0.218741	-0.601418	0.145673
C117	C	0.114592	-0.268085	0.479006
N118	N	-0.528572	-0.977996	-0.216416
N119	N	-0.195239	-0.644662	0.116918
N120	N	0.138095	-0.311329	0.450251
C121	C	-0.551987	-1.021259	-0.245176
C122	C	-0.218654	-0.687926	0.088157
C123	C	0.114679	-0.354593	0.421490
C124	C	-0.979023	-0.934917	-0.187723
C125	C	-0.645690	-0.601583	0.145610
C126	C	-0.312357	-0.268250	0.478944
C127	C	-1.025941	-0.934936	-0.187729
C128	C	-0.692608	-0.601603	0.145605
C129	C	-0.359274	-0.268270	0.478938
C130	C	-1.025854	-1.021448	-0.245247
C131	C	-0.692521	-0.688115	0.088087
C132	C	-0.359188	-0.354782	0.421420
C133	C	-0.978936	-1.021431	-0.245239
C134	C	-0.645602	-0.688098	0.088095
C135	C	-0.312269	-0.354765	0.421428
C136	C	-0.955521	-0.978161	-0.216478
C137	C	-0.622188	-0.644827	0.116855
C138	C	-0.288854	-0.311494	0.450188
C139	C	-0.453462	-1.021222	-0.245155
C140	C	-0.120128	-0.687889	0.088178
C141	C	0.213205	-0.354556	0.421511
C142	C	-0.406542	-1.021204	-0.245143
C143	C	-0.073209	-0.687871	0.088191
C144	C	0.260125	-0.354538	0.421524
C145	C	-0.406633	-0.934690	-0.187627
C146	C	-0.073299	-0.601357	0.145707
C147	C	0.260034	-0.268024	0.479040
C148	C	-0.453548	-0.934711	-0.187637
C149	C	-0.120215	-0.601377	0.145696
C150	C	0.213118	-0.268044	0.479029
C151	C	-0.476962	-0.977979	-0.216405
C152	C	-0.143628	-0.644646	0.116928
C153	C	0.189705	-0.311312	0.450261
O154	O	-0.527809	-0.897991	-0.163203
O155	O	-0.194476	-0.564658	0.170130
O156	O	0.138858	-0.231324	0.503463
O157	O	-0.527683	-1.058028	-0.269634
O158	O	-0.194350	-0.724695	0.063699
O159	O	0.138984	-0.391361	0.397033
C160	C	-0.739652	-1.021328	-0.245208
C161	C	-0.406318	-0.687994	0.088125
C162	C	-0.072985	-0.354661	0.421459
C163	C	-0.763152	-0.978080	-0.216456
C164	C	-0.429818	-0.644747	0.116877
C165	C	-0.096485	-0.311413	0.450211
C166	C	-0.739736	-0.934816	-0.187695
C167	C	-0.406403	-0.601483	0.145638
C168	C	-0.073069	-0.268150	0.478971
C169	C	-0.810069	-0.978100	-0.216461
C170	C	-0.476736	-0.644767	0.116872
C171	C	-0.143403	-0.311433	0.450205
C172	C	-0.833485	-1.021364	-0.245222
C173	C	-0.500152	-0.688030	0.088111
C174	C	-0.166818	-0.354697	0.421444
C175	C	-0.809983	-1.064608	-0.273978
C176	C	-0.476649	-0.731274	0.059356
C177	C	-0.143316	-0.397941	0.392689
C178	C	-0.763067	-1.064592	-0.273969
C179	C	-0.429734	-0.731258	0.059365
C180	C	-0.096400	-0.397925	0.392698
C181	C	-0.763238	-0.891572	-0.158940
C182	C	-0.429905	-0.558239	0.174393
C183	C	-0.096572	-0.224906	0.507727
C184	C	-0.810154	-0.891593	-0.158951
C185	C	-0.476820	-0.558259	0.174383
C186	C	-0.143487	-0.224926	0.507716
C187	C	-0.833569	-0.934856	-0.187712
C188	C	-0.500236	-0.601523	0.145622
C189	C	-0.166903	-0.268190	0.478955
C190	C	-0.099291	-0.978148	-0.216469
C191	C	0.234042	-0.644815	0.116864
C192	C	0.567376	-0.311481	0.450198
C193	C	-0.049357	-0.978200	-0.216489
C194	C	0.283977	-0.644867	0.116844
C195	C	0.617310	-0.311533	0.450177
C196	C	-0.216478	-1.154569	-0.216436
C197	C	0.116855	-0.821235	0.116897
C198	C	0.450188	-0.487902	0.450231
C199	C	-0.216482	-1.229801	-0.216442
C200	C	0.116851	-0.896467	0.116891
C201	C	0.450184	-0.563134	0.450224
C202	C	-0.245244	-0.691586	-0.245086
C203	C	0.088090	-0.358253	0.088247
C204	C	0.421423	-0.024920	0.421580
C205	C	-0.245245	-0.620898	-0.245093
C206	C	0.088089	-0.287564	0.088241
C207	C	0.421422	0.045769	0.421574
C208	C	-0.216472	-0.585562	-0.216421
C209	C	0.116862	-0.252229	0.116912
C210	C	0.450195	0.081104	0.450246
C211	C	-0.187693	-0.620919	-0.187745
C212	C	0.145641	-0.287586	0.145589
C213	C	0.478974	0.045747	0.478922
C214	C	-0.187690	-0.691606	-0.187741
C215	C	0.145644	-0.358273	0.145593
C216	C	0.478977	-0.024940	0.478926
C217	C	-0.187702	-0.335846	-0.187759
C218	C	0.145631	-0.002513	0.145574
C219	C	0.478964	0.330821	0.478907
C220	C	-0.187708	-0.265154	-0.187764
C221	C	0.145625	0.068179	0.145569
C222	C	0.478958	0.401513	0.478902
C223	C	-0.245257	-0.265137	-0.245111
C224	C	0.088076	0.068196	0.088222
C225	C	0.421409	0.401529	0.421555
C226	C	-0.245255	-0.335824	-0.245108
C227	C	0.088079	-0.002491	0.088226
C228	C	0.421412	0.330842	0.421559
C229	C	-0.216474	-0.371175	-0.216433
C230	C	0.116859	-0.037842	0.116901
C231	C	0.450193	0.295492	0.450234
C232	C	-0.216473	-0.447824	-0.216427
C233	C	0.116860	-0.114490	0.116906
C234	C	0.450194	0.218843	0.450240
C235	C	-0.216475	-0.508915	-0.216424
C236	C	0.116859	-0.175582	0.116909
C237	C	0.450192	0.157751	0.450242
C238	C	-0.187657	-1.021418	-0.693196
C239	C	0.145676	-0.688085	-0.359862
C240	C	0.479010	-0.354751	-0.026529
C241	C	-0.187619	-1.021452	-0.880869
C242	C	0.145715	-0.688118	-0.547536
C243	C	0.479048	-0.354785	-0.214202
O244	O	-0.163169	-1.058273	-0.905149
O245	O	0.170164	-0.724939	-0.571816
O246	O	0.503498	-0.391606	-0.238483
N247	N	-0.216343	-0.978142	-0.904319
N248	N	0.116990	-0.644809	-0.570986
N249	N	0.450323	-0.311475	-0.237653
C250	C	-0.245078	-0.934818	-0.880848
C251	C	0.088256	-0.601484	-0.547515
C252	C	0.421589	-0.268151	-0.214182
O253	O	-0.269505	-0.897976	-0.905101
O254	O	0.063828	-0.564643	-0.571767
O255	O	0.397161	-0.231309	-0.238434
C256	C	-0.245113	-0.934781	-0.693176
C257	C	0.088220	-0.601448	-0.359843
C258	C	0.421553	-0.268114	-0.026509
C259	C	-0.216390	-0.978099	-0.669728
C260	C	0.116943	-0.644765	-0.336395
C261	C	0.450277	-0.311432	-0.003062
C262	C	-0.158936	-1.064731	-0.669748
C263	C	0.174398	-0.731398	-0.336415
C264	C	0.507731	-0.398065	-0.003081
C265	C	-0.158947	-1.064725	-0.622832
C266	C	0.174386	-0.731392	-0.289499
C267	C	0.507719	-0.398059	0.043834
C268	C	-0.187680	-1.021406	-0.599365
C269	C	0.145653	-0.688072	-0.266032
C270	C	0.478986	-0.354739	0.067302
C271	C	-0.216402	-0.978092	-0.622813
C272	C	0.116932	-0.644759	-0.289479
C273	C	0.450265	-0.311426	0.043854
C274	C	-0.273845	-0.891454	-0.669706
C275	C	0.059489	-0.558120	-0.336373
C276	C	0.392822	-0.224787	-0.003039
C277	C	-0.273850	-0.891447	-0.622785
C278	C	0.059483	-0.558114	-0.289452
C279	C	0.392816	-0.224781	0.043882
C280	C	-0.245127	-0.934765	-0.599337
C281	C	0.088206	-0.601431	-0.266004
C282	C	0.421540	-0.268098	0.067329
C283	C	-0.245146	-0.934766	-0.552430
C284	C	0.088187	-0.601433	-0.219096
C285	C	0.421521	-0.268100	0.114237
N286	N	-0.216421	-0.978076	-0.528979
N287	N	0.116912	-0.644743	-0.195646
N288	N	0.450245	-0.311410	0.137687
C289	C	-0.187689	-1.021396	-0.552447
C290	C	0.145645	-0.688062	-0.219114
C291	C	0.478978	-0.354729	0.114220
C292	C	-0.245057	-0.934841	-0.979379
C293	C	0.088276	-0.601507	-0.646046
C294	C	0.421609	-0.268174	-0.312712
C295	C	-0.245049	-0.934851	-1.026297
C296	C	0.088284	-0.601517	-0.692964
C297	C	0.421618	-0.268184	-0.359630
C298	C	-0.187590	-1.021484	-1.026314
C299	C	0.145744	-0.688151	-0.692981
C300	C	0.479077	-0.354817	-0.359648
C301	C	-0.187601	-1.021477	-0.979396
C302	C	0.145733	-0.688144	-0.646062
C303	C	0.479066	-0.354810	-0.312729
C304	C	-0.216333	-0.978150	-0.955929
C305	C	0.117001	-0.644817	-0.622595
C306	C	0.450334	-0.311484	-0.289262
C307	C	-0.187715	-1.021380	-0.453921
C308	C	0.145618	-0.688047	-0.120588
C309	C	0.478951	-0.354713	0.212746
C310	C	-0.187731	-1.021372	-0.407002
C311	C	0.145603	-0.688038	-0.073668
C312	C	0.478936	-0.354705	0.259665
C313	C	-0.245188	-0.934736	-0.406988
C314	C	0.088145	-0.601403	-0.073655
C315	C	0.421478	-0.268070	0.259678
C316	C	-0.245175	-0.934746	-0.453904
C317	C	0.088159	-0.601413	-0.120570
C318	C	0.421492	-0.268080	0.212763
C319	C	-0.216435	-0.978071	-0.477369
C320	C	0.116899	-0.644737	-0.144036
C321	C	0.450232	-0.311404	0.189298
O322	O	-0.269580	-0.897960	-0.528120
O323	O	0.063754	-0.564626	-0.194787
O324	O	0.397087	-0.231293	0.138546
O325	O	-0.163257	-1.058221	-0.528187
O326	O	0.170076	-0.724888	-0.194853
O327	O	0.503409	-0.391555	0.138480
C328	C	-0.187646	-1.021424	-0.740111
C329	C	0.145688	-0.688091	-0.406778
C330	C	0.479021	-0.354758	-0.073445
C331	C	-0.216367	-0.978111	-0.763559
C332	C	0.116967	-0.644778	-0.430226
C333	C	0.450300	-0.311444	-0.096893
C334	C	-0.245100	-0.934791	-0.740092
C335	C	0.088234	-0.601458	-0.406758
C336	C	0.421567	-0.268125	-0.073425
C337	C	-0.216359	-0.978121	-0.810477
C338	C	0.116975	-0.644787	-0.477144
C339	C	0.450308	-0.311454	-0.143810
C340	C	-0.187626	-1.021440	-0.833945
C341	C	0.145708	-0.688107	-0.500611
C342	C	0.479041	-0.354774	-0.167278
C343	C	-0.158901	-1.064750	-0.810494
C344	C	0.174432	-0.731417	-0.477161
C345	C	0.507766	-0.398083	-0.143828
C346	C	-0.158913	-1.064744	-0.763579
C347	C	0.174421	-0.731411	-0.430246
C348	C	0.507754	-0.398077	-0.096912
C349	C	-0.273824	-0.891482	-0.763542
C350	C	0.059509	-0.558148	-0.430209
C351	C	0.392842	-0.224815	-0.096875
C352	C	-0.273811	-0.891492	-0.810457
C353	C	0.059523	-0.558159	-0.477124
C354	C	0.392856	-0.224825	-0.143791
C355	C	-0.245078	-0.934812	-0.833925
C356	C	0.088256	-0.601478	-0.500592
C357	C	0.421589	-0.268145	-0.167258
C358	C	-0.216441	-0.978047	-0.099699
C359	C	0.116892	-0.644713	0.233635
C360	C	0.450226	-0.311380	0.566968
C361	C	-0.216316	-0.978170	-0.049764
C362	C	0.117017	-0.644837	0.283569
C363	C	0.450350	-0.311504	0.616902
H364	H	-0.472519	-1.056451	-0.268584
H365	H	-0.139186	-0.723118	0.064749
H366	H	0.194148	-0.389784	0.398082
H367	H	-0.603420	-0.856270	-0.135503
H368	H	-0.270086	-0.522936	0.197830
H369	H	0.063247	-0.189603	0.531164
O370	O	-0.156748	-1.068095	-0.381714
O371	O	0.176586	-0.734762	-0.048380
O372	O	0.509919	-0.401429	0.284953
H373	H	-0.176862	-1.102513	-0.360341
H374	H	0.156471	-0.769180	-0.027008
H375	H	0.489805	-0.435847	0.306325
O376	O	-1.051113	-1.068106	-0.276274
O377	O	-0.717780	-0.734773	0.057060
O378	O	-0.384446	-0.401439	0.390393
H379	H	-1.087685	-1.060844	-0.271447
H380	H	-0.754352	-0.727510	0.061886
H381	H	-0.421018	-0.394177	0.395219
H382	H	-0.268676	-0.720351	-0.268433
H383	H	0.064658	-0.387018	0.064901
H384	H	0.397991	-0.053684	0.398234
H385	H	-0.164255	-0.720389	-0.164393
H386	H	0.169078	-0.387056	0.168941
H387	H	0.502411	-0.053722	0.502274
O388	O	-0.304808	-0.844732	-0.738242
O389	O	0.028526	-0.511399	-0.404909
O390	O	0.361859	-0.178065	-0.071575
H391	H	-0.340067	-0.856294	-0.747240
H392	H	-0.006734	-0.522961	-0.413906
H393	H	0.326600	-0.189628	-0.080573
O394	O	-0.156664	-0.582798	-0.156819
O395	O	0.176669	-0.249465	0.176514
O396	O	0.510002	0.083868	0.509847
H397	H	-0.121414	-0.596384	-0.164592
H398	H	0.211920	-0.263051	0.168741
H399	H	0.545253	0.070282	0.502075
O400	O	-0.127911	-1.111474	-0.835813
O401	O	0.205422	-0.778141	-0.502480
O402	O	0.538755	-0.444807	-0.169147
H403	H	-0.107939	-1.141598	-0.811630
H404	H	0.225394	-0.808265	-0.478297
H405	H	0.558727	-0.474932	-0.144963
H406	H	-0.164311	-1.056656	-0.473021
H407	H	0.169022	-0.723323	-0.139688
H408	H	0.502356	-0.389990	0.193646
O409	O	-0.276311	-0.226980	-0.276015
O410	O	0.057023	0.106353	0.057318
O411	O	0.390356	0.439686	0.390652
H412	H	-0.311552	-0.240514	-0.268213
H413	H	0.021782	0.092819	0.065120
H414	H	0.355115	0.426152	0.398453
H415	H	-0.164275	-0.236386	-0.164416
H416	H	0.169058	0.096947	0.168917
H417	H	0.502392	0.430281	0.502250
O418	O	-0.127965	-1.111443	-0.597544
O419	O	0.205368	-0.778109	-0.264211
O420	O	0.538702	-0.444776	0.069122
H421	H	-0.107984	-1.141558	-0.621751
H422	H	0.225350	-0.808225	-0.288418
H423	H	0.558683	-0.474892	0.044915
O424	O	-0.127946	-1.111463	-0.695056
O425	O	0.205387	-0.778130	-0.361723
O426	O	0.538721	-0.444796	-0.028390
H427	H	-0.107982	-1.141579	-0.670862
H428	H	0.225352	-0.808245	-0.337528
H429	H	0.558685	-0.474912	-0.004195
O430	O	-0.381200	-1.067864	-0.276156
O431	O	-0.047866	-0.734530	0.057177
O432	O	0.285467	-0.401197	0.390511
H433	H	-0.359822	-1.037546	-0.298991
H434	H	-0.026489	-0.704213	0.034342
H435	H	0.306844	-0.370879	0.367676
H436	H	-0.268677	-0.592117	-0.268443
H437	H	0.064656	-0.258784	0.064891
H438	H	0.397989	0.074549	0.398224
H439	H	-0.164211	-1.056749	-0.960307
H440	H	0.169123	-0.723415	-0.626974
H441	H	0.502456	-0.390082	-0.293641
H442	H	-0.164194	-1.056757	-1.045430
H443	H	0.169139	-0.723424	-0.712096
H444	H	0.502472	-0.390090	-0.378763
H445	H	-0.268568	-0.899480	-0.472996
H446	H	0.064765	-0.566147	-0.139663
H447	H	0.398099	-0.232814	0.193671
H448	H	-0.164271	-0.364620	-0.164407
H449	H	0.169062	-0.031287	0.168926
H450	H	0.502396	0.302047	0.502259
H451	H	-0.297234	-0.856180	-0.688789
H452	H	0.036099	-0.522847	-0.355456
H453	H	0.369432	-0.189513	-0.022123
H454	H	-0.268443	-0.899585	-1.045384
H455	H	0.064890	-0.566251	-0.712051
H456	H	0.398223	-0.232918	-0.378718
H457	H	-0.268686	-0.364591	-0.268453
H458	H	0.064647	-0.031258	0.064880
H459	H	0.397981	0.302076	0.398213
H460	H	-0.603190	-1.099760	-0.297358
H461	H	-0.269857	-0.766427	0.035976
H462	H	0.063477	-0.433093	0.369309
H463	H	-0.959962	-0.899679	-0.164302
H464	H	-0.626629	-0.566346	0.169031
H465	H	-0.293295	-0.233013	0.502365
O466	O	-0.276035	-0.888086	-0.954070
O467	O	0.057299	-0.554752	-0.620737
O468	O	0.390632	-0.221419	-0.287404
H469	H	-0.296001	-0.857971	-0.978263
H470	H	0.037332	-0.524638	-0.644930
H471	H	0.370666	-0.191304	-0.311597
H472	H	-0.297243	-0.856158	-0.603681
H473	H	0.036090	-0.522824	-0.270347
H474	H	0.369423	-0.189491	0.062986
O475	O	-0.276175	-0.888009	-0.381673
O476	O	0.057158	-0.554675	-0.048340
O477	O	0.390491	-0.221342	0.284994
H478	H	-0.271350	-0.895279	-0.345110
H479	H	0.061983	-0.561945	-0.011776
H480	H	0.395317	-0.228612	0.321557
O481	O	-0.127931	-1.111462	-0.738291
O482	O	0.205402	-0.778129	-0.404957
O483	O	0.538736	-0.444796	-0.071624
H484	H	-0.107950	-1.141578	-0.762498
H485	H	0.225384	-0.808245	-0.429165
H486	H	0.558717	-0.474912	-0.095831
O487	O	-0.478899	-0.888064	-0.156625
O488	O	-0.145566	-0.554731	0.176709
O489	O	0.187767	-0.221398	0.510042
H490	H	-0.454733	-0.857976	-0.136626
H491	H	-0.121399	-0.524643	0.196708
H492	H	0.211934	-0.191309	0.530041
O493	O	-0.304790	-0.844764	-0.835746
O494	O	0.028543	-0.511431	-0.502413
O495	O	0.361876	-0.178098	-0.169080
H496	H	-0.324766	-0.814637	-0.811541
H497	H	0.008567	-0.481304	-0.478207
H498	H	0.341901	-0.147970	-0.144874
H499	H	-0.688296	-1.099790	-0.297374
H500	H	-0.354963	-0.766456	0.035959
H501	H	-0.021630	-0.433123	0.369292
O502	O	-1.051282	-0.888296	-0.156707
O503	O	-0.717949	-0.554962	0.176626
O504	O	-0.384616	-0.221629	0.509960
H505	H	-1.087842	-0.895578	-0.161536
H506	H	-0.754509	-0.562244	0.171798
H507	H	-0.421176	-0.228911	0.505131
H508	H	-0.688528	-0.856305	-0.135510
H509	H	-0.355195	-0.522971	0.197823
H510	H	-0.021861	-0.189638	0.531156
H511	H	-0.959805	-1.056650	-0.268653
H512	H	-0.626471	-0.723317	0.064681
H513	H	-0.293138	-0.389983	0.398014
O514	O	-0.381374	-0.888026	-0.156608
O515	O	-0.048041	-0.554693	0.176726
O516	O	0.285293	-0.221360	0.510059
H517	H	-0.344802	-0.895280	-0.161439
H518	H	-0.011468	-0.561946	0.171894
H519	H	0.321865	-0.228613	0.505228
H520	H	-0.829056	-1.099837	-0.297394
H521	H	-0.495722	-0.766504	0.035939
H522	H	-0.162389	-0.433170	0.369273
O523	O	-0.737727	-1.111251	-0.304979
O524	O	-0.404393	-0.777917	0.028354
O525	O	-0.071060	-0.444584	0.361688
H526	H	-0.746717	-1.099610	-0.340233
H527	H	-0.413383	-0.766277	-0.006899
H528	H	-0.080050	-0.432944	0.326434
O529	O	-0.835499	-0.844939	-0.127936
O530	O	-0.502165	-0.511605	0.205397
O531	O	-0.168832	-0.178272	0.538730
H532	H	-0.811329	-0.814849	-0.107941
H533	H	-0.477996	-0.481516	0.225392
H534	H	-0.144663	-0.148183	0.558726
H535	H	-0.744177	-0.856341	-0.135520
H536	H	-0.410844	-0.523007	0.197813
H537	H	-0.077510	-0.189674	0.531147
