data_functionalizedCrystal
_audit_creation_method	'MofGen! by Chris Wilmer'
_symmetry_space_group_name_H-M	'P1'
_symmetry_Int_Tables_number	1
_symmetry_cell_setting	triclinic
loop_
_symmetry_equiv_pos_as_xyz
  x,y,z
_cell_length_a	27.440280
_cell_length_b	14.446369
_cell_length_c	14.446369
_cell_angle_alpha	60.000250
_cell_angle_beta	90.005311
_cell_angle_gamma	59.999534
loop_
_atom_site_label
_atom_site_type_symbol
_atom_site_fract_x
_atom_site_fract_y
_atom_site_fract_z
Zr1	Zr	0.469506	1.013131	-0.121408
O2	O	0.391688	1.206259	-0.269237
O3	O	0.493361	0.820009	-0.076085
O4	O	0.493362	1.013117	-0.269204
O5	O	0.391687	1.013159	0.076211
O6	O	0.573565	1.013099	-0.269185
O7	O	0.391687	1.013150	-0.076118
O8	O	0.573563	0.667663	0.076270
O9	O	0.391689	1.358595	-0.269244
O10	O	0.563390	0.899427	-0.056748
O11	O	0.503535	0.899446	0.056919
O12	O	0.503537	1.126807	-0.170454
O13	O	0.443682	1.126826	-0.056787
Zr14	Zr	0.597420	1.013115	0.121569
Zr15	Zr	0.597420	1.013102	-0.121378
Zr16	Zr	0.469506	1.013144	0.121539
Zr17	Zr	0.469507	1.256088	-0.121419
Zr18	Zr	0.597419	0.770157	0.121580
O19	O	0.573566	1.206237	0.076246
O20	O	0.573566	1.206218	-0.269194
O21	O	0.391688	1.206278	0.076202
O22	O	0.675238	0.819987	0.269398
O23	O	0.675239	0.819968	-0.076041
O24	O	0.493361	0.820028	0.269354
O25	O	0.675239	1.013087	-0.076050
O26	O	0.573564	1.013129	0.269365
O27	O	0.493362	1.013147	0.269346
O28	O	0.675239	1.013096	0.076279
O29	O	0.493364	1.358572	-0.269220
O30	O	0.573563	0.667674	0.269381
O31	O	0.675238	0.667651	0.269405
O32	O	0.675238	0.667641	0.076294
O33	O	0.391689	1.358605	-0.076134
O34	O	0.493364	1.358583	-0.076109
O35	O	0.563390	0.899439	0.170615
O36	O	0.623244	0.899420	0.056948
O37	O	0.563391	1.126800	-0.056758
O38	O	0.503537	1.126819	0.056909
C39	C	0.533462	0.709220	0.000094
C40	C	0.533461	0.606078	0.000099
C41	C	0.495892	0.459080	0.072117
C42	C	0.495688	0.566700	0.071826
C43	C	0.505923	0.655073	-0.123442
C44	C	0.505641	0.547840	-0.123068
C45	C	0.598596	0.372608	0.050559
C46	C	0.598500	0.478759	0.053080
C47	C	0.373462	1.013159	0.000042
C48	C	0.319159	1.013171	0.000029
C49	C	0.013704	0.894411	0.059465
C50	C	-0.037314	0.894404	0.059475
O51	O	-0.037131	0.793463	0.109987
N52	N	-0.094074	1.013093	0.000121
C53	C	-0.099814	1.131797	-0.059238
O54	O	-0.152777	1.232750	-0.109722
C55	C	-0.048796	1.131802	-0.059241
C56	C	0.007963	1.013106	0.000108
C57	C	0.070461	0.775725	0.118810
C58	C	0.121475	0.775732	0.118798
C59	C	0.115734	0.894427	0.059441
C60	C	0.058978	1.013114	0.000096
C61	C	-0.054537	1.250505	-0.118593
C62	C	-0.003513	1.250500	-0.118590
C63	C	0.053246	1.131804	-0.059241
C64	C	0.104251	1.131816	-0.059273
N65	N	0.161010	1.013127	0.000081
C66	C	0.166752	0.894433	0.059438
C67	C	-0.206953	1.131775	-0.059226
C68	C	-0.257970	1.131771	-0.059231
C69	C	-0.195466	0.894378	0.059484
C70	C	-0.144449	0.894384	0.059482
C71	C	-0.150193	1.013086	0.000128
C72	C	0.273884	0.894458	0.059408
C73	C	0.324901	0.894476	0.059387
C74	C	0.262393	1.131868	-0.059323
C75	C	0.211381	1.131851	-0.059308
C76	C	0.217130	1.013135	0.000066
O77	O	0.104114	1.232706	-0.109756
O78	O	0.219717	0.793496	0.109926
C79	C	0.693464	1.013087	0.000119
C80	C	0.747767	1.013075	0.000131
C81	C	0.533464	1.013106	-0.303809
C82	C	0.533464	1.013101	-0.406946
C83	C	0.533465	1.317026	0.000066
C84	C	0.533465	1.420168	0.000062
C85	C	0.571401	0.869707	-0.481913
C86	C	0.571237	0.869610	-0.374584
C87	C	0.468428	1.084343	-0.481525
C88	C	0.468635	1.083433	-0.588384
C89	C	0.560037	1.086365	-0.589936
C90	C	0.561353	1.083663	-0.481263
C91	C	0.533463	1.013140	0.303970
C92	C	0.533463	1.013145	0.407107
C93	C	0.693463	0.709184	0.000132
C94	C	0.747765	0.606030	0.000150
C95	C	0.533462	0.709236	0.303984
C96	C	0.533461	0.606100	0.407126
C97	C	0.693463	0.709201	0.304022
C98	C	0.747765	0.606052	0.407177
C99	C	0.373464	1.317045	-0.303861
C100	C	0.319161	1.420194	-0.407016
C101	C	0.373464	1.317062	0.000028
C102	C	0.319161	1.420216	0.000011
C103	C	0.533465	1.317010	-0.303823
C104	C	0.533466	1.420146	-0.406965
C105	C	0.742023	0.557591	-0.059200
C106	C	0.793041	0.460681	-0.059206
C107	C	0.849801	0.412203	0.000145
C108	C	0.855542	0.460652	0.059497
C109	C	0.804525	0.557567	0.059496
C110	C	0.804515	0.557602	0.396286
C111	C	0.855543	0.460697	0.493202
C112	C	0.849819	0.412237	0.601007
C113	C	0.793064	0.460696	0.611895
C114	C	0.742037	0.557606	0.514981
C115	C	0.262412	1.468655	-0.396126
C116	C	0.211384	1.565591	-0.493041
C117	C	0.217107	1.614056	-0.600846
C118	C	0.273863	1.565591	-0.611734
C119	C	0.324890	1.468664	-0.514820
C120	C	0.324904	1.468665	0.059350
C121	C	0.273886	1.565602	0.059330
C122	C	0.217126	1.614083	-0.000025
C123	C	0.211385	1.565630	-0.059372
C124	C	0.262402	1.468701	-0.059357
C125	C	0.495528	0.459794	0.482106
C126	C	0.495689	0.566715	0.374772
C127	C	0.598498	0.479233	0.481701
C128	C	0.598294	0.371858	0.588564
C129	C	0.506894	0.546851	0.590121
C130	C	0.505574	0.655321	0.481444
H131	H	0.447646	0.655510	0.036817
N132	N	-0.009706	1.378529	-0.182610
H133	H	-0.032243	1.430419	-0.151485
H134	H	-0.032236	1.430312	-0.265614
H135	H	0.371116	1.429199	0.107691
N136	N	0.543319	0.514022	0.693731
H137	H	0.560524	0.566808	0.669508
H138	H	0.576839	0.417595	0.742331
N139	N	0.635003	0.795109	-0.478786
H140	H	0.653607	0.840994	-0.480783
H141	H	0.635396	0.791040	-0.546591
N142	N	0.280089	0.766418	0.123446
H143	H	0.323789	0.691242	0.161032
H144	H	0.260281	0.761237	0.068965
N145	N	0.916751	0.408418	0.481439
H146	H	0.948212	0.339672	0.559186
H147	H	0.921476	0.482429	0.438565
N148	N	0.622515	1.025565	-0.595374
H149	H	0.634227	0.949934	-0.599813
H150	H	0.651211	0.992839	-0.525179
N151	N	-0.115748	1.378529	-0.182599
H152	H	-0.111633	1.453710	-0.220187
H153	H	-0.138269	1.383694	-0.128102
N154	N	0.786835	0.408445	-0.123225
H155	H	0.764298	0.368241	-0.092087
H156	H	0.827782	0.339749	-0.114215
H157	H	-0.098236	0.797730	0.107819
H158	H	0.438830	1.188671	-0.666975
H159	H	0.447362	1.032818	-0.588117
H160	H	0.530336	0.687442	0.506971
N161	N	0.634687	0.795445	-0.302657
H162	H	0.643818	0.718654	-0.225576
H163	H	0.639734	0.855469	-0.293707
H164	H	0.788412	0.421225	0.699683
H165	H	0.167687	0.679077	0.167121
N166	N	0.280085	1.617848	0.123344
H167	H	0.323785	1.572412	0.160953
H168	H	0.260275	1.600998	0.182996
H169	H	0.257718	1.429257	-0.107675
H170	H	0.553138	0.813697	-0.480881
H171	H	0.627992	0.501475	0.508937
N172	N	0.442155	0.601727	-0.176567
H173	H	0.414617	0.694780	-0.200173
H174	H	0.430385	0.546208	-0.119922
N175	N	0.256206	1.259884	-0.123348
H176	H	0.297140	1.241867	-0.114341
H177	H	0.233649	1.311716	-0.092191
H178	H	0.371096	1.429207	-0.523700
H179	H	0.695811	0.597060	-0.107544
N180	N	0.443040	0.777337	-0.177365
H181	H	0.440282	0.851641	-0.247817
H182	H	0.432323	0.801077	-0.121904
N183	N	0.904858	0.307712	0.705532
H184	H	0.941675	0.284377	0.682264
H185	H	0.904833	0.227360	0.752137
H186	H	-0.190799	0.797730	0.107813
N187	N	-0.319186	1.259792	-0.123258
H188	H	-0.315075	1.334979	-0.160859
H189	H	-0.341711	1.264969	-0.068769
H190	H	0.809186	0.597045	0.308515
N191	N	0.431928	0.509121	0.478995
H192	H	0.408359	0.533994	0.407113
H193	H	0.413375	0.588307	0.481036
H194	H	0.695831	0.597042	0.523864
H195	H	0.809209	0.596994	0.107832
H196	H	0.459726	0.586433	0.594224
H197	H	-0.211638	1.228443	-0.107565
H198	H	0.257740	1.429200	-0.308354
N199	N	0.528563	1.222325	-0.515076
H200	H	0.495012	1.241457	-0.482559
H201	H	0.511635	1.285146	-0.600470
H202	H	0.165164	1.228503	-0.107649
H203	H	0.891338	0.333287	0.000138
H204	H	0.901763	0.421167	0.107818
N205	N	0.546823	0.795115	-0.303333
H206	H	0.536122	0.762220	-0.341609
H207	H	0.510013	0.854956	-0.294560
N208	N	0.519715	0.341029	0.480727
H209	H	0.555142	0.261685	0.551677
H210	H	0.532517	0.355774	0.411919
H211	H	0.165176	1.605035	-0.484154
H212	H	0.438933	1.189847	-0.508767
H213	H	0.175553	1.692980	-0.679751
N214	N	0.162102	1.718628	-0.000035
H215	H	0.174358	1.741954	0.046569
H216	H	0.137566	1.684837	0.033710
H217	H	0.447003	1.034875	-0.429925
N218	N	0.280032	1.617869	-0.728013
H219	H	0.239092	1.686619	-0.787746
H220	H	0.302586	1.543857	-0.736990
N221	N	0.624821	1.014843	-0.413130
H222	H	0.625229	1.016790	-0.344225
H223	H	0.642491	1.060698	-0.461449
N224	N	0.150164	1.617904	-0.123365
H225	H	0.118721	1.686646	-0.114351
H226	H	0.145443	1.543883	-0.092181
N227	N	0.386118	0.766442	0.123399
H228	H	0.390904	0.714553	0.206420
H229	H	0.417534	0.784550	0.114300
N230	N	0.520096	0.517078	0.303530
H231	H	0.562172	0.435273	0.348923
H232	H	0.520260	0.586484	0.233430
H233	H	0.447797	0.656073	0.320489
H234	H	0.075146	0.679064	0.167152
N235	N	0.626473	0.251631	0.588225
H236	H	0.638910	0.268746	0.518795
H237	H	0.596663	0.230366	0.587103
H238	H	0.514160	0.529991	0.162797
N239	N	0.626879	0.428144	0.413357
H240	H	0.602463	0.406714	0.386670
H241	H	0.668716	0.346538	0.462139
N242	N	0.442106	0.775202	0.413342
H243	H	0.414172	0.757110	0.451828
H244	H	0.431499	0.797506	0.334676
H245	H	0.532526	1.192042	-0.668146
N246	N	0.637771	0.332163	0.692669
H247	H	0.655231	0.384425	0.669002
H248	H	0.671107	0.235774	0.737134
H249	H	0.514266	0.370213	0.163315
H250	H	0.448133	0.494851	0.037401
H251	H	0.531240	0.525863	-0.179673
H252	H	0.621604	0.278861	0.140131
N253	N	0.540423	0.693213	-0.197644
H254	H	0.521939	0.724401	-0.276650
H255	H	0.583240	0.614877	-0.164982
N256	N	0.625756	0.426364	0.173614
H257	H	0.600755	0.404993	0.220006
H258	H	0.627181	0.494583	0.174221
N259	N	0.638712	0.507213	-0.009199
H260	H	0.615233	0.603469	-0.072927
H261	H	0.654844	0.453975	-0.041351
H262	H	0.626722	0.346624	-0.001673
