data_functionalizedCrystal
_audit_creation_method	'MofGen! by Chris Wilmer'
_symmetry_space_group_name_H-M	'P1'
_symmetry_Int_Tables_number	1
_symmetry_cell_setting	triclinic
loop_
_symmetry_equiv_pos_as_xyz
  x,y,z
_cell_length_a	15.944499
_cell_length_b	15.944493
_cell_length_c	15.021413
_cell_angle_alpha	90.009890
_cell_angle_beta	89.990095
_cell_angle_gamma	83.476327
loop_
_atom_site_label
_atom_site_type_symbol
_atom_site_fract_x
_atom_site_fract_y
_atom_site_fract_z
O1	O	1.114533	0.108117	-0.074074
O2	O	1.614533	0.608117	0.425926
O3	O	0.869975	0.121519	-0.074062
O4	O	1.369975	0.621519	0.425938
O5	O	0.998958	-0.007461	-0.074076
O6	O	1.498958	0.492539	0.425924
O7	O	0.985551	0.237097	-0.074060
O8	O	1.485551	0.737097	0.425940
O9	O	0.998937	-0.007443	0.073989
O10	O	1.498937	0.492557	0.573989
O11	O	0.869955	0.121537	0.074002
O12	O	1.369955	0.621537	0.574002
O13	O	1.114513	0.108135	0.073991
O14	O	1.614513	0.608135	0.573991
Zn15	Zn	0.992230	0.114839	0.097505
Zn16	Zn	1.492230	0.614839	0.597505
Zn17	Zn	0.992257	0.114815	-0.097576
Zn18	Zn	1.492257	0.614815	0.402424
O19	O	0.985530	0.237116	0.074004
O20	O	1.485530	0.737116	0.574004
C21	C	0.838670	0.120979	-0.000029
C22	C	1.338670	0.620979	0.499971
C23	C	0.745422	0.119334	-0.000025
C24	C	1.245422	0.619334	0.499975
C25	C	0.998400	-0.038747	-0.000047
C26	C	1.498400	0.461253	0.499953
C27	C	0.996757	-0.131995	-0.000059
C28	C	1.496757	0.368005	0.499941
C29	C	0.453871	0.194269	-0.000034
C30	C	0.953871	0.694269	0.499966
C31	C	0.514918	0.155307	-0.073041
C32	C	1.014918	0.655307	0.426959
C33	C	0.409787	0.113358	-0.000046
C34	C	0.909787	0.613358	0.499954
C35	C	0.514884	0.155303	0.072939
C36	C	1.014884	0.655303	0.572939
C37	C	0.574695	0.116299	-0.000034
C38	C	1.074695	0.616299	0.499966
C39	C	0.469606	0.074374	-0.073114
C40	C	0.969606	0.574374	0.426886
C41	C	0.469565	0.074382	0.072931
C42	C	0.969565	0.574382	0.572931
C43	C	0.530595	0.035361	-0.000094
C44	C	1.030595	0.535361	0.499906
C45	C	0.314787	0.111666	-0.000054
C46	C	0.814787	0.611666	0.499946
C47	C	0.669694	0.117984	-0.000033
C48	C	1.169694	0.617984	0.499967
C49	C	1.072679	-0.367769	-0.000045
C50	C	1.572679	0.132231	0.499955
C51	C	1.031747	-0.418339	-0.073046
C52	C	1.531747	0.081661	0.426954
C53	C	0.993713	-0.302716	-0.000048
C54	C	1.493713	0.197284	0.499952
C55	C	1.031709	-0.418297	0.072933
C56	C	1.531709	0.081703	0.572933
C57	C	0.990778	-0.467625	-0.000033
C58	C	1.490778	0.032375	0.499967
C59	C	0.952802	-0.352057	-0.073109
C60	C	1.452802	0.147943	0.426891
C61	C	0.952775	-0.352012	0.072936
C62	C	1.452775	0.147988	0.572936
C63	C	0.911785	-0.402548	-0.000082
C64	C	1.411785	0.097452	0.499918
C65	C	0.995405	-0.207716	-0.000057
C66	C	1.495405	0.292284	0.499943
C67	C	0.989079	-0.562622	-0.000030
C68	C	1.489079	-0.062622	0.499970
C69	C	1.145818	0.108675	-0.000045
C70	C	1.645818	0.608675	0.499955
C71	C	1.239066	0.110320	-0.000054
C72	C	1.739066	0.610320	0.499946
C73	C	0.986088	0.268401	-0.000026
C74	C	1.486088	0.768401	0.499974
C75	C	0.987731	0.361650	-0.000021
C76	C	1.487731	0.861650	0.499979
N77	N	0.992218	0.114855	0.230642
N78	N	1.492218	0.614855	0.730642
N79	N	0.992276	0.114792	-0.230714
N80	N	1.492276	0.614792	0.269286
C81	C	0.932567	0.174468	0.470332
C82	C	1.432567	0.674468	0.970332
C83	C	1.008466	0.190761	0.529664
C84	C	1.508466	0.690761	1.029664
C85	C	0.992240	0.114834	0.412249
C86	C	1.492240	0.614834	0.912249
C87	C	0.916361	0.098560	0.529659
C88	C	1.416361	0.598560	1.029659
C89	C	0.992254	0.114816	0.587673
C90	C	1.492254	0.614816	1.087673
C91	C	1.068177	0.131165	0.470275
C92	C	1.568177	0.631165	0.970275
C93	C	0.976022	0.038931	0.470264
C94	C	1.476022	0.538931	0.970264
C95	C	1.051976	0.055192	0.529570
C96	C	1.551976	0.555192	1.029570
C97	C	0.992230	0.114847	0.311192
C98	C	1.492230	0.614847	0.811192
C99	C	0.992272	0.114803	0.688728
C100	C	1.492272	0.614803	1.188728
H101	H	0.420527	0.261416	-0.000100
H102	H	0.920527	0.761416	0.499900
Cl103	Cl	0.545858	0.208171	0.168227
Cl104	Cl	1.045858	0.708171	0.668227
Cl105	Cl	0.954788	-0.060130	0.429946
Cl106	Cl	1.454788	0.439870	0.929946
H107	H	1.102500	0.004751	0.555417
H108	H	1.602500	0.504751	1.055417
H109	H	0.919481	-0.323239	-0.134892
H110	H	1.419481	0.176761	0.365108
H111	H	1.065104	-0.447298	-0.134767
H112	H	1.565104	0.052702	0.365233
Cl113	Cl	0.438500	0.021600	0.168223
Cl114	Cl	0.938500	0.521600	0.668223
H115	H	0.852187	0.084803	0.555746
H116	H	1.352187	0.584803	1.055746
Cl117	Cl	1.177694	-0.343655	-0.000160
Cl118	Cl	1.677694	0.156345	0.499840
H119	H	0.843713	-0.418002	-0.000119
H120	H	1.343713	0.081998	0.499881
H121	H	0.535018	0.189524	-0.134755
H122	H	1.035018	0.689524	0.365245
Cl123	Cl	1.083205	-0.462960	0.168215
Cl124	Cl	1.583205	0.037040	0.668215
Cl125	Cl	0.438791	0.021566	-0.168511
Cl126	Cl	0.938791	0.521566	0.331489
Cl127	Cl	0.581851	-0.068398	-0.000161
Cl128	Cl	1.081851	0.431602	0.499839
H129	H	1.022196	0.254943	0.555754
H130	H	1.522196	0.754943	1.055754
H131	H	0.882155	0.224939	0.444321
H132	H	1.382155	0.724939	0.944321
Cl133	Cl	0.901336	-0.307254	0.168234
Cl134	Cl	1.401336	0.192746	0.668234
H135	H	1.132365	0.144999	0.444300
H136	H	1.632365	0.644999	0.944300
