data_functionalizedCrystal
_audit_creation_method	'MofGen! by Chris Wilmer'
_symmetry_space_group_name_H-M	'P1'
_symmetry_Int_Tables_number	1
_symmetry_cell_setting	triclinic
loop_
_symmetry_equiv_pos_as_xyz
  x,y,z
_cell_length_a	6.817900
_cell_length_b	15.866870
_cell_length_c	16.305550
_cell_angle_alpha	112.498803
_cell_angle_beta	103.455250
_cell_angle_gamma	102.655915
loop_
_atom_site_label
_atom_site_type_symbol
_atom_site_fract_x
_atom_site_fract_y
_atom_site_fract_z
V1	V	-4.051892	-0.133572	-0.304568
O2	O	-4.012769	0.005585	-0.256287
O3	O	-4.028396	-0.264050	-0.343343
O4	O	-4.002974	-0.131883	-0.418760
O5	O	-4.038366	-0.127496	-0.180349
V6	V	-4.532361	-0.116884	-0.284747
O7	O	-4.319852	-0.170179	-0.348047
O8	O	-4.714598	-0.080277	-0.241268
O9	O	-4.332650	0.013593	-0.245972
O10	O	-4.688881	-0.256042	-0.333028
O11	O	-4.663283	-0.122960	-0.408966
O12	O	-4.358072	-0.118573	-0.170555
C13	C	-3.879472	-0.295846	-0.349082
C14	C	-3.941544	-0.402515	-0.381546
C15	C	-3.931812	-0.683673	-0.080408
C16	C	-3.990147	-0.783910	-0.110942
C17	C	-4.075699	-0.811764	-0.274110
C18	C	-4.017359	-0.711528	-0.243590
C19	C	-3.945421	-0.647489	-0.146738
C20	C	-4.030968	-0.675344	-0.309919
C21	C	-3.972644	-0.575116	-0.279401
C22	C	-3.900711	-0.511072	-0.182553
C23	C	-3.887097	-0.547262	-0.116220
C24	C	-4.102922	-0.739384	-0.406771
C25	C	-4.116531	-0.703201	-0.473100
C26	C	-4.058192	-0.602971	-0.442582
C27	C	-3.986259	-0.538927	-0.345735
C28	C	-4.071807	-0.566781	-0.508916
C29	C	-4.013483	-0.466554	-0.478398
C30	C	-3.927935	-0.438699	-0.315217
C31	C	-3.847043	-0.127253	-0.445281
C32	C	-3.888495	-0.126736	-0.538902
C33	C	-4.039197	-0.124730	-0.879024
C34	C	-3.802006	-0.118776	-0.836244
C35	C	-3.758992	-0.119712	-0.739040
C36	C	-3.964430	-0.125724	-0.710285
C37	C	-4.149659	-0.220491	-0.790381
C38	C	-4.191420	-0.219955	-0.887764
C39	C	-4.077045	-0.036675	-0.805798
C40	C	-4.028971	-0.035924	-0.707722
C41	C	-3.922189	-0.126290	-0.614923
C42	C	-4.081448	-0.124171	-0.974389
C43	C	-4.144918	0.045385	-0.240233
C44	C	-4.062084	0.152053	-0.207774
C45	C	-4.177347	-0.123206	-0.144030
C46	C	-4.115132	-0.123719	-0.050407
H47	H	-3.853231	-0.429461	-0.157708
N48	N	-4.194172	-0.772273	-0.577560
H49	H	-4.229073	-0.841259	-0.586830
H50	H	-4.078189	-0.757513	-0.603966
H51	H	-4.150412	-0.820995	-0.431616
N52	N	-4.149465	-0.635856	-0.613375
H53	H	-4.184373	-0.704841	-0.622644
H54	H	-4.033493	-0.621103	-0.639789
H55	H	-3.828485	-0.495116	-0.037352
N56	N	-3.854207	-0.614592	0.024054
H57	H	-3.854427	-0.652720	0.061448
H58	H	-3.952641	-0.575739	0.036364
H59	H	-4.176033	-0.034745	-0.686008
N60	N	-3.937727	0.058442	-0.793925
H61	H	-3.848659	0.045412	-0.835901
H62	H	-3.839720	0.099440	-0.725568
N63	N	-4.160485	-0.308246	-0.955473
H64	H	-4.298420	-0.349752	-1.011434
H65	H	-4.119841	-0.347074	-0.921828
N66	N	-3.975477	-0.822938	-0.039396
H67	H	-3.921058	-0.767159	0.026587
H68	H	-3.873327	-0.860583	-0.044601
N69	N	-3.850796	0.056930	-0.633330
H70	H	-3.728773	0.040905	-0.601414
H71	H	-3.906930	0.095046	-0.584540
H72	H	-4.134286	-0.863918	-0.352968
H73	H	-4.366852	-0.228267	-0.918340
H74	H	-3.704853	-0.183706	-0.742647
H75	H	-3.769062	-0.182040	-0.887429
H76	H	-4.024596	-0.437094	-0.532411
N77	N	-3.574098	-0.029462	-0.664574
H78	H	-3.519866	0.011289	-0.694744
H79	H	-3.454541	-0.048639	-0.635577
N80	N	-4.305846	-0.041329	-0.842777
H81	H	-4.306502	0.019297	-0.849524
H82	H	-4.379542	-0.046284	-0.796928
N83	N	-3.643980	-0.028101	-0.824424
H84	H	-3.724601	0.010001	-0.846688
H85	H	-3.550696	-0.046763	-0.863278
N86	N	-4.354525	-0.230862	-0.768557
H87	H	-4.329842	-0.234211	-0.706524
H88	H	-4.471286	-0.292256	-0.821026
N89	N	-3.850330	-0.369621	-0.210754
H90	H	-3.966259	-0.384306	-0.184293
H91	H	-3.815430	-0.300667	-0.201569
H92	H	-4.107028	-0.287170	-0.794304
