data_functionalizedCrystal
_audit_creation_method	'MofGen! by Chris Wilmer'
_symmetry_space_group_name_H-M	'P1'
_symmetry_Int_Tables_number	1
_symmetry_cell_setting	triclinic
loop_
_symmetry_equiv_pos_as_xyz
  x,y,z
_cell_length_a	8.559649
_cell_length_b	15.944493
_cell_length_c	7.681481
_cell_angle_alpha	84.264607
_cell_angle_beta	94.913240
_cell_angle_gamma	76.626854
loop_
_atom_site_label
_atom_site_type_symbol
_atom_site_fract_x
_atom_site_fract_y
_atom_site_fract_z
O1	O	2.105028	-0.019571	-0.146404
O2	O	1.639812	0.023810	-0.146405
O3	O	1.885171	-0.120980	-0.146419
O4	O	1.859669	0.125220	-0.146390
O5	O	1.915370	-0.138838	0.146437
O6	O	1.670011	0.005953	0.146451
O7	O	2.135228	-0.037428	0.146452
Zn8	Zn	1.907415	-0.018573	0.192949
Zn9	Zn	1.867625	0.004955	-0.192902
O10	O	1.889869	0.107363	0.146466
C11	C	1.595381	0.018169	0.000023
C12	C	1.417998	0.027955	0.000021
C13	C	1.899227	-0.161136	0.000001
C14	C	1.896100	-0.254182	-0.000021
C15	C	2.040528	-0.499265	0.000012
C16	C	1.947755	-0.536002	-0.144380
C17	C	1.890311	-0.424530	0.000000
C18	C	1.977495	-0.553581	0.144353
C19	C	1.884732	-0.589081	0.000029
C20	C	1.797567	-0.460034	-0.144511
C21	C	1.827342	-0.477620	0.144351
C22	C	1.734455	-0.514315	-0.000076
C23	C	1.893530	-0.329737	-0.000018
C24	C	1.881500	-0.683870	0.000034
C25	C	2.179659	-0.031787	0.000020
C26	C	2.357040	-0.041572	0.000010
C27	C	1.875812	0.147519	0.000042
C28	C	1.878938	0.240565	0.000052
N29	N	1.934581	-0.034631	0.456281
N30	N	1.840471	0.021006	-0.456234
H31	H	1.334472	0.094972	0.000020
O32	O	2.194837	-0.490553	-0.000501
C33	C	2.432632	-0.510366	-0.153310
C34	C	2.257904	-0.520287	-0.152934
H35	H	2.483686	-0.534417	-0.276520
H36	H	2.433747	-0.439062	-0.152184
H37	H	2.509860	-0.550334	-0.031415
H38	H	2.180575	-0.480369	-0.274808
H39	H	2.256914	-0.591611	-0.153968
H40	H	1.440555	-0.108583	-0.000006
H41	H	1.744403	0.077795	0.468574
O42	O	2.008247	-0.566409	-0.290197
C43	C	1.983424	-0.551675	-0.607275
C44	C	1.914761	-0.517143	-0.442296
H45	H	1.907850	-0.511871	-0.730288
H46	H	2.113824	-0.546092	-0.607236
H47	H	1.979368	-0.622677	-0.606427
H48	H	1.918704	-0.446133	-0.443035
H49	H	1.784395	-0.522792	-0.442398
H50	H	1.721563	-0.419671	-0.266714
H51	H	1.604954	-0.521419	-0.000156
H52	H	2.030667	-0.091419	0.531481
O53	O	1.766516	-0.447133	0.289937
C54	C	1.537462	-0.420847	0.456198
C55	C	1.606138	-0.455416	0.291256
H56	H	1.407777	-0.427515	0.457300
H57	H	1.614272	-0.459856	0.579269
H58	H	1.539471	-0.349511	0.454071
H59	H	1.604135	-0.526743	0.293211
H60	H	1.529310	-0.416344	0.168257
O61	O	2.068435	-0.601785	0.289934
C62	C	2.332504	-0.649533	0.454347
C63	C	2.229682	-0.594895	0.289440
H64	H	2.462899	-0.643995	0.453983
H65	H	2.282583	-0.624689	0.577464
H66	H	2.328159	-0.720422	0.453615
H67	H	2.233984	-0.523994	0.290001
H68	H	2.279635	-0.619810	0.166396
