data_functionalizedCrystal
_audit_creation_method	'MofGen! by Chris Wilmer'
_symmetry_space_group_name_H-M	'P1'
_symmetry_Int_Tables_number	1
_symmetry_cell_setting	triclinic
loop_
_symmetry_equiv_pos_as_xyz
  x,y,z
_cell_length_a	16.974800
_cell_length_b	15.995292
_cell_length_c	16.053802
_cell_angle_alpha	92.568169
_cell_angle_beta	91.074188
_cell_angle_gamma	83.429017
loop_
_atom_site_label
_atom_site_type_symbol
_atom_site_fract_x
_atom_site_fract_y
_atom_site_fract_z
O1	O	1.049056	0.106736	0.001486
O2	O	0.819592	0.119554	-0.014025
O3	O	0.940620	-0.008732	-0.005845
O4	O	0.928028	0.235022	-0.006694
O5	O	0.933959	-0.001700	0.132563
O6	O	0.812930	0.126586	0.124383
O7	O	1.042394	0.113768	0.139894
Zn8	Zn	0.926605	0.121294	0.154114
Zn9	Zn	0.935382	0.112029	-0.028245
O10	O	0.921366	0.242054	0.131715
C11	C	0.786898	0.122454	0.053194
C12	C	0.699406	0.120607	0.047279
C13	C	0.654675	0.123571	0.119949
C14	C	0.572468	0.121823	0.114394
C15	C	0.534993	0.117117	0.036169
C16	C	0.579730	0.114151	-0.036506
C17	C	0.661936	0.115893	-0.030951
C18	C	0.289524	0.111490	0.011463
C19	C	0.207311	0.109751	0.005912
C20	C	0.200056	0.117422	0.156814
C21	C	0.282263	0.119168	0.162363
C22	C	0.326993	0.116197	0.089688
N23	N	0.450964	0.115333	0.030489
N24	N	0.411021	0.117976	0.095368
C25	C	0.936777	-0.036413	0.063322
C26	C	0.935241	-0.129369	0.063212
C27	C	0.929592	-0.467120	0.062838
C28	C	1.016932	-0.443598	0.069052
C29	C	1.018607	-0.346935	0.068849
C30	C	0.932395	-0.299558	0.063024
C31	C	0.892526	-0.332772	-0.018964
C32	C	0.891477	-0.429568	-0.019098
C33	C	0.882117	-0.421432	0.138178
C34	C	0.885305	-0.324879	0.139438
C35	C	0.933975	-0.204859	0.063126
C36	C	0.928010	-0.561819	0.062730
C37	C	1.075088	0.110868	0.072673
C38	C	1.162581	0.112714	0.078582
C39	C	0.925209	0.269735	0.062545
C40	C	0.926746	0.362691	0.062650
N41	N	0.920620	0.127616	0.278570
N42	N	0.941372	0.105699	-0.152701
C43	C	0.972137	0.073050	0.325746
C44	C	0.967958	0.077481	0.412870
C45	C	0.912266	0.136482	0.452817
C46	C	0.860744	0.191051	0.405635
C47	C	0.864919	0.186616	0.318512
C48	C	0.894026	0.155833	0.712994
C49	C	0.889856	0.160266	0.800124
C50	C	0.997070	0.046694	0.807353
C51	C	1.001243	0.042267	0.720228
C52	C	0.949719	0.096833	0.673053
N53	N	0.907995	0.141014	0.541872
N54	N	0.953986	0.092296	0.583999
H55	H	0.685180	0.127410	0.183649
Br56	Br	0.814270	0.240350	0.854332
Br57	Br	0.722644	0.111863	-0.129578
H58	H	0.549212	0.110313	-0.100199
Br59	Br	1.071047	-0.310292	0.167145
H60	H	0.325934	0.109068	-0.047715
H61	H	1.047875	-0.468641	0.128008
Br62	Br	1.077267	-0.496610	-0.021113
Br63	Br	0.947791	-0.304211	-0.113587
H64	H	0.163628	0.119839	0.215982
Br65	Br	0.946633	-0.479160	-0.114161
Br66	Br	1.080504	-0.320930	-0.021871
H67	H	0.536054	0.124222	0.173570
H68	H	1.039018	0.002268	0.845770
H69	H	0.914291	-0.303273	0.200058
Br70	Br	1.076829	-0.037804	0.666013
H71	H	0.176802	0.105921	-0.057791
H72	H	0.312770	0.122996	0.226062
H73	H	0.827600	-0.444442	-0.027007
H74	H	1.017490	0.025008	0.293227
H75	H	0.829226	-0.301194	-0.026189
H76	H	0.822148	-0.291807	0.139960
H77	H	0.906744	-0.446416	0.199946
H78	H	0.817792	-0.435538	0.134366
Br79	Br	1.037871	0.003422	0.476897
H80	H	0.852074	0.200264	0.674591
H81	H	0.815394	0.239089	0.438165
Br82	Br	0.794995	0.260668	0.254487
