data_functionalizedCrystal
_audit_creation_method	'MofGen! by Chris Wilmer'
_symmetry_space_group_name_H-M	'P1'
_symmetry_Int_Tables_number	1
_symmetry_cell_setting	triclinic
loop_
_symmetry_equiv_pos_as_xyz
  x,y,z
_cell_length_a	10.654562
_cell_length_b	9.065215
_cell_length_c	9.130313
_cell_angle_alpha	90.003278
_cell_angle_beta	90.004766
_cell_angle_gamma	84.752401
loop_
_atom_site_label
_atom_site_type_symbol
_atom_site_fract_x
_atom_site_fract_y
_atom_site_fract_z
O1	O	1.668647	0.207324	0.121893
O2	O	1.303248	0.227048	0.121874
O3	O	1.493502	0.002502	0.121877
O4	O	1.478393	0.431870	0.121889
O5	O	1.493494	0.002496	-0.121721
O6	O	1.303241	0.227042	-0.121725
O7	O	1.668639	0.207318	-0.121706
Cu8	Cu	1.485939	0.217179	-0.143958
Cu9	Cu	1.485948	0.217187	0.144126
O10	O	1.478385	0.431864	-0.121710
C11	C	1.256441	0.225593	0.000072
C12	C	1.116981	0.221248	0.000065
C13	C	1.051438	0.219218	-0.132709
C14	C	0.920400	0.215148	-0.132685
C15	C	0.920458	0.215143	0.132900
C16	C	1.051495	0.219203	0.132874
C17	C	1.051403	0.219227	-0.286043
C18	C	0.920365	0.215157	-0.286018
C19	C	1.492047	-0.052479	0.000079
C20	C	1.487708	-0.216299	0.000084
C21	C	1.715446	0.208773	0.000099
C22	C	1.854906	0.213118	0.000115
C23	C	1.479840	0.486845	0.000092
C24	C	1.484180	0.650665	0.000097
N25	N	1.485942	0.217174	-0.346581
C26	C	1.408767	0.126846	-0.423263
C27	C	1.408769	0.126853	-0.576600
C28	C	1.563134	0.307519	-0.576559
C29	C	1.563123	0.307519	-0.423225
C30	C	1.319650	0.022535	-0.423288
C31	C	1.319652	0.022542	-0.576625
N32	N	1.485955	0.217181	0.346748
H33	H	1.097258	0.117259	-0.344929
H34	H	1.358741	-0.088554	-0.375728
O35	O	1.206940	0.077835	-0.633147
C36	C	0.995200	0.181943	-0.582286
C37	C	1.122760	0.119310	-0.518077
H38	H	0.927113	0.215521	-0.489283
H39	H	0.954640	0.093796	-0.652533
H40	H	1.009447	0.282984	-0.652595
H41	H	1.108619	0.018289	-0.447702
H42	H	1.163277	0.207549	-0.447913
H43	H	1.350120	-0.093811	-0.618243
O44	O	0.865365	0.336683	-0.356204
C45	C	0.721306	0.556932	-0.338953
C46	C	0.783540	0.419459	-0.259192
H47	H	0.655157	0.623911	-0.260545
H48	H	0.665441	0.520472	-0.436934
H49	H	0.797329	0.628244	-0.378411
H50	H	0.707599	0.348087	-0.219638
H51	H	0.839433	0.456022	-0.161280
O52	O	1.086990	0.347649	-0.342906
C53	C	1.019618	0.584904	-0.449531
C54	C	0.979142	0.439521	-0.385204
H55	H	0.932445	0.659236	-0.483718
H56	H	1.082368	0.559172	-0.549116
H57	H	1.074018	0.643978	-0.363271
H58	H	0.924694	0.380375	-0.471357
H59	H	0.916454	0.465352	-0.285588
H60	H	1.625956	0.381085	-0.360796
O61	O	1.638288	0.395185	-0.650853
C62	C	1.850319	0.455074	-0.697798
C63	C	1.765348	0.355716	-0.613548
H64	H	1.953066	0.423179	-0.667692
H65	H	1.823789	0.575940	-0.667614
H66	H	1.837002	0.439592	-0.820555
H67	H	1.778620	0.371069	-0.490772
H68	H	1.791898	0.234887	-0.643854
H69	H	0.867124	0.213479	0.241028
O70	O	1.115281	0.221364	0.261759
C71	C	1.250432	0.353572	0.415932
C72	C	1.178281	0.351297	0.269896
H73	H	1.301364	0.458627	0.422572
H74	H	1.322166	0.252470	0.422569
H75	H	1.181095	0.351343	0.510825
H76	H	1.247522	0.353576	0.174921
H77	H	1.106528	0.452390	0.263387
O78	O	0.884711	0.086648	-0.342640
C79	C	0.897151	-0.179360	-0.322922
C80	C	0.937647	-0.033941	-0.258677
H81	H	0.939909	-0.276892	-0.255048
H82	H	0.931478	-0.192083	-0.440898
H83	H	0.789995	-0.176744	-0.320326
H84	H	1.044793	-0.036454	-0.261170
H85	H	0.903226	-0.021273	-0.140733
H86	H	1.220737	0.058793	-0.381693
