data_functionalizedCrystal
_audit_creation_method	'MofGen! by Chris Wilmer'
_symmetry_space_group_name_H-M	'P1'
_symmetry_Int_Tables_number	1
_symmetry_cell_setting	triclinic
loop_
_symmetry_equiv_pos_as_xyz
  x,y,z
_cell_length_a	17.077404
_cell_length_b	16.625545
_cell_length_c	17.077396
_cell_angle_alpha	89.972074
_cell_angle_beta	89.981638
_cell_angle_gamma	90.023528
loop_
_atom_site_label
_atom_site_type_symbol
_atom_site_fract_x
_atom_site_fract_y
_atom_site_fract_z
Zn1	Zn	1.200040	-0.321045	-0.443822
Zn2	Zn	1.533373	0.012288	-0.110489
Zn3	Zn	1.866707	0.345621	0.222845
Zn4	Zn	1.199941	-0.455888	-0.312557
Zn5	Zn	1.533274	-0.122555	0.020776
Zn6	Zn	1.866608	0.210779	0.354110
Zn7	Zn	1.068772	-0.321068	-0.312572
Zn8	Zn	1.402105	0.012265	0.020761
Zn9	Zn	1.735439	0.345598	0.354094
Zn10	Zn	1.068734	-0.455835	-0.443783
Zn11	Zn	1.402067	-0.122502	-0.110450
Zn12	Zn	1.735400	0.210832	0.222883
O13	O	1.134372	-0.388459	-0.378184
O14	O	1.467705	-0.055126	-0.044850
O15	O	1.801038	0.278208	0.288483
O16	O	1.309874	-0.338945	-0.426419
O17	O	1.643207	-0.005612	-0.093086
O18	O	1.976540	0.327722	0.240248
O19	O	1.182516	-0.438036	-0.202712
O20	O	1.515849	-0.104702	0.130621
O21	O	1.849182	0.228631	0.463954
O22	O	1.086242	-0.208233	-0.330005
O23	O	1.419576	0.125100	0.003328
O24	O	1.752909	0.458434	0.336661
O25	O	1.309801	-0.438013	-0.329979
O26	O	1.643134	-0.104680	0.003354
O27	O	1.976468	0.228653	0.336687
O28	O	1.182684	-0.208216	-0.426434
O29	O	1.516018	0.125117	-0.093101
O30	O	1.849351	0.458451	0.240233
O31	O	1.086146	-0.338984	-0.202723
O32	O	1.419480	-0.005651	0.130610
O33	O	1.752813	0.327682	0.463943
O34	O	0.958920	-0.338933	-0.329968
O35	O	1.292253	-0.005599	0.003365
O36	O	1.625587	0.327734	0.336699
O37	O	1.086177	-0.437923	-0.553635
O38	O	1.419511	-0.104590	-0.220302
O39	O	1.752844	0.228744	0.113031
O40	O	0.958892	-0.437945	-0.426368
O41	O	1.292225	-0.104612	-0.093035
O42	O	1.625559	0.228722	0.240298
O43	O	1.182647	-0.338894	-0.553664
O44	O	1.515981	-0.005560	-0.220330
O45	O	1.849314	0.327773	0.113003
O46	O	1.182479	-0.568713	-0.329942
O47	O	1.515812	-0.235380	0.003391
O48	O	1.849145	0.097953	0.336725
O49	O	1.086081	-0.568674	-0.426353
O50	O	1.419415	-0.235341	-0.093020
O51	O	1.752748	0.097992	0.240313
C52	C	0.930424	-0.388436	-0.378166
C53	C	1.263757	-0.055103	-0.044833
C54	C	1.597090	0.278230	0.288501
C55	C	0.843174	-0.388446	-0.378177
C56	C	1.176507	-0.055113	-0.044844
C57	C	1.509841	0.278221	0.288490
C58	C	0.802222	-0.336953	-0.428470
C59	C	1.135556	-0.003619	-0.095137
C60	C	1.468889	0.329714	0.238197
C61	C	0.720242	-0.336958	-0.428474
C62	C	1.053575	-0.003625	-0.095140
C63	C	1.386909	0.329709	0.238193
C64	C	0.679215	-0.388461	-0.378188
C65	C	1.012548	-0.055128	-0.044854
C66	C	1.345881	0.278206	0.288479
C67	C	0.720172	-0.439956	-0.327889
C68	C	1.053505	-0.106623	0.005444
C69	C	1.386839	0.226710	0.338777
C70	C	0.802151	-0.439947	-0.327882
C71	C	1.135484	-0.106613	0.005451
C72	C	1.468817	0.226720	0.338784
C73	C	0.549302	-0.439975	-0.327909
C74	C	0.882635	-0.106641	0.005424
C75	C	1.215968	0.226692	0.338758
C76	C	0.467317	-0.439986	-0.327917
C77	C	0.800651	-0.106653	0.005417
C78	C	1.133984	0.226681	0.338750
C79	C	0.467393	-0.336986	-0.428500
C80	C	0.800726	-0.003653	-0.095167
C81	C	1.134060	0.329681	0.238167
C82	C	0.549372	-0.336976	-0.428493
C83	C	0.882705	-0.003643	-0.095160
C84	C	1.216039	0.329690	0.238174
C85	C	0.590324	-0.388473	-0.378196
C86	C	0.923657	-0.055140	-0.044862
C87	C	1.256990	0.278194	0.288471
C88	C	1.134286	-0.597950	-0.378159
C89	C	1.467620	-0.264617	-0.044826
C90	C	1.800953	0.068717	0.288508
C91	C	1.134322	-0.687571	-0.378175
C92	C	1.467655	-0.354238	-0.044841
C93	C	1.800988	-0.020904	0.288492
C94	C	1.134352	-0.760354	-0.378190
C95	C	1.467686	-0.427020	-0.044857
C96	C	1.801019	-0.093687	0.288476
C97	C	1.134398	-0.851662	-0.378208
C98	C	1.467731	-0.518329	-0.044874
C99	C	1.801065	-0.184995	0.288459
C100	C	1.134439	-0.924438	-0.378218
C101	C	1.467772	-0.591105	-0.044884
C102	C	1.801105	-0.257772	0.288449
C103	C	1.134483	-1.015753	-0.378234
C104	C	1.467817	-0.682419	-0.044900
C105	C	1.801150	-0.349086	0.288433
C106	C	1.339116	-0.388483	-0.378202
C107	C	1.672449	-0.055149	-0.044868
C108	C	2.005783	0.278184	0.288465
C109	C	1.426366	-0.388493	-0.378210
C110	C	1.759699	-0.055159	-0.044876
C111	C	2.093032	0.278174	0.288457
C112	C	1.134419	-0.388400	-0.582928
C113	C	1.467752	-0.055066	-0.249595
C114	C	1.801086	0.278267	0.083739
C115	C	1.134439	-0.388374	-0.670178
C116	C	1.467773	-0.055041	-0.336845
C117	C	1.801106	0.278292	-0.003511
C118	C	1.134479	-0.178150	-0.378226
C119	C	1.467812	0.155183	-0.044892
C120	C	1.801145	0.488516	0.288441
C121	C	1.134524	-0.088529	-0.378244
C122	C	1.467858	0.244804	-0.044910
C123	C	1.801191	0.578138	0.288423
C124	C	1.184673	-0.336806	-0.711184
C125	C	1.518007	-0.003472	-0.377851
C126	C	1.851340	0.329861	-0.044517
C127	C	1.184683	-0.336779	-0.793165
C128	C	1.518016	-0.003445	-0.459831
C129	C	1.851349	0.329888	-0.126498
C130	C	1.134462	-0.388325	-0.834137
C131	C	1.467795	-0.054992	-0.500804
C132	C	1.801128	0.278341	-0.167471
C133	C	1.084222	-0.439897	-0.793125
C134	C	1.417556	-0.106563	-0.459792
C135	C	1.750889	0.226770	-0.126459
C136	C	1.084209	-0.439919	-0.711146
C137	C	1.417543	-0.106585	-0.377813
C138	C	1.750876	0.226748	-0.044480
C139	C	1.084254	-0.439848	-0.963996
C140	C	1.417587	-0.106515	-0.630662
C141	C	1.750921	0.226819	-0.297329
C142	C	1.084268	-0.439827	-1.045980
C143	C	1.417601	-0.106494	-0.712647
C144	C	1.750934	0.226840	-0.379314
C145	C	1.184727	-0.336708	-1.046014
C146	C	1.518060	-0.003375	-0.712680
C147	C	1.851394	0.329959	-0.379347
C148	C	1.184714	-0.336730	-0.964035
C149	C	1.518048	-0.003397	-0.630701
C150	C	1.851381	0.329936	-0.297368
C151	C	1.134476	-0.388303	-0.923028
C152	C	1.467809	-0.054969	-0.589695
C153	C	1.801142	0.278364	-0.256362
C154	C	1.134370	-0.388460	-0.174236
C155	C	1.467703	-0.055127	0.159097
C156	C	1.801036	0.278207	0.492431
C157	C	1.134501	-0.388258	-0.086986
C158	C	1.467835	-0.054925	0.246347
C159	C	1.801168	0.278408	0.579680
H160	H	0.686903	-0.295029	-0.469429
H161	H	1.020236	0.038305	-0.136095
H162	H	1.353570	0.371638	0.197238
H163	H	0.434046	-0.295054	-0.469453
H164	H	0.767380	0.038279	-0.136119
H165	H	1.100713	0.371613	0.197214
C166	C	0.847345	-0.280294	-0.483789
C167	C	1.180678	0.053040	-0.150455
C168	C	1.514012	0.386373	0.182878
N169	N	0.881329	-0.237613	-0.525454
N170	N	1.214663	0.095720	-0.192120
N171	N	1.547996	0.429053	0.141213
C172	C	1.028991	-0.496584	-0.918891
C173	C	1.362325	-0.163250	-0.585557
C174	C	1.695658	0.170083	-0.252224
N175	N	0.987372	-0.539320	-0.884918
N176	N	1.320706	-0.205987	-0.551584
N177	N	1.654039	0.127347	-0.218251
H178	H	0.582642	-0.481907	-0.286949
H179	H	0.915975	-0.148573	0.046384
H180	H	1.249309	0.184760	0.379717
C181	C	1.029017	-0.496526	-1.091049
C182	C	1.362350	-0.163193	-0.757716
C183	C	1.695684	0.170141	-0.424382
N184	N	0.987400	-0.539231	-1.124994
N185	N	1.320734	-0.205898	-0.791661
N186	N	1.654067	0.127435	-0.458328
C187	C	0.675039	-0.496609	-0.272573
C188	C	1.008372	-0.163276	0.060760
C189	C	1.341705	0.170057	0.394093
N190	N	0.641045	-0.539284	-0.230910
N191	N	0.974378	-0.205950	0.102423
N192	N	1.307712	0.127383	0.435757
H193	H	0.582774	-0.295043	-0.469445
H194	H	0.916108	0.038291	-0.136111
H195	H	1.249441	0.371624	0.197222
C196	C	0.847197	-0.496595	-0.272558
C197	C	1.180530	-0.163261	0.060775
C198	C	1.513864	0.170072	0.394109
N199	N	0.881125	-0.539263	-0.230885
N200	N	1.214458	-0.205929	0.102449
N201	N	1.547792	0.127404	0.435782
H202	H	1.225572	-0.294833	-0.677830
H203	H	1.558905	0.038501	-0.344497
H204	H	1.892238	0.371834	-0.011163
H205	H	1.225613	-0.294761	-0.930677
H206	H	1.558946	0.038572	-0.597343
H207	H	1.892280	0.371906	-0.264010
C208	C	1.028950	-0.496650	-0.666040
C209	C	1.362283	-0.163317	-0.332707
C210	C	1.695616	0.170017	0.000627
N211	N	0.987325	-0.539380	-0.632067
N212	N	1.320658	-0.206047	-0.298734
N213	N	1.653991	0.127286	0.034600
H214	H	1.225590	-0.294788	-0.826548
H215	H	1.558923	0.038545	-0.493215
H216	H	1.892257	0.371879	-0.159882
C217	C	0.422189	-0.496640	-0.272598
C218	C	0.755522	-0.163307	0.060735
C219	C	1.088855	0.170026	0.394068
N220	N	0.388198	-0.539313	-0.230932
N221	N	0.721531	-0.205980	0.102402
N222	N	1.054864	0.127353	0.435735
H223	H	1.225632	-0.294715	-1.079405
H224	H	1.558965	0.038619	-0.746072
H225	H	1.892299	0.371952	-0.412738
H226	H	1.043329	-0.481864	-0.826492
H227	H	1.376662	-0.148530	-0.493159
H228	H	1.709995	0.184803	-0.159825
