data_functionalizedCrystal
_audit_creation_method	'MofGen! by Chris Wilmer'
_symmetry_space_group_name_H-M	'P1'
_symmetry_Int_Tables_number	1
_symmetry_cell_setting	triclinic
loop_
_symmetry_equiv_pos_as_xyz
  x,y,z
_cell_length_a	33.592126
_cell_length_b	33.591377
_cell_length_c	33.588093
_cell_angle_alpha	60.004089
_cell_angle_beta	60.008299
_cell_angle_gamma	59.994549
loop_
_atom_site_label
_atom_site_type_symbol
_atom_site_fract_x
_atom_site_fract_y
_atom_site_fract_z
O1	O	0.055297	-0.581666	0.486338
O2	O	0.020882	-0.452873	0.391864
O3	O	0.102445	-0.534352	0.391775
O4	O	-0.026266	-0.500187	0.486427
O5	O	0.129510	-0.507292	0.418747
O6	O	0.047947	-0.425814	0.418835
O7	O	0.082362	-0.554606	0.513309
Cu8	Cu	0.067626	-0.487739	0.468535
Cu9	Cu	0.035618	-0.519740	0.436638
O10	O	0.000799	-0.473128	0.513398
N11	N	0.090139	-0.465235	0.490972
N12	N	0.013110	-0.542249	0.414202
C13	C	0.124394	-0.431229	0.734914
C14	C	0.334265	-0.431145	0.524799
C15	C	0.124204	-0.431200	0.524965
C16	C	0.124184	-0.221175	0.524955
C17	C	0.158017	-0.322536	0.558710
C18	C	0.158027	-0.397406	0.558711
C19	C	0.176763	-0.378688	0.577408
C20	C	0.258412	-0.364594	0.534386
C21	C	0.309454	-0.381596	0.517340
C22	C	0.309485	-0.464188	0.548836
C23	C	0.258444	-0.447186	0.565883
C24	C	0.170304	-0.297002	0.508532
C25	C	0.153260	-0.245956	0.491537
C26	C	0.111648	-0.245983	0.574901
C27	C	0.128691	-0.297029	0.591896
C28	C	0.107841	-0.385091	0.571080
C29	C	0.090813	-0.402108	0.554078
C30	C	0.174153	-0.443755	0.512351
C31	C	0.191183	-0.426739	0.529347
C32	C	0.107923	-0.385106	0.659111
C33	C	0.090955	-0.402138	0.710156
C34	C	0.174335	-0.443795	0.710087
C35	C	0.191302	-0.426764	0.659041
C36	C	0.158095	-0.397418	0.633555
C37	C	0.232909	-0.397388	0.558656
C38	C	0.105069	-0.449619	0.791057
C39	C	0.390406	-0.449193	0.505789
C40	C	0.104813	-0.449599	0.506607
C41	C	0.105125	-0.165028	0.506915
C42	C	-0.020560	-0.576246	0.169890
C43	C	-0.020889	-0.786183	0.379970
C44	C	-0.020859	-0.576235	0.380063
C45	C	-0.230772	-0.576015	0.379658
C46	C	-0.129417	-0.609898	0.346025
C47	C	-0.054587	-0.609979	0.346172
C48	C	-0.073269	-0.628671	0.327396
C49	C	-0.087401	-0.710299	0.370335
C50	C	-0.070424	-0.761345	0.387369
C51	C	0.012165	-0.761428	0.356003
C52	C	-0.004813	-0.710383	0.338967
C53	C	-0.155001	-0.622196	0.396191
C54	C	-0.206043	-0.605128	0.413125
C55	C	-0.205914	-0.563467	0.329724
C56	C	-0.154872	-0.580535	0.312790
C57	C	-0.066886	-0.559797	0.333828
C58	C	-0.049903	-0.542809	0.350903
C59	C	-0.008321	-0.626180	0.392654
C60	C	-0.025304	-0.643170	0.375585
C61	C	-0.066758	-0.559805	0.245702
C62	C	-0.049671	-0.542819	0.194658
C63	C	-0.008026	-0.626194	0.194706
C64	C	-0.025111	-0.643179	0.245752
C65	C	-0.054479	-0.609983	0.271248
C66	C	-0.054597	-0.684821	0.346135
C67	C	-0.002109	-0.556901	0.113746
C68	C	-0.002869	-0.842328	0.398966
C69	C	-0.002496	-0.556887	0.398501
C70	C	-0.286914	-0.556929	0.397631
N71	N	0.436349	-0.465146	0.490703
O72	O	0.592194	-0.469605	0.374236
O73	O	0.592389	-0.564393	0.502890
O74	O	0.592305	-0.564176	0.421300
O75	O	0.592277	-0.469822	0.455826
O76	O	0.511216	-0.537214	0.448415
O77	O	0.511300	-0.537431	0.530004
O78	O	0.511104	-0.442643	0.401350
Cu79	Cu	0.503798	-0.487575	0.468153
Cu80	Cu	0.599695	-0.519461	0.436087
O81	O	0.511188	-0.442860	0.482940
N82	N	0.667145	-0.541890	0.413532
N83	N	0.090108	-0.119085	0.490958
O84	O	-0.026275	0.036848	0.486394
O85	O	0.102381	0.036888	0.391584
O86	O	0.020751	0.036852	0.391854
O87	O	0.055356	0.036884	0.486124
O88	O	0.047821	-0.044242	0.418876
O89	O	0.129452	-0.044207	0.418606
O90	O	0.000796	-0.044246	0.513417
Cu91	Cu	0.067596	-0.051631	0.468479
Cu92	Cu	0.035582	0.044273	0.436522
O93	O	0.082426	-0.044211	0.513146
N94	N	0.013063	0.111726	0.414043
N95	N	0.090453	-0.465282	0.837001
O96	O	0.085913	-0.581648	0.992925
O97	O	-0.008857	-0.452947	0.992970
O98	O	-0.008635	-0.534562	0.992946
O99	O	0.085691	-0.500033	0.992949
O100	O	0.018365	-0.507512	0.911855
O101	O	0.018143	-0.425898	0.911878
O102	O	0.112912	-0.554598	0.911834
Cu103	Cu	0.067993	-0.487778	0.904452
Cu104	Cu	0.036063	-0.519767	1.000352
O105	O	0.112691	-0.472984	0.911857
N106	N	0.013602	-0.542269	1.067803
C107	C	0.031188	-0.423114	0.392334
C108	C	0.132194	-0.524016	0.392223
C109	C	0.072056	-0.584366	0.512840
C110	C	-0.028950	-0.483464	0.512950
C111	C	0.551868	-0.563965	0.532655
C112	C	0.551766	-0.563697	0.431617
C113	C	0.551623	-0.443070	0.371586
C114	C	0.551728	-0.443339	0.472623
C115	C	0.132090	-0.003555	0.392006
C116	C	0.031035	-0.003698	0.392374
C117	C	-0.028947	-0.003703	0.512961
C118	C	0.072143	-0.003661	0.512626
C119	C	-0.008408	-0.423209	0.952430
C120	C	-0.008128	-0.524272	0.952385
C121	C	0.112464	-0.584336	0.952374
C122	C	0.112190	-0.483267	0.952401
H123	H	0.080878	-0.361206	0.638363
H124	H	-0.059919	-0.501948	0.340854
O125	O	0.022270	-0.003686	0.356978
C126	C	0.064122	-0.003689	0.314892
H127	H	0.087410	0.011677	0.315285
H128	H	0.052662	0.019849	0.281053
H129	H	0.086136	-0.042592	0.314304
O130	O	0.148022	-0.628396	0.952337
C131	C	0.189985	-0.628388	0.952347
H132	H	0.189399	-0.589273	0.937005
H133	H	0.223919	-0.650062	0.928793
H134	H	0.190571	-0.645821	0.991248
H135	H	0.551779	-0.593338	0.424228
H136	H	0.551918	-0.593721	0.569607
H137	H	-0.065895	-0.003715	0.542725
O138	O	0.551571	-0.407625	0.327475
C139	C	0.551536	-0.425177	0.297144
H140	H	0.566934	-0.466709	0.310323
H141	H	0.575027	-0.410198	0.258073
H142	H	0.512620	-0.412816	0.298508
H143	H	0.169160	-0.531297	0.362501
O144	O	0.081071	-0.003682	0.547918
C145	C	0.128995	-0.003655	0.530130
H146	H	0.152044	-0.018998	0.498825
H147	H	0.145429	-0.027200	0.560651
H148	H	0.128266	0.035253	0.516532
O149	O	-0.073029	-0.474732	0.548424
C150	C	-0.081753	-0.435264	0.559672
H151	H	-0.045549	-0.431339	0.548876
H152	H	-0.101472	-0.442225	0.600492
H153	H	-0.105292	-0.400313	0.538747
H154	H	0.551722	-0.413701	0.480010
O155	O	-0.230668	-0.535015	0.297463
C156	C	-0.260211	-0.558168	0.304764
H157	H	-0.244872	-0.599092	0.323314
H158	H	-0.260742	-0.551059	0.268072
H159	H	-0.298908	-0.543077	0.328808
H160	H	-0.037749	-0.531650	0.952352
H161	H	0.141823	-0.475877	0.952395
O162	O	0.176096	-0.003249	0.356452
C163	C	0.206432	-0.003152	0.373950
H164	H	0.182986	0.012037	0.405365
H165	H	0.229594	0.020588	0.343326
H166	H	0.231247	-0.042002	0.387309
H167	H	-0.038161	-0.386246	0.952443
O168	O	0.233744	-0.479106	0.589429
C169	C	0.267230	-0.526705	0.592158
H170	H	0.303597	-0.524753	0.561992
H171	H	0.252475	-0.547660	0.587551
H172	H	0.272694	-0.546193	0.629137
O173	O	0.042203	-0.390189	0.734922
C174	C	0.020989	-0.407656	0.722479
H175	H	0.045164	-0.412650	0.685410
H176	H	-0.016567	-0.380302	0.720760
H177	H	0.017214	-0.444139	0.751204
O178	O	0.206613	-0.472362	0.734818
C179	C	0.236138	-0.515158	0.722314
H180	H	0.216413	-0.522265	0.708306
H181	H	0.243897	-0.547315	0.755865
H182	H	0.271978	-0.510501	0.692661
O183	O	0.240031	-0.438641	0.634163
C184	C	0.252340	-0.395745	0.604644
H185	H	0.218686	-0.363676	0.597025
H186	H	0.281918	-0.400299	0.568736
H187	H	0.266372	-0.388573	0.624298
H188	H	0.049948	-0.392069	0.564138
O189	O	0.075567	-0.356584	0.599579
C190	C	0.027621	-0.349371	0.606855
H191	H	0.027685	-0.355067	0.576088
H192	H	0.003378	-0.310662	0.607142
H193	H	0.013028	-0.376551	0.643218
H194	H	0.201155	-0.467643	0.488446
H195	H	0.232048	-0.436761	0.519270
H196	H	0.330277	-0.504737	0.554712
H197	H	0.330218	-0.354891	0.497577
H198	H	0.079411	-0.621363	0.542512
H199	H	0.015526	-0.653210	0.416597
O200	O	0.233663	-0.316202	0.527281
C201	C	0.246084	-0.289860	0.476884
H202	H	0.283137	-0.312156	0.456767
H203	H	0.247825	-0.253873	0.470136
H204	H	0.217336	-0.282250	0.462997
O205	O	0.198765	-0.321705	0.476232
C206	C	0.205958	-0.288220	0.428298
H207	H	0.175174	-0.251841	0.428414
H208	H	0.206201	-0.302964	0.404075
H209	H	0.242316	-0.282777	0.413645
H210	H	0.163263	-0.225165	0.450676
O211	O	-0.013294	-0.691932	0.387599
C212	C	0.016184	-0.717586	0.417230
H213	H	0.034743	-0.693270	0.410762
H214	H	0.045060	-0.751670	0.407695
H215	H	-0.007414	-0.728564	0.457191
H216	H	0.087777	-0.225214	0.601924
H217	H	0.118680	-0.317820	0.632757
H218	H	-0.090673	-0.532769	0.266460
O219	O	-0.061671	-0.494056	0.169923
C220	C	-0.091245	-0.468403	0.203376
H221	H	-0.109844	-0.492723	0.239744
H222	H	-0.120089	-0.434323	0.188576
H223	H	-0.067718	-0.457420	0.208858
H224	H	0.015877	-0.653227	0.173952
H225	H	-0.015108	-0.684041	0.266548
H226	H	0.021903	-0.689639	0.319262
O227	O	-0.095346	-0.527489	0.305282
C228	C	-0.102551	-0.479556	0.298044
H229	H	-0.096897	-0.479652	0.328854
H230	H	-0.141242	-0.455289	0.297711
H231	H	-0.075341	-0.464965	0.261713
O232	O	0.022454	-0.379020	0.356871
C233	C	0.027858	-0.385382	0.315793
H234	H	0.052286	-0.424252	0.316236
H235	H	0.045091	-0.358581	0.281163
H236	H	-0.009432	-0.378458	0.316762
H237	H	0.052703	-0.782242	0.350169
H238	H	-0.127938	-0.689491	0.376175
O239	O	-0.102367	-0.786021	0.410943
C240	C	-0.149951	-0.752513	0.413637
H241	H	-0.151902	-0.716120	0.410238
H242	H	-0.176941	-0.767206	0.450128
H243	H	-0.159487	-0.747116	0.382726
H244	H	-0.134277	-0.646110	0.423254
H245	H	-0.226875	-0.615140	0.453976
H246	H	-0.134040	-0.570516	0.271939
