data_functionalizedCrystal
_audit_creation_method	'MofGen! by Chris Wilmer'
_symmetry_space_group_name_H-M	'P1'
_symmetry_Int_Tables_number	1
_symmetry_cell_setting	triclinic
loop_
_symmetry_equiv_pos_as_xyz
  x,y,z
_cell_length_a	6.817900
_cell_length_b	11.102188
_cell_length_c	10.992743
_cell_angle_alpha	91.885552
_cell_angle_beta	108.770538
_cell_angle_gamma	108.603875
loop_
_atom_site_label
_atom_site_type_symbol
_atom_site_fract_x
_atom_site_fract_y
_atom_site_fract_z
V1	V	-4.113457	-0.175800	-0.400589
O2	O	-4.072462	0.008488	-0.392963
O3	O	-4.090211	-0.348620	-0.397850
O4	O	-4.091082	-0.173078	-0.575300
O5	O	-4.071585	-0.168269	-0.214285
V6	V	-4.590453	-0.153759	-0.378306
O7	O	-4.389032	-0.224148	-0.449470
O8	O	-4.765075	-0.105411	-0.329425
O9	O	-4.390492	0.019061	-0.381045
O10	O	-4.748844	-0.338047	-0.385931
O11	O	-4.749721	-0.161290	-0.564610
O12	O	-4.389621	-0.156481	-0.203595
C13	C	-3.940489	-0.390751	-0.391530
C14	C	-4.002943	-0.532033	-0.390455
C15	C	-3.971547	-0.580270	-0.272293
C16	C	-4.030254	-0.713022	-0.271287
C17	C	-4.151744	-0.749289	-0.506616
C18	C	-4.093052	-0.616540	-0.507621
C19	C	-3.941599	-0.166828	-0.617884
C20	C	-4.004755	-0.165746	-0.760711
C21	C	-4.317162	-0.172365	-0.971804
C22	C	-4.251374	-0.173003	-0.823172
C23	C	-3.855023	-0.039612	-0.791485
C24	C	-3.922091	-0.038444	-0.940128
C25	C	-4.043278	-0.281085	-0.978399
C26	C	-3.982590	-0.283955	-0.830185
C27	C	-4.203556	0.061185	-0.387361
C28	C	-4.120341	0.202466	-0.388445
C29	C	-4.202446	-0.162735	-0.161004
C30	C	-4.118527	-0.163811	-0.018176
H31	H	-4.004686	-0.752289	-0.175068
C32	C	-3.872452	-0.487313	-0.143414
C33	C	-3.837933	-0.540380	-0.013439
C34	C	-3.738845	-0.447426	0.115443
C35	C	-3.674276	-0.301406	0.114349
C36	C	-3.708794	-0.248332	-0.015632
C37	C	-3.807882	-0.341285	-0.144513
H38	H	-3.885732	-0.648479	-0.012625
H39	H	-3.713294	-0.486716	0.211663
H40	H	-3.600925	-0.232596	0.209755
H41	H	-3.660995	-0.140232	-0.016446
H42	H	-3.833433	-0.301995	-0.240733
H43	H	-4.118634	-0.577267	-0.603849
H44	H	-4.225113	-0.818110	-0.602009
H45	H	-4.367165	-0.263660	-0.803574
H46	H	-4.465529	-0.262536	-1.024441
C47	C	-4.395925	-0.058527	-1.007825
C48	C	-4.280712	0.042028	-1.079103
C49	C	-4.359422	0.155890	-1.115088
C50	C	-4.553344	0.169199	-1.079795
C51	C	-4.668569	0.068641	-1.008513
C52	C	-4.589859	-0.045222	-0.972528
H53	H	-4.137148	0.032179	-1.105232
H54	H	-4.274124	0.230330	-1.167855
H55	H	-4.611610	0.253487	-1.106433
H56	H	-4.812132	0.078489	-0.982384
H57	H	-4.675157	-0.119662	-0.919761
H58	H	-4.277548	-0.088727	-0.776925
H59	H	-3.968738	0.050248	-0.963217
C60	C	-3.609730	-0.026214	-0.734924
C61	C	-3.542370	-0.129901	-0.659956
C62	C	-3.297078	-0.116506	-0.603392
C63	C	-3.119145	0.000577	-0.621797
C64	C	-3.186501	0.104272	-0.696769
C65	C	-3.431793	0.090877	-0.753332
H66	H	-3.674090	-0.216579	-0.646328
H67	H	-3.247218	-0.193268	-0.547893
H68	H	-2.937565	0.010492	-0.579926
H69	H	-3.054781	0.190950	-0.710396
H70	H	-3.481653	0.167639	-0.808831
C71	C	-4.226444	-0.408868	-1.052131
C72	C	-4.182021	-0.498924	-1.141275
C73	C	-4.365205	-0.626699	-1.215008
C74	C	-4.592812	-0.664419	-1.199596
C75	C	-4.637246	-0.574361	-1.110448
C76	C	-4.454062	-0.446585	-1.036716
H77	H	-4.013524	-0.471003	-1.152688
H78	H	-4.332312	-0.693366	-1.281001
H79	H	-4.728416	-0.759006	-1.254177
H80	H	-4.805743	-0.602282	-1.099035
H81	H	-4.486955	-0.379919	-0.970722
C82	C	-3.872982	0.079020	-0.725587
C83	C	-3.957189	0.173492	-0.808539
C84	C	-3.975165	0.292119	-0.742646
C85	C	-3.908935	0.316276	-0.593801
C86	C	-3.824722	0.221802	-0.510841
C87	C	-3.806746	0.103174	-0.576734
H88	H	-4.006221	0.155612	-0.918731
H89	H	-4.037505	0.362055	-0.804060
H90	H	-3.922242	0.404091	-0.545023
H91	H	-3.775689	0.239682	-0.400649
H92	H	-3.744406	0.033239	-0.515320
H93	H	-3.771934	-0.027007	-0.969408
C94	C	-4.133387	-0.409920	-0.805641
C95	C	-4.276011	-0.405522	-0.722914
C96	C	-4.426797	-0.531485	-0.698355
C97	C	-4.434960	-0.661845	-0.756523
C98	C	-4.292332	-0.666247	-0.839255
C99	C	-4.141545	-0.540285	-0.863814
H100	H	-4.269972	-0.309017	-0.679850
H101	H	-4.532380	-0.528225	-0.637112
H102	H	-4.546582	-0.755089	-0.738343
H103	H	-4.298370	-0.762752	-0.882319
H104	H	-4.035962	-0.543545	-0.925058
H105	H	-3.807657	-0.286006	-0.788439
H106	H	-3.895070	-0.275832	-1.007580
