data_functionalizedCrystal
_audit_creation_method	'MofGen! by Chris Wilmer'
_symmetry_space_group_name_H-M	'P1'
_symmetry_Int_Tables_number	1
_symmetry_cell_setting	triclinic
loop_
_symmetry_equiv_pos_as_xyz
  x,y,z
_cell_length_a	13.032268
_cell_length_b	19.077105
_cell_length_c	19.076808
_cell_angle_alpha	90.072392
_cell_angle_beta	94.569148
_cell_angle_gamma	84.833742
loop_
_atom_site_label
_atom_site_type_symbol
_atom_site_fract_x
_atom_site_fract_y
_atom_site_fract_z
Zn1	Zn	-0.628489	-1.007149	-0.374479
Zn2	Zn	-0.448277	-1.018355	-0.477233
Zn3	Zn	-0.448874	-0.905603	-0.355061
Zn4	Zn	-0.614557	-0.886126	-0.486086
O5	O	-0.535049	-0.954308	-0.423215
O6	O	-0.610164	-1.106471	-0.392532
O7	O	-0.303598	-1.016239	-0.449195
O8	O	-0.478781	-0.922535	-0.259799
O9	O	-0.477763	-1.114704	-0.468025
O10	O	-0.610744	-0.997140	-0.274066
O11	O	-0.304037	-0.933401	-0.359436
O12	O	-0.465272	-0.805184	-0.368020
O13	O	-0.761163	-0.889340	-0.483113
O14	O	-0.586998	-0.790874	-0.464284
O15	O	-0.771399	-0.978255	-0.401116
O16	O	-0.464254	-0.997353	-0.576245
O17	O	-0.586419	-0.900205	-0.582749
C18	C	-0.523783	-0.947899	-0.604868
C19	C	-0.519002	-0.945217	-0.682586
C20	C	-0.524688	-0.772661	-0.415006
C21	C	-0.520279	-0.694949	-0.411513
C22	C	-0.804865	-0.930375	-0.445268
C23	C	-0.919844	-0.920175	-0.454665
C24	C	-0.976170	-0.959622	-0.418285
C25	C	-1.095007	-0.949081	-0.427997
C26	C	-0.266289	-0.978191	-0.401199
C27	C	-0.151331	-0.988533	-0.391611
C28	C	-0.545451	-1.136665	-0.431457
C29	C	-0.549884	-1.214374	-0.434969
C30	C	-0.581476	-0.651015	-0.460050
C31	C	-0.577339	-0.577996	-0.456759
C32	C	-0.511999	-0.548913	-0.404934
C33	C	-0.450800	-0.592853	-0.356391
C34	C	-0.454943	-0.665870	-0.359680
C35	C	-0.492828	-0.331331	-0.389715
C36	C	-0.488687	-0.258308	-0.386432
C37	C	-0.615228	-0.243457	-0.486799
C38	C	-0.619361	-0.316476	-0.490085
C39	C	-0.558166	-0.360409	-0.441541
N40	N	-0.507766	-0.474276	-0.401570
N41	N	-0.562405	-0.435044	-0.444902
C42	C	-0.585512	-0.982763	-0.726468
C43	C	-0.581021	-0.980240	-0.799492
C44	C	-0.510014	-0.940176	-0.828632
C45	C	-0.443500	-0.902627	-0.784744
C46	C	-0.447997	-0.905145	-0.711722
C47	C	-0.489196	-0.928479	-1.046235
C48	C	-0.484702	-0.925965	-1.119262
C49	C	-0.622226	-1.003577	-1.134005
C50	C	-0.626712	-1.006096	-1.060980
C51	C	-0.560202	-0.968543	-1.017099
N52	N	-0.505419	-0.937599	-0.903274
N53	N	-0.564802	-0.971117	-0.942459
C54	C	-0.546383	-0.960760	-0.240855
C55	C	-0.551213	-0.963510	-0.163145
H56	H	-1.134758	-0.907499	-0.466331
C57	C	-0.694332	-1.044465	-1.181603
C58	C	-0.676930	-1.116260	-1.165088
C59	C	-0.743337	-1.153945	-1.208925
H60	H	-0.764011	-1.028524	-1.174874
H61	H	-0.681489	-1.037277	-1.229275
H62	H	-0.689781	-1.123444	-1.117427
H63	H	-0.607265	-1.132221	-1.171821
H64	H	-0.730494	-1.146756	-1.256597
H65	H	-0.813012	-1.137998	-1.202192
H66	H	-0.731532	-1.202662	-1.197730
H67	H	-0.635174	-1.010820	-0.835218
C68	C	-0.703973	-1.049495	-1.029396
C69	C	-0.804344	-1.024518	-1.054807
C70	C	-0.875540	-1.064479	-1.025722
H71	H	-0.690970	-1.097416	-1.042200
H72	H	-0.697197	-1.045610	-0.979620
H73	H	-0.811116	-1.028409	-1.104572
H74	H	-0.817380	-0.976602	-1.042005
H75	H	-0.868764	-1.060594	-0.975946
H76	H	-0.862527	-1.112399	-1.038527
H77	H	-0.943650	-1.047534	-1.042954
H78	H	-0.672566	-0.340150	-0.532288
C79	C	-0.681723	-0.195876	-0.539578
C80	C	-0.739817	-0.236976	-0.585675
C81	C	-0.801082	-0.193170	-0.634308
H82	H	-0.726984	-0.164326	-0.515366
H83	H	-0.638605	-0.169839	-0.565520
H84	H	-0.782930	-0.263001	-0.559735
H85	H	-0.694582	-0.268525	-0.609902
H86	H	-0.757965	-0.167132	-0.660251
H87	H	-0.846337	-0.161621	-0.610091
H88	H	-0.840499	-0.221049	-0.665594
C89	C	-0.417718	-0.226863	-0.330085
C90	C	-0.365033	-0.280964	-0.288263
C91	C	-0.299660	-0.252023	-0.236348
H92	H	-0.369220	-0.201446	-0.351725
H93	H	-0.457618	-0.195956	-0.301587
H94	H	-0.325135	-0.311859	-0.316757
H95	H	-0.413504	-0.306386	-0.266606
H96	H	-0.339560	-0.221115	-0.207850
H97	H	-0.251169	-0.226606	-0.257995
H98	H	-0.263912	-0.288725	-0.207962
H99	H	-1.111580	-1.030107	-0.353267
H100	H	-0.426878	-0.893336	-1.142985
C101	C	-0.426317	-0.379111	-0.337126
C102	C	-0.359860	-0.425531	-0.373101
C103	C	-0.298580	-0.469565	-0.324677
H104	H	-0.386717	-0.351417	-0.305775
H105	H	-0.469434	-0.405198	-0.311233
H106	H	-0.316748	-0.399447	-0.398982
H107	H	-0.399432	-0.453241	-0.404449
H108	H	-0.341696	-0.495652	-0.298784
H109	H	-0.258987	-0.441865	-0.293329
H110	H	-0.253488	-0.501070	-0.349080
C111	C	-0.923033	-1.014961	-0.367111
C112	C	-0.861504	-0.982427	-0.315486
C113	C	-0.812531	-1.033386	-0.268339
H114	H	-0.973665	-1.038373	-0.345470
H115	H	-0.880897	-1.048181	-0.391792
H116	H	-0.903637	-0.949219	-0.290808
H117	H	-0.810854	-0.959018	-0.337107
H118	H	-0.770395	-1.066606	-0.293019
H119	H	-0.863170	-1.056796	-0.246703
H120	H	-0.770771	-1.011320	-0.233310
H121	H	-0.397603	-0.569168	-0.314191
C122	C	-0.416850	-0.887699	-0.998714
C123	C	-0.353680	-0.852096	-1.039864
C124	C	-0.287005	-0.814532	-0.996109
H125	H	-0.456269	-0.854635	-0.972082
H126	H	-0.375037	-0.919440	-0.967754
H127	H	-0.395488	-0.820359	-1.070811
H128	H	-0.314239	-0.885144	-1.066495
H129	H	-0.245192	-0.846273	-0.965149
H130	H	-0.326432	-0.781472	-0.969480
H131	H	-0.244130	-0.790376	-1.024022
C132	C	-0.366563	-0.859070	-0.816482
C133	C	-0.419936	-0.807602	-0.861205
C134	C	-0.349092	-0.767473	-0.890459
H135	H	-0.327563	-0.837002	-0.779963
H136	H	-0.321310	-0.888833	-0.842521
H137	H	-0.465172	-0.777844	-0.835166
H138	H	-0.458932	-0.829651	-0.897735
H139	H	-0.303838	-0.797235	-0.916498
H140	H	-0.310096	-0.745409	-0.853936
H141	H	-0.385295	-0.732551	-0.920811
C142	C	-0.973034	-0.864801	-0.505781
C143	C	-1.080329	-0.865374	-0.505271
C144	C	-1.129358	-0.814380	-0.552359
H145	H	-0.953456	-0.819701	-0.492051
H146	H	-0.953100	-0.874931	-0.551806
H147	H	-1.100255	-0.855239	-0.459256
H148	H	-1.099937	-0.910462	-0.519008
H149	H	-1.109424	-0.824510	-0.598384
H150	H	-1.109772	-0.769283	-0.538624
H151	H	-1.202162	-0.814766	-0.552024
C152	C	-0.375664	-0.864359	-0.664191
C153	C	-0.312498	-0.828747	-0.705337
C154	C	-0.245846	-0.791169	-0.661577
H155	H	-0.415100	-0.831299	-0.637566
H156	H	-0.333847	-0.896092	-0.633227
H157	H	-0.354310	-0.797017	-0.736290
H158	H	-0.273040	-0.861790	-0.731962
H159	H	-0.204029	-0.822902	-0.630613
H160	H	-0.285291	-0.758113	-0.634954
H161	H	-0.202974	-0.767007	-0.689488
C162	C	-0.388374	-0.713458	-0.306944
C163	C	-0.330241	-0.672364	-0.260866
C164	C	-0.268896	-0.716178	-0.212281
H165	H	-0.431408	-0.739520	-0.280973
H166	H	-0.343143	-0.744988	-0.331217
H167	H	-0.375467	-0.640847	-0.236595
H168	H	-0.287188	-0.646303	-0.286817
H169	H	-0.223665	-0.747707	-0.236554
H170	H	-0.311938	-0.742237	-0.186315
H171	H	-0.229439	-0.688302	-0.181016
H172	H	-0.634680	-0.674688	-0.502254
H173	H	-0.643330	-1.015390	-0.702747
H174	H	-0.627171	-0.542227	-0.496284
