data_functionalizedCrystal
_audit_creation_method	'MofGen! by Chris Wilmer'
_symmetry_space_group_name_H-M	'P1'
_symmetry_Int_Tables_number	1
_symmetry_cell_setting	triclinic
loop_
_symmetry_equiv_pos_as_xyz
  x,y,z
_cell_length_a	16.109301
_cell_length_b	17.766277
_cell_length_c	19.288865
_cell_angle_alpha	89.988397
_cell_angle_beta	83.298864
_cell_angle_gamma	89.993359
loop_
_atom_site_label
_atom_site_type_symbol
_atom_site_fract_x
_atom_site_fract_y
_atom_site_fract_z
O1	O	1.102832	-0.062555	0.089282
O2	O	1.436166	0.270778	0.422615
O3	O	1.769499	0.604111	0.755948
O4	O	0.860732	-0.062569	0.100392
O5	O	1.194066	0.270765	0.433726
O6	O	1.527399	0.604098	0.767059
O7	O	0.988778	-0.062547	-0.006277
O8	O	1.322111	0.270787	0.327057
O9	O	1.655444	0.604120	0.660390
O10	O	0.974787	-0.062577	0.195951
O11	O	1.308120	0.270756	0.529284
O12	O	1.641453	0.604089	0.862617
O13	O	0.988755	0.062642	-0.006282
O14	O	1.322089	0.395975	0.327051
O15	O	1.655422	0.729308	0.660385
O16	O	0.860710	0.062620	0.100387
O17	O	1.194043	0.395953	0.433720
O18	O	1.527376	0.729287	0.767054
O19	O	1.102810	0.062633	0.089276
O20	O	1.436143	0.395966	0.422610
O21	O	1.769476	0.729300	0.755943
Cu22	Cu	0.981758	0.074057	0.094831
Cu23	Cu	1.315091	0.407391	0.428164
Cu24	Cu	1.648424	0.740724	0.761498
Cu25	Cu	0.981784	-0.073993	0.094838
Cu26	Cu	1.315118	0.259341	0.428171
Cu27	Cu	1.648451	0.592674	0.761504
O28	O	0.974764	0.062611	0.195945
O29	O	1.308098	0.395945	0.529279
O30	O	1.641431	0.729278	0.862612
C31	C	0.829748	0.000024	0.099940
C32	C	1.163081	0.333358	0.433273
C33	C	1.496414	0.666691	0.766606
C34	C	0.737457	0.000020	0.098590
C35	C	1.070790	0.333353	0.431924
C36	C	1.404124	0.666687	0.765257
N37	N	0.981745	0.178188	0.094826
N38	N	1.315078	0.511521	0.428159
N39	N	1.648412	0.844854	0.761493
N40	N	0.981803	-0.178123	0.094837
N41	N	1.315137	0.155210	0.428170
N42	N	1.648470	0.488544	0.761504
C43	C	0.514979	0.000020	0.158748
C44	C	0.848312	0.333353	0.492081
C45	C	1.181645	0.666686	0.825415
C46	C	0.428263	0.000025	0.157475
C47	C	0.761596	0.333358	0.490808
C48	C	1.094929	0.666691	0.824142
C49	C	0.448570	0.000041	0.030916
C50	C	0.781903	0.333374	0.364249
C51	C	1.115237	0.666707	0.697582
C52	C	0.535284	0.000041	0.032190
C53	C	0.868618	0.333374	0.365523
C54	C	1.201951	0.666708	0.698856
C55	C	0.568486	0.000027	0.096108
C56	C	0.901820	0.333360	0.429441
C57	C	1.235153	0.666693	0.762775
C58	C	0.395056	0.000031	0.093561
C59	C	0.728389	0.333365	0.426894
C60	C	1.061722	0.666698	0.760227
C61	C	0.301034	0.000037	0.092180
C62	C	0.634368	0.333370	0.425513
C63	C	0.967701	0.666703	0.758846
C64	C	0.662513	0.000023	0.097489
C65	C	0.995847	0.333356	0.430823
C66	C	1.329180	0.666689	0.764156
C67	C	1.133794	0.000039	0.089729
C68	C	1.467128	0.333372	0.423062
C69	C	1.800461	0.666705	0.756396
C70	C	1.226085	0.000038	0.091078
C71	C	1.559418	0.333371	0.424412
C72	C	1.892752	0.666705	0.757745
C73	C	0.988316	0.000050	-0.032157
C74	C	1.321650	0.333383	0.301177
C75	C	1.654983	0.666716	0.634510
C76	C	0.986965	0.000056	-0.109264
C77	C	1.320298	0.333390	0.224070
C78	C	1.653632	0.666723	0.557403
C79	C	1.038462	0.217584	0.047616
C80	C	1.371795	0.550917	0.380950
C81	C	1.705129	0.884251	0.714283
C82	C	1.038467	0.296386	0.047613
C83	C	1.371800	0.629719	0.380946
C84	C	1.705133	0.963053	0.714280
C85	C	0.981763	0.335788	0.094832
C86	C	1.315096	0.669121	0.428165
C87	C	1.648429	1.002455	0.761498
C88	C	0.925035	0.296382	0.142045
C89	C	1.258369	0.629715	0.475378
C90	C	1.591702	0.963049	0.808712
C91	C	0.925026	0.217582	0.142042
C92	C	1.258360	0.550915	0.475376
C93	C	1.591693	0.884248	0.808709
C94	C	0.970632	0.460616	0.158093
C95	C	1.303966	0.793950	0.491426
C96	C	1.637299	1.127283	0.824759
C97	C	0.970647	0.539415	0.158096
C98	C	1.303980	0.872748	0.491430
C99	C	1.637313	1.206082	0.824763
C100	C	0.981785	0.578834	0.094840
C101	C	1.315118	0.912168	0.428173
C102	C	1.648452	1.245501	0.761507
C103	C	0.992926	0.539445	0.031577
C104	C	1.326259	0.872779	0.364911
C105	C	1.659593	1.206112	0.698244
C106	C	0.992917	0.460645	0.031575
C107	C	1.326251	0.793978	0.364908
C108	C	1.659584	1.127312	0.698241
C109	C	0.981765	0.421234	0.094840
C110	C	1.315099	0.754567	0.428173
C111	C	1.648432	1.087900	0.761506
C112	C	1.038510	0.703677	0.047623
C113	C	1.371843	1.037010	0.380956
C114	C	1.705177	1.370344	0.714290
C115	C	1.038509	0.782480	0.047619
C116	C	1.371842	1.115814	0.380952
C117	C	1.705176	1.449147	0.714285
C118	C	0.925081	0.782475	0.142057
C119	C	1.258415	1.115808	0.475390
C120	C	1.591748	1.449141	0.808723
C121	C	0.925078	0.703673	0.142055
C122	C	1.258412	1.037006	0.475388
C123	C	1.591745	1.370340	0.808722
C124	C	0.981797	0.664279	0.094839
C125	C	1.315130	0.997612	0.428172
C126	C	1.648464	1.330946	0.761505
C127	C	1.062096	0.000064	-0.153781
C128	C	1.395430	0.333397	0.179553
C129	C	1.728763	0.666731	0.512886
C130	C	1.060827	0.000052	-0.226231
C131	C	1.394160	0.333385	0.107103
C132	C	1.727493	0.666719	0.440436
C133	C	0.984421	0.000047	-0.254161
C134	C	1.317755	0.333381	0.079173
C135	C	1.651088	0.666714	0.412506
C136	C	0.909280	0.000036	-0.209634
C137	C	1.242614	0.333369	0.123699
C138	C	1.575947	0.666702	0.457033
C139	C	0.910552	0.000040	-0.137185
C140	C	1.243885	0.333373	0.196148
C141	C	1.577219	0.666707	0.529481
C142	C	0.924350	0.043895	-0.362593
C143	C	1.257684	0.377228	-0.029260
C144	C	1.591017	0.710562	0.304073
C145	C	0.923082	0.043895	-0.435041
C146	C	1.256415	0.377229	-0.101707
C147	C	1.589748	0.710562	0.231626
C148	C	0.980496	0.000030	-0.477616
C149	C	1.313829	0.333364	-0.144282
C150	C	1.647162	0.666697	0.189051
C151	C	1.039193	-0.043825	-0.447735
C152	C	1.372526	0.289508	-0.114402
C153	C	1.705859	0.622842	0.218931
C154	C	1.040465	-0.043821	-0.375287
C155	C	1.373798	0.289513	-0.041954
C156	C	1.707131	0.622846	0.291380
C157	C	0.983034	0.000042	-0.332718
C158	C	1.316367	0.333376	0.000615
C159	C	1.649701	0.666709	0.333949
C160	C	1.054256	0.000024	-0.600692
C161	C	1.387589	0.333357	-0.267358
C162	C	1.720922	0.666691	0.065975
C163	C	1.052983	0.000007	-0.673143
C164	C	1.386316	0.333341	-0.339809
C165	C	1.719650	0.666674	-0.006476
C166	C	0.901434	-0.000002	-0.656544
C167	C	1.234768	0.333332	-0.323211
C168	C	1.568101	0.666665	0.010122
C169	C	0.902709	0.000008	-0.584095
C170	C	1.236043	0.333341	-0.250762
C171	C	1.569376	0.666674	0.082572
C172	C	0.979122	0.000024	-0.556173
C173	C	1.312456	0.333357	-0.222840
C174	C	1.645789	0.666691	0.110493
C175	C	0.975226	0.000013	0.221825
C176	C	1.308559	0.333346	0.555159
C177	C	1.641892	0.666680	0.888492
C178	C	0.976577	0.000002	0.298932
C179	C	1.309910	0.333335	0.632266
C180	C	1.643244	0.666668	0.965599
H181	H	0.384700	0.000020	0.208483
H182	H	0.718033	0.333354	0.541816
H183	H	1.051367	0.666687	0.875150
H184	H	0.961580	0.571480	0.209609
H185	H	1.294914	0.904813	0.542942
H186	H	1.628247	1.238146	0.876275
H187	H	0.421526	0.000057	-0.021124
H188	H	0.754860	0.333390	0.312209
H189	H	1.088193	0.666723	0.645542
O190	O	0.550785	0.000017	0.227689
O191	O	0.884118	0.333350	0.561022
O192	O	1.217452	0.666684	0.894355
H193	H	0.589806	-0.051011	0.231310
H194	H	0.923140	0.282323	0.564643
H195	H	1.256473	0.615656	0.897976
H196	H	1.001995	0.571539	-0.019932
H197	H	1.335329	0.904872	0.313401
H198	H	1.668662	1.238206	0.646734
H199	H	0.578853	0.000049	-0.018823
H200	H	0.912186	0.333382	0.314511
H201	H	1.245519	0.666716	0.647844
H202	H	0.839224	-0.000009	-0.679284
H203	H	1.172557	0.333324	-0.345951
H204	H	1.505890	0.666658	-0.012617
H205	H	1.084691	0.671601	0.009174
H206	H	1.418025	1.004934	0.342508
H207	H	1.751358	1.338268	0.675841
H208	H	1.084644	0.185512	0.009169
H209	H	1.417977	0.518845	0.342502
H210	H	1.751310	0.852178	0.675835
O211	O	1.141867	0.000071	-0.274254
O212	O	1.475201	0.333404	0.059079
O213	O	1.808534	0.666738	0.392413
H214	H	1.128143	0.000064	-0.329323
H215	H	1.461477	0.333397	0.004011
H216	H	1.794810	0.666731	0.337344
H217	H	1.084692	0.814558	0.009171
H218	H	1.418025	1.147891	0.342504
H219	H	1.751359	1.481224	0.675838
H220	H	1.088256	-0.079530	-0.350962
H221	H	1.421589	0.253803	-0.017628
H222	H	1.754923	0.587136	0.315705
H223	H	0.878909	0.814555	0.180500
H224	H	1.212242	1.147889	0.513834
H225	H	1.545575	1.481222	0.847167
O226	O	0.863887	0.338882	0.192979
O227	O	1.197220	0.672216	0.526313
O228	O	1.530554	1.005549	0.859646
H229	H	0.874276	0.323732	0.247126
H230	H	1.207610	0.657065	0.580460
H231	H	1.540943	0.990399	0.913793
O232	O	1.099650	0.338893	-0.003300
O233	O	1.432983	0.672226	0.330033
O234	O	1.766317	1.005560	0.663366
H235	H	1.139092	0.298261	-0.036128
H236	H	1.472426	0.631594	0.297205
H237	H	1.805759	0.964928	0.630538
H238	H	1.001986	0.428578	-0.019936
H239	H	1.335320	0.761911	0.313397
H240	H	1.668653	1.095244	0.646731
O241	O	1.144513	0.000076	-0.123669
O242	O	1.477846	0.333409	0.209664
O243	O	1.811179	0.666743	0.542998
H244	H	1.132778	0.000084	-0.065811
H245	H	1.466112	0.333417	0.267522
H246	H	1.799445	0.666750	0.600856
H247	H	0.878898	0.671594	0.180500
H248	H	1.212231	1.004928	0.513834
H249	H	1.545564	1.338261	0.847167
O250	O	0.821671	0.000018	-0.536077
O251	O	1.155005	0.333352	-0.202744
O252	O	1.488338	0.666685	0.130589
H253	H	0.785094	-0.051004	-0.545994
H254	H	1.118428	0.282330	-0.212661
H255	H	1.451761	0.615663	0.120673
O256	O	0.958625	0.418101	0.226323
O257	O	1.291958	0.751434	0.559657
O258	O	1.625291	1.084767	0.892990
H259	H	0.950895	0.458726	0.270312
H260	H	1.284228	0.792060	0.603646
H261	H	1.617562	1.125393	0.936979
H262	H	0.878840	0.185504	0.180487
H263	H	1.212173	0.518838	0.513820
H264	H	1.545506	0.852171	0.847154
O265	O	1.101121	-0.091147	-0.493642
O266	O	1.434455	0.242186	-0.160309
O267	O	1.767788	0.575520	0.173024
H268	H	1.090371	-0.083794	-0.549039
H269	H	1.423704	0.249540	-0.215706
H270	H	1.757038	0.582873	0.117627
H271	H	1.116476	0.000034	-0.577957
H272	H	1.449809	0.333367	-0.244623
H273	H	1.783142	0.666701	0.088710
O274	O	0.859779	0.091195	-0.467269
O275	O	1.193112	0.424528	-0.133935
O276	O	1.526446	0.757862	0.199398
H277	H	0.820059	0.121687	-0.425493
H278	H	1.153392	0.455020	-0.092160
H279	H	1.486725	0.788353	0.241174
O280	O	1.134021	0.000022	-0.721164
O281	O	1.467354	0.333355	-0.387830
O282	O	1.800688	0.666689	-0.054497
H283	H	1.187365	0.000044	-0.689573
H284	H	1.520698	0.333377	-0.356240
H285	H	1.854032	0.666710	-0.022906
H286	H	0.877594	0.079619	-0.327934
H287	H	1.210928	0.412953	0.005399
H288	H	1.544261	0.746286	0.338733
H289	H	0.847071	0.000030	-0.232379
H290	H	1.180404	0.333363	0.100954
H291	H	1.513737	0.666697	0.434288
O292	O	0.829515	0.000045	-0.089163
O293	O	1.162848	0.333378	0.244170
O294	O	1.496182	0.666711	0.577503
H295	H	0.776170	0.000045	-0.120753
H296	H	1.109503	0.333378	0.212581
H297	H	1.442836	0.666712	0.545914
