data_functionalizedCrystal
_audit_creation_method	'MofGen! by Chris Wilmer'
_symmetry_space_group_name_H-M	'P1'
_symmetry_Int_Tables_number	1
_symmetry_cell_setting	triclinic
loop_
_symmetry_equiv_pos_as_xyz
  x,y,z
_cell_length_a	27.732048
_cell_length_b	26.809956
_cell_length_c	27.732048
_cell_angle_alpha	89.999364
_cell_angle_beta	82.642655
_cell_angle_gamma	89.996742
loop_
_atom_site_label
_atom_site_type_symbol
_atom_site_fract_x
_atom_site_fract_y
_atom_site_fract_z
O1	O	0.640931	-0.041421	0.057510
O2	O	0.500138	-0.041436	0.066256
O3	O	0.574907	-0.041419	-0.008514
O4	O	0.566162	-0.041439	0.132280
O5	O	0.574893	0.041541	-0.008502
O6	O	0.500123	0.041523	0.066267
O7	O	0.640917	0.041539	0.057522
Zn8	Zn	0.570518	0.054702	0.061896
Zn9	Zn	0.570536	-0.054600	0.061881
O10	O	0.566147	0.041521	0.132291
C11	C	0.482124	0.000041	0.066078
C12	C	0.428469	0.000036	0.065525
N13	N	0.570509	0.129298	0.061906
C14	C	0.574716	0.000062	-0.026515
C15	C	0.574164	0.000066	-0.080170
C16	C	0.089654	0.000051	0.106229
C17	C	-0.112006	0.000056	0.104178
O18	O	-0.143262	0.000073	0.141398
N19	N	-0.131130	0.000062	0.059843
C20	C	-0.099835	0.000069	0.016017
O21	O	-0.120728	0.000079	-0.021740
C22	C	0.101824	0.000068	0.018068
C23	C	0.120944	0.000057	0.062407
C24	C	0.108775	0.000042	0.150563
C25	C	0.159187	0.000038	0.151076
C26	C	0.190477	0.000044	0.107253
C27	C	0.171356	0.000054	0.062919
C28	C	0.133117	0.000079	-0.025757
C29	C	0.183535	0.000080	-0.025240
C30	C	0.202655	0.000069	0.019098
C31	C	0.253059	0.000056	0.019609
N32	N	0.272183	0.000050	0.063944
C33	C	0.240892	0.000044	0.107766
C34	C	-0.205709	0.000069	0.014943
C35	C	-0.256124	0.000068	0.014430
C36	C	-0.268291	0.000056	0.102591
C37	C	-0.217876	0.000053	0.103104
C38	C	-0.186585	0.000063	0.059278
C39	C	0.346761	0.000036	0.108839
C40	C	0.397178	0.000030	0.109347
C41	C	0.409341	0.000044	0.021186
C42	C	0.358929	0.000048	0.020678
C43	C	0.327639	0.000045	0.064508
O44	O	0.284343	0.000045	-0.017592
O45	O	0.261794	0.000045	0.145518
C46	C	0.039242	0.000055	0.105716
C47	C	0.020120	0.000065	0.061382
C48	C	0.051411	0.000071	0.017560
C49	C	-0.030294	0.000065	0.060869
C50	C	-0.061585	0.000059	0.104691
C51	C	-0.042461	0.000053	0.149026
C52	C	0.007951	0.000049	0.149539
C53	C	0.032287	0.000077	-0.026775
C54	C	-0.018125	0.000080	-0.027284
C55	C	-0.049416	0.000074	0.016538
C56	C	0.658931	0.000060	0.057699
C57	C	0.712586	0.000062	0.058252
N58	N	0.570549	-0.129196	0.061867
C59	C	0.603640	0.473932	0.028781
C60	C	0.603652	0.682810	0.028774
O61	O	0.631801	0.709820	0.000613
N62	N	0.570539	0.708925	0.061870
C63	C	0.537419	0.682818	0.094969
O64	O	0.509252	0.709824	0.123116
C65	C	0.537406	0.473941	0.094974
C66	C	0.570524	0.447829	0.061878
C67	C	0.636755	0.447819	-0.004312
C68	C	0.636754	0.395603	-0.004308
C69	C	0.603637	0.369500	0.028789
C70	C	0.570522	0.395612	0.061882
C71	C	0.504284	0.447835	0.128070
C72	C	0.504283	0.395613	0.128067
C73	C	0.537401	0.369500	0.094972
C74	C	0.537405	0.317293	0.094983
N75	N	0.570517	0.291177	0.061887
C76	C	0.603633	0.317281	0.028790
C77	C	0.537429	0.792481	0.094965
C78	C	0.537433	0.844700	0.094964
C79	C	0.603665	0.844689	0.028768
C80	C	0.603663	0.792469	0.028772
C81	C	0.570542	0.766366	0.061868
C82	C	0.603628	0.207623	0.028801
C83	C	0.603625	0.155402	0.028809
C84	C	0.537392	0.155418	0.095003
C85	C	0.537396	0.207635	0.094997
C86	C	0.570516	0.233735	0.061892
O87	O	0.509266	0.290250	0.123126
O88	O	0.631789	0.290266	0.000640
C89	C	0.603642	0.526149	0.028777
C90	C	0.570527	0.552261	0.061870
C91	C	0.537410	0.526158	0.094968
C92	C	0.570531	0.604480	0.061870
C93	C	0.603647	0.630584	0.028773
C94	C	0.636759	0.604468	-0.004324
C95	C	0.636758	0.552252	-0.004320
C96	C	0.504298	0.552273	0.128064
C97	C	0.504303	0.604489	0.128058
C98	C	0.537419	0.630593	0.094961
C99	C	0.614867	0.000045	-0.418985
C100	C	0.612816	0.000038	-0.620645
O101	O	0.650037	0.000021	-0.651900
N102	N	0.568481	0.000034	-0.639768
C103	C	0.524656	0.000028	-0.608474
O104	O	0.486899	0.000019	-0.629367
C105	C	0.526707	0.000031	-0.406815
C106	C	0.571045	0.000041	-0.387694
C107	C	0.659202	0.000054	-0.399864
C108	C	0.659714	0.000059	-0.349452
C109	C	0.615892	0.000054	-0.318161
C110	C	0.571557	0.000045	-0.337282
C111	C	0.482882	0.000022	-0.375521
C112	C	0.483399	0.000021	-0.325104
C113	C	0.527737	0.000031	-0.305983
C114	C	0.528247	0.000045	-0.255580
N115	N	0.572583	0.000050	-0.236456
C116	C	0.616405	0.000054	-0.267747
C117	C	0.523582	0.000027	-0.714348
C118	C	0.523069	0.000027	-0.764762
C119	C	0.611230	0.000036	-0.776930
C120	C	0.611742	0.000040	-0.726514
C121	C	0.567917	0.000031	-0.695224
C122	C	0.617477	0.000064	-0.161878
C123	C	0.617986	0.000071	-0.111461
C124	C	0.529825	0.000059	-0.099298
C125	C	0.529316	0.000055	-0.149710
C126	C	0.573147	0.000056	-0.180999
O127	O	0.491047	0.000057	-0.224296
O128	O	0.654156	0.000053	-0.246844
C129	C	0.614355	0.000041	-0.469397
C130	C	0.570021	0.000032	-0.488518
C131	C	0.526198	0.000027	-0.457228
C132	C	0.569508	0.000032	-0.538933
C133	C	0.613330	0.000036	-0.570223
C134	C	0.657665	0.000041	-0.551100
C135	C	0.658177	0.000045	-0.500688
C136	C	0.481863	0.000023	-0.476351
C137	C	0.481355	0.000019	-0.526764
C138	C	0.525177	0.000023	-0.558054
C139	C	0.566338	0.000039	0.150292
C140	C	0.566891	0.000031	0.203947
H141	H	0.412743	0.000021	0.145454
Br142	Br	-0.282067	0.000067	-0.045745
H143	H	0.663725	0.530995	-0.031269
Br144	Br	0.422705	0.000007	-0.401458
H145	H	0.663726	0.625730	-0.031271
H146	H	0.663722	0.469068	-0.031266
Br147	Br	0.459356	0.639923	0.172980
Br148	Br	-0.163250	0.000083	-0.044540
H149	H	0.693347	0.000047	-0.576585
Br150	Br	0.492494	0.880133	0.139889
H151	H	0.486964	0.000028	-0.780325
H152	H	0.057760	0.000083	-0.062462
H153	H	0.321291	0.000035	0.144530
Br154	Br	0.421176	0.000010	-0.552706
Br155	Br	0.459350	0.516854	0.172985
Br156	Br	0.676962	0.000065	-0.204334
Br157	Br	0.492456	0.243072	0.139920
Br158	Br	-0.044068	0.000086	-0.087463
H159	H	0.510457	0.771232	0.121917
Br160	Br	0.423918	0.000007	-0.282641
Br161	Br	0.464098	0.000014	-0.671889
H162	H	0.493213	0.000061	-0.165279
H163	H	0.646911	0.000040	-0.802415
Br164	Br	0.719890	0.000058	-0.323510
Br165	Br	0.648577	0.243037	-0.016128
Br166	Br	0.718683	0.000060	-0.442321
Br167	Br	0.648610	0.757036	-0.016145
Br168	Br	0.671917	0.000054	-0.700570
H169	H	0.174750	0.000029	0.187180
Br170	Br	0.470355	0.000053	-0.056822
H171	H	-0.293777	0.000051	0.138273
Br172	Br	0.066317	0.000033	0.210045
H173	H	-0.202311	0.000047	0.139207
Br174	Br	0.678163	0.000085	-0.085514
H175	H	0.117558	0.000088	-0.061861
H176	H	0.023514	0.000042	0.185643
H177	H	0.630630	0.865951	0.001820
Br178	Br	0.459328	0.360191	0.172985
H179	H	0.209009	0.000089	-0.060929
H180	H	0.343360	0.000049	-0.015426
Br181	Br	-0.084937	0.000041	0.208499
H182	H	0.630595	0.134142	0.001859
H183	H	0.663720	0.374345	-0.031258
H184	H	0.434827	0.000047	-0.014492
Br185	Br	0.492451	0.119984	0.139920
H186	H	0.477317	0.469089	0.155019
H187	H	0.694282	0.000053	-0.485125
H188	H	0.446177	0.000018	-0.450879
