data_functionalizedCrystal
_audit_creation_method	'MofGen! by Chris Wilmer'
_symmetry_space_group_name_H-M	'P1'
_symmetry_Int_Tables_number	1
_symmetry_cell_setting	triclinic
loop_
_symmetry_equiv_pos_as_xyz
  x,y,z
_cell_length_a	14.044220
_cell_length_b	10.723024
_cell_length_c	9.198806
_cell_angle_alpha	89.997723
_cell_angle_beta	90.000907
_cell_angle_gamma	88.828374
loop_
_atom_site_label
_atom_site_type_symbol
_atom_site_fract_x
_atom_site_fract_y
_atom_site_fract_z
O1	O	-1.259664	-0.301050	0.120731
O2	O	-0.983624	-0.290187	0.120768
O3	O	-1.128011	-0.114679	0.120743
O4	O	-1.115277	-0.476558	0.120756
O5	O	-1.128000	-0.114677	-0.121042
O6	O	-0.983612	-0.290184	-0.121017
O7	O	-1.259652	-0.301047	-0.121054
Cu8	Cu	-1.121631	-0.295615	-0.143112
Cu9	Cu	-1.121645	-0.295619	0.142826
O10	O	-1.115265	-0.476555	-0.121029
C11	C	-0.948273	-0.285430	-0.000120
C12	C	-0.842955	-0.271245	-0.000106
C13	C	-1.127079	-0.068086	-0.000147
C14	C	-1.124306	0.070746	-0.000142
C15	C	-1.295003	-0.305804	-0.000163
C16	C	-1.400321	-0.319989	-0.000168
C17	C	-0.650125	-0.245313	-0.000135
C18	C	-0.593146	-0.345915	-0.000138
C19	C	-0.485848	-0.331486	-0.000155
C20	C	-0.757432	-0.259740	-0.000119
C21	C	-1.116197	-0.523149	-0.000135
C22	C	-1.118970	-0.661980	-0.000131
N23	N	-1.121629	-0.295613	-0.344226
C24	C	-1.205097	0.137646	-0.000151
C25	C	-1.202234	0.281136	-0.000145
C26	C	-1.176939	-0.373508	-0.416430
C27	C	-1.176953	-0.373508	-0.583842
N28	N	-1.121655	-0.295612	0.343940
H29	H	-0.624947	-0.442880	-0.000128
Br30	Br	-1.323924	0.056066	-0.000152
Br31	Br	-1.317519	0.376986	-0.000175
Br32	Br	-0.597123	-0.083708	-0.000148
H33	H	-1.049803	0.280515	-0.000134
H34	H	-1.053017	0.119700	-0.000123
H35	H	-1.224285	-0.440192	-0.354305
Br36	Br	-1.255875	-0.484678	-0.687324
H37	H	-1.074295	-0.228925	-0.593976
H38	H	-1.074289	-0.228922	-0.406351
