data_functionalizedCrystal
_audit_creation_method	'MofGen! by Chris Wilmer'
_symmetry_space_group_name_H-M	'P1'
_symmetry_Int_Tables_number	1
_symmetry_cell_setting	triclinic
loop_
_symmetry_equiv_pos_as_xyz
  x,y,z
_cell_length_a	6.817900
_cell_length_b	15.301126
_cell_length_c	17.078481
_cell_angle_alpha	96.106342
_cell_angle_beta	99.306161
_cell_angle_gamma	104.177575
loop_
_atom_site_label
_atom_site_type_symbol
_atom_site_fract_x
_atom_site_fract_y
_atom_site_fract_z
V1	V	-3.983057	-0.124548	-0.247602
O2	O	-3.967875	0.006202	-0.242641
O3	O	-3.938265	-0.247166	-0.246148
O4	O	-3.914047	-0.122537	-0.355481
O5	O	-3.992260	-0.119290	-0.132550
V6	V	-4.468888	-0.108920	-0.233812
O7	O	-4.239253	-0.158829	-0.277852
O8	O	-4.662889	-0.074639	-0.203562
O9	O	-4.290473	0.013698	-0.235267
O10	O	-4.601467	-0.239670	-0.238774
O11	O	-4.577081	-0.114178	-0.348864
O12	O	-4.314691	-0.110931	-0.125933
C13	C	-3.784811	-0.277061	-0.242303
C14	C	-3.829338	-0.377302	-0.241833
C15	C	-4.031736	-0.428985	-0.245578
C16	C	-4.073564	-0.523173	-0.245141
C17	C	-3.912988	-0.565675	-0.240952
C18	C	-3.710574	-0.513986	-0.237209
C19	C	-3.668751	-0.419801	-0.237652
C20	C	-3.797758	-0.710297	-0.236284
C21	C	-3.839582	-0.804489	-0.235840
C22	C	-4.202570	-0.813670	-0.243772
C23	C	-4.160748	-0.719485	-0.244215
C24	C	-3.958335	-0.667801	-0.240471
C25	C	-3.753918	-0.118083	-0.381768
C26	C	-3.778802	-0.117250	-0.469961
C27	C	-3.971957	-0.121360	-0.515445
C28	C	-3.995327	-0.120577	-0.598312
C29	C	-3.825542	-0.115691	-0.635694
C30	C	-3.632370	-0.111578	-0.590204
C31	C	-3.608999	-0.112354	-0.507338
C32	C	-3.875975	-0.112880	-0.883092
C33	C	-3.899362	-0.112106	-0.965964
C34	C	-4.262318	-0.121104	-0.974066
C35	C	-4.238933	-0.121886	-0.891199
C36	C	-4.045762	-0.117768	-0.845716
N37	N	-3.849426	-0.114893	-0.720397
N38	N	-4.021877	-0.118559	-0.761013
C39	C	-4.107270	0.043588	-0.239109
C40	C	-4.041980	0.143828	-0.239585
C41	C	-4.138164	-0.115388	-0.099642
C42	C	-4.092518	-0.116216	-0.011448
H43	H	-4.367379	-0.855753	-0.246810
H44	H	-4.162498	-0.394386	-0.248981
C45	C	-4.207810	-0.125102	-0.648339
C46	C	-4.315918	-0.050270	-0.629336
C47	C	-4.528412	-0.054792	-0.679361
C48	C	-4.632797	-0.134147	-0.748388
C49	C	-4.524688	-0.208984	-0.767394
C50	C	-4.312195	-0.204462	-0.717370
H51	H	-4.238646	0.008479	-0.578235
H52	H	-4.608441	0.000608	-0.665291
H53	H	-4.790098	-0.137494	-0.785419
H54	H	-4.601960	-0.267733	-0.818495
H55	H	-4.232166	-0.259862	-0.731440
C56	C	-3.663489	-0.108352	-0.833072
C57	C	-3.559094	-0.028986	-0.764055
C58	C	-3.346592	-0.024456	-0.714033
C59	C	-3.238487	-0.099292	-0.733028
C60	C	-3.342882	-0.178663	-0.802047
C61	C	-3.555383	-0.183193	-0.852070
H62	H	-3.639120	0.026416	-0.749992
H63	H	-3.269313	0.034300	-0.662940
H64	H	-3.081180	-0.095938	-0.695998
H65	H	-3.262855	-0.234066	-0.816111
H66	H	-3.632663	-0.241950	-0.903163
H67	H	-4.238373	-0.565250	-0.248192
H68	H	-3.503941	-0.377722	-0.234606
H69	H	-3.494127	-0.107593	-0.620646
H70	H	-3.579835	-0.548599	-0.233804
H71	H	-4.291504	-0.684881	-0.247621
H72	H	-4.377194	-0.125864	-0.860768
H73	H	-4.110222	-0.125346	-0.485016
H74	H	-3.451703	-0.108985	-0.470303
H75	H	-3.632937	-0.668220	-0.233241
H76	H	-3.708833	-0.839095	-0.232453
H77	H	-4.419591	-0.124456	-1.011108
H78	H	-3.761090	-0.108124	-0.996398
