data_functionalizedCrystal
_audit_creation_method	'MofGen! by Chris Wilmer'
_symmetry_space_group_name_H-M	'P1'
_symmetry_Int_Tables_number	1
_symmetry_cell_setting	triclinic
loop_
_symmetry_equiv_pos_as_xyz
  x,y,z
_cell_length_a	14.971486
_cell_length_b	15.995350
_cell_length_c	13.448316
_cell_angle_alpha	89.995627
_cell_angle_beta	89.998199
_cell_angle_gamma	83.553252
loop_
_atom_site_label
_atom_site_type_symbol
_atom_site_fract_x
_atom_site_fract_y
_atom_site_fract_z
O1	O	1.186823	0.109116	-0.082572
O2	O	0.926408	0.122183	-0.082599
O3	O	1.063734	-0.006231	-0.082584
O4	O	1.049497	0.237530	-0.082587
O5	O	1.063717	-0.006239	0.082800
O6	O	0.926390	0.122175	0.082785
O7	O	1.186805	0.109109	0.082811
Cu8	Cu	1.056596	0.115641	0.097899
Cu9	Cu	1.056617	0.115651	-0.097687
O10	O	1.049479	0.237523	0.082796
C11	C	0.893075	0.121595	0.000090
C12	C	0.793780	0.119844	0.000079
C13	C	0.736468	0.195284	0.000080
C14	C	0.643171	0.193633	0.000095
C15	C	0.607187	0.116542	0.000102
C16	C	0.664505	0.041097	0.000104
C17	C	0.757801	0.042748	0.000097
C18	C	0.470047	0.037660	0.000118
C19	C	0.376745	0.036008	0.000124
C20	C	0.355417	0.188545	0.000116
C21	C	0.448712	0.190197	0.000108
C22	C	0.506025	0.114751	0.000109
C23	C	1.063137	-0.037430	0.000106
C24	C	1.061372	-0.130382	0.000100
C25	C	1.055035	-0.468136	0.000103
C26	C	0.957234	-0.420800	-0.000278
C27	C	0.958999	-0.324108	0.000095
C28	C	1.058178	-0.300572	0.000101
C29	C	1.106407	-0.341606	0.094546
C30	C	1.103951	-0.438244	0.094625
C31	C	1.105990	-0.438591	-0.093447
C32	C	1.105967	-0.341646	-0.094695
C33	C	1.059960	-0.205873	0.000103
C34	C	1.053256	-0.562835	0.000107
C35	C	1.220138	0.109697	0.000121
C36	C	1.319433	0.111448	0.000124
C37	C	1.050077	0.268722	0.000104
C38	C	1.051841	0.361674	0.000104
N39	N	1.056589	0.115634	0.235463
N40	N	1.056632	0.115651	-0.235251
C41	C	1.117415	0.058796	0.287510
C42	C	1.117421	0.058795	0.391613
C43	C	1.056603	0.115637	0.443668
C44	C	0.995770	0.172478	0.391614
C45	C	0.995761	0.172474	0.287512
C46	C	0.995795	0.172484	0.608594
C47	C	0.995805	0.172489	0.712702
C48	C	1.117455	0.058805	0.712695
C49	C	1.117446	0.058801	0.608594
C50	C	1.056613	0.115643	0.556546
H51	H	0.804464	-0.018683	0.000096
H52	H	1.068767	-0.456584	0.165220
H53	H	1.166944	0.012512	0.245134
C54	C	1.184314	-0.003752	0.448860
N55	N	1.234693	-0.050873	0.491978
H56	H	0.946280	0.218775	0.755080
C57	C	0.928866	0.235005	0.551344
N58	N	0.878456	0.282095	0.508224
C59	C	0.928854	0.235008	0.230261
N60	N	0.878457	0.282110	0.187141
H61	H	1.178099	-0.470280	-0.094077
C62	C	1.058375	-0.304829	-0.189088
N63	N	1.022520	-0.277102	-0.260183
H64	H	1.166986	0.012522	0.755078
C65	C	0.907774	-0.285755	-0.091364
N66	N	0.869185	-0.256871	-0.160251
C67	C	0.904426	-0.445892	-0.091770
N68	N	0.864650	-0.464800	-0.160682
H69	H	1.175754	-0.470421	0.098915
H70	H	0.765759	0.258060	0.000073
C71	C	0.904658	-0.447301	0.090721
N72	N	0.865065	-0.467254	0.159271
C73	C	1.204838	-0.322408	0.099314
N74	N	1.278974	-0.307941	0.102907
C75	C	0.580132	0.276623	0.000113
N76	N	0.532650	0.339135	0.000134
H77	H	1.166972	0.012520	0.566211
H78	H	1.072896	-0.313261	0.164825
H79	H	0.347450	-0.026766	0.000131
C80	C	0.292371	0.271537	0.000120
N81	N	0.244881	0.334043	0.000121
C82	C	0.533089	-0.045335	0.000115
N83	N	0.580572	-0.107845	0.000106
C84	C	1.062799	-0.466374	-0.190154
N85	N	1.030257	-0.487298	-0.262989
H86	H	0.478007	0.252971	0.000093
H87	H	0.635200	-0.021672	0.000125
H88	H	0.920818	-0.296284	0.067905
H89	H	1.178294	-0.326211	-0.100393
H90	H	0.946247	0.218758	0.434002
