data_functionalizedCrystal
_audit_creation_method	'MofGen! by Chris Wilmer'
_symmetry_space_group_name_H-M	'P1'
_symmetry_Int_Tables_number	1
_symmetry_cell_setting	triclinic
loop_
_symmetry_equiv_pos_as_xyz
  x,y,z
_cell_length_a	10.654550
_cell_length_b	9.616153
_cell_length_c	10.654550
_cell_angle_alpha	89.997920
_cell_angle_beta	95.515069
_cell_angle_gamma	90.003640
loop_
_atom_site_label
_atom_site_type_symbol
_atom_site_fract_x
_atom_site_fract_y
_atom_site_fract_z
O1	O	1.667846	0.115541	-0.176394
O2	O	1.302368	0.115567	-0.193200
O3	O	1.493510	0.115545	-0.002058
O4	O	1.476704	0.115564	-0.367536
O5	O	1.493483	-0.115747	-0.002062
O6	O	1.302341	-0.115724	-0.193204
O7	O	1.667820	-0.115750	-0.176398
Zn8	Zn	1.485076	-0.152460	-0.184802
Zn9	Zn	1.485111	0.152277	-0.184796
O10	O	1.476677	-0.115728	-0.367540
C11	C	1.255556	-0.000076	-0.191968
C12	C	1.116113	-0.000066	-0.188276
C13	C	1.036628	-0.000064	-0.300818
C14	C	0.905607	-0.000089	-0.297341
C15	C	0.933570	-0.000111	-0.068772
C16	C	1.064588	-0.000096	-0.072250
N17	N	1.485062	-0.360434	-0.184805
C18	C	1.382501	-0.580792	-0.286710
C19	C	1.382727	-0.419625	-0.287092
C20	C	1.616359	-0.418891	-0.214570
C21	C	1.615800	-0.580109	-0.215291
C22	C	1.457633	-0.580350	-0.052799
C23	C	1.454618	-0.419123	-0.053656
C24	C	1.714631	-0.000104	-0.177630
C25	C	1.854074	-0.000105	-0.181322
C26	C	1.492263	-0.000100	0.044738
C27	C	1.488571	-0.000098	0.184181
N28	N	1.485135	0.360251	-0.184784
C29	C	1.477925	-0.000080	-0.414336
C30	C	1.481616	-0.000073	-0.553779
C31	C	1.601112	-0.000105	0.263667
C32	C	1.597636	-0.000088	0.394688
C33	C	1.369066	-0.000062	0.366725
C34	C	1.372544	-0.000069	0.235706
H35	H	0.840894	-0.000090	-0.388984
F36	F	1.245589	-0.000030	0.421573
F37	F	1.718624	-0.368780	-0.120182
H38	H	1.078574	-0.000050	-0.395294
H39	H	1.400400	-0.381042	-0.385014
H40	H	0.891602	-0.000144	0.025693
H41	H	1.524421	-0.378837	0.025833
H42	H	1.694618	-0.619106	-0.144042
H43	H	1.129309	-0.000102	0.019401
F44	F	1.255193	-0.367964	-0.263755
H45	H	1.280893	-0.000059	0.170985
F46	F	1.335117	-0.633550	-0.015775
H47	H	1.284638	-0.619598	-0.269082
H48	H	1.358029	-0.380917	-0.031093
F49	F	1.647248	-0.629240	-0.341150
F50	F	1.648515	-0.366096	-0.339006
F51	F	1.405312	-0.633698	-0.413982
H52	H	1.532465	-0.618475	0.023065
H53	H	1.695588	-0.000125	0.221720
F54	F	1.717418	-0.000093	0.479278
