data_functionalizedCrystal
_audit_creation_method	'MofGen! by Chris Wilmer'
_symmetry_space_group_name_H-M	'P1'
_symmetry_Int_Tables_number	1
_symmetry_cell_setting	triclinic
loop_
_symmetry_equiv_pos_as_xyz
  x,y,z
_cell_length_a	16.959455
_cell_length_b	16.959454
_cell_length_c	16.959447
_cell_angle_alpha	89.973264
_cell_angle_beta	89.976354
_cell_angle_gamma	90.015068
loop_
_atom_site_label
_atom_site_type_symbol
_atom_site_fract_x
_atom_site_fract_y
_atom_site_fract_z
Zn1	Zn	-1.208384	0.314771	0.447125
Zn2	Zn	-0.708384	0.814771	0.947125
Zn3	Zn	-1.208306	0.446964	0.314955
Zn4	Zn	-0.708306	0.946964	0.814955
Zn5	Zn	-1.076212	0.314792	0.314941
Zn6	Zn	-0.576212	0.814792	0.814941
Zn7	Zn	-1.076177	0.446900	0.447072
Zn8	Zn	-0.576177	0.946900	0.947072
O9	O	-1.142270	0.380857	0.381023
O10	O	-0.642270	0.880857	0.881023
O11	O	-1.318984	0.332325	0.429620
O12	O	-0.818984	0.832325	0.929620
O13	O	-1.190766	0.429466	0.204342
O14	O	-0.690766	0.929466	0.704342
O15	O	-1.093792	0.204178	0.332492
O16	O	-0.593792	0.704178	0.832492
O17	O	-1.318927	0.429446	0.332515
O18	O	-0.818927	0.929446	0.832515
O19	O	-1.190898	0.204163	0.429607
O20	O	-0.690898	0.704163	0.929607
O21	O	-1.093717	0.332360	0.204332
O22	O	-0.593717	0.832360	0.704332
O23	O	-0.965597	0.332298	0.332440
O24	O	-0.465597	0.832298	0.832440
O25	O	-1.093732	0.429338	0.557690
O26	O	-0.593732	0.929338	1.057690
O27	O	-0.965571	0.429358	0.429516
O28	O	-0.465571	0.929358	0.929516
O29	O	-1.190864	0.332264	0.557729
O30	O	-0.690864	0.832264	1.057729
O31	O	-1.190732	0.557566	0.332464
O32	O	-0.690732	1.057566	0.832464
O33	O	-1.093657	0.557520	0.429530
O34	O	-0.593657	1.057520	0.929530
C35	C	-0.936904	0.380824	0.380972
C36	C	-0.436904	0.880824	0.880972
C37	C	-0.849047	0.380829	0.380968
C38	C	-0.349047	0.880829	0.880968
C39	C	-0.477531	0.431354	0.330397
C40	C	0.022469	0.931354	0.830397
C41	C	-0.477612	0.330378	0.431670
C42	C	0.022388	0.830378	0.931670
C43	C	-0.560158	0.330368	0.431655
C44	C	-0.060158	0.830368	0.931655
C45	C	-0.601394	0.380853	0.381012
C46	C	-0.101394	0.880853	0.881012
C47	C	-0.560085	0.431347	0.330382
C48	C	-0.060085	0.931347	0.830382
C49	C	-0.601473	0.279880	0.482289
C50	C	-0.101473	0.779880	0.982289
C51	C	-0.684024	0.279868	0.482277
C52	C	-0.184024	0.779868	0.982277
C53	C	-0.725262	0.330350	0.431629
C54	C	-0.225262	0.830350	0.931629
C55	C	-0.683948	0.380846	0.380997
C56	C	-0.183948	0.880846	0.880997
C57	C	-0.725184	0.431330	0.330354
C58	C	-0.225184	0.931330	0.830354
C59	C	-0.683871	0.481823	0.279717
C60	C	-0.183871	0.981823	0.779717
C61	C	-0.601323	0.481829	0.279734
C62	C	-0.101323	0.981829	0.779734
C63	C	-0.807811	0.330344	0.431612
C64	C	-0.307811	0.830344	0.931612
C65	C	-0.807738	0.431323	0.330339
C66	C	-0.307738	0.931323	0.830339
C67	C	-1.142204	0.586223	0.381010
C68	C	-0.642204	1.086223	0.881010
C69	C	-1.142248	0.674080	0.381030
C70	C	-0.642248	1.174080	0.881030
C71	C	-1.142303	0.380791	0.587191
C72	C	-0.642303	0.880791	1.087191
C73	C	-1.142317	0.380764	0.675048
C74	C	-0.642317	0.880764	1.175048
C75	C	-0.348438	0.380882	0.381061
C76	C	0.151562	0.880882	0.881061
C77	C	-0.436295	0.380870	0.381040
C78	C	0.063705	0.880870	0.881040
C79	C	-1.142358	0.174689	0.381054
C80	C	-0.642358	0.674689	0.881054
C81	C	-1.142395	0.086832	0.381067
C82	C	-0.642395	0.586832	0.881067
C83	C	-1.091796	1.045561	0.431560
C84	C	-0.591796	1.545561	0.931560
C85	C	-1.192964	1.045550	0.330567
C86	C	-0.692964	1.545550	0.830567
C87	C	-1.192936	0.963004	0.330560
C88	C	-0.692936	1.463004	0.830560
C89	C	-1.142337	0.921733	0.381052
C90	C	-0.642337	1.421733	0.881052
C91	C	-1.091765	0.963007	0.431552
C92	C	-0.591765	1.463007	0.931552
C93	C	-1.243501	0.921723	0.280055
C94	C	-0.743501	1.421723	0.780055
C95	C	-1.243475	0.839172	0.280045
C96	C	-0.743475	1.339172	0.780045
C97	C	-1.192879	0.797899	0.330542
C98	C	-0.692879	1.297899	0.830542
C99	C	-1.142306	0.839179	0.381045
C100	C	-0.642306	1.339179	0.881045
C101	C	-1.091707	0.797908	0.431538
C102	C	-0.591707	1.297908	0.931538
C103	C	-1.041138	0.839186	0.482045
C104	C	-0.541138	1.339186	0.982045
C105	C	-1.041170	0.921735	0.482050
C106	C	-0.541170	1.421735	0.982050
C107	C	-1.192847	0.715351	0.330538
C108	C	-0.692847	1.215351	0.830538
C109	C	-1.091676	0.715354	0.431530
C110	C	-0.591676	1.215354	0.931530
C111	C	-1.142283	0.380865	0.175657
C112	C	-0.642283	0.880865	0.675657
C113	C	-1.142422	0.380670	0.087801
C114	C	-0.642422	0.880670	0.587801
C115	C	-1.091839	0.431222	1.046506
C116	C	-0.591839	0.931222	1.546506
C117	C	-1.192983	0.330138	1.046542
C118	C	-0.692983	0.830138	1.546542
C119	C	-1.192962	0.330155	0.963996
C120	C	-0.692962	0.830155	1.463996
C121	C	-1.142380	0.380707	0.922701
C122	C	-0.642380	0.880707	1.422701
C123	C	-1.091818	0.431242	0.963952
C124	C	-0.591818	0.931242	1.463952
C125	C	-1.243529	0.279626	0.922738
C126	C	-0.743529	0.779626	1.422738
C127	C	-1.243510	0.279641	0.840187
C128	C	-0.743510	0.779641	1.340187
C129	C	-1.192923	0.330190	0.798891
C130	C	-0.692923	0.830190	1.298891
C131	C	-1.142359	0.380727	0.840148
C132	C	-0.642359	0.880727	1.340148
C133	C	-1.091776	0.431279	0.798853
C134	C	-0.591776	0.931279	1.298853
C135	C	-1.041207	0.481813	0.840108
C136	C	-0.541207	0.981813	1.340108
C137	C	-1.041231	0.481791	0.922656
C138	C	-0.541231	0.981791	1.422656
C139	C	-1.192899	0.330211	0.716343
C140	C	-0.692899	0.830211	1.216343
C141	C	-1.091755	0.431299	0.716299
C142	C	-0.591755	0.931299	1.216299
H143	H	-0.444032	0.289280	0.472906
H144	H	0.055968	0.789280	0.972906
H145	H	-1.234016	0.681746	0.289411
H146	H	-0.734016	1.181746	0.789411
O147	O	-0.557001	0.225424	0.536903
O148	O	-0.057001	0.725424	1.036903
H149	H	-0.492660	0.233903	0.528395
H150	H	0.007340	0.733903	1.028395
O151	O	-0.986638	0.536325	0.795567
O152	O	-0.486638	1.036325	1.295567
H153	H	-1.000162	0.598364	0.811391
H154	H	-0.500162	1.098364	1.311391
H155	H	-0.999936	0.805574	0.523153
H156	H	-0.499936	1.305574	1.023153
H157	H	-1.000063	0.522935	0.956253
H158	H	-0.500063	1.022935	1.456253
H159	H	-0.443890	0.472462	0.289168
H160	H	0.056110	0.972462	0.789168
O161	O	-1.037180	0.485806	0.671760
O162	O	-0.537180	0.985806	1.171760
H163	H	-1.002020	0.520935	0.714317
H164	H	-0.502020	1.020935	1.214317
O165	O	-1.247541	1.090049	0.276105
O166	O	-0.747541	1.590049	0.776105
H167	H	-1.309558	1.074146	0.289731
H168	H	-0.809558	1.574146	0.789731
H169	H	-1.234170	0.288985	1.080169
H170	H	-0.734170	0.788985	1.580169
H171	H	-1.050665	0.472363	1.080099
H172	H	-0.550665	0.972363	1.580099
H173	H	-0.841306	0.472432	0.289096
H174	H	-0.341306	0.972432	0.789096
H175	H	-1.284715	0.238474	0.956367
H176	H	-0.784715	0.738474	1.456367
H177	H	-1.284686	0.238493	0.806605
H178	H	-0.784686	0.738493	1.306605
O179	O	-0.728583	0.225400	0.536876
O180	O	-0.228583	0.725400	1.036876
H181	H	-0.686039	0.190291	0.572087
H182	H	-0.186039	0.690291	1.072087
H183	H	-1.234074	0.289070	0.682757
H184	H	-0.734074	0.789070	1.182757
O185	O	-0.852369	0.275886	0.486215
O186	O	-0.352369	0.775886	0.986215
H187	H	-0.836558	0.289518	0.548231
H188	H	-0.336558	0.789518	1.048231
O189	O	-0.728352	0.536268	0.225091
O190	O	-0.228352	1.036268	0.725091
H191	H	-0.765978	0.576520	0.260394
H192	H	-0.265978	1.076520	0.760394
O193	O	-0.556767	0.536288	0.225125
O194	O	-0.056767	1.036288	0.725125
H195	H	-0.492438	0.527816	0.233650
H196	H	0.007562	1.027816	0.733650
H197	H	-1.050475	0.681756	0.472651
H198	H	-0.550475	1.181756	0.972651
O199	O	-1.298102	0.966232	0.225625
O200	O	-0.798102	1.466232	0.725625
H201	H	-1.289644	1.030568	0.234134
H202	H	-0.789644	1.530568	0.734134
O203	O	-0.986614	0.966253	0.536507
O204	O	-0.486614	1.466253	1.036507
H205	H	-0.995127	1.030588	0.528017
H206	H	-0.495127	1.530588	1.028017
H207	H	-1.050626	1.079173	0.472684
H208	H	-0.550626	1.579173	0.972684
O209	O	-1.298023	0.794651	0.225582
O210	O	-0.798023	1.294651	0.725582
H211	H	-1.333216	0.837219	0.190479
H212	H	-0.833216	1.337219	0.690479
