data_functionalizedCrystal
_audit_creation_method	'MofGen! by Chris Wilmer'
_symmetry_space_group_name_H-M	'P1'
_symmetry_Int_Tables_number	1
_symmetry_cell_setting	triclinic
loop_
_symmetry_equiv_pos_as_xyz
  x,y,z
_cell_length_a	9.065218
_cell_length_b	14.971486
_cell_length_c	13.448316
_cell_angle_alpha	89.996136
_cell_angle_beta	89.994842
_cell_angle_gamma	84.315007
loop_
_atom_site_label
_atom_site_type_symbol
_atom_site_fract_x
_atom_site_fract_y
_atom_site_fract_z
O1	O	-1.957743	-0.131152	0.082695
O2	O	-1.528240	-0.141910	0.082697
O3	O	-1.754504	-0.006417	0.082689
O4	O	-1.731480	-0.266645	0.082703
O5	O	-1.754481	-0.006415	-0.082695
O6	O	-1.528218	-0.141908	-0.082687
O7	O	-1.957721	-0.131151	-0.082689
Cu8	Cu	-1.742967	-0.136529	-0.097789
Cu9	Cu	-1.742994	-0.136531	0.097797
O10	O	-1.731458	-0.266644	-0.082681
C11	C	-1.473263	-0.140875	0.000005
C12	C	-1.309483	-0.137784	0.000005
C13	C	-1.753463	0.026916	-0.000003
C14	C	-1.750377	0.126237	-0.000002
C15	C	-2.012698	-0.132185	0.000005
C16	C	-2.176478	-0.135277	0.000011
C17	C	-1.732498	-0.299977	0.000013
C18	C	-1.735584	-0.399297	0.000019
N19	N	-1.742959	-0.136528	-0.235353
C20	C	-1.883301	0.182471	-0.000003
C21	C	-1.880393	0.275792	0.000007
C22	C	-1.744560	0.312877	0.000011
C23	C	-1.611626	0.256635	0.000015
C24	C	-1.614535	0.163316	0.000012
C25	C	-1.605571	0.451143	0.000019
C26	C	-1.602660	0.544468	0.000020
C27	C	-1.871428	0.563619	0.000013
C28	C	-1.874338	0.470300	0.000010
C29	C	-1.741403	0.414064	0.000013
C30	C	-1.832525	-0.191536	-0.287386
C31	C	-1.832544	-0.191533	-0.391490
C32	C	-1.742987	-0.136524	-0.443558
C33	C	-1.653417	-0.081509	-0.391517
C34	C	-1.653408	-0.081509	-0.287416
C35	C	-1.653441	-0.081516	-0.608497
C36	C	-1.653448	-0.081517	-0.712606
C37	C	-1.832576	-0.191539	-0.712571
C38	C	-1.832567	-0.191539	-0.608470
C39	C	-1.742995	-0.136525	-0.556436
N40	N	-1.743014	-0.136526	0.235361
H41	H	-1.993912	0.152285	-0.000013
H42	H	-1.506295	0.117530	0.000013
H43	H	-1.580506	-0.036716	-0.433919
H44	H	-1.580504	-0.036716	-0.566135
H45	H	-1.905444	-0.236336	-0.245000
C46	C	-1.554875	-0.020997	-0.230180
N47	N	-1.480659	0.024583	-0.187071
H48	H	-1.905480	-0.236325	-0.433850
C49	C	-2.017658	0.625480	0.000019
N50	N	-2.127793	0.672078	0.000021
H51	H	-1.497321	0.405358	0.000023
H52	H	-1.905485	-0.236336	-0.566079
H53	H	-1.988633	0.321575	0.000004
C54	C	-1.462208	0.297431	0.000011
N55	N	-1.349662	0.328158	0.000001
C56	C	-1.931114	-0.252051	-0.769810
N57	N	-2.005327	-0.297628	-0.812926
H58	H	-1.492053	0.574659	0.000007
C59	C	-2.023761	0.429509	0.000001
N60	N	-2.136309	0.398786	-0.000003
C61	C	-1.554952	-0.020993	-0.769879
N62	N	-1.480769	0.024599	-0.813017
