data_functionalizedCrystal
_audit_creation_method	'MofGen! by Chris Wilmer'
_symmetry_space_group_name_H-M	'P1'
_symmetry_Int_Tables_number	1
_symmetry_cell_setting	triclinic
loop_
_symmetry_equiv_pos_as_xyz
  x,y,z
_cell_length_a	10.654545
_cell_length_b	14.044220
_cell_length_c	9.730223
_cell_angle_alpha	90.007173
_cell_angle_beta	90.003812
_cell_angle_gamma	88.835978
loop_
_atom_site_label
_atom_site_type_symbol
_atom_site_fract_x
_atom_site_fract_y
_atom_site_fract_z
O1	O	1.681230	0.133213	0.114280
O2	O	1.317027	0.145911	0.114287
O3	O	1.493662	0.001542	0.114270
O4	O	1.504596	0.277583	0.114297
O5	O	1.493646	0.001533	-0.114310
O6	O	1.317011	0.145902	-0.114293
O7	O	1.681214	0.133205	-0.114300
Zn8	Zn	1.499110	0.139552	-0.150588
Zn9	Zn	1.499131	0.139564	0.150575
O10	O	1.504579	0.277574	-0.114283
C11	C	1.270128	0.144975	-0.000003
C12	C	1.130404	0.142189	-0.000001
C13	C	1.064759	0.140872	-0.124601
C14	C	0.933475	0.138238	-0.124601
C15	C	0.933492	0.138241	0.124609
C16	C	1.064774	0.140868	0.124608
C17	C	1.488868	-0.033808	-0.000020
C18	C	1.474593	-0.139128	-0.000022
C19	C	1.448494	-0.331961	-0.000002
C20	C	1.549742	-0.388929	0.000001
C21	C	1.535220	-0.496228	0.000012
C22	C	1.463014	-0.224652	-0.000013
C23	C	1.728114	0.134140	-0.000007
C24	C	1.867838	0.136927	-0.000000
C25	C	1.509373	0.312924	0.000011
C26	C	1.523649	0.418244	0.000021
N27	N	1.499105	0.139544	-0.356125
C28	C	1.416474	0.081494	-0.571992
C29	C	1.416455	0.081480	-0.428109
C30	C	1.581786	0.197617	-0.428031
C31	C	1.581809	0.197625	-0.571911
N32	N	1.499146	0.139565	0.356112
H33	H	1.118224	0.141938	0.226079
H34	H	1.647329	-0.357118	0.000091
H35	H	1.349165	0.034217	-0.630592
O36	O	0.862666	0.136827	-0.258989
H37	H	0.930362	0.138194	-0.345632
O38	O	1.670930	0.260241	-0.350389
H39	H	1.728430	0.300616	-0.424560
H40	H	1.350914	-0.363770	0.000003
H41	H	1.118190	0.141947	-0.226065
H42	H	1.649138	0.244914	-0.630450
O43	O	1.327281	0.018854	-0.350559
H44	H	1.269801	-0.021509	-0.424787
O45	O	0.862707	0.136831	0.259007
H46	H	0.760388	0.134794	0.238078
