data_functionalizedCrystal
_audit_creation_method	'MofGen! by Chris Wilmer'
_symmetry_space_group_name_H-M	'P1'
_symmetry_Int_Tables_number	1
_symmetry_cell_setting	triclinic
loop_
_symmetry_equiv_pos_as_xyz
  x,y,z
_cell_length_a	15.944551
_cell_length_b	8.965430
_cell_length_c	15.944551
_cell_angle_alpha	89.999468
_cell_angle_beta	83.498738
_cell_angle_gamma	90.000682
loop_
_atom_site_label
_atom_site_type_symbol
_atom_site_fract_x
_atom_site_fract_y
_atom_site_fract_z
O1	O	1.114524	-0.123887	0.108326
O2	O	0.869974	-0.123925	0.121682
O3	O	0.998927	-0.123891	-0.007271
O4	O	0.985571	-0.123920	0.237279
O5	O	0.998916	0.124188	-0.007262
O6	O	0.869964	0.124154	0.121691
O7	O	1.114513	0.124192	0.108334
Cu8	Cu	0.992237	0.146825	0.115013
Cu9	Cu	0.992250	-0.146557	0.115003
O10	O	0.985560	0.124159	0.237287
C11	C	0.838675	0.000110	0.121132
C12	C	0.745429	0.000096	0.119470
C13	C	0.998367	0.000148	-0.038561
C14	C	0.996705	0.000149	-0.131807
N15	N	0.992234	0.353174	0.115020
C16	C	0.530572	0.000135	0.035565
C17	C	0.469558	-0.122185	0.074523
C18	C	0.574703	0.000114	0.116462
C19	C	0.469569	0.122401	0.074551
C20	C	0.409790	0.000138	0.113551
C21	C	0.514917	-0.122307	0.155443
C22	C	0.514934	0.122389	0.155459
C23	C	0.453937	0.000038	0.194476
C24	C	0.669705	0.000099	0.118137
C25	C	0.314789	0.000143	0.111883
C26	C	1.145813	0.000154	0.108885
C27	C	1.239059	0.000158	0.110547
N28	N	0.992260	-0.352906	0.114990
C29	C	0.932580	0.450464	0.174637
C30	C	1.008484	0.549888	0.190940
C31	C	0.916362	0.549878	0.098724
C32	C	1.068177	0.450408	0.131361
C33	C	0.976005	0.450390	0.039112
C34	C	1.051964	0.549768	0.055383
C35	C	0.912801	0.000115	-0.346663
C36	C	0.951758	0.122439	-0.407676
C37	C	0.993698	0.000137	-0.302533
C38	C	0.951788	-0.122147	-0.407668
C39	C	0.990787	0.000119	-0.467445
C40	C	1.032677	0.122562	-0.362317
C41	C	1.032696	-0.122134	-0.362303
C42	C	1.071711	0.000219	-0.423298
C43	C	0.995372	0.000149	-0.207530
C44	C	0.989119	0.000118	-0.562446
C45	C	0.986120	0.000116	0.268577
C46	C	0.987782	0.000105	0.361823
H47	H	0.563905	-0.000008	-0.031573
H48	H	0.845652	0.000227	-0.313356
H49	H	0.852188	0.593575	0.084954
O50	O	0.442960	0.259383	0.029217
H51	H	0.398948	0.326619	0.072986
H52	H	1.022228	0.593591	0.255121
H53	H	1.066887	-0.225545	-0.342176
H54	H	0.535061	0.225799	0.189650
O55	O	0.906440	0.259420	-0.434310
H56	H	0.840497	0.259164	-0.403321
O57	O	0.865817	0.392684	0.241471
H58	H	0.879508	0.432535	0.304409
O59	O	1.077953	0.259708	-0.335845
H60	H	1.078797	0.258670	-0.266335
O61	O	0.541394	-0.259444	0.200724
H62	H	0.484830	-0.327535	0.222016
O63	O	1.160729	0.000315	-0.467235
H64	H	1.194092	0.101951	-0.449078
O65	O	1.153204	0.392797	0.149708
H66	H	1.152514	0.269000	0.149611
O67	O	0.906462	-0.259136	-0.434283
H68	H	0.840525	-0.258877	-0.403280
H69	H	0.449452	-0.225591	0.040304
H70	H	1.102478	0.593096	0.004951
O71	O	0.410019	-0.000032	0.283501
H72	H	0.428181	-0.101660	0.316868
H73	H	0.962237	0.406652	-0.025048
