data_functionalizedCrystal
_audit_creation_method	'MofGen! by Chris Wilmer'
_symmetry_space_group_name_H-M	'P1'
_symmetry_Int_Tables_number	1
_symmetry_cell_setting	triclinic
loop_
_symmetry_equiv_pos_as_xyz
  x,y,z
_cell_length_a	23.532361
_cell_length_b	23.532407
_cell_length_c	13.448316
_cell_angle_alpha	89.988737
_cell_angle_beta	89.997511
_cell_angle_gamma	82.839173
loop_
_atom_site_label
_atom_site_type_symbol
_atom_site_fract_x
_atom_site_fract_y
_atom_site_fract_z
O1	O	0.755278	0.069010	-0.082602
O2	O	1.255278	0.569010	0.417398
O3	O	0.589411	0.079041	-0.082627
O4	O	1.089411	0.579041	0.417373
O5	O	0.677347	-0.008907	-0.082596
O6	O	1.177347	0.491093	0.417404
O7	O	0.667343	0.156958	-0.082634
O8	O	1.167343	0.656958	0.417366
O9	O	0.677336	-0.008913	0.082788
O10	O	1.177336	0.491087	0.582788
O11	O	0.589400	0.079035	0.082756
O12	O	1.089400	0.579035	0.582756
O13	O	0.755267	0.069005	0.082782
O14	O	1.255267	0.569005	0.582782
Cu15	Cu	0.672333	0.074020	0.097870
Cu16	Cu	1.172333	0.574020	0.597870
Cu17	Cu	0.672346	0.074026	-0.097716
Cu18	Cu	1.172346	0.574026	0.402284
O19	O	0.667332	0.156953	0.082750
O20	O	1.167332	0.656953	0.582750
C21	C	0.568189	0.078787	0.000062
C22	C	1.068189	0.578787	0.500062
C23	C	0.504971	0.078032	0.000053
C24	C	1.004971	0.578032	0.500053
C25	C	0.231733	0.074731	-0.090091
C26	C	0.731733	0.574731	0.409909
C27	C	0.291133	0.075446	-0.090094
C28	C	0.791133	0.575446	0.409906
O29	O	0.321864	0.075799	-0.166762
O30	O	0.821864	0.575799	0.333238
N31	N	0.320832	0.075804	0.000057
N32	N	0.820832	0.575804	0.500057
C33	C	0.291130	0.075442	0.090217
C34	C	0.791130	0.575442	0.590217
O35	O	0.321846	0.075812	0.166897
O36	O	0.821846	0.575812	0.666897
C37	C	0.231732	0.074723	0.090218
C38	C	0.731732	0.574723	0.590218
C39	C	0.202035	0.074370	0.000061
C40	C	0.702035	0.574370	0.500061
C41	C	0.202036	0.074378	-0.180241
C42	C	0.702036	0.574378	0.319759
C43	C	0.142640	0.073664	-0.180238
C44	C	0.642640	0.573664	0.319762
C45	C	0.112941	0.073303	-0.090085
C46	C	0.612941	0.573303	0.409915
C47	C	0.142639	0.073657	0.000064
C48	C	0.642639	0.573657	0.500064
C49	C	0.202031	0.074356	0.180377
C50	C	0.702031	0.574356	0.680377
C51	C	0.142629	0.073637	0.180370
C52	C	0.642629	0.573637	0.680370
C53	C	0.112932	0.073284	0.090214
C54	C	0.612932	0.573284	0.590214
C55	C	0.053545	0.072582	0.090220
C56	C	0.553545	0.572582	0.590220
N57	N	0.023845	0.072224	0.000069
N58	N	0.523845	0.572224	0.500069
C59	C	0.053543	0.072584	-0.090084
C60	C	0.553543	0.572584	0.409916
C61	C	0.415870	0.076951	0.090206
C62	C	0.915870	0.576951	0.590206
C63	C	0.475267	0.077674	0.090206
C64	C	0.975267	0.577674	0.590206
C65	C	0.475265	0.077677	-0.090105
C66	C	0.975265	0.577677	0.409895
C67	C	0.415867	0.076958	-0.090103
C68	C	0.915867	0.576958	0.409897
C69	C	0.386171	0.076593	0.000055
C70	C	0.886171	0.576593	0.500055
C71	C	-0.071192	0.071086	-0.090071
C72	C	0.428808	0.571086	0.409929
C73	C	-0.130594	0.070374	-0.090060
C74	C	0.369406	0.570374	0.409940
C75	C	-0.130587	0.070368	0.090251
C76	C	0.369413	0.570368	0.590251
C77	C	-0.071191	0.071083	0.090240
C78	C	0.428809	0.571083	0.590240
C79	C	-0.041495	0.071440	0.000071
C80	C	0.458505	0.571440	0.500071
O81	O	0.022776	0.072227	0.166849
O82	O	0.522776	0.572227	0.666849
O83	O	0.022821	0.072207	-0.166751
O84	O	0.522821	0.572207	0.333249
C85	C	0.677086	-0.030126	0.000099
C86	C	1.177086	0.469874	0.500099
C87	C	0.676320	-0.093343	0.000106
C88	C	1.176320	0.406657	0.500106
C89	C	0.723555	-0.492454	0.000059
C90	C	1.223555	0.007546	0.500059
C91	C	0.722844	-0.551854	0.000051
C92	C	1.222844	-0.051854	0.500051
O93	O	0.766630	-0.588606	0.000021
O94	O	1.266630	-0.088606	0.500021
N95	N	0.670566	-0.574471	0.000044
N96	N	1.170566	-0.074471	0.500044
C97	C	0.618997	-0.537685	0.000034
C98	C	1.118997	-0.037685	0.500034
O99	O	0.574465	-0.562377	0.000026
O100	O	1.074465	-0.062377	0.500026
C101	C	0.619709	-0.478286	0.000035
C102	C	1.119709	0.021714	0.500035
C103	C	0.671990	-0.455672	0.000052
C104	C	1.171990	0.044328	0.500052
C105	C	0.775832	-0.469839	0.000075
C106	C	1.275832	0.030161	0.500075
C107	C	0.776543	-0.410443	0.000085
C108	C	1.276543	0.089557	0.500085
C109	C	0.724977	-0.373662	0.000078
C110	C	1.224977	0.126338	0.500078
C111	C	0.672701	-0.396276	0.000062
C112	C	1.172701	0.103724	0.500062
C113	C	0.568140	-0.441501	0.000018
C114	C	1.068140	0.058499	0.500018
C115	C	0.568857	-0.382099	0.000018
C116	C	1.068857	0.117901	0.500018
C117	C	0.621137	-0.359485	0.000035
C118	C	1.121137	0.140515	0.500035
C119	C	0.621847	-0.300099	0.000064
C120	C	1.121847	0.199901	0.500064
N121	N	0.674124	-0.277481	0.000072
N122	N	1.174124	0.222519	0.500072
C123	C	0.725690	-0.314263	0.000078
C124	C	1.225690	0.185737	0.500078
C125	C	0.617505	-0.662427	0.000031
C126	C	1.117505	-0.162427	0.500031
C127	C	0.616793	-0.721825	0.000038
C128	C	1.116793	-0.221825	0.500038
C129	C	0.720640	-0.735990	0.000053
C130	C	1.220640	-0.235990	0.500053
C131	C	0.721352	-0.676591	0.000054
C132	C	1.221352	-0.176591	0.500054
C133	C	0.669783	-0.639810	0.000039
C134	C	1.169783	-0.139810	0.500039
C135	C	0.727179	-0.189526	0.000099
C136	C	1.227179	0.310474	0.500099
C137	C	0.727886	-0.130124	0.000113
C138	C	1.227886	0.369876	0.500113
C139	C	0.624039	-0.115965	0.000093
C140	C	1.124039	0.384035	0.500093
C141	C	0.623332	-0.175361	0.000084
C142	C	1.123332	0.324639	0.500084
C143	C	0.674907	-0.212141	0.000084
C144	C	1.174907	0.287859	0.500084
O145	O	0.578083	-0.263312	0.000090
O146	O	1.078083	0.236688	0.500090
O147	O	0.770214	-0.289562	0.000073
O148	O	1.270214	0.210438	0.500073
C149	C	0.776489	0.069258	0.000091
C150	C	1.276489	0.569258	0.500091
C151	C	0.839708	0.070014	0.000093
C152	C	1.339708	0.570014	0.500093
C153	C	0.667592	0.178171	0.000053
C154	C	1.167592	0.678171	0.500053
C155	C	0.668358	0.241388	0.000039
C156	C	1.168358	0.741388	0.500039
N157	N	0.672328	0.074015	0.235434
N158	N	1.172328	0.574015	0.735434
N159	N	0.672355	0.074026	-0.235280
N160	N	1.172355	0.574026	0.264720
C161	C	0.711278	0.035087	0.287489
C162	C	1.211278	0.535087	0.787489
C163	C	0.711281	0.035087	0.391592
C164	C	1.211281	0.535087	0.891592
C165	C	0.672337	0.074017	0.443639
C166	C	1.172337	0.574017	0.943639
C167	C	0.633384	0.112946	0.391577
C168	C	1.133384	0.612946	0.891577
C169	C	0.633378	0.112944	0.287476
C170	C	1.133378	0.612944	0.787476
C171	C	0.633399	0.112950	0.608557
C172	C	1.133399	0.612950	1.108557
C173	C	0.633406	0.112954	0.712666
C174	C	1.133406	0.612954	1.212666
C175	C	0.711303	0.035093	0.712673
C176	C	1.211303	0.535093	1.212673
C177	C	0.711297	0.035090	0.608572
C178	C	1.211297	0.535090	1.108572
C179	C	0.672344	0.074021	0.556517
C180	C	1.172344	0.574021	1.056517
H181	H	0.226210	0.074670	-0.253658
H182	H	0.726210	0.574670	0.246342
O183	O	0.753303	-0.006893	0.447728
O184	O	1.253303	0.493107	0.947728
H185	H	0.746312	-0.051256	0.427760
H186	H	1.246312	0.448744	0.927760
O187	O	0.591362	0.154921	0.231318
O188	O	1.091362	0.654921	0.731318
H189	H	0.615168	0.182472	0.183855
H190	H	1.115168	0.682472	0.683855
O191	O	0.507304	0.078055	-0.187347
O192	O	1.007304	0.578055	0.312653
H193	H	0.553596	0.078606	-0.172194
H194	H	1.053596	0.578606	0.327806
H195	H	-0.047012	0.071381	0.163653
H196	H	0.452988	0.571381	0.663653
H197	H	0.743011	0.003393	0.566195
H198	H	1.243011	0.503393	1.066195
H199	H	0.743020	0.003395	0.755062
H200	H	1.243020	0.503395	1.255062
O201	O	0.591392	0.154929	0.768809
O202	O	1.091392	0.654929	1.268809
H203	H	0.564295	0.181991	0.715125
H204	H	1.064295	0.681991	1.215125
H205	H	0.819115	-0.392037	0.000095
H206	H	1.319115	0.107963	0.500095
O207	O	0.568426	-0.076284	0.000087
O208	O	1.068426	0.423716	0.500087
H209	H	0.531950	-0.101984	0.000083
H210	H	1.031950	0.398016	0.500083
H211	H	0.601677	0.144649	0.566178
H212	H	1.101677	0.644649	1.066178
H213	H	0.601672	0.144642	0.433960
H214	H	1.101672	0.644642	0.933960
O215	O	0.383839	0.076560	-0.187342
O216	O	0.883839	0.576560	0.312658
H217	H	0.414477	0.076925	-0.250025
H218	H	0.914477	0.576925	0.249975
H219	H	-0.154771	0.070089	-0.163480
H220	H	0.345229	0.570089	0.336520
H221	H	0.580761	-0.193774	0.000098
H222	H	1.080761	0.306226	0.500098
H223	H	0.742992	0.003388	0.245119
H224	H	1.242992	0.503388	0.745119
H225	H	0.526862	-0.352154	0.000004
H226	H	1.026862	0.147846	0.500004
O227	O	0.776257	-0.775672	0.000053
O228	O	1.276257	-0.275672	0.500053
H229	H	0.801287	-0.767685	0.067469
H230	H	1.301287	-0.267685	0.567469
O231	O	0.561878	-0.622761	0.000038
O232	O	1.061878	-0.122761	0.500038
H233	H	0.559711	-0.595354	-0.067371
H234	H	1.059711	-0.095354	0.432629
H235	H	-0.047021	0.071377	-0.163495
H236	H	0.452979	0.571377	0.336505
O237	O	0.507293	0.078073	0.187445
O238	O	1.007293	0.578073	0.687445
H239	H	0.476657	0.077703	0.250129
H240	H	0.976657	0.577703	0.750129
O241	O	0.110484	0.073319	0.277510
O242	O	0.610484	0.573319	0.777510
H243	H	0.127083	0.034660	0.320904
H244	H	0.627083	0.534660	0.820904
O245	O	0.560402	-0.746209	0.000033
O246	O	1.060402	-0.246209	0.500033
H247	H	0.557585	-0.772937	0.067442
H248	H	1.057585	-0.272937	0.567442
O249	O	0.110626	0.073257	-0.277489
O250	O	0.610626	0.573257	0.222511
H251	H	0.116733	0.112207	-0.320755
H252	H	0.616733	0.612207	0.179245
O253	O	0.383839	0.076569	0.187455
O254	O	0.883839	0.576569	0.687455
H255	H	0.414473	0.076946	0.250134
H256	H	0.914473	0.576946	0.750134
O257	O	0.234052	0.074752	0.277618
O258	O	0.734052	0.574752	0.777618
H259	H	0.203412	0.074380	0.340296
H260	H	0.703412	0.574380	0.840296
H261	H	0.817825	-0.499782	0.000077
H262	H	1.317825	0.000218	0.500077
H263	H	-0.154778	0.070077	0.163650
H264	H	0.345222	0.570077	0.663650
O265	O	0.784276	-0.105732	0.000116
O266	O	1.284276	0.394268	0.500116
H267	H	0.820012	-0.141292	0.000104
H268	H	1.320012	0.358708	0.500104
H269	H	0.769176	-0.219466	0.000095
H270	H	1.269176	0.280534	0.500095
O271	O	0.777739	-0.652201	0.000054
O272	O	1.277739	-0.152201	0.500054
H273	H	0.813473	-0.687762	0.000050
H274	H	1.313473	-0.187762	0.500050
O275	O	0.511751	-0.465884	-0.000004
O276	O	1.011751	0.034116	0.499996
H277	H	0.476020	-0.430320	-0.000021
H278	H	0.976020	0.069680	0.499979
