data_functionalizedCrystal
_audit_creation_method	'MofGen! by Chris Wilmer'
_symmetry_space_group_name_H-M	'P1'
_symmetry_Int_Tables_number	1
_symmetry_cell_setting	triclinic
loop_
_symmetry_equiv_pos_as_xyz
  x,y,z
_cell_length_a	19.077236
_cell_length_b	12.759394
_cell_length_c	19.077569
_cell_angle_alpha	87.678206
_cell_angle_beta	85.479541
_cell_angle_gamma	92.307717
loop_
_atom_site_label
_atom_site_type_symbol
_atom_site_fract_x
_atom_site_fract_y
_atom_site_fract_z
Zn1	Zn	1.093786	-0.326332	-0.441990
Zn2	Zn	1.593786	0.173668	0.058010
Zn3	Zn	1.088989	-0.509381	-0.324105
Zn4	Zn	1.588989	-0.009381	0.175895
Zn5	Zn	0.971166	-0.341052	-0.319371
Zn6	Zn	1.471166	0.158948	0.180629
Zn7	Zn	0.975882	-0.509312	-0.437211
Zn8	Zn	1.475882	-0.009312	0.062789
O9	O	1.032456	-0.421519	-0.380669
O10	O	1.532456	0.078481	0.119331
O11	O	1.191802	-0.344483	-0.430333
O12	O	1.691802	0.155517	0.069667
O13	O	1.069378	-0.493241	-0.224825
O14	O	1.569378	0.006759	0.275175
O15	O	0.987466	-0.192075	-0.335656
O16	O	1.487466	0.307925	0.164344
O17	O	1.188278	-0.478968	-0.343724
O18	O	1.688278	0.021032	0.156276
O19	O	1.077554	-0.181261	-0.425743
O20	O	1.577554	0.318739	0.074257
O21	O	0.982814	-0.369570	-0.221348
O22	O	1.482814	0.130430	0.278652
O23	O	0.873139	-0.369503	-0.331022
O24	O	1.373139	0.130497	0.168978
O25	O	0.995504	-0.478850	-0.536497
O26	O	1.495504	0.021150	-0.036497
O27	O	0.876604	-0.493123	-0.417599
O28	O	1.376604	0.006877	0.082401
O29	O	1.082127	-0.344416	-0.540008
O30	O	1.582127	0.155584	-0.040008
O31	O	1.073951	-0.656396	-0.339090
O32	O	1.573951	-0.156396	0.160910
O33	O	0.990852	-0.656345	-0.422189
O34	O	1.490852	-0.156345	0.077811
C35	C	0.849292	-0.432903	-0.373279
C36	C	1.349292	0.067097	0.126721
C37	C	0.770935	-0.437798	-0.370134
C38	C	1.270935	0.062202	0.129866
C39	C	0.735961	-0.370180	-0.413818
C40	C	1.235961	0.129820	0.086182
C41	C	0.662335	-0.374774	-0.410856
C42	C	1.162335	0.125226	0.089144
C43	C	0.623685	-0.446992	-0.364214
C44	C	1.123685	0.053008	0.135786
C45	C	0.658665	-0.514613	-0.320525
C46	C	1.158665	-0.014613	0.179475
C47	C	0.732289	-0.510013	-0.323483
C48	C	1.232289	-0.010013	0.176517
C49	C	0.403296	-0.468242	-0.350521
C50	C	0.903296	0.031758	0.149479
C51	C	0.329667	-0.472839	-0.347567
C52	C	0.829667	0.027161	0.152433
C53	C	0.333343	-0.332999	-0.437898
C54	C	0.833343	0.167001	0.062102
C55	C	0.406968	-0.328410	-0.440855
C56	C	0.906968	0.171590	0.059145
C57	C	0.441941	-0.396027	-0.397164
C58	C	0.941941	0.103973	0.102836
N59	N	0.548428	-0.451692	-0.361188
N60	N	1.048428	0.048308	0.138812
N61	N	0.517196	-0.391321	-0.400187
N62	N	1.017196	0.108679	0.099813
C63	C	1.032413	-0.694491	-0.380651
C64	C	1.532413	-0.194491	0.119349
C65	C	1.032460	-0.811263	-0.380669
C66	C	1.532460	-0.311263	0.119331
C67	C	1.119061	-0.811255	-0.294208
C68	C	1.619061	-0.311255	0.205792
C69	C	1.162381	-0.866109	-0.250987
C70	C	1.662381	-0.366109	0.249013
C71	C	1.162423	-0.975827	-0.251008
C72	C	1.662423	-0.475827	0.248992
C73	C	1.119142	-1.030693	-0.294256
C74	C	1.619142	-0.530693	0.205744
C75	C	1.075823	-0.975838	-0.337477
C76	C	1.575823	-0.475838	0.162523
C77	C	1.075784	-0.866118	-0.337450
C78	C	1.575784	-0.366118	0.162550
C79	C	0.989226	-0.975846	-0.423941
C80	C	1.489226	-0.475846	0.076059
C81	C	0.989179	-0.866129	-0.423917
C82	C	1.489179	-0.366129	0.076083
C83	C	0.945946	-1.030711	-0.467189
C84	C	1.445946	-0.530711	0.032811
C85	C	0.902622	-0.975857	-0.510407
C86	C	1.402622	-0.475857	-0.010407
C87	C	0.902581	-0.866133	-0.510384
C88	C	1.402581	-0.366133	-0.010384
C89	C	0.945860	-0.811274	-0.467138
C90	C	1.445860	-0.311274	0.032862
C91	C	1.216335	-0.410092	-0.388090
C92	C	1.716335	0.089908	0.111910
C93	C	1.294693	-0.405222	-0.391252
C94	C	1.794693	0.094778	0.108748
C95	C	1.039876	-0.409983	-0.564547
C96	C	1.539876	0.090017	-0.064547
C97	C	1.043039	-0.405067	-0.642904
C98	C	1.543039	0.094933	-0.142904
C99	C	1.032519	-0.147480	-0.380704
C100	C	1.532519	0.352520	0.119296
C101	C	1.032546	-0.030701	-0.380719
C102	C	1.532546	0.469299	0.119281
C103	C	0.999425	-0.472745	-0.677890
C104	C	1.499425	0.027255	-0.177890
C105	C	1.002402	-0.468126	-0.751516
C106	C	1.502402	0.031874	-0.251516
C107	C	1.048990	-0.395822	-0.790154
C108	C	1.548990	0.104178	-0.290154
C109	C	1.092608	-0.328141	-0.755163
C110	C	1.592608	0.171859	-0.255163
C111	C	1.089634	-0.332766	-0.681539
C112	C	1.589634	0.167234	-0.181539
C113	C	1.062724	-0.374488	-1.010543
C114	C	1.562724	0.125512	-0.510543
C115	C	1.065693	-0.369866	-1.084172
C116	C	1.565693	0.130134	-0.584172
C117	C	0.975487	-0.509852	-1.080519
C118	C	1.475487	-0.009852	-0.580519
C119	C	0.972515	-0.514467	-1.006894
C120	C	1.472515	-0.014467	-0.506894
C121	C	1.016135	-0.446790	-0.971909
C122	C	1.516135	0.053210	-0.471909
N123	N	1.052032	-0.391096	-0.865411
N124	N	1.552032	0.108904	-0.365411
N125	N	1.013096	-0.451521	-0.896654
N126	N	1.513096	0.048479	-0.396654
C127	C	1.025105	-0.432932	-0.197509
C128	C	1.525105	0.067068	0.302491
C129	C	1.022079	-0.437544	-0.119157
C130	C	1.522079	0.062456	0.380843
H131	H	0.627190	-0.573409	-0.282545
H132	H	1.127190	-0.073409	0.217455
H133	H	0.760763	-0.565074	-0.287911
H134	H	1.260763	-0.065074	0.212089
C135	C	0.910578	-0.610674	-0.681684
C136	C	1.410578	-0.110674	-0.181684
C137	C	0.948223	-0.552238	-0.635423
C138	C	1.448223	-0.052238	-0.135423
H139	H	0.878975	-0.659760	-0.655466
H140	H	1.378975	-0.159760	-0.155466
H141	H	0.884775	-0.564776	-0.709310
H142	H	1.384775	-0.064776	-0.209310
H143	H	0.942456	-0.647132	-0.711641
H144	H	1.442456	-0.147132	-0.211641
H145	H	0.916345	-0.515774	-0.605469
H146	H	1.416345	-0.015774	-0.105469
H147	H	0.974028	-0.598143	-0.607785
H148	H	1.474028	-0.098143	-0.107785
H149	H	1.197701	-1.020489	-0.215817
H150	H	1.697701	-0.520489	0.284183
C151	C	1.166145	-0.654079	-0.247094
C152	C	1.666145	-0.154079	0.252906
C153	C	1.119012	-0.690652	-0.294180
C154	C	1.619012	-0.190652	0.205820
H155	H	1.166117	-0.579623	-0.247081
H156	H	1.666117	-0.079623	0.252919
H157	H	1.152156	-0.682559	-0.201115
H158	H	1.652156	-0.182559	0.298885
H159	H	1.212131	-0.675240	-0.261163
H160	H	1.712131	-0.175240	0.238837
H161	H	1.073025	-0.669497	-0.280109
H162	H	1.573025	-0.169497	0.219891
H163	H	1.132998	-0.662161	-0.340169
H164	H	1.632998	-0.162161	0.159831
H165	H	0.867390	-1.020537	-0.545620
H166	H	1.367390	-0.520537	-0.045620
C167	C	0.966644	-1.182486	-0.535021
C168	C	1.466644	-0.682486	-0.035021
C169	C	0.945997	-1.151314	-0.467215
C170	C	1.445997	-0.651314	0.032785
H171	H	0.966679	-1.256942	-0.535035
H172	H	1.466679	-0.756942	-0.035035
H173	H	0.934651	-1.157676	-0.566943
H174	H	1.434651	-0.657676	-0.066943
H175	H	1.012613	-1.153994	-0.549064
H176	H	1.512613	-0.653994	-0.049064
H177	H	0.900026	-1.179801	-0.453174
H178	H	1.400026	-0.679801	0.046826
H179	H	0.977992	-1.176137	-0.435282
H180	H	1.477992	-0.676137	0.064718
C181	C	0.864063	-0.697948	-0.548748
C182	C	1.364063	-0.197948	-0.048748
C183	C	0.854964	-0.805838	-0.557897
C184	C	1.354964	-0.305838	-0.057897
H185	H	0.834669	-0.660730	-0.578085
H186	H	1.334669	-0.160730	-0.078085
H187	H	0.851856	-0.683630	-0.500962
H188	H	1.351856	-0.183630	-0.000962
H189	H	0.911836	-0.676312	-0.561006
H190	H	1.411836	-0.176312	-0.061006
H191	H	0.807192	-0.827476	-0.545634
H192	H	1.307192	-0.327476	-0.045634
H193	H	0.867166	-0.820163	-0.605694
H194	H	1.367166	-0.320163	-0.105694
H195	H	0.438432	-0.269606	-0.478839
H196	H	0.938432	0.230394	0.021161
H197	H	0.945826	-0.721936	-0.467110
H198	H	1.445826	-0.221936	0.032890
H199	H	0.966888	-0.523238	-0.779998
H200	H	1.466888	-0.023238	-0.279998
H201	H	1.197621	-0.821428	-0.215776
H202	H	1.697621	-0.321428	0.284224
H203	H	1.119187	-1.120030	-0.294276
H204	H	1.619187	-0.620030	0.205724
C205	C	1.152177	-0.235645	-1.021558
C206	C	1.652177	0.264355	-0.521558
C207	C	1.110664	-0.300088	-0.972094
C208	C	1.610664	0.199912	-0.472094
H209	H	1.181771	-0.189707	-0.997818
H210	H	1.681771	0.310293	-0.497818
H211	H	1.180291	-0.277941	-1.051356
H212	H	1.680291	0.222059	-0.551356
H213	H	1.122620	-0.195569	-1.049040
H214	H	1.622620	0.304431	-0.549040
H215	H	1.140222	-0.340171	-0.944615
H216	H	1.640222	0.159829	-0.444615
H217	H	1.082548	-0.257787	-0.942284
H218	H	1.582548	0.242213	-0.442284
H219	H	0.934589	-0.573360	-0.975440
H220	H	1.434589	-0.073360	-0.475440
C221	C	0.939997	-0.564930	-1.191758
C222	C	1.439997	-0.064930	-0.691758
C223	C	0.927549	-0.584251	-1.118976
C224	C	1.427549	-0.084251	-0.618976
H225	H	0.910404	-0.610871	-1.215497
H226	H	1.410404	-0.110871	-0.715497
H227	H	0.930178	-0.494232	-1.203412
H228	H	1.430178	0.005768	-0.703412
H229	H	0.987850	-0.576603	-1.205724
H230	H	1.487850	-0.076603	-0.705724
H231	H	0.879697	-0.572570	-1.105009
H232	H	1.379697	-0.072570	-0.605009
H233	H	0.937363	-0.654965	-1.107317
H234	H	1.437363	-0.154965	-0.607317
C235	C	0.254390	-0.317841	-0.529415
C236	C	0.754390	0.182159	-0.029415
C237	C	0.294897	-0.258672	-0.485916
C238	C	0.794897	0.241328	0.014084
H239	H	0.230652	-0.271948	-0.559055
H240	H	0.730652	0.228052	-0.059055
H241	H	0.284199	-0.360183	-0.557482
H242	H	0.784199	0.139817	-0.057482
H243	H	0.220838	-0.361506	-0.501207
H244	H	0.720838	0.138494	-0.001207
H245	H	0.328452	-0.215012	-0.514124
H246	H	0.828452	0.284988	-0.014124
H247	H	0.265085	-0.216311	-0.457846
H248	H	0.765085	0.283689	0.042154
H249	H	1.103628	-0.310978	-1.115629
H250	H	1.603628	0.189022	-0.615629
H251	H	1.130544	-0.269275	-0.786628
H252	H	1.630544	0.230725	-0.286628
C253	C	1.179090	-0.193924	-0.692540
C254	C	1.679090	0.306076	-0.192540
C255	C	1.137572	-0.258368	-0.643080
C256	C	1.637572	0.241632	-0.143080
H257	H	1.208684	-0.147991	-0.668795
H258	H	1.708684	0.352009	-0.168795
H259	H	1.207204	-0.236220	-0.722337
H260	H	1.707204	0.263780	-0.222337
H261	H	1.149536	-0.153842	-0.720022
H262	H	1.649536	0.346158	-0.220022
H263	H	1.167126	-0.298456	-0.615601
H264	H	1.667126	0.201544	-0.115601
H265	H	1.109456	-0.216068	-0.613270
H266	H	1.609456	0.283932	-0.113270
C267	C	0.485668	-0.604998	-0.343886
C268	C	0.985668	-0.104998	0.156114
C269	C	0.441731	-0.542576	-0.302502
C270	C	0.941731	-0.042576	0.197498
H271	H	0.509400	-0.650888	-0.314238
H272	H	1.009400	-0.150888	0.185762
H273	H	0.458187	-0.645118	-0.373397
H274	H	0.958187	-0.145118	0.126603
H275	H	0.519224	-0.561319	-0.372079
H276	H	1.019224	-0.061319	0.127921
H277	H	0.408172	-0.586255	-0.274312
H278	H	0.908172	-0.086255	0.225688
H279	H	0.469214	-0.502453	-0.272978
H280	H	0.969214	-0.002453	0.227022
H281	H	0.767424	-0.311375	-0.451801
H282	H	1.267424	0.188625	0.048199
H283	H	0.298200	-0.531653	-0.309585
H284	H	0.798200	-0.031653	0.190415
C285	C	0.673364	-0.236098	-0.500446
C286	C	1.173364	0.263902	-0.000446
C287	C	0.623892	-0.300449	-0.458878
C288	C	1.123892	0.199551	0.041122
H289	H	0.649629	-0.190215	-0.530095
H290	H	1.149629	0.309785	-0.030095
H291	H	0.700840	-0.195971	-0.470933
H292	H	1.200840	0.304029	0.029067
H293	H	0.703166	-0.278469	-0.528510
H294	H	1.203166	0.221531	-0.028510
H295	H	0.594092	-0.258079	-0.430810
H296	H	1.094092	0.241921	0.069190
H297	H	0.596404	-0.340580	-0.488394
H298	H	1.096404	0.159420	0.011606
