data_functionalizedCrystal
_audit_creation_method	'MofGen! by Chris Wilmer'
_symmetry_space_group_name_H-M	'P1'
_symmetry_Int_Tables_number	1
_symmetry_cell_setting	triclinic
loop_
_symmetry_equiv_pos_as_xyz
  x,y,z
_cell_length_a	19.188930
_cell_length_b	19.188930
_cell_length_c	18.266242
_cell_angle_alpha	90.011475
_cell_angle_beta	89.977082
_cell_angle_gamma	96.855221
loop_
_atom_site_label
_atom_site_type_symbol
_atom_site_fract_x
_atom_site_fract_y
_atom_site_fract_z
O1	O	0.926149	-0.087169	-0.061124
O2	O	1.426149	0.412831	0.438876
O3	O	0.722838	-0.098903	-0.061075
O4	O	1.222838	0.401097	0.438925
O5	O	0.830361	0.008620	-0.061087
O6	O	1.330361	0.508620	0.438913
O7	O	0.818627	-0.194691	-0.061113
O8	O	1.318627	0.305309	0.438887
O9	O	0.830343	0.008625	0.060675
O10	O	1.330343	0.508625	0.560675
O11	O	0.722820	-0.098897	0.060687
O12	O	1.222820	0.401103	0.560687
O13	O	0.926131	-0.087163	0.060638
O14	O	1.426131	0.412837	0.560638
Zn15	Zn	0.824473	-0.093029	0.079994
Zn16	Zn	1.324473	0.406971	0.579994
Zn17	Zn	0.824497	-0.093037	-0.080432
Zn18	Zn	1.324497	0.406963	0.419568
O19	O	0.818608	-0.194686	0.060649
O20	O	1.318608	0.305314	0.560649
C21	C	0.696818	-0.098520	-0.000188
C22	C	1.196818	0.401480	0.499812
C23	C	0.619313	-0.097380	-0.000169
C24	C	1.119313	0.402620	0.499831
C25	C	0.574389	-0.160470	-0.000188
C26	C	1.074389	0.339530	0.499812
C27	C	0.501566	-0.159399	-0.000196
C28	C	1.001566	0.340601	0.499804
C29	C	0.473669	-0.095233	-0.000199
C30	C	0.973669	0.404767	0.499801
C31	C	0.518603	-0.032133	-0.000175
C32	C	1.018603	0.467867	0.499825
C33	C	0.591425	-0.033207	-0.000160
C34	C	1.091425	0.466793	0.499840
N35	N	0.365695	-0.046188	-0.041663
N36	N	0.865695	0.453812	0.458337
N37	N	0.296516	-0.045172	-0.041679
N38	N	0.796516	0.454828	0.458321
C39	C	0.254260	-0.091994	-0.000243
C40	C	0.754260	0.408006	0.499757
N41	N	0.283795	-0.139881	0.041200
N42	N	0.783795	0.360119	0.541200
N43	N	0.352980	-0.140899	0.041213
N44	N	0.852980	0.359101	0.541213
C45	C	0.394707	-0.094062	-0.000215
C46	C	0.894707	0.405938	0.499785
C47	C	0.130372	-0.153928	-0.000270
C48	C	0.630372	0.346072	0.499730
C49	C	0.057547	-0.152853	-0.000274
C50	C	0.557547	0.347147	0.499726
C51	C	0.074586	-0.025586	-0.000261
C52	C	0.574586	0.474414	0.499739
C53	C	0.147409	-0.026662	-0.000250
C54	C	0.647409	0.473338	0.499750
C55	C	0.175298	-0.090835	-0.000258
C56	C	0.675298	0.409165	0.499742
C57	C	0.829972	0.034634	-0.000204
C58	C	1.329972	0.534634	0.499796
C59	C	0.828831	0.112138	-0.000197
C60	C	1.328831	0.612138	0.499803
C61	C	0.952151	-0.087546	-0.000252
C62	C	1.452151	0.412454	0.499748
C63	C	1.029656	-0.088687	-0.000276
C64	C	1.529656	0.411313	0.499724
C65	C	0.818997	-0.220700	-0.000236
C66	C	1.318997	0.279300	0.499764
C67	C	0.820138	-0.298204	-0.000247
C68	C	1.320138	0.201796	0.499753
N69	N	0.824461	-0.093024	0.189481
N70	N	1.324461	0.406976	0.689481
C71	C	0.891922	0.157062	-0.000209
C72	C	1.391922	0.657062	0.499791
C73	C	0.890850	0.229886	-0.000220
C74	C	1.390850	0.729886	0.499780
C75	C	0.826684	0.257782	-0.000206
C76	C	1.326684	0.757782	0.499794
C77	C	0.763585	0.212849	-0.000198
C78	C	1.263585	0.712849	0.499802
C79	C	0.764658	0.140026	-0.000194
C80	C	1.264658	0.640026	0.499806
N81	N	0.777631	0.365789	0.041244
N82	N	1.277631	0.865789	0.541244
N83	N	0.776615	0.434968	0.041242
N84	N	1.276615	0.934968	0.541242
C85	C	0.823446	0.477191	-0.000220
C86	C	1.323446	0.977191	0.499780
N87	N	0.871341	0.447624	-0.041669
N88	N	1.371341	0.947624	0.458331
N89	N	0.872359	0.378439	-0.041664
N90	N	1.372359	0.878439	0.458336
C91	C	0.825513	0.336745	-0.000210
C92	C	1.325513	0.836745	0.499790
C93	C	0.885379	0.601079	-0.000245
C94	C	1.385379	1.101079	0.499755
C95	C	0.884305	0.673904	-0.000261
C96	C	1.384305	1.173904	0.499739
C97	C	0.757038	0.656865	-0.000231
C98	C	1.257038	1.156865	0.499769
C99	C	0.758114	0.584042	-0.000222
C100	C	1.258114	1.084042	0.499778
C101	C	0.822287	0.556154	-0.000226
C102	C	1.322287	1.056154	0.499774
N103	N	0.824513	-0.093037	-0.189919
N104	N	1.324513	0.406963	0.310081
C105	C	0.872088	-0.045436	0.227785
C106	C	1.372088	0.454564	0.727785
C107	C	0.872092	-0.045433	0.304430
C108	C	1.372092	0.454567	0.804430
C109	C	0.824477	-0.093030	0.342768
C110	C	1.324477	0.406970	0.842768
C111	C	0.776841	-0.140621	0.304455
C112	C	1.276841	0.359379	0.804455
C113	C	0.776834	-0.140618	0.227812
C114	C	1.276834	0.359382	0.727812
N115	N	0.815401	-0.154837	0.463094
N116	N	1.315401	0.345163	0.963094
N117	N	0.815413	-0.154838	0.535902
N118	N	1.315413	0.345162	1.035902
C119	C	0.824496	-0.093040	0.573691
C120	C	1.324496	0.406960	1.073691
N121	N	0.833582	-0.031239	0.535920
N122	N	1.333582	0.468761	1.035920
N123	N	0.833574	-0.031240	0.463106
N124	N	1.333574	0.468760	0.963106
C125	C	0.824480	-0.093038	0.425875
C126	C	1.324480	0.406962	0.925875
C127	C	0.872131	-0.045444	0.695101
C128	C	1.372131	0.454556	1.195101
C129	C	0.872130	-0.045440	0.771748
C130	C	1.372130	0.454560	1.271748
C131	C	0.776882	-0.140634	0.771772
C132	C	1.276882	0.359366	1.271772
C133	C	0.776879	-0.140632	0.695127
C134	C	1.276879	0.359368	1.195127
C135	C	0.824507	-0.093038	0.656796
C136	C	1.324507	0.406962	1.156796
H137	H	0.464982	-0.210776	-0.000210
H138	H	0.964982	0.289224	0.499790
H139	H	0.713281	0.103448	-0.000184
H140	H	1.213281	0.603448	0.499816
O141	O	0.730531	-0.186802	0.808971
O142	O	1.230531	0.313198	1.308971
C143	C	0.609008	-0.228043	0.832437
C144	C	1.109008	0.271957	1.332437
C145	C	0.661428	-0.175710	0.790273
C146	C	1.161428	0.324290	1.290273
H147	H	0.553127	-0.219103	0.817324
H148	H	1.053127	0.280897	1.317324
H149	H	0.617131	-0.219872	0.893805
H150	H	1.117131	0.280128	1.393805
H151	H	0.617967	-0.283937	0.817357
H152	H	1.117967	0.216063	1.317357
H153	H	0.652500	-0.119795	0.805291
H154	H	1.152500	0.380205	1.305291
H155	H	0.653293	-0.183942	0.728915
H156	H	1.153293	0.316058	1.228915
H157	H	0.711340	0.235567	-0.000187
H158	H	1.211340	0.735567	0.499813
H159	H	0.738100	-0.179386	0.663938
H160	H	1.238100	0.320614	1.163938
O161	O	0.947696	0.573952	-0.000128
O162	O	1.447696	1.073952	0.499872
C163	C	1.022747	0.501608	0.062917
C164	C	1.522747	1.001608	0.562917
C165	C	0.952156	0.532292	0.062887
C166	C	1.452156	1.032292	0.562887
H167	H	1.026369	0.467907	0.113851
H168	H	1.526369	0.967907	0.613851
H169	H	1.067684	0.546203	0.062946
H170	H	1.567684	1.046203	0.562946
H171	H	1.026427	0.467956	0.011939
H172	H	1.526427	0.967956	0.511939
H173	H	0.948407	0.565936	0.113856
H174	H	1.448407	1.065936	0.613856
H175	H	0.907252	0.487663	0.062819
H176	H	1.407252	0.987663	0.562819
H177	H	0.597091	-0.212725	-0.000196
H178	H	1.097091	0.287275	0.499804
O179	O	0.918466	0.000815	0.808845
O180	O	1.418466	0.500815	1.308845
C181	C	1.012921	0.095248	0.800730
C182	C	1.512921	0.595248	1.300730
C183	C	0.960493	0.042893	0.758625
C184	C	1.460493	0.542893	1.258625
H185	H	1.046903	0.129292	0.760145
H186	H	1.546903	0.629292	1.260145
H187	H	1.047751	0.065219	0.836567
H188	H	1.547751	0.565219	1.336567
H189	H	0.982881	0.130027	0.836656
H190	H	1.482881	0.630027	1.336656
H191	H	0.990475	0.008100	0.722659
H192	H	1.490475	0.508100	1.222659
H193	H	0.925663	0.072965	0.722834
H194	H	1.425663	0.572965	1.222834
H195	H	0.935683	0.710481	-0.000274
H196	H	1.435683	1.210481	0.499726
H197	H	0.704792	0.679578	-0.000222
H198	H	1.204792	1.179578	0.499778
O199	O	0.190953	0.034689	-0.000272
O200	O	0.690953	0.534689	0.499728
C201	C	0.200166	0.161032	-0.000216
C202	C	0.700166	0.661032	0.499784
C203	C	0.150773	0.091600	-0.000212
C204	C	0.650773	0.591600	0.499788
H205	H	0.167700	0.207062	-0.000152
H206	H	0.667700	0.707062	0.499848
H207	H	0.234701	0.163756	-0.051178
H208	H	0.734701	0.663756	0.448822
H209	H	0.234671	0.163674	0.050737
H210	H	0.734671	0.663674	0.550737
H211	H	0.116224	0.088911	-0.051130
H212	H	0.616224	0.588911	0.448870
H213	H	0.116285	0.088904	0.050784
H214	H	0.616285	0.588904	0.550784
O215	O	0.696762	0.540498	-0.000169
O216	O	1.196762	1.040498	0.499831
C217	C	0.570420	0.531286	-0.000181
C218	C	1.070420	1.031286	0.499819
C219	C	0.639852	0.580679	-0.000222
C220	C	1.139852	1.080679	0.499778
H221	H	0.524390	0.563752	-0.000240
H222	H	1.024390	1.063752	0.499760
H223	H	0.567686	0.496792	0.050791
H224	H	1.067686	0.996792	0.550791
H225	H	0.567787	0.496740	-0.051123
H226	H	1.067787	0.996740	0.448877
H227	H	0.642531	0.615269	0.050685
H228	H	1.142531	1.115269	0.550685
H229	H	0.642557	0.615125	-0.051228
H230	H	1.142557	1.115125	0.448772
O231	O	0.014005	-0.214208	-0.000323
O232	O	0.514005	0.285792	0.499677
C233	C	0.004793	-0.340550	-0.000303
C234	C	0.504793	0.159450	0.499697
C235	C	0.054186	-0.271118	-0.000264
C236	C	0.554186	0.228882	0.499736
H237	H	0.037259	-0.386580	-0.000240
H238	H	0.537259	0.113420	0.499760
H239	H	-0.029687	-0.343276	-0.051277
H240	H	0.470313	0.156724	0.448723
H241	H	-0.029766	-0.343192	0.050637
H242	H	0.470234	0.156808	0.550637
H243	H	0.088789	-0.268430	-0.051170
H244	H	0.588789	0.231570	0.448830
H245	H	0.088618	-0.268421	0.050744
H246	H	0.588618	0.231579	0.550744
H247	H	0.944176	0.134360	-0.000214
H248	H	1.444176	0.634360	0.499786
O249	O	0.918373	0.000868	0.190666
O250	O	1.418373	0.500868	0.690666
C251	C	1.012874	0.095256	0.198734
C252	C	1.512874	0.595256	0.698734
C253	C	0.960485	0.042864	0.240865
C254	C	1.460485	0.542864	0.740865
H255	H	1.046945	0.129214	0.239301
H256	H	1.546945	0.629214	0.739301
H257	H	0.982873	0.130113	0.162899
H258	H	1.482873	0.630113	0.662899
H259	H	1.047622	0.065186	0.162803
H260	H	1.547622	0.565186	0.662803
H261	H	0.925724	0.072877	0.276835
H262	H	1.425724	0.572877	0.776835
H263	H	0.990530	0.008007	0.276653
H264	H	1.490530	0.508007	0.776653
O265	O	0.491474	0.030180	-0.000310
O266	O	0.991474	0.530180	0.499690
C267	C	0.419146	0.105229	-0.063381
C268	C	0.919146	0.605229	0.436619
C269	C	0.449835	0.034640	-0.063332
C270	C	0.949835	0.534640	0.436668
H271	H	0.385462	0.108852	-0.114321
H272	H	0.885462	0.608852	0.385679
H273	H	0.463739	0.150168	-0.063413
H274	H	0.963739	0.650168	0.436587
H275	H	0.385477	0.108905	-0.012409
H276	H	0.885477	0.608905	0.487591
H277	H	0.483496	0.030896	-0.114296
H278	H	0.983496	0.530896	0.385704
H279	H	0.405208	-0.010265	-0.063263
H280	H	0.905208	0.489735	0.436737
O281	O	0.952204	0.273436	-0.000197
O282	O	1.452204	0.773436	0.499803
C283	C	1.078546	0.282656	-0.000257
C284	C	1.578546	0.782656	0.499743
C285	C	1.009117	0.233259	-0.000266
C286	C	1.509117	0.733259	0.499734
H287	H	1.124579	0.250193	-0.000328
H288	H	1.624579	0.750193	0.499672
H289	H	1.081259	0.317172	0.050711
H290	H	1.581259	0.817172	0.550711
H291	H	1.081197	0.317180	-0.051203
H292	H	1.581197	0.817180	0.448797
H293	H	1.006420	0.198692	0.050646
H294	H	1.506420	0.698692	0.550646
H295	H	1.006433	0.198791	-0.051268
H296	H	1.506433	0.698791	0.448732
H297	H	0.910910	-0.006688	0.663892
H298	H	1.410910	0.493312	1.163892
H299	H	0.628003	0.018171	-0.000145
H300	H	1.128003	0.518171	0.499855
H301	H	0.910877	-0.006680	0.335623
H302	H	1.410877	0.493320	0.835623
O303	O	0.157504	-0.216243	-0.000396
O304	O	0.657504	0.283757	0.499604
C305	C	0.229907	-0.291301	-0.063440
C306	C	0.729907	0.208699	0.436560
C307	C	0.199215	-0.220713	-0.063400
C308	C	0.699215	0.279287	0.436600
H309	H	0.263649	-0.294932	-0.114365
H310	H	0.763649	0.205068	0.385635
H311	H	0.185315	-0.336242	-0.063493
H312	H	0.685315	0.163758	0.436507
H313	H	0.263518	-0.294966	-0.012453
H314	H	0.763518	0.205034	0.487547
H315	H	0.165612	-0.216980	-0.114378
H316	H	0.665612	0.283020	0.385622
H317	H	0.243840	-0.175807	-0.063308
H318	H	0.743840	0.324193	0.436692
H319	H	0.051874	0.026659	-0.000309
H320	H	0.551874	0.526659	0.499691
H321	H	0.738071	-0.179374	0.335674
H322	H	1.238071	0.320626	0.835674
O323	O	0.730543	-0.186918	0.190713
O324	O	1.230543	0.313082	0.690713
C325	C	0.636044	-0.281307	0.198825
C326	C	1.136044	0.218693	0.698825
C327	C	0.688439	-0.228920	0.240932
C328	C	1.188439	0.271080	0.740932
H329	H	0.601978	-0.315269	0.239408
H330	H	1.101978	0.184731	0.739408
H331	H	0.666040	-0.316161	0.162941
H332	H	1.166040	0.183839	0.662941
H333	H	0.601290	-0.251233	0.162946
H334	H	1.101290	0.248767	0.662946
H335	H	0.723205	-0.258936	0.276851
H336	H	1.223205	0.241064	0.776851
H337	H	0.658399	-0.194066	0.276770
H338	H	1.158399	0.305934	0.776770
