data_functionalizedCrystal
_audit_creation_method	'MofGen! by Chris Wilmer'
_symmetry_space_group_name_H-M	'P1'
_symmetry_Int_Tables_number	1
_symmetry_cell_setting	triclinic
loop_
_symmetry_equiv_pos_as_xyz
  x,y,z
_cell_length_a	19.288864
_cell_length_b	14.586319
_cell_length_c	19.288865
_cell_angle_alpha	90.009016
_cell_angle_beta	83.136245
_cell_angle_gamma	90.017348
loop_
_atom_site_label
_atom_site_type_symbol
_atom_site_fract_x
_atom_site_fract_y
_atom_site_fract_z
O1	O	0.921347	0.076545	0.086647
O2	O	1.421347	0.576545	0.586647
O3	O	0.719087	0.076483	0.098336
O4	O	1.219087	0.576483	0.598336
O5	O	0.826061	0.076498	-0.008639
O6	O	1.326061	0.576498	0.491361
O7	O	0.814373	0.076531	0.193621
O8	O	1.314373	0.576531	0.693621
O9	O	0.826054	-0.075983	-0.008641
O10	O	1.326054	0.424017	0.491359
O11	O	0.719079	-0.075997	0.098334
O12	O	1.219079	0.424003	0.598334
O13	O	0.921340	-0.075936	0.086645
O14	O	1.421340	0.424064	0.586645
Cu15	Cu	0.820209	-0.089889	0.092489
Cu16	Cu	1.320209	0.410111	0.592489
Cu17	Cu	0.820218	0.090437	0.092491
Cu18	Cu	1.320218	0.590437	0.592491
O19	O	0.814365	-0.075950	0.193620
O20	O	1.314365	0.424050	0.693620
C21	C	0.693207	0.000235	0.097959
C22	C	1.193207	0.500235	0.597959
C23	C	0.616103	0.000211	0.096830
C24	C	1.116103	0.500211	0.596830
N25	N	0.820208	-0.216721	0.092488
N26	N	1.320208	0.283279	0.592488
C27	C	0.571407	0.000235	0.159598
C28	C	1.071407	0.500235	0.659598
C29	C	0.498960	0.000245	0.158537
C30	C	0.998960	0.500245	0.658537
C31	C	0.471212	0.000249	0.094705
C32	C	0.971212	0.500249	0.594705
C33	C	0.515918	0.000219	0.031929
C34	C	1.015918	0.500219	0.531929
C35	C	0.588364	0.000200	0.032991
C36	C	1.088364	0.500200	0.532991
C37	C	0.362953	0.053693	0.044526
C38	C	0.862953	0.553693	0.544526
C39	C	0.290508	0.053717	0.043466
C40	C	0.790508	0.553717	0.543466
C41	C	0.247767	0.000304	0.091425
C42	C	0.747767	0.500304	0.591425
C43	C	0.277477	-0.053122	0.140456
C44	C	0.777477	0.446878	0.640456
C45	C	0.349922	-0.053141	0.141518
C46	C	0.849922	0.446859	0.641518
C47	C	0.392658	0.000269	0.093546
C48	C	0.892658	0.500269	0.593546
C49	C	0.124514	0.000338	0.153047
C50	C	0.624514	0.500338	0.653047
C51	C	0.052066	0.000342	0.151984
C52	C	0.552066	0.500342	0.651984
C53	C	0.069026	0.000326	0.025374
C54	C	0.569026	0.500326	0.525374
C55	C	0.141473	0.000312	0.026439
C56	C	0.641473	0.500312	0.526439
C57	C	0.169212	0.000323	0.090278
C58	C	0.669212	0.500323	0.590278
C59	C	0.867592	-0.451721	0.045135
C60	C	1.367592	0.048279	0.545135
C61	C	0.867594	-0.547702	0.045133
C62	C	1.367594	-0.047702	0.545133
C63	C	0.772835	-0.547725	0.139842
C64	C	1.272835	-0.047725	0.639842
C65	C	0.772831	-0.451745	0.139840
C66	C	1.272831	0.048255	0.639840
C67	C	0.820213	-0.403746	0.092487
C68	C	1.320213	0.096254	0.592487
C69	C	0.820220	-0.595707	0.092488
C70	C	1.320220	-0.095707	0.592488
C71	C	0.820221	-0.699774	0.092486
C72	C	1.320221	-0.199774	0.592486
C73	C	0.820210	-0.299672	0.092488
C74	C	1.320210	0.200328	0.592488
C75	C	0.947220	0.000315	0.087022
C76	C	1.447220	0.500315	0.587022
C77	C	1.024324	0.000345	0.088151
C78	C	1.524324	0.500345	0.588151
C79	C	0.825682	0.000255	-0.034516
C80	C	1.325682	0.500255	0.465484
C81	C	0.824553	0.000246	-0.111620
C82	C	1.324553	0.500246	0.388380
N83	N	0.820224	0.217269	0.092488
N84	N	1.320224	0.717269	0.592488
C85	C	0.887321	0.000261	-0.156316
C86	C	1.387321	0.500261	0.343684
C87	C	0.886260	0.000275	-0.228763
C88	C	1.386260	0.500275	0.271237
C89	C	0.822428	0.000256	-0.256511
C90	C	1.322428	0.500256	0.243489
C91	C	0.759652	0.000247	-0.211805
C92	C	1.259652	0.500247	0.288195
C93	C	0.760714	0.000242	-0.139359
C94	C	1.260714	0.500242	0.360641
C95	C	0.772246	-0.053170	-0.364799
C96	C	1.272246	0.446830	0.135201
C97	C	0.771186	-0.053171	-0.437243
C98	C	1.271186	0.446829	0.062757
C99	C	0.819148	0.000276	-0.479956
C100	C	1.319148	0.500276	0.020044
C101	C	0.868182	0.053711	-0.450218
C102	C	1.368182	0.553711	0.049782
C103	C	0.869245	0.053706	-0.377772
C104	C	1.369245	0.553706	0.122228
C105	C	0.821269	0.000262	-0.335065
C106	C	1.321269	0.500262	0.164935
C107	C	0.880770	0.000307	-0.603209
C108	C	1.380770	0.500307	-0.103209
C109	C	0.879707	0.000327	-0.675657
C110	C	1.379707	0.500327	-0.175657
C111	C	0.753097	0.000289	-0.658697
C112	C	1.253097	0.500289	-0.158697
C113	C	0.754162	0.000279	-0.586250
C114	C	1.254162	0.500279	-0.086250
C115	C	0.818000	0.000283	-0.558511
C116	C	1.318000	0.500283	-0.058511
C117	C	0.814745	0.000295	0.219497
C118	C	1.314745	0.500295	0.719497
C119	C	0.815874	0.000309	0.296601
C120	C	1.315874	0.500309	0.796601
H121	H	0.462561	0.000263	0.209652
H122	H	0.962561	0.500263	0.709652
O123	O	0.726738	-0.405093	0.185748
O124	O	1.226738	0.094907	0.685748
C125	C	0.631865	-0.296721	0.200774
C126	C	1.131865	0.203279	0.700774
C127	C	0.684011	-0.349514	0.148713
C128	C	1.184011	0.150486	0.648713
H129	H	0.597316	-0.251758	0.170853
H130	H	1.097316	0.248242	0.670853
H131	H	0.597953	-0.347469	0.234615
H132	H	1.097953	0.152531	0.734615
H133	H	0.661758	-0.251803	0.235405
H134	H	1.161758	0.248197	0.735405
H135	H	0.654174	-0.394433	0.114038
H136	H	1.154174	0.105567	0.614038
H137	H	0.717922	-0.298716	0.114921
H138	H	1.217922	0.201284	0.614921
H139	H	0.374109	-0.096646	0.181438
H140	H	0.874109	0.403354	0.681438
H141	H	0.939303	0.000267	-0.133736
H142	H	1.439303	0.500267	0.366264
H143	H	0.242677	-0.096617	0.179508
H144	H	0.742677	0.403383	0.679508
O145	O	0.693124	0.000212	-0.542927
O146	O	1.193124	0.500212	-0.042927
C147	C	0.567435	0.000228	-0.533753
C148	C	1.067435	0.500228	-0.033753
C149	C	0.636511	0.000278	-0.582895
C150	C	1.136511	0.500278	-0.082895
H151	H	0.521645	0.000301	-0.566047
H152	H	1.021645	0.500301	-0.066047
H153	H	0.564717	-0.063605	-0.499435
H154	H	1.064717	0.436395	0.000565
H155	H	0.564808	0.064021	-0.499387
H156	H	1.064808	0.564021	0.000613
H157	H	0.639184	-0.063472	-0.617305
H158	H	1.139184	0.436528	-0.117305
H159	H	0.639200	0.064153	-0.617165
H160	H	1.139200	0.564153	-0.117165
H161	H	0.906172	-0.412643	0.006577
H162	H	1.406172	0.087357	0.506577
O163	O	0.913648	-0.594406	-0.000768
O164	O	1.413648	-0.094406	0.499232
C165	C	1.008583	-0.702686	-0.015798
C166	C	1.508583	-0.202686	0.484202
C167	C	0.956454	-0.649868	0.036265
C168	C	1.456454	-0.149868	0.536265
H169	H	1.043215	-0.747525	0.014124
H170	H	1.543215	-0.247525	0.514124
H171	H	0.978746	-0.747703	-0.050413
H172	H	1.478746	-0.247703	0.449587
H173	H	1.042413	-0.651872	-0.049654
H174	H	1.542413	-0.151872	0.450346
H175	H	0.922611	-0.700616	0.070168
H176	H	1.422611	-0.200616	0.570168
H177	H	0.986334	-0.604837	0.070832
H178	H	1.486334	-0.104837	0.570832
H179	H	0.734259	-0.586815	0.178397
H180	H	1.234259	-0.086815	0.678397
O181	O	0.151350	0.000298	0.215117
O182	O	0.651350	0.500298	0.715117
C183	C	0.126884	0.000368	0.340583
C184	C	0.626884	0.500368	0.840583
C185	C	0.096402	0.000392	0.270338
C186	C	0.596402	0.500392	0.770338
H187	H	0.082474	0.000464	0.385247
H188	H	0.582474	0.500464	0.885247
H189	H	0.160331	-0.063465	0.344291
H190	H	0.660331	0.436535	0.844291
H191	H	0.160422	0.064161	0.344209
H192	H	0.660422	0.564161	0.844209
H193	H	0.062833	-0.063357	0.266665
H194	H	0.562833	0.436643	0.766665
H195	H	0.062995	0.064268	0.266660
H196	H	0.562995	0.564268	0.766660
O197	O	0.723492	-0.105098	-0.466012
O198	O	1.223492	0.394902	0.033988
C199	C	0.627419	-0.211144	-0.445499
C200	C	1.127419	0.288856	0.054501
C201	C	0.681385	-0.152360	-0.412828
C202	C	1.181385	0.347640	0.087172
H203	H	0.593370	-0.249386	-0.402517
H204	H	1.093370	0.250614	0.097483
H205	H	0.593221	-0.164965	-0.474878
H206	H	1.093221	0.335035	0.025122
H207	H	0.655752	-0.262650	-0.483303
H208	H	1.155752	0.237350	0.016697
H209	H	0.653109	-0.100848	-0.374995
H210	H	1.153109	0.399152	0.125005
H211	H	0.715580	-0.198596	-0.383492
H212	H	1.215580	0.301404	0.116508
H213	H	0.593987	0.000246	0.211580
H214	H	1.093987	0.500246	0.711580
H215	H	0.937375	0.000290	-0.265162
H216	H	1.437375	0.500290	0.234838
H217	H	0.909168	0.097216	-0.353562
H218	H	1.409168	0.597216	0.146438
H219	H	0.907237	0.097232	-0.484994
H220	H	1.407237	0.597232	0.015006
H221	H	0.932751	0.000315	-0.580622
H222	H	1.432751	0.500315	-0.080622
H223	H	0.046435	0.000386	-0.026600
H224	H	0.546435	0.500386	0.473400
H225	H	0.930822	0.000344	-0.712049
H226	H	1.430822	0.500344	-0.212049
H227	H	0.701123	0.000279	-0.681288
H228	H	1.201123	0.500279	-0.181288
H229	H	0.266324	0.097224	0.003546
H230	H	0.766324	0.597224	0.503546
H231	H	0.624756	0.000181	-0.018124
H232	H	1.124756	0.500181	0.481876
H233	H	0.015674	0.000357	0.203099
H234	H	0.515674	0.500357	0.703099
H235	H	0.493322	0.000235	-0.020044
H236	H	0.993322	0.500235	0.479956
H237	H	0.733187	-0.096697	-0.330027
H238	H	1.233187	0.403303	0.169973
O239	O	0.697689	0.000349	-0.238838
O240	O	1.197689	0.500349	0.261162
C241	C	0.623000	0.079357	-0.310746
C242	C	1.123000	0.579357	0.189254
C243	C	0.693206	0.079338	-0.280192
C244	C	1.193206	0.579338	0.219808
H245	H	0.619347	0.143222	-0.344175
H246	H	1.119347	0.643222	0.155825
H247	H	0.619322	0.015587	-0.344293
H248	H	1.119322	0.515587	0.155707
H249	H	0.578330	0.079301	-0.266341
H250	H	1.078330	0.579301	0.233659
H251	H	0.737917	0.079426	-0.324552
H252	H	1.237917	0.579426	0.175448
H253	H	0.696823	0.143102	-0.246627
H254	H	1.196823	0.643102	0.253373
O255	O	0.699674	0.000182	-0.096036
O256	O	1.199674	0.500182	0.403964
C257	C	0.573985	0.000206	-0.086859
C258	C	1.073985	0.500206	0.413141
C259	C	0.643060	0.000254	-0.136003
C260	C	1.143060	0.500254	0.363997
H261	H	0.528194	0.000283	-0.119153
H262	H	1.028194	0.500283	0.380847
H263	H	0.571265	-0.063628	-0.052543
H264	H	1.071265	0.436372	0.447457
H265	H	0.571361	0.063998	-0.052492
H266	H	1.071361	0.563998	0.447508
H267	H	0.645730	-0.063495	-0.170415
H268	H	1.145730	0.436505	0.329585
H269	H	0.645751	0.064130	-0.170272
H270	H	1.145751	0.564130	0.329728
H271	H	0.397748	0.097194	0.005471
H272	H	0.897748	0.597194	0.505471
O273	O	0.184796	0.000339	-0.034599
O274	O	0.684796	0.500339	0.465401
C275	C	0.193970	0.000269	-0.160288
C276	C	0.693970	0.500269	0.339712
C277	C	0.144828	0.000264	-0.091212
C278	C	0.644828	0.500264	0.408788
H279	H	0.161676	0.000188	-0.206078
H280	H	0.661676	0.500188	0.293922
H281	H	0.228323	0.064088	-0.163003
H282	H	0.728323	0.564088	0.336997
H283	H	0.228301	-0.063538	-0.162918
H284	H	0.728301	0.436462	0.337082
H285	H	0.110453	0.064028	-0.088536
H286	H	0.610453	0.564028	0.411464
H287	H	0.110523	-0.063597	-0.088526
H288	H	0.610523	0.436403	0.411474
