data_functionalizedCrystal
_audit_creation_method	'MofGen! by Chris Wilmer'
_symmetry_space_group_name_H-M	'P1'
_symmetry_Int_Tables_number	1
_symmetry_cell_setting	triclinic
loop_
_symmetry_equiv_pos_as_xyz
  x,y,z
_cell_length_a	12.759401
_cell_length_b	13.897447
_cell_length_c	12.759393
_cell_angle_alpha	90.032074
_cell_angle_beta	90.018496
_cell_angle_gamma	90.019691
loop_
_atom_site_label
_atom_site_type_symbol
_atom_site_fract_x
_atom_site_fract_y
_atom_site_fract_z
Zn1	Zn	1.606220	-0.383954	0.593978
Zn2	Zn	2.106220	0.116046	1.093978
Zn3	Zn	1.606100	-0.545283	0.418296
Zn4	Zn	2.106100	-0.045283	0.918296
Zn5	Zn	1.430522	-0.384004	0.418317
Zn6	Zn	1.930522	0.115996	0.918317
Zn7	Zn	1.430496	-0.545209	0.593938
Zn8	Zn	1.930496	-0.045209	1.093938
O9	O	1.518334	-0.464613	0.506132
O10	O	2.018334	0.035387	1.006132
O11	O	1.753225	-0.405365	0.570681
O12	O	2.253225	0.094635	1.070681
O13	O	1.582769	-0.523942	0.271278
O14	O	2.082769	-0.023942	0.771278
O15	O	1.453890	-0.249016	0.441644
O16	O	1.953890	0.250984	0.941644
O17	O	1.753137	-0.523893	0.441609
O18	O	2.253137	-0.023893	0.941609
O19	O	1.582975	-0.248979	0.570701
O20	O	2.082975	0.251021	1.070701
O21	O	1.453773	-0.405451	0.271293
O22	O	1.953773	0.094549	0.771293
O23	O	1.283498	-0.405379	0.441605
O24	O	1.783498	0.094621	0.941605
O25	O	1.453846	-0.523766	0.740964
O26	O	1.953846	-0.023766	1.240964
O27	O	1.283478	-0.523815	0.570633
O28	O	1.783478	-0.023815	1.070633
O29	O	1.582949	-0.405293	0.740993
O30	O	2.082949	0.094707	1.240993
O31	O	1.582744	-0.680255	0.441570
O32	O	2.082744	-0.180255	0.941570
O33	O	1.453729	-0.680201	0.570613
O34	O	1.953729	-0.180201	1.070613
C35	C	1.245367	-0.464595	0.506118
C36	C	1.745367	0.035405	1.006118
C37	C	1.128590	-0.464611	0.506137
C38	C	1.628590	0.035389	1.006137
C39	C	1.073746	-0.526379	0.573210
C40	C	1.573746	-0.026379	1.073210
C41	C	0.964022	-0.526391	0.573222
C42	C	1.464022	-0.026391	1.073222
C43	C	0.963997	-0.402864	0.439077
C44	C	1.463997	0.097136	0.939077
C45	C	1.073719	-0.402847	0.439072
C46	C	1.573719	0.097153	0.939072
C47	C	1.128618	-0.588142	0.640275
C48	C	1.628618	-0.088142	1.140275
C49	C	1.073773	-0.649917	0.707354
C50	C	1.573773	-0.149917	1.207354
C51	C	0.964049	-0.649929	0.707365
C52	C	1.464049	-0.149929	1.207365
C53	C	0.909170	-0.588167	0.640298
C54	C	1.409170	-0.088167	1.140298
C55	C	1.518249	-0.715227	0.506108
C56	C	2.018249	-0.215227	1.006108
C57	C	1.518309	-0.822441	0.506132
C58	C	2.018309	-0.322441	1.006132
C59	C	1.518359	-0.909511	0.506156
C60	C	2.018359	-0.409511	1.006156
C61	C	1.518433	-1.018743	0.506183
C62	C	2.018433	-0.518743	1.006183
C63	C	1.792368	-0.464631	0.506147
C64	C	2.292368	0.035369	1.006147
C65	C	1.909144	-0.464639	0.506153
C66	C	2.409144	0.035361	1.006153
C67	C	1.518408	-0.464515	0.780166
C68	C	2.018408	0.035485	1.280166
C69	C	1.518439	-0.464474	0.896942
C70	C	2.018439	0.035526	1.396942
C71	C	1.518449	-0.213020	0.506180
C72	C	2.018449	0.286980	1.006180
C73	C	1.518498	-0.105806	0.506200
C74	C	2.018498	0.394194	1.006200
C75	C	1.518322	-0.464640	0.233165
C76	C	2.018322	0.035360	0.733165
C77	C	1.518494	-0.464410	0.116389
C78	C	2.018494	0.035590	0.616389
C79	C	1.585673	-0.402779	0.951821
C80	C	2.085673	0.097221	1.451821
C81	C	1.585698	-0.402744	1.061546
C82	C	2.085698	0.097256	1.561546
C83	C	1.451253	-0.526107	1.061502
C84	C	1.951253	-0.026107	1.561502
C85	C	1.451223	-0.526137	0.951780
C86	C	1.951223	-0.026137	1.451780
C87	C	1.652889	-0.341116	0.896984
C88	C	2.152889	0.158884	1.396984
C89	C	1.720129	-0.279417	0.951863
C90	C	2.220129	0.220583	1.451863
C91	C	1.720154	-0.279382	1.061587
C92	C	2.220154	0.220618	1.561587
C93	C	1.652939	-0.341046	1.116432
C94	C	2.152939	0.158954	1.616432
H95	H	1.217961	-0.588141	0.640272
H96	H	1.717961	-0.088141	1.140272
C97	C	1.134142	-0.717849	0.781125
C98	C	1.634142	-0.217849	1.281125
N99	N	1.179611	-0.769019	0.836689
N100	N	1.679611	-0.269019	1.336689
H101	H	1.774896	-0.229136	1.106267
H102	H	2.274896	0.270864	1.606267
H103	H	1.652953	-0.341002	1.205777
H104	H	2.152953	0.158998	1.705777
H105	H	1.396529	-0.576311	1.106165
H106	H	1.896529	-0.076311	1.606165
H107	H	0.919397	-0.700221	0.761991
H108	H	1.419397	-0.200221	1.261991
C109	C	0.788469	-0.588183	0.640316
C110	C	1.288469	-0.088183	1.140316
N111	N	0.697559	-0.588201	0.640325
N112	N	1.197559	-0.088201	1.140325
C113	C	1.134051	-0.334902	0.365284
C114	C	1.634051	0.165098	0.865284
N115	N	1.179494	-0.283722	0.309706
N116	N	1.679494	0.216278	0.809706
H117	H	0.919305	-0.352581	0.384473
H118	H	1.419305	0.147419	0.884473
H119	H	1.774846	-0.229206	0.907201
H120	H	2.274846	0.270794	1.407201
H121	H	1.396460	-0.576359	0.907096
H122	H	1.896460	-0.076359	1.407096
H123	H	1.652879	-0.341139	0.807641
H124	H	2.152879	0.158861	1.307641
