data_functionalizedCrystal
_audit_creation_method	'MofGen! by Chris Wilmer'
_symmetry_space_group_name_H-M	'P1'
_symmetry_Int_Tables_number	1
_symmetry_cell_setting	triclinic
loop_
_symmetry_equiv_pos_as_xyz
  x,y,z
_cell_length_a	19.077105
_cell_length_b	18.050589
_cell_length_c	19.077314
_cell_angle_alpha	87.678811
_cell_angle_beta	89.892247
_cell_angle_gamma	87.724731
loop_
_atom_site_label
_atom_site_type_symbol
_atom_site_fract_x
_atom_site_fract_y
_atom_site_fract_z
Zn1	Zn	1.058259	-0.321949	-0.440443
Zn2	Zn	1.558259	0.178051	0.059557
Zn3	Zn	1.062888	-0.451316	-0.322942
Zn4	Zn	1.562888	0.048684	0.177058
Zn5	Zn	0.945474	-0.322359	-0.318235
Zn6	Zn	1.445474	0.177641	0.181765
Zn7	Zn	0.940713	-0.441311	-0.435696
Zn8	Zn	1.440713	0.058689	0.064304
O9	O	1.001834	-0.384234	-0.379329
O10	O	1.501834	0.115766	0.120671
O11	O	1.157205	-0.343125	-0.428814
O12	O	1.657205	0.156875	0.071186
O13	O	1.051243	-0.438569	-0.223985
O14	O	1.551243	0.061431	0.276015
O15	O	0.960491	-0.218381	-0.334463
O16	O	1.460491	0.281619	0.165537
O17	O	1.160606	-0.438171	-0.342486
O18	O	1.660606	0.061829	0.157514
O19	O	1.043353	-0.218080	-0.424249
O20	O	1.543353	0.281920	0.075751
O21	O	0.964979	-0.343824	-0.220527
O22	O	1.464979	0.156176	0.279473
O23	O	0.846511	-0.334122	-0.329860
O24	O	1.346511	0.165878	0.170140
O25	O	0.952376	-0.421119	-0.534658
O26	O	1.452376	0.078881	-0.034658
O27	O	0.843013	-0.421516	-0.416158
O28	O	1.343013	0.078484	0.083842
O29	O	1.038736	-0.333424	-0.538146
O30	O	1.538736	0.166576	-0.038146
O31	O	1.046626	-0.553912	-0.337882
O32	O	1.546626	-0.053912	0.162118
O33	O	0.956864	-0.546562	-0.420722
O34	O	1.456864	-0.046562	0.079278
C35	C	0.819266	-0.376779	-0.371983
C36	C	1.319266	0.123221	0.128017
C37	C	0.741162	-0.373607	-0.368857
C38	C	1.241162	0.126393	0.131143
C39	C	0.702668	-0.417692	-0.412249
C40	C	1.202668	0.082308	0.087751
C41	C	0.629281	-0.414702	-0.409315
C42	C	1.129281	0.085298	0.090685
C43	C	0.594389	-0.367629	-0.362985
C44	C	1.094389	0.132371	0.137015
C45	C	0.632887	-0.323538	-0.319592
C46	C	1.132887	0.176462	0.180408
C47	C	0.706273	-0.326525	-0.322530
C48	C	1.206273	0.173475	0.177470
C49	C	0.375102	-0.353804	-0.349392
C50	C	0.875102	0.146196	0.150608
C51	C	0.301711	-0.350822	-0.346456
C52	C	0.801711	0.149178	0.153544
C53	C	0.298110	-0.441985	-0.436180
C54	C	0.798110	0.058015	0.063820
C55	C	0.371497	-0.444971	-0.439111
C56	C	0.871497	0.055029	0.060889
C57	C	0.409989	-0.400878	-0.395720
C58	C	0.909989	0.099122	0.104280
N59	N	0.519375	-0.364573	-0.359984
N60	N	1.019375	0.135427	0.140016
N61	N	0.485001	-0.403931	-0.398725
N62	N	0.985001	0.096069	0.101275
C63	C	1.001749	-0.577183	-0.379314
C64	C	1.501749	-0.077183	0.120686
C65	C	1.001776	-0.659729	-0.379334
C66	C	1.501776	-0.159729	0.120666
C67	C	0.953011	-0.855212	-0.424367
C68	C	1.453011	-0.355212	0.075633
C69	C	0.938459	-0.906779	-0.359560
C70	C	1.438459	-0.406779	0.140440
C71	C	1.001845	-0.810862	-0.379346
C72	C	1.501845	-0.310862	0.120654
C73	C	1.016431	-0.906378	-0.444162
C74	C	1.516431	-0.406378	0.055838
C75	C	1.001910	-0.956849	-0.379363
C76	C	1.501910	-0.456849	0.120637
C77	C	0.987261	-0.861342	-0.314503
C78	C	1.487261	-0.361342	0.185497
C79	C	1.065261	-0.860935	-0.399149
C80	C	1.565261	-0.360935	0.100851
C81	C	1.050735	-0.912483	-0.334299
C82	C	1.550735	-0.412483	0.165701
C83	C	1.001806	-0.726762	-0.379337
C84	C	1.501806	-0.226762	0.120663
C85	C	1.001949	-1.040947	-0.379365
C86	C	1.501949	-0.540947	0.120635
C87	C	1.185114	-0.391718	-0.386704
C88	C	1.685114	0.108282	0.113296
C89	C	1.263218	-0.394908	-0.389847
C90	C	1.763218	0.105092	0.110153
C91	C	0.994509	-0.376110	-0.562612
C92	C	1.494509	0.123890	-0.062612
C93	C	0.991387	-0.372648	-0.640716
C94	C	1.491387	0.127352	-0.140716
C95	C	1.001937	-0.190531	-0.379360
C96	C	1.501937	0.309469	0.120640
C97	C	1.001981	-0.107987	-0.379374
C98	C	1.501981	0.392013	0.120626
C99	C	1.034830	-0.420347	-0.679213
C100	C	1.534830	0.079653	-0.179213
C101	C	1.031897	-0.417085	-0.752600
C102	C	1.531897	0.082915	-0.252600
C103	C	0.985517	-0.366127	-0.787489
C104	C	1.485517	0.133873	-0.287489
C105	C	0.942072	-0.318422	-0.748987
C106	C	1.442072	0.181578	-0.248987
C107	C	0.945009	-0.321681	-0.675601
C108	C	1.445009	0.178319	-0.175601
C109	C	0.971920	-0.351087	-1.006775
C110	C	1.471920	0.148913	-0.506775
C111	C	0.968985	-0.347833	-1.080166
C112	C	1.468985	0.152167	-0.580166
C113	C	1.058811	-0.446496	-1.083774
C114	C	1.558811	0.053504	-0.583774
C115	C	1.061741	-0.449753	-1.010387
C116	C	1.561741	0.050247	-0.510387
C117	C	1.018299	-0.402046	-0.971891
C118	C	1.518299	0.097954	-0.471891
N119	N	0.982516	-0.362793	-0.862502
N120	N	1.482516	0.137207	-0.362502
N121	N	1.021304	-0.405377	-0.896879
N122	N	1.521304	0.094623	-0.396879
C123	C	1.009170	-0.392274	-0.196761
C124	C	1.509170	0.107726	0.303239
C125	C	1.012428	-0.395533	-0.118663
C126	C	1.512428	0.104467	0.381337
H127	H	0.597943	-0.450602	-0.444648
H128	H	1.097943	0.049398	0.055352
F129	F	0.257139	-0.488911	-0.482355
F130	F	0.757139	0.011089	0.017645
F131	F	0.892715	-0.264185	-0.786120
F132	F	1.392715	0.235815	-0.286120
F133	F	0.595750	-0.273434	-0.270289
F134	F	1.095750	0.226566	0.229711
H135	H	1.094180	-0.485335	-1.115125
H136	H	1.594180	0.014665	-0.615125
F137	F	1.135301	-0.834512	-0.421063
F138	F	1.635301	-0.334512	0.078937
H139	H	0.884861	-0.926994	-0.342824
H140	H	1.384861	-0.426994	0.157176
H141	H	1.028742	-0.926230	-0.498970
H142	H	1.528742	-0.426230	0.001030
H143	H	0.737614	-0.290622	-0.287199
H144	H	1.237614	0.209378	0.212801
H145	H	0.936544	-0.312244	-0.975441
H146	H	1.436544	0.187756	-0.475441
H147	H	1.067273	-0.455927	-0.783941
H148	H	1.567273	0.044073	-0.283941
F149	F	0.264578	-0.300723	-0.297139
F150	F	0.764578	0.199277	0.202861
H151	H	0.931219	-0.306331	-1.108570
H152	H	1.431219	0.193669	-0.608570
H153	H	0.406434	-0.317906	-0.314054
H154	H	0.906434	0.182094	0.185946
H155	H	0.974888	-0.841577	-0.259678
H156	H	1.474888	-0.341577	0.240322
F157	F	0.898961	-0.822512	-0.474057
F158	F	1.398961	-0.322512	0.025943
H159	H	1.072600	-0.461841	-0.650812
H160	H	1.572600	0.038159	-0.150812
H161	H	1.099497	-0.491260	-0.981985
H162	H	1.599497	0.008740	-0.481985
H163	H	0.909636	-0.282837	-0.644258
H164	H	1.409636	0.217163	-0.144258
H165	H	0.731072	-0.456027	-0.449973
H166	H	1.231072	0.043973	0.050027
F167	F	0.408627	-0.495075	-0.488419
F168	F	0.908627	0.004925	0.011581
H169	H	1.092063	-0.937365	-0.296187
H170	H	1.592063	-0.437365	0.203813
