data_functionalizedCrystal
_audit_creation_method	'MofGen! by Chris Wilmer'
_symmetry_space_group_name_H-M	'P1'
_symmetry_Int_Tables_number	1
_symmetry_cell_setting	triclinic
loop_
_symmetry_equiv_pos_as_xyz
  x,y,z
_cell_length_a	21.295417
_cell_length_b	15.298068
_cell_length_c	15.296720
_cell_angle_alpha	88.354818
_cell_angle_beta	99.638166
_cell_angle_gamma	99.689184
loop_
_atom_site_label
_atom_site_type_symbol
_atom_site_fract_x
_atom_site_fract_y
_atom_site_fract_z
Zn1	Zn	-0.187264	1.253346	-0.727332
Zn2	Zn	0.312736	1.753346	-0.227332
Zn3	Zn	-0.271807	1.278593	-0.580848
Zn4	Zn	0.228193	1.778593	-0.080848
Zn5	Zn	-0.181147	1.132227	-0.555499
Zn6	Zn	0.318853	1.632227	-0.055499
Zn7	Zn	-0.307096	1.106816	-0.701865
Zn8	Zn	0.192904	1.606816	-0.201865
O9	O	-0.236829	1.192745	-0.641386
O10	O	0.263171	1.692745	-0.141386
O11	O	-0.186270	1.379273	-0.729166
O12	O	0.313730	1.879273	-0.229166
O13	O	-0.242452	1.280378	-0.454927
O14	O	0.257548	1.780378	0.045073
O15	O	-0.093867	1.148362	-0.578343
O16	O	0.406133	1.648362	-0.078343
O17	O	-0.248383	1.397822	-0.621545
O18	O	0.251617	1.897822	-0.121545
O19	O	-0.098361	1.237347	-0.704587
O20	O	0.401639	1.737347	-0.204587
O21	O	-0.175845	1.172843	-0.436303
O22	O	0.324155	1.672843	0.063697
O23	O	-0.210064	1.006278	-0.553649
O24	O	0.289936	1.506278	-0.053649
O25	O	-0.308529	1.105053	-0.827802
O26	O	0.191471	1.605053	-0.327802
O27	O	-0.302598	0.987609	-0.661183
O28	O	0.197402	1.487609	-0.161183
O29	O	-0.220489	1.212708	-0.846512
O30	O	0.279511	1.712708	-0.346512
O31	O	-0.364580	1.255738	-0.596852
O32	O	0.135420	1.755738	-0.096852
O33	O	-0.390507	1.129534	-0.685763
O34	O	0.109493	1.629534	-0.185763
C35	C	-0.259497	0.965160	-0.601902
C36	C	0.240503	1.465160	-0.101902
C37	C	-0.269213	0.867795	-0.585032
C38	C	0.230787	1.367795	-0.085032
C39	C	-0.167546	0.554648	-0.761963
C40	C	0.332454	1.054648	-0.261963
C41	C	-0.158420	0.646127	-0.777819
C42	C	0.341580	1.146127	-0.277819
C43	C	-0.186117	0.701549	-0.729623
C44	C	0.313883	1.201549	-0.229623
C45	C	-0.222943	0.665482	-0.665570
C46	C	0.277057	1.165482	-0.165570
C47	C	-0.232074	0.573993	-0.649718
C48	C	0.267926	1.073993	-0.149718
C49	C	-0.250645	0.720894	-0.617378
C50	C	0.249355	1.220894	-0.117378
C51	C	-0.287470	0.684827	-0.553324
C52	C	0.212530	1.184827	-0.053324
C53	C	-0.296599	0.593347	-0.537474
C54	C	0.203401	1.093347	-0.037474
C55	C	-0.268902	0.537926	-0.585670
C56	C	0.231098	1.037926	-0.085670
C57	C	-0.241514	0.812382	-0.633230
C58	C	0.258486	1.312382	-0.133230
C59	C	-0.306041	0.831727	-0.520984
C60	C	0.193959	1.331727	-0.020984
C61	C	-0.315167	0.740248	-0.505129
C62	C	0.184833	1.240248	-0.005129
C63	C	-0.400385	1.192639	-0.641318
C64	C	0.099615	1.692639	-0.141318
C65	C	-0.470351	1.192669	-0.641331
C66	C	0.029649	1.692669	-0.141331
C67	C	-0.489700	1.258423	-0.595102
C68	C	0.010300	1.758423	-0.095102
C69	C	-0.555441	1.258460	-0.595128
C70	C	-0.055441	1.758460	-0.095128
C71	C	-0.601831	1.192730	-0.641373
C72	C	-0.101831	1.692730	-0.141373
C73	C	-0.582477	1.126970	-0.687613
C74	C	-0.082477	1.626970	-0.187613
C75	C	-0.516736	1.126939	-0.687592
C76	C	-0.016736	1.626939	-0.187592
N77	N	-0.713679	1.114946	-0.634756
N78	N	-0.213679	1.614946	-0.134756
N79	N	-0.776128	1.114978	-0.634771
N80	N	-0.276128	1.614978	-0.134771
C81	C	-0.799903	1.192819	-0.641440
C82	C	-0.299903	1.692819	-0.141440
N83	N	-0.758867	1.270631	-0.648077
N84	N	-0.258867	1.770631	-0.148077
N85	N	-0.696411	1.270598	-0.648058
N86	N	-0.196411	1.770598	-0.148058
C87	C	-0.673117	1.192756	-0.641401
C88	C	-0.173117	1.692756	-0.141401
C89	C	-0.890535	1.258619	-0.595237
C90	C	-0.390535	1.758619	-0.095237
C91	C	-0.956278	1.258657	-0.595271
C92	C	-0.456278	1.758657	-0.095271
C93	C	-0.983313	1.127160	-0.687750
C94	C	-0.483313	1.627160	-0.187750
C95	C	-0.917571	1.127129	-0.687722
C96	C	-0.417571	1.627129	-0.187722
C97	C	-0.871185	1.192858	-0.641461
C98	C	-0.371185	1.692858	-0.141461
C99	C	-0.072634	1.192873	-0.641478
C100	C	0.427366	1.692873	-0.141478
C101	C	-0.002664	1.192927	-0.641517
C102	C	0.497336	1.692927	-0.141517
C103	C	-0.269128	1.153230	-0.869824
C104	C	0.230872	1.653230	-0.369824
C105	C	-0.282892	1.136390	-0.967170
C106	C	0.217108	1.636390	-0.467170
C107	C	-0.214072	1.421219	-0.681024
C108	C	0.285928	1.921219	-0.181024
C109	C	-0.204375	1.518581	-0.697916
C110	C	0.295625	2.018581	-0.197916
C111	C	-0.138342	1.313131	-1.280540
C112	C	0.361658	1.813131	-0.780540
C113	C	-0.125411	1.328958	-1.189079
C114	C	0.374589	1.828958	-0.689079
C115	C	-0.164779	1.280817	-1.133598
C116	C	0.335221	1.780817	-0.633598
C117	C	-0.217082	1.216847	-1.169586
C118	C	0.282918	1.716847	-0.669586
C119	C	-0.230018	1.201024	-1.261056
C120	C	0.269982	1.701024	-0.761056
C121	C	-0.256456	1.168710	-1.114114
C122	C	0.243544	1.668710	-0.614114
C123	C	-0.308759	1.104740	-1.150102
C124	C	0.191241	1.604740	-0.650102
C125	C	-0.321692	1.088919	-1.241564
C126	C	0.178308	1.588919	-0.741564
C127	C	-0.282323	1.137060	-1.297045
C128	C	0.217677	1.637060	-0.797045
C129	C	-0.243520	1.184534	-1.022643
C130	C	0.256480	1.684534	-0.522643
C131	C	-0.335196	1.072426	-1.003159
C132	C	0.164804	1.572426	-0.503159
C133	C	-0.348128	1.056600	-1.094620
C134	C	0.151872	1.556600	-0.594620
C135	C	-0.204605	1.232158	-0.413846
C136	C	0.295395	1.732158	0.086154
C137	C	-0.190647	1.249167	-0.316529
C138	C	0.309353	1.749167	0.183471
H139	H	-0.211529	0.841739	-0.685382
H140	H	0.288471	1.341739	-0.185382
H141	H	-0.451934	1.311945	-0.557436
H142	H	0.048066	1.811945	-0.057436
H143	H	-0.276335	0.463435	-0.572769
H144	H	0.223665	0.963435	-0.072769
C145	C	-0.576730	1.330794	-0.544264
C146	C	-0.076730	1.830794	-0.044264
N147	N	-0.592762	1.385274	-0.505951
N148	N	-0.092762	1.885274	-0.005951
C149	C	-0.896288	1.054808	-0.738600
C150	C	-0.396288	1.554808	-0.238600
N151	N	-0.880259	1.000340	-0.776936
N152	N	-0.380259	1.500340	-0.276936
C153	C	-0.137075	0.493682	-0.814959
C154	C	0.362925	0.993682	-0.314959
N155	N	-0.114117	0.447762	-0.854875
N156	N	0.385883	0.947762	-0.354875
C157	C	-0.337108	0.553677	-0.467013
C158	C	0.162892	1.053677	0.032987
N159	N	-0.367617	0.523800	-0.413939
N160	N	0.132383	1.023800	0.086061
H161	H	-0.345151	0.710870	-0.452976
H162	H	0.154849	1.210870	0.047024
H163	H	-0.972029	1.312208	-0.557627
H164	H	-0.472029	1.812208	-0.057627
H165	H	-0.390713	1.004514	-1.123934
H166	H	0.109287	1.504514	-0.623934
C167	C	-0.378504	1.019466	-0.942132
C168	C	0.121496	1.519466	-0.442132
N169	N	-0.411121	0.979581	-0.896162
N170	N	0.088879	1.479581	-0.396162
H171	H	-0.328598	0.876851	-0.481744
H172	H	0.171402	1.376851	0.018256
H173	H	-0.106297	1.352325	-1.325722
H174	H	0.393703	1.852325	-0.825722
H175	H	-0.620252	1.073453	-0.725268
H176	H	-0.120252	1.573453	-0.225268
H177	H	-0.500984	1.073393	-0.725239
H178	H	-0.000984	1.573393	-0.225239
H179	H	-0.128440	0.675485	-0.829974
H180	H	0.371560	1.175485	-0.329974
H181	H	-0.292849	1.124177	-1.371521
H182	H	0.207151	1.624177	-0.871521
C183	C	-0.185984	1.254893	-0.983066
C184	C	0.314016	1.754893	-0.483066
N185	N	-0.142643	1.307890	-0.953258
N186	N	0.357357	1.807890	-0.453258
C187	C	-0.839509	1.330933	-0.544365
C188	C	-0.339509	1.830933	-0.044365
N189	N	-0.801078	1.385403	-0.506051
N190	N	-0.301078	1.885403	-0.006051
C191	C	-1.034339	1.054857	-0.738622
C192	C	-0.534339	1.554857	-0.238622
N193	N	-1.072775	1.000397	-0.776942
N194	N	-0.572775	1.500397	-0.276942
C195	C	-0.067874	1.399315	-1.149498
C196	C	0.432126	1.899315	-0.649498
N197	N	-0.024533	1.452308	-1.119685
N198	N	0.475467	1.952308	-0.619685
C199	C	-0.379229	1.018554	-1.281148
C200	C	0.120771	1.518554	-0.781148
N201	N	-0.422565	0.965553	-1.310961
N202	N	0.077435	1.465553	-0.810961
H203	H	-0.178682	0.776035	-0.742534
H204	H	0.321318	1.276035	-0.242534
H205	H	-0.154248	1.293707	-1.059127
H206	H	0.345752	1.793707	-0.559127
