data_functionalizedCrystal
_audit_creation_method	'MofGen! by Chris Wilmer'
_symmetry_space_group_name_H-M	'P1'
_symmetry_Int_Tables_number	1
_symmetry_cell_setting	triclinic
loop_
_symmetry_equiv_pos_as_xyz
  x,y,z
_cell_length_a	13.339070
_cell_length_b	10.540539
_cell_length_c	12.376457
_cell_angle_alpha	101.393660
_cell_angle_beta	75.589755
_cell_angle_gamma	100.077393
loop_
_atom_site_label
_atom_site_type_symbol
_atom_site_fract_x
_atom_site_fract_y
_atom_site_fract_z
O1	O	1.366170	0.620442	-0.094026
O2	O	1.071037	0.536703	-0.094022
O3	O	1.225337	0.396162	-0.094023
O4	O	1.211871	0.760984	-0.094026
O5	O	1.186775	0.431235	0.093989
O6	O	1.032476	0.571777	0.093990
O7	O	1.327609	0.655516	0.093986
Zn8	Zn	1.173920	0.619215	0.123839
Zn9	Zn	1.224726	0.573004	-0.123875
O10	O	1.173309	0.796058	0.093987
C11	C	1.013965	0.540095	-0.000016
C12	C	0.901358	0.497931	-0.000014
C13	C	0.538938	0.825771	-0.000035
C14	C	0.644738	0.865389	-0.000040
C15	C	0.708898	0.773528	-0.000033
C16	C	0.667248	0.642042	-0.000022
C17	C	0.561440	0.602418	-0.000026
C18	C	0.731400	0.550175	-0.000024
C19	C	0.689750	0.418690	-0.000014
C20	C	0.583951	0.379073	-0.000017
C21	C	0.519791	0.470934	-0.000024
C22	C	0.837208	0.589799	-0.000020
C23	C	0.859710	0.366447	-0.000012
C24	C	0.753910	0.326829	-0.000007
C25	C	1.205046	0.366051	-0.000019
C26	C	1.202026	0.224072	-0.000025
C27	C	1.086335	0.001104	-0.000445
C28	C	1.089311	0.148845	-0.000022
C29	C	1.234249	0.200932	0.107338
C30	C	1.230384	0.053093	0.107429
C31	C	1.276528	0.013471	-0.106376
C32	C	1.277857	0.160541	-0.107796
C33	C	1.384681	0.652124	-0.000023
C34	C	1.497290	0.694286	-0.000032
C35	C	1.193600	0.826168	-0.000020
C36	C	1.196622	0.968146	-0.000021
N37	N	1.139253	0.650755	0.292897
N38	N	1.259401	0.541457	-0.292934
C39	C	1.339873	0.468218	0.647881
C40	C	1.364130	0.446141	0.529541
C41	C	1.307913	0.497292	0.470375
C42	C	1.227434	0.570525	0.529559
C43	C	1.203180	0.592613	0.647911
C44	C	1.171220	0.621687	0.470404
C45	C	1.090741	0.694920	0.529589
C46	C	1.066490	0.717003	0.647929
C47	C	1.122707	0.665852	0.707096
C48	C	1.195474	0.599599	0.352053
C49	C	1.058781	0.723994	0.352082
C50	C	1.034523	0.746071	0.470422
H51	H	1.062415	0.162543	-0.076985
H52	H	1.385643	0.426586	0.696063
H53	H	1.013005	0.765649	0.303909
N54	N	1.332675	0.474761	0.349494
N55	N	1.360970	0.569144	0.296665
H56	H	1.378457	0.553227	0.211288
H57	H	1.429656	0.386518	0.481358
H58	H	1.316205	0.252244	0.111329
H59	H	1.173835	0.026201	0.187687
H60	H	1.180182	0.245593	0.187236
N61	N	1.097935	0.688381	0.827981
N62	N	1.148132	0.642689	0.880787
H63	H	1.130638	0.658597	0.966164
H64	H	1.026288	-0.029936	0.076117
H65	H	1.000967	0.776645	0.696117
N66	N	0.952319	0.820866	0.530901
N67	N	0.930676	0.840568	0.636565
H68	H	0.872618	0.893391	0.679281
H69	H	1.261000	0.539974	0.303875
H70	H	0.871108	0.696856	-0.000025
N71	N	0.711342	0.192529	0.000009
N72	N	0.616873	0.157178	0.000011
H73	H	0.586806	0.062330	0.000024
N74	N	0.816963	0.814020	-0.000016
N75	N	0.842895	0.896356	0.079237
H76	H	0.919218	0.924963	0.079255
N77	N	0.687269	0.999694	-0.000018
N78	N	0.727533	1.061505	0.079240
H79	H	0.757569	1.156367	0.079261
N80	N	0.925252	0.272618	-0.000013
N81	N	1.019716	0.308010	-0.000010
H82	H	1.066013	0.241750	-0.000014
H83	H	0.486692	0.900547	-0.000050
N84	N	1.378858	-0.011108	-0.107311
N85	N	1.451519	0.081319	-0.104625
H86	H	1.523788	0.063960	-0.105281
N87	N	1.050301	-0.071825	-0.097041
N88	N	1.105475	-0.148950	-0.166699
H89	H	1.080029	-0.200462	-0.234926
H90	H	1.256738	-0.045697	-0.187751
N91	N	0.411712	0.430471	-0.000005
N92	N	0.343209	0.477431	0.079248
H93	H	0.266876	0.448859	0.079261
N94	N	0.541425	0.244760	-0.000003
N95	N	0.544524	0.189203	0.079254
H96	H	0.514494	0.094343	0.079266
N97	N	1.015555	0.200882	0.096692
N98	N	0.961725	0.128071	0.164094
H99	H	0.909633	0.164821	0.232405
H100	H	1.310448	0.033663	0.112299
H101	H	1.254458	0.173055	-0.187220
N102	N	1.382610	0.224573	-0.115935
N103	N	1.403175	0.318486	-0.042106
H104	H	1.477159	0.363717	-0.047849
