data_functionalizedCrystal
_audit_creation_method	'MofGen! by Chris Wilmer'
_symmetry_space_group_name_H-M	'P1'
_symmetry_Int_Tables_number	1
_symmetry_cell_setting	triclinic
loop_
_symmetry_equiv_pos_as_xyz
  x,y,z
_cell_length_a	12.759401
_cell_length_b	16.120484
_cell_length_c	12.759393
_cell_angle_alpha	87.135992
_cell_angle_beta	90.019676
_cell_angle_gamma	92.925831
loop_
_atom_site_label
_atom_site_type_symbol
_atom_site_fract_x
_atom_site_fract_y
_atom_site_fract_z
Zn1	Zn	1.584983	-0.331856	0.615149
Zn2	Zn	1.575931	-0.471292	0.448362
Zn3	Zn	1.409279	-0.331898	0.439491
Zn4	Zn	1.400335	-0.471231	0.623999
O5	O	1.492632	-0.401569	0.531750
O6	O	1.730803	-0.350361	0.593033
O7	O	1.553780	-0.452844	0.300167
O8	O	1.440118	-0.215227	0.455376
O9	O	1.724153	-0.452803	0.470496
O10	O	1.569207	-0.215196	0.584432
O11	O	1.431341	-0.350432	0.293649
O12	O	1.261072	-0.350373	0.463958
O13	O	1.424874	-0.452699	0.769844
O14	O	1.254501	-0.452740	0.599515
O15	O	1.560534	-0.350302	0.763342
O16	O	1.545107	-0.587949	0.479077
O17	O	1.416097	-0.587904	0.608117
C18	C	1.219666	-0.401555	0.531735
C19	C	1.102888	-0.401569	0.531754
C20	C	1.051483	-0.348323	0.595669
C21	C	0.941759	-0.348332	0.595677
C22	C	0.934853	-0.454838	0.467851
C23	C	1.044576	-0.454825	0.467839
C24	C	0.798141	-0.250063	0.627178
C25	C	0.746733	-0.196825	0.691110
C26	C	0.783206	-0.184119	0.792838
C27	C	0.871086	-0.224662	0.830656
C28	C	0.922489	-0.277907	0.766730
C29	C	0.886018	-0.290597	0.664986
C30	C	1.188195	-0.553095	0.436349
C31	C	1.239599	-0.606344	0.372427
C32	C	1.203128	-0.619059	0.270698
C33	C	1.115243	-0.578530	0.232885
C34	C	1.063839	-0.525281	0.296806
C35	C	1.100318	-0.512564	0.398535
C36	C	1.478678	-0.618176	0.545543
C37	C	1.472804	-0.710842	0.551478
C38	C	1.462086	-0.880503	0.562337
C39	C	1.523366	-0.921795	0.501181
C40	C	1.517403	-1.016200	0.507223
C41	C	1.468048	-0.786089	0.556297
C42	C	1.766664	-0.401584	0.531767
C43	C	1.883441	-0.401591	0.531774
C44	C	1.492716	-0.401489	0.805779
C45	C	1.492751	-0.401455	0.922553
C46	C	1.506670	-0.184116	0.517927
C47	C	1.512652	-0.091450	0.512036
C48	C	1.492613	-0.401589	0.258784
C49	C	1.492796	-0.401388	0.141995
C50	C	1.563395	-0.348128	0.974031
C51	C	1.563415	-0.348092	1.083753
C52	C	1.422144	-0.454717	1.090510
C53	C	1.422120	-0.454748	0.980790
C54	C	1.607336	-0.249730	1.227457
C55	C	1.677996	-0.196410	1.278938
C56	C	1.781328	-0.183627	1.242530
C57	C	1.814021	-0.224176	1.154642
C58	C	1.743367	-0.277502	1.103166
C59	C	1.640020	-0.290269	1.139572
C60	C	1.378210	-0.553112	0.837084
C61	C	1.307560	-0.606443	0.785607
C62	C	1.204225	-0.619234	0.822014
C63	C	1.171535	-0.578699	0.909907
C64	C	1.242185	-0.525369	0.961384
C65	C	1.345519	-0.512576	0.924969
H66	H	0.900769	-0.214319	0.913498
C67	C	1.385155	-0.928527	0.639183
N68	N	1.327206	-0.964708	0.697058
H69	H	0.675180	-0.163814	0.660309
H70	H	1.651367	-0.163395	1.350497
C71	C	1.859049	-0.124969	1.299159
N72	N	1.917583	-0.080782	1.341812
H73	H	0.768445	-0.260395	0.544338
H74	H	1.098958	-0.304956	0.647710
C75	C	1.600284	-0.873771	0.424311
N76	N	1.658213	-0.837595	0.366410
C77	C	1.343526	-0.651036	0.688926
N78	N	1.370615	-0.684622	0.616105
C79	C	1.491887	-0.539046	0.797029
N80	N	1.577509	-0.528457	0.766861
C81	C	1.493660	-0.263777	1.267506
N82	N	1.408038	-0.274358	1.297677
H83	H	1.620905	-0.304731	0.926617
H84	H	0.741341	-0.140770	0.844892
H85	H	1.215561	-0.492363	1.032951
C86	C	1.259675	-0.677641	0.200388
N87	N	1.302264	-0.721761	0.147429
H88	H	1.085543	-0.588887	0.150051
C89	C	1.779321	-0.322100	1.006490
N90	N	1.806403	-0.355686	0.933667
H91	H	0.887362	-0.498198	0.415815
C92	C	1.927699	-0.210115	1.114601
N93	N	2.013321	-0.199520	1.084438
H94	H	0.992278	-0.492280	0.266010
C95	C	1.344452	-0.513335	1.154581
N96	N	1.285933	-0.557488	1.202838
H97	H	1.087393	-0.589117	0.939553
H98	H	1.146705	-0.662668	0.780097
H99	H	1.311171	-0.639333	0.403217
C100	C	1.019157	-0.322498	0.808320
N101	N	1.091974	-0.356079	0.839647
C102	C	1.228323	-0.539111	0.548259
N103	N	1.258546	-0.528583	0.632550
