data_functionalizedCrystal
_audit_creation_method	'MofGen! by Chris Wilmer'
_symmetry_space_group_name_H-M	'P1'
_symmetry_Int_Tables_number	1
_symmetry_cell_setting	triclinic
loop_
_symmetry_equiv_pos_as_xyz
  x,y,z
_cell_length_a	9.065215
_cell_length_b	11.792241
_cell_length_c	7.540329
_cell_angle_alpha	89.996256
_cell_angle_beta	89.997574
_cell_angle_gamma	84.604057
loop_
_atom_site_label
_atom_site_type_symbol
_atom_site_fract_x
_atom_site_fract_y
_atom_site_fract_z
O1	O	1.958841	0.166414	-0.147463
O2	O	2.292175	0.499748	0.185870
O3	O	2.625508	0.833081	0.519204
O4	O	1.529428	0.180069	-0.147471
O5	O	1.862761	0.513402	0.185862
O6	O	2.196095	0.846736	0.519196
O7	O	1.754555	0.008129	-0.147454
O8	O	2.087889	0.341462	0.185879
O9	O	2.421222	0.674795	0.519212
O10	O	1.733714	0.338354	-0.147480
O11	O	2.067047	0.671688	0.185854
O12	O	2.400381	1.005021	0.519187
O13	O	1.754542	0.008127	0.147511
O14	O	2.087875	0.341460	0.480844
O15	O	2.421208	0.674793	0.814177
O16	O	1.529414	0.180067	0.147494
O17	O	1.862748	0.513400	0.480827
O18	O	2.196081	0.846733	0.814161
O19	O	1.958828	0.166412	0.147502
O20	O	2.292161	0.499745	0.480836
O21	O	2.625494	0.833079	0.814169
Cu22	Cu	1.744120	0.173239	0.174431
Cu23	Cu	2.077453	0.506572	0.507764
Cu24	Cu	2.410787	0.839906	0.841097
Cu25	Cu	1.744136	0.173242	-0.174400
Cu26	Cu	2.077469	0.506575	0.158934
Cu27	Cu	2.410802	0.839908	0.492267
O28	O	1.733700	0.338352	0.147486
O29	O	2.067034	0.671686	0.480819
O30	O	2.400367	1.005019	0.814152
C31	C	1.474447	0.178756	0.000011
C32	C	1.807780	0.512090	0.333344
C33	C	2.141113	0.845423	0.666677
C34	C	1.310640	0.174835	0.000008
C35	C	1.643974	0.508168	0.333341
C36	C	1.977307	0.841501	0.666675
C37	C	1.753239	-0.034171	0.000028
C38	C	2.086573	0.299163	0.333361
C39	C	2.419906	0.632496	0.666694
C40	C	1.749321	-0.160206	0.000026
C41	C	2.082654	0.173127	0.333359
C42	C	2.415988	0.506461	0.666693
C43	C	1.742116	-0.390958	-0.000004
C44	C	2.075449	-0.057625	0.333329
C45	C	2.408782	0.275709	0.666663
C46	C	1.746119	-0.262551	0.000012
C47	C	2.079452	0.070783	0.333346
C48	C	2.412786	0.404116	0.666679
C49	C	2.013809	0.167725	0.000017
C50	C	2.347142	0.501058	0.333350
C51	C	2.680476	0.834391	0.666683
C52	C	2.177615	0.171646	0.000008
C53	C	2.510949	0.504980	0.333341
C54	C	2.844282	0.838313	0.666675
C55	C	1.735016	0.380652	-0.000000
C56	C	2.068350	0.713985	0.333333
C57	C	2.401683	1.047318	0.666666
C58	C	1.738935	0.506687	-0.000010
C59	C	2.072268	0.840020	0.333323
C60	C	2.405601	1.173354	0.666657
N61	N	1.744119	0.173237	0.419779
N62	N	2.077453	0.506570	0.753113
N63	N	2.410786	0.839903	1.086446
N64	N	1.744148	0.173235	-0.419748
N65	N	2.077481	0.506569	-0.086415
N66	N	2.410815	0.839902	0.246919
