data_functionalizedCrystal
_audit_creation_method	'MofGen! by Chris Wilmer'
_symmetry_space_group_name_H-M	'P1'
_symmetry_Int_Tables_number	1
_symmetry_cell_setting	triclinic
loop_
_symmetry_equiv_pos_as_xyz
  x,y,z
_cell_length_a	19.188925
_cell_length_b	17.666332
_cell_length_c	10.540539
_cell_angle_alpha	90.004288
_cell_angle_beta	83.834020
_cell_angle_gamma	90.010303
loop_
_atom_site_label
_atom_site_type_symbol
_atom_site_fract_x
_atom_site_fract_y
_atom_site_fract_z
O1	O	0.927208	0.062961	0.158439
O2	O	1.427208	0.562961	0.658439
O3	O	0.724039	0.062959	0.179779
O4	O	1.224039	0.562959	0.679779
O5	O	0.830259	0.062959	-0.015700
O6	O	1.330259	0.562959	0.484300
O7	O	0.820988	0.062961	0.353917
O8	O	1.320988	0.562961	0.853917
O9	O	0.830240	-0.062938	-0.015710
O10	O	1.330240	0.437062	0.484290
O11	O	0.724020	-0.062938	0.179768
O12	O	1.224020	0.437062	0.679768
O13	O	0.927189	-0.062936	0.158428
O14	O	1.427189	0.437064	0.658428
Cu15	Cu	0.825603	-0.074432	0.169097
Cu16	Cu	1.325603	0.425568	0.669097
Cu17	Cu	0.825625	0.074455	0.169110
Cu18	Cu	1.325625	0.574455	0.669110
O19	O	0.820969	-0.062936	0.353907
O20	O	1.320969	0.437064	0.853907
C21	C	0.698013	0.000010	0.179084
C22	C	1.198013	0.500010	0.679084
C23	C	0.620495	0.000009	0.177013
C24	C	1.120495	0.500009	0.677013
C25	C	0.059397	0.000011	0.277845
C26	C	0.559397	0.500011	0.777845
C27	C	0.132233	0.000016	0.279802
C28	C	0.632233	0.500016	0.779802
C29	C	0.176403	0.000014	0.165102
C30	C	0.676403	0.500014	0.665102
C31	C	0.147731	0.000027	0.048435
C32	C	0.647731	0.500027	0.548435
C33	C	0.074896	0.000031	0.046482
C34	C	0.574896	0.500031	0.546482
N35	N	0.296520	-0.042843	0.082060
N36	N	0.796520	0.457157	0.582060
N37	N	0.365710	-0.042848	0.083923
N38	N	0.865710	0.457152	0.583923
C39	C	0.395851	0.000005	0.170981
C40	C	0.895851	0.500005	0.670981
N41	N	0.354188	0.042853	0.256124
N42	N	0.854188	0.542853	0.756124
N43	N	0.284992	0.042854	0.254264
N44	N	0.784992	0.542854	0.754264
C45	C	0.255381	0.000010	0.167207
C46	C	0.755381	0.500010	0.667207
C47	C	0.503492	0.000001	0.289762
C48	C	1.003492	0.500001	0.789762
C49	C	0.576330	0.000010	0.291714
C50	C	1.076330	0.500010	0.791714
C51	C	0.591827	0.000014	0.060344
C52	C	1.091827	0.500014	0.560344
C53	C	0.518990	0.000013	0.058395
C54	C	1.018990	0.500013	0.558395
C55	C	0.474827	0.000003	0.173108
C56	C	0.974827	0.500003	0.673108
N57	N	0.825592	-0.179152	0.169088
N58	N	1.325592	0.320848	0.669088
C59	C	0.872642	-0.218761	0.082572
C60	C	1.372642	0.281239	0.582572
C61	C	0.872646	-0.298009	0.082566
C62	C	1.372646	0.201991	0.582566
C63	C	0.825607	-0.337644	0.169098
C64	C	1.325607	0.162356	0.669098
C65	C	0.778548	-0.298025	0.255620
C66	C	1.278548	0.201975	0.755620
C67	C	0.778541	-0.218779	0.255615
C68	C	1.278541	0.281221	0.755615
N69	N	0.817280	-0.462062	0.281463
N70	N	1.317280	0.037938	0.781463
N71	N	0.817291	-0.537342	0.281463
N72	N	1.317291	-0.037342	0.781463
C73	C	0.825625	-0.576408	0.169115
C74	C	1.325625	-0.076408	0.669115
N75	N	0.833962	-0.537349	0.056763
N76	N	1.333962	-0.037349	0.556763
N77	N	0.833954	-0.462061	0.056764
N78	N	1.333954	0.037939	0.556764
C79	C	0.825610	-0.423573	0.169112
C80	C	1.325610	0.076427	0.669112
C81	C	0.872682	-0.701947	0.082586
C82	C	1.372682	-0.201947	0.582586
C83	C	0.872681	-0.781196	0.082578
C84	C	1.372681	-0.281196	0.582578
C85	C	0.778587	-0.781210	0.255643
C86	C	1.278587	-0.281210	0.755643
C87	C	0.778585	-0.701963	0.255640
C88	C	1.278585	-0.201963	0.755640
C89	C	0.825636	-0.662336	0.169112
C90	C	1.325636	-0.162336	0.669112
C91	C	0.953214	0.000015	0.159123
C92	C	1.453214	0.500015	0.659123
C93	C	1.030733	0.000021	0.161194
C94	C	1.530733	0.500021	0.661194
C95	C	0.829554	0.000012	-0.062993
C96	C	1.329554	0.500012	0.437007
C97	C	0.827474	0.000016	-0.203895
C98	C	1.327474	0.500016	0.296105
N99	N	0.825641	0.179175	0.169109
N100	N	1.325641	0.679175	0.669109
C101	C	0.747773	0.000298	-0.385563
C102	C	1.247773	0.500298	0.114437
C103	C	0.749881	0.000014	-0.238991
C104	C	1.249881	0.500014	0.261009
C105	C	0.864804	-0.071877	-0.266383
C106	C	1.364804	0.428123	0.233617
C107	C	0.862156	-0.071937	-0.412869
C108	C	1.362156	0.428063	0.087131
C109	C	0.863756	0.071231	-0.413410
C110	C	1.363756	0.571231	0.086590
C111	C	0.864471	0.072181	-0.266444
C112	C	1.364471	0.572181	0.233556
C113	C	0.821674	0.000013	0.401200
C114	C	1.321674	0.500013	0.901200
C115	C	0.823754	0.000014	0.542102
C116	C	1.323754	0.500014	1.042102
H117	H	0.627789	0.000018	-0.033047
H118	H	1.127789	0.500018	0.466953
F119	F	0.829049	0.141708	-0.211657
F120	F	1.329049	0.641708	0.288343
F121	F	0.922757	-0.823353	-0.009515
F122	F	1.422757	-0.323353	0.490485
F123	F	0.922726	-0.340171	-0.009521
F124	F	1.422726	0.159829	0.490479
F125	F	0.728520	-0.823389	0.347728
F126	F	1.228520	-0.323389	0.847728
F127	F	0.830890	-0.141808	-0.209964
F128	F	1.330890	0.358192	0.290036
F129	F	0.488483	0.000024	-0.065762
F130	F	0.988483	0.500024	0.434238
F131	F	0.728511	-0.659804	0.347727
F132	F	1.228511	-0.159804	0.847727
F133	F	0.922715	-0.176589	-0.009521
F134	F	1.422715	0.323411	0.490479
F135	F	0.939284	-0.075372	-0.238811
F136	F	1.439284	0.424628	0.261189
H137	H	0.740226	-0.186528	0.326068
H138	H	1.240226	0.313472	0.826068
F139	F	0.194741	0.000028	-0.073637
F140	F	0.694741	0.500028	0.426363
H141	H	0.717238	-0.050970	-0.415101
H142	H	1.217238	0.449030	0.084899
H143	H	0.720507	0.051550	-0.195735
H144	H	1.220507	0.551550	0.304265
F145	F	0.728484	-0.340207	0.347709
F146	F	1.228484	0.159793	0.847709
F147	F	0.707717	0.067685	-0.422052
F148	F	1.207717	0.567685	0.077948
H149	H	0.051559	0.000038	-0.048512
H150	H	0.551559	0.500038	0.451488
F151	F	0.606835	0.000007	0.415877
F152	F	1.106835	0.500007	0.915877
F153	F	0.830937	0.142454	-0.453908
F154	F	1.330937	0.642454	0.046092
F155	F	0.826072	-0.142180	-0.448941
F156	F	1.326072	0.357820	0.051059
F157	F	0.711195	-0.067458	-0.183559
F158	F	1.211195	0.432542	0.316441
H159	H	0.910992	-0.669681	0.012126
H160	H	1.410992	-0.169681	0.512126
F161	F	0.935093	-0.076207	-0.477181
F162	F	1.435093	0.423793	0.022819
F163	F	0.937010	0.071866	-0.476755
F164	F	1.437010	0.571866	0.023245
F165	F	0.456488	-0.000007	0.411847
F166	F	0.956488	0.499993	0.911847
H167	H	0.023443	0.000007	0.371254
H168	H	0.523443	0.500007	0.871254
F169	F	0.162747	0.000005	0.403963
F170	F	0.662747	0.500005	0.903963
H171	H	0.921042	0.076523	-0.243471
H172	H	1.421042	0.576523	0.256529
