data_functionalizedCrystal
_audit_creation_method	'MofGen! by Chris Wilmer'
_symmetry_space_group_name_H-M	'P1'
_symmetry_Int_Tables_number	1
_symmetry_cell_setting	triclinic
loop_
_symmetry_equiv_pos_as_xyz
  x,y,z
_cell_length_a	12.837943
_cell_length_b	13.339070
_cell_length_c	11.295657
_cell_angle_alpha	86.720888
_cell_angle_beta	85.838772
_cell_angle_gamma	105.229117
loop_
_atom_site_label
_atom_site_type_symbol
_atom_site_fract_x
_atom_site_fract_y
_atom_site_fract_z
O1	O	1.445051	0.263614	0.098992
O2	O	1.139401	0.250252	0.098999
O3	O	1.257148	0.106289	0.098993
O4	O	1.327304	0.407578	0.098998
O5	O	1.273538	0.120028	-0.099052
O6	O	1.155792	0.263992	-0.099045
O7	O	1.461441	0.277354	-0.099053
Cu8	Cu	1.310113	0.271928	-0.117132
Cu9	Cu	1.290729	0.255679	0.117079
O10	O	1.343695	0.421318	-0.099046
C11	C	1.107678	0.252609	-0.000022
C12	C	0.988728	0.239146	-0.000019
C13	C	1.253492	0.074327	-0.000027
C14	C	1.218167	-0.041381	-0.000022
C15	C	0.794320	0.400986	-0.000033
C16	C	0.682557	0.388342	-0.000031
C17	C	0.653439	0.201215	-0.000022
C18	C	0.765202	0.213859	-0.000024
C19	C	0.835639	0.313748	-0.000028
C20	C	0.947402	0.326391	-0.000021
C21	C	0.918284	0.139265	-0.000020
C22	C	0.806521	0.126621	-0.000018
C23	C	1.492834	-0.379696	-0.000029
C24	C	1.526028	-0.270983	-0.000041
C25	C	1.449065	-0.213577	-0.000036
C26	C	1.338903	-0.264895	-0.000019
C27	C	1.305707	-0.373618	-0.000017
C28	C	1.261938	-0.207499	-0.000024
C29	C	1.151777	-0.258817	-0.000007
C30	C	1.118586	-0.367530	-0.000004
C31	C	1.195548	-0.424936	-0.000009
C32	C	1.295135	-0.098776	-0.000026
C33	C	1.108008	-0.092698	-0.000014
C34	C	1.074814	-0.201411	-0.000002
C35	C	1.493165	0.274998	-0.000029
C36	C	1.612113	0.288460	-0.000024
C37	C	1.347351	0.453280	-0.000023
C38	C	1.382675	0.568987	-0.000021
N39	N	1.323754	0.283357	-0.281864
C40	C	1.178771	0.161904	-0.531205
C41	C	1.189106	0.170550	-0.655865
C42	C	1.354752	0.309297	-0.655846
C43	C	1.344418	0.300652	-0.531186
C44	C	1.256426	0.226952	-0.468870
C45	C	1.246096	0.218302	-0.344207
C46	C	1.411738	0.357054	-0.344191
C47	C	1.422072	0.365699	-0.468851
N48	N	1.277094	0.244243	0.281810
H49	H	1.004751	0.407725	-0.000026
Cl50	Cl	0.630617	0.498019	-0.000042
Cl51	Cl	0.564876	0.075653	-0.000033
H52	H	0.851670	0.482319	-0.000035
H53	H	1.474970	0.410020	-0.293425
Cl54	Cl	0.717963	0.001054	-0.000016
Cl55	Cl	1.153811	-0.561620	0.000148
Cl56	Cl	0.980098	-0.432040	-0.000000
H57	H	1.174449	0.158291	-0.293471
H58	H	0.985118	-0.243210	0.000011
H59	H	0.951936	0.068229	-0.000008
H60	H	1.045339	-0.045958	-0.000015
H61	H	1.384829	-0.057003	-0.000040
H62	H	1.476098	-0.125058	-0.000046
H63	H	1.615721	-0.229207	-0.000056
Cl64	Cl	1.068174	0.069235	-0.452860
Cl65	Cl	1.091477	0.088774	-0.734225
Cl66	Cl	1.532681	0.458351	-0.547203
Cl67	Cl	1.465346	0.401960	-0.734207
H68	H	1.555485	-0.426445	-0.000043
