data_functionalizedCrystal
_audit_creation_method	'MofGen! by Chris Wilmer'
_symmetry_space_group_name_H-M	'P1'
_symmetry_Int_Tables_number	1
_symmetry_cell_setting	triclinic
loop_
_symmetry_equiv_pos_as_xyz
  x,y,z
_cell_length_a	14.044220
_cell_length_b	14.044190
_cell_length_c	18.366186
_cell_angle_alpha	89.989358
_cell_angle_beta	89.996026
_cell_angle_gamma	93.190328
loop_
_atom_site_label
_atom_site_type_symbol
_atom_site_fract_x
_atom_site_fract_y
_atom_site_fract_z
O1	O	1.277180	0.230170	-0.060487
O2	O	1.610513	0.563504	0.272846
O3	O	1.943847	0.896837	0.606180
O4	O	1.000508	0.221865	-0.060505
O5	O	1.333842	0.555198	0.272828
O6	O	1.667175	0.888531	0.606162
O7	O	1.134688	0.087681	-0.060482
O8	O	1.468021	0.421014	0.272851
O9	O	1.801355	0.754348	0.606185
O10	O	1.143001	0.364354	-0.060510
O11	O	1.476334	0.697687	0.272823
O12	O	1.809667	1.031020	0.606157
O13	O	1.134662	0.087672	0.060618
O14	O	1.467996	0.421005	0.393951
O15	O	1.801329	0.754338	0.727284
O16	O	1.000483	0.221855	0.060595
O17	O	1.333816	0.555188	0.393928
O18	O	1.667149	0.888522	0.727261
O19	O	1.277154	0.230161	0.060612
O20	O	1.610488	0.563494	0.393946
O21	O	1.943821	0.896828	0.727279
Zn22	Zn	1.138815	0.226007	0.079831
Zn23	Zn	1.472148	0.559340	0.413164
Zn24	Zn	1.805481	0.892673	0.746497
Zn25	Zn	1.138848	0.226019	-0.079723
Zn26	Zn	1.472182	0.559352	0.253610
Zn27	Zn	1.805515	0.892686	0.586944
O28	O	1.142975	0.364344	0.060589
O29	O	1.476308	0.697678	0.393923
O30	O	1.809642	1.031011	0.727256
C31	C	0.964874	0.218224	0.000043
C32	C	1.298207	0.551557	0.333376
C33	C	1.631540	0.884891	0.666709
C34	C	0.858731	0.207380	0.000036
C35	C	1.192064	0.540713	0.333370
C36	C	1.525397	0.874046	0.666703
C37	C	1.131039	0.052054	0.000070
C38	C	1.464372	0.385388	0.333403
C39	C	1.797705	0.718721	0.666736
C40	C	1.120191	-0.054089	0.000075
C41	C	1.453525	0.279245	0.333409
C42	C	1.786858	0.612578	0.666742
C43	C	0.664392	0.187553	0.000053
C44	C	0.997726	0.520887	0.333386
C45	C	1.331059	0.854220	0.666720
C46	C	0.613264	0.264468	0.000048
C47	C	0.946598	0.597801	0.333382
C48	C	1.279931	0.931135	0.666715
C49	C	0.505128	0.253436	0.000057
C50	C	0.838461	0.586770	0.333391
C51	C	1.171795	0.920103	0.666724
C52	C	0.772539	0.198583	0.000044
C53	C	1.105872	0.531917	0.333377
C54	C	1.439205	0.865250	0.666710
C55	C	1.177292	-0.299547	0.000051
C56	C	1.510625	0.033786	0.333384
C57	C	1.843958	0.367120	0.666717
C58	C	1.100375	-0.248422	0.000051
C59	C	1.433709	0.084912	0.333384
C60	C	1.767042	0.418245	0.666717
C61	C	1.111404	-0.140285	0.000064
C62	C	1.444737	0.193049	0.333398
C63	C	1.778070	0.526382	0.666731
C64	C	1.166265	-0.407694	0.000037
C65	C	1.499598	-0.074361	0.333370
C66	C	1.832932	0.258973	0.666703
C67	C	1.312789	0.233801	0.000063
C68	C	1.646123	0.567135	0.333397
C69	C	1.979456	0.900468	0.666730
C70	C	1.418932	0.244646	0.000065
C71	C	1.752266	0.577979	0.333398
C72	C	2.085599	0.911312	0.666731
C73	C	1.146624	0.399971	0.000036
C74	C	1.479958	0.733304	0.333370
C75	C	1.813291	1.066638	0.666703
C76	C	1.157472	0.506114	0.000026
C77	C	1.490805	0.839447	0.333359
C78	C	1.824138	1.172781	0.666692
N79	N	1.138799	0.225998	0.188722
N80	N	1.472132	0.559331	0.522055
N81	N	1.805465	0.892665	0.855388
N82	N	1.138871	0.226020	-0.188614
N83	N	1.472205	0.559354	0.144719
N84	N	1.805538	0.892687	0.478052
C85	C	1.198237	0.166615	0.226832
C86	C	1.531571	0.499949	0.560166
C87	C	1.864904	0.833282	0.893499
C88	C	1.198243	0.166612	0.303060
C89	C	1.531576	0.499945	0.636393
C90	C	1.864910	0.833278	0.969727
C91	C	1.138820	0.226008	0.341174
C92	C	1.472154	0.559341	0.674508
C93	C	1.805487	0.892674	1.007841
C94	C	1.079370	0.285394	0.303055
C95	C	1.412703	0.618728	0.636388
C96	C	1.746037	0.952061	0.969721
C97	C	1.079359	0.285389	0.226828
C98	C	1.412692	0.618723	0.560162
C99	C	1.746026	0.952056	0.893495
C100	C	1.133666	0.311899	0.461925
C101	C	1.467000	0.645233	0.795259
C102	C	1.800333	0.978566	1.128592
C103	C	1.133684	0.311906	0.538150
C104	C	1.467017	0.645240	0.871484
C105	C	1.800351	0.978573	1.204817
C106	C	1.138849	0.226022	0.576282
C107	C	1.472182	0.559355	0.909615
C108	C	1.805515	0.892689	1.242949
C109	C	1.144016	0.140129	0.538179
C110	C	1.477349	0.473463	0.871513
C111	C	1.810682	0.806796	1.204846
C112	C	1.144005	0.140125	0.461953
C113	C	1.477338	0.473458	0.795286
C114	C	1.810671	0.806791	1.128619
C115	C	1.138825	0.226019	0.423829
C116	C	1.472159	0.559353	0.757163
C117	C	1.805492	0.892686	1.090496
C118	C	1.198297	0.166630	0.697048
C119	C	1.531630	0.499964	1.030381
C120	C	1.864963	0.833297	1.363714
C121	C	1.198296	0.166625	0.773277
C122	C	1.531629	0.499958	1.106610
C123	C	1.864962	0.833291	1.439943
C124	C	1.079428	0.285416	0.773270
C125	C	1.412761	0.618749	1.106603
C126	C	1.746094	0.952083	1.439936
C127	C	1.079424	0.285413	0.697042
C128	C	1.412757	0.618746	1.030375
C129	C	1.746090	0.952080	1.363709
C130	C	1.138863	0.226022	0.658935
C131	C	1.472196	0.559355	0.992269
C132	C	1.805530	0.892688	1.325602
H133	H	0.650706	0.338602	0.000037
H134	H	0.984039	0.671935	0.333370
H135	H	1.317372	1.005268	0.666704
Cl136	Cl	1.150516	0.032154	0.586107
Cl137	Cl	1.483849	0.365487	0.919440
Cl138	Cl	1.817183	0.698820	1.252774
H139	H	1.251418	-0.262106	0.000063
H140	H	1.584752	0.071227	0.333396
H141	H	1.918085	0.404561	0.666730
H142	H	0.626954	0.113425	0.000064
H143	H	0.960287	0.446759	0.333398
H144	H	1.293620	0.780092	0.666731
H145	H	1.026243	-0.285865	0.000042
H146	H	1.359576	0.047468	0.333375
H147	H	1.692910	0.380802	0.666708
H148	H	1.246634	0.118253	0.195808
H149	H	1.579967	0.451586	0.529141
H150	H	1.913301	0.784920	0.862475
Cl151	Cl	1.272974	0.091953	0.350979
Cl152	Cl	1.606307	0.425287	0.684312
Cl153	Cl	1.939640	0.758620	1.017645
H154	H	1.148209	0.070188	0.430933
H155	H	1.481542	0.403521	0.764266
H156	H	1.814876	0.736854	1.097599
Cl157	Cl	1.273014	0.091962	0.649141
Cl158	Cl	1.606348	0.425295	0.982474
Cl159	Cl	1.939681	0.758629	1.315808
Cl160	Cl	1.273018	0.091960	0.821190
Cl161	Cl	1.606352	0.425293	1.154524
Cl162	Cl	1.939685	0.758627	1.487857
Cl163	Cl	1.004717	0.360078	0.821180
Cl164	Cl	1.338051	0.693411	1.154513
Cl165	Cl	1.671384	1.026745	1.487846
H166	H	1.031027	0.333772	0.666010
H167	H	1.364360	0.667105	0.999344
H168	H	1.697694	1.000439	1.332677
Cl169	Cl	1.127195	0.419885	0.586043
Cl170	Cl	1.460529	0.753218	0.919377
Cl171	Cl	1.793862	1.086551	1.252710
H172	H	1.129444	0.381840	0.430885
H173	H	1.462778	0.715173	0.764218
H174	H	1.796111	1.048506	1.097552
Cl175	Cl	1.004663	0.360060	0.350968
Cl176	Cl	1.337996	0.693393	0.684301
Cl177	Cl	1.671329	1.026727	1.017635
H178	H	1.030956	0.333747	0.195798
H179	H	1.364289	0.667080	0.529131
H180	H	1.697622	1.000413	0.862465
