data_functionalizedCrystal
_audit_creation_method	'MofGen! by Chris Wilmer'
_symmetry_space_group_name_H-M	'P1'
_symmetry_Int_Tables_number	1
_symmetry_cell_setting	triclinic
loop_
_symmetry_equiv_pos_as_xyz
  x,y,z
_cell_length_a	15.298073
_cell_length_b	19.077068
_cell_length_c	15.298431
_cell_angle_alpha	97.833418
_cell_angle_beta	88.416715
_cell_angle_gamma	102.338104
loop_
_atom_site_label
_atom_site_type_symbol
_atom_site_fract_x
_atom_site_fract_y
_atom_site_fract_z
Zn1	Zn	-1.252739	0.012973	-0.728002
Zn2	Zn	-1.270080	0.147377	-0.587058
Zn3	Zn	-1.129259	0.052637	-0.557784
Zn4	Zn	-1.097933	0.154158	-0.708366
O5	O	-1.187503	0.091787	-0.645303
O6	O	-1.378760	0.011365	-0.729775
O7	O	-1.271767	0.148571	-0.461170
O8	O	-1.151492	-0.051360	-0.576330
O9	O	-1.391500	0.110111	-0.626224
O10	O	-1.242213	-0.080500	-0.701389
O11	O	-1.168306	0.078966	-0.439663
O12	O	-1.001383	0.085542	-0.557290
O13	O	-1.098101	0.121668	-0.832976
O14	O	-0.978368	0.160129	-0.667922
O15	O	-1.211837	0.017940	-0.847402
O16	O	-1.241391	0.247012	-0.607184
O17	O	-1.114916	0.251994	-0.696308
C18	C	-0.957796	0.127875	-0.607299
C19	C	-0.859522	0.143329	-0.591062
C20	C	-0.555898	-0.018514	-0.761314
C21	C	-0.648231	-0.033032	-0.776574
C22	C	-0.701058	0.011057	-0.730198
C23	C	-0.661544	0.069666	-0.668558
C24	C	-0.569201	0.084189	-0.653301
C25	C	-0.714361	0.113760	-0.622185
C26	C	-0.674847	0.172370	-0.560545
C27	C	-0.582513	0.186890	-0.545291
C28	C	-0.529686	0.142801	-0.591668
C29	C	-0.806703	0.099237	-0.637442
C30	C	-0.820006	0.201941	-0.529429
C31	C	-0.727674	0.216459	-0.514169
C32	C	-1.176656	0.275098	-0.652815
C33	C	-1.172092	0.353504	-0.656071
C34	C	-1.149541	0.066136	-0.872708
C35	C	-1.133363	0.055206	-0.969614
C36	C	-0.418108	0.055552	-0.683447
C37	C	-0.516383	0.040098	-0.699680
C38	C	-1.198412	-0.092247	-0.637785
C39	C	-1.203062	-0.170671	-0.634581
C40	C	-1.235833	0.387709	-0.611252
C41	C	-1.231545	0.461378	-0.614320
C42	C	-1.163511	0.500842	-0.662203
C43	C	-1.099767	0.466630	-0.707028
C44	C	-1.104060	0.392961	-0.703964
C45	C	-1.143610	0.721449	-0.676342
C46	C	-1.139321	0.795123	-0.679400
C47	C	-1.271100	0.789866	-0.586693
C48	C	-1.275384	0.716197	-0.583629
C49	C	-1.211642	0.681991	-0.628458
N50	N	-1.159124	0.576144	-0.665339
N51	N	-1.216034	0.606689	-0.625327
C52	C	-1.071895	0.013829	-1.003936
C53	C	-1.056685	0.003561	-1.094983
C54	C	-1.102945	0.034666	-1.151717
C55	C	-1.164419	0.076039	-1.117396
C56	C	-1.179626	0.086312	-1.026340
C57	C	-1.210676	0.107149	-1.174121
C58	C	-1.272150	0.148523	-1.139800
C59	C	-1.287354	0.158794	-1.048752
C60	C	-1.241094	0.127689	-0.992018
C61	C	-1.195469	0.096876	-1.265177
C62	C	-1.303199	0.169360	-1.287581
C63	C	-1.318410	0.179627	-1.196534
C64	C	-1.225371	0.117278	-0.418789
C65	C	-1.241731	0.127983	-0.321903
H66	H	-0.695488	0.264180	-0.463982
H67	H	-0.512878	-0.054401	-0.799072
Br68	Br	-0.860319	0.019699	-0.721093
H69	H	-0.863018	0.237844	-0.491669
Br70	Br	-1.318059	0.507796	-0.553498
Br71	Br	-0.404373	0.162499	-0.570955
Br72	Br	-0.528888	0.266431	-0.461637
H73	H	-1.291230	0.355584	-0.572256
Br74	Br	-1.017556	0.346537	-0.764799
Br75	Br	-1.367728	0.662641	-0.518656
H76	H	-1.322995	0.817724	-0.550198
H77	H	-0.680396	-0.080750	-0.826764
Br78	Br	-1.046971	0.848685	-0.744371
Br79	Br	-1.007440	0.520185	-0.772021
Br80	Br	-0.973218	-0.052548	-1.141551
H81	H	-1.091708	0.693605	-0.712841
H82	H	-1.368462	0.213314	-1.168577
H83	H	-1.145417	0.063188	-1.293112
Br84	Br	-1.082300	0.020732	-1.275282
Br85	Br	-1.365980	0.211581	-1.364569
H86	H	-1.034231	-0.011487	-0.957735
H87	H	-1.337398	0.192494	-1.020810
Br88	Br	-1.261744	0.141614	-0.868450
H89	H	-0.776240	-0.000769	-0.742623
