data_functionalizedCrystal
_audit_creation_method	'MofGen! by Chris Wilmer'
_symmetry_space_group_name_H-M	'P1'
_symmetry_Int_Tables_number	1
_symmetry_cell_setting	triclinic
loop_
_symmetry_equiv_pos_as_xyz
  x,y,z
_cell_length_a	17.019383
_cell_length_b	19.288865
_cell_length_c	18.366186
_cell_angle_alpha	90.011479
_cell_angle_beta	86.114979
_cell_angle_gamma	96.731905
loop_
_atom_site_label
_atom_site_type_symbol
_atom_site_fract_x
_atom_site_fract_y
_atom_site_fract_z
O1	O	1.046362	-0.088544	-0.126102
O2	O	1.546362	0.411456	0.373898
O3	O	0.816659	-0.099817	-0.111716
O4	O	1.316659	0.400183	0.388284
O5	O	0.938148	0.006938	-0.119310
O6	O	1.438148	0.506938	0.380690
O7	O	0.924873	-0.195299	-0.118508
O8	O	1.424873	0.304701	0.381492
O9	O	0.938127	0.006943	0.001790
O10	O	1.438127	0.506943	0.501790
O11	O	0.816638	-0.099811	0.009385
O12	O	1.316638	0.400189	0.509385
O13	O	1.046342	-0.088539	-0.005001
O14	O	1.546342	0.411461	0.494999
Zn15	Zn	0.931487	-0.094174	0.021419
Zn16	Zn	1.431487	0.405826	0.521419
Zn17	Zn	0.931514	-0.094181	-0.138136
Zn18	Zn	1.431514	0.405819	0.361864
O19	O	0.924853	-0.195293	0.002593
O20	O	1.424853	0.304707	0.502593
C21	C	0.787261	-0.099385	-0.049325
C22	C	1.287261	0.400615	0.450675
C23	C	0.699696	-0.098097	-0.043840
C24	C	1.199696	0.401903	0.456160
C25	C	0.658562	-0.097497	-0.107270
C26	C	1.158562	0.402503	0.392730
C27	C	0.576283	-0.096298	-0.102106
C28	C	1.076283	0.403702	0.397894
C29	C	0.535142	-0.095695	-0.033511
C30	C	1.035142	0.404305	0.466489
C31	C	0.576281	-0.096297	0.029924
C32	C	1.076281	0.403703	0.529924
C33	C	0.658558	-0.097501	0.024759
C34	C	1.158558	0.402499	0.524759
C35	C	0.286720	-0.092065	-0.014614
C36	C	0.786720	0.407935	0.485386
C37	C	0.204439	-0.090859	-0.009454
C38	C	0.704439	0.409141	0.490546
C39	C	0.204446	-0.090861	-0.141484
C40	C	0.704446	0.409139	0.358516
C41	C	0.286724	-0.092060	-0.146643
C42	C	0.786724	0.407940	0.353357
C43	C	0.327856	-0.092667	-0.083208
C44	C	0.827856	0.407333	0.416792
C45	C	0.451040	-0.094467	-0.028231
C46	C	0.951040	0.405533	0.471769
C47	C	0.411955	-0.093899	-0.088489
C48	C	0.911955	0.406101	0.411511
C49	C	0.937710	0.032818	-0.058731
C50	C	1.437710	0.532818	0.441269
C51	C	0.936428	0.109924	-0.058644
C52	C	1.436428	0.609924	0.441356
C53	C	1.075739	-0.088971	-0.067394
C54	C	1.575739	0.411029	0.432606
C55	C	1.163304	-0.090258	-0.072884
C56	C	1.663304	0.409742	0.427116
C57	C	0.925290	-0.221173	-0.057988
C58	C	1.425290	0.278827	0.442012
C59	C	0.926572	-0.298279	-0.058079
C60	C	1.426572	0.201721	0.441921
N61	N	0.931474	-0.094169	0.130311
N62	N	1.431474	0.405831	0.630311
C63	C	1.007712	0.154491	-0.063105
C64	C	1.507712	0.654491	0.436895
C65	C	1.006508	0.226940	-0.063041
C66	C	1.506508	0.726940	0.436959
C67	C	0.934015	0.254819	-0.058502
C68	C	1.434015	0.754819	0.441498
C69	C	0.862721	0.210242	-0.054044
C70	C	1.362721	0.710242	0.445956
C71	C	0.863928	0.137794	-0.054116
C72	C	1.363928	0.637794	0.445884
C73	C	0.877020	0.363211	-0.012514
C74	C	1.377020	0.863211	0.487486
C75	C	0.875816	0.435658	-0.012438
C76	C	1.375816	0.935658	0.487562
C77	C	0.930290	0.478271	-0.058285
C78	C	1.430290	0.978271	0.441715
C79	C	0.985982	0.448430	-0.104198
C80	C	1.485982	0.948430	0.395802
C81	C	0.987188	0.375983	-0.104270
C82	C	1.487188	0.875983	0.395730
C83	C	0.932699	0.333375	-0.058424
C84	C	1.432699	0.833375	0.441576
C85	C	1.000273	0.601397	-0.062678
C86	C	1.500273	1.101397	0.437322
C87	C	0.999066	0.673847	-0.062618
C88	C	1.499066	1.173847	0.437382
C89	C	0.855277	0.657147	-0.053613
C90	C	1.355277	1.157147	0.446387
C91	C	0.856487	0.584699	-0.053681
C92	C	1.356487	1.084699	0.446319
C93	C	0.928987	0.556828	-0.058209
C94	C	1.428987	1.056828	0.441791
N95	N	0.931533	-0.094181	-0.247029
N96	N	1.431533	0.405819	0.252971
C97	C	0.985287	-0.046921	0.165047
C98	C	1.485287	0.453079	0.665047
C99	C	0.985292	-0.046918	0.241275
C100	C	1.485292	0.453082	0.741275
C101	C	0.931491	-0.094175	0.282763
C102	C	1.431491	0.405825	0.782763
C103	C	0.877668	-0.141426	0.248017
C104	C	1.377668	0.358574	0.748017
C105	C	0.877660	-0.141423	0.171792
C106	C	1.377660	0.358577	0.671792
C107	C	0.920932	-0.157444	0.404175
C108	C	1.420932	0.342556	0.904175
C109	C	0.920946	-0.157447	0.480399
C110	C	1.420946	0.342553	0.980399
C111	C	0.931514	-0.094184	0.517869
C112	C	1.431514	0.405816	1.017869
C113	C	0.942084	-0.030913	0.479104
C114	C	1.442084	0.469087	0.979104
C115	C	0.942075	-0.030910	0.402878
C116	C	1.442075	0.469090	0.902878
C117	C	0.931495	-0.094183	0.365417
C118	C	1.431495	0.405817	0.865417
C119	C	0.985335	-0.046929	0.635260
C120	C	1.485335	0.453071	1.135260
C121	C	0.985335	-0.046925	0.711489
C122	C	1.485335	0.453075	1.211489
C123	C	0.877715	-0.141439	0.718230
C124	C	1.377715	0.358561	1.218230
C125	C	0.877712	-0.141437	0.642002
C126	C	1.377712	0.358563	1.142002
C127	C	0.931526	-0.094182	0.600521
C128	C	1.431526	0.405818	1.100521
H129	H	0.417534	-0.093974	0.027619
H130	H	0.917534	0.406026	0.527619
H131	H	1.057116	0.710134	-0.066255
H132	H	1.557116	1.210134	0.433745
H133	H	0.833862	-0.179902	0.281801
H134	H	1.333862	0.320098	0.781801
H135	H	0.542777	-0.095810	0.085775
H136	H	1.042777	0.404190	0.585775
H137	H	1.029114	-0.008442	0.269563
H138	H	1.529114	0.491558	0.769563
Cl139	Cl	0.771587	0.245289	-0.048343
Cl140	Cl	1.271587	0.745289	0.451657
Cl141	Cl	0.774306	0.081764	-0.048507
Cl142	Cl	1.274306	0.581764	0.451493
Cl143	Cl	1.091414	0.566356	-0.068367
Cl144	Cl	1.591414	1.066356	0.431633
H145	H	0.796252	0.679845	-0.049921
H146	H	1.296252	1.179845	0.450079
H147	H	0.833895	-0.179913	0.613718
H148	H	1.333895	0.320087	1.113718
H149	H	1.029104	-0.008443	0.131276
H150	H	1.529104	0.491557	0.631276
Cl151	Cl	0.766867	0.528668	-0.048069
Cl152	Cl	1.266867	1.028668	0.451931
Cl153	Cl	0.955354	0.048625	0.354148
Cl154	Cl	1.455354	0.548625	0.854148
H155	H	0.912344	-0.208966	0.511956
H156	H	1.412344	0.291034	1.011956
Cl157	Cl	0.955377	0.048624	0.526199
Cl158	Cl	1.455377	0.548624	1.026199
Cl159	Cl	1.052986	0.012482	0.755161
Cl160	Cl	1.552986	0.512482	1.255161
H161	H	1.029152	-0.008449	0.601485
H162	H	1.529152	0.491551	1.101485
H163	H	0.170947	-0.090369	-0.193128
H164	H	0.670947	0.409631	0.306872
Cl165	Cl	0.810074	-0.200842	0.770380
Cl166	Cl	1.310074	0.299158	1.270380
Cl167	Cl	0.907719	-0.236985	0.357074
Cl168	Cl	1.407719	0.263015	0.857074
H169	H	0.833838	-0.179899	0.143509
H170	H	1.333838	0.320101	0.643509
Cl171	Cl	1.054467	0.501993	-0.161840
Cl172	Cl	1.554467	1.001993	0.338160
Cl173	Cl	0.710275	-0.098251	-0.193508
Cl174	Cl	1.210275	0.401749	0.306492
H175	H	0.170940	-0.090387	0.046407
H176	H	0.670940	0.409613	0.546407
Cl177	Cl	0.463677	-0.094660	-0.174719
Cl178	Cl	0.963677	0.405340	0.325281
H179	H	0.542795	-0.095809	-0.153757
H180	H	1.042795	0.404191	0.346243
H181	H	0.320217	-0.092547	-0.202500
H182	H	0.820217	0.407453	0.297500
H183	H	0.692048	-0.097993	0.076410
H184	H	1.192048	0.402007	0.576410
Cl185	Cl	0.338418	-0.092826	0.065133
Cl186	Cl	0.838418	0.407174	0.565133
H187	H	1.066748	0.131804	-0.066795
H188	H	1.566748	0.631804	0.433205
Cl189	Cl	1.057191	0.338470	-0.161992
Cl190	Cl	1.557191	0.838470	0.338008
H191	H	0.830466	0.459948	0.024944
H192	H	1.330466	0.959948	0.524944
H193	H	0.832658	0.328521	0.024824
H194	H	1.332658	0.828521	0.524824
H195	H	1.064558	0.263234	-0.066677
H196	H	1.564558	0.763234	0.433323
