data_functionalizedCrystal
_audit_creation_method	'MofGen! by Chris Wilmer'
_symmetry_space_group_name_H-M	'P1'
_symmetry_Int_Tables_number	1
_symmetry_cell_setting	triclinic
loop_
_symmetry_equiv_pos_as_xyz
  x,y,z
_cell_length_a	12.837939
_cell_length_b	9.565339
_cell_length_c	12.837942
_cell_angle_alpha	89.999206
_cell_angle_beta	85.171210
_cell_angle_gamma	89.996798
loop_
_atom_site_label
_atom_site_type_symbol
_atom_site_fract_x
_atom_site_fract_y
_atom_site_fract_z
O1	O	-1.402335	0.116245	0.272129
O2	O	-1.099201	0.116251	0.258687
O3	O	-1.244046	0.116240	0.113841
O4	O	-1.257489	0.116257	0.416975
O5	O	-1.244034	-0.116280	0.113850
O6	O	-1.099189	-0.116269	0.258695
O7	O	-1.402323	-0.116275	0.272138
Zn8	Zn	-1.250754	-0.153189	0.265418
Zn9	Zn	-1.250770	0.153166	0.265406
O10	O	-1.257478	-0.116263	0.416983
C11	C	-1.060126	-0.000008	0.254150
C12	C	-0.943711	-0.000006	0.240606
C13	C	-0.718837	-0.000019	0.403436
C14	C	-0.609454	-0.000018	0.390714
C15	C	-0.615562	-0.000014	0.202443
C16	C	-0.724944	-0.000014	0.215164
C17	C	-0.776578	-0.000015	0.315664
C18	C	-0.885962	-0.000006	0.328384
C19	C	-0.892067	-0.000011	0.140114
C20	C	-0.782685	-0.000011	0.127393
N21	N	-1.250751	-0.362269	0.265426
C22	C	-1.183740	-0.453467	0.332385
C23	C	-1.280344	-0.546646	0.362042
C24	C	-1.154189	-0.546645	0.235781
C25	C	-1.347408	-0.453396	0.295135
C26	C	-1.221186	-0.453387	0.168826
C27	C	-1.317854	-0.546524	0.198450
C28	C	-0.441398	-0.000014	0.276675
C29	C	-0.557813	-0.000013	0.290222
C30	C	-1.239499	-0.000019	0.074776
C31	C	-1.225954	-0.000017	-0.041639
N32	N	-1.250780	0.362245	0.265391
C33	C	-1.388784	0.000009	-0.266513
C34	C	-1.376062	0.000012	-0.375896
C35	C	-1.187791	0.000001	-0.369788
C36	C	-1.200513	-0.000002	-0.260405
C37	C	-1.301012	0.000000	-0.208772
C38	C	-1.313733	-0.000012	-0.099388
C39	C	-1.125462	-0.000013	-0.093282
C40	C	-1.112741	-0.000011	-0.202664
C41	C	-1.262025	-0.000001	0.456048
C42	C	-1.275569	0.000006	0.572463
H43	H	-0.939092	0.000001	0.068643
H44	H	-1.127134	-0.412607	0.389074
Cl45	Cl	-1.061460	0.000040	-0.434716
H46	H	-1.305370	-0.587609	0.443720
Cl47	Cl	-1.405467	-0.609225	0.111007
H48	H	-1.196133	-0.412391	0.087171
Cl49	Cl	-0.550633	-0.000031	0.076112
Cl50	Cl	-0.986406	-0.000001	-0.267585
H51	H	-1.053992	-0.000031	-0.046257
Cl52	Cl	-1.028094	-0.609887	0.197092
H53	H	-1.470614	-0.000003	-0.224473
Cl54	Cl	-1.440073	-0.000019	-0.034478
H55	H	-0.740630	-0.000026	0.045569
H56	H	-1.447536	0.000024	-0.422905
Cl57	Cl	-0.950872	-0.000003	0.454724
H58	H	-0.760878	-0.000017	0.485266
Cl59	Cl	-0.536869	-0.000027	0.501061
H60	H	-1.429108	-0.412609	0.320290
