data_functionalizedCrystal
_audit_creation_method	'MofGen! by Chris Wilmer'
_symmetry_space_group_name_H-M	'P1'
_symmetry_Int_Tables_number	1
_symmetry_cell_setting	triclinic
loop_
_symmetry_equiv_pos_as_xyz
  x,y,z
_cell_length_a	12.759401
_cell_length_b	21.295417
_cell_length_c	12.759393
_cell_angle_alpha	89.961905
_cell_angle_beta	89.979062
_cell_angle_gamma	90.032032
loop_
_atom_site_label
_atom_site_type_symbol
_atom_site_fract_x
_atom_site_fract_y
_atom_site_fract_z
Zn1	Zn	1.606151	-0.250553	-0.593965
Zn2	Zn	1.605994	-0.355835	-0.418261
Zn3	Zn	1.430450	-0.250587	-0.418300
Zn4	Zn	1.430393	-0.355791	-0.593899
O5	O	1.518247	-0.303192	-0.506106
O6	O	1.753151	-0.264523	-0.570669
O7	O	1.582665	-0.341906	-0.271245
O8	O	1.453846	-0.162493	-0.441646
O9	O	1.753035	-0.341874	-0.441580
O10	O	1.582933	-0.162468	-0.570706
O11	O	1.453694	-0.264581	-0.271274
O12	O	1.283421	-0.264538	-0.441582
O13	O	1.453750	-0.341799	-0.740929
O14	O	1.283380	-0.341831	-0.570594
O15	O	1.582879	-0.264481	-0.740977
O16	O	1.582610	-0.443919	-0.441516
O17	O	1.453597	-0.443886	-0.570556
C18	C	1.245279	-0.303184	-0.506085
C19	C	1.128503	-0.303196	-0.506101
C20	C	1.073647	-0.343504	-0.573172
C21	C	0.963923	-0.343506	-0.573193
C22	C	0.963921	-0.262891	-0.439063
C23	C	1.073643	-0.262886	-0.439048
C24	C	1.518109	-0.466743	-0.506048
C25	C	1.518146	-0.536711	-0.506058
C26	C	1.585383	-0.569574	-0.438936
C27	C	1.585432	-0.635316	-0.438960
C28	C	1.518226	-0.668194	-0.506094
C29	C	1.450985	-0.635323	-0.573230
C30	C	1.450945	-0.569582	-0.573212
N31	N	1.426319	-0.771460	-0.514097
N32	N	1.426360	-0.833912	-0.514108
C33	C	1.518344	-0.866268	-0.506155
N34	N	1.610287	-0.833814	-0.498169
N35	N	1.610245	-0.771357	-0.498153
C36	C	1.518262	-0.739479	-0.506122
C37	C	1.585640	-0.970417	-0.439054
C38	C	1.585691	-1.036160	-0.439085
C39	C	1.451233	-1.036166	-0.573350
C40	C	1.451192	-0.970423	-0.573325
C41	C	1.518393	-0.937553	-0.506171
C42	C	1.792280	-0.303200	-0.506128
C43	C	1.909057	-0.303203	-0.506137
C44	C	1.518325	-0.303131	-0.780140
C45	C	1.518359	-0.303105	-0.896916
C46	C	1.518414	-0.139001	-0.506188
C47	C	1.518485	-0.069033	-0.506222
C48	C	1.585601	-0.262839	-0.951805
C49	C	1.585619	-0.262812	-1.061529
C50	C	1.451149	-0.343322	-1.061466
C51	C	1.451127	-0.343346	-0.951744
C52	C	1.518229	-0.303206	-0.233139
C53	C	1.518399	-0.303055	-0.116363
H54	H	1.118308	-0.230058	-0.384431
H55	H	1.640105	-0.542812	-0.384258
C56	C	1.659386	-0.671476	-0.365110
C57	C	1.733300	-0.635320	-0.291242
C58	C	1.807249	-0.671477	-0.217390
C59	C	1.807285	-0.743789	-0.217405
C60	C	1.733368	-0.779949	-0.291276
C61	C	1.659419	-0.743792	-0.365129
H62	H	1.733276	-0.581786	-0.291228
H63	H	1.861967	-0.644708	-0.162706
H64	H	1.862026	-0.770555	-0.162735
H65	H	1.733392	-0.833483	-0.291290
H66	H	1.604701	-0.770561	-0.419813
H67	H	0.919240	-0.230073	-0.384470
C68	C	1.659662	-1.072312	-0.365252
C69	C	1.733579	-1.036152	-0.291392
C70	C	1.807553	-1.072304	-0.217559
C71	C	1.807612	-1.144617	-0.217586
C72	C	1.733692	-1.180781	-0.291448
C73	C	1.659718	-1.144629	-0.365281
H74	H	1.733538	-0.982618	-0.291370
H75	H	1.862273	-1.045533	-0.162881
H76	H	1.862372	-1.171380	-0.162930
H77	H	1.733733	-1.234315	-0.291470
H78	H	1.604998	-1.171400	-0.419959
C79	C	1.377056	-0.671485	-0.647079
C80	C	1.377093	-0.743798	-0.647099
C81	C	1.303166	-0.779959	-0.720956
C82	C	1.229204	-0.743807	-0.794794
C83	C	1.229165	-0.671491	-0.794777
C84	C	1.303091	-0.635329	-0.720920
H85	H	1.431847	-0.770563	-0.592437
H86	H	1.303196	-0.833493	-0.720968
H87	H	1.174479	-0.770576	-0.849467
H88	H	1.174411	-0.644725	-0.849438
H89	H	1.303062	-0.581796	-0.720908
H90	H	1.640363	-0.943652	-0.384377
C91	C	0.903581	-0.387848	-0.646967
C92	C	0.782891	-0.387855	-0.646994
C93	C	0.722550	-0.432199	-0.720773
C94	C	0.782898	-0.476536	-0.794525
C95	C	0.903595	-0.476531	-0.794500
C96	C	0.963936	-0.432187	-0.720722
H97	H	0.738211	-0.355033	-0.592396
H98	H	0.633202	-0.432203	-0.720790
H99	H	0.738230	-0.509362	-0.849140
H100	H	0.948275	-0.509354	-0.849098
H101	H	1.053284	-0.432184	-0.720704
H102	H	1.118311	-0.376325	-0.627773
H103	H	1.396192	-0.542825	-0.627872
H104	H	1.396517	-1.062934	-0.628017
H105	H	1.396437	-0.943665	-0.627977
C106	C	1.659545	-0.218571	-0.891493
C107	C	1.651044	-0.147006	-0.906614
C108	C	1.724987	-0.102735	-0.846305
C109	C	1.807432	-0.130029	-0.770875
C110	C	1.815937	-0.201598	-0.755751
C111	C	1.741994	-0.245869	-0.816060
H112	H	1.590010	-0.126799	-0.962454
H113	H	1.718691	-0.049755	-0.857501
H114	H	1.862169	-0.097257	-0.726231
H115	H	1.876971	-0.221805	-0.699911
H116	H	1.748290	-0.298849	-0.804864
C117	C	1.377206	-0.387590	-1.121779
C118	C	1.377230	-0.387570	-1.242469
C119	C	1.303287	-0.431840	-1.302779
C120	C	1.229319	-0.476131	-1.242400
C121	C	1.229292	-0.476154	-1.121703
C122	C	1.303235	-0.431883	-1.061393
H123	H	1.431988	-0.354781	-1.287172
H124	H	1.303308	-0.431824	-1.392128
H125	H	1.174582	-0.508903	-1.287045
H126	H	1.174534	-0.508942	-1.077000
H127	H	1.303214	-0.431900	-0.972045
H128	H	1.640373	-0.230023	-1.106215
C129	C	1.377152	-0.387642	-0.891362
C130	C	1.257726	-0.382494	-0.906437
C131	C	1.183750	-0.426786	-0.846057
C132	C	1.229200	-0.476225	-0.770603
C133	C	1.348633	-0.481374	-0.755524
C134	C	1.422609	-0.437083	-0.815904
H135	H	1.224075	-0.345895	-0.962296
H136	H	1.095338	-0.422973	-0.857220
H137	H	1.174439	-0.509012	-0.725906
H138	H	1.382284	-0.517974	-0.699665
H139	H	1.511021	-0.440895	-0.804742
