data_functionalizedCrystal
_audit_creation_method	'MofGen! by Chris Wilmer'
_symmetry_space_group_name_H-M	'P1'
_symmetry_Int_Tables_number	1
_symmetry_cell_setting	triclinic
loop_
_symmetry_equiv_pos_as_xyz
  x,y,z
_cell_length_a	9.065218
_cell_length_b	19.288865
_cell_length_c	17.766277
_cell_angle_alpha	89.988397
_cell_angle_beta	89.990588
_cell_angle_gamma	84.076066
loop_
_atom_site_label
_atom_site_type_symbol
_atom_site_fract_x
_atom_site_fract_y
_atom_site_fract_z
O1	O	1.956844	0.101842	-0.062606
O2	O	1.527266	0.110195	-0.062608
O3	O	1.754468	0.004985	-0.062592
O4	O	1.729642	0.207053	-0.062622
O5	O	1.754428	0.004979	0.062596
O6	O	1.527227	0.110190	0.062580
O7	O	1.956804	0.101836	0.062582
Cu8	Cu	1.742012	0.106013	0.074012
Cu9	Cu	1.742059	0.106019	-0.074038
O10	O	1.729603	0.207047	0.062566
C11	C	1.753649	-0.020901	0.000004
C12	C	1.751251	-0.098023	0.000011
C13	C	1.472288	0.109390	-0.000014
C14	C	1.308529	0.106989	-0.000014
C15	C	1.884563	-0.141684	0.000015
C16	C	1.882310	-0.214149	0.000003
C17	C	1.746738	-0.242949	0.000002
C18	C	1.613409	-0.199278	-0.000006
C19	C	1.615666	-0.126815	-0.000002
C20	C	1.640149	-0.352066	0.043852
C21	C	1.637898	-0.424528	0.043853
C22	C	1.739773	-0.466448	-0.000015
C23	C	1.843923	-0.435900	-0.043873
C24	C	1.846180	-0.363437	-0.043868
C25	C	1.744276	-0.321522	-0.000003
C26	C	1.870651	-0.588685	-0.000025
C27	C	1.868392	-0.661150	-0.000041
C28	C	1.599488	-0.646278	-0.000043
C29	C	1.601750	-0.573814	-0.000034
C30	C	1.737335	-0.545022	-0.000021
C31	C	2.011782	0.102642	-0.000014
C32	C	2.175541	0.105043	-0.000019
C33	C	1.730421	0.232933	-0.000032
C34	C	1.732819	0.310055	-0.000043
N35	N	1.741989	0.106007	0.178142
N36	N	1.742093	0.106019	-0.178168
C37	C	1.842627	0.059444	0.217536
C38	C	1.842635	0.059440	0.296338
C39	C	1.742020	0.106013	0.335743
C40	C	1.641364	0.152581	0.296339
C41	C	1.641349	0.152578	0.217539
C42	C	1.722271	0.169148	0.460571
C43	C	1.722297	0.169151	0.539370
C44	C	1.742060	0.106022	0.578789
C45	C	1.761829	0.042886	0.539400
C46	C	1.761813	0.042883	0.460599
C47	C	1.742026	0.106021	0.421189
C48	C	1.842712	0.059451	0.703629
C49	C	1.842710	0.059447	0.782432
C50	C	1.641446	0.152593	0.782432
C51	C	1.641441	0.152591	0.703630
C52	C	1.742082	0.106021	0.664234
H53	H	1.994967	-0.118247	0.000023
H54	H	1.706209	0.220560	0.571435
Cl55	Cl	1.514928	0.211135	0.654102
H56	H	1.706152	0.220558	0.428483
Cl57	Cl	1.434148	-0.518922	-0.000036
H58	H	1.559396	0.190496	0.185464
H59	H	1.553086	-0.449394	0.079560
H60	H	1.489102	-0.669726	-0.000048
H61	H	1.924657	0.021525	0.814507
Cl62	Cl	1.512068	-0.299372	0.099008
H63	H	1.559519	0.190510	0.814515
Cl64	Cl	2.049914	-0.269047	0.000008
Cl65	Cl	1.514871	0.211127	0.345875
H66	H	1.930980	-0.338567	-0.079581
H67	H	1.503025	-0.222732	-0.000009
Cl68	Cl	2.036000	-0.716040	-0.000041
H69	H	1.981053	-0.565241	-0.000017
Cl70	Cl	1.972002	-0.488592	-0.099026
H71	H	1.777905	-0.008524	0.428531
H72	H	1.507104	-0.091265	-0.000005
H73	H	1.924589	0.021521	0.328419
Cl74	Cl	1.969135	0.000896	0.168009
H75	H	1.777921	-0.008520	0.571493
H76	H	1.924655	0.021528	0.671551
