data_functionalizedCrystal
_audit_creation_method	'MofGen! by Chris Wilmer'
_symmetry_space_group_name_H-M	'P1'
_symmetry_Int_Tables_number	1
_symmetry_cell_setting	triclinic
loop_
_symmetry_equiv_pos_as_xyz
  x,y,z
_cell_length_a	16.974800
_cell_length_b	14.519709
_cell_length_c	16.053802
_cell_angle_alpha	92.569364
_cell_angle_beta	91.074188
_cell_angle_gamma	83.534829
loop_
_atom_site_label
_atom_site_type_symbol
_atom_site_fract_x
_atom_site_fract_y
_atom_site_fract_z
O1	O	1.049243	0.117559	0.001491
O2	O	0.819801	0.131676	-0.014020
O3	O	0.940605	-0.009617	-0.005846
O4	O	0.928439	0.258852	-0.006683
O5	O	0.933956	-0.001872	0.132563
O6	O	0.813152	0.139421	0.124389
O7	O	1.042594	0.125304	0.139900
Zn8	Zn	0.926817	0.133592	0.154120
Zn9	Zn	0.935578	0.123388	-0.028240
O10	O	0.921790	0.266597	0.131726
C11	C	0.787113	0.134870	0.053200
C12	C	0.699617	0.132836	0.047285
C13	C	0.654892	0.136101	0.119955
C14	C	0.572682	0.134175	0.114400
C15	C	0.535198	0.128992	0.036174
C16	C	0.579930	0.125725	-0.036501
C17	C	0.662139	0.127644	-0.030945
C18	C	0.289719	0.122795	0.011468
C19	C	0.207504	0.120879	0.005917
C20	C	0.200261	0.129328	0.156819
C21	C	0.282472	0.131252	0.162368
C22	C	0.327197	0.127979	0.089693
N23	N	0.451166	0.127027	0.030494
N24	N	0.411228	0.129938	0.095374
C25	C	0.936713	-0.040105	0.063320
C26	C	0.935014	-0.142487	0.063206
C27	C	0.928760	-0.517387	0.062762
C28	C	0.930497	-0.413078	0.062885
C29	C	0.931887	-0.329940	0.062985
C30	C	0.933624	-0.225625	0.063107
C31	C	1.075282	0.122110	0.072678
C32	C	1.162778	0.124143	0.078587
C33	C	0.925682	0.297085	0.062558
C34	C	0.927381	0.399467	0.062666
N35	N	0.920844	0.140556	0.278576
N36	N	0.941558	0.116417	-0.152696
C37	C	0.972265	0.080457	0.325749
C38	C	0.968094	0.085337	0.412874
C39	C	0.912505	0.150321	0.452824
C40	C	0.861078	0.210423	0.405644
C41	C	0.865246	0.205538	0.318521
C42	C	0.894299	0.171633	0.713001
C43	C	0.890137	0.176516	0.800131
C44	C	0.997151	0.051428	0.807355
C45	C	1.001317	0.046553	0.720230
C46	C	0.949888	0.106651	0.673058
N47	N	0.908242	0.155313	0.541879
N48	N	0.954148	0.101654	0.584004
H49	H	0.536271	0.136818	0.173576
H50	H	0.312985	0.135468	0.226068
O51	O	0.543392	0.120731	-0.112424
C52	C	0.419962	0.113981	-0.187862
C53	C	0.461237	0.119655	-0.101825
H54	H	0.353536	0.113089	-0.179322
H55	H	0.430729	0.176769	-0.224478
H56	H	0.445083	0.047809	-0.223487
H57	H	0.436142	0.185787	-0.066131
H58	H	0.450474	0.056820	-0.065272
O59	O	0.705465	0.124513	-0.101620
C60	C	0.703983	0.115883	-0.251879
C61	C	0.654820	0.119448	-0.171905
H62	H	0.663060	0.111768	-0.308725
H63	H	0.735505	0.181064	-0.253593
H64	H	0.749796	0.052107	-0.252519
H65	H	0.608967	0.183183	-0.171212
H66	H	0.623354	0.054224	-0.170223
O67	O	1.026288	0.017249	0.287077
C68	C	1.132019	-0.106272	0.303449
C69	C	1.070864	-0.034743	0.347348
H70	H	1.168087	-0.148313	0.352159
H71	H	1.099922	-0.154799	0.260397
H72	H	1.173363	-0.068604	0.265284
H73	H	1.029504	-0.072333	0.385557
H74	H	1.103014	0.013781	0.390350
H75	H	0.163838	0.131990	0.215987
H76	H	0.176987	0.116661	-0.057787
O77	O	1.017939	0.026869	0.458723
C78	C	1.029857	-0.093486	0.558255
C79	C	0.973314	-0.027332	0.506366
H80	H	0.993800	-0.137311	0.596800
H81	H	1.070292	-0.140828	0.514768
H82	H	1.067345	-0.051241	0.601657
H83	H	0.935774	-0.069502	0.462959
H84	H	0.932932	0.020012	0.549901
H85	H	0.326125	0.120127	-0.047710
O86	O	0.691179	0.141095	0.196011
C87	C	0.675304	0.149317	0.345097
C88	C	0.634114	0.143645	0.259016
H89	H	0.629183	0.151401	0.396059
H90	H	0.720714	0.085932	0.352011
H91	H	0.706511	0.214891	0.350945
H92	H	0.602862	0.078111	0.253109
H93	H	0.588747	0.207077	0.252140
H94	H	1.046582	-0.006363	0.687705
H95	H	0.823373	0.254476	0.280113
O96	O	1.047069	-0.007087	0.853086
C97	C	1.091704	-0.165812	0.882900
C98	C	1.035147	-0.099641	0.831040
H99	H	1.082073	-0.240654	0.865107
H100	H	1.155684	-0.154644	0.870010
H101	H	1.079186	-0.151113	0.952027
H102	H	1.047593	-0.114299	0.761897
H103	H	0.971185	-0.110822	0.844001
H104	H	0.844867	0.229438	0.832654
H105	H	0.852425	0.220570	0.674600
O106	O	0.807149	0.273522	0.444583
C107	C	0.753271	0.336453	0.575594
C108	C	0.814395	0.264961	0.531606
H109	H	0.759098	0.329543	0.645959
H110	H	0.764458	0.409415	0.559210
H111	H	0.690961	0.323284	0.554165
H112	H	0.876729	0.278043	0.553011
H113	H	0.803139	0.192023	0.547990
