data_functionalizedCrystal
_audit_creation_method	'MofGen! by Chris Wilmer'
_symmetry_space_group_name_H-M	'P1'
_symmetry_Int_Tables_number	1
_symmetry_cell_setting	triclinic
loop_
_symmetry_equiv_pos_as_xyz
  x,y,z
_cell_length_a	19.805407
_cell_length_b	16.625545
_cell_length_c	19.805399
_cell_angle_alpha	89.974422
_cell_angle_beta	89.982197
_cell_angle_gamma	90.022874
loop_
_atom_site_label
_atom_site_type_symbol
_atom_site_fract_x
_atom_site_fract_y
_atom_site_fract_z
Zn1	Zn	1.034740	-0.321078	-0.382697
Zn2	Zn	1.534740	0.178922	0.117303
Zn3	Zn	1.034656	-0.455915	-0.269513
Zn4	Zn	1.534656	0.044085	0.230487
Zn5	Zn	0.921554	-0.321094	-0.269525
Zn6	Zn	1.421554	0.178906	0.230475
Zn7	Zn	0.921519	-0.455866	-0.382663
Zn8	Zn	1.421519	0.044134	0.117337
O9	O	0.978117	-0.388488	-0.326100
O10	O	1.478117	0.111512	0.173900
O11	O	1.129445	-0.338978	-0.367692
O12	O	1.629445	0.161022	0.132308
O13	O	1.019633	-0.438058	-0.174798
O14	O	1.519633	0.061942	0.325202
O15	O	0.936618	-0.208259	-0.284557
O16	O	1.436618	0.291741	0.215443
O17	O	1.129384	-0.438043	-0.284536
O18	O	1.629384	0.061957	0.215464
O19	O	1.019775	-0.208248	-0.367704
O20	O	1.519775	0.291752	0.132296
O21	O	0.936537	-0.339006	-0.174807
O22	O	1.436537	0.160994	0.325193
O23	O	0.826833	-0.338958	-0.284524
O24	O	1.326833	0.161042	0.215476
O25	O	0.936559	-0.437959	-0.477384
O26	O	1.436559	0.062041	0.022616
O27	O	0.826808	-0.437974	-0.367646
O28	O	1.326808	0.062026	0.132354
O29	O	1.019741	-0.338931	-0.477409
O30	O	1.519741	0.161069	0.022591
O31	O	1.019599	-0.568741	-0.284503
O32	O	1.519599	-0.068741	0.215497
O33	O	0.936478	-0.568705	-0.367634
O34	O	1.436478	-0.068705	0.132366
C35	C	0.802261	-0.388463	-0.326083
C36	C	1.302261	0.111537	0.173917
C37	C	0.727029	-0.388472	-0.326092
C38	C	1.227029	0.111528	0.173908
C39	C	0.691718	-0.336980	-0.369457
C40	C	1.191718	0.163020	0.130543
C41	C	0.621029	-0.336984	-0.369460
C42	C	1.121029	0.163016	0.130540
C43	C	0.585654	-0.388485	-0.326100
C44	C	1.085654	0.111515	0.173900
C45	C	0.620970	-0.439979	-0.282730
C46	C	1.120970	0.060021	0.217270
C47	C	0.691658	-0.439970	-0.282725
C48	C	1.191658	0.060030	0.217275
C49	C	0.335897	-0.440015	-0.282751
C50	C	0.835897	0.059985	0.217249
C51	C	0.265205	-0.440022	-0.282761
C52	C	0.765205	0.059978	0.217239
C53	C	0.265269	-0.337030	-0.369486
C54	C	0.765269	0.162970	0.130514
C55	C	0.335956	-0.337021	-0.369481
C56	C	0.835956	0.162979	0.130519
C57	C	0.371266	-0.388511	-0.326108
C58	C	0.871266	0.111489	0.173892
C59	C	0.447915	-0.388505	-0.326105
C60	C	0.947915	0.111495	0.173895
C61	C	0.509007	-0.388496	-0.326106
C62	C	1.009007	0.111504	0.173894
C63	C	0.978044	-0.597979	-0.326078
C64	C	1.478044	-0.097979	0.173922
C65	C	0.978074	-0.687600	-0.326092
C66	C	1.478074	-0.187600	0.173908
C67	C	0.978101	-0.760383	-0.326105
C68	C	1.478101	-0.260383	0.173895
C69	C	0.978140	-0.851691	-0.326120
C70	C	1.478140	-0.351691	0.173880
C71	C	0.978175	-0.924468	-0.326129
C72	C	1.478175	-0.424468	0.173871
C73	C	0.978214	-1.015782	-0.326143
C74	C	1.478214	-0.515782	0.173857
C75	C	1.154660	-0.388514	-0.326116
C76	C	1.654660	0.111486	0.173884
C77	C	1.229892	-0.388525	-0.326124
C78	C	1.729892	0.111475	0.173876
C79	C	0.978155	-0.388438	-0.502642
C80	C	1.478155	0.111562	-0.002642
C81	C	0.978172	-0.388416	-0.577874
C82	C	1.478172	0.111584	-0.077874
C83	C	0.978210	-0.178179	-0.326136
C84	C	1.478210	0.321821	0.173864
C85	C	0.978249	-0.088558	-0.326151
C86	C	1.478249	0.411442	0.173849
C87	C	1.021486	-0.336849	-0.613233
C88	C	1.521486	0.163151	-0.113233
C89	C	1.021493	-0.336826	-0.683921
C90	C	1.521493	0.163174	-0.183921
C91	C	0.978188	-0.388374	-0.719250
C92	C	1.478188	0.111626	-0.219250
C93	C	0.934870	-0.439943	-0.683887
C94	C	1.434870	0.060057	-0.183887
C95	C	0.934860	-0.439961	-0.613200
C96	C	1.434860	0.060039	-0.113200
C97	C	0.934908	-0.439867	-0.968960
C98	C	1.434908	0.060133	-0.468960
C99	C	0.934922	-0.439846	-1.039652
C100	C	1.434922	0.060154	-0.539652
C101	C	1.021541	-0.336732	-1.039682
C102	C	1.521541	0.163268	-0.539682
C103	C	1.021531	-0.336751	-0.968995
C104	C	1.521531	0.163249	-0.468995
C105	C	0.978210	-0.388316	-0.933637
C106	C	1.478210	0.111684	-0.433637
C107	C	0.978202	-0.388340	-0.856989
C108	C	1.478202	0.111660	-0.356989
C109	C	0.978199	-0.388355	-0.795897
C110	C	1.478199	0.111645	-0.295897
C111	C	0.978119	-0.388481	-0.150244
C112	C	1.478119	0.111519	0.349756
C113	C	0.978234	-0.388275	-0.075012
C114	C	1.478234	0.111725	0.424988
H115	H	0.592282	-0.295056	-0.404773
H116	H	1.092282	0.204944	0.095227
O117	O	1.063595	-0.286844	-0.718347
O118	O	1.563595	0.213156	-0.218347
C119	C	1.107305	-0.332740	-0.759230
C120	C	1.607305	0.167260	-0.259230
H121	H	1.083411	-0.393840	-0.769801
H122	H	1.583411	0.106160	-0.269801
H123	H	1.116386	-0.299882	-0.808946
H124	H	1.616386	0.200118	-0.308946
H125	H	1.157462	-0.341608	-0.732003
H126	H	1.657462	0.158392	-0.232003
H127	H	0.899608	-0.481911	-0.712657
H128	H	1.399608	0.018089	-0.212657
O129	O	0.892855	-0.489886	-0.934516
O130	O	1.392855	0.010114	-0.434516
C131	C	0.902138	-0.478868	-0.864549
C132	C	1.402138	0.021132	-0.364549
H133	H	0.924328	-0.416648	-0.854906
H134	H	1.424328	0.083352	-0.354906
H135	H	0.851431	-0.484342	-0.837678
H136	H	1.351431	0.015658	-0.337678
H137	H	0.938159	-0.526704	-0.844487
H138	H	1.438159	-0.026704	-0.344487
O139	O	0.230915	-0.490160	-0.240669
O140	O	0.730915	0.009840	0.259331
C141	C	0.248160	-0.570547	-0.255344
C142	C	0.748160	-0.070547	0.244656
H143	H	0.299496	-0.572257	-0.281352
H144	H	0.799496	-0.072257	0.218648
H145	H	0.250546	-0.606619	-0.206438
H146	H	0.750546	-0.106619	0.293562
H147	H	0.208386	-0.597767	-0.290107
H148	H	0.708386	-0.097767	0.209893
O149	O	0.370263	-0.490078	-0.240720
O150	O	0.870263	0.009922	0.259280
C151	C	0.411141	-0.542226	-0.279174
C152	C	0.911141	-0.042226	0.220826
H153	H	0.421766	-0.513865	-0.330506
H154	H	0.921766	-0.013865	0.169494
H155	H	0.460831	-0.552991	-0.251580
H156	H	0.960831	-0.052991	0.248420
H157	H	0.383882	-0.601990	-0.286531
H158	H	0.883882	-0.101990	0.213469
O159	O	0.892787	-0.489945	-1.073867
O160	O	1.392787	0.010055	-0.573867
C161	C	0.854559	-0.535475	-1.027504
C162	C	1.354559	-0.035475	-0.527504
H163	H	0.852221	-0.502464	-0.977120
H164	H	1.352221	-0.002464	-0.477120
H165	H	0.801230	-0.544056	-1.047922
H166	H	1.301230	-0.044056	-0.547922
H167	H	0.879311	-0.596722	-1.019978
H168	H	1.379311	-0.096722	-0.519978
O169	O	0.726037	-0.490030	-0.240696
O170	O	1.226037	0.009970	0.259304
C171	C	0.766916	-0.542176	-0.279151
C172	C	1.266916	-0.042176	0.220849
H173	H	0.777531	-0.513818	-0.330487
H174	H	1.277531	-0.013818	0.169513
H175	H	0.816610	-0.552929	-0.251562
H176	H	1.316610	-0.052929	0.248438
H177	H	0.739663	-0.601945	-0.286501
H178	H	1.239663	-0.101945	0.213499
H179	H	0.899582	-0.481944	-0.584412
H180	H	1.399582	0.018056	-0.084412
H181	H	1.056796	-0.294778	-0.940233
H182	H	1.556796	0.205222	-0.440233
O183	O	1.063585	-0.286521	-1.073954
O184	O	1.563585	0.213479	-0.573954
C185	C	1.048817	-0.206161	-1.056701
C186	C	1.548817	0.293839	-0.556701
H187	H	1.022791	-0.204503	-1.005374
H188	H	1.522791	0.295497	-0.505374
H189	H	1.097683	-0.170016	-1.054295
H190	H	1.597683	0.329984	-0.554295
H191	H	1.014038	-0.178982	-1.096483
H192	H	1.514038	0.321018	-0.596483
H193	H	0.720516	-0.295045	-0.404768
H194	H	1.220516	0.204955	0.095232
H195	H	0.364755	-0.295086	-0.404791
H196	H	0.864755	0.204914	0.095209
H197	H	0.236511	-0.295101	-0.404800
H198	H	0.736511	0.204899	0.095200
O199	O	0.586578	-0.490092	-0.240707
O200	O	1.086578	0.009908	0.259293
C201	C	0.545681	-0.542223	-0.279169
C202	C	1.045681	-0.042223	0.220831
H203	H	0.567004	-0.547284	-0.332468
H204	H	1.067004	-0.047284	0.167532
H205	H	0.544853	-0.604236	-0.254597
H206	H	1.044853	-0.104236	0.245403
H207	H	0.492115	-0.517303	-0.281544
H208	H	0.992115	-0.017303	0.218456
O209	O	1.063574	-0.286699	-0.579022
O210	O	1.563574	0.213301	-0.079022
C211	C	1.101816	-0.241194	-0.625392
C212	C	1.601816	0.258806	-0.125392
H213	H	1.074100	-0.238386	-0.675775
H214	H	1.574100	0.261614	-0.175775
H215	H	1.109061	-0.177672	-0.604982
H216	H	1.609061	0.322328	-0.104982
H217	H	1.153210	-0.270726	-0.632913
H218	H	1.653210	0.229274	-0.132913
