data_functionalizedCrystal
_audit_creation_method	'MofGen! by Chris Wilmer'
_symmetry_space_group_name_H-M	'P1'
_symmetry_Int_Tables_number	1
_symmetry_cell_setting	triclinic
loop_
_symmetry_equiv_pos_as_xyz
  x,y,z
_cell_length_a	12.759400
_cell_length_b	12.759401
_cell_length_c	12.827885
_cell_angle_alpha	90.019081
_cell_angle_beta	89.969316
_cell_angle_gamma	89.987402
loop_
_atom_site_label
_atom_site_type_symbol
_atom_site_fract_x
_atom_site_fract_y
_atom_site_fract_z
Zn1	Zn	-0.418272	-1.606253	-0.590833
Zn2	Zn	-0.593988	-1.606148	-0.416091
Zn3	Zn	-0.418317	-1.430556	-0.416108
Zn4	Zn	-0.593903	-1.430544	-0.590792
O5	O	-0.506120	-1.518375	-0.503456
O6	O	-0.441598	-1.753260	-0.567663
O7	O	-0.570740	-1.582817	-0.269857
O8	O	-0.271290	-1.453911	-0.439309
O9	O	-0.570696	-1.753183	-0.439281
O10	O	-0.271257	-1.582995	-0.567679
O11	O	-0.441675	-1.453810	-0.269869
O12	O	-0.441593	-1.283533	-0.439270
O13	O	-0.570551	-1.453891	-0.737034
O14	O	-0.570595	-1.283524	-0.567610
O15	O	-0.441515	-1.582984	-0.737064
O16	O	-0.740998	-1.582805	-0.439241
O17	O	-0.740935	-1.453789	-0.567594
C18	C	-0.506090	-1.245408	-0.503438
C19	C	-0.506103	-1.128631	-0.503455
C20	C	-0.573379	-1.073792	-0.570170
C21	C	-0.573388	-0.964068	-0.570180
C22	C	-0.438841	-0.964032	-0.436750
C23	C	-0.438827	-1.073754	-0.436746
C24	C	-0.640654	-1.128669	-0.636879
C25	C	-0.707938	-1.073830	-0.703598
C26	C	-0.707947	-0.964106	-0.703608
C27	C	-0.640672	-0.909221	-0.636898
C28	C	-0.779088	-1.518313	-0.503434
C29	C	-0.895864	-1.518382	-0.503460
C30	C	-0.950724	-1.585635	-0.436701
C31	C	-1.060448	-1.585700	-0.436733
C32	C	-1.060443	-1.451249	-0.570286
C33	C	-0.950721	-1.451191	-0.570258
C34	C	-0.895867	-1.652827	-0.369902
C35	C	-0.950727	-1.720084	-0.303137
C36	C	-1.060451	-1.720149	-0.303169
C37	C	-1.115315	-1.652956	-0.369966
C38	C	-0.232087	-1.518466	-0.503501
C39	C	-0.115310	-1.518505	-0.503520
C40	C	-0.506018	-1.518448	-0.776026
C41	C	-0.505975	-1.518478	-0.892179
C42	C	-0.506141	-0.792408	-0.503471
C43	C	-0.506125	-0.909185	-0.503468
C44	C	-0.569800	-1.454620	-0.943949
C45	C	-0.569756	-1.454650	-1.064000
C46	C	-0.506146	-1.518363	-0.231946
C47	C	-0.505893	-1.518536	-0.115793
H48	H	-0.762703	-1.118524	-0.757918
H49	H	-0.624392	-1.399971	-1.108521
H50	H	-1.105122	-1.396543	-0.624669
H51	H	-0.451304	-1.573176	-0.936734
H52	H	-0.451243	-1.573206	-1.071279
O53	O	-0.634931	-1.389400	-0.890645
C54	C	-0.694437	-1.329980	-0.722392
C55	C	-0.620602	-1.403880	-0.782625
H56	H	-0.682893	-1.341677	-0.635048
H57	H	-0.675987	-1.245233	-0.743707
H58	H	-0.779155	-1.348375	-0.743841
H59	H	-0.535859	-1.385580	-0.761208
H60	H	-0.639143	-1.488605	-0.761305
O61	O	-0.773396	-0.910996	-0.768453
C62	C	-0.906805	-0.922619	-0.900838
C63	C	-0.832748	-0.982892	-0.827439
H64	H	-0.954795	-0.980720	-0.948563
H65	H	-0.961757	-0.871252	-0.852817
H66	H	-0.858626	-0.871249	-0.955525
H67	H	-0.880843	-1.034318	-0.772738
H68	H	-0.777794	-1.034193	-0.875524
O69	O	-0.640813	-0.802635	-0.637039
C70	C	-0.714531	-0.645198	-0.710381
C71	C	-0.714512	-0.765902	-0.710294
H72	H	-0.774095	-0.615463	-0.769618
H73	H	-0.736286	-0.615269	-0.629464
H74	H	-0.633159	-0.615502	-0.732174
H75	H	-0.795859	-0.795688	-0.688546
H76	H	-0.692698	-0.795760	-0.791221
O77	O	-0.897586	-1.385769	-0.635146
C78	C	-0.909150	-1.252482	-0.767680
C79	C	-0.969456	-1.326492	-0.694220
H80	H	-0.967231	-1.204553	-0.815476
H81	H	-0.857881	-1.197472	-0.719703
H82	H	-0.857680	-1.300694	-0.822298
H83	H	-1.020983	-1.278365	-0.639587
H84	H	-1.020659	-1.381505	-0.742261
H85	H	-0.640657	-1.218012	-0.636876
H86	H	-0.384037	-1.118405	-0.382429
O87	O	-0.373605	-0.910557	-0.371975
C88	C	-0.313972	-0.741506	-0.312877
C89	C	-0.387915	-0.801933	-0.386277
H90	H	-0.325500	-0.653673	-0.324430
H91	H	-0.332326	-0.762972	-0.228560
H92	H	-0.229283	-0.763151	-0.331353
H93	H	-0.472629	-0.780321	-0.367895
H94	H	-0.369470	-0.780462	-0.470572
O95	O	-1.113891	-1.785368	-0.238327
C96	C	-1.237927	-1.799749	-0.097341
C97	C	-1.177473	-1.725752	-0.170693
H98	H	-1.289331	-1.751578	-0.042625
H99	H	-1.289252	-1.854633	-0.145401
H100	H	-1.179885	-1.847825	-0.049643
H101	H	-1.235439	-1.677607	-0.218406
H102	H	-1.126132	-1.670938	-0.122573
O103	O	-0.897389	-1.785204	-0.238144
C104	C	-0.773568	-1.799340	-0.097073
C105	C	-0.833923	-1.725471	-0.170595
H106	H	-0.722225	-1.751077	-0.042455
H107	H	-0.831581	-1.847404	-0.049288
H108	H	-0.722161	-1.854241	-0.145104
H109	H	-0.885332	-1.670507	-0.122644
H110	H	-0.775854	-1.677481	-0.218383
H111	H	-0.806524	-1.652779	-0.369865
H112	H	-1.204660	-1.653022	-0.369996
