data_functionalizedCrystal
_audit_creation_method	'MofGen! by Chris Wilmer'
_symmetry_space_group_name_H-M	'P1'
_symmetry_Int_Tables_number	1
_symmetry_cell_setting	triclinic
loop_
_symmetry_equiv_pos_as_xyz
  x,y,z
_cell_length_a	10.723022
_cell_length_b	15.944551
_cell_length_c	9.198806
_cell_angle_alpha	89.995864
_cell_angle_beta	89.996352
_cell_angle_gamma	83.982982
loop_
_atom_site_label
_atom_site_type_symbol
_atom_site_fract_x
_atom_site_fract_y
_atom_site_fract_z
O1	O	1.655701	0.117802	-0.120886
O2	O	2.155701	0.617802	0.379114
O3	O	1.292405	0.129080	-0.120892
O4	O	1.792405	0.629080	0.379108
O5	O	1.483974	0.001223	-0.120876
O6	O	1.983974	0.501223	0.379124
O7	O	1.464132	0.245659	-0.120902
O8	O	1.964132	0.745659	0.379098
O9	O	1.483959	0.001222	0.120909
O10	O	1.983959	0.501222	0.620909
O11	O	1.292390	0.129079	0.120893
O12	O	1.792390	0.629079	0.620893
O13	O	1.655685	0.117801	0.120899
O14	O	2.155685	0.617801	0.620899
Cu15	Cu	1.474037	0.123440	0.142973
Cu16	Cu	1.974037	0.623440	0.642973
Cu17	Cu	1.474054	0.123441	-0.142966
Cu18	Cu	1.974054	0.623441	0.357034
O19	O	1.464117	0.245659	0.120883
O20	O	1.964117	0.745659	0.620883
C21	C	1.245909	0.128259	0.000000
C22	C	1.745909	0.628259	0.500000
C23	C	1.107385	0.125804	-0.000001
C24	C	1.607385	0.625804	0.499999
C25	C	0.888335	0.194808	-0.000012
C26	C	1.388335	0.694808	0.499988
C27	C	1.031506	0.197346	-0.000010
C28	C	1.531506	0.697346	0.499990
C29	C	1.483143	-0.030076	0.000017
C30	C	1.983143	0.469924	0.500017
C31	C	1.480673	-0.123336	0.000018
C32	C	1.980673	0.376664	0.500018
C33	C	1.356027	-0.338906	-0.000004
C34	C	1.856027	0.161094	0.499996
C35	C	1.413901	-0.399592	0.119211
C36	C	1.913901	0.100408	0.619211
C37	C	1.476206	-0.294088	0.000006
C38	C	1.976206	0.205912	0.500006
C39	C	1.413945	-0.399575	-0.119170
C40	C	1.913945	0.100425	0.380830
C41	C	1.471881	-0.459025	-0.000011
C42	C	1.971881	0.040975	0.499989
C43	C	1.534112	-0.353546	0.119320
C44	C	2.034112	0.146454	0.619320
C45	C	1.534139	-0.353522	-0.119168
C46	C	2.034139	0.146478	0.380832
C47	C	1.592100	-0.414191	0.000077
C48	C	2.092100	0.085809	0.500077
C49	C	1.478693	-0.199071	0.000018
C50	C	1.978693	0.300929	0.500018
C51	C	1.469403	-0.554040	-0.000011
C52	C	1.969403	-0.054040	0.499989
C53	C	1.702182	0.118622	0.000003
C54	C	2.202182	0.618622	0.500003
C55	C	1.840706	0.121077	-0.000005
C56	C	2.340706	0.621077	0.499995
C57	C	1.464948	0.276957	-0.000013
C58	C	1.964948	0.776957	0.499987
C59	C	1.467418	0.370218	-0.000024
C60	C	1.967418	0.870218	0.499976
N61	N	1.474033	0.123440	0.344087
N62	N	1.974033	0.623440	0.844087
N63	N	1.474068	0.123435	-0.344080
N64	N	1.974068	0.623435	0.155920
C65	C	1.554470	0.069519	0.416290
C66	C	2.054470	0.569519	0.916290
C67	C	1.554489	0.069516	0.583703
C68	C	2.054489	0.569516	1.083703
H69	H	0.823119	0.256052	-0.000028
H70	H	1.323119	0.756052	0.499972
Br71	Br	1.668917	-0.007636	0.312763
Br72	Br	2.168917	0.492364	0.812763
H73	H	1.363105	-0.419943	-0.219964
H74	H	1.863105	0.080057	0.280036
H75	H	1.623360	0.023356	0.645795
H76	H	2.123360	0.523356	1.145795
H77	H	1.405203	0.169604	0.593837
H78	H	1.905203	0.669604	1.093837
H79	H	1.405177	0.169598	0.406209
H80	H	1.905177	0.669598	0.906209
H81	H	1.584894	-0.333265	0.220218
H82	H	2.084894	0.166735	0.720218
H83	H	1.256274	-0.306169	0.000113
H84	H	1.756274	0.193831	0.500113
Br85	Br	1.099856	0.302570	-0.000003
Br86	Br	1.599856	0.802570	0.499997
Br87	Br	1.758506	-0.468508	0.000181
Br88	Br	2.258506	0.031492	0.500181
Br89	Br	1.039044	0.020578	0.000026
Br90	Br	1.539044	0.520578	0.500026
Br91	Br	1.618802	-0.319483	-0.287161
Br92	Br	2.118802	0.180517	0.212839
H93	H	0.905922	0.059833	-0.000006
H94	H	1.405922	0.559833	0.499994
Br95	Br	1.329176	-0.433592	0.287198
Br96	Br	1.829176	0.066408	0.787198
