data_functionalizedCrystal
_audit_creation_method	'MofGen! by Chris Wilmer'
_symmetry_space_group_name_H-M	'P1'
_symmetry_Int_Tables_number	1
_symmetry_cell_setting	triclinic
loop_
_symmetry_equiv_pos_as_xyz
  x,y,z
_cell_length_a	11.792241
_cell_length_b	13.596369
_cell_length_c	11.792241
_cell_angle_alpha	89.999475
_cell_angle_beta	95.806584
_cell_angle_gamma	90.001745
loop_
_atom_site_label
_atom_site_type_symbol
_atom_site_fract_x
_atom_site_fract_y
_atom_site_fract_z
O1	O	1.506912	0.081696	-0.155560
O2	O	1.840245	0.415030	0.177773
O3	O	2.173579	0.748363	0.511106
O4	O	1.176571	0.081719	-0.171593
O5	O	1.509904	0.415053	0.161740
O6	O	1.843237	0.748386	0.495073
O7	O	1.349758	0.081700	0.001594
O8	O	1.683091	0.415034	0.334927
O9	O	2.016424	0.748367	0.668260
O10	O	1.333725	0.081715	-0.328747
O11	O	1.667058	0.415049	0.004586
O12	O	2.000392	0.748382	0.337919
O13	O	1.349736	-0.081883	0.001584
O14	O	1.683070	0.251451	0.334918
O15	O	2.016403	0.584784	0.668251
O16	O	1.176549	-0.081864	-0.171603
O17	O	1.509883	0.251470	0.161731
O18	O	1.843216	0.584803	0.495064
O19	O	1.506890	-0.081887	-0.155570
O20	O	1.840224	0.251447	0.177763
O21	O	2.173557	0.584780	0.511097
Zn22	Zn	1.341717	-0.107847	-0.163588
Zn23	Zn	1.675050	0.225486	0.169746
Zn24	Zn	2.008383	0.558819	0.503079
Zn25	Zn	1.341745	0.107680	-0.163575
Zn26	Zn	1.675078	0.441013	0.169758
Zn27	Zn	2.008411	0.774347	0.503091
O28	O	1.333704	-0.081868	-0.328757
O29	O	1.667037	0.251466	0.004576
O30	O	2.000370	0.584799	0.337910
C31	C	1.134269	-0.000069	-0.170591
C32	C	1.467603	0.333264	0.162742
C33	C	1.800936	0.666597	0.496076
C34	C	1.008255	-0.000061	-0.167576
C35	C	1.341589	0.333273	0.165757
C36	C	1.674922	0.666606	0.499090
C37	C	0.777543	-0.000089	-0.162034
C38	C	1.110877	0.333244	0.171300
C39	C	1.444210	0.666577	0.504633
C40	C	0.905928	-0.000074	-0.165113
C41	C	1.239262	0.333260	0.168220
C42	C	1.572595	0.666593	0.501553
N43	N	1.341706	-0.254939	-0.163596
N44	N	1.675039	0.078394	0.169738
N45	N	2.008372	0.411727	0.503071
C46	C	1.341711	-0.343937	-0.163598
C47	C	1.675045	-0.010604	0.169735
C48	C	2.008378	0.322730	0.503068
C49	C	1.341722	-0.455589	-0.163591
C50	C	1.675056	-0.122255	0.169743
C51	C	2.008389	0.211078	0.503076
C52	C	1.341737	-0.544579	-0.163578
C53	C	1.675070	-0.211246	0.169756
C54	C	2.008404	0.122088	0.503089
C55	C	1.341750	-0.656238	-0.163571
C56	C	1.675083	-0.322904	0.169762
C57	C	2.008417	0.010429	0.503096
C58	C	1.549192	-0.000096	-0.156572
C59	C	1.882525	0.333237	0.176761
C60	C	2.215859	0.666571	0.510094
C61	C	1.675206	-0.000098	-0.159587
C62	C	2.008539	0.333235	0.173747
C63	C	2.341873	0.666569	0.507080
C64	C	1.348740	-0.000091	0.043880
C65	C	1.682073	0.333243	0.377213
C66	C	2.015407	0.666576	0.710547
C67	C	1.345726	-0.000090	0.169894
C68	C	1.679059	0.333244	0.503227
C69	C	2.012392	0.666577	0.836560
N70	N	1.341765	0.254772	-0.163558
N71	N	1.675098	0.588105	0.169775
N72	N	2.008431	0.921439	0.503108
C73	C	1.334721	-0.000074	-0.371043
C74	C	1.668055	0.333259	-0.037710
C75	C	2.001388	0.666592	0.295624
C76	C	1.337736	-0.000069	-0.497057
C77	C	1.671069	0.333264	-0.163723
C78	C	2.004402	0.666598	0.169610
C79	C	1.340183	-0.000073	0.400606
C80	C	1.673516	0.333261	0.733939
C81	C	2.006849	0.666594	1.067272
C82	C	1.343262	-0.000082	0.272221
C83	C	1.676596	0.333251	0.605554
C84	C	2.009929	0.666585	0.938887
