data_functionalizedCrystal
_audit_creation_method	'MofGen! by Chris Wilmer'
_symmetry_space_group_name_H-M	'P1'
_symmetry_Int_Tables_number	1
_symmetry_cell_setting	triclinic
loop_
_symmetry_equiv_pos_as_xyz
  x,y,z
_cell_length_a	11.169417
_cell_length_b	25.639239
_cell_length_c	25.639233
_cell_angle_alpha	89.981253
_cell_angle_beta	89.989948
_cell_angle_gamma	90.039565
loop_
_atom_site_label
_atom_site_type_symbol
_atom_site_fract_x
_atom_site_fract_y
_atom_site_fract_z
Zn1	Zn	1.834610	-0.208202	-0.295573
Zn2	Zn	1.834434	-0.295621	-0.208138
Zn3	Zn	1.633930	-0.208203	-0.208156
Zn4	Zn	1.633804	-0.295610	-0.295546
O5	O	1.734195	-0.251909	-0.251853
O6	O	2.002536	-0.219803	-0.283979
O7	O	1.807816	-0.284030	-0.134975
O8	O	1.660677	-0.135037	-0.219771
O9	O	2.002407	-0.284029	-0.219740
O10	O	1.808116	-0.135037	-0.283996
O11	O	1.660507	-0.219804	-0.134988
O12	O	1.465964	-0.219793	-0.219745
O13	O	1.660462	-0.284010	-0.368715
O14	O	1.465871	-0.284011	-0.283950
O15	O	1.807994	-0.219792	-0.368735
O16	O	1.807694	-0.368785	-0.219714
O17	O	1.660292	-0.368776	-0.283932
C18	C	1.422370	-0.251901	-0.251846
C19	C	1.288970	-0.251910	-0.251856
C20	C	1.733993	-0.387751	-0.251829
C21	C	1.734016	-0.445866	-0.251836
C22	C	1.811147	-0.806220	-0.218472
C23	C	1.811194	-0.860825	-0.218479
O24	O	1.876564	-0.889054	-0.190084
N25	N	1.734406	-0.888148	-0.251888
C26	C	1.657575	-0.860864	-0.285296
O27	O	1.592265	-0.889119	-0.313714
C28	C	1.657535	-0.806261	-0.285291
C29	C	1.734320	-0.778940	-0.251876
C30	C	1.887927	-0.778900	-0.185059
C31	C	1.887878	-0.724299	-0.185052
C32	C	1.811050	-0.697019	-0.218456
C33	C	1.734271	-0.724340	-0.251869
C34	C	1.580711	-0.778978	-0.318702
C35	C	1.580679	-0.724371	-0.318694
C36	C	1.657463	-0.697051	-0.285279
C37	C	1.657395	-0.642459	-0.285266
N38	N	1.734183	-0.615136	-0.251856
C39	C	1.811011	-0.642416	-0.218452
C40	C	1.657665	-0.975535	-0.285304
C41	C	1.657698	-1.030137	-0.285307
C42	C	1.811319	-1.030094	-0.218490
C43	C	1.811279	-0.975490	-0.218485
C44	C	1.734453	-0.948211	-0.251895
C45	C	1.810903	-0.527751	-0.218438
C46	C	1.810844	-0.473145	-0.218432
C47	C	1.657228	-0.473194	-0.285251
C48	C	1.657282	-0.527794	-0.285255
C49	C	1.734129	-0.555071	-0.251847
O50	O	1.592062	-0.614195	-0.313647
O51	O	1.876320	-0.614155	-0.190043
C52	C	2.047237	-0.251917	-0.251860
C53	C	2.180637	-0.251921	-0.251863
C54	C	1.734233	-0.251900	-0.388226
C55	C	1.734250	-0.251896	-0.446340
C56	C	1.734430	-0.115536	-0.251889
C57	C	1.734530	-0.057422	-0.251904
C58	C	1.811167	-0.218358	-0.806720
C59	C	1.811182	-0.218344	-0.861324
O60	O	1.876482	-0.189890	-0.889574
N61	N	1.734382	-0.251773	-0.888623
C62	C	1.657554	-0.285216	-0.861315
O63	O	1.592231	-0.313648	-0.889549
C64	C	1.657534	-0.285227	-0.806712
C65	C	1.734347	-0.251799	-0.779415
C66	C	1.887973	-0.184933	-0.779423
C67	C	1.887959	-0.184948	-0.724823
C68	C	1.811140	-0.218389	-0.697518
C69	C	1.734334	-0.251814	-0.724815
C70	C	1.580701	-0.318666	-0.779404
C71	C	1.580687	-0.318675	-0.724797
C72	C	1.657500	-0.285247	-0.697501
C73	C	1.657501	-0.285271	-0.642910
N74	N	1.734300	-0.251841	-0.615611
C75	C	1.811120	-0.218400	-0.642915
C76	C	1.657601	-0.285188	-0.975986
C77	C	1.657626	-0.285180	-1.030588
C78	C	1.811252	-0.218307	-1.030593
C79	C	1.811232	-0.218319	-0.975990
C80	C	1.734400	-0.251759	-0.948686
C81	C	1.811086	-0.218435	-0.528250
C82	C	1.811069	-0.218455	-0.473645
C83	C	1.657439	-0.285325	-0.473644
C84	C	1.657460	-0.285308	-0.528245
C85	C	1.734288	-0.251858	-0.555546
O86	O	1.592230	-0.313708	-0.614625
O87	O	1.876421	-0.189967	-0.614674
C88	C	1.734225	-0.251880	-0.116011
C89	C	1.734441	-0.251737	-0.057897
H90	H	1.873371	-0.450903	-0.191219
O91	O	1.582913	-0.317853	-0.554708
C92	C	1.609066	-0.369970	-0.541379
H93	H	1.655195	-0.371071	-0.501736
H94	H	1.522405	-0.393411	-0.539507
H95	H	1.670742	-0.387571	-0.572114
O96	O	1.583143	-0.317706	-0.949407
C97	C	1.651408	-0.351494	-0.917831
H98	H	1.742385	-0.333056	-0.909649
H99	H	1.602492	-0.358514	-0.879434
H100	H	1.664545	-0.390233	-0.938874
O101	O	1.885585	-0.554162	-0.185935
C102	C	1.953353	-0.518330	-0.156456
H103	H	1.904154	-0.479433	-0.154629
H104	H	1.966231	-0.534113	-0.115265
H105	H	2.044471	-0.512471	-0.175633
O106	O	1.962593	-0.697845	-0.152581
C107	C	2.030387	-0.733641	-0.123096
H108	H	2.034517	-0.772552	-0.144520
H109	H	2.124952	-0.717832	-0.117557
H110	H	1.986514	-0.739485	-0.083369
H111	H	1.873778	-0.191098	-0.953769
H112	H	1.950495	-0.801105	-0.157857
O113	O	1.885984	-0.949034	-0.186011
C114	C	1.953770	-0.984828	-0.156519
H115	H	1.957913	-1.023739	-0.177942
H116	H	2.048332	-0.969017	-0.150974
H117	H	1.909882	-0.990672	-0.116795
H118	H	1.873880	-1.052315	-0.191292
H119	H	1.595161	-1.052377	-0.312512
O120	O	1.582779	-0.446663	-0.317755
C121	C	1.651054	-0.415024	-0.351530
H122	H	1.745582	-0.431442	-0.354793
H123	H	1.607596	-0.414398	-0.391753
H124	H	1.655192	-0.373649	-0.335356
H125	H	1.873624	-0.191233	-0.451422
O126	O	1.582994	-0.317833	-0.447053
C127	C	1.651271	-0.351616	-0.415476
H128	H	1.742260	-0.333180	-0.407312
H129	H	1.602381	-0.358621	-0.377071
H130	H	1.664382	-0.390362	-0.436510
O131	O	1.582907	-0.949119	-0.317773
C132	C	1.515170	-0.984949	-0.347267
H133	H	1.511089	-1.023881	-0.325850
H134	H	1.420583	-0.969217	-0.352808
H135	H	1.559060	-0.990722	-0.386994
H136	H	1.518179	-0.801213	-0.345910
H137	H	1.518119	-0.702163	-0.345903
O138	O	1.962718	-0.152430	-0.805861
C139	C	2.030470	-0.122925	-0.770049
H140	H	2.034552	-0.144354	-0.731125
H141	H	2.125055	-0.117349	-0.785818
H142	H	1.986592	-0.083215	-0.764245
H143	H	1.594761	-0.550040	-0.312466
O144	O	1.885832	-0.185928	-0.554685
C145	C	1.953591	-0.156424	-0.518875
H146	H	1.957683	-0.177854	-0.479952
H147	H	2.048172	-0.150846	-0.534648
H148	H	1.909712	-0.116715	-0.513067
H149	H	1.518152	-0.345887	-0.801620
H150	H	1.950506	-0.157726	-0.702603
O151	O	1.582906	-0.317673	-1.057019
C152	C	1.515130	-0.347199	-1.021204
H153	H	1.511009	-0.325791	-0.982284
H154	H	1.420561	-0.352772	-1.036974
H155	H	1.559013	-0.386910	-1.015394
O156	O	1.885750	-0.185832	-1.057203
C157	C	1.869301	-0.193000	-1.111249
H158	H	1.776657	-0.210127	-1.118697
H159	H	1.877492	-0.153832	-1.132007
H160	H	1.940453	-0.220836	-1.126748
O161	O	1.506027	-0.351216	-0.698357
C162	C	1.438227	-0.380707	-0.734163
H163	H	1.487391	-0.382500	-0.773088
H164	H	1.425365	-0.421908	-0.718389
H165	H	1.347103	-0.361562	-0.739965
