data_functionalizedCrystal
_audit_creation_method	'MofGen! by Chris Wilmer'
_symmetry_space_group_name_H-M	'P1'
_symmetry_Int_Tables_number	1
_symmetry_cell_setting	triclinic
loop_
_symmetry_equiv_pos_as_xyz
  x,y,z
_cell_length_a	17.038272
_cell_length_b	17.038272
_cell_length_c	16.098538
_cell_angle_alpha	92.920305
_cell_angle_beta	87.069734
_cell_angle_gamma	91.111556
loop_
_atom_site_label
_atom_site_type_symbol
_atom_site_fract_x
_atom_site_fract_y
_atom_site_fract_z
O1	O	-1.052033	-0.167266	0.069152
O2	O	-0.552033	0.332734	0.569152
O3	O	-0.824222	-0.164557	0.069177
O4	O	-0.324222	0.335443	0.569177
O5	O	-0.936773	-0.052006	0.069158
O6	O	-0.436773	0.447994	0.569158
O7	O	-0.939482	-0.279817	0.069171
O8	O	-0.439482	0.220183	0.569171
O9	O	-0.930197	-0.058553	-0.069354
O10	O	-0.430197	0.441447	0.430646
O11	O	-0.817646	-0.171104	-0.069335
O12	O	-0.317646	0.328896	0.430665
O13	O	-1.045456	-0.173813	-0.069359
O14	O	-0.545456	0.326187	0.430641
Zn15	Zn	-0.930507	-0.173498	-0.091339
Zn16	Zn	-0.430507	0.326502	0.408661
Zn17	Zn	-0.939172	-0.164872	0.091156
Zn18	Zn	-0.439172	0.335128	0.591156
O19	O	-0.932905	-0.286364	-0.069341
O20	O	-0.432905	0.213636	0.430659
C21	C	-0.791641	-0.165367	-0.000076
C22	C	-0.291641	0.334633	0.499924
C23	C	-0.704358	-0.158019	-0.000067
C24	C	-0.204358	0.341981	0.499933
C25	C	-0.931022	-0.025987	-0.000097
C26	C	-0.431022	0.474013	0.499903
C27	C	-0.923674	0.061297	-0.000096
C28	C	-0.423674	0.561297	0.499904
C29	C	-1.078037	-0.173002	-0.000105
C30	C	-0.578037	0.326998	0.499895
C31	C	-1.165320	-0.180351	-0.000108
C32	C	-0.665320	0.319649	0.499892
C33	C	-0.658749	-0.225482	-0.000064
C34	C	-0.158749	0.274518	0.499936
C35	C	-0.576737	-0.218574	-0.000075
C36	C	-0.076737	0.281426	0.499925
C37	C	-0.540335	-0.144201	-0.000085
C38	C	-0.040335	0.355799	0.499915
C39	C	-0.585950	-0.076733	-0.000090
C40	C	-0.085950	0.423267	0.499910
C41	C	-0.667961	-0.083642	-0.000084
C42	C	-0.167961	0.416358	0.499916
C43	C	-0.292946	-0.119792	-0.000108
C44	C	0.207054	0.380208	0.499892
C45	C	-0.210929	-0.112887	-0.000112
C46	C	0.289071	0.387113	0.499888
C47	C	-0.201722	-0.254729	-0.000098
C48	C	0.298278	0.245271	0.499902
C49	C	-0.283734	-0.261632	-0.000088
C50	C	0.216266	0.238368	0.499912
C51	C	-0.329342	-0.194164	-0.000098
C52	C	0.170658	0.305836	0.499902
C53	C	-0.456505	-0.137138	-0.000094
C54	C	0.043495	0.362862	0.499906
C55	C	-0.413170	-0.201228	-0.000094
C56	C	0.086830	0.298772	0.499906
N57	N	-0.924599	-0.179385	-0.215887
N58	N	-0.424599	0.320615	0.284113
C59	C	-0.938656	-0.312383	-0.000083
C60	C	-0.438656	0.187617	0.499917
C61	C	-0.946005	-0.399666	-0.000079
C62	C	-0.446005	0.100334	0.499921
C63	C	-0.991137	0.106906	-0.000104
C64	C	-0.491137	0.606906	0.499896
C65	C	-0.984229	0.188918	-0.000096
C66	C	-0.484229	0.688918	0.499904
C67	C	-0.909856	0.225320	-0.000085
C68	C	-0.409856	0.725320	0.499915
C69	C	-0.842388	0.179705	-0.000074
C70	C	-0.342388	0.679705	0.499926
C71	C	-0.849297	0.097694	-0.000077
C72	C	-0.349297	0.597694	0.499923
C73	C	-0.885446	0.472708	-0.000071
C74	C	-0.385446	0.972708	0.499929
C75	C	-0.878541	0.554725	-0.000071
C76	C	-0.378541	1.054725	0.499929
C77	C	-1.020383	0.563932	-0.000091
C78	C	-0.520383	1.063932	0.499909
C79	C	-1.027286	0.481920	-0.000098
C80	C	-0.527286	0.981920	0.499902
C81	C	-0.959818	0.436312	-0.000083
C82	C	-0.459818	0.936312	0.499917
C83	C	-0.902792	0.309149	-0.000079
C84	C	-0.402792	0.809149	0.499921
C85	C	-0.966882	0.352485	-0.000084
C86	C	-0.466882	0.852485	0.499916
C87	C	-0.972390	-0.131633	-0.259480
C88	C	-0.472390	0.368367	0.240520
C89	C	-0.968265	-0.135759	-0.346668
C90	C	-0.468265	0.364241	0.153332
C91	C	-0.916352	-0.187642	-0.390262
C92	C	-0.416352	0.312358	0.109738
C93	C	-0.868556	-0.235395	-0.346663
C94	C	-0.368556	0.264605	0.153337
C95	C	-0.872678	-0.231265	-0.259476
C96	C	-0.372678	0.268735	0.240524
C97	C	-0.901410	-0.202602	-0.653510
C98	C	-0.401410	0.297398	-0.153510
C99	C	-0.897294	-0.206731	-0.740702
C100	C	-0.397294	0.293269	-0.240702
C101	C	-0.997003	-0.107093	-0.740702
C102	C	-0.497003	0.392907	-0.240702
C103	C	-1.001123	-0.102971	-0.653513
C104	C	-0.501123	0.397029	-0.153513
C105	C	-0.953324	-0.150721	-0.609922
C106	C	-0.453324	0.349279	-0.109922
C107	C	-0.912136	-0.191862	-0.479383
C108	C	-0.412136	0.308138	0.020617
C109	C	-0.957536	-0.146496	-0.520803
C110	C	-0.457536	0.353504	-0.020803
N111	N	-0.945085	-0.158979	0.215705
N112	N	-0.445085	0.341021	0.715705
H113	H	-0.688381	-0.286045	-0.000056
H114	H	-0.188381	0.213955	0.499944
H115	H	-0.794361	0.060560	-0.000070
H116	H	-0.294361	0.560560	0.499930
H117	H	-0.862492	-0.241484	-0.618024
H118	H	-0.362492	0.258516	-0.118024
Br119	Br	-0.826838	-0.277153	-0.799860
Br120	Br	-0.326838	0.222847	-0.299860
Br121	Br	-0.729860	0.007919	-0.000096
Br122	Br	-0.229860	0.507919	0.499904
Br123	Br	-1.071579	-0.032562	-0.594349
Br124	Br	-0.571579	0.467438	-0.094349
H125	H	-1.035918	-0.068216	-0.776202
H126	H	-0.535918	0.431784	-0.276202
H127	H	-0.999800	-0.104250	-0.485307
H128	H	-0.499800	0.395750	0.014693
H129	H	-0.826283	-0.277636	-0.382162
H130	H	-0.326283	0.222364	0.117838
Br131	Br	-1.042852	-0.061224	-0.200326
Br132	Br	-0.542852	0.438776	0.299674
Br133	Br	-1.111942	0.625832	-0.000111
Br134	Br	-0.611942	1.125832	0.499889
H135	H	-1.039165	0.226050	-0.000104
H136	H	-0.539165	0.726050	0.499896
H137	H	-0.869870	-0.234107	-0.514884
H138	H	-0.369870	0.265893	-0.014884
Br139	Br	-0.777600	0.604126	-0.000065
Br140	Br	-0.277600	1.104126	0.499935
H141	H	-0.164579	-0.309658	-0.000092
H142	H	0.335421	0.190342	0.499908
H143	H	-0.781832	0.209350	-0.000060
H144	H	-0.281832	0.709350	0.499940
Br145	Br	-0.536549	0.024203	-0.000111
Br146	Br	-0.036549	0.524203	0.499889
H147	H	-1.027437	0.322844	-0.000074
H148	H	-0.527437	0.822844	0.499926
Br149	Br	-0.354832	-0.028227	-0.000124
Br150	Br	0.145168	0.471773	0.499876
Br151	Br	-1.092076	0.057511	-0.000131
Br152	Br	-0.592076	0.557511	0.499869
H153	H	-1.087848	0.452287	-0.000107
H154	H	-0.587848	0.952287	0.499893
H155	H	-0.539605	-0.273510	-0.000072
H156	H	-0.039605	0.226490	0.499928
H157	H	-0.442811	-0.261782	-0.000091
H158	H	0.057189	0.238218	0.499909
Br159	Br	-0.801861	0.358559	-0.000056
Br160	Br	-0.301861	0.858559	0.499944
Br161	Br	-0.333131	-0.362570	-0.000066
Br162	Br	0.166869	0.137430	0.499934
Br163	Br	-0.161527	-0.011947	-0.000142
Br164	Br	0.338473	0.488053	0.499858
H165	H	-0.830508	0.435584	-0.000059
H166	H	-0.330508	0.935584	0.499941
Br167	Br	-0.807810	-0.296068	-0.200314
Br168	Br	-0.307810	0.203932	0.299686
H169	H	-0.426857	-0.076584	-0.000125
H170	H	0.073143	0.423416	0.499875
H171	H	-1.007180	-0.096876	-0.382161
H172	H	-0.507180	0.403124	0.117839
