data_functionalizedCrystal
_audit_creation_method	'MofGen! by Chris Wilmer'
_symmetry_space_group_name_H-M	'P1'
_symmetry_Int_Tables_number	1
_symmetry_cell_setting	triclinic
loop_
_symmetry_equiv_pos_as_xyz
  x,y,z
_cell_length_a	27.354012
_cell_length_b	27.353283
_cell_length_c	27.349551
_cell_angle_alpha	60.005606
_cell_angle_beta	60.011434
_cell_angle_gamma	59.993282
loop_
_atom_site_label
_atom_site_type_symbol
_atom_site_fract_x
_atom_site_fract_y
_atom_site_fract_z
O1	O	0.067635	-0.714267	0.597330
O2	O	0.025429	-0.556105	0.481282
O3	O	0.125575	-0.656186	0.481214
O4	O	-0.032512	-0.614186	0.597397
O5	O	0.158797	-0.622968	0.514367
O6	O	0.058650	-0.522887	0.514434
O7	O	0.100856	-0.681048	0.630482
Zn8	Zn	0.085028	-0.596693	0.577722
Zn9	Zn	0.041257	-0.640460	0.534042
O10	O	0.000709	-0.580967	0.630549
N11	N	0.114901	-0.566828	0.607534
N12	N	0.011389	-0.670331	0.504229
C13	C	0.179404	-0.338196	0.672015
C14	C	0.179501	-0.502386	0.836160
C15	C	0.179415	-0.502363	0.671996
C16	C	0.343611	-0.502373	0.671960
C17	C	0.197478	-0.392371	0.690061
C18	C	0.197534	-0.484321	0.781984
C19	C	0.289434	-0.484312	0.690032
C20	C	0.197486	-0.484308	0.690051
C21	C	0.156398	-0.269238	0.649045
C22	C	0.156418	-0.525342	0.649015
C23	C	0.220484	-0.461329	0.713032
C24	C	0.443889	-0.485097	0.619172
C25	C	0.506571	-0.505993	0.598266
C26	C	0.506589	-0.607412	0.636940
C27	C	0.443909	-0.586515	0.657848
C28	C	0.171510	-0.237888	0.587422
C29	C	0.150593	-0.175201	0.566543
C30	C	0.099458	-0.175218	0.668913
C31	C	0.120375	-0.237905	0.689792
C32	C	0.094789	-0.510201	0.664176
C33	C	0.073888	-0.531091	0.643278
C34	C	0.176239	-0.582263	0.592072
C35	C	0.197142	-0.561373	0.612963
C36	C	0.094933	-0.510244	0.936476
C37	C	0.074073	-0.531151	0.999161
C38	C	0.176453	-0.582335	0.999126
C39	C	0.197312	-0.561429	0.936439
C40	C	0.156551	-0.525382	0.905116
C41	C	0.412561	-0.525357	0.648961
C42	C	-0.098513	-0.688235	0.485867
C43	C	-0.006461	-0.688368	0.394066
C44	C	-0.006645	-0.780264	0.486040
C45	C	-0.006630	-0.688361	0.486097
C46	C	-0.029562	-0.711308	0.463018
N47	N	0.537030	-0.566846	0.607436
O48	O	0.741877	-0.576849	0.459995
O49	O	0.742050	-0.693241	0.618010
O50	O	0.741986	-0.692977	0.517791
O51	O	0.741941	-0.577114	0.560214
O52	O	0.642405	-0.659839	0.551046
O53	O	0.642469	-0.660104	0.651265
O54	O	0.642296	-0.543712	0.493251
Zn55	Zn	0.626572	-0.596646	0.577538
Zn56	Zn	0.757774	-0.640307	0.533723
O57	O	0.642360	-0.543976	0.593469
N58	N	0.847316	-0.670107	0.503818
N59	N	0.114877	-0.144758	0.607577
O60	O	-0.032498	0.060193	0.597441
O61	O	0.125523	0.060193	0.481067
O62	O	0.025289	0.060179	0.481345
O63	O	0.067736	0.060207	0.597163
O64	O	0.058511	-0.039410	0.514543
O65	O	0.158745	-0.039397	0.514265
O66	O	0.000724	-0.039396	0.630638
Zn67	Zn	0.085009	-0.055208	0.577722
Zn68	Zn	0.041238	0.076005	0.533983
O69	O	0.100958	-0.039382	0.630360
N70	N	0.011362	0.165555	0.504130
N71	N	0.115121	-0.566884	1.029592
O72	O	0.104990	-0.714248	1.234528
O73	O	-0.011371	-0.556177	1.234539
O74	O	-0.011103	-0.656395	1.234497
O75	O	0.104722	-0.614030	1.234569
O76	O	0.022090	-0.623190	1.134913
O77	O	0.021822	-0.522972	1.134954
O78	O	0.138182	-0.681044	1.134943
Zn79	Zn	0.085272	-0.596736	1.119137
Zn80	Zn	0.041539	-0.640484	1.250344
O81	O	0.137914	-0.580826	1.134984
N82	N	0.011689	-0.670343	1.339890
C83	C	0.038085	-0.519567	0.481870
C84	C	0.162104	-0.643505	0.481786
C85	C	0.088200	-0.717587	0.629893
C86	C	-0.035819	-0.593649	0.629977
C87	C	0.692280	-0.692701	0.654545
C88	C	0.692203	-0.692374	0.530435
C89	C	0.692063	-0.544251	0.456717
C90	C	0.692144	-0.544580	0.580825
C91	C	0.162000	0.010521	0.481600
C92	C	0.037914	0.010381	0.481984
C93	C	-0.035795	0.010399	0.630065
C94	C	0.088333	0.010415	0.629722
C95	C	-0.010799	-0.519660	1.184747
C96	C	-0.010461	-0.643761	1.184677
C97	C	0.137610	-0.717561	1.184734
C98	C	0.137280	-0.593452	1.184783
H99	H	0.061737	-0.480889	0.910978
O100	O	0.180677	-0.582708	1.184905
C101	C	0.196805	-0.623770	1.236475
H102	H	0.158448	-0.641315	1.272514
H103	H	0.206508	-0.600441	1.253800
H104	H	0.238499	-0.662757	1.224811
O105	O	0.692362	-0.736238	0.708708
C106	C	0.692354	-0.714673	0.745980
H107	H	0.711167	-0.676217	0.717193
H108	H	0.721302	-0.752295	0.774646
H109	H	0.644587	-0.698069	0.776239
O110	O	0.692141	-0.735819	0.519707
C111	C	0.640594	-0.751953	0.560760
H112	H	0.623419	-0.740028	0.602267
H113	H	0.652231	-0.802188	0.574135
H114	H	0.604451	-0.726691	0.539077
O115	O	0.216267	-0.654279	0.438277
C116	C	0.226968	-0.702728	0.424439
H117	H	0.198982	-0.731492	0.464031
H118	H	0.276466	-0.730934	0.414732
H119	H	0.214109	-0.684936	0.383364
H120	H	0.692005	-0.507708	0.411338
O121	O	-0.090011	-0.582864	0.673449
C122	C	-0.127220	-0.524030	0.651793
H123	H	-0.098383	-0.495600	0.613340
H124	H	-0.155906	-0.503978	0.689367
H125	H	-0.157459	-0.524938	0.635160
O126	O	0.099038	-0.771830	0.673302
C127	C	0.157887	-0.808971	0.651590
H128	H	0.173687	-0.792656	0.600587
H129	H	0.158697	-0.856967	0.669880
H130	H	0.188862	-0.807325	0.666747
H131	H	0.692134	-0.508185	0.589902
O132	O	0.216052	0.010880	0.437957
C133	C	0.253293	0.010987	0.459471
H134	H	0.224490	0.029648	0.498046
H135	H	0.281749	0.040130	0.421874
H136	H	0.283755	-0.036727	0.475890
H137	H	-0.081177	0.010398	0.666600
O138	O	0.014196	-0.516358	1.029526
C139	C	-0.017302	-0.480069	0.988433
H140	H	0.012578	-0.457280	0.943748
H141	H	-0.059129	-0.444602	1.006558
H142	H	-0.030825	-0.508980	0.981765
O143	O	0.026994	0.010328	0.438656
C144	C	-0.031865	0.010331	0.460467
H145	H	-0.047610	-0.008501	0.511471
H146	H	-0.032727	-0.018607	0.442259
H147	H	-0.062854	0.058103	0.445308
H148	H	0.097420	0.010424	0.666105
H149	H	-0.047330	-0.474261	1.184750
H150	H	-0.046832	-0.652809	1.184615
O151	O	0.027379	-0.465418	0.438312
C152	C	0.034034	-0.473233	0.387856
H153	H	0.064027	-0.520972	0.388411
H154	H	0.055213	-0.440330	0.345336
H155	H	-0.011754	-0.464718	0.389023
H156	H	0.174144	-0.762957	1.184724
H157	H	0.209648	-0.611676	1.024626
O158	O	0.536949	-0.666842	0.645641
C159	C	0.495856	-0.697895	0.676403
H160	H	0.451179	-0.670549	0.702097
H161	H	0.513988	-0.743100	0.709120
H162	H	0.489172	-0.705148	0.642870
O163	O	0.257185	-0.576240	0.906044
C164	C	0.283232	-0.639026	0.921335
H165	H	0.253531	-0.660968	0.966850
H166	H	0.329345	-0.653680	0.923468
H167	H	0.287882	-0.653202	0.886054
O168	O	0.055148	-0.475181	0.699163
C169	C	-0.003728	-0.466306	0.708068
H170	H	-0.003634	-0.473303	0.670277
H171	H	-0.033492	-0.418763	0.708407
H172	H	-0.021668	-0.499673	0.752721
H173	H	0.023705	-0.518748	0.655609
H174	H	0.209407	-0.611608	0.562721
H175	H	0.247325	-0.573698	0.600612
H176	H	0.418403	-0.619300	0.682106
H177	H	0.532080	-0.473208	0.574011
H178	H	0.200842	-0.263395	0.554238
O179	O	0.413502	-0.425663	0.610438
C180	C	0.428783	-0.393322	0.548546
H181	H	0.474289	-0.420714	0.523858
H182	H	0.430925	-0.349133	0.540266
H183	H	0.393492	-0.383967	0.531468
O184	O	0.165243	-0.144808	0.506666
C185	C	0.143779	-0.160111	0.480643
H186	H	0.137658	-0.205630	0.510359
H187	H	0.177353	-0.162243	0.434528
H188	H	0.098970	-0.124834	0.475998
O189	O	0.064454	-0.144871	0.708574
C190	C	0.055623	-0.185986	0.767443
H191	H	0.062631	-0.230670	0.767329
H192	H	0.008092	-0.167881	0.797219
H193	H	0.089003	-0.192652	0.785386
H194	H	0.108067	-0.263426	0.739970
