data_functionalizedCrystal
_audit_creation_method	'MofGen! by Chris Wilmer'
_symmetry_space_group_name_H-M	'P1'
_symmetry_Int_Tables_number	1
_symmetry_cell_setting	triclinic
loop_
_symmetry_equiv_pos_as_xyz
  x,y,z
_cell_length_a	18.050591
_cell_length_b	14.908520
_cell_length_c	14.908308
_cell_angle_alpha	83.639235
_cell_angle_beta	86.727764
_cell_angle_gamma	93.317077
loop_
_atom_site_label
_atom_site_type_symbol
_atom_site_fract_x
_atom_site_fract_y
_atom_site_fract_z
Zn1	Zn	1.091513	-0.389977	0.532719
Zn2	Zn	1.091429	-0.532622	0.390089
Zn3	Zn	0.974929	-0.381268	0.381360
Zn4	Zn	0.959694	-0.541283	0.541380
O5	O	1.029391	-0.461287	0.461387
O6	O	1.195424	-0.408919	0.513827
O7	O	1.082316	-0.505276	0.262271
O8	O	0.996806	-0.255759	0.394161
O9	O	1.195362	-0.513720	0.409037
O10	O	1.082460	-0.262158	0.505363
O11	O	0.996724	-0.394077	0.255858
O12	O	0.868986	-0.402474	0.402559
O13	O	0.970839	-0.528481	0.666890
O14	O	0.857792	-0.520036	0.520124
O15	O	1.067686	-0.417317	0.660527
O16	O	1.067542	-0.660435	0.417436
O17	O	0.970757	-0.666798	0.528588
C18	C	1.017506	-0.696460	0.474919
C19	C	1.012488	-0.797070	0.480738
C20	C	0.836443	-0.461251	0.461335
C21	C	0.753897	-0.461258	0.461335
C22	C	1.103935	-0.979445	0.376023
C23	C	1.099222	-1.073976	0.381488
C24	C	0.998356	-1.080666	0.497136
C25	C	1.003068	-0.986135	0.491672
C26	C	1.055859	-0.935527	0.431112
C27	C	1.060567	-0.840994	0.425643
C28	C	0.959704	-0.847686	0.541296
C29	C	0.954992	-0.942217	0.546760
C30	C	0.560509	-0.397266	0.397538
C31	C	0.508066	-0.478542	0.380026
C32	C	0.602763	-0.461288	0.461378
C33	C	0.508123	-0.380041	0.478890
C34	C	0.456775	-0.461310	0.461417
C35	C	0.551408	-0.542605	0.443825
C36	C	0.551470	-0.444050	0.542724
C37	C	0.499045	-0.525385	0.525246
C38	C	0.686863	-0.461274	0.461353
C39	C	0.372677	-0.461333	0.461442
C40	C	1.223093	-0.461325	0.461440
C41	C	1.305636	-0.461341	0.461462
C42	C	1.017572	-0.474836	0.697469
C43	C	1.012536	-0.480610	0.798072
C44	C	1.041342	-0.225198	0.447822
C45	C	1.046434	-0.124590	0.442041
C46	C	1.041210	-0.447726	0.226220
C47	C	1.046403	-0.441697	0.125602
C48	C	1.103918	-0.375683	0.980492
C49	C	1.099188	-0.381105	1.075019
C50	C	0.998344	-0.496870	1.081652
C51	C	1.003073	-0.491448	0.987126
C52	C	1.055863	-0.430854	0.936549
C53	C	1.060596	-0.425437	0.842022
C54	C	0.959748	-0.541197	0.848657
C55	C	0.955019	-0.546619	0.943183
H56	H	1.103549	-0.799789	0.376330
H57	H	1.146914	-0.938239	0.326707
C58	C	1.151391	-0.321359	1.122855
C59	C	1.193671	-0.375726	1.180098
C60	C	1.241761	-0.320716	1.224189
H61	H	1.183573	-0.284481	1.079296
H62	H	1.123147	-0.284051	1.157508
H63	H	1.221913	-0.413018	1.145447
H64	H	1.161509	-0.412603	1.223674
H65	H	1.213517	-0.283408	1.258842
H66	H	1.273938	-0.283840	1.180624
H67	H	1.270449	-0.357595	1.263039
C68	C	0.463534	-0.597799	0.597146
C69	C	0.485513	-0.682672	0.578404
C70	C	0.452805	-0.749404	0.644607
H71	H	0.479027	-0.586159	0.654812
H72	H	0.410938	-0.597142	0.597091
H73	H	0.538098	-0.683328	0.578469
H74	H	0.470020	-0.694341	0.520750
H75	H	0.400209	-0.748746	0.644551
H76	H	0.468301	-0.737755	0.702268
H77	H	0.467708	-0.806999	0.631895
C78	C	0.596136	-0.325016	0.325550
C79	C	0.573236	-0.240220	0.343229
C80	C	0.606033	-0.173649	0.276926
H81	H	0.648718	-0.325027	0.326338
H82	H	0.581322	-0.337361	0.267789
H83	H	0.588054	-0.227878	0.400975
H84	H	0.520659	-0.240180	0.342433
H85	H	0.591220	-0.185994	0.219165
H86	H	0.658614	-0.173668	0.277719
H87	H	0.590495	-0.116108	0.288907
C88	C	1.151556	-1.121527	0.321720
C89	C	1.225172	-1.099550	0.340192
C90	C	1.273411	-1.143319	0.285141
H91	H	1.141308	-1.185089	0.333578
H92	H	1.144597	-1.102549	0.259981
H93	H	1.232128	-1.118534	0.401916
H94	H	1.235443	-1.035996	0.328329
H95	H	1.266452	-1.124340	0.223403
H96	H	1.263157	-1.206878	0.297004
H97	H	1.323365	-1.128407	0.297661
H98	H	0.920555	-0.811917	0.586150
C99	C	0.482556	-0.497828	0.288250
C100	C	0.513877	-0.430580	0.221651
C101	C	0.490390	-0.448303	0.137097
H102	H	0.498056	-0.555075	0.275259
H103	H	0.429872	-0.498202	0.289059
H104	H	0.566550	-0.430215	0.220840
H105	H	0.498380	-0.373326	0.234612
H106	H	0.437705	-0.448677	0.137906
H107	H	0.505891	-0.505552	0.124115
H108	H	0.511632	-0.402675	0.091900
C109	C	0.576673	-0.634253	0.423837
C110	C	0.554147	-0.652256	0.338948
C111	C	0.577401	-0.736675	0.320507
H112	H	0.629317	-0.633778	0.423849
H113	H	0.555069	-0.679789	0.468896
H114	H	0.575754	-0.606733	0.293900
H115	H	0.501506	-0.652750	0.338915
H116	H	0.555797	-0.782211	0.365567
H117	H	0.630045	-0.736192	0.320524
H118	H	0.562115	-0.748905	0.262913
C119	C	0.577029	-0.424370	0.634357
C120	C	0.555283	-0.339168	0.652318
C121	C	0.578826	-0.320992	0.736715
H122	H	0.555136	-0.469184	0.679926
H123	H	0.629651	-0.425007	0.633848
H124	H	0.502672	-0.338538	0.652834
H125	H	0.577175	-0.294336	0.606771
H126	H	0.631448	-0.321629	0.736206
H127	H	0.556931	-0.365811	0.782277
H128	H	0.564081	-0.263178	0.748909
H129	H	0.488973	-0.311329	0.493655
H130	H	0.955381	-1.121888	0.546447
C131	C	1.117878	-0.359735	0.786949
C132	C	1.111749	-0.366807	0.694762
C133	C	1.164510	-0.306300	0.644005
H134	H	1.109358	-0.299765	0.798833
H135	H	1.166350	-0.373875	0.803161
H136	H	1.063288	-0.352661	0.678556
H137	H	1.120276	-0.426764	0.682850
H138	H	1.212983	-0.320440	0.660216
H139	H	1.155985	-0.246334	0.655897
H140	H	1.160363	-0.311096	0.581451
H141	H	1.146904	-0.326350	0.939312
C142	C	0.897567	-0.997047	0.612449
C143	C	0.826238	-0.972980	0.591328
C144	C	0.773317	-1.023458	0.651828
H145	H	0.901540	-1.059654	0.607876
H146	H	0.906075	-0.984991	0.672394
H147	H	0.817732	-0.985042	0.531398
H148	H	0.822240	-0.910381	0.595907
H149	H	0.781825	-1.011402	0.711772
H150	H	0.777297	-1.086063	0.647250
H151	H	0.724915	-1.007129	0.637511
C152	C	0.941096	-0.562612	1.136734
C153	C	0.947248	-0.555554	1.228921
C154	C	0.894526	-0.616105	1.279689
H155	H	0.892610	-0.548523	1.120574
H156	H	0.949656	-0.622572	1.124809
H157	H	0.938682	-0.495608	1.240840
H158	H	0.995723	-0.569652	1.245108
H159	H	0.903086	-0.676064	1.267764
H160	H	0.846043	-0.602010	1.263521
H161	H	0.898697	-0.611330	1.342243
H162	H	0.912038	-0.595951	0.984376
H163	H	0.920620	-0.586123	0.812869
