data_functionalizedCrystal
_audit_creation_method	'MofGen! by Chris Wilmer'
_symmetry_space_group_name_H-M	'P1'
_symmetry_Int_Tables_number	1
_symmetry_cell_setting	triclinic
loop_
_symmetry_equiv_pos_as_xyz
  x,y,z
_cell_length_a	16.959455
_cell_length_b	16.959454
_cell_length_c	16.959447
_cell_angle_alpha	90.026736
_cell_angle_beta	90.020374
_cell_angle_gamma	90.017095
loop_
_atom_site_label
_atom_site_type_symbol
_atom_site_fract_x
_atom_site_fract_y
_atom_site_fract_z
Zn1	Zn	1.208384	-0.314729	0.447056
Zn2	Zn	1.208306	-0.446921	0.314886
Zn3	Zn	1.076212	-0.314754	0.314880
Zn4	Zn	1.076177	-0.446862	0.447010
O5	O	1.142270	-0.380816	0.380958
O6	O	1.318984	-0.332279	0.429545
O7	O	1.190766	-0.429424	0.204274
O8	O	1.093792	-0.204140	0.332430
O9	O	1.318927	-0.429400	0.332440
O10	O	1.190898	-0.204121	0.429539
O11	O	1.093717	-0.332321	0.204269
O12	O	0.965597	-0.332264	0.332385
O13	O	1.093732	-0.429299	0.557627
O14	O	0.965571	-0.429324	0.429461
O15	O	1.190864	-0.332221	0.557661
O16	O	1.190732	-0.557524	0.332396
O17	O	1.093657	-0.557481	0.429467
C18	C	0.936904	-0.380791	0.380918
C19	C	0.849047	-0.380799	0.380920
C20	C	0.477531	-0.431337	0.330370
C21	C	0.477612	-0.330361	0.431642
C22	C	0.560158	-0.330348	0.431623
C23	C	0.601394	-0.380831	0.380977
C24	C	0.560085	-0.431328	0.330350
C25	C	0.601473	-0.279859	0.482255
C26	C	0.684024	-0.279844	0.482238
C27	C	0.725262	-0.330324	0.431588
C28	C	0.683948	-0.380822	0.380958
C29	C	0.725184	-0.431305	0.330312
C30	C	0.683871	-0.481799	0.279678
C31	C	0.601323	-0.481807	0.279700
C32	C	0.807811	-0.330315	0.431566
C33	C	0.807738	-0.431295	0.330293
C34	C	1.142204	-0.586183	0.380944
C35	C	1.142248	-0.674039	0.380965
C36	C	1.091796	-1.045522	0.431498
C37	C	1.192964	-1.045507	0.330499
C38	C	1.192936	-0.962962	0.330491
C39	C	1.142337	-0.921692	0.380987
C40	C	1.091765	-0.962969	0.431490
C41	C	1.243501	-0.921679	0.279984
C42	C	1.243475	-0.839128	0.279974
C43	C	1.192879	-0.797857	0.330474
C44	C	1.142306	-0.839139	0.380980
C45	C	1.091707	-0.797869	0.431476
C46	C	1.041138	-0.839150	0.481986
C47	C	1.041170	-0.921698	0.481991
C48	C	1.192847	-0.715309	0.330469
C49	C	1.091676	-0.715316	0.431468
C50	C	1.348438	-0.380843	0.380998
C51	C	1.436295	-0.380854	0.381016
C52	C	1.142303	-0.380751	0.587126
C53	C	1.142317	-0.380723	0.674983
C54	C	1.142358	-0.174648	0.380989
C55	C	1.142395	-0.086792	0.381002
C56	C	1.142283	-0.380825	0.175592
C57	C	1.142422	-0.380630	0.087736
C58	C	1.091839	-0.431184	1.046444
C59	C	1.192983	-0.330096	1.046474
C60	C	1.192962	-0.330113	0.963928
C61	C	1.142380	-0.380667	0.922636
C62	C	1.091818	-0.431204	0.963890
C63	C	1.243529	-0.279582	0.922667
C64	C	1.243510	-0.279597	0.840116
C65	C	1.192923	-0.330148	0.798823
C66	C	1.142359	-0.380686	0.840082
C67	C	1.091776	-0.431240	0.798791
C68	C	1.041207	-0.481776	0.840048
C69	C	1.041231	-0.481754	0.922597
C70	C	1.192899	-0.330169	0.716275
C71	C	1.091755	-0.431260	0.716237
H72	H	0.567892	-0.238763	0.523493
C73	C	1.231459	-0.196341	0.690889
C74	C	1.248477	-0.274628	0.670921
H75	H	1.265770	-0.162051	0.662885
H76	H	1.238718	-0.189100	0.745955
H77	H	1.178351	-0.184775	0.677356
H78	H	1.301584	-0.286195	0.684460
H79	H	1.241226	-0.281872	0.615844
H80	H	0.717456	-0.522907	0.238446
C81	C	1.349790	-1.014535	0.269020
C82	C	1.299038	-0.967084	0.224437
H83	H	1.384057	-1.042577	0.234712
H84	H	1.319677	-1.050893	0.299134
H85	H	1.380066	-0.982310	0.303440
H86	H	1.268757	-0.999309	0.190021
H87	H	1.329154	-0.930722	0.194310
H88	H	1.050557	-0.472421	0.682623
H89	H	1.234016	-0.681702	0.289341
C90	C	0.941248	-0.581680	0.914275
C91	C	0.985654	-0.537304	0.967947
H92	H	0.906936	-0.615972	0.942277
H93	H	0.975664	-0.611924	0.882074
H94	H	0.911016	-0.547238	0.882084
H95	H	1.015890	-0.571747	1.000135
H96	H	0.951234	-0.507058	1.000163
H97	H	0.841444	-0.289205	0.472793
C98	C	0.452038	-0.469678	0.196462
C99	C	0.432125	-0.486840	0.274715
H100	H	0.424002	-0.503942	0.162105
H101	H	0.507096	-0.476900	0.189212
H102	H	0.438508	-0.416556	0.184996
H103	H	0.445660	-0.539962	0.286183
H104	H	0.377054	-0.479625	0.281969
H105	H	0.567678	-0.522917	0.238476
H106	H	0.841306	-0.472402	0.289048
H107	H	0.444032	-0.289265	0.472881
C108	C	0.675803	-0.180025	0.582340
C109	C	0.729431	-0.224334	0.537885
H110	H	0.703838	-0.145751	0.616688
H111	H	0.643624	-0.214505	0.612527
H112	H	0.643585	-0.149759	0.547951
H113	H	0.761646	-0.254605	0.572274
H114	H	0.761624	-0.189850	0.507696
H115	H	1.050665	-0.472326	1.080039
C116	C	1.237927	-0.285189	1.173028
C117	C	1.248584	-0.274532	1.091860
H118	H	1.272252	-0.250880	1.201048
H119	H	1.249477	-0.338290	1.186536
H120	H	1.184825	-0.273609	1.186548
H121	H	1.301685	-0.286117	1.078339
H122	H	1.237040	-0.221418	1.078346
C123	C	0.991680	-0.723623	0.531308
C124	C	1.036056	-0.669956	0.486977
H125	H	0.957341	-0.695618	0.565573
H126	H	1.026114	-0.755776	0.561578
H127	H	0.961481	-0.755863	0.496836
H128	H	1.066260	-0.637719	0.521449
H129	H	1.001617	-0.637789	0.456705
C130	C	0.996275	-0.526686	0.713488
C131	C	0.985607	-0.537343	0.794654
H132	H	0.961947	-0.560987	0.685463
H133	H	1.049370	-0.538268	0.699974
H134	H	0.984729	-0.473576	0.699979
H135	H	0.997159	-0.590453	0.808164
H136	H	0.932500	-0.525767	0.808173
C137	C	1.282103	-0.145741	0.948122
C138	C	1.299127	-0.224019	0.968058
H139	H	1.316432	-0.111439	0.976145
H140	H	1.229008	-0.134166	0.961645
H141	H	1.289336	-0.138528	0.893054
H142	H	1.291888	-0.231233	1.023125
H143	H	1.352234	-0.235597	0.954539
C144	C	0.996287	-1.048244	0.526833
C145	C	0.985579	-0.967074	0.537499
H146	H	0.961962	-1.076258	0.561097
H147	H	1.049385	-1.061729	0.538462
H148	H	0.984762	-1.061796	0.473709
H149	H	0.997110	-0.953522	0.590622
H150	H	0.932469	-0.953585	0.525876
H151	H	0.999936	-0.805539	0.523096
H152	H	1.050626	-1.079136	0.472624
H153	H	1.234154	-1.079114	0.289383
H154	H	1.284651	-0.805523	0.238847
H155	H	1.284686	-0.238448	0.806531
