data_functionalizedCrystal
_audit_creation_method	'MofGen! by Chris Wilmer'
_symmetry_space_group_name_H-M	'P1'
_symmetry_Int_Tables_number	1
_symmetry_cell_setting	triclinic
loop_
_symmetry_equiv_pos_as_xyz
  x,y,z
_cell_length_a	12.759401
_cell_length_b	29.839131
_cell_length_c	12.759393
_cell_angle_alpha	89.961905
_cell_angle_beta	89.982620
_cell_angle_gamma	90.041581
loop_
_atom_site_label
_atom_site_type_symbol
_atom_site_fract_x
_atom_site_fract_y
_atom_site_fract_z
Zn1	Zn	1.606049	-0.178824	-0.593935
Zn2	Zn	2.106049	0.321176	-0.093935
Zn3	Zn	1.605865	-0.253963	-0.418236
Zn4	Zn	2.105865	0.246037	0.081764
Zn5	Zn	1.430354	-0.178848	-0.418275
Zn6	Zn	1.930354	0.321152	0.081725
Zn7	Zn	1.430257	-0.253928	-0.593877
Zn8	Zn	1.930257	0.246072	-0.093877
O9	O	1.518131	-0.216391	-0.506081
O10	O	2.018131	0.283609	-0.006081
O11	O	1.753045	-0.188796	-0.570636
O12	O	2.253045	0.311204	-0.070636
O13	O	1.582546	-0.244023	-0.271220
O14	O	2.082546	0.255977	0.228780
O15	O	1.453778	-0.115978	-0.441617
O16	O	1.953778	0.384022	0.058383
O17	O	1.752910	-0.244000	-0.441551
O18	O	2.252910	0.256000	0.058449
O19	O	1.582860	-0.115960	-0.570674
O20	O	2.082860	0.384040	-0.070674
O21	O	1.453599	-0.188837	-0.271248
O22	O	1.953599	0.311163	0.228752
O23	O	1.283320	-0.188803	-0.441561
O24	O	1.783320	0.311197	0.058439
O25	O	1.453613	-0.243941	-0.740906
O26	O	1.953613	0.256059	-0.240906
O27	O	1.283249	-0.243964	-0.570575
O28	O	1.783249	0.256036	-0.070575
O29	O	1.582766	-0.188762	-0.740949
O30	O	2.082766	0.311238	-0.240949
O31	O	1.582452	-0.316825	-0.441495
O32	O	2.082452	0.183175	0.058505
O33	O	1.453435	-0.316800	-0.570538
O34	O	1.953435	0.183200	-0.070538
C35	C	1.245164	-0.216382	-0.506066
C36	C	1.745164	0.283618	-0.006066
C37	C	1.128387	-0.216390	-0.506085
C38	C	1.628387	0.283610	-0.006085
C39	C	1.073516	-0.245158	-0.573152
C40	C	1.573516	0.254842	-0.073152
C41	C	0.963792	-0.245164	-0.573163
C42	C	1.463792	0.254836	-0.073163
C43	C	0.963820	-0.187631	-0.439032
C44	C	1.463820	0.312369	0.060968
C45	C	1.073542	-0.187624	-0.439027
C46	C	1.573542	0.312376	0.060973
C47	C	1.073498	-0.278375	-0.650588
C48	C	1.573498	0.221625	-0.150588
C49	C	0.963774	-0.278381	-0.650600
C50	C	1.463774	0.221619	-0.150600
C51	C	1.517942	-0.333113	-0.506029
C52	C	2.017942	0.166887	-0.006029
C53	C	1.517956	-0.383048	-0.506041
C54	C	2.017956	0.116952	-0.006041
C55	C	1.585433	-0.692692	-0.438986
C56	C	2.085433	-0.192692	0.061014
C57	C	1.585563	-0.880365	-0.439027
C58	C	2.085563	-0.380365	0.060973
O59	O	1.642783	-0.904630	-0.381974
O60	O	2.142783	-0.404630	0.118026
N61	N	1.518349	-0.903833	-0.506160
N62	N	2.018349	-0.403833	-0.006160
C63	C	1.451103	-0.880379	-0.573292
C64	C	1.951103	-0.380379	-0.073292
O65	O	1.393945	-0.904647	-0.630402
O66	O	1.893945	-0.404647	-0.130402
C67	C	1.450980	-0.692707	-0.573256
C68	C	1.950980	-0.192707	-0.073256
C69	C	1.518190	-0.669242	-0.506111
C70	C	2.018190	-0.169242	-0.006111
C71	C	1.652639	-0.669226	-0.371848
C72	C	2.152639	-0.169226	0.128152
C73	C	1.652602	-0.622311	-0.371834
C74	C	2.152602	-0.122311	0.128166
C75	C	1.585359	-0.598861	-0.438959
C76	C	2.085359	-0.098861	0.061041
C77	C	1.518153	-0.622326	-0.506098
C78	C	2.018153	-0.122326	-0.006098
C79	C	1.383740	-0.669255	-0.640393
C80	C	1.883740	-0.169255	-0.140393
C81	C	1.383717	-0.622334	-0.640380
C82	C	1.883717	-0.122334	-0.140380
C83	C	1.450927	-0.598868	-0.573235
C84	C	1.950927	-0.098868	-0.073235
C85	C	1.450873	-0.551961	-0.573209
C86	C	1.950873	-0.051961	-0.073209
N87	N	1.518086	-0.528493	-0.506076
N88	N	2.018086	-0.028493	-0.006076
C89	C	1.585329	-0.551943	-0.438951
C90	C	2.085329	-0.051943	0.061049
C91	C	1.451171	-0.978910	-0.573305
C92	C	1.951171	-0.478910	-0.073305
C93	C	1.451201	-1.025828	-0.573313
C94	C	1.951201	-0.525828	-0.073313
C95	C	1.585662	-1.025810	-0.439049
C96	C	2.085662	-0.525810	0.060951
C97	C	1.585626	-0.978891	-0.439036
C98	C	2.085626	-0.478891	0.060964
C99	C	1.518385	-0.955442	-0.506172
C100	C	2.018385	-0.455442	-0.006172
C101	C	1.585246	-0.453417	-0.438927
C102	C	2.085246	0.046583	0.061073
C103	C	1.585199	-0.406498	-0.438916
C104	C	2.085199	0.093502	0.061084
C105	C	1.450743	-0.406520	-0.573184
C106	C	1.950743	0.093480	-0.073184
C107	C	1.450784	-0.453435	-0.573191
C108	C	1.950784	0.046565	-0.073191
C109	C	1.518044	-0.476883	-0.506059
C110	C	2.018044	0.023117	-0.006059
O111	O	1.393691	-0.527667	-0.630240
O112	O	1.893691	-0.027667	-0.130240
O113	O	1.642496	-0.527668	-0.381867
O114	O	2.142496	-0.027668	0.118133
C115	C	1.585470	-0.739607	-0.439000
C116	C	2.085470	-0.239607	0.061000
C117	C	1.518264	-0.763073	-0.506138
C118	C	2.018264	-0.263073	-0.006138
C119	C	1.451021	-0.739623	-0.573263
C120	C	1.951021	-0.239623	-0.073263
C121	C	1.518294	-0.809991	-0.506146
C122	C	2.018294	-0.309991	-0.006146
C123	C	1.585537	-0.833440	-0.439021
C124	C	2.085537	-0.333440	0.060979
C125	C	1.652750	-0.809972	-0.371888
C126	C	2.152750	-0.309972	0.128112
C127	C	1.652713	-0.763057	-0.371875
C128	C	2.152713	-0.263057	0.128125
C129	C	1.383808	-0.763091	-0.640396
C130	C	1.883808	-0.263091	-0.140396
C131	C	1.383850	-0.810006	-0.640404
C132	C	1.883850	-0.310006	-0.140404
C133	C	1.451093	-0.833456	-0.573279
C134	C	1.951093	-0.333456	-0.073279
C135	C	1.792164	-0.216399	-0.506096
C136	C	2.292164	0.283601	-0.006096
C137	C	1.908941	-0.216403	-0.506102
C138	C	2.408941	0.283597	-0.006102
C139	C	1.518199	-0.216345	-0.780114
C140	C	2.018199	0.283655	-0.280114
C141	C	1.518229	-0.216325	-0.896891
C142	C	2.018229	0.283675	-0.396891
C143	C	1.518350	-0.099212	-0.506156
C144	C	2.018350	0.400788	-0.006156
C145	C	1.518444	-0.049278	-0.506188
C146	C	2.018444	0.450722	-0.006188
C147	C	1.451114	-0.187584	-0.951774
C148	C	1.951114	0.312416	-0.451774
C149	C	1.451146	-0.187571	-1.061498
C150	C	1.951146	0.312429	-0.561498
C151	C	1.585415	-0.245041	-1.061447
C152	C	2.085415	0.254959	-0.561447
C153	C	1.585377	-0.245056	-0.951725
C154	C	2.085377	0.254944	-0.451725
C155	C	1.373598	-0.154403	-0.951804
C156	C	1.873598	0.345597	-0.451804
C157	C	1.373630	-0.154390	-1.061528
C158	C	1.873630	0.345610	-0.561528
C159	C	1.518124	-0.216404	-0.233113
C160	C	2.018124	0.283596	0.266887
C161	C	1.518298	-0.216297	-0.116337
C162	C	2.018298	0.283703	0.383663
H163	H	1.118215	-0.164195	-0.384422
H164	H	1.618215	0.335805	0.115578
H165	H	0.919152	-0.164211	-0.384437
H166	H	1.419152	0.335789	0.115563
H167	H	1.107477	-0.311409	-0.621295
H168	H	1.607477	0.188591	-0.121295
H169	H	0.933941	-0.313167	-0.628659
H170	H	1.433941	0.186833	-0.128659
H171	H	1.640013	-0.268466	-0.907043
H172	H	2.140013	0.231534	-0.407043
H173	H	1.396413	-0.959821	-0.627977
H174	H	1.896413	-0.459821	-0.127977
H175	H	1.640086	-0.268432	-1.106106
H176	H	2.140086	0.231568	-0.606106
H177	H	1.640355	-0.959788	-0.384362
H178	H	2.140355	-0.459788	0.115638
H179	H	1.640414	-1.044911	-0.384393
H180	H	2.140414	-0.544911	0.115607
H181	H	1.103315	-0.269096	-0.731998
H182	H	1.603315	0.230904	-0.231998
H183	H	1.395991	-0.387419	-0.627834
H184	H	1.895991	0.112581	-0.127834
H185	H	0.929788	-0.265961	-0.727955
H186	H	1.429788	0.234039	-0.227955
H187	H	1.292199	-0.163720	-0.922024
H188	H	1.792199	0.336280	-0.422024
H189	H	1.639930	-0.387393	-0.384235
H190	H	2.139930	0.112607	0.115765
H191	H	1.640017	-0.472503	-0.384264
H192	H	2.140017	0.027497	0.115736
H193	H	1.707333	-0.603208	-0.317162
H194	H	2.207333	-0.103208	0.182838
H195	H	1.395485	-0.119590	-1.091335
H196	H	1.895485	0.380410	-0.591335
H197	H	1.396461	-1.044930	-0.627979
H198	H	1.896461	-0.544930	-0.127979
H199	H	1.707402	-0.688314	-0.317186
H200	H	2.207402	-0.188314	0.182814
H201	H	1.329005	-0.688353	-0.695065
H202	H	1.829005	-0.188353	-0.195065
H203	H	1.328962	-0.603244	-0.695053
H204	H	1.828962	-0.103244	-0.195053
H205	H	1.396060	-0.472542	-0.627869
H206	H	1.896060	0.027458	-0.127869
H207	H	1.707442	-0.743955	-0.317199
H208	H	2.207442	-0.243955	0.182801
H209	H	1.707499	-0.829074	-0.317230
H210	H	2.207499	-0.329074	0.182770
H211	H	1.329110	-0.829108	-0.695080
H212	H	1.829110	-0.329108	-0.195080
H213	H	1.329052	-0.744001	-0.695059
H214	H	1.829052	-0.244001	-0.195059
H215	H	1.296319	-0.166844	-1.095551
H216	H	1.796319	0.333156	-0.595551
H217	H	1.402799	-0.121358	-0.917797
H218	H	1.902799	0.378642	-0.417797
