data_functionalizedCrystal
_audit_creation_method	'MofGen! by Chris Wilmer'
_symmetry_space_group_name_H-M	'P1'
_symmetry_Int_Tables_number	1
_symmetry_cell_setting	triclinic
loop_
_symmetry_equiv_pos_as_xyz
  x,y,z
_cell_length_a	12.827893
_cell_length_b	12.827892
_cell_length_c	10.686551
_cell_angle_alpha	94.405282
_cell_angle_beta	94.394897
_cell_angle_gamma	90.015363
loop_
_atom_site_label
_atom_site_type_symbol
_atom_site_fract_x
_atom_site_fract_y
_atom_site_fract_z
Zn1	Zn	1.643032	-0.370622	0.713446
Zn2	Zn	2.143032	0.129378	1.213446
Zn3	Zn	1.629511	-0.558813	0.502446
Zn4	Zn	2.129511	-0.058813	1.002446
Zn5	Zn	1.454859	-0.384086	0.502463
Zn6	Zn	1.954859	0.115914	1.002463
Zn7	Zn	1.468256	-0.545325	0.713398
Zn8	Zn	1.968256	-0.045325	1.213398
O9	O	1.548914	-0.464712	0.607938
O10	O	2.048914	0.035288	1.107938
O11	O	1.787475	-0.395596	0.685469
O12	O	2.287475	0.104404	1.185469
O13	O	1.595078	-0.546915	0.325867
O14	O	2.095078	-0.046915	0.825867
O15	O	1.479872	-0.236063	0.530478
O16	O	1.979872	0.263937	1.030478
O17	O	1.777541	-0.533859	0.530448
O18	O	2.277541	-0.033859	1.030448
O19	O	1.618122	-0.226170	0.685486
O20	O	2.118122	0.273830	1.185486
O21	O	1.466762	-0.418544	0.325880
O22	O	1.966762	0.081456	0.825880
O23	O	1.310399	-0.405465	0.530431
O24	O	1.810399	0.094535	1.030431
O25	O	1.502705	-0.510871	0.889985
O26	O	2.002705	-0.010871	1.389985
O27	O	1.320242	-0.523927	0.685404
O28	O	1.820242	-0.023927	1.185404
O29	O	1.631112	-0.382517	0.890020
O30	O	2.131112	0.117483	1.390020
O31	O	1.608068	-0.703262	0.530401
O32	O	2.108068	-0.203262	1.030401
O33	O	1.489595	-0.693352	0.685387
O34	O	1.989595	-0.193352	1.185387
C35	C	1.277403	-0.464694	0.607915
C36	C	1.777403	0.035306	1.107915
C37	C	1.161251	-0.464710	0.607935
C38	C	1.661251	0.035290	1.107935
C39	C	0.994314	-0.523450	0.684521
C40	C	1.494314	-0.023450	1.184521
C41	C	1.114363	-0.523435	0.684502
C42	C	1.614363	-0.023435	1.184502
C43	C	1.548848	-0.736223	0.607915
C44	C	2.048848	-0.236223	1.107915
C45	C	1.548918	-0.852374	0.607947
C46	C	2.048918	-0.352374	1.107947
C47	C	1.490276	-0.899294	0.684582
C48	C	1.990276	-0.399294	1.184582
C49	C	1.490347	-1.019342	0.684617
C50	C	1.990347	-0.519342	1.184617
C51	C	1.821486	-0.464730	0.607962
C52	C	2.321486	0.035270	1.107962
C53	C	1.937640	-0.464738	0.607972
C54	C	2.437640	0.035262	1.107972
C55	C	1.569911	-0.443688	0.937069
C56	C	2.069911	0.056312	1.437069
C57	C	1.578859	-0.434729	1.077324
C58	C	2.078859	0.065271	1.577324
C59	C	1.549011	-0.192138	0.607989
C60	C	2.049011	0.307862	1.107989
C61	C	1.549052	-0.075984	0.608011
C62	C	2.049052	0.424016	1.108011
C63	C	1.528059	-0.485579	0.280088
C64	C	2.028059	0.014421	0.780088
C65	C	1.519314	-0.494244	0.139833
C66	C	2.019314	0.005756	0.639833
H67	H	0.977994	-0.414466	0.542417
H68	H	1.477994	0.085534	1.042417
H69	H	1.440012	-0.850591	0.750163
H70	H	1.940012	-0.350591	1.250163
H71	H	1.599174	-0.901080	0.542359
H72	H	2.099174	-0.401080	1.042359
H73	H	1.440145	-1.059709	0.750233
H74	H	1.940145	-0.559709	1.250233
H75	H	0.953958	-0.573730	0.750067
H76	H	1.453958	-0.073730	1.250067
H77	H	1.112538	-0.414438	0.542400
H78	H	1.612538	0.085562	1.042400
H79	H	1.163083	-0.573695	0.750045
H80	H	1.663083	-0.073695	1.250045
H81	H	1.461492	-0.552054	1.086049
H82	H	1.961492	-0.052054	1.586049
H83	H	1.636692	-0.376922	1.131114
H84	H	2.136692	0.123078	1.631114
H85	H	1.599265	-1.035624	0.542401
H86	H	2.099265	-0.535624	1.042401
