data_functionalizedCrystal
_audit_creation_method	'MofGen! by Chris Wilmer'
_symmetry_space_group_name_H-M	'P1'
_symmetry_Int_Tables_number	1
_symmetry_cell_setting	triclinic
loop_
_symmetry_equiv_pos_as_xyz
  x,y,z
_cell_length_a	12.594517
_cell_length_b	12.594516
_cell_length_c	13.897441
_cell_angle_alpha	90.026377
_cell_angle_beta	90.023088
_cell_angle_gamma	90.015485
loop_
_atom_site_label
_atom_site_type_symbol
_atom_site_fract_x
_atom_site_fract_y
_atom_site_fract_z
Zn1	Zn	1.627276	-0.423724	0.545470
Zn2	Zn	2.127276	0.076276	1.045470
Zn3	Zn	1.627164	-0.601735	0.384183
Zn4	Zn	2.127164	-0.101735	0.884183
Zn5	Zn	1.449277	-0.423769	0.384182
Zn6	Zn	1.949277	0.076231	0.884182
Zn7	Zn	1.449262	-0.601659	0.545429
Zn8	Zn	1.949262	-0.101659	1.045429
O9	O	1.538245	-0.512722	0.464816
O10	O	2.038245	-0.012722	0.964816
O11	O	1.776207	-0.447351	0.524093
O12	O	2.276207	0.052649	1.024093
O13	O	1.603527	-0.578178	0.249201
O14	O	2.103527	-0.078178	0.749201
O15	O	1.472942	-0.274817	0.405593
O16	O	1.972942	0.225183	0.905593
O17	O	1.776125	-0.578134	0.405596
O18	O	2.276125	-0.078134	0.905596
O19	O	1.603717	-0.274784	0.524091
O20	O	2.103717	0.225216	1.024091
O21	O	1.472834	-0.447427	0.249200
O22	O	1.972834	0.052573	0.749200
O23	O	1.300330	-0.447354	0.405554
O24	O	1.800330	0.052646	0.905554
O25	O	1.472917	-0.578005	0.680416
O26	O	1.972917	-0.078005	1.180416
O27	O	1.300318	-0.578049	0.524022
O28	O	1.800318	-0.078049	1.024022
O29	O	1.603703	-0.447277	0.680446
O30	O	2.103703	0.052723	1.180446
O31	O	1.603512	-0.750671	0.405557
O32	O	2.103512	-0.250671	0.905557
O33	O	1.472808	-0.750615	0.524023
O34	O	1.972808	-0.250615	1.024023
C35	C	1.261704	-0.512699	0.464784
C36	C	1.761704	-0.012699	0.964784
C37	C	1.143399	-0.512715	0.464793
C38	C	1.643399	-0.012715	0.964793
C39	C	1.003357	-0.441551	0.400506
C40	C	1.503357	0.058449	0.900506
C41	C	1.074217	-0.415618	0.488525
C42	C	1.574217	0.084382	0.988525
C43	C	1.074110	-0.538600	0.376783
C44	C	1.574110	-0.038600	0.876783
C45	C	1.003473	-0.486773	0.552929
C46	C	1.503473	0.013227	1.052929
C47	C	1.003360	-0.609800	0.441128
C48	C	1.503360	-0.109800	0.941128
C49	C	1.074188	-0.583904	0.529208
C50	C	1.574188	-0.083904	1.029208
C51	C	1.538175	-0.789263	0.464807
C52	C	2.038175	-0.289263	0.964807
C53	C	1.538243	-0.907568	0.464835
C54	C	2.038243	-0.407568	0.964835
C55	C	1.467146	-0.976830	0.529224
C56	C	1.967146	-0.476830	1.029224
C57	C	1.441211	-1.047695	0.441206
C58	C	1.941211	-0.547695	0.941206
C59	C	1.564275	-1.047502	0.552868
C60	C	2.064275	-0.547502	1.052868
C61	C	1.512257	-0.976876	0.376770
C62	C	2.012257	-0.476876	0.876770
C63	C	1.635365	-0.976676	0.488492
C64	C	2.135365	-0.476676	0.988492
C65	C	1.609467	-1.047509	0.400413
C66	C	2.109467	-0.547509	0.900413
C67	C	1.815866	-0.512746	0.464849
C68	C	2.315866	-0.012746	0.964849
C69	C	1.934171	-0.512756	0.464863
C70	C	2.434171	-0.012756	0.964863
C71	C	1.538321	-0.512628	0.716409
C72	C	2.038321	-0.012628	1.216409
C73	C	1.538353	-0.512588	0.823623
C74	C	2.038353	-0.012588	1.323623
C75	C	1.538344	-0.235101	0.464847
C76	C	2.038344	0.264899	0.964847
C77	C	1.538386	-0.116796	0.464860
C78	C	2.038386	0.383204	0.964860
C79	C	1.538231	-0.512739	0.214202
C80	C	2.038231	-0.012739	0.714202
C81	C	1.538405	-0.512479	0.106988
C82	C	2.038405	-0.012479	0.606988
C83	C	1.538382	-0.512516	1.019919
C84	C	2.038382	-0.012516	1.519919
C85	C	1.538362	-0.512559	0.910686
C86	C	2.038362	-0.012559	1.410686
H87	H	1.406914	-0.945795	0.583596
H88	H	1.906914	-0.445795	1.083596
N89	N	1.483041	-0.935956	0.278142
N90	N	1.983041	-0.435956	0.778142
H91	H	1.409975	-0.962421	0.260138
H92	H	1.909975	-0.462421	0.760138
H93	H	1.536501	-0.962277	0.229525
H94	H	2.036501	-0.462277	0.729525
H95	H	0.972573	-0.464800	0.627410
H96	H	1.472573	0.035200	1.127410
N97	N	1.332503	-1.089030	0.414711
N98	N	1.832503	-0.589030	0.914711
H99	H	1.337657	-1.133190	0.354212
H100	H	1.837657	-0.633190	0.854212
H101	H	1.282962	-1.027250	0.403337
H102	H	1.782962	-0.527250	0.903337
H103	H	0.972213	-0.691863	0.421051
H104	H	1.472213	-0.191863	0.921051
N105	N	1.115120	-0.663643	0.601342
N106	N	1.615120	-0.163643	1.101342
H107	H	1.160328	-0.626153	0.650868
H108	H	1.660328	-0.126153	1.150868
H109	H	1.159194	-0.718914	0.567043
H110	H	1.659194	-0.218914	1.067043
H111	H	1.105142	-0.560476	0.302324
H112	H	1.605142	-0.060476	0.802324
N113	N	1.689196	-1.088363	0.328227
N114	N	2.189196	-0.588363	0.828227
H115	H	1.669452	-1.062533	0.261798
H116	H	2.169452	-0.562533	0.761798
H117	H	1.689224	-1.168547	0.329106
H118	H	2.189224	-0.668547	0.829106
N119	N	1.744049	-0.935325	0.515023
N120	N	2.244049	-0.435325	1.015023
H121	H	1.738625	-0.890020	0.574803
H122	H	2.238625	-0.390020	1.074803
H123	H	1.772988	-0.891259	0.460286
H124	H	2.272988	-0.391259	0.960286
N125	N	0.962159	-0.361763	0.328538
N126	N	1.462159	0.138237	0.828538
H127	H	0.987938	-0.288461	0.346570
H128	H	1.487938	0.211539	0.846570
H129	H	0.881977	-0.362910	0.328666
H130	H	1.381977	0.137090	0.828666
N131	N	1.115446	-0.306891	0.515095
N132	N	1.615446	0.193109	1.015095
H133	H	1.089686	-0.253167	0.466470
H134	H	1.589686	0.246833	0.966470
H135	H	1.195628	-0.307953	0.515500
H136	H	1.695628	0.192047	1.015500
H137	H	1.586235	-1.078526	0.627306
H138	H	2.086235	-0.578526	1.127306
