data_functionalizedCrystal
_audit_creation_method	'MofGen! by Chris Wilmer'
_symmetry_space_group_name_H-M	'P1'
_symmetry_Int_Tables_number	1
_symmetry_cell_setting	triclinic
loop_
_symmetry_equiv_pos_as_xyz
  x,y,z
_cell_length_a	10.908937
_cell_length_b	11.026607
_cell_length_c	8.140239
_cell_angle_alpha	89.998310
_cell_angle_beta	89.995517
_cell_angle_gamma	84.335986
loop_
_atom_site_label
_atom_site_type_symbol
_atom_site_fract_x
_atom_site_fract_y
_atom_site_fract_z
O1	O	1.662445	-0.179060	-0.136664
O2	O	2.162445	0.320940	0.363336
O3	O	1.309512	-0.088523	-0.136655
O4	O	1.809512	0.411477	0.363345
O5	O	1.456728	-0.304542	-0.136653
O6	O	1.956728	0.195458	0.363347
O7	O	1.515229	0.036959	-0.136666
O8	O	2.015229	0.536959	0.363334
O9	O	1.456717	-0.304542	0.136575
O10	O	1.956717	0.195458	0.636575
O11	O	1.309502	-0.088523	0.136572
O12	O	1.809502	0.411477	0.636572
O13	O	1.662434	-0.179060	0.136563
O14	O	2.162434	0.320940	0.636563
Zn15	Zn	1.485966	-0.133791	0.179949
Zn16	Zn	1.985966	0.366209	0.679949
Zn17	Zn	1.485980	-0.133792	-0.180040
Zn18	Zn	1.985980	0.366208	0.319960
O19	O	1.515219	0.036959	0.136561
O20	O	2.015219	0.536959	0.636561
C21	C	1.263622	-0.080062	-0.000040
C22	C	1.763622	0.419938	0.499960
C23	C	1.126895	-0.054865	-0.000037
C24	C	1.626895	0.445135	0.499963
C25	C	0.915317	-0.120775	-0.000064
C26	C	1.415317	0.379225	0.499936
C27	C	1.056631	-0.146820	-0.000042
C28	C	1.556631	0.353180	0.499958
C29	C	1.445930	-0.347575	-0.000041
C30	C	1.945930	0.152425	0.499959
C31	C	1.413757	-0.475796	-0.000046
C32	C	1.913757	0.024204	0.499954
C33	C	1.502592	-0.567529	-0.000050
C34	C	2.002592	-0.067529	0.499950
C35	C	1.469342	-0.700053	-0.000055
C36	C	1.969342	-0.200053	0.499945
C37	C	1.708325	-0.187521	-0.000055
C38	C	2.208325	0.312479	0.499945
C39	C	1.845052	-0.212718	-0.000069
C40	C	2.345052	0.287282	0.499931
C41	C	1.526016	0.079992	-0.000054
C42	C	2.026016	0.579992	0.499946
C43	C	1.558189	0.208213	-0.000060
C44	C	2.058189	0.708213	0.499940
N45	N	1.485965	-0.133794	0.425631
N46	N	1.985965	0.366206	0.925631
N47	N	1.485989	-0.133800	-0.425722
N48	N	1.985989	0.366200	0.074278
H49	H	1.082440	0.043139	-0.000052
H50	H	1.582440	0.543139	0.499948
N51	N	1.115496	-0.276644	-0.000028
N52	N	1.615496	0.223356	0.499972
H53	H	1.168387	-0.291247	-0.101305
H54	H	1.668387	0.208753	0.398695
H55	H	1.168294	-0.291157	0.101333
H56	H	1.668294	0.208843	0.601333
N57	N	1.335983	-0.725965	-0.000033
N58	N	1.835983	-0.225965	0.499967
H59	H	1.281267	-0.646540	-0.000024
H60	H	1.781267	-0.146540	0.499976
H61	H	1.318775	-0.774391	-0.101321
H62	H	1.818775	-0.274391	0.398679
H63	H	0.889514	-0.310715	-0.000068
H64	H	1.389514	0.189285	0.499932
H65	H	1.313087	-0.495373	-0.000054
H66	H	1.813087	0.004627	0.499946
H67	H	1.658866	-0.772219	-0.000186
H68	H	2.158866	-0.272219	0.499814
H69	H	0.870855	-0.022779	-0.000084
H70	H	1.370855	0.477221	0.499916
H71	H	1.603262	-0.547952	-0.000043
H72	H	2.103262	-0.047952	0.499957
