data_functionalizedCrystal
_audit_creation_method	'MofGen! by Chris Wilmer'
_symmetry_space_group_name_H-M	'P1'
_symmetry_Int_Tables_number	1
_symmetry_cell_setting	triclinic
loop_
_symmetry_equiv_pos_as_xyz
  x,y,z
_cell_length_a	14.853567
_cell_length_b	19.288864
_cell_length_c	18.366186
_cell_angle_alpha	90.022894
_cell_angle_beta	89.997562
_cell_angle_gamma	96.614411
loop_
_atom_site_label
_atom_site_type_symbol
_atom_site_fract_x
_atom_site_fract_y
_atom_site_fract_z
O1	O	0.112464	-0.921732	-0.060777
O2	O	0.612464	-0.421732	0.439223
O3	O	0.127635	-0.719523	-0.060727
O4	O	0.627635	-0.219523	0.439273
O5	O	-0.011211	-0.826029	-0.060755
O6	O	0.488789	-0.326029	0.439245
O7	O	0.251310	-0.815226	-0.060748
O8	O	0.751310	-0.315226	0.439252
O9	O	-0.011217	-0.826011	0.060344
O10	O	0.488783	-0.326011	0.560344
O11	O	0.127629	-0.719505	0.060373
O12	O	0.627629	-0.219505	0.560373
O13	O	0.112457	-0.921714	0.060322
O14	O	0.612457	-0.421714	0.560322
Zn15	Zn	0.120042	-0.820607	0.079575
Zn16	Zn	0.620042	-0.320607	0.579575
Zn17	Zn	0.120051	-0.820631	-0.079979
Zn18	Zn	0.620051	-0.320631	0.420021
O19	O	0.251304	-0.815208	0.060351
O20	O	0.751304	-0.315208	0.560351
C21	C	0.127144	-0.693636	-0.000171
C22	C	0.627144	-0.193636	0.499829
C23	C	0.125679	-0.616527	-0.000152
C24	C	0.625679	-0.116527	0.499848
C25	C	-0.044800	-0.825530	-0.000208
C26	C	0.455200	-0.325530	0.499792
C27	C	-0.144875	-0.824064	-0.000214
C28	C	0.355125	-0.324064	0.499786
C29	C	0.112949	-0.947601	-0.000236
C30	C	0.612949	-0.447601	0.499764
C31	C	0.114414	-1.024710	-0.000259
C32	C	0.614414	-0.524710	0.499741
C33	C	-0.557014	-0.754596	-0.000182
C34	C	-0.057014	-0.254596	0.499818
C35	C	-0.579015	-0.881128	-0.000214
C36	C	-0.079015	-0.381128	0.499786
C37	C	-0.484989	-0.882507	-0.000219
C38	C	0.015011	-0.382507	0.499781
C39	C	-0.426971	-0.819930	-0.000204
C40	C	0.073029	-0.319930	0.499796
C41	C	-0.462979	-0.755974	-0.000185
C42	C	0.037021	-0.255974	0.499815
C43	C	-0.448973	-0.946462	-0.000231
C44	C	0.051027	-0.446462	0.499769
C45	C	-0.354942	-0.947844	-0.000235
C46	C	0.145058	-0.447844	0.499765
C47	C	-0.296923	-0.885266	-0.000225
C48	C	0.203077	-0.385266	0.499775
C49	C	-0.332936	-0.821307	-0.000207
C50	C	0.167064	-0.321307	0.499793
C51	C	-0.274918	-0.758730	-0.000192
C52	C	0.225082	-0.258730	0.499808
C53	C	-0.310930	-0.694770	-0.000179
C54	C	0.189070	-0.194770	0.499821
C55	C	-0.404960	-0.693396	-0.000176
C56	C	0.095040	-0.193396	0.499824
C57	C	-0.202893	-0.886641	-0.000228
C58	C	0.297107	-0.386641	0.499772
C59	C	-0.180883	-0.760107	-0.000194
C60	C	0.319117	-0.260107	0.499806
C61	C	0.284893	-0.815707	-0.000198
C62	C	0.784893	-0.315707	0.499802
C63	C	0.384968	-0.817174	-0.000197
C64	C	0.884968	-0.317174	0.499803
N65	N	0.120035	-0.820595	0.188466
N66	N	0.620035	-0.320595	0.688466
C67	C	0.207147	-0.572106	-0.000161
C68	C	0.707147	-0.072106	0.499839
C69	C	0.205770	-0.499654	-0.000169
C70	C	0.705770	0.000346	0.499831
C71	C	0.122920	-0.471627	-0.000182
C72	C	0.622920	0.028373	0.499818
C73	C	0.041441	-0.516058	-0.000169
C74	C	0.541441	-0.016058	0.499831
C75	C	0.042820	-0.588508	-0.000154
C76	C	0.542820	-0.088508	0.499846
C77	C	0.057794	-0.363152	-0.042635
C78	C	0.557794	0.136848	0.457365
C79	C	0.056418	-0.290702	-0.042655
C80	C	0.556418	0.209298	0.457345
C81	C	0.118664	-0.248167	-0.000227
C82	C	0.618664	0.251833	0.499773
C83	C	0.182300	-0.278088	0.042212
C84	C	0.682300	0.221912	0.542212
C85	C	0.183679	-0.350538	0.042228
C86	C	0.683679	0.149462	0.542228
C87	C	0.121416	-0.393068	-0.000199
C88	C	0.621416	0.106932	0.499801
C89	C	0.198645	-0.125185	-0.000243
C90	C	0.698645	0.374815	0.499757
C91	C	0.197265	-0.052732	-0.000247
C92	C	0.697265	0.447268	0.499753
C93	C	0.032933	-0.069138	-0.000254
C94	C	0.532933	0.430862	0.499746
C95	C	0.034316	-0.141589	-0.000244
C96	C	0.534316	0.358411	0.499756
C97	C	0.117174	-0.169608	-0.000242
C98	C	0.617174	0.330392	0.499758
N99	N	0.120050	-0.820647	-0.188870
N100	N	0.620050	-0.320647	0.311130
C101	C	0.058584	-0.867772	0.226553
C102	C	0.558584	-0.367772	0.726553
C103	C	0.058580	-0.867776	0.302781
C104	C	0.558580	-0.367776	0.802781
C105	C	0.120043	-0.820611	0.340918
C106	C	0.620043	-0.320611	0.840918
C107	C	0.181498	-0.773426	0.302822
C108	C	0.681498	-0.273426	0.802822
C109	C	0.181495	-0.773418	0.226595
C110	C	0.681495	-0.273418	0.726595
C111	C	0.202186	-0.811590	0.461682
C112	C	0.702186	-0.311590	0.961682
C113	C	0.202191	-0.811602	0.537907
C114	C	0.702191	-0.311602	1.037907
C115	C	0.120054	-0.820631	0.576026
C116	C	0.620054	-0.320631	1.076026
C117	C	0.037908	-0.829661	0.537910
C118	C	0.537908	-0.329661	1.037910
C119	C	0.037905	-0.829653	0.461684
C120	C	0.537905	-0.329653	0.961684
C121	C	0.120053	-0.820614	0.423573
C122	C	0.620053	-0.320614	0.923573
C123	C	0.058594	-0.867814	0.696769
C124	C	0.558594	-0.367814	1.196769
C125	C	0.058588	-0.867814	0.772998
C126	C	0.558588	-0.367814	1.272998
C127	C	0.181514	-0.773467	0.773037
C128	C	0.681514	-0.273467	1.273037
C129	C	0.181512	-0.773464	0.696809
C130	C	0.681512	-0.273464	1.196809
C131	C	0.120052	-0.820641	0.658679
C132	C	0.620052	-0.320641	1.158679
H133	H	-0.133651	-0.709148	-0.000186
H134	H	0.366349	-0.209148	0.499814
O135	O	0.252304	-0.382798	0.088016
O136	O	0.752304	0.117202	0.588016
H137	H	0.295450	-0.411582	0.052255
H138	H	0.795450	0.088418	0.552255
H139	H	0.266113	-0.147999	-0.000231
H140	H	0.766113	0.352001	0.499769
O141	O	0.290789	-0.801877	0.579012
O142	O	0.790789	-0.301877	1.079012
H143	H	0.328473	-0.750716	0.564415
H144	H	0.828473	-0.250716	1.064415
H145	H	0.263609	-0.016564	-0.000250
H146	H	0.763609	0.483436	0.499750
H147	H	-0.325630	-0.999924	-0.000246
H148	H	0.174370	-0.499924	0.499754
O149	O	0.290778	-0.801838	0.420566
O150	O	0.790778	-0.301838	0.920566
H151	H	0.296408	-0.848224	0.385801
H152	H	0.796408	-0.348224	0.885801
O153	O	-0.012213	-0.258436	-0.088431
O154	O	0.487787	0.241564	0.411569
H155	H	-0.002708	-0.200911	-0.081323
H156	H	0.497292	0.299089	0.418677
H157	H	0.008538	-0.906194	0.333798
H158	H	0.508538	-0.406194	0.833798
O159	O	0.247797	-0.722556	0.343949
O160	O	0.747797	-0.222556	0.843949
H161	H	0.237484	-0.730493	0.403353
H162	H	0.737484	-0.230493	0.903353
H163	H	0.008543	-0.906229	0.804009
H164	H	0.508543	-0.406229	1.304009
O165	O	-0.007715	-0.918646	0.185431
O166	O	0.492285	-0.418646	0.685431
H167	H	0.003589	-0.972802	0.200035
H168	H	0.503589	-0.472802	0.700035
O169	O	-0.050699	-0.839403	0.579002
O170	O	0.449301	-0.339403	1.079002
H171	H	-0.056346	-0.793008	0.613748
H172	H	0.443654	-0.293008	1.113748
H173	H	-0.028981	-0.837004	0.430653
H174	H	0.471019	-0.337004	0.930653
H175	H	0.231554	-0.735051	0.665796
H176	H	0.731554	-0.235051	1.165796
O177	O	0.247775	-0.722536	0.185503
O178	O	0.747775	-0.222536	0.685503
H179	H	0.318030	-0.731452	0.200116
H180	H	0.818030	-0.231452	0.700116
O181	O	-0.248352	-0.627276	-0.000161
O182	O	0.251648	-0.127276	0.499839
H183	H	-0.176920	-0.638984	-0.000166
H184	H	0.323080	-0.138984	0.499834
O185	O	0.249441	-0.232224	0.087985
O186	O	0.749441	0.267776	0.587985
H187	H	0.237786	-0.176819	0.080855
H188	H	0.737786	0.323181	0.580855
H189	H	-0.034525	-0.046319	-0.000311
H190	H	0.465475	0.453681	0.499689
O191	O	-0.164055	-0.955619	-0.000246
O192	O	0.335945	-0.455619	0.499754
H193	H	-0.121744	-0.959268	0.049111
H194	H	0.378256	-0.459268	0.549111
O195	O	-0.053554	-0.189508	-0.000240
O196	O	0.446446	0.310492	0.499760
H197	H	-0.111398	-0.157849	-0.000255
H198	H	0.388602	0.342151	0.499745
O199	O	-0.007704	-0.918675	0.655624
O200	O	0.492296	-0.418675	1.155624
H201	H	0.003582	-0.972838	0.670219
H202	H	0.503582	-0.472838	1.170219
O203	O	-0.443798	-0.624414	-0.000146
O204	O	0.056202	-0.124414	0.499854
H205	H	-0.518929	-0.633972	-0.000134
H206	H	-0.018929	-0.133972	0.499866
H207	H	0.007104	-0.397779	-0.077190
H208	H	0.507104	0.102221	0.422810
O209	O	0.296511	-0.602329	-0.000138
O210	O	0.796511	-0.102329	0.499862
H211	H	0.352931	-0.559263	-0.000135
H212	H	0.852931	-0.059263	0.499865
O213	O	-0.641583	-0.948621	-0.000223
O214	O	-0.141583	-0.448621	0.499777
H215	H	-0.713018	-0.936918	-0.000219
H216	H	-0.213018	-0.436918	0.499781
O217	O	-0.595845	-0.685612	-0.000160
O218	O	-0.095845	-0.185612	0.499840
H219	H	-0.670977	-0.695163	-0.000155
H220	H	-0.170977	-0.195163	0.499845
H221	H	-0.496218	-0.997409	-0.000236
H222	H	0.003782	-0.497409	0.499764
H223	H	0.231555	-0.735061	0.804088
H224	H	0.731555	-0.235061	1.304088
O225	O	0.293642	-0.451728	-0.000187
O226	O	0.793642	0.048272	0.499813
H227	H	0.351489	-0.483384	-0.000188
H228	H	0.851489	0.016616	0.499812
H229	H	-0.026016	-0.493234	-0.000190
H230	H	0.473984	0.006766	0.499810
H231	H	-0.023524	-0.624677	-0.000146
H232	H	0.476476	-0.124677	0.499854
