data_functionalizedCrystal
_audit_creation_method	'MofGen! by Chris Wilmer'
_symmetry_space_group_name_H-M	'P1'
_symmetry_Int_Tables_number	1
_symmetry_cell_setting	triclinic
loop_
_symmetry_equiv_pos_as_xyz
  x,y,z
_cell_length_a	27.731994
_cell_length_b	27.732048
_cell_length_c	22.610064
_cell_angle_alpha	89.999096
_cell_angle_beta	89.997930
_cell_angle_gamma	82.631595
loop_
_atom_site_label
_atom_site_type_symbol
_atom_site_fract_x
_atom_site_fract_y
_atom_site_fract_z
O1	O	0.640948	0.057386	-0.049107
O2	O	1.140948	0.557386	0.450893
O3	O	0.500151	0.066159	-0.049127
O4	O	1.000151	0.566159	0.450873
O5	O	0.574922	-0.008625	-0.049105
O6	O	1.074922	0.491375	0.450895
O7	O	0.566176	0.132170	-0.049129
O8	O	1.066176	0.632170	0.450871
O9	O	0.574909	-0.008615	0.049264
O10	O	1.074909	0.491385	0.549264
O11	O	0.500137	0.066169	0.049242
O12	O	1.000137	0.566169	0.549242
O13	O	0.640935	0.057397	0.049263
O14	O	1.140935	0.557397	0.549263
Zn15	Zn	0.570534	0.061785	0.064871
Zn16	Zn	1.070534	0.561785	0.564871
Zn17	Zn	0.570551	0.061770	-0.064735
Zn18	Zn	1.070551	0.561770	0.435265
O19	O	0.566163	0.132181	0.049240
O20	O	1.066163	0.632181	0.549240
C21	C	0.482137	0.065984	0.000055
C22	C	0.982137	0.565984	0.500055
C23	C	0.428480	0.065442	0.000048
C24	C	0.928480	0.565442	0.500048
C25	C	0.574732	-0.026627	0.000081
C26	C	1.074732	0.473373	0.500081
C27	C	0.574179	-0.080282	0.000086
C28	C	1.074179	0.419718	0.500086
C29	C	0.095755	0.062032	0.053692
C30	C	0.595755	0.562032	0.553692
C31	C	-0.105904	0.059970	0.053699
C32	C	0.394096	0.559970	0.553699
O33	O	-0.131982	0.059688	0.099302
O34	O	0.368018	0.559688	0.599302
N35	N	-0.131111	0.059708	0.000078
N36	N	0.368889	0.559708	0.500078
C37	C	-0.105901	0.059958	-0.053548
C38	C	0.394099	0.559958	0.446452
O39	O	-0.131968	0.059683	-0.099156
O40	O	0.368032	0.559683	0.400844
C41	C	0.095757	0.062017	-0.053555
C42	C	0.595757	0.562017	0.446445
C43	C	0.120961	0.062283	0.000070
C44	C	0.620961	0.562283	0.500070
C45	C	0.120959	0.062298	0.107312
C46	C	0.620959	0.562298	0.607312
C47	C	0.171370	0.062816	0.107310
C48	C	0.671370	0.562816	0.607310
C49	C	0.196577	0.063068	0.053688
C50	C	0.696577	0.563068	0.553688
C51	C	0.171372	0.062802	0.000067
C52	C	0.671372	0.562802	0.500067
C53	C	0.120967	0.062263	-0.107181
C54	C	0.620967	0.562263	0.392819
C55	C	0.171385	0.062777	-0.107178
C56	C	0.671385	0.562777	0.392822
C57	C	0.196589	0.063044	-0.053553
C58	C	0.696589	0.563044	0.446447
C59	C	0.246990	0.063571	-0.053557
C60	C	0.746990	0.563571	0.446443
N61	N	0.272198	0.063833	0.000064
N62	N	0.772198	0.563833	0.500064
C63	C	0.246991	0.063582	0.053686
C64	C	0.746991	0.563582	0.553686
C65	C	-0.211774	0.058879	-0.053541
C66	C	0.288226	0.558879	0.446459
C67	C	-0.262188	0.058365	-0.053540
C68	C	0.237812	0.558365	0.446460
C69	C	-0.262188	0.058376	0.053708
C70	C	0.237812	0.558376	0.553708
C71	C	-0.211773	0.058893	0.053706
C72	C	0.288227	0.558893	0.553706
C73	C	-0.186566	0.059141	0.000080
C74	C	0.313434	0.559141	0.500080
C75	C	0.352858	0.064670	0.053677
C76	C	0.852858	0.564670	0.553677
C77	C	0.403274	0.065190	0.053670
C78	C	0.903274	0.565190	0.553670
C79	C	0.403269	0.065176	-0.053577
C80	C	0.903269	0.565176	0.446423
C81	C	0.352857	0.064659	-0.053571
C82	C	0.852857	0.564659	0.446429
C83	C	0.327654	0.064404	0.000061
C84	C	0.827654	0.564404	0.500061
O85	O	0.273101	0.063848	-0.099136
O86	O	0.773101	0.563848	0.400864
O87	O	0.273068	0.063846	0.099287
O88	O	0.773068	0.563846	0.599287
C89	C	0.045343	0.061514	0.053694
C90	C	0.545343	0.561514	0.553694
C91	C	0.020139	0.061247	0.000074
C92	C	0.520139	0.561247	0.500074
C93	C	0.045346	0.061499	-0.053548
C94	C	0.545346	0.561499	0.446452
C95	C	-0.030275	0.060734	0.000076
C96	C	0.469725	0.560734	0.500076
C97	C	-0.055482	0.060482	0.053698
C98	C	0.444518	0.560482	0.553698
C99	C	-0.030274	0.060744	0.107319
C100	C	0.469726	0.560744	0.607319
C101	C	0.020137	0.061262	0.107317
C102	C	0.520137	0.561262	0.607317
C103	C	0.020138	0.061237	-0.107169
C104	C	0.520138	0.561237	0.392831
C105	C	-0.030273	0.060720	-0.107162
C106	C	0.469727	0.560720	0.392838
C107	C	-0.055480	0.060468	-0.053540
C108	C	0.444520	0.560468	0.446460
C109	C	0.614884	-0.419105	0.000062
C110	C	1.114884	0.080895	0.500062
C111	C	0.612833	-0.620764	0.000053
C112	C	1.112833	-0.120764	0.500053
O113	O	0.650055	-0.652027	0.000033
O114	O	1.150055	-0.152027	0.500033
N115	N	0.568496	-0.639879	0.000047
N116	N	1.068496	-0.139879	0.500047
C117	C	0.524670	-0.608576	0.000040
C118	C	1.024670	-0.108576	0.500040
O119	O	0.486912	-0.629462	0.000028
O120	O	0.986912	-0.129462	0.500028
C121	C	0.526721	-0.406918	0.000044
C122	C	1.026721	0.093082	0.500044
C123	C	0.571061	-0.387805	0.000056
C124	C	1.071061	0.112195	0.500056
C125	C	0.659220	-0.399992	0.000073
C126	C	1.159220	0.100008	0.500073
C127	C	0.659732	-0.349580	0.000078
C128	C	1.159732	0.150420	0.500078
C129	C	0.615908	-0.318281	0.000072
C130	C	1.115908	0.181719	0.500072
C131	C	0.571573	-0.337394	0.000061
C132	C	1.071573	0.162606	0.500061
C133	C	0.482895	-0.375615	0.000032
C134	C	0.982895	0.124385	0.500032
C135	C	0.483412	-0.325198	0.000032
C136	C	0.983412	0.174802	0.500032
C137	C	0.527751	-0.306086	0.000043
C138	C	1.027751	0.193914	0.500043
C139	C	0.528262	-0.255683	0.000061
C140	C	1.028262	0.244317	0.500061
N141	N	0.572598	-0.236567	0.000067
N142	N	1.072598	0.263433	0.500067
C143	C	0.616421	-0.267867	0.000072
C144	C	1.116421	0.232133	0.500072
C145	C	0.523596	-0.714450	0.000038
C146	C	1.023596	-0.214450	0.500038
C147	C	0.523083	-0.764864	0.000038
C148	C	1.023083	-0.264864	0.500038
C149	C	0.611246	-0.777049	0.000051
C150	C	1.111246	-0.277049	0.500051
C151	C	0.611759	-0.726633	0.000055
C152	C	1.111759	-0.226633	0.500055
C153	C	0.567932	-0.695335	0.000044
C154	C	1.067932	-0.195335	0.500044
C155	C	0.617494	-0.161998	0.000084
C156	C	1.117494	0.338002	0.500084
C157	C	0.618002	-0.111581	0.000092
C158	C	1.118002	0.388419	0.500092
C159	C	0.529839	-0.099401	0.000076
C160	C	1.029839	0.400599	0.500076
C161	C	0.529331	-0.149813	0.000072
C162	C	1.029331	0.350187	0.500072
C163	C	0.573162	-0.181111	0.000074
C164	C	1.073162	0.318889	0.500074
O165	O	0.491060	-0.224391	0.000074
O166	O	0.991060	0.275609	0.500074
O167	O	0.654174	-0.246971	0.000071
O168	O	1.154174	0.253029	0.500071
C169	C	0.614372	-0.469517	0.000056
C170	C	1.114372	0.030483	0.500056
C171	C	0.570036	-0.488629	0.000045
C172	C	1.070036	0.011371	0.500045
C173	C	0.526213	-0.457330	0.000039
C174	C	1.026213	0.042670	0.500039
C175	C	0.569523	-0.539043	0.000045
C176	C	1.069523	-0.039043	0.500045
C177	C	0.613346	-0.570343	0.000051
C178	C	1.113346	-0.070343	0.500051
C179	C	0.657683	-0.551228	0.000057
C180	C	1.157683	-0.051228	0.500057
C181	C	0.658195	-0.500816	0.000062
C182	C	1.158195	-0.000816	0.500062
C183	C	0.481876	-0.476445	0.000033
C184	C	0.981876	0.023555	0.500033
C185	C	0.481367	-0.526857	0.000029
C186	C	0.981367	-0.026857	0.500029
C187	C	0.525191	-0.558157	0.000034
C188	C	1.025191	-0.058157	0.500034
C189	C	0.658949	0.057571	0.000079
C190	C	1.158949	0.557571	0.500079
C191	C	0.712605	0.058114	0.000083
C192	C	1.212605	0.558114	0.500083
C193	C	0.566353	0.150182	0.000053
C194	C	1.066353	0.650182	0.500053
C195	C	0.566906	0.203837	0.000044
C196	C	1.066906	0.703837	0.500044
N197	N	0.570525	0.061794	0.153323
N198	N	1.070525	0.561794	0.653323
N199	N	0.570563	0.061757	-0.153187
N200	N	1.070563	0.561757	0.346813
C201	C	0.603661	0.028661	0.561974
C202	C	1.103661	0.528661	1.061974
C203	C	0.603664	0.028658	0.623894
C204	C	1.103664	0.528658	1.123894
O205	O	0.631817	0.000494	0.655921
O206	O	1.131817	0.500494	1.155921
N207	N	0.570551	0.061760	0.654860
N208	N	1.070551	0.561760	1.154860
C209	C	0.537430	0.094866	0.623903
C210	C	1.037430	0.594866	1.123903
O211	O	0.509265	0.123021	0.655928
O212	O	1.009265	0.623021	1.155928
C213	C	0.537426	0.094866	0.561984
C214	C	1.037426	0.594866	1.061984
C215	C	0.570544	0.061765	0.531022
C216	C	1.070544	0.561765	1.031022
C217	C	0.636777	-0.004438	0.531011
C218	C	1.136777	0.495562	1.031011
C219	C	0.636775	-0.004434	0.469096
C220	C	1.136775	0.495566	0.969096
C221	C	0.603657	0.028670	0.438143
C222	C	1.103657	0.528670	0.938143
C223	C	0.570542	0.061769	0.469106
C224	C	1.070542	0.561769	0.969106
C225	C	0.504303	0.127969	0.531028
C226	C	1.004303	0.627969	1.031028
C227	C	0.504301	0.127967	0.469105
C228	C	1.004301	0.627967	0.969105
C229	C	0.537419	0.094865	0.438143
C230	C	1.037419	0.594865	0.938143
C231	C	0.537423	0.094877	0.376237
C232	C	1.037423	0.594877	0.876237
N233	N	0.570536	0.061774	0.345271
N234	N	1.070536	0.561774	0.845271
C235	C	0.603653	0.028670	0.376224
C236	C	1.103653	0.528670	0.876224
C237	C	0.537441	0.094861	0.753937
C238	C	1.037441	0.594861	1.253937
C239	C	0.537447	0.094863	0.815854
C240	C	1.037447	0.594863	1.315854
C241	C	0.603681	0.028654	0.815841
C242	C	1.103681	0.528654	1.315841
C243	C	0.603677	0.028655	0.753922
C244	C	1.103677	0.528655	1.253922
C245	C	0.570554	0.061758	0.722971
C246	C	1.070554	0.561758	1.222971
C247	C	0.603647	0.028682	0.246197
C248	C	1.103647	0.528682	0.746197
C249	C	0.603643	0.028691	0.184276
C250	C	1.103643	0.528691	0.684276
C251	C	0.537408	0.094897	0.184294
C252	C	1.037408	0.594897	0.684294
C253	C	0.537413	0.094891	0.246210
C254	C	1.037413	0.594891	0.746210
C255	C	0.570534	0.061779	0.277160
C256	C	1.070534	0.561779	0.777160
O257	O	0.509283	0.123025	0.344171
O258	O	1.009283	0.623025	0.844171
O259	O	0.631809	0.000515	0.344192
O260	O	1.131809	0.500515	0.844192
H261	H	0.423792	0.065409	0.097339
H262	H	0.923792	0.565409	0.597339
C263	C	0.093253	0.061968	-0.166171
C264	C	0.593253	0.561968	0.333829
C265	C	0.106003	0.020039	-0.210394
C266	C	0.606003	0.520039	0.289606
C267	C	0.078292	0.019743	-0.269389
C268	C	0.578292	0.519743	0.230611
C269	C	0.037830	0.061376	-0.284161
C270	C	0.537830	0.561376	0.215839
C271	C	0.025077	0.103308	-0.239937
C272	C	0.525077	0.603308	0.260063
C273	C	0.052789	0.103604	-0.180942
C274	C	0.552789	0.603604	0.319058
H275	H	0.135958	-0.010783	-0.199459
H276	H	0.635958	0.489217	0.300541
H277	H	0.087732	-0.011299	-0.302126
H278	H	0.587732	0.488701	0.197874
H279	H	0.017316	0.061156	-0.327833
H280	H	0.517316	0.561156	0.172167
H281	H	-0.004877	0.134130	-0.250872
H282	H	0.495123	0.634130	0.249128
H283	H	0.043349	0.134645	-0.148205
H284	H	0.543349	0.634645	0.351795
C285	C	0.199111	0.063051	-0.166169
C286	C	0.699111	0.563051	0.333831
C287	C	0.197987	0.020984	-0.210397
C288	C	0.697987	0.520984	0.289603
C289	C	0.225712	0.021260	-0.269387
C290	C	0.725712	0.521260	0.230613
C291	C	0.254562	0.063604	-0.284148
C292	C	0.754562	0.563604	0.215852
C293	C	0.255688	0.105675	-0.239918
C294	C	0.755688	0.605675	0.260082
C295	C	0.227962	0.105398	-0.180928
C296	C	0.727962	0.605398	0.319072
H297	H	0.176629	-0.010365	-0.199471
H298	H	0.676629	0.489635	0.300529
H299	H	0.224879	-0.009884	-0.302129
H300	H	0.724879	0.490116	0.197871
H301	H	0.275086	0.063808	-0.327816
H302	H	0.775086	0.563808	0.172184
H303	H	0.277045	0.137023	-0.250844
H304	H	0.777045	0.637023	0.249156
H305	H	0.228796	0.136542	-0.148187
H306	H	0.728796	0.636542	0.351813
H307	H	0.332334	0.064450	-0.097236
H308	H	0.832334	0.564450	0.402764
C309	C	0.474309	-0.785885	0.000034
C310	C	0.974309	-0.285885	0.500034
C311	C	0.461837	-0.818867	-0.051048
C312	C	0.961837	-0.318867	0.448952
C313	C	0.413062	-0.839885	-0.051056
C314	C	0.913062	-0.339885	0.448944
C315	C	0.376759	-0.827922	0.000019
C316	C	0.876759	-0.327922	0.500019
C317	C	0.389231	-0.794939	0.051104
C318	C	0.889231	-0.294939	0.551104
C319	C	0.438006	-0.773920	0.051112
C320	C	0.938006	-0.273920	0.551112
H321	H	0.488711	-0.827724	-0.088860
H322	H	0.988711	-0.327724	0.411140
H323	H	0.403829	-0.864302	-0.088873
H324	H	0.903829	-0.364302	0.411127
H325	H	0.340653	-0.843482	0.000013
H326	H	0.840653	-0.343482	0.500013
H327	H	0.362357	-0.786081	0.088916
H328	H	0.862357	-0.286081	0.588916
H329	H	0.447238	-0.749503	0.088929
H330	H	0.947238	-0.249503	0.588929
H331	H	0.630616	0.001719	0.271389
H332	H	1.130616	0.501719	0.771389
H333	H	0.494160	-0.073908	0.000074
H334	H	0.994160	0.426092	0.500074
C335	C	0.325138	0.064394	0.112672
C336	C	0.825138	0.564394	0.612672
C337	C	0.326266	0.106465	0.156895
C338	C	0.826266	0.606465	0.656895
C339	C	0.298546	0.106193	0.215889
C340	C	0.798546	0.606193	0.715889
C341	C	0.269697	0.063850	0.230659
C342	C	0.769697	0.563850	0.730659
C343	C	0.268567	0.021776	0.186434
C344	C	0.768567	0.521776	0.686434
C345	C	0.296288	0.022048	0.127441
C346	C	0.796288	0.522048	0.627441
H347	H	0.347623	0.137812	0.145962
H348	H	0.847623	0.637812	0.645962
H349	H	0.299382	0.137339	0.248627
H350	H	0.799382	0.637339	0.748627
H351	H	0.249176	0.063649	0.274329
H352	H	0.749176	0.563649	0.774329
H353	H	0.247210	-0.009571	0.197367
H354	H	0.747210	0.490429	0.697367
H355	H	0.295452	-0.009098	0.094703
H356	H	0.795452	0.490902	0.594703
C357	C	0.480560	-0.170843	0.000062
C358	C	0.980560	0.329157	0.500062
C359	C	0.444254	-0.158893	0.051135
C360	C	0.944254	0.341107	0.551135
C361	C	0.395483	-0.179921	0.051117
C362	C	0.895483	0.320079	0.551117
C363	C	0.383019	-0.212898	0.000026
C364	C	0.883019	0.287102	0.500026
C365	C	0.419326	-0.224850	-0.051051
C366	C	0.919326	0.275150	0.448949
C367	C	0.468097	-0.203822	-0.051033
C368	C	0.968097	0.296178	0.448967
H369	H	0.453480	-0.134480	0.088959
H370	H	0.953480	0.365520	0.588959
H371	H	0.368607	-0.171074	0.088928
H372	H	0.868607	0.328926	0.588928
H373	H	0.346917	-0.228464	0.000013
H374	H	0.846917	0.271536	0.500013
H375	H	0.410101	-0.249263	-0.088875
H376	H	0.910101	0.250737	0.411125
H377	H	0.494974	-0.212669	-0.088844
H378	H	0.994974	0.287331	0.411156
H379	H	0.477334	0.154923	0.556230
H380	H	0.977334	0.654923	1.056230
H381	H	0.040654	0.061479	0.150983
H382	H	0.540654	0.561479	0.650983
C383	C	0.475382	-0.680026	0.000035
C384	C	0.975382	-0.180026	0.500035
C385	C	0.438948	-0.681936	-0.051046
C386	C	0.938948	-0.181936	0.448954
C387	C	0.390734	-0.647516	-0.051046
C388	C	0.890734	-0.147516	0.448954
C389	C	0.378953	-0.611184	0.000036
C390	C	0.878953	-0.111184	0.500036
C391	C	0.415388	-0.609272	0.051120
C392	C	0.915388	-0.109272	0.551120
C393	C	0.463602	-0.643693	0.051120
C394	C	0.963602	-0.143693	0.551120
H395	H	0.447668	-0.708833	-0.088863
H396	H	0.947668	-0.208833	0.411137
H397	H	0.363762	-0.648931	-0.088862
H398	H	0.863762	-0.148931	0.411138
H399	H	0.343262	-0.585704	0.000036
H400	H	0.843262	-0.085704	0.500036
H401	H	0.406668	-0.582376	0.088937
H402	H	0.906668	-0.082376	0.588937
H403	H	0.490573	-0.642277	0.088936
H404	H	0.990573	-0.142277	0.588936
C405	C	-0.058008	0.060466	0.166305
C406	C	0.441992	0.560466	0.666305
C407	C	-0.098478	0.102101	0.181042
C408	C	0.401522	0.602101	0.681042
C409	C	-0.126214	0.101819	0.240024
C410	C	0.373786	0.601819	0.740024
C411	C	-0.113480	0.059903	0.284269
C412	C	0.386520	0.559903	0.784269
C413	C	-0.073008	0.018265	0.269532
C414	C	0.426992	0.518265	0.769532
C415	C	-0.045272	0.018546	0.210551
C416	C	0.454728	0.518546	0.710551
H417	H	-0.107907	0.133133	0.148288
H418	H	0.392093	0.633133	0.648288
H419	H	-0.156175	0.132643	0.250932
H420	H	0.343825	0.632643	0.750932
H421	H	-0.134012	0.059695	0.327930
H422	H	0.365988	0.559695	0.827930
H423	H	-0.063579	-0.012767	0.302286
H424	H	0.436421	0.487233	0.802286
H425	H	-0.015311	-0.012277	0.199642
H426	H	0.484689	0.487723	0.699642
C427	C	0.706970	-0.479797	0.000069
C428	C	1.206970	0.020203	0.500069
C429	C	0.743260	-0.491765	0.051152
C430	C	1.243260	0.008235	0.551152
C431	C	0.792038	-0.470751	0.051158
C432	C	1.292038	0.029249	0.551158
C433	C	0.804525	-0.437770	0.000080
C434	C	1.304525	0.062230	0.500080
C435	C	0.768234	-0.425801	-0.051007
C436	C	1.268234	0.074199	0.448993
C437	C	0.719457	-0.446815	-0.051013
C438	C	1.219457	0.053185	0.448987
H439	H	0.734017	-0.516181	0.088967
H440	H	1.234017	-0.016181	0.588967
H441	H	0.818903	-0.479611	0.088976
H442	H	1.318903	0.020389	0.588976
H443	H	0.840633	-0.422215	0.000083
H444	H	1.340633	0.077785	0.500083
H445	H	0.777478	-0.401386	-0.088822
H446	H	1.277478	0.098614	0.411178
H447	H	0.692592	-0.437955	-0.088831
H448	H	1.192592	0.062045	0.411169
C449	C	0.434118	-0.396626	0.000015
C450	C	0.934118	0.103374	0.500015
C451	C	0.397812	-0.384657	0.051084
C452	C	0.897812	0.115343	0.551084
C453	C	0.349031	-0.405665	0.051066
C454	C	0.849031	0.094335	0.551066
C455	C	0.336556	-0.438641	-0.000021
C456	C	0.836556	0.061359	0.499979
C457	C	0.372864	-0.450611	-0.051093
C458	C	0.872864	0.049389	0.448907
C459	C	0.421645	-0.429604	-0.051076
C460	C	0.921645	0.070396	0.448924
H461	H	0.407045	-0.360245	0.088905
H462	H	0.907045	0.139755	0.588905
H463	H	0.322154	-0.396804	0.088874
H464	H	0.822154	0.103196	0.588874
H465	H	0.300446	-0.454192	-0.000034
H466	H	0.800446	0.045808	0.499966
H467	H	0.363630	-0.475024	-0.088914
H468	H	0.863630	0.024976	0.411086
H469	H	0.448522	-0.438465	-0.088883
H470	H	0.948522	0.061535	0.411117
H471	H	0.510450	0.121850	0.271421
H472	H	1.010450	0.621850	0.771421
C473	C	0.666779	-0.090559	0.000102
C474	C	1.166779	0.409441	0.500102
C475	C	0.703069	-0.102524	0.051185
C476	C	1.203069	0.397476	0.551185
C477	C	0.751843	-0.081505	0.051193
C478	C	1.251843	0.418495	0.551193
C479	C	0.764328	-0.048519	0.000118
C480	C	1.264328	0.451481	0.500118
C481	C	0.728036	-0.036552	-0.050969
C482	C	1.228036	0.463448	0.449031
C483	C	0.679262	-0.057572	-0.050977
C484	C	1.179262	0.442428	0.449023
H485	H	0.693828	-0.126944	0.088997
H486	H	1.193828	0.373056	0.588997
H487	H	0.778708	-0.090364	0.089012
H488	H	1.278708	0.409636	0.589012
H489	H	0.800433	-0.032959	0.000124
H490	H	1.300433	0.467041	0.500124
H491	H	0.737277	-0.012133	-0.088781
H492	H	1.237277	0.487867	0.411219
H493	H	0.652397	-0.048713	-0.088796
H494	H	1.152397	0.451287	0.411204
H495	H	0.693365	-0.576720	0.000064
H496	H	1.193365	-0.076720	0.500064
C497	C	0.665708	-0.196421	0.000091
C498	C	1.165708	0.303579	0.500091
C499	C	0.677474	-0.232756	0.051172
C500	C	1.177474	0.267244	0.551172
C501	C	0.725688	-0.267178	0.051183
C502	C	1.225688	0.232822	0.551183
C503	C	0.762134	-0.265266	0.000113
C504	C	1.262134	0.234734	0.500113
C505	C	0.750369	-0.228929	-0.050972
C506	C	1.250369	0.271071	0.449028
C507	C	0.702155	-0.194507	-0.050983
C508	C	1.202155	0.305493	0.449017
H509	H	0.650494	-0.234173	0.088980
H510	H	1.150494	0.265827	0.588980
H511	H	0.734397	-0.294077	0.088999
H512	H	1.234397	0.205923	0.588999
H513	H	0.797825	-0.290748	0.000121
H514	H	1.297825	0.209252	0.500121
H515	H	0.777350	-0.227512	-0.088780
H516	H	1.277350	0.272488	0.411220
H517	H	0.693446	-0.167608	-0.088800
H518	H	1.193446	0.332392	0.411200
H519	H	0.663745	-0.031398	0.556208
H520	H	1.163745	0.468602	1.056208
H521	H	0.630644	0.001700	0.728716
H522	H	1.130644	0.501700	1.228716
H523	H	0.447722	-0.299716	0.000022
H524	H	0.947722	0.200284	0.500022
H525	H	0.630646	0.001698	0.841054
H526	H	1.130646	0.501698	1.341054
H527	H	0.510484	0.121822	0.841060
H528	H	1.010484	0.621822	1.341060
H529	H	0.445258	-0.542413	0.000024
H530	H	0.945258	-0.042413	0.500024
C531	C	0.673201	-0.040851	0.435040
C532	C	1.173201	0.459149	0.935040
C533	C	0.672799	-0.095891	0.443559
C534	C	1.172799	0.404109	0.943559
C535	C	0.709225	-0.132311	0.409507
C536	C	1.209225	0.367689	0.909507
C537	C	0.746052	-0.113692	0.366936
C538	C	1.246052	0.386308	0.866936
C539	C	0.746456	-0.058649	0.358414
C540	C	1.246456	0.441351	0.858414
C541	C	0.710030	-0.022229	0.392466
C542	C	1.210030	0.477771	0.892466
H543	H	0.645535	-0.109677	0.475075
H544	H	1.145535	0.390323	0.975075
H545	H	0.708926	-0.173058	0.415816
H546	H	1.208926	0.326942	0.915816
H547	H	0.773017	-0.140652	0.341728
H548	H	1.273017	0.359348	0.841728
H549	H	0.773720	-0.044863	0.326898
H550	H	1.273720	0.455137	0.826898
H551	H	0.710329	0.018517	0.386158
H552	H	1.210329	0.518517	0.886158
H553	H	0.191888	0.063031	0.150977
H554	H	0.691888	0.563031	0.650977
H555	H	0.446189	-0.450966	0.000027
H556	H	0.946189	0.049034	0.500027
H557	H	0.100441	0.062092	0.150980
H558	H	0.600441	0.562092	0.650980
H559	H	0.695837	-0.334024	0.000086
H560	H	1.195837	0.165976	0.500086
H561	H	-0.191255	0.059111	0.097372
H562	H	0.308745	0.559111	0.597372
H563	H	0.630614	0.001735	0.159068
H564	H	1.130614	0.501735	0.659068
C565	C	0.431004	0.065454	-0.112559
C566	C	0.931004	0.565454	0.387441
C567	C	0.471472	0.023815	-0.127290
C568	C	0.971472	0.523815	0.372710
C569	C	0.499209	0.024089	-0.186271
C570	C	0.999209	0.524089	0.313729
C571	C	0.486479	0.066003	-0.230521
C572	C	0.986479	0.566003	0.269479
C573	C	0.446009	0.107645	-0.215791
C574	C	0.946009	0.607645	0.284209
C575	C	0.418272	0.107370	-0.156810
C576	C	0.918272	0.607370	0.343190
H577	H	0.480897	-0.007214	-0.094533
H578	H	0.980897	0.492786	0.405467
H579	H	0.529168	-0.006737	-0.197175
H580	H	1.029168	0.493263	0.302825
H581	H	0.507012	0.066206	-0.274183
H582	H	1.007012	0.566206	0.225817
H583	H	0.436584	0.138674	-0.248549
H584	H	0.936584	0.638674	0.251451
H585	H	0.388313	0.138197	-0.145906
H586	H	0.888313	0.638197	0.354094
H587	H	0.510445	0.121852	0.159083
H588	H	1.010445	0.621852	0.659083
H589	H	0.510470	0.121821	0.728739
H590	H	1.010470	0.621821	1.228739
H591	H	0.477327	0.154923	0.443907
H592	H	0.977327	0.654923	0.943907
C593	C	-0.057995	0.060426	-0.166154
C594	C	0.442005	0.560426	0.333846
C595	C	-0.098462	0.102056	-0.180920
C596	C	0.401538	0.602056	0.319080
C597	C	-0.126182	0.101757	-0.239909
C598	C	0.373818	0.601757	0.260091
C599	C	-0.113434	0.059828	-0.284133
C600	C	0.386566	0.559828	0.215867
C601	C	-0.072965	0.018195	-0.269368
C602	C	0.427035	0.518195	0.230632
C603	C	-0.045246	0.018494	-0.210379
C604	C	0.454754	0.518494	0.289621
H605	H	-0.107901	0.133097	-0.148182
H606	H	0.392099	0.633097	0.351818
H607	H	-0.156140	0.132576	-0.250838
H608	H	0.343860	0.632576	0.249162
H609	H	-0.133954	0.059607	-0.327800
H610	H	0.366046	0.559607	0.172200
H611	H	-0.063527	-0.012846	-0.302106
H612	H	0.436473	0.487154	0.197894
H613	H	-0.015288	-0.012326	-0.199450
H614	H	0.484712	0.487674	0.300550
C615	C	0.660532	-0.705612	0.000063
C616	C	1.160532	-0.205612	0.500063
C617	C	0.696820	-0.717574	0.051149
C618	C	1.196820	-0.217574	0.551149
C619	C	0.745596	-0.696556	0.051156
C620	C	1.245596	-0.196556	0.551156
C621	C	0.758083	-0.663577	0.000076
C622	C	1.258083	-0.163577	0.500076
C623	C	0.721793	-0.651613	-0.051014
C624	C	1.221793	-0.151613	0.448986
C625	C	0.673018	-0.672631	-0.051020
C626	C	1.173018	-0.172631	0.448980
H627	H	0.687578	-0.741989	0.088965
H628	H	1.187578	-0.241989	0.588965
H629	H	0.772460	-0.705413	0.088976
H630	H	1.272460	-0.205413	0.588976
H631	H	0.794189	-0.648018	0.000081
H632	H	1.294189	-0.148018	0.500081
H633	H	0.731036	-0.627198	-0.088829
H634	H	1.231036	-0.127198	0.411171
H635	H	0.646154	-0.663775	-0.088841
H636	H	1.146154	-0.163775	0.411159
C637	C	0.659453	-0.811483	0.000053
C638	C	1.159453	-0.311483	0.500053
C639	C	0.671218	-0.847822	0.051131
C640	C	1.171218	-0.347822	0.551131
C641	C	0.719423	-0.882259	0.051128
C642	C	1.219423	-0.382259	0.551128
C643	C	0.755862	-0.880356	0.000048
C644	C	1.255862	-0.380356	0.500048
C645	C	0.744097	-0.844016	-0.051033
C646	C	1.244097	-0.344016	0.448967
C647	C	0.695893	-0.809580	-0.051031
C648	C	1.195893	-0.309580	0.448969
H649	H	0.644243	-0.849232	0.088947
H650	H	1.144243	-0.349232	0.588947
H651	H	0.728131	-0.909160	0.088942
H652	H	1.228131	-0.409160	0.588942
H653	H	0.791545	-0.905848	0.000046
H654	H	1.291545	-0.405848	0.500046
H655	H	0.771072	-0.842607	-0.088849
H656	H	1.271072	-0.342607	0.411151
H657	H	0.687184	-0.782678	-0.088845
H658	H	1.187184	-0.282678	0.411155
H659	H	-0.282707	0.058156	-0.097206
H660	H	0.217293	0.558156	0.402794
H661	H	-0.282720	0.058172	0.097370
H662	H	0.217280	0.558172	0.597370
H663	H	-0.191256	0.059080	-0.097212
H664	H	0.308744	0.559080	0.402788
H665	H	0.040656	0.061441	-0.150836
H666	H	0.540656	0.561441	0.349164
H667	H	0.694908	-0.425472	0.000076
H668	H	1.194908	0.074528	0.500076
