data_functionalizedCrystal
_audit_creation_method	'MofGen! by Chris Wilmer'
_symmetry_space_group_name_H-M	'P1'
_symmetry_Int_Tables_number	1
_symmetry_cell_setting	triclinic
loop_
_symmetry_equiv_pos_as_xyz
  x,y,z
_cell_length_a	14.044220
_cell_length_b	15.995343
_cell_length_c	12.503572
_cell_angle_alpha	93.518504
_cell_angle_beta	86.164750
_cell_angle_gamma	88.339031
loop_
_atom_site_label
_atom_site_type_symbol
_atom_site_fract_x
_atom_site_fract_y
_atom_site_fract_z
O1	O	1.263161	0.197432	-0.089227
O2	O	0.987193	0.190147	-0.089253
O3	O	1.132723	0.072466	-0.089220
O4	O	1.117631	0.315113	-0.089261
O5	O	1.121779	0.081333	0.089420
O6	O	0.976249	0.199013	0.089386
O7	O	1.252216	0.206299	0.089412
Cu8	Cu	1.113233	0.203465	0.105710
Cu9	Cu	1.126176	0.192980	-0.105551
O10	O	1.106686	0.323979	0.089378
C11	C	0.946407	0.191391	0.000063
C12	C	0.841182	0.181880	0.000054
C13	C	0.648520	0.164493	0.000078
C14	C	0.590885	0.231949	0.000071
C15	C	0.483681	0.222274	0.000085
C16	C	0.755734	0.174166	0.000065
C17	C	1.126628	0.045658	0.000103
C18	C	1.124761	-0.047432	0.000111
C19	C	1.121373	-0.217872	0.000086
C20	C	1.016322	-0.249065	0.000074
C21	C	1.014371	-0.345911	-0.000344
C22	C	1.118037	-0.385683	0.000063
C23	C	1.177096	-0.357691	-0.101738
C24	C	1.178346	-0.260809	-0.101812
C25	C	1.167437	-0.250716	0.101342
C26	C	1.163478	-0.347435	0.102668
C27	C	1.116157	-0.480522	0.000046
C28	C	1.123257	-0.123033	0.000096
C29	C	1.293003	0.205054	0.000093
C30	C	1.398228	0.214565	0.000096
C31	C	1.112781	0.350787	0.000054
C32	C	1.114649	0.443877	0.000038
N33	N	1.104136	0.210840	0.254300
N34	N	1.135281	0.185599	-0.254142
C35	C	1.090754	0.221696	0.473413
C36	C	1.148659	0.174746	0.526753
C37	C	1.141214	0.180786	0.648675
C38	C	1.098199	0.215657	0.351480
H39	H	0.968544	-0.364403	0.072611
H40	H	0.980733	-0.226685	-0.072828
O41	O	0.628114	0.309489	-0.000161
C42	C	0.690309	0.314477	-0.092686
H43	H	0.670795	0.265784	-0.157318
H44	H	0.683443	0.379753	-0.123779
H45	H	0.766982	0.301928	-0.071779
O46	O	1.253264	-0.379690	0.110214
C47	C	1.277057	-0.437855	0.022494
H48	H	1.231378	-0.423680	-0.046621
H49	H	1.355725	-0.432956	-0.004577
H50	H	1.263309	-0.503961	0.047746
H51	H	1.244698	-0.230871	0.102338
O52	O	0.611309	0.086940	-0.000102
C53	C	0.560409	0.072765	-0.092603
H54	H	0.587833	0.115024	-0.157272
H55	H	0.571054	0.004398	-0.123657
H56	H	0.481186	0.087409	-0.071681
O57	O	0.962526	-0.214864	0.087185
C58	C	1.019095	-0.162240	0.149502
H59	H	1.082116	-0.140932	0.096881
H60	H	0.974254	-0.105166	0.184183
H61	H	1.046656	-0.198068	0.217834
O62	O	0.970783	-0.375888	-0.088040
C63	C	1.021738	-0.352461	-0.181932
H64	H	1.098606	-0.339525	-0.163799
H65	H	1.021112	-0.405413	-0.247181
H66	H	0.986702	-0.293505	-0.210741
H67	H	1.035593	0.266426	0.519307
O68	O	1.140895	-0.236697	-0.193053
C69	C	1.196152	-0.272962	-0.283280
H70	H	1.236200	-0.331348	-0.259843
H71	H	1.147362	-0.290949	-0.349671
H72	H	1.249575	-0.225916	-0.313285
H73	H	1.255649	-0.240696	-0.106144
H74	H	1.129564	-0.221096	0.178532
O75	O	1.139554	-0.389476	-0.192513
C76	C	1.208969	-0.441073	-0.253393
H77	H	1.264465	-0.464131	-0.198552
H78	H	1.173200	-0.497092	-0.292507
H79	H	1.245370	-0.403720	-0.318349
O80	O	1.111997	-0.368639	0.192414
C81	C	1.035187	-0.417805	0.162619
H82	H	1.052502	-0.448786	0.078747
H83	H	1.023085	-0.468167	0.222311
H84	H	0.967864	-0.376223	0.162705
O85	O	1.214278	0.121287	0.471838
C86	C	1.207061	0.126943	0.360567
H87	H	1.172912	0.190238	0.345259
H88	H	1.281356	0.120546	0.317624
H89	H	1.161080	0.074619	0.328840
H90	H	1.253623	-0.384011	-0.105232
