data_functionalizedCrystal
_audit_creation_method	'MofGen! by Chris Wilmer'
_symmetry_space_group_name_H-M	'P1'
_symmetry_Int_Tables_number	1
_symmetry_cell_setting	triclinic
loop_
_symmetry_equiv_pos_as_xyz
  x,y,z
_cell_length_a	15.944545
_cell_length_b	14.421503
_cell_length_c	14.971486
_cell_angle_alpha	89.995913
_cell_angle_beta	83.555151
_cell_angle_gamma	90.004847
loop_
_atom_site_label
_atom_site_type_symbol
_atom_site_fract_x
_atom_site_fract_y
_atom_site_fract_z
O1	O	1.114642	0.077052	0.115321
O2	O	0.870105	0.077067	0.129549
O3	O	0.998928	0.077053	-0.007772
O4	O	0.985820	0.077067	0.252642
O5	O	0.998907	-0.077171	-0.007752
O6	O	0.870084	-0.077156	0.129570
O7	O	1.114621	-0.077171	0.115341
Cu8	Cu	0.992351	-0.091246	0.122457
Cu9	Cu	0.992376	0.091141	0.122433
O10	O	0.985798	-0.077157	0.252663
C11	C	0.838800	-0.000043	0.128970
C12	C	0.745552	-0.000037	0.127202
N13	N	0.992339	-0.219527	0.122474
C14	C	0.474833	-0.000052	0.036801
C15	C	0.525446	-0.076092	0.080395
C16	C	0.409902	-0.000053	0.120897
C17	C	0.525448	0.075960	0.080398
C18	C	0.574819	-0.000044	0.123990
C19	C	0.459287	-0.076156	0.164469
C20	C	0.459285	0.075964	0.164459
C21	C	0.509865	-0.000094	0.208115
C22	C	0.314899	-0.000060	0.119113
C23	C	0.669820	-0.000044	0.125781
C24	C	0.932761	-0.469174	0.185943
C25	C	1.008678	-0.530980	0.203306
C26	C	0.992359	-0.408688	0.122452
C27	C	0.916462	-0.530976	0.105110
C28	C	0.992372	-0.591410	0.122434
C29	C	1.068314	-0.469134	0.139856
C30	C	0.976049	-0.469124	0.041625
C31	C	1.052021	-0.530903	0.058954
C32	C	0.992351	-0.303427	0.122465
C33	C	0.992390	-0.696669	0.122420
C34	C	1.145926	-0.000059	0.115921
C35	C	1.239174	-0.000059	0.117689
C36	C	0.998331	-0.000059	-0.041086
C37	C	0.996574	-0.000058	-0.140381
N38	N	0.992394	0.219423	0.122410
C39	C	1.072254	-0.000063	-0.197690
C40	C	1.070599	-0.000054	-0.290988
C41	C	0.993262	-0.000046	-0.326975
C42	C	0.917577	-0.000037	-0.269659
C43	C	0.919233	-0.000040	-0.176363
C44	C	0.914129	-0.000034	-0.464117
C45	C	0.912472	-0.000033	-0.557419
C46	C	1.065495	-0.000047	-0.578742
C47	C	1.067151	-0.000050	-0.485446
C48	C	0.991465	-0.000044	-0.428137
C49	C	0.986395	-0.000043	0.285977
C50	C	0.988152	-0.000038	0.385272
H51	H	0.459111	-0.000130	-0.035623
N52	N	1.152227	-0.000067	-0.352796
H53	H	1.154936	-0.057236	-0.391978
H54	H	1.154915	0.057143	-0.391924
N55	N	0.831441	-0.566957	0.085673
H56	H	0.832239	-0.636985	0.085230
H57	H	0.786509	-0.544439	0.133692
N58	N	0.837608	-0.000029	-0.114546
H59	H	0.788363	-0.000024	-0.151499
H60	H	0.834951	-0.057200	-0.075366
H61	H	0.430502	-0.140511	0.199967
N62	N	1.147130	-0.000056	-0.640548
H63	H	1.134348	-0.000049	-0.705112
H64	H	1.180842	0.057110	-0.628898
N65	N	0.530468	-0.000146	0.304125
H66	H	0.564820	-0.057049	0.315012
H67	H	0.563954	0.057326	0.315300
N68	N	0.563695	-0.161265	0.033377
H69	H	0.551238	-0.161218	-0.031295
H70	H	0.626783	-0.160912	0.035486
H71	H	1.130125	-0.000063	-0.456149
N72	N	0.420993	0.161121	0.211456
H73	H	0.445176	0.218531	0.179611
H74	H	0.357775	0.160075	0.210417
H75	H	0.854608	-0.000025	-0.298966
N76	N	0.829062	-0.000017	-0.596238
H77	H	0.781366	-0.000004	-0.545778
H78	H	0.825063	0.057158	-0.634487
N79	N	0.866067	-0.433253	0.257107
H80	H	0.808841	-0.456716	0.244638
H81	H	0.878578	-0.455759	0.318106
H82	H	1.135230	-0.000075	-0.168397
H83	H	0.554340	0.140242	0.044859
N84	N	1.026975	-0.566972	0.293833
H85	H	0.981921	-0.544524	0.341761
H86	H	1.027408	-0.636996	0.292893
N87	N	1.153364	-0.433314	0.159379
H88	H	1.152827	-0.363283	0.159291
H89	H	1.165778	-0.456428	0.220205
H90	H	1.102482	-0.557836	0.005251
H91	H	0.962218	-0.441933	-0.026699
H92	H	0.852497	-0.000026	-0.417457
