data_functionalizedCrystal
_audit_creation_method	'MofGen! by Chris Wilmer'
_symmetry_space_group_name_H-M	'P1'
_symmetry_Int_Tables_number	1
_symmetry_cell_setting	triclinic
loop_
_symmetry_equiv_pos_as_xyz
  x,y,z
_cell_length_a	10.654541
_cell_length_b	11.792254
_cell_length_c	10.268362
_cell_angle_alpha	90.005455
_cell_angle_beta	90.003229
_cell_angle_gamma	84.341263
loop_
_atom_site_label
_atom_site_type_symbol
_atom_site_fract_x
_atom_site_fract_y
_atom_site_fract_z
O1	O	1.667401	0.159407	0.108261
O2	O	1.301880	0.174598	0.108272
O3	O	1.493502	0.001853	0.108257
O4	O	1.475779	0.332152	0.108276
O5	O	1.493486	0.001846	-0.108343
O6	O	1.301863	0.174591	-0.108328
O7	O	1.667384	0.159400	-0.108340
Cu8	Cu	1.484622	0.166995	-0.128111
Cu9	Cu	1.484642	0.167003	0.128044
O10	O	1.475762	0.332144	-0.108324
C11	C	1.255076	0.173480	-0.000026
C12	C	1.115642	0.170144	-0.000022
C13	C	1.087097	0.376707	0.000006
C14	C	1.007321	0.478417	0.000025
C15	C	0.876311	0.475276	0.000026
C16	C	0.825077	0.370414	0.000004
C17	C	0.904854	0.268704	-0.000015
C18	C	1.035865	0.271857	-0.000012
C19	C	0.933399	0.062144	-0.000053
C20	C	1.064408	0.065282	-0.000044
C21	C	0.882165	-0.042719	-0.000075
C22	C	0.961942	-0.144431	-0.000085
C23	C	1.092959	-0.141286	-0.000084
C24	C	1.144185	-0.036428	-0.000064
C25	C	1.492377	-0.040444	-0.000043
C26	C	1.489036	-0.166464	-0.000041
C27	C	1.486320	-0.268807	-0.000037
C28	C	1.482925	-0.397202	-0.000025
C29	C	1.714188	0.160518	-0.000038
C30	C	1.853622	0.163853	-0.000033
C31	C	1.476887	0.374441	-0.000022
C32	C	1.480228	0.500462	-0.000014
N33	N	1.484617	0.166988	-0.308277
C34	C	1.484636	0.167001	-0.573948
C35	C	1.484621	0.166997	-0.426110
N36	N	1.484657	0.167001	0.308210
H37	H	1.250858	-0.033857	-0.000048
H38	H	0.920216	-0.229801	-0.000102
C39	C	0.680963	0.366965	-0.000009
N40	N	0.572414	0.364366	-0.000018
H41	H	1.157907	-0.224111	-0.000105
H42	H	1.193771	0.379275	0.000034
C43	C	1.063688	0.593761	0.000048
N44	N	1.106141	0.680637	0.000064
C45	C	0.738051	-0.046171	-0.000075
N46	N	0.629502	-0.048773	-0.000070
C47	C	0.788554	0.587162	0.000047
N48	N	0.722456	0.671434	0.000065
