data_functionalizedCrystal
_audit_creation_method	'MofGen! by Chris Wilmer'
_symmetry_space_group_name_H-M	'P1'
_symmetry_Int_Tables_number	1
_symmetry_cell_setting	triclinic
loop_
_symmetry_equiv_pos_as_xyz
  x,y,z
_cell_length_a	16.959455
_cell_length_b	25.639239
_cell_length_c	16.959447
_cell_angle_alpha	89.968198
_cell_angle_beta	89.982031
_cell_angle_gamma	90.035633
loop_
_atom_site_label
_atom_site_type_symbol
_atom_site_fract_x
_atom_site_fract_y
_atom_site_fract_z
Zn1	Zn	1.208310	-0.208190	-0.446894
Zn2	Zn	1.541643	0.125144	-0.113560
Zn3	Zn	1.874977	0.458477	0.219773
Zn4	Zn	1.208181	-0.295628	-0.314709
Zn5	Zn	1.541514	0.037705	0.018625
Zn6	Zn	1.874848	0.371038	0.351958
Zn7	Zn	1.076130	-0.208204	-0.314731
Zn8	Zn	1.409463	0.125129	0.018602
Zn9	Zn	1.742797	0.458463	0.351936
Zn10	Zn	1.076060	-0.295591	-0.446847
Zn11	Zn	1.409393	0.037742	-0.113514
Zn12	Zn	1.742727	0.371075	0.219819
O13	O	1.142170	-0.251903	-0.380795
O14	O	1.475504	0.081430	-0.047462
O15	O	1.808837	0.414763	0.285872
O16	O	1.318904	-0.219798	-0.429369
O17	O	1.652237	0.113535	-0.096036
O18	O	1.985570	0.446869	0.237298
O19	O	1.190640	-0.284053	-0.204101
O20	O	1.523973	0.049280	0.129233
O21	O	1.857306	0.382614	0.462566
O22	O	1.093747	-0.135037	-0.332291
O23	O	1.427080	0.198296	0.001042
O24	O	1.760414	0.531630	0.334375
O25	O	1.318809	-0.284039	-0.332253
O26	O	1.652142	0.049294	0.001080
O27	O	1.985476	0.382628	0.334413
O28	O	1.190859	-0.135026	-0.429391
O29	O	1.524192	0.198307	-0.096057
O30	O	1.857526	0.531640	0.237276
O31	O	1.093622	-0.219823	-0.204117
O32	O	1.426955	0.113511	0.129216
O33	O	1.760289	0.446844	0.462550
O34	O	0.965510	-0.219787	-0.332247
O35	O	1.298843	0.113547	0.001087
O36	O	1.632177	0.446880	0.334420
O37	O	1.093628	-0.283976	-0.557464
O38	O	1.426961	0.049358	-0.224131
O39	O	1.760295	0.382691	0.109202
O40	O	0.965459	-0.283990	-0.429312
O41	O	1.298792	0.049344	-0.095978
O42	O	1.632125	0.382677	0.237355
O43	O	1.190791	-0.219762	-0.557498
O44	O	1.524125	0.113571	-0.224165
O45	O	1.857458	0.446905	0.109168
O46	O	1.190572	-0.368789	-0.332208
O47	O	1.523905	-0.035455	0.001125
O48	O	1.857238	0.297878	0.334458
O49	O	1.093503	-0.368761	-0.429290
O50	O	1.426836	-0.035428	-0.095957
O51	O	1.760170	0.297905	0.237377
C52	C	0.936804	-0.251886	-0.380777
C53	C	1.270137	0.081447	-0.047444
C54	C	1.603471	0.414781	0.285890
C55	C	0.848947	-0.251891	-0.380788
C56	C	1.182281	0.081442	-0.047455
C57	C	1.515614	0.414775	0.285879
C58	C	0.477474	-0.218445	-0.330359
C59	C	0.810808	0.114888	0.002975
C60	C	1.144141	0.448221	0.336308
C61	C	0.477470	-0.285404	-0.431277
C62	C	0.810803	0.047929	-0.097943
C63	C	1.144136	0.381262	0.235390
C64	C	0.560015	-0.285397	-0.431272
C65	C	0.893349	0.047937	-0.097938
C66	C	1.226682	0.381270	0.235395
C67	C	0.601294	-0.251914	-0.380809
C68	C	0.934628	0.081420	-0.047476
C69	C	1.267961	0.414753	0.285858
C70	C	0.560028	-0.218438	-0.330351
C71	C	0.893361	0.114895	0.002983
C72	C	1.226694	0.448229	0.336316
C73	C	0.601288	-0.318875	-0.481723
C74	C	0.934622	0.014458	-0.148390
C75	C	1.267955	0.347791	0.184943
C76	C	0.683839	-0.318870	-0.481720
C77	C	1.017173	0.014464	-0.148387
C78	C	1.350506	0.347797	0.184947
C79	C	0.725120	-0.285384	-0.431260
C80	C	1.058453	0.047950	-0.097927
C81	C	1.391787	0.381283	0.235406
C82	C	0.683848	-0.251906	-0.380801
C83	C	1.017181	0.081427	-0.047467
C84	C	1.350515	0.414760	0.285866
C85	C	0.725127	-0.218423	-0.330338
C86	C	1.058460	0.114910	0.002995
C87	C	1.391794	0.448244	0.336329
C88	C	0.683857	-0.184943	-0.279882
C89	C	1.017190	0.148391	0.053452
C90	C	1.350523	0.481724	0.386785
C91	C	0.601308	-0.184952	-0.279891
C92	C	0.934642	0.148381	0.053442
C93	C	1.267975	0.481715	0.386775
C94	C	0.807668	-0.285374	-0.431251
C95	C	1.141002	0.047959	-0.097918
C96	C	1.474335	0.381292	0.235416
C97	C	0.807681	-0.218416	-0.330330
C98	C	1.141014	0.114918	0.003003
C99	C	1.474347	0.448251	0.336337
C100	C	1.142037	-0.387746	-0.380759
C101	C	1.475371	-0.054413	-0.047426
C102	C	1.808704	0.278921	0.285908
C103	C	1.142053	-0.445860	-0.380770
C104	C	1.475386	-0.112527	-0.047437
C105	C	1.808719	0.220807	0.285897
C106	C	1.192846	-0.806225	-0.330331
C107	C	1.526179	-0.472891	0.003003
C108	C	1.859513	-0.139558	0.336336
C109	C	1.192876	-0.860829	-0.330341
C110	C	1.526210	-0.527496	0.002992
C111	C	1.859543	-0.194162	0.336325
O112	O	1.235925	-0.889067	-0.287417
O113	O	1.569258	-0.555734	0.045917
O114	O	1.902591	-0.222400	0.379250
N115	N	1.142309	-0.888142	-0.380847
N116	N	1.475643	-0.554809	-0.047514
N117	N	1.808976	-0.221476	0.285819
C118	C	1.091714	-0.860849	-0.431352
C119	C	1.425047	-0.527515	-0.098019
C120	C	1.758380	-0.194182	0.235315
O121	O	1.048706	-0.889095	-0.474313
O122	O	1.382039	-0.555762	-0.140979
O123	O	1.715372	-0.222428	0.192354
C124	C	1.091688	-0.806245	-0.431345
C125	C	1.425021	-0.472912	-0.098011
C126	C	1.758354	-0.139579	0.235322
C127	C	1.142253	-0.778935	-0.380830
C128	C	1.475586	-0.445601	-0.047496
C129	C	1.808919	-0.112268	0.285837
C130	C	1.243407	-0.778914	-0.279820
C131	C	1.576741	-0.445581	0.053513
C132	C	1.910074	-0.112247	0.386846
C133	C	1.243375	-0.724313	-0.279809
C134	C	1.576709	-0.390980	0.053524
C135	C	1.910042	-0.057647	0.386858
C136	C	1.192782	-0.697024	-0.330308
C137	C	1.526115	-0.363690	0.003025
C138	C	1.859449	-0.030357	0.336359
C139	C	1.142221	-0.724334	-0.380818
C140	C	1.475554	-0.391001	-0.047485
C141	C	1.808887	-0.057668	0.285848
C142	C	1.041097	-0.778953	-0.481853
C143	C	1.374430	-0.445619	-0.148519
C144	C	1.707763	-0.112286	0.184814
C145	C	1.041075	-0.724346	-0.481842
C146	C	1.374409	-0.391012	-0.148508
C147	C	1.707742	-0.057679	0.184825
C148	C	1.091640	-0.697035	-0.431326
C149	C	1.424974	-0.363702	-0.097993
C150	C	1.758307	-0.030368	0.235340
C151	C	1.091595	-0.642444	-0.431306
C152	C	1.424929	-0.309110	-0.097972
C153	C	1.758262	0.024223	0.235361
N154	N	1.142163	-0.615130	-0.380800
N155	N	1.475496	-0.281797	-0.047466
N156	N	1.808829	0.051536	0.285867
C157	C	1.192756	-0.642420	-0.330301
C158	C	1.526089	-0.309087	0.003033
C159	C	1.859423	0.024246	0.336366
C160	C	1.091773	-0.975519	-0.431364
C161	C	1.425107	-0.642186	-0.098031
C162	C	1.758440	-0.308853	0.235303
C163	C	1.091795	-1.030122	-0.431368
C164	C	1.425128	-0.696788	-0.098035
C165	C	1.758461	-0.363455	0.235299
C166	C	1.192959	-1.030098	-0.330358
C167	C	1.526292	-0.696765	0.002975
C168	C	1.859625	-0.363431	0.336308
C169	C	1.192933	-0.975495	-0.330351
C170	C	1.526266	-0.642161	0.002982
C171	C	1.859599	-0.308828	0.336316
C172	C	1.142341	-0.948206	-0.380858
C173	C	1.475674	-0.614872	-0.047525
C174	C	1.809007	-0.281539	0.285809
C175	C	1.192685	-0.527755	-0.330280
C176	C	1.526018	-0.194422	0.003053
C177	C	1.859351	0.138912	0.336386
C178	C	1.192646	-0.473150	-0.330271
C179	C	1.525979	-0.139816	0.003062
C180	C	1.859313	0.193517	0.336396
C181	C	1.091485	-0.473178	-0.431283
C182	C	1.424819	-0.139845	-0.097950
C183	C	1.758152	0.193489	0.235383
C184	C	1.091521	-0.527779	-0.431290
C185	C	1.424854	-0.194445	-0.097957
C186	C	1.758187	0.138888	0.235377
C187	C	1.142127	-0.555066	-0.380786
C188	C	1.475460	-0.221733	-0.047452
C189	C	1.808794	0.111601	0.285881
O190	O	1.048572	-0.614171	-0.474211
O191	O	1.381905	-0.280838	-0.140878
O192	O	1.715238	0.052496	0.192456
O193	O	1.235764	-0.614167	-0.287355
O194	O	1.569098	-0.280834	0.045979
O195	O	1.902431	0.052499	0.379312
C196	C	1.348338	-0.251921	-0.380814
C197	C	1.681672	0.081412	-0.047480
C198	C	2.015005	0.414746	0.285853
C199	C	1.436195	-0.251929	-0.380822
C200	C	1.769528	0.081405	-0.047488
C201	C	2.102862	0.414738	0.285845
C202	C	1.142216	-0.251863	-0.586963
C203	C	1.475550	0.081470	-0.253630
C204	C	1.808883	0.414804	0.079703
C205	C	1.142236	-0.251846	-0.674820
C206	C	1.475569	0.081487	-0.341487
C207	C	1.808903	0.414821	-0.008153
C208	C	1.142325	-0.115530	-0.380849
C209	C	1.475659	0.217803	-0.047515
C210	C	1.808992	0.551136	0.285818
C211	C	1.142391	-0.057416	-0.380872
C212	C	1.475725	0.275917	-0.047538
C213	C	1.809058	0.609250	0.285795
C214	C	1.192758	-0.285279	-0.716087
C215	C	1.526092	0.048054	-0.382754
C216	C	1.859425	0.381388	-0.049420
C217	C	1.091727	-0.218400	-0.716107
C218	C	1.425060	0.114934	-0.382773
C219	C	1.758394	0.448267	-0.049440
C220	C	1.091741	-0.218384	-0.798653
C221	C	1.425074	0.114949	-0.465319
C222	C	1.758407	0.448282	-0.131986
C223	C	1.142263	-0.251817	-0.839920
C224	C	1.475596	0.081516	-0.506586
C225	C	1.808930	0.414849	-0.173253
C226	C	1.192772	-0.285266	-0.798641
C227	C	1.526105	0.048068	-0.465307
C228	C	1.859439	0.381401	-0.131974
C229	C	1.041227	-0.184940	-0.839938
C230	C	1.374560	0.148393	-0.506604
C231	C	1.707894	0.481726	-0.173271
C232	C	1.041238	-0.184924	-0.922489
C233	C	1.374571	0.148409	-0.589155
C234	C	1.707904	0.481743	-0.255822
C235	C	1.091765	-0.218355	-0.963757
C236	C	1.425098	0.114978	-0.630424
C237	C	1.758432	0.448312	-0.297090
C238	C	1.142277	-0.251804	-0.922473
C239	C	1.475610	0.081529	-0.589140
C240	C	1.808943	0.414863	-0.255806
C241	C	1.192799	-0.285237	-0.963740
C242	C	1.526132	0.048096	-0.630407
C243	C	1.859466	0.381430	-0.297074
C244	C	1.243315	-0.318684	-0.922458
C245	C	1.576649	0.014649	-0.589124
C246	C	1.909982	0.347983	-0.255791
C247	C	1.243299	-0.318696	-0.839909
C248	C	1.576632	0.014637	-0.506576
C249	C	1.909966	0.347970	-0.173243
C250	C	1.091781	-0.218343	-1.046306
C251	C	1.425114	0.114991	-0.712972
C252	C	1.758448	0.448324	-0.379639
C253	C	1.192813	-0.285224	-1.046294
C254	C	1.526146	0.048109	-0.712960
C255	C	1.859479	0.381443	-0.379627
C256	C	1.142170	-0.251906	-0.175429
C257	C	1.475503	0.081428	0.157904
C258	C	1.808837	0.414761	0.491238
C259	C	1.142304	-0.251776	-0.087573
C260	C	1.475637	0.081558	0.245761
C261	C	1.808970	0.414891	0.579094
H262	H	0.567699	-0.157695	-0.238812
H263	H	0.901032	0.175639	0.094522
H264	H	1.234365	0.508972	0.427855
F265	F	0.987464	-0.149335	-0.966417
F266	F	1.320797	0.183999	-0.633084
F267	F	1.654131	0.517332	-0.299750
F268	F	1.037645	-0.444125	-0.485027
F269	F	1.370979	-0.110791	-0.151694
F270	F	1.704312	0.222542	0.181639
F271	F	0.987228	-0.695306	-0.535601
F272	F	1.320561	-0.361973	-0.202268
F273	F	1.653895	-0.028639	0.131065
H274	H	0.717477	-0.157683	-0.238791
H275	H	1.050810	0.175650	0.094542
H276	H	1.384144	0.508984	0.427875
H277	H	1.050650	-0.191111	-1.079914
H278	H	1.383984	0.142222	-0.746581
H279	H	1.717317	0.475555	-0.413247
H280	H	1.050349	-0.550016	-0.472426
H281	H	1.383682	-0.216683	-0.139092
H282	H	1.717016	0.116650	0.194241
F283	F	1.246751	-0.946434	-0.276587
F284	F	1.580084	-0.613100	0.056746
F285	F	1.913417	-0.279767	0.390080
F286	F	1.246591	-0.320806	-1.090207
F287	F	1.579924	0.012527	-0.756874
F288	F	1.913257	0.345861	-0.423540
H289	H	0.443868	-0.191185	-0.289281
H290	H	0.777202	0.142148	0.044052
H291	H	1.110535	0.475482	0.377386
F292	F	0.851607	-0.182775	-0.276623
F293	F	1.184940	0.150558	0.056710
F294	F	1.518273	0.483892	0.390044
H295	H	1.284426	-0.345928	-0.806290
H296	H	1.617759	-0.012594	-0.472956
H297	H	1.951092	0.320739	-0.139623
H298	H	1.284448	-0.345907	-0.956068
H299	H	1.617781	-0.012574	-0.622735
H300	H	1.951115	0.320760	-0.289401
F301	F	0.433535	-0.321046	-0.484965
F302	F	0.766869	0.012287	-0.151632
F303	F	1.100202	0.345620	0.181701
H304	H	0.999917	-0.801180	-0.522984
H305	H	1.333251	-0.467846	-0.189650
H306	H	1.666584	-0.134513	0.143683
F307	F	1.246523	-0.320871	-0.672152
F308	F	1.579857	0.012463	-0.338819
F309	F	1.913190	0.345796	-0.005485
F310	F	1.246804	-1.059152	-0.276611
F311	F	1.580137	-0.725818	0.056722
F312	F	1.913471	-0.392485	0.390056
F313	F	0.557353	-0.354521	-0.535405
F314	F	0.890686	-0.021188	-0.202072
F315	F	1.224019	0.312145	0.131262
H316	H	1.050589	-0.191183	-0.682502
H317	H	1.383923	0.142150	-0.349169
H318	H	1.717256	0.475483	-0.015835
H319	H	1.000089	-0.157725	-0.806332
H320	H	1.333422	0.175609	-0.472999
H321	H	1.666756	0.508942	-0.139665
H322	H	0.717435	-0.346131	-0.522805
H323	H	1.050768	-0.012798	-0.189471
H324	H	1.384101	0.320536	0.143862
H325	H	1.050568	-0.953303	-0.472491
H326	H	1.383902	-0.619970	-0.139157
H327	H	1.717235	-0.286637	0.194176
F328	F	1.246466	-0.444087	-0.276503
F329	F	1.579799	-0.110754	0.056830
F330	F	1.913133	0.222580	0.390163
F331	F	0.851588	-0.321007	-0.484941
F332	F	1.184921	0.012326	-0.151608
F333	F	1.518254	0.345660	0.181725
H334	H	1.284552	-0.702080	-0.238678
H335	H	1.617885	-0.368747	0.094656
H336	H	1.951219	-0.035414	0.427989
F337	F	1.297262	-0.807950	-0.226069
F338	F	1.630595	-0.474616	0.107264
F339	F	1.963928	-0.141283	0.440598
F340	F	1.246545	-0.556789	-0.276528
F341	F	1.579879	-0.223455	0.056806
F342	F	1.913212	0.109878	0.390139
F343	F	1.037968	-1.059182	-0.485124
F344	F	1.371301	-0.725848	-0.151791
F345	F	1.704634	-0.392515	0.181543
