data_functionalizedCrystal
_audit_creation_method	'MofGen! by Chris Wilmer'
_symmetry_space_group_name_H-M	'P1'
_symmetry_Int_Tables_number	1
_symmetry_cell_setting	triclinic
loop_
_symmetry_equiv_pos_as_xyz
  x,y,z
_cell_length_a	17.077404
_cell_length_b	18.101395
_cell_length_c	17.077396
_cell_angle_alpha	90.027467
_cell_angle_beta	90.019501
_cell_angle_gamma	90.031329
loop_
_atom_site_label
_atom_site_type_symbol
_atom_site_fract_x
_atom_site_fract_y
_atom_site_fract_z
Zn1	Zn	1.200010	-0.294825	0.443848
Zn2	Zn	1.700010	0.205175	0.943848
Zn3	Zn	1.199898	-0.418674	0.312585
Zn4	Zn	1.699898	0.081326	0.812585
Zn5	Zn	1.068742	-0.294851	0.312596
Zn6	Zn	1.568742	0.205149	0.812596
Zn7	Zn	1.068691	-0.418630	0.443808
Zn8	Zn	1.568691	0.081370	0.943808
O9	O	1.134335	-0.356745	0.378209
O10	O	1.634335	0.143255	0.878209
O11	O	1.309842	-0.311261	0.426448
O12	O	1.809842	0.188739	0.926448
O13	O	1.182474	-0.402278	0.202739
O14	O	1.682474	0.097722	0.702739
O15	O	1.086223	-0.191215	0.330029
O16	O	1.586223	0.308785	0.830029
O17	O	1.309760	-0.402253	0.330009
O18	O	1.809760	0.097747	0.830009
O19	O	1.182665	-0.191196	0.426459
O20	O	1.682665	0.308804	0.926459
O21	O	1.086114	-0.311306	0.202748
O22	O	1.586114	0.188694	0.702748
O23	O	0.958888	-0.311263	0.329990
O24	O	1.458888	0.188737	0.829990
O25	O	1.086136	-0.402178	0.553660
O26	O	1.586136	0.097822	1.053660
O27	O	0.958851	-0.402203	0.426391
O28	O	1.458851	0.097797	0.926391
O29	O	1.182616	-0.311219	0.553690
O30	O	1.682616	0.188781	1.053690
O31	O	1.182425	-0.522301	0.329970
O32	O	1.682425	-0.022301	0.829970
O33	O	1.086028	-0.522269	0.426379
O34	O	1.586028	-0.022269	0.926379
C35	C	0.930387	-0.356732	0.378188
C36	C	1.430387	0.143268	0.878188
C37	C	0.843137	-0.356744	0.378197
C38	C	1.343137	0.143256	0.878197
C39	C	0.802148	-0.404167	0.428312
C40	C	1.302148	0.095833	0.928312
C41	C	0.720168	-0.404169	0.428325
C42	C	1.220168	0.095831	0.928325
C43	C	0.679178	-0.356750	0.378218
C44	C	1.179178	0.143250	0.878218
C45	C	0.720173	-0.309321	0.328100
C46	C	1.220173	0.190679	0.828100
C47	C	0.802152	-0.309316	0.328092
C48	C	1.302152	0.190684	0.828092
C49	C	0.549303	-0.309336	0.328119
C50	C	1.049303	0.190664	0.828119
C51	C	0.467318	-0.309341	0.328126
C52	C	0.967318	0.190659	0.828126
C53	C	0.467319	-0.404188	0.428352
C54	C	0.967319	0.095812	0.928352
C55	C	0.549298	-0.404184	0.428344
C56	C	1.049298	0.095816	0.928344
C57	C	0.590287	-0.356755	0.378225
C58	C	1.090287	0.143245	0.878225
C59	C	1.134230	-0.549156	0.378186
C60	C	1.634230	-0.049156	0.878186
C61	C	1.134257	-0.631470	0.378203
C62	C	1.634257	-0.131470	0.878203
C63	C	1.134429	-0.930561	0.378245
C64	C	1.634429	-0.430561	0.878245
C65	C	1.073919	-0.899246	0.439054
C66	C	1.573919	-0.399246	0.939054
C67	C	1.073632	-0.813628	0.438863
C68	C	1.573632	-0.313628	0.938863
C69	C	1.134344	-0.782178	0.378225
C70	C	1.634344	-0.282178	0.878225
C71	C	1.111947	-0.813330	0.295495
C72	C	1.611947	-0.313330	0.795495
C73	C	1.111557	-0.898975	0.295859
C74	C	1.611557	-0.398975	0.795859
C75	C	1.217469	-0.898904	0.399437
C76	C	1.717469	-0.398904	0.899437
C77	C	1.216980	-0.813253	0.401252
C78	C	1.716980	-0.313253	0.901252
C79	C	1.134297	-0.698319	0.378208
C80	C	1.634297	-0.198319	0.878208
C81	C	1.134474	-1.014420	0.378256
C82	C	1.634474	-0.514420	0.878256
C83	C	1.339079	-0.356759	0.378231
C84	C	1.839079	0.143241	0.878231
C85	C	1.426329	-0.356765	0.378241
C86	C	1.926329	0.143235	0.878241
C87	C	1.134383	-0.356690	0.582954
C88	C	1.634383	0.143310	1.082954
C89	C	1.134403	-0.356667	0.670203
C90	C	1.634403	0.143333	1.170203
C91	C	1.134462	-0.163583	0.378250
C92	C	1.634462	0.336417	0.878250
C93	C	1.134516	-0.081269	0.378267
C94	C	1.634516	0.418731	0.878267
C95	C	1.134333	-0.356746	0.174261
C96	C	1.634333	0.143254	0.674261
C97	C	1.134465	-0.356561	0.087012
C98	C	1.634465	0.143439	0.587012
C99	C	1.184642	-0.309301	0.711210
C100	C	1.684642	0.190699	1.211210
C101	C	1.184651	-0.309276	0.793191
C102	C	1.684651	0.190724	1.293191
C103	C	1.134425	-0.356622	0.834163
C104	C	1.634425	0.143378	1.334163
C105	C	1.084181	-0.403990	0.793150
C106	C	1.584181	0.096010	1.293150
C107	C	1.084168	-0.404011	0.711171
C108	C	1.584168	0.095989	1.211171
C109	C	1.084212	-0.403946	0.964021
C110	C	1.584212	0.096054	1.464021
C111	C	1.084226	-0.403927	1.046005
C112	C	1.584226	0.096073	1.546005
C113	C	1.184695	-0.309211	1.046040
C114	C	1.684695	0.190789	1.546040
C115	C	1.184683	-0.309232	0.964061
C116	C	1.684683	0.190768	1.464061
C117	C	1.134439	-0.356601	0.923054
C118	C	1.634439	0.143399	1.423054
H119	H	0.433946	-0.270720	0.287333
H120	H	0.933946	0.229280	0.787333
H121	H	0.686798	-0.442787	0.469133
H122	H	1.186798	0.057213	0.969133
H123	H	0.835516	-0.442784	0.469113
H124	H	1.335516	0.057216	0.969113
Cl125	Cl	0.600827	-0.463802	0.491332
Cl126	Cl	1.100827	0.036198	0.991332
H127	H	0.433942	-0.442804	0.469163
H128	H	0.933942	0.057196	0.969163
Cl129	Cl	1.021006	-0.463557	0.659620
Cl130	Cl	1.521006	0.036443	1.159620
Cl131	Cl	1.095333	-0.930972	0.534073
Cl132	Cl	1.595333	-0.430972	1.034073
Cl133	Cl	0.979469	-0.932589	0.417671
Cl134	Cl	1.479469	-0.432589	0.917671
Cl135	Cl	0.600831	-0.249711	0.265111
Cl136	Cl	1.100831	0.250289	0.765111
Cl137	Cl	1.247829	-0.249715	0.912554
Cl138	Cl	1.747829	0.250285	1.412554
Cl139	Cl	0.668642	-0.249703	0.265112
Cl140	Cl	1.168642	0.250297	0.765112
H141	H	1.154633	-0.792959	0.248952
H142	H	1.654633	-0.292959	0.748952
H143	H	1.233870	-0.792890	0.462136
H144	H	1.733870	-0.292890	0.962136
H145	H	1.225604	-0.270640	1.079432
H146	H	1.725604	0.229360	1.579432
Cl147	Cl	0.853681	-0.249693	0.265089
Cl148	Cl	1.353681	0.250307	0.765089
H149	H	1.043287	-0.442508	0.930635
H150	H	1.543287	0.057492	1.430635
H151	H	1.051888	-0.791945	0.277221
H152	H	1.551888	-0.291945	0.777221
Cl153	Cl	1.095262	-0.781103	0.533573
Cl154	Cl	1.595262	-0.281103	1.033573
H155	H	1.043326	-0.442478	1.079363
H156	H	1.543326	0.057522	1.579363
H157	H	1.225544	-0.270749	0.677857
H158	H	1.725544	0.229251	1.177857
H159	H	1.012081	-0.793205	0.424826
H160	H	1.512081	-0.293205	0.924826
Cl161	Cl	1.017839	-0.929924	0.268144
Cl162	Cl	1.517839	-0.429924	0.768144
H163	H	1.153718	-0.919692	0.249007
H164	H	1.653718	-0.419692	0.749007
Cl165	Cl	1.248995	-0.932170	0.490990
Cl166	Cl	1.748995	-0.432170	0.990990
Cl167	Cl	1.290272	-0.780189	0.337861
Cl168	Cl	1.790272	-0.280189	0.837861
H169	H	1.262551	-0.919154	0.355148
H170	H	1.762551	-0.419154	0.855148
Cl171	Cl	1.021036	-0.463509	0.844659
Cl172	Cl	1.521036	0.036491	1.344659
Cl173	Cl	1.247846	-0.249760	0.844739
Cl174	Cl	1.747846	0.250240	1.344739
