data_functionalizedCrystal
_audit_creation_method	'MofGen! by Chris Wilmer'
_symmetry_space_group_name_H-M	'P1'
_symmetry_Int_Tables_number	1
_symmetry_cell_setting	triclinic
loop_
_symmetry_equiv_pos_as_xyz
  x,y,z
_cell_length_a	21.295419
_cell_length_b	25.639240
_cell_length_c	25.639234
_cell_angle_alpha	90.032088
_cell_angle_beta	90.020581
_cell_angle_gamma	90.047559
loop_
_atom_site_label
_atom_site_type_symbol
_atom_site_fract_x
_atom_site_fract_y
_atom_site_fract_z
Zn1	Zn	0.962321	-0.207976	0.295594
Zn2	Zn	1.295654	0.125357	0.628927
Zn3	Zn	1.628988	0.458691	0.962261
Zn4	Zn	0.962227	-0.295404	0.208147
Zn5	Zn	1.295560	0.037929	0.541481
Zn6	Zn	1.628893	0.371262	0.874814
Zn7	Zn	0.857052	-0.208007	0.208171
Zn8	Zn	1.190385	0.125326	0.541505
Zn9	Zn	1.523718	0.458659	0.874838
Zn10	Zn	0.857010	-0.295405	0.295551
Zn11	Zn	1.190343	0.037928	0.628884
Zn12	Zn	1.523676	0.371262	0.962217
O13	O	0.909652	-0.251698	0.251866
O14	O	1.242986	0.081635	0.585199
O15	O	1.576319	0.414968	0.918532
O16	O	1.050398	-0.219560	0.284002
O17	O	1.383731	0.113773	0.617335
O18	O	1.717065	0.447106	0.950669
O19	O	0.948253	-0.283824	0.134985
O20	O	1.281586	0.049510	0.468319
O21	O	1.614920	0.382843	0.801652
O22	O	0.871073	-0.134838	0.219796
O23	O	1.204406	0.198495	0.553130
O24	O	1.537740	0.531829	0.886463
O25	O	1.050329	-0.283794	0.219755
O26	O	1.383662	0.049540	0.553089
O27	O	1.716995	0.382873	0.886422
O28	O	0.948414	-0.134815	0.284025
O29	O	1.281747	0.198518	0.617359
O30	O	1.615081	0.531852	0.950692
O31	O	0.870981	-0.219614	0.135003
O32	O	1.204315	0.113720	0.468336
O33	O	1.537648	0.447053	0.801670
O34	O	0.768957	-0.219614	0.219754
O35	O	1.102290	0.113719	0.553088
O36	O	1.435623	0.447053	0.886421
O37	O	0.871001	-0.283795	0.368722
O38	O	1.204335	0.049539	0.702055
O39	O	1.537668	0.382872	1.035388
O40	O	0.768926	-0.283825	0.283952
O41	O	1.102259	0.049509	0.617285
O42	O	1.435592	0.382842	0.950618
O43	O	0.948373	-0.219561	0.368753
O44	O	1.281707	0.113772	0.702087
O45	O	1.615040	0.447106	1.035420
O46	O	0.948212	-0.368570	0.219713
O47	O	1.281546	-0.035236	0.553047
O48	O	1.614879	0.298097	0.886380
O49	O	0.870910	-0.368570	0.283928
O50	O	1.204243	-0.035237	0.617262
O51	O	1.537576	0.298097	0.950595
C52	C	0.746101	-0.251723	0.251851
C53	C	1.079434	0.081610	0.585184
C54	C	1.412767	0.414943	0.918518
C55	C	0.676132	-0.251747	0.251857
C56	C	1.009466	0.081587	0.585191
C57	C	1.342799	0.414920	0.918524
C58	C	0.643324	-0.218355	0.285362
C59	C	0.976658	0.114978	0.618696
C60	C	1.309991	0.448312	0.952029
C61	C	0.577582	-0.218341	0.285364
C62	C	0.910915	0.114992	0.618698
C63	C	1.244249	0.448326	0.952031
C64	C	0.544650	-0.251728	0.251867
C65	C	0.877983	0.081605	0.585200
C66	C	1.211317	0.414939	0.918533
C67	C	0.577466	-0.285122	0.218355
C68	C	0.910799	0.048212	0.551689
C69	C	1.244133	0.381545	0.885022
C70	C	0.643207	-0.285131	0.218351
C71	C	0.976541	0.048202	0.551684
C72	C	1.309874	0.381536	0.885017
N73	N	0.441373	-0.297474	0.247777
N74	N	0.774706	0.035859	0.581110
N75	N	1.108039	0.369192	0.914443
N76	N	0.378921	-0.297464	0.247784
N77	N	0.712255	0.035869	0.581117
N78	N	1.045588	0.369203	0.914451
C79	C	0.346575	-0.251701	0.251878
C80	C	0.679909	0.081633	0.585212
C81	C	1.013242	0.414966	0.918545
N82	N	0.379040	-0.205948	0.255975
N83	N	0.712373	0.127386	0.589308
N84	N	1.045707	0.460719	0.922642
N85	N	0.441497	-0.205958	0.255970
N86	N	0.774831	0.127375	0.589303
N87	N	1.108164	0.460708	0.922637
C88	C	0.473365	-0.251721	0.251868
C89	C	0.806698	0.081612	0.585201
C90	C	1.140031	0.414946	0.918535
C91	C	0.242482	-0.218291	0.285387
C92	C	0.575815	0.115042	0.618721
C93	C	0.909148	0.448375	0.952054
C94	C	0.176738	-0.218276	0.285386
C95	C	0.510071	0.115057	0.618719
C96	C	0.843405	0.448390	0.952052
C97	C	0.176623	-0.285062	0.218380
C98	C	0.509957	0.048272	0.551713
C99	C	0.843290	0.381605	0.885046
C100	C	0.242366	-0.285072	0.218378
C101	C	0.575699	0.048261	0.551712
C102	C	0.909032	0.381595	0.885045
C103	C	0.275291	-0.251687	0.251885
C104	C	0.608624	0.081646	0.585218
C105	C	0.941958	0.414979	0.918552
C106	C	0.909563	-0.387541	0.251825
C107	C	1.242897	-0.054207	0.585158
C108	C	1.576230	0.279126	0.918492
C109	C	0.909583	-0.445655	0.251825
C110	C	1.242916	-0.112322	0.585158
C111	C	1.576249	0.221012	0.918491
C112	C	0.949944	-0.805967	0.285370
C113	C	1.283277	-0.472634	0.618704
C114	C	1.616610	-0.139301	0.952037
C115	C	0.949962	-0.860572	0.285381
C116	C	1.283296	-0.527238	0.618714
C117	C	1.616629	-0.193905	0.952047
O118	O	0.984173	-0.888766	0.313860
O119	O	1.317506	-0.555432	0.647193
O120	O	1.650839	-0.222099	0.980527
N121	N	0.909740	-0.887937	0.251916
N122	N	1.243073	-0.554604	0.585250
N123	N	1.576406	-0.221271	0.918583
C124	C	0.869491	-0.860696	0.218443
C125	C	1.202824	-0.527362	0.551776
C126	C	1.536158	-0.194029	0.885110
O127	O	0.835280	-0.888986	0.189980
O128	O	1.168613	-0.555653	0.523313
O129	O	1.501947	-0.222319	0.856647
C130	C	0.869470	-0.806092	0.218435
C131	C	1.202803	-0.472759	0.551769
C132	C	1.536137	-0.139426	0.885102
C133	C	0.909700	-0.778730	0.251898
C134	C	1.243033	-0.445396	0.585231
C135	C	1.576366	-0.112063	0.918565
C136	C	0.990170	-0.778605	0.318831
C137	C	1.323503	-0.445271	0.652164
C138	C	1.656836	-0.111938	0.985497
C139	C	0.990152	-0.724004	0.318819
C140	C	1.323485	-0.390671	0.652153
C141	C	1.656819	-0.057338	0.985486
C142	C	0.949908	-0.696766	0.285347
C143	C	1.283241	-0.363433	0.618681
C144	C	1.616575	-0.030100	0.952014
C145	C	0.909682	-0.724129	0.251887
C146	C	1.243015	-0.390796	0.585220
C147	C	1.576349	-0.057462	0.918553
C148	C	0.829219	-0.778852	0.184965
C149	C	1.162552	-0.445518	0.518298
C150	C	1.495885	-0.112185	0.851631
C151	C	0.829201	-0.724245	0.184960
C152	C	1.162534	-0.390911	0.518294
C153	C	1.495867	-0.057578	0.851627
C154	C	0.869430	-0.696882	0.218423
C155	C	1.202764	-0.363549	0.551757
C156	C	1.536097	-0.030215	0.885090
C157	C	0.869420	-0.642291	0.218403
C158	C	1.202753	-0.308957	0.551737
C159	C	1.536087	0.024376	0.885070
N160	N	0.909643	-0.614925	0.251868
N161	N	1.242976	-0.281592	0.585201
N162	N	1.576309	0.051741	0.918534
C163	C	0.949887	-0.642163	0.285340
C164	C	1.283220	-0.308830	0.618673
C165	C	1.616553	0.024504	0.952006
C166	C	0.869538	-0.975366	0.218462
C167	C	1.202871	-0.642033	0.551795
C168	C	1.536205	-0.308699	0.885129
C169	C	0.869562	-1.029968	0.218467
C170	C	1.202895	-0.696635	0.551800
C171	C	1.536229	-0.363302	0.885133
C172	C	0.950033	-1.029841	0.285405
C173	C	1.283366	-0.696508	0.618739
C174	C	1.616699	-0.363174	0.952072
C175	C	0.950011	-0.975238	0.285398
C176	C	1.283345	-0.641904	0.618731
C177	C	1.616678	-0.308571	0.952064
C178	C	0.909761	-0.948001	0.251926
C179	C	1.243094	-0.614667	0.585260
C180	C	1.576428	-0.281334	0.918593
C181	C	0.949846	-0.527498	0.285313
C182	C	1.283180	-0.194165	0.618646
C183	C	1.616513	0.139169	0.951979
C184	C	0.949827	-0.472893	0.285297
C185	C	1.283160	-0.139559	0.618630
C186	C	1.616493	0.193774	0.951964
C187	C	0.869354	-0.473025	0.218360
C188	C	1.202688	-0.139692	0.551694
C189	C	1.536021	0.193642	0.885027
C190	C	0.869376	-0.527626	0.218374
C191	C	1.202709	-0.194292	0.551707
C192	C	1.536043	0.139041	0.885041
C193	C	0.909624	-0.554861	0.251855
C194	C	1.242957	-0.221527	0.585188
C195	C	1.576291	0.111806	0.918521
O196	O	0.835225	-0.614062	0.189940
O197	O	1.168558	-0.280729	0.523273
O198	O	1.501892	0.052605	0.856607
O199	O	0.984086	-0.613866	0.313803
O200	O	1.317420	-0.280533	0.647136
O201	O	1.650753	0.052801	0.980469
C202	C	1.073842	-0.251673	0.251881
C203	C	1.407176	0.081660	0.585214
C204	C	1.740509	0.414993	0.918548
C205	C	1.143811	-0.251663	0.251887
C206	C	1.477144	0.081671	0.585221
C207	C	1.810477	0.415004	0.918554
C208	C	0.909693	-0.251674	0.388239
C209	C	1.243026	0.081659	0.721572
C210	C	1.576360	0.414992	1.054906
C211	C	0.909711	-0.251664	0.446353
C212	C	1.243044	0.081669	0.779686
C213	C	1.576377	0.415002	1.113020
C214	C	0.909759	-0.115325	0.251918
C215	C	1.243092	0.218008	0.585252
C216	C	1.576425	0.551342	0.918585
C217	C	0.909804	-0.057211	0.251941
C218	C	1.243137	0.276122	0.585274
C219	C	1.576471	0.609456	0.918607
C220	C	0.909648	-0.251684	0.116023
C221	C	1.242981	0.081649	0.449357
C222	C	1.576314	0.414982	0.782690
C223	C	0.909752	-0.251547	0.057910
C224	C	1.243086	0.081786	0.391243
C225	C	1.576419	0.415120	0.724576
C226	C	0.869493	-0.218168	0.806731
C227	C	1.202826	0.115166	1.140064
C228	C	1.536160	0.448499	1.473398
C229	C	0.869496	-0.218158	0.861335
C230	C	1.202830	0.115175	1.194669
C231	C	1.536163	0.448509	1.528002
O232	O	0.835270	-0.189736	0.889584
O233	O	1.168603	0.143598	1.222918
O234	O	1.501937	0.476931	1.556251
N235	N	0.909732	-0.251582	0.888636
N236	N	1.243065	0.081751	1.221969
N237	N	1.576398	0.415085	1.555302
C238	C	0.949961	-0.285022	0.861329
C239	C	1.283295	0.048312	1.194662
C240	C	1.616628	0.381645	1.527996
O241	O	0.984184	-0.313451	0.889564
O242	O	1.317518	0.019883	1.222897
O243	O	1.650851	0.353216	1.556231
C244	C	0.949954	-0.285033	0.806726
C245	C	1.283288	0.048300	1.140059
C246	C	1.616621	0.381633	1.473392
C247	C	0.909721	-0.251603	0.779428
C248	C	1.243054	0.081730	1.112761
C249	C	1.576388	0.415063	1.446095
C250	C	0.829262	-0.184741	0.779433
C251	C	1.162596	0.148593	1.112767
C252	C	1.495929	0.481926	1.446100
C253	C	0.829260	-0.184750	0.724833
C254	C	1.162593	0.148584	1.058166
C255	C	1.495927	0.481917	1.391499
C256	C	0.869488	-0.218185	0.697530
C257	C	1.202821	0.115148	1.030863
C258	C	1.536155	0.448481	1.364196
C259	C	0.909719	-0.251612	0.724827
C260	C	1.243052	0.081721	1.058161
C261	C	1.576385	0.415054	1.391494
C262	C	0.990181	-0.318475	0.779420
C263	C	1.323514	0.014858	1.112753
C264	C	1.656847	0.348192	1.446086
C265	C	0.990170	-0.318484	0.724813
C266	C	1.323503	0.014849	1.058146
C267	C	1.656836	0.348183	1.391479
C268	C	0.949936	-0.285054	0.697515
C269	C	1.283270	0.048279	1.030848
C270	C	1.616603	0.381613	1.364182
C271	C	0.949944	-0.285057	0.642924
C272	C	1.283278	0.048276	0.976257
C273	C	1.616611	0.381610	1.309591
N274	N	0.909709	-0.251633	0.615623
N275	N	1.243043	0.081700	0.948957
N276	N	1.576376	0.415034	1.282290
C277	C	0.869481	-0.218197	0.642926
C278	C	1.202814	0.115136	0.976260
C279	C	1.536148	0.448469	1.309593
C280	C	0.949972	-0.284995	0.976000
C281	C	1.283306	0.048338	1.309333
C282	C	1.616639	0.381672	1.642666
C283	C	0.949983	-0.284981	1.030602
C284	C	1.283316	0.048352	1.363935
C285	C	1.616650	0.381686	1.697269
C286	C	0.869517	-0.218118	1.030604
C287	C	1.202850	0.115215	1.363938
C288	C	1.536184	0.448548	1.697271
C289	C	0.869510	-0.218130	0.976001
C290	C	1.202843	0.115203	1.309334
C291	C	1.536177	0.448537	1.642668
C292	C	0.909737	-0.251571	0.948699
C293	C	1.243070	0.081762	1.282032
C294	C	1.576404	0.415096	1.615366
C295	C	0.869479	-0.218218	0.528261
C296	C	1.202813	0.115115	0.861595
C297	C	1.536146	0.448449	1.194928
C298	C	0.869482	-0.218228	0.473656
C299	C	1.202816	0.115105	0.806989
C300	C	1.536149	0.448438	1.140323
C301	C	0.949946	-0.285093	0.473658
C302	C	1.283279	0.048240	0.806991
C303	C	1.616613	0.381574	1.140325
C304	C	0.949946	-0.285081	0.528259
C305	C	1.283279	0.048252	0.861592
C306	C	1.616612	0.381586	1.194925
C307	C	0.909707	-0.251642	0.555559
C308	C	1.243041	0.081692	0.888892
C309	C	1.576374	0.415025	1.222226
O310	O	0.984151	-0.313466	0.614640
O311	O	1.317485	0.019867	0.947973
O312	O	1.650818	0.353200	1.281307
O313	O	0.835258	-0.189778	0.614685
O314	O	1.168591	0.143556	0.948018
O315	O	1.501925	0.476889	1.281351
H316	H	0.269291	-0.191104	0.312667
H317	H	0.602624	0.142229	0.646000
H318	H	0.935958	0.475562	0.979334
H319	H	1.022941	-0.800776	0.346091
H320	H	1.356275	-0.467443	0.679424
H321	H	1.689608	-0.134109	1.012757
H322	H	0.150027	-0.191082	0.312669
H323	H	0.483360	0.142252	0.646002
H324	H	0.816693	0.475585	0.979335
O325	O	0.993403	-0.945725	0.321487
O326	O	1.326737	-0.612392	0.654821
O327	O	1.660070	-0.279059	0.988154
H328	H	1.021389	-0.973845	0.344761
H329	H	1.354722	-0.640511	0.678095
H330	H	1.688055	-0.307178	1.011428
O331	O	0.993345	-0.321132	0.557705
O332	O	1.326678	0.012201	0.891038
O333	O	1.660011	0.345535	1.224371
H334	H	0.965149	-0.347732	0.582564
H335	H	1.298482	-0.014398	0.915897
H336	H	1.631815	0.318935	1.249230
H337	H	0.669919	-0.312323	0.191066
H338	H	1.003253	0.021010	0.524399
H339	H	1.336586	0.354343	0.857733
H340	H	0.982589	-0.450616	0.312546
H341	H	1.315922	-0.117282	0.645880
H342	H	1.649256	0.216051	0.979213
H343	H	0.550864	-0.191147	0.312647
H344	H	0.884198	0.142186	0.645980
H345	H	1.217531	0.475520	0.979314
O346	O	0.277754	-0.321090	0.182241
O347	O	0.611087	0.012244	0.515574
O348	O	0.944421	0.345577	0.848907
H349	H	0.307691	-0.347725	0.205586
H350	H	0.641024	-0.014392	0.538919
H351	H	0.974358	0.318941	0.872252
H352	H	1.022942	-0.345698	0.801636
H353	H	1.356276	-0.012364	1.134969
H354	H	1.689609	0.320969	1.468303
H355	H	0.982752	-0.312197	1.052823
H356	H	1.316085	0.021136	1.386156
H357	H	1.649419	0.354469	1.719490
O358	O	0.141115	-0.321074	0.182248
O359	O	0.474448	0.012260	0.515582
O360	O	0.807781	0.345593	0.848915
H361	H	0.089888	-0.315460	0.187882
H362	H	0.423221	0.017874	0.521215
H363	H	0.756555	0.351207	0.854548
O364	O	0.826090	-0.182166	0.444214
O365	O	1.159423	0.151167	0.777547
O366	O	1.492757	0.484500	1.110881
H367	H	0.776677	-0.191139	0.454674
H368	H	1.110011	0.142194	0.788008
H369	H	1.443344	0.475528	1.121341
O370	O	0.541952	-0.321133	0.182225
O371	O	0.875286	0.012200	0.515558
O372	O	1.208619	0.345534	0.848891
H373	H	0.490726	-0.315521	0.187860
H374	H	0.824059	0.017813	0.521193
H375	H	1.157393	0.351146	0.854527
O376	O	0.993377	-0.321054	0.946553
O377	O	1.326710	0.012279	1.279886
O378	O	1.660043	0.345613	1.613219
H379	H	1.021359	-0.344286	0.974714
H380	H	1.354692	-0.010952	1.308047
H381	H	1.688026	0.322381	1.641381
O382	O	1.033552	-0.694494	0.354904
O383	O	1.366885	-0.361161	0.688237
O384	O	1.700219	-0.027827	1.021570
H385	H	1.061536	-0.722615	0.378177
H386	H	1.394869	-0.389282	0.711510
H387	H	1.728203	-0.055948	1.044843
H388	H	0.836623	-0.549905	0.191122
H389	H	1.169956	-0.216572	0.524455
H390	H	1.503289	0.116761	0.857788
O391	O	0.785824	-0.808352	0.148872
O392	O	1.119157	-0.475019	0.482205
O393	O	1.452490	-0.141686	0.815539
H394	H	0.792593	-0.850900	0.154492
H395	H	1.125927	-0.517566	0.487825
H396	H	1.459260	-0.184233	0.821159
O397	O	0.825952	-0.443638	0.182260
O398	O	1.159285	-0.110305	0.515593
O399	O	1.492619	0.223028	0.848926
H400	H	0.797983	-0.471836	0.158988
H401	H	1.131316	-0.138502	0.492321
H402	H	1.464650	0.194831	0.825654
H403	H	0.982616	-0.549666	0.312579
H404	H	1.315949	-0.216333	0.645913
H405	H	1.649283	0.117000	0.979246
O406	O	0.993434	-1.059223	0.321516
O407	O	1.326767	-0.725890	0.654849
O408	O	1.660100	-0.392556	0.988183
H409	H	0.986680	-1.101788	0.315902
H410	H	1.320013	-0.768455	0.649235
H411	H	1.653346	-0.435122	0.982568
H412	H	0.836761	-0.190893	1.052844
H413	H	1.170094	0.142440	1.386178
H414	H	1.503427	0.475773	1.719511
O415	O	0.785787	-0.694868	0.148857
O416	O	1.119120	-0.361535	0.482191
O417	O	1.452454	-0.028201	0.815524
H418	H	0.813970	-0.669982	0.122274
H419	H	1.147303	-0.336649	0.455608
H420	H	1.480636	-0.003316	0.788941
O421	O	0.826176	-1.059480	0.182372
O422	O	1.159509	-0.726146	0.515705
O423	O	1.492843	-0.392813	0.849038
H424	H	0.798188	-1.031360	0.159099
H425	H	1.131521	-0.698027	0.492433
H426	H	1.464855	-0.364694	0.825766
O427	O	0.785862	-0.148691	0.695399
O428	O	1.119195	0.184642	1.028732
O429	O	1.452529	0.517976	1.362066
H430	H	0.753812	-0.172096	0.670503
H431	H	1.087145	0.161237	1.003836
H432	H	1.420478	0.494570	1.337169
H433	H	0.836763	-0.953193	0.191201
H434	H	1.170097	-0.619859	0.524535
H435	H	1.503430	-0.286526	0.857868
O436	O	0.826087	-0.182148	0.557703
O437	O	1.159420	0.151185	0.891037
O438	O	1.492754	0.484519	1.224370
H439	H	0.798120	-0.158905	0.529541
H440	H	1.131454	0.174429	0.862874
H441	H	1.464787	0.507762	1.196208
H442	H	0.796501	-0.157513	0.801657
H443	H	1.129834	0.175820	1.134991
H444	H	1.463167	0.509154	1.468324
O445	O	1.033565	-0.354548	0.695364
O446	O	1.366899	-0.021214	1.028698
O447	O	1.700232	0.312119	1.362031
H448	H	1.061545	-0.377785	0.723523
H449	H	1.394878	-0.044451	1.056857
H450	H	1.728211	0.288882	1.390190
H451	H	0.836749	-0.190908	0.953779
H452	H	1.170082	0.142425	1.287112
H453	H	1.503415	0.475759	1.620446
O454	O	0.993335	-0.321155	0.444206
O455	O	1.326668	0.012178	0.777540
O456	O	1.660002	0.345511	1.110873
H457	H	0.965132	-0.347764	0.419316
H458	H	1.298465	-0.014431	0.752650
H459	H	1.631798	0.318902	1.085983
O460	O	0.678838	-0.182340	0.321490
O461	O	1.012172	0.150994	0.654823
O462	O	1.345505	0.484327	0.988157
H463	H	0.644975	-0.159113	0.344784
H464	H	0.978309	0.174221	0.678117
H465	H	1.311642	0.507554	1.011450
