data_functionalizedCrystal
_audit_creation_method	'MofGen! by Chris Wilmer'
_symmetry_space_group_name_H-M	'P1'
_symmetry_Int_Tables_number	1
_symmetry_cell_setting	triclinic
loop_
_symmetry_equiv_pos_as_xyz
  x,y,z
_cell_length_a	10.654550
_cell_length_b	8.559649
_cell_length_c	9.130313
_cell_angle_alpha	90.002738
_cell_angle_beta	90.000276
_cell_angle_gamma	77.131797
loop_
_atom_site_label
_atom_site_type_symbol
_atom_site_fract_x
_atom_site_fract_y
_atom_site_fract_z
O1	O	1.644682	0.224185	0.121684
O2	O	1.276997	0.245544	0.121710
O3	O	1.493232	0.002621	0.121693
O4	O	1.428446	0.467107	0.121701
O5	O	1.493220	0.002614	-0.121906
O6	O	1.276984	0.245537	-0.121889
O7	O	1.644669	0.224178	-0.121915
Cu8	Cu	1.460826	0.234857	-0.144144
Cu9	Cu	1.460840	0.234865	0.143939
O10	O	1.428433	0.467100	-0.121898
C11	C	1.230355	0.243972	-0.000086
C12	C	1.091396	0.239280	-0.000076
C13	C	1.498136	-0.056858	-0.000104
C14	C	1.512750	-0.234076	-0.000097
C15	C	0.997136	0.382309	-0.000078
C16	C	0.866571	0.377890	-0.000103
C17	C	0.924541	0.087402	-0.000119
C18	C	1.055103	0.091822	-0.000104
C19	C	1.691311	0.225750	-0.000116
C20	C	1.830270	0.230442	-0.000116
C21	C	1.423530	0.526579	-0.000098
C22	C	1.408915	0.703797	-0.000095
N23	N	1.460824	0.234850	-0.346767
C24	C	1.556598	0.127329	-0.423426
C25	C	1.556610	0.127330	-0.576763
C26	C	1.365070	0.342385	-0.576768
C27	C	1.365054	0.342375	-0.423434
N28	N	1.460853	0.234859	0.346562
H29	H	1.026680	0.502378	-0.000066
H30	H	1.287096	0.429932	-0.639205
H31	H	1.634579	0.039773	-0.361008
C32	C	1.660744	0.010525	-0.659729
C33	C	1.744624	-0.083610	-0.559762
C34	C	1.840580	-0.191219	-0.636134
H35	H	1.622206	-0.056607	-0.719561
H36	H	1.707493	0.068528	-0.719501
H37	H	1.697880	-0.141609	-0.500014
H38	H	1.783193	-0.016521	-0.499926
H39	H	1.887329	-0.133216	-0.695907
H40	H	1.802030	-0.258340	-0.695964
H41	H	1.897510	-0.255092	-0.568319
H42	H	0.789827	0.494359	-0.000108
C43	C	1.646239	-0.343851	-0.000413
C44	C	1.712987	-0.314197	-0.125757
C45	C	1.835950	-0.415305	-0.126106
H46	H	1.691894	-0.324034	0.084436
H47	H	1.638714	-0.452381	-0.000500
H48	H	1.720518	-0.205692	-0.125656
H49	H	1.667370	-0.334024	-0.210626
H50	H	1.828425	-0.523835	-0.126193
H51	H	1.881593	-0.395479	-0.041252
H52	H	1.881249	-0.395209	-0.211157
H53	H	0.894975	-0.032654	-0.000151
H54	H	1.131856	-0.024657	-0.000106
C55	C	1.260992	0.459299	-0.340457
C56	C	1.177149	0.553505	-0.440413
C57	C	1.081285	0.661236	-0.364028
H58	H	1.214179	0.401438	-0.280651
H59	H	1.299656	0.526361	-0.280656
H60	H	1.138487	0.486452	-0.500188
H61	H	1.223924	0.611401	-0.500221
H62	H	1.119949	0.728298	-0.304228
H63	H	1.034482	0.603362	-0.304225
H64	H	1.024393	0.725178	-0.431836
C65	C	1.275388	-0.186548	0.000152
C66	C	1.208621	-0.216255	0.125463
C67	C	1.085604	-0.115276	0.125731
H68	H	1.282786	-0.077989	0.000234
H69	H	1.229820	-0.206480	-0.084750
H70	H	1.254178	-0.196310	0.210343
H71	H	1.201187	-0.324794	0.125406
H72	H	1.040037	-0.135209	0.040829
H73	H	1.093016	-0.006724	0.125809
H74	H	1.040284	-0.135429	0.210745
