data_functionalizedCrystal
_audit_creation_method	'MofGen! by Chris Wilmer'
_symmetry_space_group_name_H-M	'P1'
_symmetry_Int_Tables_number	1
_symmetry_cell_setting	triclinic
loop_
_symmetry_equiv_pos_as_xyz
  x,y,z
_cell_length_a	12.759399
_cell_length_b	12.759401
_cell_length_c	17.077396
_cell_angle_alpha	90.019998
_cell_angle_beta	89.974693
_cell_angle_gamma	89.986586
loop_
_atom_site_label
_atom_site_type_symbol
_atom_site_fract_x
_atom_site_fract_y
_atom_site_fract_z
Zn1	Zn	-0.418326	-1.606228	-0.443870
Zn2	Zn	0.081674	-1.106228	0.056130
Zn3	Zn	-0.594027	-1.606126	-0.312612
Zn4	Zn	-0.094027	-1.106126	0.187388
Zn5	Zn	-0.418356	-1.430536	-0.312617
Zn6	Zn	0.081644	-0.930536	0.187383
Zn7	Zn	-0.593957	-1.430516	-0.443834
Zn8	Zn	-0.093957	-0.930516	0.056166
O9	O	-0.506166	-1.518351	-0.378233
O10	O	-0.006166	-1.018351	0.121767
O11	O	-0.441650	-1.753235	-0.426472
O12	O	0.058350	-1.253235	0.073528
O13	O	-0.570765	-1.582799	-0.202765
O14	O	-0.070765	-1.082799	0.297235
O15	O	-0.271331	-1.453893	-0.330046
O16	O	0.228669	-0.953893	0.169954
O17	O	-0.570736	-1.753160	-0.330036
O18	O	-0.070736	-1.253160	0.169964
O19	O	-0.271309	-1.582973	-0.426477
O20	O	0.228691	-1.082973	0.073523
O21	O	-0.441700	-1.453794	-0.202770
O22	O	0.058300	-0.953794	0.297230
O23	O	-0.441633	-1.283512	-0.330011
O24	O	0.058367	-0.783512	0.169989
O25	O	-0.570618	-1.453858	-0.553686
O26	O	-0.070618	-0.953858	-0.053686
O27	O	-0.570647	-1.283497	-0.426415
O28	O	-0.070647	-0.783497	0.073585
O29	O	-0.441583	-1.582953	-0.553713
O30	O	0.058417	-1.082953	-0.053713
O31	O	-0.741039	-1.582779	-0.330001
O32	O	-0.241039	-1.082779	0.169999
O33	O	-0.740987	-1.453759	-0.426410
O34	O	-0.240987	-0.953759	0.073590
C35	C	-0.506136	-1.245384	-0.378210
C36	C	-0.006136	-0.745384	0.121790
C37	C	-0.506149	-1.128607	-0.378219
C38	C	-0.006149	-0.628607	0.121781
C39	C	-0.573254	-1.073710	-0.327934
C40	C	-0.073254	-0.573710	0.172066
C41	C	-0.573267	-0.963986	-0.327944
C42	C	-0.073267	-0.463986	0.172056
C43	C	-0.439061	-0.964066	-0.428525
C44	C	0.060939	-0.464066	0.071475
C45	C	-0.439054	-1.073788	-0.428518
C46	C	0.060946	-0.573788	0.071482
C47	C	-0.650734	-1.073662	-0.269863
C48	C	-0.150734	-0.573662	0.230137
C49	C	-0.650747	-0.963938	-0.269873
C50	C	-0.150747	-0.463938	0.230127
C51	C	-0.779134	-1.518285	-0.378218
C52	C	-0.279134	-1.018285	0.121782
C53	C	-0.895910	-1.518352	-0.378238
C54	C	-0.395910	-1.018352	0.121762
C55	C	-1.060509	-1.451223	-0.428421
C56	C	-0.560509	-0.951223	0.071579
C57	C	-0.950785	-1.451158	-0.428402
C58	C	-0.450785	-0.951158	0.071598
C59	C	-0.950766	-1.585624	-0.328094
C60	C	-0.450766	-1.085624	0.171906
C61	C	-1.060488	-1.585693	-0.328118
C62	C	-0.560488	-1.085693	0.171882
C63	C	-1.060519	-1.373588	-0.486330
C64	C	-0.560519	-0.873588	0.013670
C65	C	-0.950795	-1.373522	-0.486312
C66	C	-0.450795	-0.873522	0.013688
C67	C	-0.232133	-1.518446	-0.378266
C68	C	0.267867	-1.018446	0.121734
C69	C	-0.115357	-1.518487	-0.378280
C70	C	0.384643	-1.018487	0.121720
C71	C	-0.506089	-1.518415	-0.582978
C72	C	-0.006089	-1.018415	-0.082978
C73	C	-0.506056	-1.518442	-0.670228
C74	C	-0.006056	-1.018442	-0.170228
C75	C	-0.506187	-0.792384	-0.378249
C76	C	-0.006187	-0.292384	0.121751
C77	C	-0.506170	-0.909161	-0.378235
C78	C	-0.006170	-0.409161	0.121765
C79	C	-0.438862	-1.585664	-0.711233
C80	C	0.061138	-1.085664	-0.211233
C81	C	-0.438827	-1.585677	-0.793213
C82	C	0.061173	-1.085677	-0.293213
C83	C	-0.505992	-1.518472	-0.834187
C84	C	-0.005992	-1.018472	-0.334187
C85	C	-0.573189	-1.451242	-0.793176
C86	C	-0.073189	-0.951242	-0.293176
C87	C	-0.573218	-1.451225	-0.711197
C88	C	-0.073218	-0.951225	-0.211197
C89	C	-0.573126	-1.451284	-0.964046
C90	C	-0.073126	-0.951284	-0.464046
C91	C	-0.573099	-1.451303	-1.046031
C92	C	-0.073099	-0.951303	-0.546031
C93	C	-0.438735	-1.585736	-1.046063
C94	C	0.061265	-1.085736	-0.546063
C95	C	-0.438764	-1.585719	-0.964084
C96	C	0.061236	-1.085719	-0.464084
C97	C	-0.505963	-1.518490	-0.923078
C98	C	-0.005963	-1.018490	-0.423078
C99	C	-0.506168	-1.518348	-0.174286
C100	C	-0.006168	-1.018348	0.325714
C101	C	-0.505905	-1.518525	-0.087036
C102	C	-0.005905	-1.018525	0.412964
H103	H	-0.628849	-0.934127	-0.209107
H104	H	-0.128849	-0.434127	0.290893
H105	H	-0.728087	-0.929909	-0.291548
H106	H	-0.228087	-0.429909	0.208452
Cl107	Cl	-0.657605	-1.366766	-0.912498
Cl108	Cl	-0.157605	-0.866766	-0.412498
Cl109	Cl	-0.904943	-1.247891	-0.461068
Cl110	Cl	-0.404943	-0.747891	0.038932
Cl111	Cl	-1.129436	-1.670273	-0.265093
Cl112	Cl	-0.629436	-1.170273	0.234907
Cl113	Cl	-0.657623	-1.366751	-0.844686
Cl114	Cl	-0.157623	-0.866751	-0.344686
H115	H	-0.384171	-1.640393	-0.677878
H116	H	0.115829	-1.140393	-0.177878
Cl117	Cl	-0.881781	-1.670107	-0.265038
Cl118	Cl	-0.381781	-1.170107	0.234962
H119	H	-0.621484	-1.107667	-0.212149
H120	H	-0.121484	-0.607667	0.287851
H121	H	-0.384436	-0.919419	-0.469478
H122	H	0.115564	-0.419419	0.030522
Cl123	Cl	-1.106379	-1.407181	-0.580226
Cl124	Cl	-0.606379	-0.907181	-0.080226
H125	H	-0.384421	-1.118481	-0.469473
H126	H	0.115579	-0.618481	0.030527
Cl127	Cl	-0.776399	-1.119636	-0.294833
Cl128	Cl	-0.276399	-0.619636	0.205167
Cl129	Cl	-1.113208	-1.254316	-0.452637
Cl130	Cl	-0.613208	-0.754316	0.047363
Cl131	Cl	-0.354332	-1.670213	-0.912575
Cl132	Cl	0.145668	-1.170213	-0.412575
H133	H	-0.916684	-1.402599	-0.544079
H134	H	-0.416684	-0.902599	-0.044079
Cl135	Cl	-0.657525	-1.366804	-1.097540
Cl136	Cl	-0.157525	-0.866804	-0.597540
H137	H	-0.384113	-1.640418	-0.826596
H138	H	0.115887	-1.140418	-0.326596
H139	H	-0.384017	-1.640474	-1.079453
H140	H	0.115983	-1.140474	-0.579453
H141	H	-0.627924	-1.396475	-0.677812
H142	H	-0.127924	-0.896475	-0.177812
