data_functionalizedCrystal
_audit_creation_method	'MofGen! by Chris Wilmer'
_symmetry_space_group_name_H-M	'P1'
_symmetry_Int_Tables_number	1
_symmetry_cell_setting	triclinic
loop_
_symmetry_equiv_pos_as_xyz
  x,y,z
_cell_length_a	18.627314
_cell_length_b	18.627226
_cell_length_c	18.627297
_cell_angle_alpha	59.997322
_cell_angle_beta	90.001676
_cell_angle_gamma	119.999958
loop_
_atom_site_label
_atom_site_type_symbol
_atom_site_fract_x
_atom_site_fract_y
_atom_site_fract_z
O1	O	-0.492482	0.633241	-0.021358
O2	O	-0.388085	0.486233	0.021254
O3	O	-0.388084	0.633237	-0.125754
O4	O	-0.492483	0.486236	0.125650
O5	O	-0.507487	0.513832	-0.125750
O6	O	-0.507488	0.366828	0.021258
O7	O	-0.611884	0.513836	-0.021355
Cu8	Cu	-0.570589	0.429429	-0.000048
Cu9	Cu	-0.429381	0.570639	-0.000052
O10	O	-0.611886	0.366832	0.125653
C11	C	-0.612979	0.774047	-0.031067
C12	C	-0.568677	0.862651	-0.024974
C13	C	-0.699378	0.731053	-0.031674
C14	C	-0.612982	0.644040	-0.031058
C15	C	-0.568684	0.593640	-0.024957
C16	C	-0.699381	0.601244	-0.031666
C17	C	-0.742981	0.644044	-0.031063
C18	C	-0.837678	0.593647	-0.024966
C19	C	-0.569576	0.731049	-0.031670
O20	O	-0.874280	0.513844	-0.021364
O21	O	-1.125679	0.366844	0.021236
O22	O	-0.978680	0.513845	-0.125767
O23	O	-1.021279	0.366842	0.125639
O24	O	-0.978678	0.633252	-0.125774
O25	O	-1.125677	0.486251	0.021228
O26	O	-0.874278	0.633251	-0.021372
Cu27	Cu	-0.999977	0.570654	-0.000072
Cu28	Cu	-0.999980	0.429441	-0.000063
O29	O	-1.021277	0.486250	0.125631
C30	C	-0.386983	0.644034	-0.387053
C31	C	-0.431283	0.593637	-0.431352
C32	C	-0.300584	0.731042	-0.430459
C33	C	-0.386983	0.644034	-0.257052
C34	C	-0.431284	0.593636	-0.162354
C35	C	-0.300584	0.731041	-0.300655
C36	C	-0.256982	0.774037	-0.387055
C37	C	-0.162285	0.862638	-0.431356
C38	C	-0.430387	0.601236	-0.300654
C39	C	-0.256978	0.356045	0.030934
C40	C	-0.162280	0.406445	0.024833
C41	C	-0.300579	0.269039	0.031540
C42	C	-0.386982	0.356038	0.030943
C43	C	-0.431284	0.406431	0.024853
C44	C	-0.430385	0.269033	0.031550
C45	C	-0.386979	0.226042	0.030937
C46	C	-0.431279	0.137443	0.024839
C47	C	-0.300582	0.398838	0.031547
O48	O	-0.507484	1.104434	0.021247
O49	O	-0.611879	0.895649	-0.021370
O50	O	-0.611873	0.895629	0.125640
O51	O	-0.507489	1.104455	-0.125763
O52	O	-0.492466	0.895640	0.125625
O53	O	-0.492471	0.895661	-0.021385
O54	O	-0.388076	1.104446	0.021232
Cu55	Cu	-0.429371	1.000054	-0.000078
Cu56	Cu	-0.570584	1.000041	-0.000060
O57	O	-0.388082	1.104466	-0.125778
O58	O	0.125714	1.104442	-0.492553
O59	O	-0.125685	0.895640	-0.388156
O60	O	0.021312	0.895637	-0.388148
O61	O	-0.021283	1.104446	-0.492561
O62	O	0.021316	0.895640	-0.507551
O63	O	-0.125681	0.895644	-0.507560
O64	O	0.125718	1.104446	-0.611956
Cu65	Cu	0.000019	1.000045	-0.570660
Cu66	Cu	0.000014	1.000041	-0.429452
O67	O	-0.021280	1.104449	-0.611965
O68	O	-0.492488	0.486231	-0.611948
O69	O	-0.388084	0.633237	-0.507556
O70	O	-0.388088	0.486230	-0.507546
O71	O	-0.492484	0.633238	-0.611958
O72	O	-0.507489	0.366828	-0.388140
O73	O	-0.507485	0.513835	-0.388151
O74	O	-0.611889	0.366828	-0.492542
Cu75	Cu	-0.570589	0.429429	-0.429444
Cu76	Cu	-0.429384	0.570636	-0.570654
O77	O	-0.611885	0.513835	-0.492553
C78	C	-0.742989	0.226031	0.386954
C79	C	-0.837686	0.137429	0.431254
C80	C	-0.699388	0.269025	0.430358
C81	C	-0.612988	0.356034	0.256952
C82	C	-0.568686	0.406433	0.162254
C83	C	-0.569584	0.398831	0.300554
C84	C	-0.612989	0.356032	0.386954
C85	C	-0.568690	0.406429	0.431254
C86	C	-0.699387	0.269027	0.300554
C87	C	-0.969010	0.774035	-0.387073
C88	C	-0.975108	0.862637	-0.431377
C89	C	-0.968411	0.731033	-0.430472
C90	C	-0.968998	0.644038	-0.257069
C91	C	-0.975084	0.593647	-0.162372
C92	C	-0.968400	0.601234	-0.300666
C93	C	-0.969017	0.644025	-0.387063
C94	C	-0.975122	0.593621	-0.431357
C95	C	-0.968392	0.731046	-0.300675
C96	C	-1.030945	0.356067	0.386929
C97	C	-1.024844	0.406469	0.431224
C98	C	-1.031546	0.269062	0.430336
C99	C	-1.030959	0.356057	0.256933
C100	C	-1.024873	0.406448	0.162237
C101	C	-1.031560	0.269052	0.300538
C102	C	-1.030943	0.226063	0.386936
C103	C	-1.024840	0.137465	0.431239
C104	C	-1.031562	0.398858	0.300531
C105	C	-0.612956	0.644009	0.386927
C106	C	-0.568651	0.593613	0.431220
C107	C	-0.699355	0.601203	0.430338
C108	C	-0.612965	0.774017	0.256932
C109	C	-0.568669	0.862628	0.162235
C110	C	-0.699364	0.731014	0.300541
C111	C	-0.742961	0.644000	0.386940
C112	C	-0.837658	0.593594	0.431246
C113	C	-0.569556	0.731023	0.300528
O114	O	-1.021369	0.366783	-0.492524
O115	O	-0.978719	0.513818	-0.388154
O116	O	-1.125739	0.366807	-0.388121
O117	O	-0.874349	0.513794	-0.492556
O118	O	-1.125749	0.486205	-0.507526
O119	O	-0.978730	0.633217	-0.507559
O120	O	-1.021379	0.486181	-0.611929
Cu121	Cu	-1.000055	0.570601	-0.570646
Cu122	Cu	-1.000043	0.429398	-0.429436
O123	O	-0.874360	0.633193	-0.611961
C124	C	-0.256996	1.356096	-0.387078
C125	C	-0.162299	1.406502	-0.431386
C126	C	-0.300602	1.398892	-0.430476
C127	C	-0.386991	1.226078	-0.257070
C128	C	-0.431286	1.137467	-0.162373
C129	C	-0.430400	1.269071	-0.300665
C130	C	-0.387001	1.356086	-0.387064
C131	C	-0.431307	1.406481	-0.431356
C132	C	-0.300592	1.269081	-0.300679
H133	H	-0.734386	0.531226	-0.032635
H134	H	-0.498589	0.767032	-0.032641
H135	H	-1.032522	0.233082	0.501327
H136	H	-0.967429	0.531216	-0.265650
H137	H	-0.734394	0.233038	0.265553
Cl138	Cl	-0.753418	0.786619	-0.033202
Cl139	Cl	-0.539999	1.213510	-0.246611
H140	H	-0.265577	0.767013	-0.265642
Cl141	Cl	-0.753441	0.213486	0.539952
Cl142	Cl	-0.246541	0.786610	-0.540065
Cl143	Cl	-0.966842	0.786627	-0.540094
H144	H	-0.265570	0.233058	0.032520
Cl145	Cl	-0.539991	0.493150	-0.246608
Cl146	Cl	-0.966887	0.786598	-0.246630
Cl147	Cl	-0.539981	0.213483	0.033048
Cl148	Cl	-0.246567	1.506990	-0.540078
Cl149	Cl	-0.246542	1.213528	-0.246640
H150	H	-0.265574	0.468847	0.032529
Cl151	Cl	-0.753396	0.786605	0.246525
Cl152	Cl	-0.459981	0.506917	0.246513
H153	H	-1.032537	0.233071	0.265532
H154	H	-1.032522	0.468884	0.265519
H155	H	-0.734353	0.531185	0.501328
Cl156	Cl	-0.459960	0.786583	0.246469
