data_functionalizedCrystal
_audit_creation_method	'MofGen! by Chris Wilmer'
_symmetry_space_group_name_H-M	'P1'
_symmetry_Int_Tables_number	1
_symmetry_cell_setting	triclinic
loop_
_symmetry_equiv_pos_as_xyz
  x,y,z
_cell_length_a	9.065215
_cell_length_b	18.266242
_cell_length_c	9.065218
_cell_angle_alpha	90.003214
_cell_angle_beta	85.015291
_cell_angle_gamma	90.008397
loop_
_atom_site_label
_atom_site_type_symbol
_atom_site_fract_x
_atom_site_fract_y
_atom_site_fract_z
O1	O	1.960413	0.060869	0.216336
O2	O	1.531128	0.060872	0.234087
O3	O	1.754644	0.060869	0.010569
O4	O	1.736898	0.060872	0.439854
O5	O	1.754605	-0.060893	0.010562
O6	O	1.531089	-0.060890	0.234080
O7	O	1.960375	-0.060893	0.216329
Zn8	Zn	1.745726	-0.080224	0.225204
Zn9	Zn	1.745777	0.080203	0.225213
O10	O	1.736859	-0.060890	0.439847
C11	C	1.476122	-0.000008	0.232379
C12	C	1.312279	-0.000007	0.227281
N13	N	1.745702	-0.189711	0.225197
C14	C	1.836375	-0.228013	0.315945
C15	C	1.836400	-0.304658	0.315941
C16	C	1.745723	-0.342997	0.225206
C17	C	1.655044	-0.304685	0.134440
C18	C	1.655033	-0.228042	0.134435
N19	N	1.616430	-0.463349	0.219451
N20	N	1.616444	-0.536157	0.219463
C21	C	1.745753	-0.573920	0.225212
N22	N	1.875049	-0.536124	0.230976
N23	N	1.875033	-0.463309	0.230971
C24	C	1.745726	-0.426104	0.225200
C25	C	1.836461	-0.695330	0.315960
C26	C	1.836488	-0.771976	0.315946
C27	C	1.655119	-0.772002	0.134453
C28	C	1.655105	-0.695357	0.134459
C29	C	1.745773	-0.657026	0.225221
C30	C	2.015381	-0.000011	0.218038
C31	C	2.179224	-0.000007	0.223136
C32	C	1.752919	-0.000011	-0.044421
C33	C	1.747819	-0.000007	-0.208264
N34	N	1.745813	0.189690	0.225208
C35	C	1.738584	-0.000008	0.494837
C36	C	1.743683	-0.000007	0.658680
H37	H	1.910211	-0.196809	0.389844
C38	C	1.934895	-0.346124	0.414636
C39	C	2.014271	-0.296150	0.494142
C40	C	2.105003	-0.334318	0.585089
H41	H	2.002126	-0.376022	0.355282
H42	H	1.875357	-0.376009	0.481777
H43	H	2.073805	-0.266277	0.427011
H44	H	1.947078	-0.266250	0.553525
H45	H	2.045464	-0.364203	0.652229
H46	H	2.172225	-0.364215	0.525723
H47	H	2.158860	-0.300417	0.639055
C48	C	1.935068	-0.653839	0.414534
C49	C	2.014524	-0.703792	0.493970
C50	C	2.105389	-0.665600	0.584775
H51	H	1.875661	-0.623944	0.481727
H52	H	2.002239	-0.623949	0.355041
H53	H	1.947361	-0.733670	0.553458
H54	H	2.073959	-0.733689	0.426815
H55	H	2.172561	-0.635710	0.525283
H56	H	2.045971	-0.635706	0.651959
H57	H	2.159321	-0.699487	0.638673
C58	C	1.556640	-0.346438	0.036087
C59	C	1.575939	-0.421759	0.055622
C60	C	1.485300	-0.460242	-0.034950
H61	H	1.582670	-0.333996	-0.064555
H62	H	1.456021	-0.333899	0.062060
H63	H	1.676535	-0.434292	0.029639
H64	H	1.549899	-0.434222	0.156245
H65	H	1.384682	-0.447703	-0.008976
H66	H	1.511338	-0.447794	-0.135587
H67	H	1.498372	-0.511350	-0.021698
C68	C	1.556414	-0.186584	0.035862
C69	C	1.476982	-0.236560	-0.043582
C70	C	1.386102	-0.198394	-0.134385
H71	H	1.615809	-0.156676	-0.031326
H72	H	1.489228	-0.156709	0.095357
H73	H	1.544160	-0.266423	-0.103073
H74	H	1.417559	-0.266469	0.023568
H75	H	1.318916	-0.168519	-0.074890
H76	H	1.445508	-0.168488	-0.201564
H77	H	1.332186	-0.232297	-0.188289
C78	C	1.556375	-0.653811	0.036141
C79	C	1.408240	-0.672463	0.074813
C80	C	1.317241	-0.634201	-0.015719
H81	H	1.582248	-0.666343	-0.064483
H82	H	1.569242	-0.602667	0.049143
H83	H	1.395381	-0.723596	0.061799
H84	H	1.382322	-0.659929	0.175422
H85	H	1.330108	-0.583057	-0.002717
H86	H	1.343128	-0.646736	-0.116338
H87	H	1.216722	-0.646846	0.010516
H88	H	1.910335	-0.803161	0.389840
H89	H	1.581290	-0.803217	0.060573
