data_functionalizedCrystal
_audit_creation_method	'MofGen! by Chris Wilmer'
_symmetry_space_group_name_H-M	'P1'
_symmetry_Int_Tables_number	1
_symmetry_cell_setting	triclinic
loop_
_symmetry_equiv_pos_as_xyz
  x,y,z
_cell_length_a	11.169417
_cell_length_b	13.897447
_cell_length_c	11.169409
_cell_angle_alpha	90.034303
_cell_angle_beta	90.019824
_cell_angle_gamma	90.020409
loop_
_atom_site_label
_atom_site_type_symbol
_atom_site_fract_x
_atom_site_fract_y
_atom_site_fract_z
Zn1	Zn	1.834886	-0.383914	0.678526
Zn2	Zn	2.168219	-0.050581	1.011860
Zn3	Zn	2.501552	0.282752	1.345193
Zn4	Zn	1.834743	-0.545250	0.477836
Zn5	Zn	2.168076	-0.211917	0.811170
Zn6	Zn	2.501410	0.121417	1.144503
Zn7	Zn	1.634172	-0.383973	0.477861
Zn8	Zn	1.967505	-0.050640	0.811194
Zn9	Zn	2.300838	0.282694	1.144527
Zn10	Zn	1.634147	-0.545171	0.678481
Zn11	Zn	1.967480	-0.211838	1.011815
Zn12	Zn	2.300814	0.121495	1.345148
O13	O	1.734487	-0.464577	0.578176
O14	O	2.067820	-0.131244	0.911509
O15	O	2.401153	0.202090	1.244843
O16	O	2.002816	-0.405324	0.651913
O17	O	2.336150	-0.071991	0.985246
O18	O	2.669483	0.261343	1.318580
O19	O	1.808087	-0.523914	0.309890
O20	O	2.141421	-0.190580	0.643223
O21	O	2.474754	0.142753	0.976556
O22	O	1.660867	-0.248984	0.504509
O23	O	1.994200	0.084350	0.837842
O24	O	2.327533	0.417683	1.171175
O25	O	2.002711	-0.523857	0.504467
O26	O	2.336045	-0.190523	0.837800
O27	O	2.669378	0.142810	1.171134
O28	O	1.808331	-0.248940	0.651937
O29	O	2.141664	0.084393	0.985270
O30	O	2.474997	0.417726	1.318603
O31	O	1.660728	-0.405424	0.309908
O32	O	1.994062	-0.072091	0.643241
O33	O	2.327395	0.261242	0.976574
O34	O	1.466219	-0.405348	0.504465
O35	O	1.799552	-0.072015	0.837798
O36	O	2.132885	0.261319	1.171131
O37	O	1.660825	-0.523723	0.846437
O38	O	1.994158	-0.190389	1.179770
O39	O	2.327491	0.142944	1.513104
O40	O	1.466200	-0.523780	0.651860
O41	O	1.799534	-0.190446	0.985193
O42	O	2.132867	0.142887	1.318526
O43	O	1.808307	-0.405248	0.846470
O44	O	2.141640	-0.071915	1.179804
O45	O	2.474973	0.261419	1.513137
O46	O	1.808063	-0.680221	0.504423
O47	O	2.141397	-0.346888	0.837757
O48	O	2.474730	-0.013554	1.171090
O49	O	1.660686	-0.680163	0.651836
O50	O	1.994020	-0.346830	0.985170
O51	O	2.327353	-0.013497	1.318503
C52	C	1.422662	-0.464562	0.578161
C53	C	1.755995	-0.131229	0.911494
C54	C	2.089329	0.202104	1.244827
C55	C	1.289262	-0.464579	0.578183
C56	C	1.622595	-0.131246	0.911516
C57	C	1.955929	0.202087	1.244849
C58	C	1.734389	-0.715191	0.578148
C59	C	2.067722	-0.381858	0.911482
C60	C	2.401056	-0.048525	1.244815
C61	C	1.734457	-0.822405	0.578177
C62	C	2.067791	-0.489072	0.911510
C63	C	2.401124	-0.155739	1.244843
C64	C	1.734515	-0.909475	0.578204
C65	C	2.067849	-0.576142	0.911537
C66	C	2.401182	-0.242808	1.244871
C67	C	1.734599	-1.018708	0.578235
C68	C	2.067933	-0.685374	0.911568
C69	C	2.401266	-0.352041	1.244901
C70	C	2.047529	-0.464592	0.578192
C71	C	2.380862	-0.131259	0.911526
C72	C	2.714196	0.202074	1.244859
C73	C	2.180929	-0.464599	0.578199
C74	C	2.514262	-0.131266	0.911533
C75	C	2.847596	0.202068	1.244866
C76	C	1.734579	-0.464470	0.891219
C77	C	2.067912	-0.131137	1.224552
C78	C	2.401246	0.202197	1.557885
C79	C	1.734618	-0.464424	1.024619
C80	C	2.067952	-0.131091	1.357952
C81	C	2.401285	0.202242	1.691286
C82	C	1.734617	-0.212984	0.578230
C83	C	2.067951	0.120349	0.911564
C84	C	2.401284	0.453683	1.244897
C85	C	1.734673	-0.105770	0.578253
C86	C	2.068006	0.227563	0.911587
C87	C	2.401340	0.560897	1.244920
C88	C	1.734464	-0.464614	0.266351
C89	C	2.067797	-0.131281	0.599685
C90	C	2.401131	0.202052	0.933018
C91	C	1.734657	-0.464388	0.132952
C92	C	2.067991	-0.131055	0.466285
C93	C	2.401324	0.202279	0.799619
