data_functionalizedCrystal
_audit_creation_method	'MofGen! by Chris Wilmer'
_symmetry_space_group_name_H-M	'P1'
_symmetry_Int_Tables_number	1
_symmetry_cell_setting	triclinic
loop_
_symmetry_equiv_pos_as_xyz
  x,y,z
_cell_length_a	16.109301
_cell_length_b	14.421503
_cell_length_c	16.109301
_cell_angle_alpha	90.000142
_cell_angle_beta	96.538519
_cell_angle_gamma	89.990199
loop_
_atom_site_label
_atom_site_type_symbol
_atom_site_fract_x
_atom_site_fract_y
_atom_site_fract_z
O1	O	1.103119	0.077056	-0.106861
O2	O	1.436452	0.410389	0.226472
O3	O	1.769785	0.743723	0.559806
O4	O	0.861057	0.077071	-0.120160
O5	O	1.194390	0.410404	0.213173
O6	O	1.527723	0.743738	0.546506
O7	O	0.988737	0.077054	0.007520
O8	O	1.322071	0.410387	0.340854
O9	O	1.655404	0.743720	0.674187
O10	O	0.975438	0.077073	-0.234542
O11	O	1.308771	0.410407	0.098792
O12	O	1.642105	0.743740	0.432125
O13	O	0.988753	-0.077170	0.007512
O14	O	1.322086	0.256164	0.340845
O15	O	1.655419	0.589497	0.674179
O16	O	0.861072	-0.077152	-0.120169
O17	O	1.194405	0.256181	0.213165
O18	O	1.527739	0.589514	0.546498
O19	O	1.103134	-0.077167	-0.106869
O20	O	1.436467	0.256166	0.226464
O21	O	1.769801	0.589499	0.559797
Cu22	Cu	0.982105	-0.091242	-0.113520
Cu23	Cu	1.315438	0.242092	0.219814
Cu24	Cu	1.648771	0.575425	0.553147
Cu25	Cu	0.982086	0.091145	-0.113510
Cu26	Cu	1.315420	0.424479	0.219823
Cu27	Cu	1.648753	0.757812	0.553157
O28	O	0.975453	-0.077150	-0.234550
O29	O	1.308787	0.256183	0.098783
O30	O	1.642120	0.589517	0.432117
C31	C	0.830090	-0.000039	-0.119626
C32	C	1.163423	0.333295	0.213708
C33	C	1.496756	0.666628	0.547041
C34	C	0.737794	-0.000033	-0.118011
C35	C	1.071128	0.333300	0.215323
C36	C	1.404461	0.666633	0.548656
N37	N	0.982124	-0.219523	-0.113526
N38	N	1.315457	0.113810	0.219807
N39	N	1.648790	0.447144	0.553141
C40	C	0.515522	-0.000038	-0.190018
C41	C	0.848855	0.333295	0.143315
C42	C	1.182188	0.666628	0.476648
C43	C	0.428801	-0.000044	-0.188494
C44	C	0.762135	0.333289	0.144839
C45	C	1.095468	0.666622	0.478172
C46	C	0.448676	-0.000053	-0.037006
C47	C	0.782009	0.333281	0.296328
C48	C	1.115342	0.666614	0.629661
C49	C	0.535394	-0.000053	-0.038530
C50	C	0.868728	0.333280	0.294803
C51	C	1.202061	0.666613	0.628136
C52	C	0.568815	-0.000041	-0.115039
C53	C	0.902148	0.333292	0.218294
C54	C	1.235482	0.666625	0.551627
C55	C	0.395376	-0.000047	-0.111990
C56	C	0.728709	0.333286	0.221343
C57	C	1.062042	0.666620	0.554676
C58	C	0.301350	-0.000053	-0.110337
C59	C	0.634683	0.333280	0.222996
C60	C	0.968016	0.666613	0.556329
C61	C	0.662847	-0.000037	-0.116693
C62	C	0.996180	0.333297	0.216641
C63	C	1.329514	0.666630	0.549974
C64	C	1.041176	-0.469160	-0.054474
C65	C	1.374509	-0.135826	0.278860
C66	C	1.707842	0.197507	0.612193
C67	C	0.966055	-0.530954	-0.038347
C68	C	1.299388	-0.197620	0.294986
C69	C	1.632722	0.135713	0.628319
C70	C	0.982105	-0.408684	-0.113516
C71	C	1.315438	-0.075351	0.219817
C72	C	1.648772	0.257982	0.553151
C73	C	1.057208	-0.530985	-0.129594
C74	C	1.390541	-0.197651	0.203740
C75	C	1.723875	0.135682	0.537073
C76	C	0.982094	-0.591406	-0.113504
C77	C	1.315427	-0.258072	0.219829
C78	C	1.648760	0.075261	0.553162
C79	C	0.906946	-0.469117	-0.097353
C80	C	1.240280	-0.135784	0.235981
C81	C	1.573613	0.197549	0.569314
C82	C	0.998149	-0.469143	-0.188632
C83	C	1.331482	-0.135809	0.144702
C84	C	1.664815	0.197524	0.478035
C85	C	0.922974	-0.530909	-0.172537
C86	C	1.256307	-0.197575	0.160796
C87	C	1.589640	0.135758	0.494129
C88	C	0.982113	-0.303423	-0.113521
C89	C	1.315446	0.029910	0.219813
C90	C	1.648779	0.363243	0.553146
C91	C	0.982078	-0.696665	-0.113500
C92	C	1.315411	-0.363331	0.219833
C93	C	1.648744	-0.029998	0.553166
C94	C	1.134101	-0.000056	-0.107404
C95	C	1.467435	0.333278	0.225929
C96	C	1.800768	0.666611	0.559263
C97	C	1.226397	-0.000055	-0.109019
C98	C	1.559730	0.333278	0.224314
C99	C	1.893063	0.666612	0.557648
C100	C	0.988206	-0.000058	0.038491
C101	C	1.321540	0.333275	0.371824
C102	C	1.654873	0.666608	0.705158
C103	C	0.986591	-0.000060	0.130786
C104	C	1.319925	0.333274	0.464120
C105	C	1.653258	0.666607	0.797453
N106	N	0.982074	0.219427	-0.113497
N107	N	1.315407	0.552760	0.219836
N108	N	1.648741	0.886093	0.553170
C109	C	0.975984	-0.000036	-0.265521
C110	C	1.309318	0.333297	0.067813
C111	C	1.642651	0.666631	0.401146
C112	C	0.977600	-0.000029	-0.357816
C113	C	1.310933	0.333305	-0.024483
C114	C	1.644266	0.666638	0.308851
C115	C	1.058599	-0.000049	0.353059
C116	C	1.391932	0.333284	0.686392
C117	C	1.725266	0.666617	1.019725
C118	C	1.057075	-0.000042	0.439779
C119	C	1.390408	0.333292	0.773112
C120	C	1.723742	0.666625	1.106446
C121	C	0.905586	-0.000036	0.419905
C122	C	1.238919	0.333297	0.753238
C123	C	1.572253	0.666631	1.086571
C124	C	0.907111	-0.000037	0.333186
C125	C	1.240444	0.333296	0.666519
C126	C	1.573778	0.666630	0.999853
C127	C	0.983620	-0.000049	0.299766
C128	C	1.316953	0.333285	0.633099
C129	C	1.650287	0.666618	0.966432
C130	C	0.980571	-0.000040	0.473205
C131	C	1.313904	0.333294	0.806538
C132	C	1.647238	0.666627	1.139871
C133	C	0.978918	-0.000031	0.567231
C134	C	1.312251	0.333302	0.900564
C135	C	1.645585	0.666635	1.233897
C136	C	0.985273	-0.000055	0.205734
C137	C	1.318607	0.333278	0.539067
C138	C	1.651940	0.666612	0.872400
H139	H	0.542730	-0.000035	-0.252317
H140	H	0.876063	0.333298	0.081017
H141	H	1.209396	0.666631	0.414350
H142	H	0.578788	-0.000059	0.022530
H143	H	0.912122	0.333275	0.355864
H144	H	1.245455	0.666608	0.689197
H145	H	0.385413	-0.000044	-0.249550
H146	H	0.718746	0.333290	0.083783
H147	H	1.052080	0.666623	0.417117
H148	H	1.120726	-0.558160	-0.143198
H149	H	1.454060	-0.224827	0.190135
H150	H	1.787393	0.108507	0.523469
H151	H	1.118130	-0.000041	0.483168
H152	H	1.451464	0.333293	0.816501
H153	H	1.784797	0.666626	1.149834
N154	N	0.948069	-0.566927	0.045800
N155	N	1.281402	-0.233594	0.379133
N156	N	1.614736	0.099739	0.712467
H157	H	0.947659	-0.636955	0.045009
H158	H	1.280992	-0.303622	0.378342
H159	H	1.614326	0.029712	0.711676
H160	H	0.891783	-0.543390	0.058362
H161	H	1.225116	-0.210056	0.391695
H162	H	1.558450	0.123277	0.725028
H163	H	0.843295	-0.000028	0.447127
H164	H	1.176628	0.333305	0.780460
H165	H	1.509962	0.666638	1.113793
N166	N	0.826241	-0.000036	0.275692
N167	N	1.159574	0.333297	0.609025
N168	N	1.492908	0.666630	0.942359
H169	H	0.792852	0.057135	0.286436
H170	H	1.126186	0.390468	0.619769
H171	H	1.459519	0.723801	0.953102
H172	H	0.792933	-0.057244	0.286462
H173	H	1.126267	0.276089	0.619795
H174	H	1.459600	0.609422	0.953128
N175	N	0.412629	-0.000070	0.045511
N176	N	0.745962	0.333263	0.378845
N177	N	1.079296	0.666596	0.712178
H178	H	0.349606	-0.000069	0.035102
H179	H	0.682939	0.333264	0.368435
H180	H	1.016273	0.666597	0.701768
H181	H	0.432118	0.057098	0.078326
H182	H	0.765451	0.390431	0.411660
H183	H	1.098784	0.723764	0.744993
H184	H	1.120897	-0.000057	0.325851
H185	H	1.454231	0.333276	0.659184
H186	H	1.787564	0.666610	0.992518
H187	H	1.091077	-0.442046	-0.004515
H188	H	1.424411	-0.108713	0.328818
H189	H	1.757744	0.224621	0.662151
N190	N	0.822788	-0.433283	-0.079235
N191	N	1.156122	-0.099950	0.254099
N192	N	1.489455	0.233383	0.587432
H193	H	0.823319	-0.363252	-0.079326
H194	H	1.156652	-0.029919	0.254007
H195	H	1.489986	0.303415	0.587341
H196	H	0.810579	-0.456381	-0.022696
H197	H	1.143913	-0.123048	0.310637
H198	H	1.477246	0.210285	0.643971
N199	N	0.856733	-0.566603	-0.238676
N200	N	1.190067	-0.233270	0.094658
N201	N	1.523400	0.100063	0.427991
H202	H	0.800055	-0.543975	-0.226417
H203	H	1.133389	-0.210642	0.106916
H204	H	1.466722	0.122691	0.440250
H205	H	0.857486	-0.636630	-0.238605
H206	H	1.190819	-0.303297	0.094728
H207	H	1.524153	0.030037	0.428061
H208	H	1.011753	-0.441972	-0.252140
H209	H	1.345087	-0.108638	0.081193
H210	H	1.678420	0.224695	0.414526
