data_functionalizedCrystal
_audit_creation_method	'MofGen! by Chris Wilmer'
_symmetry_space_group_name_H-M	'P1'
_symmetry_Int_Tables_number	1
_symmetry_cell_setting	triclinic
loop_
_symmetry_equiv_pos_as_xyz
  x,y,z
_cell_length_a	14.971506
_cell_length_b	13.262508
_cell_length_c	14.048226
_cell_angle_alpha	105.911903
_cell_angle_beta	89.993237
_cell_angle_gamma	84.044748
loop_
_atom_site_label
_atom_site_type_symbol
_atom_site_fract_x
_atom_site_fract_y
_atom_site_fract_z
O1	O	1.187318	0.136879	-0.043726
O2	O	0.926965	0.153237	-0.039491
O3	O	1.063695	-0.007720	-0.081160
O4	O	1.050588	0.297836	-0.002056
O5	O	1.063678	-0.007729	0.077159
O6	O	0.926949	0.153227	0.118828
O7	O	1.187301	0.136870	0.114593
Zn8	Zn	1.057122	0.145047	0.141847
Zn9	Zn	1.057144	0.145060	-0.066745
O10	O	1.050572	0.297827	0.156263
C11	C	0.893631	0.152497	0.039478
C12	C	0.794328	0.150293	0.038908
C13	C	1.062953	-0.046828	-0.012126
C14	C	1.060758	-0.163345	-0.042297
C15	C	0.356286	0.236443	0.061201
C16	C	0.449592	0.238505	0.061731
C17	C	0.506548	0.143937	0.037253
C18	C	0.470194	0.047300	0.012233
C19	C	0.376890	0.045239	0.011697
C20	C	0.664669	0.051603	0.013355
C21	C	0.757980	0.053664	0.013893
C22	C	0.737371	0.244869	0.063389
C23	C	0.644067	0.242808	0.062853
C24	C	0.607720	0.146171	0.037835
C25	C	1.054528	-0.491820	0.217867
C26	C	1.056584	-0.382346	0.246215
C27	C	1.057628	-0.327590	0.174089
C28	C	1.056615	-0.382320	0.073611
C29	C	1.054552	-0.491803	0.045261
C30	C	1.057651	-0.327574	0.001483
C31	C	1.056639	-0.382303	-0.098995
C32	C	1.054576	-0.491776	-0.127341
C33	C	1.053532	-0.546532	-0.055215
C34	C	1.059715	-0.218090	0.029834
C35	C	1.059738	-0.218073	-0.142773
C36	C	1.057683	-0.327548	-0.171121
C37	C	1.220636	0.137610	0.035622
C38	C	1.319938	0.139814	0.036187
C39	C	1.051313	0.336935	0.087227
C40	C	1.053509	0.453452	0.117391
N41	N	1.057114	0.145038	0.284206
N42	N	1.057159	0.145061	-0.209105
C43	C	1.117677	0.073796	0.315580
C44	C	1.117683	0.073795	0.415238
C45	C	1.057130	0.145043	0.483520
C46	C	0.996560	0.216288	0.452140
C47	C	0.996551	0.216283	0.352483
C48	C	0.996586	0.216296	0.659856
C49	C	0.996597	0.216303	0.759520
C50	C	1.117718	0.073808	0.722611
C51	C	1.117709	0.073803	0.622954
C52	C	1.057140	0.145050	0.591581
H53	H	0.309918	0.313452	0.081141
H54	H	1.060531	-0.173539	0.111644
N55	N	0.931273	0.293132	0.833164
H56	H	0.940474	0.282323	0.901057
H57	H	0.941862	0.367616	0.835021
N58	N	0.931256	0.293134	0.626013
H59	H	0.892899	0.338273	0.684391
H60	H	0.965664	0.339601	0.596681
H61	H	0.947252	0.274296	0.507741
H62	H	0.516576	-0.029699	-0.007703
H63	H	0.947233	0.274294	0.326940
N64	N	1.053503	-0.550844	-0.235703
H65	H	1.108036	-0.604693	-0.253447
H66	H	0.997239	-0.587782	-0.249057
H67	H	0.347298	-0.033446	-0.008674
H68	H	0.597695	0.319814	0.082791
N69	N	1.059836	-0.209514	0.204660
H70	H	1.060318	-0.183151	0.279255
H71	H	1.115718	-0.191648	0.175363
H72	H	1.057418	-0.337794	0.328024
H73	H	1.053672	-0.536411	0.276581
N74	N	0.625463	-0.052624	-0.013633
H75	H	0.675701	-0.112221	-0.029056
H76	H	0.587191	-0.057643	0.043758
H77	H	0.479182	0.317190	0.082091
H78	H	1.166990	0.015782	0.259990
N79	N	1.051316	-0.664611	-0.085778
H80	H	0.995436	-0.682550	-0.056534
H81	H	1.050863	-0.690908	-0.160376
N82	N	0.776568	0.349101	0.090377
H83	H	0.844317	0.336061	0.086999
H84	H	0.755765	0.390495	0.042403
H85	H	0.804352	-0.023342	-0.006047
N86	N	1.056592	-0.386581	-0.279491
H87	H	1.055128	-0.464242	-0.286500
H88	H	1.001575	-0.359013	-0.310045
N89	N	1.060830	-0.159025	-0.220573
H90	H	1.062284	-0.081366	-0.187368
H91	H	1.115846	-0.186574	-0.265416
N92	N	1.183035	-0.003008	0.449088
H93	H	1.221408	-0.048126	0.390713
H94	H	1.222708	0.037301	0.500839
H95	H	1.167020	0.015793	0.567358
H96	H	1.167035	0.015796	0.748160
