data_functionalizedCrystal
_audit_creation_method	'MofGen! by Chris Wilmer'
_symmetry_space_group_name_H-M	'P1'
_symmetry_Int_Tables_number	1
_symmetry_cell_setting	triclinic
loop_
_symmetry_equiv_pos_as_xyz
  x,y,z
_cell_length_a	13.032831
_cell_length_b	12.645330
_cell_length_c	13.032268
_cell_angle_alpha	97.151134
_cell_angle_beta	89.113023
_cell_angle_gamma	97.168647
loop_
_atom_site_label
_atom_site_type_symbol
_atom_site_fract_x
_atom_site_fract_y
_atom_site_fract_z
Zn1	Zn	1.498373	0.715916	0.780856
Zn2	Zn	1.520092	0.873859	0.608881
Zn3	Zn	1.348238	0.671631	0.587096
Zn4	Zn	1.326341	0.868127	0.759006
O5	O	1.423261	0.782383	0.683960
O6	O	1.645172	0.757799	0.776305
O7	O	1.515549	0.830899	0.462074
O8	O	1.368229	0.529172	0.612826
O9	O	1.661129	0.873839	0.649955
O10	O	1.478532	0.561707	0.755181
O11	O	1.389289	0.682323	0.446068
O12	O	1.201416	0.676765	0.591639
O13	O	1.330908	0.864071	0.905822
O14	O	1.185328	0.821130	0.717940
O15	O	1.457299	0.752241	0.921875
O16	O	1.494316	1.021433	0.628768
O17	O	1.351968	1.017222	0.739064
C18	C	1.156056	0.743521	0.650055
C19	C	1.041741	0.726924	0.635575
C20	C	1.423148	1.057795	0.683935
C21	C	1.423189	1.175635	0.683971
C22	C	0.982856	0.791046	0.691517
C23	C	0.864705	0.773893	0.676552
C24	C	1.333910	1.340666	0.753644
C25	C	1.333556	1.218022	0.753337
C26	C	1.407618	1.203784	0.571869
C27	C	1.407055	1.326364	0.572291
C28	C	1.528580	1.361681	0.725580
C29	C	1.527629	1.239246	0.727866
C30	C	1.691510	0.821398	0.717997
C31	C	1.805821	0.838024	0.732502
C32	C	1.389239	0.812457	0.952208
C33	C	1.374740	0.825272	1.066519
C34	C	1.423364	1.505898	0.684010
C35	C	1.423314	1.388064	0.684029
C36	C	1.457211	0.752359	0.416763
C37	C	1.471908	0.739274	0.302477
C38	C	1.430812	0.775655	1.125426
C39	C	1.415829	0.788899	1.243572
H40	H	1.019911	0.858638	0.750493
N41	N	1.550969	1.419279	0.832968
H42	H	1.618843	1.401231	0.858127
H43	H	1.555318	1.499342	0.831246
H44	H	1.330515	1.340853	0.538694
N45	N	1.490549	1.367156	0.500261
H46	H	1.527553	1.305503	0.468371
H47	H	1.458291	1.400084	0.443851
N48	N	1.491952	1.166855	0.500476
H49	H	1.541180	1.131437	0.540209
H50	H	1.460122	1.113709	0.441842
N51	N	0.815636	0.684352	0.598424
H52	H	0.843585	0.695149	0.527260
H53	H	0.832276	0.613170	0.616953
H54	H	1.341846	1.381782	0.836578
H55	H	1.341703	1.199568	0.836029
H56	H	1.256067	1.357877	0.725328
H57	H	1.331969	1.159044	0.537952
H58	H	1.315635	0.877548	1.103554
H59	H	0.842871	0.905620	0.791486
H60	H	1.004685	0.659324	0.576606
N61	N	1.229833	1.161019	0.715426
H62	H	1.184165	1.215557	0.698844
H63	H	1.239872	1.109870	0.651148
N64	N	1.543527	1.216773	0.837236
H65	H	1.483336	1.165599	0.858272
H66	H	1.609685	1.183517	0.841131
H67	H	1.596653	1.211588	0.681950
N68	N	1.616592	1.402807	0.658645
H69	H	1.588472	1.438361	0.601686
H70	H	1.666801	1.456727	0.702273
H71	H	1.489906	0.723366	1.088389
H72	H	1.356720	0.841179	1.280603
H73	H	1.531005	0.686979	1.265447
