data_functionalizedCrystal
_audit_creation_method	'MofGen! by Chris Wilmer'
_symmetry_space_group_name_H-M	'P1'
_symmetry_Int_Tables_number	1
_symmetry_cell_setting	triclinic
loop_
_symmetry_equiv_pos_as_xyz
  x,y,z
_cell_length_a	17.038272
_cell_length_b	17.038272
_cell_length_c	16.098538
_cell_angle_alpha	92.920305
_cell_angle_beta	87.069734
_cell_angle_gamma	91.111556
loop_
_atom_site_label
_atom_site_type_symbol
_atom_site_fract_x
_atom_site_fract_y
_atom_site_fract_z
O1	O	1.052033	0.167266	-0.069152
O2	O	0.824222	0.164557	-0.069177
O3	O	0.936773	0.052006	-0.069158
O4	O	0.939482	0.279817	-0.069171
O5	O	0.930197	0.058553	0.069354
O6	O	0.817646	0.171104	0.069335
O7	O	1.045456	0.173813	0.069359
Zn8	Zn	0.930507	0.173498	0.091339
Zn9	Zn	0.939172	0.164872	-0.091156
O10	O	0.932905	0.286364	0.069341
C11	C	0.791641	0.165367	0.000076
C12	C	0.704358	0.158019	0.000067
C13	C	0.931022	0.025987	0.000097
C14	C	0.923674	-0.061297	0.000096
C15	C	0.658749	0.225482	0.000064
C16	C	0.576737	0.218574	0.000075
C17	C	0.540335	0.144201	0.000085
C18	C	0.585950	0.076733	0.000090
C19	C	0.667961	0.083642	0.000084
C20	C	0.292946	0.119792	0.000108
C21	C	0.210929	0.112887	0.000112
C22	C	0.201722	0.254729	0.000098
C23	C	0.283734	0.261632	0.000088
C24	C	0.329342	0.194164	0.000098
C25	C	0.456505	0.137138	0.000094
C26	C	0.413170	0.201228	0.000094
C27	C	0.991137	-0.106906	0.000104
C28	C	0.984229	-0.188918	0.000096
C29	C	0.909856	-0.225320	0.000085
C30	C	0.842388	-0.179705	0.000074
C31	C	0.849297	-0.097694	0.000077
C32	C	0.885446	-0.472708	0.000071
C33	C	0.878541	-0.554725	0.000071
C34	C	1.020383	-0.563932	0.000091
C35	C	1.027286	-0.481920	0.000098
C36	C	0.959818	-0.436312	0.000083
C37	C	0.902792	-0.309149	0.000079
C38	C	0.966882	-0.352485	0.000084
C39	C	1.078037	0.173002	0.000105
C40	C	1.165320	0.180351	0.000108
C41	C	0.938656	0.312383	0.000083
C42	C	0.946005	0.399666	0.000079
N43	N	0.924599	0.179385	0.215887
N44	N	0.945085	0.158979	-0.215705
C45	C	0.972390	0.131633	0.259480
C46	C	0.968265	0.135759	0.346668
C47	C	0.916352	0.187642	0.390262
C48	C	0.868556	0.235395	0.346663
C49	C	0.872678	0.231265	0.259476
C50	C	0.901410	0.202602	0.653510
C51	C	0.897294	0.206731	0.740702
C52	C	0.997003	0.107093	0.740702
C53	C	1.001123	0.102971	0.653513
C54	C	0.953324	0.150721	0.609922
C55	C	0.912136	0.191862	0.479383
C56	C	0.957536	0.146496	0.520803
H57	H	0.539605	0.273510	0.000072
H58	H	0.833760	0.270148	0.223984
H59	H	0.313367	0.322194	0.000070
O60	O	0.806234	-0.589963	0.000014
C61	C	0.748164	-0.532123	0.000019
H62	H	0.775125	-0.476249	-0.026197
H63	H	0.698485	-0.554500	-0.040209
H64	H	0.723927	-0.518849	0.066464
H65	H	0.164579	0.309658	0.000092
H66	H	0.781832	-0.209350	0.000060
H67	H	0.826283	0.277636	0.382162
O68	O	1.085980	-0.608159	-0.000015
C69	C	1.134206	-0.594318	-0.071758
H70	H	1.120190	-0.534592	-0.095672
H71	H	1.198556	-0.594964	-0.055620
H72	H	1.122870	-0.642207	-0.121994
O73	O	0.694234	0.297668	0.000015
C74	C	0.776399	0.289304	0.000029
H75	H	0.792801	0.228059	-0.026190
H76	H	0.806526	0.335321	-0.040192
H77	H	0.796310	0.297771	0.066477
H78	H	0.794361	-0.060560	0.000070
O79	O	0.819938	-0.428388	-0.000086
C80	C	0.823099	-0.384049	-0.071813
H81	H	0.863647	-0.413740	-0.121948
H82	H	0.761596	-0.380191	-0.095900
H83	H	0.846610	-0.322363	-0.055593
H84	H	0.181294	0.052321	0.000118
O85	O	0.550717	0.004428	0.000133
C86	C	0.608563	-0.053636	0.000113
H87	H	0.664430	-0.026681	0.026336
H88	H	0.586184	-0.103334	0.040328
H89	H	0.621850	-0.077846	-0.066338
H90	H	1.027437	-0.322844	0.000074
H91	H	1.007180	0.096876	0.382161
O92	O	1.022766	0.081268	0.217008
C93	C	1.016127	0.087827	0.130706
H94	H	0.991536	0.147748	0.118776
H95	H	1.076571	0.081449	0.097546
H96	H	0.974907	0.039589	0.106009
H97	H	0.862492	0.241484	0.618024
H98	H	0.330070	0.064854	0.000117
O99	O	0.712357	0.018160	-0.000027
C100	C	0.763454	0.014511	-0.071776
H101	H	0.772871	0.075989	-0.095698
H102	H	0.822311	-0.009881	-0.055642
H103	H	0.736500	-0.025527	-0.122004
H104	H	1.087848	-0.452287	0.000107
H105	H	0.442811	0.261782	0.000091
O106	O	1.063360	-0.071506	0.000261
C107	C	1.068193	-0.020943	0.071989
H108	H	1.023486	-0.040675	0.122125
H109	H	1.129853	-0.022953	0.096072
H110	H	1.055149	0.041684	0.055770
H111	H	0.999800	0.104250	0.485307
H112	H	0.426857	0.076584	0.000125
H113	H	1.043394	0.060724	0.618021
H114	H	1.035918	0.068216	0.776202
O115	O	0.846787	0.257142	0.782922
C116	C	0.805491	0.298413	0.725752
H117	H	0.805406	0.263215	0.663606
H118	H	0.742379	0.307364	0.750953
H119	H	0.835293	0.358031	0.716469
H120	H	0.869870	0.234107	0.514884
O121	O	1.049841	-0.233103	0.000146
C122	C	1.116966	-0.183389	0.000143
H123	H	1.099851	-0.122342	0.026364
H124	H	1.162657	-0.208407	0.040367
H125	H	1.142669	-0.179218	-0.066303
O126	O	0.830499	-0.344414	0.000184
C127	C	0.785643	-0.318208	0.071929
H128	H	0.809685	-0.258843	0.095852
H129	H	0.721766	-0.311953	0.055789
H130	H	0.789204	-0.362635	0.122158
