data_functionalizedCrystal
_audit_creation_method	'MofGen! by Chris Wilmer'
_symmetry_space_group_name_H-M	'P1'
_symmetry_Int_Tables_number	1
_symmetry_cell_setting	triclinic
loop_
_symmetry_equiv_pos_as_xyz
  x,y,z
_cell_length_a	13.033409
_cell_length_b	13.032721
_cell_length_c	13.032268
_cell_angle_alpha	103.289627
_cell_angle_beta	105.162573
_cell_angle_gamma	89.138002
loop_
_atom_site_label
_atom_site_type_symbol
_atom_site_fract_x
_atom_site_fract_y
_atom_site_fract_z
Zn1	Zn	1.451051	-0.662355	-0.490271
Zn2	Zn	1.951051	-0.162355	0.009729
Zn3	Zn	1.450937	-0.817427	-0.335232
Zn4	Zn	1.950937	-0.317427	0.164768
Zn5	Zn	1.301724	-0.623048	-0.329561
Zn6	Zn	1.801724	-0.123048	0.170439
Zn7	Zn	1.250860	-0.817388	-0.535377
Zn8	Zn	1.750860	-0.317388	-0.035377
O9	O	1.363643	-0.730055	-0.422610
O10	O	1.863643	-0.230055	0.077390
O11	O	1.597263	-0.699393	-0.453201
O12	O	2.097263	-0.199393	0.046799
O13	O	1.452383	-0.775208	-0.183460
O14	O	1.952383	-0.275208	0.316540
O15	O	1.342867	-0.482032	-0.329629
O16	O	1.842867	0.017968	0.170371
O17	O	1.597179	-0.813323	-0.339294
O18	O	2.097179	-0.313323	0.160706
O19	O	1.452577	-0.510911	-0.447702
O20	O	1.952577	-0.010911	0.052298
O21	O	1.342757	-0.632399	-0.179293
O22	O	1.842757	-0.132399	0.320707
O23	O	1.148750	-0.632361	-0.373366
O24	O	1.648750	-0.132361	0.126634
O25	O	1.256177	-0.813257	-0.680413
O26	O	1.756177	-0.313257	-0.180413
O27	O	1.111381	-0.775142	-0.524579
O28	O	1.611381	-0.275142	-0.024579
O29	O	1.403257	-0.699355	-0.647274
O30	O	1.903257	-0.199355	-0.147274
O31	O	1.403062	-0.963652	-0.383032
O32	O	1.903062	-0.463652	0.116968
O33	O	1.256067	-0.963623	-0.530078
O34	O	1.756067	-0.463623	-0.030078
C35	C	1.092150	-0.699482	-0.453252
C36	C	1.592150	-0.199482	0.046748
C37	C	0.975997	-0.686431	-0.466391
C38	C	1.475997	-0.186431	0.033609
C39	C	0.804146	-0.723386	-0.429354
C40	C	1.304146	-0.223386	0.070646
C41	C	0.924196	-0.736878	-0.415770
C42	C	1.424196	-0.236878	0.084230
C43	C	1.324058	-1.001559	-0.462085
C44	C	1.824058	-0.501559	0.037915
C45	C	1.307213	-1.117724	-0.478998
C46	C	1.807213	-0.617724	0.021002
C47	C	1.372483	-1.169506	-0.413825
C48	C	1.872483	-0.669506	0.086175
C49	C	1.355075	-1.289569	-0.431304
C50	C	1.855075	-0.789569	0.068696
C51	C	1.636196	-0.760747	-0.391848
C52	C	2.136196	-0.260747	0.108152
C53	C	1.752342	-0.773826	-0.378740
C54	C	2.252342	-0.273826	0.121260
C55	C	1.324056	-0.760686	-0.704096
C56	C	1.824056	-0.260686	-0.204096
C57	C	1.307186	-0.773739	-0.824048
C58	C	1.807186	-0.273739	-0.324048
C59	C	1.403409	-0.457496	-0.383001
C60	C	1.903409	0.042504	0.116999
C61	C	1.420354	-0.341348	-0.366122
C62	C	1.920354	0.158652	0.133878
C63	C	1.372437	-0.723203	-0.861130
C64	C	1.872437	-0.223203	-0.361130
C65	C	1.355003	-0.736693	-0.985107
C66	C	1.855003	-0.236693	-0.485107
C67	C	1.403148	-0.699474	-0.142201
C68	C	1.903148	-0.199474	0.357799
C69	C	1.420263	-0.686149	-0.022184
C70	C	1.920263	-0.186149	0.477816
H71	H	0.968716	-0.790060	-0.362384
H72	H	1.468716	-0.290060	0.137616
Cl73	Cl	1.201001	-0.855955	-0.916731
Cl74	Cl	1.701001	-0.355955	-0.416731
H75	H	1.238449	-1.162279	-0.547738
H76	H	1.738449	-0.662279	-0.047738
H77	H	0.931476	-0.633259	-0.519787
H78	H	1.431476	-0.133259	-0.019787
Cl79	Cl	1.248813	-0.818912	-1.077787
Cl80	Cl	1.748813	-0.318912	-0.577787
Cl81	Cl	0.821076	-0.855929	-0.296315
Cl82	Cl	1.321076	-0.355929	0.203685
H83	H	1.441255	-1.124955	-0.345092
H84	H	1.941255	-0.624955	0.154908
H85	H	1.489034	-0.632885	-0.962152
H86	H	1.989034	-0.132885	-0.462152
H87	H	1.286306	-1.334120	-0.500049
H88	H	1.786306	-0.834120	-0.000049
Cl89	Cl	0.735408	-0.641300	-0.511795
Cl90	Cl	1.235408	-0.141300	-0.011795
H91	H	1.489131	-1.296799	-0.297384
H92	H	1.989131	-0.796799	0.202616
H93	H	1.441204	-0.669945	-0.801094
H94	H	1.941204	-0.169945	-0.301094
