data_functionalizedCrystal
_audit_creation_method	'MofGen! by Chris Wilmer'
_symmetry_space_group_name_H-M	'P1'
_symmetry_Int_Tables_number	1
_symmetry_cell_setting	triclinic
loop_
_symmetry_equiv_pos_as_xyz
  x,y,z
_cell_length_a	28.938199
_cell_length_b	28.937346
_cell_length_c	28.934044
_cell_angle_alpha	60.005004
_cell_angle_beta	60.009897
_cell_angle_gamma	59.994060
loop_
_atom_site_label
_atom_site_type_symbol
_atom_site_fract_x
_atom_site_fract_y
_atom_site_fract_z
O1	O	0.064043	-0.675186	0.564597
O2	O	0.024124	-0.525682	0.454913
O3	O	0.118795	-0.620275	0.454833
O4	O	-0.030629	-0.580593	0.564678
O5	O	0.150204	-0.588870	0.486157
O6	O	0.055533	-0.494276	0.486238
O7	O	0.095452	-0.643780	0.595921
Cu8	Cu	0.078360	-0.566161	0.543940
Cu9	Cu	0.041215	-0.603301	0.506895
O10	O	0.000780	-0.549187	0.596002
N11	N	0.104487	-0.540042	0.569998
N12	N	0.015094	-0.629425	0.480837
C13	C	0.165467	-0.323909	0.630915
C14	C	0.165587	-0.479117	0.786068
C15	C	0.165481	-0.479095	0.630906
C16	C	0.320696	-0.479083	0.630835
C17	C	0.182557	-0.375118	0.647971
C18	C	0.182626	-0.462038	0.734858
C19	C	0.269485	-0.462018	0.647928
C20	C	0.182566	-0.462025	0.647966
C21	C	0.143714	-0.258726	0.609206
C22	C	0.143738	-0.500820	0.609192
C23	C	0.204309	-0.440300	0.669680
C24	C	0.415481	-0.462740	0.580919
C25	C	0.474732	-0.482485	0.561145
C26	C	0.474757	-0.578356	0.597704
C27	C	0.415508	-0.558609	0.617479
C28	C	0.157989	-0.229089	0.550957
C29	C	0.138212	-0.169834	0.531225
C30	C	0.089890	-0.169857	0.627992
C31	C	0.109667	-0.229112	0.647725
C32	C	0.085482	-0.486515	0.623535
C33	C	0.065722	-0.506265	0.603789
C34	C	0.162467	-0.554625	0.555370
C35	C	0.182230	-0.534875	0.575110
C36	C	0.085661	-0.486557	0.880902
C37	C	0.065952	-0.506323	0.940155
C38	C	0.162734	-0.554693	0.940102
C39	C	0.182441	-0.534928	0.880847
C40	C	0.143904	-0.500859	0.851249
C41	C	0.385871	-0.500801	0.609083
C42	C	-0.110907	-0.668480	0.441278
C43	C	-0.024049	-0.668588	0.441475
C44	C	-0.045729	-0.690282	0.419668
C45	C	-0.062146	-0.785032	0.469507
C46	C	-0.042446	-0.844287	0.489286
C47	C	0.053426	-0.844399	0.452899
C48	C	0.033725	-0.785144	0.433120
C49	C	-0.140617	-0.682751	0.499509
C50	C	-0.199867	-0.662928	0.519152
C51	C	-0.199694	-0.614571	0.422330
C52	C	-0.140443	-0.634393	0.402687
C53	C	-0.038320	-0.610337	0.427144
C54	C	-0.018610	-0.590621	0.446974
C55	C	0.029642	-0.687402	0.495454
C56	C	0.009933	-0.707121	0.475630
C57	C	-0.038148	-0.610347	0.324832
C58	C	-0.018301	-0.590634	0.265579
C59	C	0.030035	-0.687421	0.265643
C60	C	0.010190	-0.707133	0.324897
C61	C	-0.023903	-0.668595	0.354491
C62	C	-0.024062	-0.755463	0.441426
N63	N	0.503527	-0.540005	0.569810
O64	O	0.684453	-0.545211	0.434650
O65	O	0.684643	-0.655237	0.584005
O66	O	0.684567	-0.654986	0.489282
O67	O	0.684529	-0.545462	0.529373
O68	O	0.590438	-0.623674	0.520735
O69	O	0.590513	-0.623924	0.615457
O70	O	0.590323	-0.513899	0.466102
Cu71	Cu	0.581823	-0.566053	0.543652
Cu72	Cu	0.693143	-0.603083	0.506456
O73	O	0.590399	-0.514149	0.560825
N74	N	0.771439	-0.629131	0.480292
N75	N	0.104456	-0.141061	0.570015
O76	O	-0.030629	0.039964	0.564688
O77	O	0.118732	0.039984	0.454661
O78	O	0.023980	0.039958	0.454946
O79	O	0.064123	0.039990	0.564403
O80	O	0.055392	-0.054179	0.486321
O81	O	0.150144	-0.054153	0.486036
O82	O	0.000784	-0.054173	0.596063
Cu83	Cu	0.078332	-0.062759	0.543914
Cu84	Cu	0.041183	0.048570	0.506810
O85	O	0.095535	-0.054147	0.595778
N86	N	0.015053	0.126872	0.480710
N87	N	0.104760	-0.540096	0.968910
O88	O	0.099447	-0.675167	1.149923
O89	O	-0.010552	-0.525757	1.149951
O90	O	-0.010297	-0.620493	1.149918
O91	O	0.099192	-0.580431	1.149956
O92	O	0.021064	-0.589100	1.055785
O93	O	0.020809	-0.494365	1.055818
O94	O	0.130808	-0.643774	1.055790
Cu95	Cu	0.078672	-0.566203	1.047209
Cu96	Cu	0.041584	-0.603328	1.158532
O97	O	0.130553	-0.549038	1.055823
N98	N	0.015495	-0.629442	1.236831
C99	C	0.036087	-0.491140	0.455465
C100	C	0.153325	-0.608283	0.455364
C101	C	0.083488	-0.678322	0.595370
C102	C	-0.033750	-0.561180	0.595470
C103	C	0.637601	-0.654732	0.618548
C104	C	0.637509	-0.654422	0.501245
C105	C	0.637362	-0.514403	0.431560
C106	C	0.637458	-0.514713	0.548862
C107	C	0.153215	-0.006966	0.455158
C108	C	0.035916	-0.007114	0.455550
C109	C	-0.033739	-0.007106	0.595527
C110	C	0.083600	-0.007076	0.595174
C111	C	-0.010020	-0.491238	1.102888
C112	C	-0.009698	-0.608550	1.102828
C113	C	0.130276	-0.678293	1.102853
C114	C	0.129961	-0.560974	1.102892
H115	H	0.054276	-0.458811	0.856808
O116	O	0.093741	-0.729596	0.636398
C117	C	0.160915	-0.822764	0.662443
C118	C	0.149375	-0.764727	0.615924
H119	H	0.205898	-0.851180	0.645911
H120	H	0.129588	-0.843202	0.674823
H121	H	0.155811	-0.816861	0.701053
H122	H	0.154486	-0.770581	0.577284
H123	H	0.180700	-0.744310	0.603592
H124	H	0.637525	-0.688829	0.492664
O125	O	0.637191	-0.473138	0.380434
C126	C	0.588334	-0.378738	0.329957
C127	C	0.588451	-0.425426	0.387892
H128	H	0.548938	-0.340147	0.335968
H129	H	0.588284	-0.395099	0.301404
H130	H	0.627723	-0.366390	0.309611
H131	H	0.549069	-0.437794	0.408287
H132	H	0.588531	-0.409039	0.416405
H133	H	-0.044554	-0.448327	1.102896
H134	H	0.637649	-0.689271	0.661445
O135	O	0.170985	-0.550813	1.102997
C136	C	0.232767	-0.578067	1.151746
C137	C	0.186300	-0.589627	1.151706
H138	H	0.245171	-0.609449	1.191117
H139	H	0.216189	-0.533107	1.151793
H140	H	0.271372	-0.583110	1.112330
H141	H	0.147680	-0.584616	1.191115
H142	H	0.202923	-0.634583	1.151630
H143	H	0.637450	-0.480310	0.557440
H144	H	0.196022	-0.006699	0.420530
O145	O	0.023868	-0.763725	0.489578
C146	C	0.073783	-0.857642	0.539781
C147	C	0.058052	-0.793556	0.524020
H148	H	0.101412	-0.881779	0.567639
H149	H	0.097995	-0.869363	0.499602
H150	H	0.033546	-0.869228	0.563803
H151	H	0.098259	-0.781924	0.500012
H152	H	0.033817	-0.781869	0.564219
O153	O	0.025586	-0.007165	0.414600
C154	C	-0.041680	-0.007191	0.388745
C155	C	-0.030057	-0.007135	0.435171
H156	H	-0.086670	-0.007154	0.405355
H157	H	-0.010375	-0.046604	0.376391
H158	H	-0.036606	0.032189	0.350099
H159	H	-0.035137	-0.046488	0.473847
H160	H	-0.061359	0.032304	0.447476
O161	O	-0.050647	-0.618839	1.102741
C162	C	-0.076517	-0.686064	1.102675
C163	C	-0.030088	-0.674484	1.102760
H164	H	-0.059916	-0.731056	1.102702
H165	H	-0.088861	-0.654749	1.063258
H166	H	-0.115165	-0.680969	1.142047
H167	H	0.008591	-0.679586	1.063415
H168	H	-0.017791	-0.705797	1.142203
O169	O	-0.084953	-0.007077	0.636664
C170	C	-0.178189	-0.007110	0.663008
C171	C	-0.120218	-0.007136	0.616369
H172	H	-0.206713	-0.007170	0.646620
H173	H	-0.198544	0.032303	0.675334
H174	H	-0.172211	-0.046490	0.701617
H175	H	-0.126146	0.032217	0.577729
H176	H	-0.099882	-0.046575	0.604091
O177	O	0.093955	-0.007101	0.636150
C178	C	0.161217	-0.007065	0.662002
C179	C	0.149569	-0.007044	0.615550
H180	H	0.206176	-0.007007	0.645360
H181	H	0.156217	-0.046476	0.700631
H182	H	0.129861	0.032317	0.674393
H183	H	0.180915	-0.046400	0.603111
H184	H	0.154550	0.032392	0.576951
O185	O	-0.084971	-0.550992	0.636570
C186	C	-0.178187	-0.483941	0.662733
C187	C	-0.120202	-0.495399	0.616141
H188	H	-0.206691	-0.438999	0.646229
H189	H	-0.172287	-0.489005	0.701329
H190	H	-0.198522	-0.515358	0.675122
H191	H	-0.099834	-0.463993	0.603703
H192	H	-0.126138	-0.490354	0.577575
O193	O	0.171460	-0.729480	1.102766
C194	C	0.231326	-0.797629	1.053955
C195	C	0.184674	-0.739657	1.053991
H196	H	0.242031	-0.805870	1.014519
H197	H	0.215778	-0.832219	1.093313
H198	H	0.270737	-0.797697	1.053991
H199	H	0.145247	-0.739534	1.053935
H200	H	0.200267	-0.705092	1.014636
O201	O	0.009359	-0.492443	0.968893
C202	C	-0.079385	-0.496984	0.987085
C203	C	-0.015304	-0.512724	0.954495
H204	H	-0.099343	-0.513384	0.975464
H205	H	-0.099403	-0.449005	0.975438
H206	H	-0.086843	-0.516945	1.034516
H207	H	-0.007796	-0.492801	0.907056
H208	H	0.004681	-0.560708	0.966189
O209	O	0.200246	-0.587800	0.968766
C210	C	0.298320	-0.633669	0.962459
C211	C	0.255901	-0.596175	0.929926
H212	H	0.343326	-0.640442	0.931071
H213	H	0.291555	-0.676318	0.990175
H214	H	0.291477	-0.611970	0.990220
H215	H	0.262718	-0.617824	0.902134
H216	H	0.262676	-0.553528	0.902246
H217	H	0.229870	-0.546579	0.856706
H218	H	0.196241	-0.616742	0.420869
H219	H	0.018285	-0.494604	0.615454
O220	O	0.048014	-0.453417	0.656611
C221	C	-0.050033	-0.407555	0.702574
C222	C	-0.007662	-0.445033	0.665099
H223	H	-0.095056	-0.400775	0.709459
H224	H	-0.043263	-0.364908	0.680874
H225	H	-0.043143	-0.429272	0.745171
H226	H	-0.014526	-0.423366	0.622496
H227	H	-0.014442	-0.487678	0.686844
H228	H	0.193817	-0.582360	0.527624
H229	H	0.229667	-0.546519	0.563426
H230	H	0.498884	-0.625426	0.604536
O231	O	0.386777	-0.595597	0.644744
C232	C	0.368689	-0.665284	0.639476
C233	C	0.401248	-0.623403	0.608530
H234	H	0.380386	-0.687785	0.610214
H235	H	0.321241	-0.641275	0.652154
H236	H	0.380365	-0.697827	0.678991
H237	H	0.389619	-0.590850	0.568994
H238	H	0.448687	-0.647450	0.595894
O239	O	0.503411	-0.445433	0.533772
C240	C	0.497140	-0.348263	0.499617
C241	C	0.464589	-0.390159	0.530619
H242	H	0.465767	-0.303567	0.497068
H243	H	0.524838	-0.350030	0.455048
H244	H	0.524920	-0.360186	0.523823
H245	H	0.436779	-0.378265	0.506460
H246	H	0.436927	-0.388386	0.575191
H247	H	0.391352	-0.415667	0.574082
H248	H	0.185713	-0.253197	0.519589
O249	O	0.026020	-0.439931	0.414310
C250	C	0.063126	-0.381749	0.318896
C251	C	0.074607	-0.439763	0.365457
H252	H	0.102396	-0.381597	0.279383
H253	H	0.052400	-0.347201	0.334484
H254	H	0.026060	-0.373510	0.308338
H255	H	0.111680	-0.448055	0.376035
H256	H	0.085300	-0.474278	0.349845
O257	O	0.152051	-0.141101	0.474627
C258	C	0.147440	-0.122928	0.385906
C259	C	0.131746	-0.155511	0.449993
H260	H	0.131020	-0.134557	0.365973
H261	H	0.195412	-0.134575	0.365875
H262	H	0.127471	-0.075493	0.378435
H263	H	0.151677	-0.202953	0.457516
H264	H	0.083769	-0.143817	0.469993
O265	O	0.056888	-0.141151	0.665465
C266	C	0.049390	-0.123012	0.742088
C267	C	0.086819	-0.155562	0.699689
H268	H	0.073579	-0.134642	0.769762
H269	H	0.009202	-0.134687	0.769890
H270	H	0.037688	-0.075572	0.717970
H271	H	0.098564	-0.203010	0.723762
H272	H	0.126980	-0.143840	0.671888
O273	O	0.095916	-0.257947	0.704298
C274	C	0.130059	-0.324778	0.782711
C275	C	0.145704	-0.292177	0.718628
H276	H	0.170303	-0.352451	0.794318
H277	H	0.105967	-0.352578	0.794448
H278	H	0.102317	-0.293402	0.806816
H279	H	0.173464	-0.323511	0.694479
H280	H	0.169767	-0.264368	0.706934
H281	H	0.021795	-0.754566	0.349042
H282	H	-0.065911	-0.578960	0.348925
O283	O	-0.032247	-0.534042	0.236801
C284	C	-0.107299	-0.445243	0.218564
C285	C	-0.091584	-0.509325	0.251181
H286	H	-0.155273	-0.425237	0.230187
H287	H	-0.087306	-0.437734	0.171124
H288	H	-0.090948	-0.425309	0.230265
H289	H	-0.107932	-0.529301	0.239527
H290	H	-0.111569	-0.516793	0.298613
O291	O	0.063078	-0.724914	0.236963
C292	C	0.070639	-0.801535	0.218782
C293	C	0.033163	-0.759112	0.251306
H294	H	0.046463	-0.829187	0.230357
H295	H	0.110795	-0.829359	0.230534
H296	H	0.082394	-0.777434	0.171340
H297	H	0.021365	-0.783167	0.298755
H298	H	-0.006966	-0.731289	0.239507
O299	O	-0.071346	-0.572830	0.393995
C300	C	-0.117101	-0.474752	0.347976
C301	C	-0.079707	-0.517167	0.385534
H302	H	-0.123863	-0.429740	0.341114
H303	H	-0.159758	-0.481482	0.369597
H304	H	-0.095330	-0.481639	0.305376
H305	H	-0.101428	-0.510306	0.428141
H306	H	-0.037052	-0.510426	0.363869
H307	H	-0.223743	-0.586821	0.390905
H308	H	-0.030233	-0.543188	0.435308
H309	H	0.057315	-0.718782	0.523258
H310	H	0.064741	-0.761071	0.410254
O311	O	0.109579	-0.873211	0.444734
C312	C	0.203855	-0.891427	0.377094
C313	C	0.140280	-0.858772	0.386262
H314	H	0.228697	-0.879756	0.329821
H315	H	0.211430	-0.938863	0.396013
H316	H	0.218508	-0.879806	0.398667
H317	H	0.125584	-0.870345	0.364688
H318	H	0.132742	-0.811343	0.367357
O319	O	-0.079517	-0.872922	0.516537
C320	C	-0.149208	-0.890955	0.511217
C321	C	-0.107236	-0.858497	0.480263
H322	H	-0.171623	-0.879314	0.481899
H323	H	-0.181810	-0.879207	0.550678
H324	H	-0.125231	-0.938409	0.523983
H325	H	-0.131165	-0.811036	0.467459
H326	H	-0.074636	-0.870292	0.440827
O327	O	-0.118254	-0.756132	0.477467
C328	C	-0.189821	-0.689193	0.433638
C329	C	-0.126262	-0.721883	0.424549
H330	H	-0.196316	-0.661505	0.390861
H331	H	-0.206550	-0.661400	0.459658
H332	H	-0.213655	-0.720511	0.457129
H333	H	-0.102381	-0.690607	0.401042
H334	H	-0.109576	-0.749686	0.398551
H335	H	-0.116569	-0.710512	0.530934
H336	H	-0.224058	-0.674545	0.566571
H337	H	-0.116252	-0.622767	0.355267
