data_functionalizedCrystal
_audit_creation_method	'MofGen! by Chris Wilmer'
_symmetry_space_group_name_H-M	'P1'
_symmetry_Int_Tables_number	1
_symmetry_cell_setting	triclinic
loop_
_symmetry_equiv_pos_as_xyz
  x,y,z
_cell_length_a	13.032831
_cell_length_b	16.120484
_cell_length_c	13.033109
_cell_angle_alpha	100.385715
_cell_angle_beta	76.665514
_cell_angle_gamma	86.078521
loop_
_atom_site_label
_atom_site_type_symbol
_atom_site_fract_x
_atom_site_fract_y
_atom_site_fract_z
Zn1	Zn	1.666952	-0.586070	-0.839395
Zn2	Zn	2.166952	-0.086070	-0.339395
Zn3	Zn	1.637544	-0.705199	-0.668483
Zn4	Zn	2.137544	-0.205199	-0.168483
Zn5	Zn	1.469071	-0.545521	-0.637006
Zn6	Zn	1.969071	-0.045521	-0.137006
Zn7	Zn	1.482563	-0.705126	-0.823523
Zn8	Zn	1.982563	-0.205126	-0.323523
O9	O	1.564032	-0.635479	-0.742102
O10	O	2.064032	-0.135479	-0.242102
O11	O	1.810726	-0.618873	-0.836539
O12	O	2.310726	-0.118873	-0.336539
O13	O	1.597241	-0.667078	-0.514723
O14	O	2.097241	-0.167078	-0.014723
O15	O	1.501982	-0.434248	-0.657323
O16	O	2.001982	0.065752	-0.157323
O17	O	1.789119	-0.706397	-0.710971
O18	O	2.289119	-0.206397	-0.210971
O19	O	1.647364	-0.464039	-0.806017
O20	O	2.147364	0.035961	-0.306017
O21	O	1.473465	-0.549763	-0.491596
O22	O	1.973465	-0.049763	0.008404
O23	O	1.323186	-0.549692	-0.641932
O24	O	1.823186	-0.049692	-0.141932
O25	O	1.524976	-0.706272	-0.975214
O26	O	2.024976	-0.206272	-0.475214
O27	O	1.333099	-0.666953	-0.778966
O28	O	1.833099	-0.166953	-0.278966
O29	O	1.660447	-0.618802	-0.986875
O30	O	2.160447	-0.118802	-0.486875
O31	O	1.610324	-0.821841	-0.695581
O32	O	2.110324	-0.321841	-0.195581
O33	O	1.496460	-0.821787	-0.809488
O34	O	1.996460	-0.321787	-0.309488
C35	C	1.551696	-0.852066	-0.754255
C36	C	2.051696	-0.352066	-0.254255
C37	C	1.546520	-0.944738	-0.759502
C38	C	2.046520	-0.444738	-0.259502
C39	C	1.289852	-0.603915	-0.705312
C40	C	1.789852	-0.103915	-0.205312
C41	C	1.172559	-0.590435	-0.689599
C42	C	1.672559	-0.090435	-0.189599
C43	C	1.125182	-0.642514	-0.750302
C44	C	1.625182	-0.142514	-0.250302
C45	C	1.003953	-0.628583	-0.734064
C46	C	1.503953	-0.128583	-0.234064
C47	C	1.537077	-1.114414	-0.769106
C48	C	2.037077	-0.614414	-0.269106
C49	C	1.591179	-1.155726	-0.715141
C50	C	2.091179	-0.655726	-0.215141
C51	C	1.585925	-1.250140	-0.720484
C52	C	2.085925	-0.750140	-0.220484
C53	C	1.542330	-1.019992	-0.763764
C54	C	2.042330	-0.519992	-0.263764
C55	C	1.839283	-0.667166	-0.779037
C56	C	2.339283	-0.167166	-0.279037
C57	C	1.956579	-0.680669	-0.794776
C58	C	2.456579	-0.180669	-0.294776
C59	C	1.597497	-0.667052	-1.020915
C60	C	2.097497	-0.167052	-0.520915
C61	C	1.611758	-0.680506	-1.139728
C62	C	2.111758	-0.180506	-0.639728
C63	C	1.576448	-0.418052	-0.729929
C64	C	2.076448	0.081948	-0.229929
C65	C	1.581739	-0.325397	-0.724742
C66	C	2.081739	0.174603	-0.224742
C67	C	1.556873	-0.628459	-1.181256
C68	C	2.056873	-0.128459	-0.681256
C69	C	1.571611	-0.642364	-1.304056
C70	C	2.071611	-0.142364	-0.804056
C71	C	1.530762	-0.603976	-0.464379
C72	C	2.030762	-0.103976	0.035621
C73	C	1.516719	-0.590310	-0.345580
C74	C	2.016719	-0.090310	0.154420
H75	H	1.174370	-0.697412	-0.814298
H76	H	1.674370	-0.197412	-0.314298
F77	F	1.687432	-0.752208	-1.212079
F78	F	2.187432	-0.252208	-0.712079
H79	H	0.954769	-0.573676	-0.670072
H80	H	1.454769	-0.073676	-0.170072
H81	H	1.123372	-0.535532	-0.625611
H82	H	1.623372	-0.035532	-0.125611
F83	F	1.656875	-1.109277	-0.649503
F84	F	2.156875	-0.609277	-0.149503
F85	F	1.020862	-0.752425	-0.878439
F86	F	1.520862	-0.252425	-0.378439
H87	H	1.486816	-1.149951	-0.819315
H88	H	1.986816	-0.649951	-0.319315
H89	H	1.498970	-0.573609	-1.125898
H90	H	1.998970	-0.073609	-0.625898
H91	H	1.629513	-0.697222	-1.359411
H92	H	2.129513	-0.197222	-0.859411
H93	H	1.458814	-0.535454	-1.290226
H94	H	1.958814	-0.035454	-0.790226
