data_functionalizedCrystal
_audit_creation_method	'MofGen! by Chris Wilmer'
_symmetry_space_group_name_H-M	'P1'
_symmetry_Int_Tables_number	1
_symmetry_cell_setting	triclinic
loop_
_symmetry_equiv_pos_as_xyz
  x,y,z
_cell_length_a	10.654550
_cell_length_b	12.837942
_cell_length_c	9.730223
_cell_angle_alpha	89.996108
_cell_angle_beta	89.999957
_cell_angle_gamma	89.656935
loop_
_atom_site_label
_atom_site_type_symbol
_atom_site_fract_x
_atom_site_fract_y
_atom_site_fract_z
O1	O	1.683741	0.145723	-0.114186
O2	O	2.183741	0.645723	0.385814
O3	O	1.319778	0.159606	-0.114211
O4	O	1.819778	0.659606	0.385789
O5	O	1.493689	0.001704	-0.114190
O6	O	1.993689	0.501704	0.385810
O7	O	1.509830	0.303625	-0.114206
O8	O	2.009830	0.803625	0.385794
O9	O	1.493676	0.001699	0.114390
O10	O	1.993676	0.501699	0.614390
O11	O	1.319765	0.159602	0.114369
O12	O	1.819765	0.659602	0.614369
O13	O	1.683728	0.145718	0.114394
O14	O	2.183728	0.645718	0.614394
Zn15	Zn	1.501744	0.152660	0.150674
Zn16	Zn	2.001744	0.652660	0.650674
Zn17	Zn	1.501761	0.152665	-0.150490
Zn18	Zn	2.001761	0.652665	0.349510
O19	O	1.509817	0.303621	0.114374
O20	O	2.009817	0.803621	0.614374
C21	C	1.272862	0.158585	0.000076
C22	C	1.772862	0.658585	0.500076
C23	C	1.133086	0.155535	0.000067
C24	C	1.633086	0.655535	0.500067
C25	C	1.063746	0.248505	0.000066
C26	C	1.563746	0.748505	0.500066
C27	C	0.932411	0.245633	0.000090
C28	C	1.432411	0.745633	0.500090
C29	C	0.939770	0.056812	0.000110
C30	C	1.439770	0.556812	0.500110
C31	C	1.071101	0.059685	0.000096
C32	C	1.571101	0.559685	0.500096
C33	C	1.488230	-0.036958	0.000099
C34	C	1.988230	0.463042	0.500099
C35	C	1.471967	-0.152152	0.000095
C36	C	1.971967	0.347848	0.500095
C37	C	1.667472	-0.391705	0.000080
C38	C	2.167472	0.108295	0.500080
C39	C	1.652197	-0.499941	0.000077
C40	C	2.152197	0.000059	0.500077
C41	C	1.426146	-0.476861	0.000075
C42	C	1.926146	0.023139	0.500075
C43	C	1.441420	-0.368626	0.000079
C44	C	1.941420	0.131374	0.500079
C45	C	1.562087	-0.326052	0.000083
C46	C	2.062087	0.173948	0.500083
C47	C	1.577360	-0.217814	0.000096
C48	C	2.077360	0.282186	0.500096
C49	C	1.351309	-0.194737	0.000085
C50	C	1.851309	0.305263	0.500085
C51	C	1.336035	-0.302972	0.000082
C52	C	1.836035	0.197028	0.500082
C53	C	1.730644	0.146740	0.000104
C54	C	2.230644	0.646740	0.500104
C55	C	1.870420	0.149790	0.000105
C56	C	2.370420	0.649790	0.500105
C57	C	1.515276	0.342283	0.000082
C58	C	2.015276	0.842283	0.500082
C59	C	1.531538	0.457477	0.000076
C60	C	2.031538	0.957477	0.500076
N61	N	1.501742	0.152655	0.356210
N62	N	2.001742	0.652655	0.856210
N63	N	1.501773	0.152662	-0.356027
N64	N	2.001773	0.652662	0.143973
C65	C	1.578782	0.082766	0.428145
C66	C	2.078782	0.582766	0.928145
C67	C	1.578795	0.082766	0.572028
C68	C	2.078795	0.582766	1.072028
C69	C	1.424724	0.222554	0.572028
C70	C	1.924724	0.722554	1.072028
C71	C	1.424705	0.222548	0.428148
C72	C	1.924705	0.722548	0.928148
H73	H	0.875960	0.321340	0.000092
H74	H	1.375960	0.821340	0.500092
O75	O	1.349835	0.290307	0.642067
O76	O	1.849835	0.790307	1.142067
C77	C	1.265641	0.234149	0.725293
C78	C	1.765641	0.734149	1.225293
H79	H	1.305996	0.153347	0.746851
H80	H	1.805996	0.653347	1.246851
H81	H	1.250953	0.277306	0.826466
H82	H	1.750953	0.777306	1.326466
H83	H	1.171894	0.226384	0.669863
H84	H	1.671894	0.726384	1.169863
H85	H	1.765723	-0.357041	0.000097
H86	H	2.265723	0.142959	0.500097
O87	O	0.879357	-0.036202	0.000066
O88	O	1.379357	0.463798	0.500066
C89	C	0.748570	-0.018805	0.000109
C90	C	1.248570	0.481195	0.500109
H91	H	0.727468	0.061939	-0.043171
H92	H	1.227468	0.561939	0.456829
H93	H	0.701003	-0.080191	-0.066245
H94	H	1.201003	0.419809	0.433755
H95	H	0.711483	-0.024095	0.109774
H96	H	1.211483	0.475905	0.609774
H97	H	1.114209	0.326552	0.000052
H98	H	1.614209	0.826552	0.500052
H99	H	1.361964	0.279461	0.369575
H100	H	1.861964	0.779461	0.869575
H101	H	1.641526	0.025854	0.630594
H102	H	2.141526	0.525854	1.130594
O103	O	1.138276	-0.030729	0.000034
O104	O	1.638276	0.469271	0.500034
C105	C	1.055408	-0.115945	0.000085
C106	C	1.555408	0.384055	0.500085
H107	H	0.960707	-0.090321	-0.043185
H108	H	1.460707	0.409679	0.456815
H109	H	1.095928	-0.181143	-0.066273
H110	H	1.595928	0.318857	0.433727
H111	H	1.042582	-0.145277	0.109751
H112	H	1.542582	0.354723	0.609751
H113	H	1.675613	-0.183153	0.000105
H114	H	2.175613	0.316847	0.500105
H115	H	1.738013	-0.553393	0.000070
H116	H	2.238013	-0.053393	0.500070
O117	O	1.653395	0.014782	0.358143
O118	O	2.153395	0.514782	0.858143
C119	C	1.578368	-0.049760	0.275009
C120	C	2.078368	0.450240	0.775009
H121	H	1.484985	-0.009154	0.253429
H122	H	1.984985	0.490846	0.753429
H123	H	1.628847	-0.065843	0.173841
H124	H	2.128847	0.434157	0.673841
H125	H	1.560606	-0.126472	0.330530
H126	H	2.060606	0.373528	0.830530
O127	O	1.309029	-0.518399	0.000128
O128	O	1.809029	-0.018399	0.500128
C129	C	1.318154	-0.628009	0.000081
C130	C	1.818154	-0.128009	0.500081
H131	H	1.413204	-0.652708	0.043355
H132	H	1.913204	-0.152708	0.543355
H133	H	1.240169	-0.661788	0.066439
H134	H	1.740169	-0.161788	0.566439
H135	H	1.308467	-0.658165	-0.109584
H136	H	1.808467	-0.158165	0.390416
H137	H	1.237791	-0.337651	0.000073
H138	H	1.737791	0.162349	0.500073
H139	H	1.265497	-0.141269	0.000099
H140	H	1.765497	0.358731	0.500099
