data_functionalizedCrystal
_audit_creation_method	'MofGen! by Chris Wilmer'
_symmetry_space_group_name_H-M	'P1'
_symmetry_Int_Tables_number	1
_symmetry_cell_setting	triclinic
loop_
_symmetry_equiv_pos_as_xyz
  x,y,z
_cell_length_a	21.395362
_cell_length_b	25.639240
_cell_length_c	21.395355
_cell_angle_alpha	90.026516
_cell_angle_beta	90.043940
_cell_angle_gamma	90.048633
loop_
_atom_site_label
_atom_site_type_symbol
_atom_site_fract_x
_atom_site_fract_y
_atom_site_fract_z
Zn1	Zn	0.957851	-0.207990	0.354551
Zn2	Zn	0.957749	-0.295409	0.249759
Zn3	Zn	0.853066	-0.208014	0.249752
Zn4	Zn	0.853031	-0.295420	0.354463
O5	O	0.905424	-0.251708	0.302131
O6	O	1.045515	-0.219571	0.340689
O7	O	0.943835	-0.283822	0.162080
O8	O	0.867022	-0.134846	0.263688
O9	O	1.045441	-0.283798	0.263699
O10	O	0.944007	-0.134828	0.340683
O11	O	0.866924	-0.219613	0.162075
O12	O	0.765383	-0.219623	0.263603
O13	O	0.866963	-0.283817	0.442153
O14	O	0.765358	-0.283840	0.340534
O15	O	0.943974	-0.219582	0.442217
O16	O	0.943801	-0.368576	0.263614
O17	O	0.866865	-0.368584	0.340540
C18	C	0.742636	-0.251736	0.302059
C19	C	0.672995	-0.251760	0.302042
C20	C	0.640285	-0.285243	0.342040
C21	C	0.574850	-0.285230	0.342068
C22	C	0.542127	-0.251740	0.302087
C23	C	0.574845	-0.218252	0.262086
C24	C	0.640279	-0.218262	0.262064
C25	C	0.438402	-0.247528	0.245682
C26	C	0.372969	-0.247522	0.245704
C27	C	0.340306	-0.251706	0.302156
C28	C	0.373084	-0.255908	0.358589
C29	C	0.438518	-0.255918	0.358567
C30	C	0.471174	-0.251725	0.302107
C31	C	0.236644	-0.285176	0.342188
C32	C	0.171207	-0.285160	0.342217
C33	C	0.171203	-0.218184	0.262229
C34	C	0.236639	-0.218198	0.262206
C35	C	0.269355	-0.251697	0.302184
C36	C	0.905336	-0.387551	0.302082
C37	C	0.905355	-0.445665	0.302082
C38	C	0.945530	-0.805980	0.342295
C39	C	0.945549	-0.860585	0.342308
O40	O	0.979602	-0.888781	0.376448
N41	N	0.905511	-0.887947	0.302192
C42	C	0.865448	-0.860703	0.262065
O43	O	0.831394	-0.888991	0.227945
C44	C	0.865427	-0.806100	0.262056
C45	C	0.905471	-0.778740	0.302170
C46	C	0.985571	-0.778620	0.382406
C47	C	0.985553	-0.724020	0.382392
C48	C	0.945495	-0.696779	0.342267
C49	C	0.905454	-0.724139	0.302156
C50	C	0.825361	-0.778857	0.221933
C51	C	0.825343	-0.724250	0.221928
C52	C	0.865387	-0.696890	0.262042
C53	C	0.865377	-0.642298	0.262018
N54	N	0.905415	-0.614935	0.302133
C55	C	0.945473	-0.642176	0.342258
C56	C	0.865495	-0.975374	0.262088
C57	C	0.865518	-1.029976	0.262094
C58	C	0.945619	-1.029854	0.342337
C59	C	0.945597	-0.975250	0.342328
C60	C	0.905532	-0.948011	0.302204
C61	C	0.945433	-0.527511	0.342226
C62	C	0.945414	-0.472905	0.342207
C63	C	0.865312	-0.473033	0.261966
C64	C	0.865333	-0.527633	0.261983
C65	C	0.905396	-0.554871	0.302118
O66	O	0.831340	-0.614067	0.227897
O67	O	0.979516	-0.613881	0.376378
C68	C	1.068847	-0.251681	0.302205
C69	C	1.138489	-0.251669	0.302236
C70	C	0.905476	-0.251698	0.465555
C71	C	0.905498	-0.251693	0.535196
C72	C	0.905530	-0.115335	0.302194
C73	C	0.905575	-0.057221	0.302221
C74	C	0.905408	-0.251681	0.139344
C75	C	0.905508	-0.251538	0.069703
C76	C	0.945596	-0.218245	0.567943
C77	C	0.945595	-0.218222	0.633379
C78	C	0.905503	-0.251658	0.666064
C79	C	0.865398	-0.285108	0.633309
C80	C	0.865395	-0.285126	0.567875
C81	C	0.900525	-0.298736	0.769720
C82	C	0.900532	-0.298719	0.835153
C83	C	0.905507	-0.251602	0.867885
C84	C	0.910488	-0.204501	0.835176
C85	C	0.910486	-0.204519	0.769742
C86	C	0.905501	-0.251642	0.737017
C87	C	0.945606	-0.218127	0.971585
C88	C	0.945601	-0.218103	1.037022
C89	C	0.865407	-0.284994	1.036951
C90	C	0.865409	-0.285013	0.971515
C91	C	0.905512	-0.251580	0.938836
H92	H	0.666911	-0.190995	0.229493
C93	C	0.336920	-0.242899	0.183631
H94	H	0.365743	-0.240399	0.150008
H95	H	0.311351	-0.272852	0.178058
H96	H	0.311433	-0.212586	0.184530
H97	H	0.978052	-0.549681	0.374912
C98	C	0.474326	-0.242897	0.183584
H99	H	0.445435	-0.240392	0.149980
H100	H	0.499878	-0.212588	0.184481
H101	H	0.499820	-0.272852	0.177979
C102	C	1.029596	-0.693928	0.426523
H103	H	1.023855	-0.657505	0.420773
H104	H	1.020405	-0.702868	0.468608
H105	H	1.071703	-0.702843	0.417406
C106	C	0.895051	-0.350527	0.871127
H107	H	0.892075	-0.378590	0.842263
H108	H	0.930954	-0.355115	0.896679
H109	H	0.858729	-0.349842	0.896626
H110	H	0.978252	-0.190863	1.063684
C111	C	0.989635	-0.945159	0.386464
H112	H	1.013489	-0.969208	0.410364
H113	H	1.016942	-0.923839	0.362538
H114	H	0.965636	-0.923874	0.413733
H115	H	1.018192	-0.800794	0.415084
C116	C	0.821290	-0.321922	0.531848
H117	H	0.827029	-0.317143	0.488197
H118	H	0.830429	-0.357047	0.542574
H119	H	0.779196	-0.314270	0.542540
H120	H	0.978257	-0.190901	0.944977
C121	C	0.272624	-0.181372	0.218204
H122	H	0.316281	-0.186172	0.223920
H123	H	0.261845	-0.188969	0.176092
H124	H	0.261954	-0.146251	0.227464
C125	C	0.989704	-0.181429	0.669412
H126	H	0.983958	-0.186206	0.713062
H127	H	1.031795	-0.189078	0.658719
H128	H	0.980560	-0.146301	0.658689
H129	H	0.978236	-1.052043	0.375010
H130	H	0.914540	-0.166167	0.743113
C131	C	0.821473	-1.060066	0.217964
H132	H	0.797612	-1.036018	0.194071
H133	H	0.845457	-1.081361	0.190698
H134	H	0.794164	-1.081377	0.241906
C135	C	0.538861	-0.322031	0.386104
H136	H	0.567718	-0.341975	0.409919
H137	H	0.513409	-0.302032	0.413446
H138	H	0.513263	-0.344789	0.362120
H139	H	0.792752	-0.801124	0.189267
H140	H	0.465203	-0.259338	0.404516
H141	H	0.832760	-0.312253	0.944852
H142	H	0.978025	-0.450631	0.374873
H143	H	0.666919	-0.312519	0.374595
C144	C	0.337164	-0.260509	0.420690
H145	H	0.293499	-0.259895	0.412624
H146	H	0.347868	-0.292365	0.440648
H147	H	0.347955	-0.232097	0.447106
C148	C	0.989702	-0.181466	0.532000
H149	H	1.013579	-0.161539	0.560879
H150	H	1.016985	-0.201467	0.506489
H151	H	0.965748	-0.158692	0.506463
C152	C	0.821428	-0.945415	0.217941
H153	H	0.797593	-0.969535	0.194049
H154	H	0.794105	-0.924127	0.241863
H155	H	0.845406	-0.924107	0.190663
C156	C	0.781271	-0.694289	0.177789
H157	H	0.757431	-0.718408	0.153899
H158	H	0.753953	-0.673000	0.201716
H159	H	0.805246	-0.672982	0.150509
C160	C	0.821310	-0.321776	1.072897
H161	H	0.827057	-0.316978	1.116558
H162	H	0.779217	-0.314139	1.062145
H163	H	0.830461	-0.356908	1.062172
C164	C	0.135216	-0.181340	0.218258
H165	H	0.091560	-0.186129	0.224000
H166	H	0.145999	-0.146226	0.227511
H167	H	0.145879	-0.188940	0.176134
H168	H	0.832730	-0.549911	0.229314
C169	C	0.894916	-0.350558	0.733721
H170	H	0.891917	-0.378603	0.762572
H171	H	0.858564	-0.349817	0.708219
H172	H	0.930775	-0.355224	0.708171
H173	H	0.144576	-0.312424	0.374792
H174	H	0.832698	-0.450845	0.229295
H175	H	0.914540	-0.166134	0.861825
C176	C	0.821301	-0.321889	0.669260
H177	H	0.827050	-0.317092	0.712921
H178	H	0.779208	-0.314249	0.658509
H179	H	0.830448	-0.357021	0.658535
C180	C	0.272637	-0.322015	0.386168
H181	H	0.316293	-0.317230	0.380421
H182	H	0.261971	-0.314411	0.428286
H183	H	0.261859	-0.357134	0.376920
C184	C	0.538852	-0.181415	0.218108
H185	H	0.495197	-0.186207	0.223845
H186	H	0.549629	-0.146298	0.227356
H187	H	0.549521	-0.189018	0.175987
