data_functionalizedCrystal
_audit_creation_method	'MofGen! by Chris Wilmer'
_symmetry_space_group_name_H-M	'P1'
_symmetry_Int_Tables_number	1
_symmetry_cell_setting	triclinic
loop_
_symmetry_equiv_pos_as_xyz
  x,y,z
_cell_length_a	8.597213
_cell_length_b	14.472310
_cell_length_c	8.559649
_cell_angle_alpha	89.999498
_cell_angle_beta	102.375319
_cell_angle_gamma	97.714737
loop_
_atom_site_label
_atom_site_type_symbol
_atom_site_fract_x
_atom_site_fract_y
_atom_site_fract_z
O1	O	2.053848	0.240345	-0.238012
O2	O	1.594696	0.203793	-0.256277
O3	O	1.864724	0.225289	-0.015174
O4	O	1.783820	0.218850	-0.479115
O5	O	1.864660	0.071602	-0.015187
O6	O	1.594632	0.050106	-0.256290
O7	O	2.053785	0.086658	-0.238025
Cu8	Cu	1.824203	0.054349	-0.247159
Cu9	Cu	1.824278	0.236102	-0.247143
O10	O	1.783757	0.065163	-0.479128
C11	C	1.536426	0.122313	-0.254323
C12	C	1.362899	0.108499	-0.248462
N13	N	1.824161	-0.073485	-0.247169
C14	C	1.824276	-0.447567	-0.247137
C15	C	1.679411	-0.419933	-0.375700
C16	C	1.679652	-0.312826	-0.376181
C17	C	1.824218	-0.261980	-0.247153
C18	C	1.983292	-0.288154	-0.286051
C19	C	1.982455	-0.395342	-0.286968
C20	C	1.811572	-0.409108	-0.079311
C21	C	1.807689	-0.302290	-0.080369
C22	C	1.824196	-0.157094	-0.247159
C23	C	1.824309	-0.552452	-0.247134
C24	C	2.112054	0.168140	-0.239979
C25	C	2.285581	0.181960	-0.245840
C26	C	1.870823	0.148935	0.044253
C27	C	1.889073	0.150393	0.221349
N28	N	1.824333	0.363937	-0.247121
C29	C	1.777657	0.141519	-0.538556
C30	C	1.759407	0.140067	-0.715651
H31	H	1.296333	0.035037	-0.246227
H32	H	1.560763	-0.296034	-0.352629
H33	H	2.014055	0.160335	0.302903
H34	H	1.352135	0.255417	-0.248093
O35	O	1.668247	-0.283225	-0.044990
C36	C	1.654708	-0.319705	0.104991
H37	H	1.731140	-0.378660	0.132600
H38	H	1.698380	-0.262243	0.201616
C39	C	1.383799	-0.285131	0.067091
C40	C	1.477664	-0.357545	0.100995
H41	H	1.274590	-0.308469	0.064631
H42	H	1.392921	-0.260550	-0.033952
H43	H	1.420211	-0.237251	0.147617
H44	H	1.441264	-0.405418	0.020459
H45	H	1.468531	-0.382135	0.202024
H46	H	1.998411	-0.260112	-0.407142
H47	H	1.560086	-0.455220	-0.352499
H48	H	1.685231	-0.446379	-0.499484
H49	H	1.685677	-0.286711	-0.500668
O50	O	1.677628	-0.452133	-0.035268
C51	C	1.722575	-0.498022	0.109419
H52	H	1.851770	-0.512891	0.124401
H53	H	1.713040	-0.451752	0.213809
C54	C	1.451350	-0.572302	0.087810
C55	C	1.610026	-0.590572	0.106206
H56	H	1.381921	-0.629389	0.085834
H57	H	1.421066	-0.541384	-0.009665
H58	H	1.443427	-0.533741	0.174806
H59	H	1.617950	-0.629122	0.019201
H60	H	1.640308	-0.621499	0.203667
H61	H	1.996714	-0.419182	-0.409439
H62	H	2.092554	-0.412483	-0.197157
O63	O	2.113816	-0.247246	-0.177356
C64	C	2.063094	-0.194255	-0.064165
H65	H	1.939028	-0.174872	-0.118299
H66	H	2.057074	-0.237041	0.046737
C67	C	2.335795	-0.128560	0.049285
C68	C	2.183420	-0.104747	-0.017209
H69	H	2.410020	-0.073350	0.078256
H70	H	2.369969	-0.164264	-0.026970
H71	H	2.330755	-0.164217	0.141695
H72	H	2.188457	-0.069101	-0.109628
H73	H	2.149250	-0.069035	0.059032
H74	H	1.907891	-0.267539	0.019982
H75	H	1.917451	-0.426006	0.016391
O76	O	1.610426	0.128252	0.186848
C77	C	1.624756	0.129376	0.025803
H78	H	1.747091	0.168209	0.017665
H79	H	1.613042	0.054716	-0.022229
C80	C	1.340725	0.131304	-0.064243
C81	C	1.490974	0.179007	-0.074240
H82	H	1.258199	0.161914	-0.125958
H83	H	1.331068	0.130543	0.044255
H84	H	1.330986	0.069090	-0.104267
H85	H	1.500719	0.241215	-0.034198
H86	H	1.500629	0.179779	-0.182734
