data_functionalizedCrystal
_audit_creation_method	'MofGen! by Chris Wilmer'
_symmetry_space_group_name_H-M	'P1'
_symmetry_Int_Tables_number	1
_symmetry_cell_setting	triclinic
loop_
_symmetry_equiv_pos_as_xyz
  x,y,z
_cell_length_a	23.532407
_cell_length_b	23.532407
_cell_length_c	22.010155
_cell_angle_alpha	89.993714
_cell_angle_beta	89.996412
_cell_angle_gamma	82.848678
loop_
_atom_site_label
_atom_site_type_symbol
_atom_site_fract_x
_atom_site_fract_y
_atom_site_fract_z
O1	O	-0.755259	-0.069122	-0.050455
O2	O	-0.589395	-0.079125	-0.050474
O3	O	-0.677329	0.008808	-0.050453
O4	O	-0.667326	-0.157055	-0.050476
O5	O	-0.677323	0.008785	0.050597
O6	O	-0.589389	-0.079148	0.050576
O7	O	-0.755253	-0.069145	0.050595
Cu8	Cu	-0.672320	-0.074149	0.059812
Cu9	Cu	-0.672328	-0.074121	-0.059691
O10	O	-0.667319	-0.157078	0.050574
C11	C	-0.568176	-0.078882	0.000049
C12	C	-0.504959	-0.078116	0.000042
C13	C	-0.677071	0.030013	0.000074
C14	C	-0.676305	0.093230	0.000078
C15	C	-0.776472	-0.069388	0.000071
C16	C	-0.839689	-0.070154	0.000073
C17	C	-0.105856	-0.125350	0.000063
C18	C	-0.046456	-0.124638	0.000067
O19	O	-0.009711	-0.168424	0.000083
N20	N	-0.023830	-0.072362	0.000073
C21	C	-0.060607	-0.020794	0.000082
O22	O	-0.035908	0.023737	0.000088
C23	C	-0.120006	-0.021506	0.000082
C24	C	-0.142629	-0.073785	0.000070
C25	C	-0.128479	-0.177625	0.000051
C26	C	-0.187876	-0.178336	0.000046
C27	C	-0.224649	-0.126772	0.000053
C28	C	-0.202025	-0.074497	0.000065
C29	C	-0.156783	0.030062	0.000096
C30	C	-0.216185	0.029345	0.000097
C31	C	-0.238808	-0.022934	0.000084
C32	C	-0.298194	-0.023643	0.000067
N33	N	-0.320820	-0.075920	0.000061
C34	C	-0.284048	-0.127484	0.000054
C35	C	0.064135	-0.019302	0.000082
C36	C	0.123533	-0.018589	0.000077
C37	C	0.137680	-0.122434	0.000063
C38	C	0.078281	-0.123146	0.000064
C39	C	0.041509	-0.071578	0.000076
C40	C	-0.408784	-0.128974	0.000043
C41	C	-0.468186	-0.129680	0.000035
C42	C	-0.482329	-0.025836	0.000052
C43	C	-0.422932	-0.025129	0.000057
C44	C	-0.386160	-0.076702	0.000054
O45	O	-0.334974	0.020119	0.000054
O46	O	-0.308755	-0.172007	0.000055
C47	C	-0.667577	-0.178283	0.000046
C48	C	-0.668343	-0.241500	0.000037
N49	N	-0.672319	-0.074167	0.143865
C50	C	-0.723539	0.492333	0.000050
C51	C	-0.722827	0.551733	0.000046
O52	O	-0.766613	0.588478	0.000028
N53	N	-0.670551	0.574359	0.000040
C54	C	-0.618983	0.537582	0.000033
O55	O	-0.574452	0.562281	0.000027
C56	C	-0.619695	0.478182	0.000033
C57	C	-0.671974	0.455560	0.000045
C58	C	-0.775814	0.469710	0.000061
C59	C	-0.776525	0.410313	0.000067
C60	C	-0.724961	0.373540	0.000062
C61	C	-0.672685	0.396164	0.000051
C62	C	-0.568127	0.441406	0.000022
C63	C	-0.568844	0.382004	0.000022
C64	C	-0.621123	0.359381	0.000034
C65	C	-0.621832	0.299995	0.000052
N66	N	-0.674109	0.277368	0.000057
C67	C	-0.725673	0.314141	0.000062
C68	C	-0.617491	0.662324	0.000031
C69	C	-0.616778	0.721722	0.000035
C70	C	-0.720623	0.735869	0.000047
C71	C	-0.721335	0.676470	0.000047
C72	C	-0.669767	0.639698	0.000037
C73	C	-0.727163	0.189405	0.000075
C74	C	-0.727869	0.130003	0.000083
C75	C	-0.624025	0.115860	0.000069
C76	C	-0.623318	0.175257	0.000064
C77	C	-0.674891	0.212029	0.000065
O78	O	-0.578070	0.263215	0.000067
O79	O	-0.770196	0.289433	0.000060
N80	N	-0.672333	-0.074098	-0.143744
C81	C	-0.633369	-0.113059	0.436467
C82	C	-0.633368	-0.113064	0.372860
O83	O	-0.600234	-0.146155	0.339960
N84	N	-0.672315	-0.074146	0.341049
C85	C	-0.711262	-0.035216	0.372849
O86	O	-0.744389	-0.002113	0.339951
C87	C	-0.711261	-0.035209	0.436455
C88	C	-0.672315	-0.074133	0.468263
C89	C	-0.594426	-0.151980	0.468275
C90	C	-0.594429	-0.151976	0.531878
C91	C	-0.633374	-0.113050	0.563674
C92	C	-0.672317	-0.074129	0.531866
C93	C	-0.750205	0.003723	0.468254
C94	C	-0.750199	0.003728	0.531865
C95	C	-0.711253	-0.035197	0.563673
C96	C	-0.711265	-0.035198	0.627265
N97	N	-0.672318	-0.074117	0.659076
C98	C	-0.633372	-0.113043	0.627280
C99	C	-0.711262	-0.035234	0.239271
C100	C	-0.711267	-0.035243	0.175666
C101	C	-0.633372	-0.113091	0.175681
C102	C	-0.633370	-0.113084	0.239288
C103	C	-0.672315	-0.074152	0.271082
C104	C	-0.633381	-0.113030	0.760852
C105	C	-0.633388	-0.113024	0.824460
C106	C	-0.711281	-0.035174	0.824440
C107	C	-0.711276	-0.035183	0.760836
C108	C	-0.672321	-0.074113	0.729044
O109	O	-0.744380	-0.002123	0.660205
O110	O	-0.600246	-0.146135	0.660186
H111	H	-0.486602	-0.172255	0.000025
H112	H	-0.378851	-0.170970	0.000042
C113	C	-0.313522	0.074373	0.000104
C114	C	-0.256606	0.086032	0.000108
H115	H	-0.338473	0.109369	0.000114
H116	H	-0.320345	0.052938	-0.035137
H117	H	-0.320348	0.052914	0.035340
H118	H	-0.249779	0.107488	-0.035130
H119	H	-0.249779	0.107476	0.035354
H120	H	-0.601674	-0.144723	0.850356
H121	H	-0.601660	-0.144786	0.149782
C122	C	-0.098205	0.091096	0.052059
C123	C	-0.131923	0.087528	0.000112
H124	H	-0.082855	0.126574	0.052066
H125	H	-0.121085	0.088647	0.087289
H126	H	-0.067800	0.060489	0.052046
H127	H	-0.162330	0.118133	0.000127
H128	H	-0.109041	0.089982	-0.035127
C129	C	-0.520909	0.526166	-0.000000
C130	C	-0.510659	0.466263	0.000002
H131	H	-0.485428	0.541509	-0.000011
H132	H	-0.542129	0.538808	-0.035230
H133	H	-0.542116	0.538805	0.035247
H134	H	-0.489456	0.453623	-0.035247
H135	H	-0.489430	0.453615	0.035236
H136	H	-0.580748	0.193677	0.000071
C137	C	-0.620557	-0.190655	0.310831
C138	C	-0.590556	-0.155868	0.274246
H139	H	-0.594122	-0.217071	0.332407
H140	H	-0.643741	-0.167473	0.338874
H141	H	-0.644147	-0.211021	0.286021
H142	H	-0.566970	-0.135498	0.299057
H143	H	-0.567362	-0.179053	0.246200
H144	H	-0.206289	-0.220908	0.000036
H145	H	-0.781912	0.035432	0.557749
C146	C	-0.579018	0.018520	0.000061
C147	C	-0.567347	0.075432	0.000059
H148	H	-0.544027	-0.006439	0.000048
H149	H	-0.600459	0.011695	0.035303
H150	H	-0.600477	0.011706	-0.035174
H151	H	-0.545892	0.082247	0.035297
H152	H	-0.545897	0.082260	-0.035186
H153	H	-0.404512	0.017441	0.000058
C154	C	-0.569567	0.806488	0.000027
C155	C	-0.559311	0.746585	0.000030
H156	H	-0.534088	0.821835	0.000025
H157	H	-0.590781	0.819129	-0.035207
H158	H	-0.590781	0.819125	0.035270
H159	H	-0.538101	0.733948	-0.035215
H160	H	-0.538088	0.733939	0.035268
C161	C	-0.620572	-0.190615	0.689347
C162	C	-0.590565	-0.155825	0.725910
H163	H	-0.594141	-0.217034	0.667774
H164	H	-0.644159	-0.210973	0.714167
H165	H	-0.643759	-0.167432	0.661296
H166	H	-0.567381	-0.179008	0.753964
H167	H	-0.566968	-0.135466	0.701088
C168	C	-0.837577	0.351737	-0.051875
C169	C	-0.833993	0.385452	0.000070
H170	H	-0.873057	0.336390	-0.051872
H171	H	-0.835138	0.374618	-0.087106
H172	H	-0.806972	0.321330	-0.051869
H173	H	-0.864596	0.415861	0.000062
H174	H	-0.836438	0.362569	0.035311
C175	C	-0.788261	0.041705	0.182056
C176	C	-0.754081	0.007541	0.140707
H177	H	-0.814689	0.068123	0.160474
H178	H	-0.808608	0.018102	0.206868
H179	H	-0.764665	0.062069	0.206861
H180	H	-0.777676	-0.012827	0.115905
H181	H	-0.733732	0.031147	0.115885
C182	C	-0.120478	-0.280338	0.000026
C183	C	-0.088064	-0.234311	0.000038
H184	H	-0.095529	-0.315336	0.000011
H185	H	-0.143937	-0.278463	0.035265
H186	H	-0.143944	-0.278434	-0.035212
H187	H	-0.064601	-0.236213	0.035279
H188	H	-0.064596	-0.236187	-0.035204
H189	H	0.167632	-0.164421	0.000060
H190	H	-0.770443	0.111587	0.000094
H191	H	-0.575496	0.632386	0.000028
H192	H	-0.526850	0.352066	0.000013
C193	C	-0.864118	0.500048	-0.051868
C194	C	-0.832502	0.510123	0.000070
H195	H	-0.899118	0.524993	-0.051856
H196	H	-0.842676	0.506891	-0.087104
H197	H	-0.872008	0.461429	-0.051862
H198	H	-0.824607	0.548741	0.000061
H199	H	-0.853948	0.503285	0.035315
H200	H	-0.769159	0.219337	0.000073
C201	C	0.019702	-0.184186	-0.051896
C202	C	0.053420	-0.180614	0.000051
H203	H	0.004360	-0.219668	-0.051904
H204	H	-0.010702	-0.153587	-0.051884
H205	H	0.042585	-0.181736	-0.087130
H206	H	0.030535	-0.183060	0.035286
H207	H	0.083828	-0.211222	0.000045
C208	C	-0.490361	0.076883	0.000066
C209	C	-0.522756	0.030842	0.000058
H210	H	-0.515322	0.111873	0.000068
H211	H	-0.466903	0.074995	0.035304
H212	H	-0.466895	0.075009	-0.035174
H213	H	-0.546220	0.032714	0.035300
H214	H	-0.546224	0.032731	-0.035183
C215	C	-0.823346	0.743902	0.000056
C216	C	-0.777306	0.776298	0.000048
H217	H	-0.858336	0.768863	0.000061
H218	H	-0.821468	0.720444	-0.035179
H219	H	-0.821462	0.720437	0.035298
H220	H	-0.779187	0.799760	-0.035197
H221	H	-0.779185	0.799767	0.035287
C222	C	-0.782386	0.617890	-0.051892
C223	C	-0.778801	0.651604	0.000054
H224	H	-0.817863	0.602539	-0.051886
H225	H	-0.779952	0.640774	-0.087123
H226	H	-0.751777	0.587487	-0.051890
H227	H	-0.809407	0.682010	0.000049
H228	H	-0.781240	0.628719	0.035294
H229	H	-0.562714	-0.183670	0.557772
C230	C	0.182117	0.042475	-0.051864
C231	C	0.148394	0.038879	0.000081
H232	H	0.197460	0.077957	-0.051860
H233	H	0.212521	0.011875	-0.051861
H234	H	0.159236	0.040042	-0.087099
H235	H	0.171276	0.041308	0.035317
H236	H	0.117986	0.069487	0.000084
H237	H	-0.562710	-0.183678	0.442393
H238	H	0.034198	0.022693	0.000086
C239	C	-0.810058	-0.001212	0.844036
C240	C	-0.754084	0.007618	0.859395
H241	H	-0.836478	0.025209	0.865619
H242	H	-0.815631	0.004357	0.801608
H243	H	-0.816026	-0.039189	0.854475
H244	H	-0.748114	0.045594	0.848952
H245	H	-0.748509	0.002054	0.901832
C246	C	-0.788929	-0.022540	0.689414
C247	C	-0.754173	0.007557	0.725921
H248	H	-0.815437	0.003837	0.667881
H249	H	-0.765739	-0.045671	0.661334
H250	H	-0.809190	-0.046191	0.714271
H251	H	-0.733909	0.031204	0.701063
H252	H	-0.777366	0.030697	0.754005
C253	C	-0.724078	0.042356	0.310776
C254	C	-0.754080	0.007559	0.274217
H255	H	-0.750512	0.068776	0.332344
H256	H	-0.700891	0.019182	0.338826
H257	H	-0.700491	0.062717	0.285949
H258	H	-0.777664	-0.012806	0.299044
H259	H	-0.777277	0.030736	0.246164
C260	C	-0.827184	0.080683	0.474656
C261	C	-0.793011	0.046516	0.433303
H262	H	-0.853609	0.107106	0.453077
H263	H	-0.847534	0.057082	0.499467
H264	H	-0.803583	0.101041	0.499461
H265	H	-0.816612	0.026155	0.408500
H266	H	-0.772659	0.070121	0.408481
