data_functionalizedCrystal
_audit_creation_method	'MofGen! by Chris Wilmer'
_symmetry_space_group_name_H-M	'P1'
_symmetry_Int_Tables_number	1
_symmetry_cell_setting	triclinic
loop_
_symmetry_equiv_pos_as_xyz
  x,y,z
_cell_length_a	10.968094
_cell_length_b	10.065875
_cell_length_c	11.026607
_cell_angle_alpha	79.268236
_cell_angle_beta	83.620158
_cell_angle_gamma	93.118877
loop_
_atom_site_label
_atom_site_type_symbol
_atom_site_fract_x
_atom_site_fract_y
_atom_site_fract_z
O1	O	1.659111	0.276673	-0.213673
O2	O	1.309831	0.194533	-0.217180
O3	O	1.455522	0.228800	-0.037464
O4	O	1.513419	0.242406	-0.393389
O5	O	1.427772	0.449262	-0.071877
O6	O	1.282081	0.414995	-0.251593
O7	O	1.631360	0.497135	-0.248086
Zn8	Zn	1.452315	0.491068	-0.255304
Zn9	Zn	1.488877	0.200600	-0.209962
O10	O	1.485669	0.462868	-0.427802
C11	C	1.250545	0.294085	-0.231533
C12	C	1.115233	0.262263	-0.223014
C13	C	0.900672	0.329384	-0.228226
C14	C	1.040523	0.362287	-0.237041
C15	C	1.430966	0.336518	-0.008976
C16	C	1.399127	0.329025	0.127180
C17	C	1.690646	0.397581	-0.233733
C18	C	1.825959	0.429393	-0.242250
N19	N	1.427371	0.689307	-0.286247
N20	N	1.513828	0.002363	-0.179009
C21	C	1.480189	0.769509	-0.220721
C22	C	1.461002	0.922163	-0.244546
C23	C	1.510225	0.355147	-0.456290
C24	C	1.542065	0.362631	-0.592444
C25	C	1.487042	0.349698	0.197007
C26	C	1.454137	0.341955	0.337731
H27	H	1.075669	0.152275	-0.204482
H28	H	0.861099	0.219404	-0.209686
H29	H	1.586670	0.373136	0.152605
H30	H	1.573250	0.958019	-0.105261
H31	H	1.401570	0.966505	-0.318284
O32	O	1.356371	0.742329	-0.374071
C33	C	1.257046	0.801617	-0.317684
H34	H	1.281803	0.828694	-0.227089
H35	H	1.172179	0.726693	-0.297213
C36	C	1.199342	0.897758	-0.517394
C37	C	1.229753	0.931025	-0.406128
H38	H	1.182501	0.977579	-0.571952
H39	H	1.266256	0.857811	-0.555384
H40	H	1.128623	0.835318	-0.500318
H41	H	1.300479	0.993450	-0.423204
H42	H	1.162850	0.970986	-0.368144
H43	H	1.080088	0.472274	-0.255568
H44	H	1.539607	0.725160	-0.146977
O45	O	1.335327	0.314070	0.390873
C46	C	1.328924	0.312521	0.519552
H47	H	1.411978	0.375027	0.538643
H48	H	1.328702	0.203569	0.571913
C49	C	1.108029	0.296802	0.540146
C50	C	1.210033	0.373582	0.563592
H51	H	1.034690	0.334462	0.567315
H52	H	1.112342	0.297840	0.453454
H53	H	1.107861	0.206013	0.583782
H54	H	1.210208	0.464364	0.519945
H55	H	1.205718	0.372561	0.650279
O56	O	1.660910	0.390399	0.354494
C57	C	1.698941	0.281767	0.298899
H58	H	1.614872	0.222803	0.277457
H59	H	1.750576	0.211591	0.365356
C60	C	1.887550	0.409972	0.203699
C61	C	1.784296	0.337558	0.177353
H62	H	1.940206	0.444384	0.128727
H63	H	1.861932	0.483158	0.241158
H64	H	1.930565	0.351480	0.259083
H65	H	1.741275	0.396054	0.121984
H66	H	1.809909	0.264383	0.139882
H67	H	1.299500	0.305587	0.171582
O68	O	0.873285	0.560546	-0.264189
C69	C	0.936712	0.582786	-0.164467
H70	H	0.965713	0.482151	-0.114213
H71	H	0.873861	0.629135	-0.096814
C72	C	1.016103	0.804015	-0.276534
C73	C	1.051731	0.680414	-0.214817
H74	H	1.087049	0.864241	-0.307590
H75	H	0.973367	0.789035	-0.343717
H76	H	0.963725	0.842621	-0.220146
H77	H	1.104095	0.641802	-0.271209
H78	H	1.094478	0.695390	-0.147644
