data_functionalizedCrystal
_audit_creation_method	'MofGen! by Chris Wilmer'
_symmetry_space_group_name_H-M	'P1'
_symmetry_Int_Tables_number	1
_symmetry_cell_setting	triclinic
loop_
_symmetry_equiv_pos_as_xyz
  x,y,z
_cell_length_a	10.723024
_cell_length_b	9.730217
_cell_length_c	10.723024
_cell_angle_alpha	90.002100
_cell_angle_beta	84.467869
_cell_angle_gamma	90.001111
loop_
_atom_site_label
_atom_site_type_symbol
_atom_site_fract_x
_atom_site_fract_y
_atom_site_fract_z
O1	O	1.657183	0.114277	0.175025
O2	O	1.294031	0.114282	0.191778
O3	O	1.483984	0.114274	0.001826
O4	O	1.467230	0.114285	0.364978
O5	O	1.483978	-0.114306	0.001824
O6	O	1.294025	-0.114298	0.191777
O7	O	1.657177	-0.114303	0.175023
Zn8	Zn	1.475600	-0.150593	0.183400
Zn9	Zn	1.475608	0.150571	0.183402
O10	O	1.467224	-0.114295	0.364976
C11	C	1.247528	-0.000008	0.190558
C12	C	1.108974	-0.000006	0.186911
N13	N	1.475604	-0.356129	0.183397
C14	C	1.033991	-0.000002	0.293198
C15	C	0.890788	-0.000001	0.289431
C16	C	1.643876	-0.356126	0.015244
C17	C	1.728021	-0.428065	-0.068830
C18	C	1.728034	-0.571945	-0.068830
C19	C	1.643890	-0.643889	0.015249
C20	C	1.559746	-0.571951	0.099322
C21	C	1.559745	-0.428068	0.099316
C22	C	1.391469	-0.571954	0.267468
C23	C	1.391460	-0.428074	0.267477
C24	C	1.307326	-0.643898	0.351547
C25	C	1.223185	-0.571960	0.435628
C26	C	1.223177	-0.428071	0.435626
C27	C	1.307316	-0.356135	0.351550
C28	C	1.703680	-0.000010	0.176243
C29	C	1.842234	-0.000003	0.179891
C30	C	1.482762	-0.000014	-0.044675
C31	C	1.479114	-0.000009	-0.183229
N32	N	1.475614	0.356108	0.183395
C33	C	1.585401	-0.000009	-0.258212
C34	C	1.581634	-0.000004	-0.401415
C35	C	1.468447	-0.000004	0.411477
C36	C	1.472094	0.000000	0.550031
H37	H	1.075814	-0.000007	0.386984
H38	H	1.679187	-0.000018	-0.216390
H39	H	1.672624	-0.000009	-0.465848
Br40	Br	0.783404	0.000022	0.441098
H41	H	1.796547	-0.630517	-0.137294
Br42	Br	1.643888	-0.160859	0.015256
Br43	Br	0.949611	0.000008	0.028219
H44	H	1.381099	-0.000010	-0.385544
Br45	Br	1.322788	0.000012	-0.252921
H46	H	1.067152	0.000026	0.093125
H47	H	1.643896	-0.761044	0.015233
H48	H	1.796528	-0.369475	-0.137289
H49	H	1.307334	-0.761053	0.351538
Br50	Br	1.307320	-0.160868	0.351548
H51	H	1.154676	-0.630546	0.504074
H52	H	1.154651	-0.369506	0.504084
