data_functionalizedCrystal
_audit_creation_method	'MofGen! by Chris Wilmer'
_symmetry_space_group_name_H-M	'P1'
_symmetry_Int_Tables_number	1
_symmetry_cell_setting	triclinic
loop_
_symmetry_equiv_pos_as_xyz
  x,y,z
_cell_length_a	19.077409
_cell_length_b	19.077068
_cell_length_c	12.759393
_cell_angle_alpha	87.738768
_cell_angle_beta	87.729585
_cell_angle_gamma	94.533134
loop_
_atom_site_label
_atom_site_type_symbol
_atom_site_fract_x
_atom_site_fract_y
_atom_site_fract_z
Zn1	Zn	1.066438	-0.237283	0.544523
Zn2	Zn	1.566438	0.262717	1.044523
Zn3	Zn	1.061604	-0.355193	0.376182
Zn4	Zn	1.561604	0.144807	0.876182
Zn5	Zn	0.948546	-0.242060	0.376184
Zn6	Zn	1.448546	0.257940	0.876184
Zn7	Zn	0.943779	-0.359876	0.559136
Zn8	Zn	1.443779	0.140124	1.059136
O9	O	1.005092	-0.298603	0.464007
O10	O	1.505092	0.201397	0.964007
O11	O	1.164445	-0.248966	0.516076
O12	O	1.664445	0.251034	1.016076
O13	O	1.046579	-0.340225	0.229166
O14	O	1.546579	0.159775	0.729166
O15	O	0.968202	-0.142774	0.392400
O16	O	1.468202	0.357226	0.892400
O17	O	1.160894	-0.335594	0.392397
O18	O	1.660894	0.164406	0.892397
O19	O	1.054817	-0.139265	0.516078
O20	O	1.554817	0.360735	1.016078
O21	O	0.963515	-0.257106	0.229167
O22	O	1.463515	0.242894	0.729167
O23	O	0.849265	-0.261647	0.406569
O24	O	1.349265	0.238353	0.906569
O25	O	0.960078	-0.343574	0.704215
O26	O	1.460078	0.156426	1.204215
O27	O	0.845763	-0.348206	0.540983
O28	O	1.345763	0.151794	1.040983
O29	O	1.050195	-0.253506	0.693479
O30	O	1.550195	0.246494	1.193479
O31	O	1.041956	-0.454466	0.406566
O32	O	1.541956	0.045534	0.906566
O33	O	0.955391	-0.457907	0.540981
O34	O	1.455391	0.042093	1.040981
C35	C	0.821935	-0.305953	0.475363
C36	C	1.321935	0.194047	0.975363
C37	C	0.743579	-0.309115	0.480247
C38	C	1.243579	0.190885	0.980247
C39	C	0.302326	-0.331733	0.515324
C40	C	0.802326	0.168267	1.015324
C41	C	0.375949	-0.328768	0.510715
C42	C	0.875949	0.171232	1.010715
C43	C	0.414564	-0.282146	0.438536
C44	C	0.914564	0.217854	0.938536
C45	C	0.379552	-0.238492	0.370954
C46	C	0.879552	0.261508	0.870954
C47	C	0.305930	-0.241461	0.375558
C48	C	0.805930	0.258539	0.875558
C49	C	0.634945	-0.268429	0.417269
C50	C	1.134945	0.231571	0.917269
C51	C	0.708572	-0.265462	0.412672
C52	C	1.208572	0.234538	0.912672
C53	C	0.704964	-0.355739	0.552433
C54	C	1.204964	0.144261	1.052433
C55	C	0.631341	-0.358701	0.557035
C56	C	1.131341	0.141299	1.057035
C57	C	0.596335	-0.315050	0.489449
C58	C	1.096335	0.184950	0.989449
N59	N	0.489819	-0.279113	0.433826
N60	N	0.989819	0.220887	0.933826
N61	N	0.521081	-0.318087	0.494154
N62	N	1.021081	0.181913	0.994154
C63	C	0.997651	-0.481765	0.475381
C64	C	1.497651	0.018235	0.975381
C65	C	0.994532	-0.560120	0.480278
C66	C	1.494532	-0.060120	0.980278
C67	C	1.038172	-0.595116	0.412649
C68	C	1.538172	-0.095116	0.912649
C69	C	1.035243	-0.668738	0.417261
C70	C	1.535243	-0.168738	0.917261
C71	C	0.988670	-0.707365	0.489497
C72	C	1.488670	-0.207365	0.989497
C73	C	0.945028	-0.672364	0.557133
C74	C	1.445028	-0.172364	1.057133
C75	C	0.947961	-0.598742	0.552525
C76	C	1.447961	-0.098742	1.052525
C77	C	0.975064	-0.927744	0.510781
C78	C	1.475064	-0.427744	1.010781
C79	C	0.972132	-1.001371	0.515381
C80	C	1.472132	-0.501371	1.015381
C81	C	1.062348	-0.997740	0.375510
C82	C	1.562348	-0.497740	0.875510
C83	C	1.065275	-0.924118	0.370905
C84	C	1.565275	-0.424118	0.870905
C85	C	1.021635	-0.889123	0.438544
C86	C	1.521635	-0.389123	0.938544
N87	N	0.985673	-0.782619	0.494211
N88	N	1.485673	-0.282619	0.994211
N89	N	1.024636	-0.813870	0.433835
N90	N	1.524636	-0.313870	0.933835
C91	C	1.188963	-0.291224	0.452607
C92	C	1.688963	0.208776	0.952607
C93	C	1.267319	-0.288080	0.447749
C94	C	1.767319	0.211920	0.947749
C95	C	1.005144	-0.298530	0.738032
C96	C	1.505144	0.201470	1.238032
C97	C	1.005166	-0.298499	0.854806
C98	C	1.505166	0.201501	1.354806
C99	C	1.012581	-0.114725	0.452610
C100	C	1.512581	0.385275	0.952610
C101	C	1.015772	-0.036367	0.447753
C102	C	1.515772	0.463633	0.947753
C103	C	1.005082	-0.298623	0.191041
C104	C	1.505082	0.201377	0.691041
C105	C	1.005205	-0.298450	0.074247
C106	C	1.505205	0.201550	0.574247
C107	C	1.052097	-0.251596	0.904079
C108	C	1.552097	0.248404	1.404079
C109	C	1.052114	-0.251569	1.013801
C110	C	1.552114	0.248431	1.513801
C111	C	0.958269	-0.345356	1.024967
C112	C	1.458269	0.154644	1.524967
C113	C	0.958248	-0.345378	0.915247
C114	C	1.458248	0.154622	1.415247
C115	C	1.106280	-0.197451	0.897633
C116	C	1.606280	0.302549	1.397633
C117	C	1.106297	-0.197425	1.007355
C118	C	1.606297	0.302575	1.507355
H119	H	0.270891	-0.369694	0.574106
H120	H	0.770891	0.130306	1.074106
Br121	Br	0.908910	-1.053793	0.613405
Br122	Br	1.408910	-0.553793	1.113405
Br123	Br	1.121573	-1.045236	0.283724
Br124	Br	1.621573	-0.545236	0.783724
Br125	Br	0.431957	-0.175222	0.272989
Br126	Br	0.931957	0.324778	0.772989
H127	H	0.404449	-0.364316	0.565740
H128	H	0.904449	0.135684	1.065740
H129	H	0.599905	-0.396667	0.615809
H130	H	1.099905	0.103333	1.115809
Br131	Br	1.191377	-0.226596	0.837557
Br132	Br	1.691377	0.273404	1.337557
H133	H	0.733474	-0.391279	0.607457
H134	H	1.233474	0.108721	1.107457
Br135	Br	0.894597	-0.408973	1.107000
Br136	Br	1.394597	0.091027	1.607000
Br137	Br	0.915839	-0.880261	0.602578
Br138	Br	1.415839	-0.380261	1.102578
Br139	Br	0.894541	-0.409021	0.848379
Br140	Br	1.394541	0.090979	1.348379
H141	H	1.088858	-0.146336	1.039388
H142	H	1.588858	0.353664	1.539388
Br143	Br	1.101375	-0.542702	0.314600
Br144	Br	1.601375	-0.042702	0.814600
Br145	Br	0.258419	-0.182221	0.283837
Br146	Br	0.758419	0.317779	0.783837
H147	H	0.907110	-0.703819	0.615954
H148	H	1.407110	-0.203819	1.115954
H149	H	1.160305	-0.209852	1.034653
H150	H	1.660305	0.290148	1.534653
Br151	Br	0.760978	-0.202187	0.314706
Br152	Br	1.260978	0.297813	0.814706
H153	H	0.606452	-0.232888	0.362231
H154	H	1.106452	0.267112	0.862231
Br155	Br	1.094476	-0.716230	0.325481
Br156	Br	1.594476	-0.216230	0.825481
H157	H	1.103198	-0.892669	0.312085
H158	H	1.603198	-0.392669	0.812085
H159	H	0.912426	-0.570250	0.607597
H160	H	1.412426	-0.070250	1.107597
Br161	Br	1.085612	-0.107437	0.843878
Br162	Br	1.585612	0.392563	1.343878
