data_functionalizedCrystal
_audit_creation_method	'MofGen! by Chris Wilmer'
_symmetry_space_group_name_H-M	'P1'
_symmetry_Int_Tables_number	1
_symmetry_cell_setting	triclinic
loop_
_symmetry_equiv_pos_as_xyz
  x,y,z
_cell_length_a	10.868271
_cell_length_b	16.109301
_cell_length_c	16.109301
_cell_angle_alpha	96.538519
_cell_angle_beta	90.006558
_cell_angle_gamma	89.998402
loop_
_atom_site_label
_atom_site_type_symbol
_atom_site_fract_x
_atom_site_fract_y
_atom_site_fract_z
O1	O	0.102248	-1.103132	0.106868
O2	O	0.102268	-0.861070	0.120167
O3	O	0.102245	-0.988750	-0.007514
O4	O	0.102271	-0.975451	0.234548
O5	O	-0.102399	-0.988740	-0.007519
O6	O	-0.102376	-0.861059	0.120162
O7	O	-0.102396	-1.103121	0.106863
Zn8	Zn	-0.134878	-0.982088	0.113512
Zn9	Zn	0.134750	-0.982102	0.113518
O10	O	-0.102373	-0.975440	0.234543
C11	C	-0.000051	-0.830090	0.119626
C12	C	-0.000044	-0.737794	0.118011
N13	N	-0.318892	-0.982085	0.113507
C14	C	-0.000078	-0.988206	-0.038491
C15	C	-0.000079	-0.986591	-0.130786
C16	C	-0.569898	-0.982098	0.113516
C17	C	-0.430221	-0.982088	0.113513
N18	N	0.318764	-0.982112	0.113516
C19	C	-0.000074	-1.134101	0.107404
C20	C	-0.000073	-1.226397	0.109019
C21	C	-0.000051	-0.515522	0.190018
C22	C	-0.000059	-0.428801	0.188494
C23	C	-0.000070	-0.448676	0.037006
C24	C	-0.000071	-0.535394	0.038530
C25	C	-0.000055	-0.568815	0.115039
C26	C	-0.000062	-0.395376	0.111990
C27	C	-0.000071	-0.301350	0.110337
C28	C	-0.000048	-0.662847	0.116693
C29	C	-0.000066	-1.058599	-0.353059
C30	C	-0.000055	-1.057075	-0.439779
C31	C	-0.000048	-0.905586	-0.419905
C32	C	-0.000049	-0.907111	-0.333186
C33	C	-0.000064	-0.983620	-0.299766
C34	C	-0.000053	-0.980571	-0.473205
C35	C	-0.000042	-0.978918	-0.567231
C36	C	-0.000073	-0.985273	-0.205734
C37	C	-0.000048	-0.975984	0.265521
C38	C	-0.000038	-0.977600	0.357816
H39	H	-0.000047	-0.542730	0.252317
Cl40	Cl	-0.000055	-1.151339	-0.506773
Cl41	Cl	-0.000055	-0.361807	0.282758
Cl42	Cl	-0.000029	-0.809409	-0.461926
Cl43	Cl	-0.000037	-0.812844	-0.266184
H44	H	-0.000090	-0.421454	-0.025285
H45	H	-0.000075	-1.120897	-0.325851
Cl46	Cl	-0.000086	-0.602397	-0.055737
