data_functionalizedCrystal
_audit_creation_method	'MofGen! by Chris Wilmer'
_symmetry_space_group_name_H-M	'P1'
_symmetry_Int_Tables_number	1
_symmetry_cell_setting	triclinic
loop_
_symmetry_equiv_pos_as_xyz
  x,y,z
_cell_length_a	23.532407
_cell_length_b	10.654550
_cell_length_c	9.130313
_cell_angle_alpha	90.003780
_cell_angle_beta	89.994125
_cell_angle_gamma	96.333210
loop_
_atom_site_label
_atom_site_type_symbol
_atom_site_fract_x
_atom_site_fract_y
_atom_site_fract_z
O1	O	0.079982	-1.665300	-0.121936
O2	O	0.087603	-1.299580	-0.121914
O3	O	0.000933	-1.493468	-0.121899
O4	O	0.166652	-1.471412	-0.121952
O5	O	0.000935	-1.493466	0.121700
O6	O	0.087605	-1.299578	0.121684
O7	O	0.079985	-1.665298	0.121662
Cu8	Cu	0.083795	-1.482437	0.143916
Cu9	Cu	0.083792	-1.482440	-0.144168
O10	O	0.166655	-1.471409	0.121647
C11	C	0.087044	-1.252799	-0.000112
C12	C	0.085370	-1.113408	-0.000102
C13	C	-0.020286	-1.492905	-0.000096
C14	C	-0.083514	-1.491217	-0.000085
N15	N	0.083797	-1.482445	0.346539
C16	C	-0.481938	-1.595364	-0.000171
C17	C	-0.541349	-1.593795	-0.000182
O18	O	-0.577464	-1.690341	-0.000242
N19	N	-0.564726	-1.478529	-0.000174
C20	C	-0.528689	-1.364824	-0.000170
O21	O	-0.554029	-1.266636	-0.000166
C22	C	-0.469280	-1.366394	-0.000170
C23	C	-0.445906	-1.481668	-0.000163
C24	C	-0.458564	-1.710629	-0.000166
C25	C	-0.399158	-1.712197	-0.000152
C26	C	-0.363126	-1.598500	-0.000144
C27	C	-0.386500	-1.483236	-0.000149
C28	C	-0.433244	-1.252690	-0.000176
C29	C	-0.373832	-1.254270	-0.000177
C30	C	-0.350458	-1.369544	-0.000170
C31	C	-0.291061	-1.371107	-0.000127
N32	N	-0.267684	-1.486374	-0.000135
C33	C	-0.303716	-1.600070	-0.000143
C34	C	-0.653453	-1.361535	-0.000174
C35	C	-0.712861	-1.359964	-0.000164
C36	C	-0.725517	-1.588936	-0.000179
C37	C	-0.666108	-1.590506	-0.000178
C38	C	-0.630076	-1.476802	-0.000182
C39	C	-0.178958	-1.603355	-0.000113
C40	C	-0.119546	-1.604913	-0.000093
C41	C	-0.106896	-1.375942	-0.000086
C42	C	-0.166303	-1.374383	-0.000098
C43	C	-0.202333	-1.488100	-0.000117
O44	O	-0.254911	-1.274613	-0.000073
O45	O	-0.278369	-1.698241	-0.000167
C46	C	0.187873	-1.471972	-0.000159
C47	C	0.251101	-1.473661	-0.000180
C48	C	0.080543	-1.712079	-0.000143
C49	C	0.082217	-1.851469	-0.000163
C50	C	0.136400	-1.032306	-0.000140
C51	C	0.134824	-0.901335	-0.000165
C52	C	0.031183	-0.932582	-0.000121
C53	C	0.032760	-1.063550	-0.000085
C54	C	0.189010	-1.082164	-0.000157
C55	C	0.240045	-1.001060	-0.000196
C56	C	0.238468	-0.870089	-0.000221
C57	C	0.185858	-0.820222	-0.000206
N58	N	0.083786	-1.482443	-0.346791
C59	C	0.045432	-1.568320	0.423197
C60	C	0.045425	-1.568317	0.576534
C61	C	0.122152	-1.396559	0.576540
C62	C	0.122156	-1.396557	0.423206
C63	C	0.007073	-1.654207	0.346530
C64	C	-0.031294	-1.740090	0.423189
C65	C	-0.031301	-1.740087	0.576526
C66	C	0.007059	-1.654201	0.653204
H67	H	-0.100519	-1.698787	-0.000084
C68	C	0.164346	-1.302062	0.338877
N69	N	0.196119	-1.230874	0.275360
H70	H	0.280023	-0.804057	-0.000238
H71	H	-0.062529	-1.810010	0.360750
H72	H	-0.344497	-1.161675	-0.000182
C73	C	0.007050	-1.654203	0.821880
N74	N	0.007044	-1.654211	0.948925
H75	H	-0.731887	-1.266096	-0.000144
H76	H	-0.380133	-1.806065	-0.000153
H77	H	-0.008793	-1.129587	-0.000059
H78	H	0.153384	-1.326635	0.638981
H79	H	-0.208288	-1.695954	-0.000134
H80	H	0.007076	-1.654220	0.221675
H81	H	-0.624119	-1.268937	-0.000164
H82	H	-0.185334	-1.280517	-0.000063
C83	C	-0.498191	-1.835715	-0.000160
N84	N	-0.528035	-1.929939	-0.000139
H85	H	-0.647081	-1.684372	-0.000174
H86	H	-0.754865	-1.681514	-0.000191
H87	H	-0.452264	-1.158822	-0.000190
C88	C	0.190749	-1.226233	-0.000120
N89	N	0.192058	-1.334746	-0.000091
C90	C	0.297913	-1.055917	-0.000203
N91	N	0.341501	-1.097233	-0.000208
C92	C	0.184127	-0.676148	-0.000228
N93	N	0.182824	-0.567634	-0.000252
C94	C	-0.026684	-0.877722	-0.000119
N95	N	-0.070271	-0.836402	-0.000124
H96	H	-0.062544	-1.810008	0.638940
H97	H	-0.077548	-1.283373	-0.000074
