data_functionalizedCrystal
_audit_creation_method	'MofGen! by Chris Wilmer'
_symmetry_space_group_name_H-M	'P1'
_symmetry_Int_Tables_number	1
_symmetry_cell_setting	triclinic
loop_
_symmetry_equiv_pos_as_xyz
  x,y,z
_cell_length_a	10.654550
_cell_length_b	17.038272
_cell_length_c	9.730223
_cell_angle_alpha	89.995299
_cell_angle_beta	89.999957
_cell_angle_gamma	87.798243
loop_
_atom_site_label
_atom_site_type_symbol
_atom_site_fract_x
_atom_site_fract_y
_atom_site_fract_z
O1	O	1.678042	0.109878	-0.114188
O2	O	1.313535	0.120346	-0.114214
O3	O	1.493622	0.001285	-0.114190
O4	O	1.497955	0.228940	-0.114212
O5	O	1.493609	0.001281	0.114390
O6	O	1.313523	0.120343	0.114366
O7	O	1.678029	0.109875	0.114392
Zn8	Zn	1.495774	0.115108	0.150671
Zn9	Zn	1.495791	0.115113	-0.150493
O10	O	1.497942	0.228936	0.114368
C11	C	1.266660	0.119576	0.000073
C12	C	1.127003	0.117276	0.000064
C13	C	1.054026	0.187378	0.000061
C14	C	0.922805	0.185213	0.000085
C15	C	0.937548	0.042838	0.000109
C16	C	1.068767	0.045004	0.000095
C17	C	1.489675	-0.027867	0.000099
C18	C	1.477918	-0.114726	0.000098
C19	C	1.585862	-0.164237	0.000107
C20	C	1.574808	-0.245849	0.000093
C21	C	1.455808	-0.277949	0.000080
C22	C	1.347855	-0.228431	0.000067
C23	C	1.358911	-0.146820	0.000071
C24	C	1.416750	-0.523925	0.000059
C25	C	1.405702	-0.605542	0.000059
C26	C	1.632655	-0.622955	0.000082
C27	C	1.643701	-0.541341	0.000094
C28	C	1.535748	-0.491831	0.000074
C29	C	1.444505	-0.361369	0.000070
C30	C	1.547052	-0.408412	0.000074
C31	C	1.724905	0.110645	0.000102
C32	C	1.864561	0.112945	0.000102
C33	C	1.501889	0.258088	0.000076
C34	C	1.513646	0.344947	0.000068
N35	N	1.495771	0.115105	0.356207
N36	N	1.495802	0.115110	-0.356029
C37	C	1.575545	0.062407	0.428144
C38	C	1.575558	0.062407	0.572027
C39	C	1.416020	0.167810	0.572024
C40	C	1.416002	0.167806	0.428144
H41	H	1.682764	-0.138109	0.000126
C42	C	1.328246	0.225778	0.349001
C43	C	1.240559	0.283782	0.428120
C44	C	1.152805	0.341748	0.348975
C45	C	1.152737	0.341710	0.190713
C46	C	1.240428	0.283705	0.111585
C47	C	1.328182	0.225738	0.190730
H48	H	1.240606	0.283811	0.545283
H49	H	1.087891	0.384688	0.407551
H50	H	1.087776	0.384620	0.132125
H51	H	1.240381	0.283675	-0.005578
H52	H	1.393096	0.182799	0.132153
C53	C	1.693552	-0.300309	0.000107
C54	C	1.788671	-0.296278	0.118819
C55	C	1.907424	-0.350736	0.118830
C56	C	1.931057	-0.409225	0.000129
C57	C	1.835935	-0.413258	-0.118591
C58	C	1.717183	-0.358800	-0.118602
H59	H	1.771179	-0.252979	0.206696
H60	H	1.977839	-0.347750	0.206715
H61	H	2.018964	-0.449538	0.000138
H62	H	1.853427	-0.456556	-0.206468
H63	H	1.646768	-0.361785	-0.206487
C64	C	1.298000	-0.469474	0.000061
C65	C	1.202861	-0.473512	-0.118629
C66	C	1.084103	-0.419059	-0.118619
C67	C	1.060485	-0.360568	0.000081
C68	C	1.155627	-0.356528	0.118780
C69	C	1.274385	-0.410981	0.118770
H70	H	1.220342	-0.516812	-0.206506
H71	H	1.013672	-0.422049	-0.206489
H72	H	0.972573	-0.320258	0.000089
H73	H	1.138146	-0.313228	0.206657
H74	H	1.344816	-0.407991	0.206640
H75	H	1.101438	0.246227	0.000046
H76	H	0.863392	0.242297	0.000086
H77	H	1.643941	-0.382273	0.000054
H78	H	0.890116	-0.016004	0.000142
H79	H	1.740603	-0.515213	0.000105
H80	H	1.720544	-0.663274	0.000096
H81	H	1.128187	-0.012085	0.000101
H82	H	1.347615	-0.387514	0.000063
C83	C	1.663280	0.004431	0.349013
C84	C	1.663270	0.004422	0.190750
C85	C	1.751004	-0.053557	0.111624
C86	C	1.838747	-0.111527	0.190761
C87	C	1.838760	-0.111520	0.349032
C88	C	1.751026	-0.053541	0.428158
H89	H	1.598315	0.047337	0.132160
H90	H	1.750994	-0.053562	-0.005540
H91	H	1.903693	-0.154447	0.132187
H92	H	1.903715	-0.154435	0.407622
H93	H	1.751036	-0.053536	0.545322
H94	H	1.308794	-0.631674	0.000071
H95	H	1.250963	-0.254573	0.000048
H96	H	1.640515	0.019495	0.630593
H97	H	1.271011	-0.106509	0.000064
H98	H	1.351074	0.210719	0.630609
