data_functionalizedCrystal
_audit_creation_method	'MofGen! by Chris Wilmer'
_symmetry_space_group_name_H-M	'P1'
_symmetry_Int_Tables_number	1
_symmetry_cell_setting	triclinic
loop_
_symmetry_equiv_pos_as_xyz
  x,y,z
_cell_length_a	14.971482
_cell_length_b	16.109304
_cell_length_c	13.448316
_cell_angle_alpha	89.996206
_cell_angle_beta	89.993798
_cell_angle_gamma	83.537623
loop_
_atom_site_label
_atom_site_type_symbol
_atom_site_fract_x
_atom_site_fract_y
_atom_site_fract_z
O1	O	1.186794	0.108333	-0.082673
O2	O	0.926375	0.121311	-0.082677
O3	O	1.063737	-0.006200	-0.082675
O4	O	1.049432	0.235844	-0.082674
O5	O	1.063720	-0.006208	0.082709
O6	O	0.926358	0.121303	0.082707
O7	O	1.186777	0.108325	0.082711
Cu8	Cu	1.056566	0.114814	0.097810
Cu9	Cu	1.056586	0.114823	-0.097776
O10	O	1.049415	0.235836	0.082710
C11	C	0.893043	0.120727	0.000015
C12	C	0.793748	0.118990	0.000013
C13	C	0.747095	0.118167	0.090165
C14	C	0.653799	0.116521	0.090166
C15	C	0.607157	0.115704	0.000014
C16	C	0.653816	0.116524	-0.090145
C17	C	0.747112	0.118164	-0.090145
C18	C	0.459359	0.113108	-0.090138
C19	C	0.366057	0.111469	-0.090139
C20	C	0.366047	0.111465	0.090172
C21	C	0.459342	0.113105	0.090172
C22	C	0.505995	0.113927	0.000013
C23	C	1.063149	-0.037179	0.000015
C24	C	1.061410	-0.129477	0.000008
C25	C	1.057403	-0.341815	-0.090139
C26	C	1.055761	-0.428537	-0.090138
C27	C	1.055747	-0.428543	0.090172
C28	C	1.057382	-0.341821	0.090170
C29	C	1.058215	-0.298460	0.000011
C30	C	1.054938	-0.471904	0.000014
C31	C	1.053157	-0.565932	0.000016
C32	C	1.059993	-0.204426	0.000009
C33	C	1.220110	0.108909	0.000018
C34	C	1.319404	0.110647	0.000013
C35	C	1.050003	0.266816	0.000018
C36	C	1.051742	0.359113	0.000018
N37	N	1.056558	0.114806	0.235374
N38	N	1.056601	0.114823	-0.235340
C39	C	1.117401	0.058368	0.287415
C40	C	1.117407	0.058367	0.391519
C41	C	1.056573	0.114810	0.443579
C42	C	0.995724	0.171251	0.391531
C43	C	0.995714	0.171247	0.287429
C44	C	0.995748	0.171257	0.608511
C45	C	0.995758	0.171262	0.712619
C46	C	1.117441	0.058377	0.712600
C47	C	1.117431	0.058373	0.608499
C48	C	1.056583	0.114815	0.556458
H49	H	0.497315	0.113775	0.163582
H50	H	0.328083	0.110804	-0.163548
H51	H	1.166985	0.012419	0.754978
F52	F	1.182181	-0.001694	0.553092
H53	H	0.946220	0.217223	0.755001
F54	F	0.796763	0.119036	-0.186097
H55	H	0.497341	0.113777	-0.163556
F56	F	1.058286	-0.295669	-0.186094
H57	H	0.946196	0.217216	0.566142
H58	H	1.058038	-0.306520	0.163586
F59	F	0.930974	0.231319	0.446938
F60	F	1.054860	-0.474698	0.186120
F61	F	0.930954	0.231315	0.232045
H62	H	1.055098	-0.463832	-0.163548
H63	H	1.166942	0.012409	0.245035
F64	F	0.604177	0.115629	-0.186092
H65	H	1.166949	0.012410	0.433890
F66	F	0.796726	0.119042	0.186118
F67	F	0.316394	0.110590	0.186127
F68	F	0.604150	0.115657	0.186118
