data_functionalizedCrystal
_audit_creation_method	'MofGen! by Chris Wilmer'
_symmetry_space_group_name_H-M	'P1'
_symmetry_Int_Tables_number	1
_symmetry_cell_setting	triclinic
loop_
_symmetry_equiv_pos_as_xyz
  x,y,z
_cell_length_a	16.974829
_cell_length_b	10.489741
_cell_length_c	16.053802
_cell_angle_alpha	92.592148
_cell_angle_beta	83.771117
_cell_angle_gamma	83.967515
loop_
_atom_site_label
_atom_site_type_symbol
_atom_site_fract_x
_atom_site_fract_y
_atom_site_fract_z
O1	O	1.056776	0.151708	-0.140830
O2	O	1.556776	0.651708	0.359170
O3	O	0.825945	0.173611	-0.125236
O4	O	1.325945	0.673611	0.374764
O5	O	0.946612	-0.023052	-0.133383
O6	O	1.446612	0.476948	0.366617
O7	O	0.936108	0.348371	-0.132683
O8	O	1.436108	0.848371	0.367317
O9	O	0.939970	-0.012272	0.005925
O10	O	1.439970	0.487728	0.505925
O11	O	0.819303	0.184392	0.014072
O12	O	1.319303	0.684392	0.514072
O13	O	1.050133	0.162488	-0.001523
O14	O	1.550133	0.662488	0.498477
Zn15	Zn	0.933664	0.175152	0.028393
Zn16	Zn	1.433664	0.675152	0.528393
Zn17	Zn	0.942415	0.160948	-0.155151
Zn18	Zn	1.442415	0.660948	0.344849
O19	O	0.929466	0.359151	0.006624
O20	O	1.429466	0.859151	0.506624
C21	C	0.793066	0.178367	-0.053585
C22	C	1.293066	0.678367	0.446415
C23	C	0.704993	0.176462	-0.047635
C24	C	1.204993	0.676462	0.452365
C25	C	0.208841	0.166409	-0.005990
C26	C	0.708841	0.666409	0.494010
C27	C	0.291595	0.168199	-0.011583
C28	C	0.791595	0.668199	0.488417
C29	C	0.336594	0.163208	-0.090317
C30	C	0.836594	0.663208	0.409683
C31	C	0.298833	0.156439	-0.163463
C32	C	0.798833	0.656439	0.336537
C33	C	0.216080	0.154659	-0.157870
C34	C	0.716080	0.654659	0.342130
C35	C	0.584478	0.167912	-0.115188
C36	C	1.084478	0.667912	0.384812
C37	C	0.667238	0.169690	-0.120776
C38	C	1.167238	0.669690	0.379224
C39	C	0.659994	0.181452	0.031105
C40	C	1.159994	0.681452	0.531105
C41	C	0.577240	0.179663	0.036692
C42	C	1.077240	0.679663	0.536692
C43	C	0.539486	0.172901	-0.036454
C44	C	1.039486	0.672901	0.463546
N45	N	0.421183	0.165034	-0.096035
N46	N	0.921183	0.665034	0.403965
N47	N	0.454898	0.171085	-0.030735
N48	N	0.954898	0.671085	0.469265
C49	C	0.942498	-0.065176	-0.063676
C50	C	1.442498	0.434824	0.436324
C51	C	0.940124	-0.206754	-0.063517
C52	C	1.440124	0.293246	0.436483
C53	C	0.863347	-0.273228	-0.058336
C54	C	1.363347	0.226772	0.441664
C55	C	0.896341	-0.360823	0.007899
C56	C	1.396341	0.139177	0.507899
C57	C	0.902908	-0.371427	-0.129448
C58	C	1.402908	0.128573	0.370552
C59	C	0.973147	-0.292480	0.002773
C60	C	1.473147	0.207520	0.502773
C61	C	0.979706	-0.303078	-0.134635
C62	C	1.479706	0.196922	0.365365
C63	C	1.012755	-0.390645	-0.068387
C64	C	1.512755	0.109355	0.431613
C65	C	1.083013	0.157732	-0.073175
C66	C	1.583013	0.657732	0.426825
C67	C	1.171086	0.159637	-0.079131
C68	C	1.671086	0.659637	0.420869
C69	C	0.933580	0.401276	-0.063084
C70	C	1.433580	0.901276	0.436916
C71	C	0.935954	0.542853	-0.063249
C72	C	1.435954	1.042853	0.436751
N73	N	0.927697	0.184844	0.153656
N74	N	1.427697	0.684844	0.653656
N75	N	0.948388	0.151245	-0.280414
N76	N	1.448388	0.651245	0.219586
C77	C	0.979060	0.101193	0.193882
C78	C	1.479060	0.601193	0.693882
C79	C	0.974894	0.107986	0.281570
C80	C	1.474894	0.607986	0.781570
C81	C	0.919367	0.198436	0.329030
C82	C	1.419367	0.698436	0.829030
C83	C	0.867999	0.282091	0.288798
C84	C	1.367999	0.782091	0.788798
C85	C	0.872162	0.275291	0.201112
C86	C	1.372162	0.775291	0.701112
C87	C	0.901182	0.228100	0.591667
C88	C	1.401182	0.728100	1.091667
C89	C	0.897024	0.234896	0.679359
C90	C	1.397024	0.734896	1.179359
C91	C	1.003919	0.060788	0.672125
C92	C	1.503919	0.560788	1.172125
C93	C	1.008081	0.054002	0.584437
C94	C	1.508081	0.554002	1.084437
C95	C	0.956709	0.137652	0.544213
C96	C	1.456709	0.637652	1.044213
N97	N	0.915109	0.205384	0.418661
N98	N	1.415109	0.705384	0.918661
N99	N	0.960964	0.130698	0.454584
N100	N	1.460964	0.630698	0.954584
H101	H	0.703873	0.165635	-0.184894
H102	H	1.203873	0.665635	0.315106
H103	H	0.322331	0.173711	0.047977
H104	H	0.822331	0.673711	0.547977
C105	C	1.060418	-0.031230	0.716379
C106	C	1.560418	0.468770	1.216379
N107	N	1.102972	-0.100548	0.749712
N108	N	1.602972	0.399452	1.249712
H109	H	0.690742	0.186959	0.090657
H110	H	1.190742	0.686959	0.590657
C111	C	0.159349	0.171903	0.080624
C112	C	0.659349	0.671903	0.580624
N113	N	0.122074	0.176049	0.145865
N114	N	0.622074	0.676049	0.645865
C115	C	0.542962	0.160447	-0.195652
C116	C	1.042962	0.660447	0.304348
N117	N	0.511690	0.154816	-0.256261
N118	N	1.011690	0.654816	0.243739
C119	C	0.527744	0.185188	0.123306
C120	C	1.027744	0.685188	0.623306
N121	N	0.490464	0.189357	0.188544
N122	N	0.990464	0.689357	0.688544
H123	H	0.851806	0.308557	0.717998
H124	H	1.351806	0.808557	1.217998
C125	C	0.348335	0.150946	-0.250072
C126	C	0.848335	0.650946	0.249928
N127	N	0.385620	0.146802	-0.315307
N128	N	0.885620	0.646802	0.184693
H129	H	0.185341	0.149148	-0.217429
H130	H	0.685341	0.649148	0.282571
C131	C	1.031379	0.015932	0.325815
C132	C	1.531379	0.515932	0.825815
N133	N	1.073919	-0.053419	0.359141
N134	N	1.573919	0.446581	0.859141
H135	H	1.053295	-0.019649	0.545797
H136	H	1.553295	0.480351	1.045797
C137	C	0.844775	0.320284	0.547426
C138	C	1.344775	0.820284	1.047426
N139	N	0.802324	0.389780	0.514097
N140	N	1.302324	0.889780	1.014097
H141	H	0.800218	-0.222202	-0.054002
H142	H	1.300218	0.277798	0.445998
H143	H	0.822784	0.355733	0.327446
H144	H	1.322784	0.855733	0.827446
H145	H	0.861086	-0.386635	0.068163
H146	H	1.361086	0.113365	0.568163
C147	C	0.815664	0.367324	0.156864
C148	C	1.315664	0.867324	0.656864
N149	N	0.773109	0.436648	0.123537
N150	N	1.273109	0.936648	0.623537
H151	H	1.002833	-0.257853	0.058714
H152	H	1.502833	0.242147	0.558714
C153	C	1.098107	-0.459277	-0.074100
C154	C	1.598107	0.040723	0.425900
N155	N	1.162391	-0.510974	-0.078397
N156	N	1.662391	-0.010974	0.421603
C157	C	1.027297	-0.268156	-0.216051
C158	C	1.527297	0.231844	0.283949
N159	N	1.063136	-0.241849	-0.277380
N160	N	1.563136	0.258151	0.222620
C161	C	0.862745	-0.418394	-0.204930
C162	C	1.362745	0.081606	0.295070
N163	N	0.832488	-0.453762	-0.261780
N164	N	1.332488	0.046238	0.238220
H165	H	1.024279	0.027545	0.155245
H166	H	1.524279	0.527545	0.655245
