data_functionalizedCrystal
_audit_creation_method	'MofGen! by Chris Wilmer'
_symmetry_space_group_name_H-M	'P1'
_symmetry_Int_Tables_number	1
_symmetry_cell_setting	triclinic
loop_
_symmetry_equiv_pos_as_xyz
  x,y,z
_cell_length_a	9.065218
_cell_length_b	14.853567
_cell_length_c	7.540329
_cell_angle_alpha	90.000203
_cell_angle_beta	89.996962
_cell_angle_gamma	84.325408
loop_
_atom_site_label
_atom_site_type_symbol
_atom_site_fract_x
_atom_site_fract_y
_atom_site_fract_z
O1	O	1.957778	0.132191	-0.147470
O2	O	1.528279	0.143034	-0.147471
O3	O	1.754501	0.006468	-0.147476
O4	O	1.731556	0.268757	-0.147465
O5	O	1.754488	0.006466	0.147489
O6	O	1.528265	0.143032	0.147494
O7	O	1.957765	0.132189	0.147495
Cu8	Cu	1.743014	0.137611	0.174427
Cu9	Cu	1.743030	0.137613	-0.174403
O10	O	1.731542	0.268756	0.147500
C11	C	1.473306	0.141991	0.000011
C12	C	1.309525	0.138875	0.000010
C13	C	1.753455	-0.027130	0.000001
C14	C	1.750339	-0.127236	-0.000014
C15	C	1.602788	-0.540862	0.000019
C16	C	1.871546	-0.560154	0.000020
C17	C	1.874475	-0.466099	0.000010
C18	C	1.741559	-0.409421	0.000007
C19	C	1.605714	-0.446798	0.000014
C20	C	2.010318	-0.428714	0.000020
C21	C	2.013253	-0.334654	0.000012
C22	C	1.880335	-0.277974	-0.000004
C23	C	1.744484	-0.315356	0.000002
C24	C	1.611568	-0.258678	-0.000001
C25	C	1.475716	-0.296059	-0.000008
C26	C	1.472796	-0.390118	-0.000001
C27	C	1.883255	-0.183915	-0.000011
C28	C	1.614494	-0.164614	-0.000006
C29	C	2.012738	0.133232	0.000009
C30	C	2.176519	0.136348	-0.000002
C31	C	1.732589	0.302353	0.000019
C32	C	1.735704	0.402460	0.000022
N33	N	1.743013	0.137609	0.419776
N34	N	1.743042	0.137608	-0.419752
H35	H	1.367496	-0.249899	0.000002
C36	C	1.468280	-0.102270	-0.000009
C37	C	1.433340	-0.034953	-0.153176
C38	C	1.287127	0.027389	-0.153179
C39	C	1.175854	0.022415	-0.000015
C40	C	1.210791	-0.044904	0.153163
C41	C	1.357004	-0.107247	0.153166
H42	H	1.515714	-0.031269	-0.266568
H43	H	1.261265	0.077224	-0.266573
H44	H	1.067618	0.068565	-0.000017
H45	H	1.128417	-0.048589	0.266555
H46	H	1.382866	-0.157081	0.266560
H47	H	1.362192	-0.420562	-0.000005
C48	C	1.453358	-0.581978	0.000006
C49	C	1.414370	-0.643989	0.153165
C50	C	1.264939	-0.685106	0.153147
C51	C	1.154497	-0.664212	-0.000029
C52	C	1.193483	-0.602197	-0.153200
C53	C	1.342913	-0.561080	-0.153182
H54	H	1.496128	-0.659459	0.266565
H55	H	1.236080	-0.731014	0.266534
H56	H	1.043880	-0.694649	-0.000042
H57	H	1.111724	-0.586727	-0.266600
H58	H	1.371772	-0.515173	-0.266569
H59	H	1.979760	-0.606307	0.000037
H60	H	2.118531	-0.474868	0.000039
H61	H	2.123872	-0.304227	0.000015
H62	H	1.993864	-0.153483	0.000006
