data_functionalizedCrystal
_audit_creation_method	'MofGen! by Chris Wilmer'
_symmetry_space_group_name_H-M	'P1'
_symmetry_Int_Tables_number	1
_symmetry_cell_setting	triclinic
loop_
_symmetry_equiv_pos_as_xyz
  x,y,z
_cell_length_a	21.295416
_cell_length_b	21.295418
_cell_length_c	16.959447
_cell_angle_alpha	90.037262
_cell_angle_beta	90.032801
_cell_angle_gamma	90.046144
loop_
_atom_site_label
_atom_site_type_symbol
_atom_site_fract_x
_atom_site_fract_y
_atom_site_fract_z
Zn1	Zn	0.250330	-0.962316	-0.447324
Zn2	Zn	0.750330	-0.462316	0.052676
Zn3	Zn	0.355607	-0.962231	-0.315140
Zn4	Zn	0.855607	-0.462231	0.184860
Zn5	Zn	0.250385	-0.857051	-0.315115
Zn6	Zn	0.750385	-0.357051	0.184885
Zn7	Zn	0.355595	-0.857009	-0.447232
Zn8	Zn	0.855595	-0.357009	0.052768
O9	O	0.302979	-0.909652	-0.381203
O10	O	0.802979	-0.409652	0.118797
O11	O	0.264278	-1.050394	-0.429839
O12	O	0.764278	-0.550394	0.070161
O13	O	0.341678	-0.948261	-0.204526
O14	O	0.841678	-0.448261	0.295474
O15	O	0.162288	-0.871068	-0.332681
O16	O	0.662288	-0.371068	0.167319
O17	O	0.341625	-1.050332	-0.332724
O18	O	0.841625	-0.550332	0.167276
O19	O	0.162248	-0.948406	-0.429814
O20	O	0.662248	-0.448406	0.070186
O21	O	0.264371	-0.870986	-0.204507
O22	O	0.764371	-0.370986	0.295493
O23	O	0.264359	-0.768956	-0.332591
O24	O	0.764359	-0.268956	0.167409
O25	O	0.341603	-0.870997	-0.557855
O26	O	0.841603	-0.370997	-0.057855
O27	O	0.341656	-0.768925	-0.429657
O28	O	0.841656	-0.268925	0.070343
O29	O	0.264266	-0.948365	-0.557923
O30	O	0.764266	-0.448365	-0.057923
O31	O	0.443695	-0.948220	-0.332634
O32	O	0.943695	-0.448220	0.167366
O33	O	0.443686	-0.870914	-0.429681
O34	O	0.943686	-0.370914	0.070319
C35	C	0.466531	-0.909570	-0.381168
C36	C	0.966531	-0.409570	0.118832
C37	C	0.536499	-0.909592	-0.381179
C38	C	1.036499	-0.409592	0.118821
C39	C	0.303013	-0.746100	-0.381112
C40	C	0.803013	-0.246100	0.118888
C41	C	0.303042	-0.676132	-0.381092
C42	C	0.803042	-0.176132	0.118908
C43	C	0.302927	-0.909686	-0.587371
C44	C	0.802927	-0.409686	-0.087371
C45	C	0.302905	-0.909700	-0.675228
C46	C	0.802905	-0.409700	-0.175228
C47	C	0.569350	-0.949882	-0.330700
C48	C	1.069350	-0.449882	0.169300
C49	C	0.635092	-0.949911	-0.330722
C50	C	1.135092	-0.449911	0.169278
C51	C	0.667982	-0.909641	-0.381214
C52	C	1.167982	-0.409641	0.118786
C53	C	0.635123	-0.869349	-0.431702
C54	C	1.135123	-0.369349	0.068298
C55	C	0.569382	-0.869325	-0.431685
C56	C	1.069382	-0.369325	0.068315
N57	N	0.771262	-0.854573	-0.387215
N58	N	1.271262	-0.354573	0.112785
N59	N	0.833714	-0.854598	-0.387226
N60	N	1.333714	-0.354598	0.112774
C61	C	0.866056	-0.909712	-0.381270
C62	C	1.366056	-0.409712	0.118730
N63	N	0.833588	-0.964801	-0.375286
N64	N	1.333588	-0.464801	0.124714
N65	N	0.771131	-0.964776	-0.375270
N66	N	1.271131	-0.464776	0.124730
C67	C	0.739267	-0.909663	-0.381238
C68	C	1.239267	-0.409663	0.118762
C69	C	0.970192	-0.950036	-0.330811
C70	C	1.470192	-0.450036	0.169189
C71	C	1.035936	-0.950067	-0.330838
C72	C	1.535936	-0.450067	0.169162
C73	C	1.035966	-0.869499	-0.431815
C74	C	1.535966	-0.369499	0.068185
C75	C	0.970223	-0.869474	-0.431792
C76	C	1.470223	-0.369474	0.068208
C77	C	0.937341	-0.909742	-0.381286
C78	C	1.437341	-0.409742	0.118714
C79	C	1.138789	-0.909752	-0.381269
C80	C	1.638789	-0.409752	0.118731
C81	C	1.068821	-0.909797	-0.381332
C82	C	1.568821	-0.409797	0.118668
C83	C	0.302947	-1.073842	-0.381295
C84	C	0.802947	-0.573842	0.118705
C85	C	0.302933	-1.143810	-0.381334
C86	C	0.802933	-0.643810	0.118666
C87	C	0.343344	-0.643266	-0.431558
C88	C	0.843344	-0.143266	0.068442
C89	C	0.343328	-0.577523	-0.431594
C90	C	0.843328	-0.077523	0.068406
C91	C	0.303018	-0.544650	-0.381148
C92	C	0.803018	-0.044650	0.118852
C93	C	0.262708	-0.577524	-0.330678
C94	C	0.762708	-0.077524	0.169322
C95	C	0.262720	-0.643265	-0.330650
C96	C	0.762720	-0.143265	0.169350
N97	N	0.298104	-0.441380	-0.312014
N98	N	0.798104	0.058620	0.187986
N99	N	0.298096	-0.378929	-0.312043
N100	N	0.798096	0.121071	0.187957
C101	C	0.302977	-0.346575	-0.381232
C102	C	0.802977	0.153425	0.118768
N103	N	0.307880	-0.379032	-0.450392
N104	N	0.807880	0.120968	0.049608
N105	N	0.307891	-0.441489	-0.450362
N106	N	0.807891	0.058511	0.049638
C107	C	0.302999	-0.473364	-0.381174
C108	C	0.802999	0.026636	0.118826
C109	C	0.343265	-0.242423	-0.431742
C110	C	0.843265	0.257577	0.068258
C111	C	0.343245	-0.176680	-0.431778
C112	C	0.843245	0.323320	0.068222
C113	C	0.262627	-0.176681	-0.330856
C114	C	0.762627	0.323319	0.169144
C115	C	0.262644	-0.242424	-0.330826
C116	C	0.762644	0.257576	0.169174
C117	C	0.302966	-0.275291	-0.381268
C118	C	0.802966	0.224709	0.118732
C119	C	0.262589	-0.869522	-1.046700
C120	C	0.762589	-0.369522	-0.546700
C121	C	0.343088	-0.949989	-1.046707
C122	C	0.843088	-0.449989	-0.546707
C123	C	0.343103	-0.949978	-0.964161
C124	C	0.843103	-0.449978	-0.464161
C125	C	0.302861	-0.909738	-0.922881
C126	C	0.802861	-0.409738	-0.422881
C127	C	0.262603	-0.869509	-0.964147
C128	C	0.762603	-0.369509	-0.464147
C129	C	0.383364	-0.990202	-0.922889
C130	C	0.883364	-0.490202	-0.422889
C131	C	0.383381	-0.990192	-0.840338
C132	C	0.883381	-0.490192	-0.340338
C133	C	0.343135	-0.949955	-0.799056
C134	C	0.843135	-0.449955	-0.299056
C135	C	0.302875	-0.909724	-0.840327
C136	C	0.802875	-0.409724	-0.340327
C137	C	0.262633	-0.869484	-0.799047
C138	C	0.762633	-0.369484	-0.299047
C139	C	0.222370	-0.829256	-0.840316
C140	C	0.722370	-0.329256	-0.340316
C141	C	0.222357	-0.829271	-0.922865
C142	C	0.722357	-0.329271	-0.422865
C143	C	0.343147	-0.949940	-0.716508
C144	C	0.843147	-0.449940	-0.216508
C145	C	0.262648	-0.869471	-0.716493
C146	C	0.762648	-0.369471	-0.216493
C147	C	0.302986	-0.909655	-0.175837
C148	C	0.802986	-0.409655	0.324163
C149	C	0.302831	-0.909762	-0.087980
C150	C	0.802831	-0.409762	0.412020
H151	H	0.661844	-0.982722	-0.289616
H152	H	1.161844	-0.482722	0.210384
H153	H	0.661906	-0.836561	-0.472815
H154	H	1.161906	-0.336561	0.027185
O155	O	0.537565	-0.830125	-0.480746
O156	O	1.037565	-0.330125	0.019254
C157	C	0.544532	-0.750246	-0.580938
C158	C	1.044532	-0.250246	-0.080938
C159	C	0.580644	-0.794599	-0.525406
C160	C	1.080644	-0.294599	-0.025406
H161	H	0.579346	-0.721521	-0.617073
H162	H	1.079346	-0.221521	-0.117073
H163	H	0.513834	-0.717294	-0.544626
H164	H	1.013834	-0.217294	-0.044626
H165	H	0.513675	-0.779127	-0.622269
H166	H	1.013675	-0.279127	-0.122269
H167	H	0.611536	-0.765769	-0.484064
H168	H	1.111536	-0.265769	0.015936
H169	H	0.611302	-0.827553	-0.561768
H170	H	1.111302	-0.327553	-0.061768
H171	H	0.943418	-0.982827	-0.289689
H172	H	1.443418	-0.482827	0.210311
H173	H	0.376176	-0.670022	-0.472633
H174	H	0.876176	-0.170022	0.027367
H175	H	0.229874	-0.836705	-0.682889
H176	H	0.729874	-0.336705	-0.182889
H177	H	0.229829	-0.269184	-0.289727
H178	H	0.729829	0.230816	0.210273
H179	H	1.062682	-0.982879	-0.289734
H180	H	1.562682	-0.482879	0.210266
H181	H	0.376147	-0.550758	-0.472693
H182	H	0.876147	-0.050758	0.027307
H183	H	0.189607	-0.796490	-0.806695
H184	H	0.689607	-0.296490	-0.306695
H185	H	0.229885	-0.550754	-0.289607
H186	H	0.729885	-0.050754	0.210393
H187	H	0.375857	-0.982746	-1.080322
H188	H	0.875857	-0.482746	-0.580322
H189	H	0.375925	-0.982697	-0.682910
H190	H	0.875925	-0.482697	-0.182910
O191	O	0.183310	-0.790216	-0.963076
O192	O	0.683310	-0.290216	-0.463076
C193	C	0.147587	-0.754604	-1.090246
C194	C	0.647587	-0.254604	-0.590246
C195	C	0.191849	-0.798854	-1.044803
C196	C	0.691849	-0.298854	-0.544803
H197	H	0.154467	-0.761582	-1.156330
H198	H	0.654467	-0.261582	-0.656330
H199	H	0.158653	-0.703821	-1.074042
H200	H	0.658653	-0.203821	-0.574042
H201	H	0.096836	-0.765681	-1.074000
H202	H	0.596836	-0.265681	-0.574000
H203	H	0.242615	-0.787834	-1.061025
H204	H	0.742615	-0.287834	-0.561025
H205	H	0.180729	-0.849624	-1.061011
H206	H	0.680729	-0.349624	-0.561011
H207	H	0.376062	-0.149921	-0.472879
H208	H	0.876062	0.350079	0.027121
H209	H	0.229806	-0.836771	-1.080305
H210	H	0.729806	-0.336771	-0.580305
O211	O	0.422402	-1.029260	-0.963109
O212	O	0.922402	-0.529260	-0.463109
C213	C	0.458093	-1.064898	-1.090289
C214	C	0.958093	-0.564898	-0.590289
C215	C	0.413835	-1.020646	-1.044834
C216	C	0.913835	-0.520646	-0.544834
H217	H	0.451192	-1.057939	-1.156371
H218	H	0.951192	-0.557939	-0.656371
H219	H	0.447043	-1.115679	-1.074157
H220	H	0.947043	-0.615679	-0.574157
H221	H	0.508847	-1.053805	-1.073981
H222	H	1.008847	-0.553805	-0.573981
H223	H	0.363066	-1.031682	-1.061117
H224	H	0.863066	-0.531682	-0.561117
H225	H	0.424939	-0.969878	-1.060970
H226	H	0.924939	-0.469878	-0.560970
O227	O	0.422506	-1.029331	-0.800375
O228	O	0.922506	-0.529331	-0.300375
C229	C	0.502372	-1.109124	-0.809101
C230	C	1.002372	-0.609124	-0.309101
C231	C	0.458088	-1.064839	-0.854458
C232	C	0.958088	-0.564839	-0.354458
H233	H	0.531162	-1.137834	-0.852807
H234	H	1.031162	-0.637834	-0.352807
H235	H	0.473499	-1.142093	-0.770512
H236	H	0.973499	-0.642093	-0.270512
H237	H	0.535273	-1.080191	-0.770396
H238	H	1.035273	-0.580191	-0.270396
H239	H	0.425179	-1.093722	-0.893205
H240	H	0.925179	-0.593722	-0.393205
H241	H	0.487001	-1.031868	-0.892998
H242	H	0.987001	-0.531868	-0.392998
H243	H	1.062744	-0.836713	-0.472930
H244	H	1.562744	-0.336713	0.027070
O245	O	0.537506	-0.989062	-0.281624
O246	O	1.037506	-0.489062	0.218376
C247	C	0.544418	-1.068951	-0.181443
C248	C	1.044418	-0.568951	0.318557
C249	C	0.580560	-1.024620	-0.236991
C250	C	1.080560	-0.524620	0.263009
H251	H	0.579211	-1.097702	-0.145331
H252	H	1.079211	-0.597702	0.354669
H253	H	0.513598	-1.101881	-0.217741
H254	H	1.013598	-0.601881	0.282259
H255	H	0.513679	-1.040053	-0.140092
H256	H	1.013679	-0.540053	0.359908
H257	H	0.611333	-1.053468	-0.278353
H258	H	1.111333	-0.553468	0.221647
H259	H	0.611340	-0.991689	-0.200643
H260	H	1.111340	-0.491689	0.299357
H261	H	0.943475	-0.836664	-0.472893
H262	H	1.443475	-0.336664	0.027107
H263	H	0.229899	-0.670025	-0.289554
H264	H	0.729899	-0.170025	0.210446
O265	O	0.223567	-0.144736	-0.281750
O266	O	0.723567	0.355264	0.218250
C267	C	0.215003	-0.070433	-0.175084
C268	C	0.715003	0.429567	0.324916
C269	C	0.259309	-0.106581	-0.230646
C270	C	0.759309	0.393419	0.269354
H271	H	0.243882	-0.039566	-0.133763
H272	H	0.743882	0.460434	0.366237
H273	H	0.186223	-0.105202	-0.138948
H274	H	0.686223	0.394798	0.361052
H275	H	0.182093	-0.039738	-0.211453
H276	H	0.682093	0.460262	0.288547
H277	H	0.292256	-0.137278	-0.194338
H278	H	0.792256	0.362722	0.305662
H279	H	0.288044	-0.071779	-0.266784
H280	H	0.788044	0.428221	0.233216
H281	H	0.376094	-0.269185	-0.472818
H282	H	0.876094	0.230815	0.027182
