data_functionalizedCrystal
_audit_creation_method	'MofGen! by Chris Wilmer'
_symmetry_space_group_name_H-M	'P1'
_symmetry_Int_Tables_number	1
_symmetry_cell_setting	triclinic
loop_
_symmetry_equiv_pos_as_xyz
  x,y,z
_cell_length_a	23.096457
_cell_length_b	16.704486
_cell_length_c	23.096457
_cell_angle_alpha	57.664580
_cell_angle_beta	90.011236
_cell_angle_gamma	57.655998
loop_
_atom_site_label
_atom_site_type_symbol
_atom_site_fract_x
_atom_site_fract_y
_atom_site_fract_z
Zr1	Zr	0.507997	0.947534	-0.125753
O2	O	0.406041	1.128139	-0.227685
O3	O	0.545830	0.766933	-0.087928
O4	O	0.536316	0.947535	-0.218203
O5	O	0.415577	0.947534	-0.002128
O6	O	0.631599	0.947532	-0.218205
O7	O	0.415554	0.947537	-0.097410
O8	O	0.648616	0.624468	0.014833
O9	O	0.398559	1.270598	-0.235166
O10	O	0.625127	0.841213	-0.079744
O11	O	0.554036	0.841214	-0.008634
O12	O	0.542835	1.053849	-0.162017
O13	O	0.471744	1.053850	-0.090907
Zr14	Zr	0.659998	0.947525	0.026208
Zr15	Zr	0.659962	0.947529	-0.125756
Zr16	Zr	0.508034	0.947530	0.026211
Zr17	Zr	0.496066	1.174741	-0.137684
Zr18	Zr	0.671930	0.720318	0.038140
O19	O	0.622166	1.128126	-0.011616
O20	O	0.622115	1.128131	-0.227689
O21	O	0.406092	1.128133	-0.011612
O22	O	0.761955	0.766920	0.128141
O23	O	0.761904	0.766926	-0.087933
O24	O	0.545881	0.766928	0.128145
O25	O	0.752419	0.947525	-0.097417
O26	O	0.631679	0.947524	0.118659
O27	O	0.536397	0.947527	0.118661
O28	O	0.752442	0.947522	-0.002134
O29	O	0.519351	1.270594	-0.235169
O30	O	0.648645	0.624465	0.135624
O31	O	0.769437	0.624461	0.135622
O32	O	0.769408	0.624464	0.014831
O33	O	0.398588	1.270595	-0.114375
O34	O	0.519380	1.270591	-0.114378
O35	O	0.625161	0.841210	0.062472
O36	O	0.696252	0.841209	-0.008637
O37	O	0.613960	1.053845	-0.090910
O38	O	0.542869	1.053846	-0.019801
C39	C	0.598923	0.663329	-0.034848
C40	C	0.603988	0.566873	-0.029782
C41	C	0.500248	0.542615	-0.133512
C42	C	0.505004	0.451992	-0.128756
C43	C	0.618260	0.295003	-0.015520
C44	C	0.613503	0.385626	-0.020275
C45	C	0.554495	0.509432	-0.079273
C46	C	0.549736	0.600056	-0.084024
C47	C	0.662994	0.443066	0.029208
C48	C	0.667750	0.352443	0.033964
C49	C	0.393913	0.947536	-0.049769
C50	C	0.329400	0.947539	-0.049767
C51	C	0.299085	0.947549	-0.102263
C52	C	0.238473	0.947538	-0.102262
C53	C	0.208170	0.947541	-0.049772
C54	C	0.238496	0.947524	0.002733
C55	C	0.299111	0.947523	0.002735
N56	N	0.086182	1.016850	-0.037521
N57	N	0.028599	1.016854	-0.037528
C58	C	0.025541	0.947542	-0.049776
N59	N	0.082235	0.878241	-0.062032
N60	N	0.139821	0.878242	-0.062028
C61	C	0.142443	0.947541	-0.049769
C62	C	-0.070497	0.947538	-0.102274
C63	C	-0.131107	0.947519	-0.102268
C64	C	-0.131087	0.947518	0.002723
C65	C	-0.070474	0.947524	0.002721
C66	C	-0.040184	0.947540	-0.049782
C67	C	0.774082	0.947523	-0.049776
C68	C	0.838595	0.947520	-0.049777
C69	C	0.583953	0.947534	-0.239856
C70	C	0.583937	0.947536	-0.304369
C71	C	0.569073	1.231730	-0.064697
C72	C	0.564008	1.328186	-0.069762
C73	C	0.540985	1.058527	-0.377618
C74	C	0.541003	1.058528	-0.438234
C75	C	0.583964	0.947533	-0.425597
C76	C	0.626924	0.836528	-0.352335
C77	C	0.626911	0.836529	-0.291721
N78	N	0.583180	0.864914	-0.488814
N79	N	0.583189	0.864921	-0.546398
C80	C	0.584008	0.947522	-0.608222
N81	N	0.584804	1.030136	-0.610294
N82	N	0.584791	1.030133	-0.552706
C83	C	0.583983	0.947519	-0.491318
C84	C	0.541074	1.058522	-0.747201
C85	C	0.541097	1.058519	-0.807817
C86	C	0.627013	0.836516	-0.721916
C87	C	0.626995	0.836522	-0.661302
C88	C	0.584021	0.947528	-0.673950
C89	C	0.584043	0.947525	0.140312
C90	C	0.584059	0.947523	0.204824
C91	C	0.789007	0.663322	-0.034851
C92	C	0.858586	0.566864	-0.029787
C93	C	0.598968	0.663324	0.155236
C94	C	0.604049	0.566867	0.224814
C95	C	0.789053	0.663317	0.155232
C96	C	0.858647	0.566858	0.224809
C97	C	0.378943	1.231742	-0.254777
C98	C	0.309349	1.328201	-0.324354
C99	C	0.378988	1.231737	-0.064693
C100	C	0.309410	1.328195	-0.069757
C101	C	0.569028	1.231735	-0.254781
C102	C	0.563947	1.328192	-0.324359
C103	C	0.854134	0.521569	-0.064532
C104	C	0.919504	0.430950	-0.059789
C105	C	0.989325	0.385621	-0.020296
C106	C	0.993775	0.430925	0.014450
C107	C	0.928406	0.521549	0.009702
C108	C	0.643562	0.521568	0.294612
C109	C	0.648332	0.430949	0.359993
C110	C	0.613594	0.385625	0.355575
C111	C	0.574077	0.430933	0.285769
C112	C	0.569302	0.521557	0.220390
C113	C	0.928444	0.521559	0.220365
C114	C	0.993840	0.430938	0.285733
C115	C	0.989437	0.385611	0.355545
C116	C	0.919632	0.430919	0.359988
C117	C	0.854238	0.521544	0.294620
C118	C	0.239551	1.373511	-0.319910
C119	C	0.174154	1.464160	-0.385280
C120	C	0.178556	1.509491	-0.455092
C121	C	0.248362	1.464178	-0.459534
C122	C	0.313757	1.373537	-0.394166
C123	C	0.313861	1.373499	-0.035019
C124	C	0.248490	1.464144	-0.039780
C125	C	0.178669	1.509476	-0.079276
C126	C	0.174219	1.464167	-0.114019
C127	C	0.239589	1.373531	-0.109261
C128	C	0.598693	1.373487	-0.319916
C129	C	0.593934	1.464107	-0.385286
C130	C	0.554423	1.509435	-0.455097
C131	C	0.519675	1.464131	-0.459537
C132	C	0.524440	1.373507	-0.394168
H133	H	0.323746	0.947558	-0.145012
F134	F	0.099904	1.512423	-0.156049
F135	F	0.618683	0.289174	0.425165
H136	H	0.622229	1.500984	-0.381656
F137	F	0.720729	0.407751	0.086939
H138	H	0.797288	0.558475	-0.096701
H139	H	0.661968	0.746141	-0.601658
H140	H	0.452190	0.643422	-0.181538
H141	H	0.125446	1.583278	-0.083144
F142	F	0.495383	1.176658	-0.885780
H143	H	0.487506	1.501052	-0.516387
H144	H	1.042547	0.311828	-0.016435
F145	F	0.234840	1.325317	-0.146233
F146	F	1.059043	0.289158	0.425110
H147	H	0.323795	0.947514	0.045484
H148	H	0.251937	1.501099	-0.516383
H149	H	0.671851	0.558460	0.298223
H150	H	0.506025	1.148913	-0.497885
H151	H	0.916059	0.394000	0.416838
F152	F	0.914752	0.382746	-0.096770
F153	F	0.933146	0.569789	0.146072
F154	F	0.206203	0.947549	-0.158138
F155	F	0.779957	0.569740	0.299362
H156	H	0.213821	0.947523	0.045472
H157	H	0.550549	1.583228	-0.508319
H158	H	0.235953	1.336607	-0.263071
H159	H	1.050672	0.394058	0.282103
F160	F	0.099870	1.512366	-0.380536
F161	F	0.447269	0.487315	-0.186486
F162	F	0.672648	0.718399	-0.338887
F163	F	-0.163368	0.947520	-0.158140
F164	F	0.681058	0.163234	0.047260
H165	H	0.661994	0.746141	-0.711626
F166	F	-0.163331	0.947510	0.058591
F167	F	0.108950	1.605960	-0.524658
H168	H	0.545795	0.394017	0.282183
F169	F	0.388039	1.325317	-0.398906
H170	H	0.496141	1.336638	-0.397796
F171	F	0.690395	0.382742	0.434277
F172	F	0.388164	1.325273	0.007018
H173	H	0.252128	1.501019	-0.011485
H174	H	0.501683	0.700862	-0.132057
F175	F	0.730548	0.220676	0.096748
H176	H	-0.045832	0.947546	-0.145023
F177	F	0.495236	1.176670	-0.391083
F178	F	-0.038210	0.947521	0.058591
F179	F	0.495351	1.176663	-0.760660
F180	F	1.068091	0.382667	0.056482
F181	F	0.672625	0.718392	-0.213758
F182	F	0.933156	0.569740	0.046690
F183	F	0.527250	0.569753	0.146108
F184	F	0.640749	1.325261	-0.245624
