data_functionalizedCrystal
_audit_creation_method	'MofGen! by Chris Wilmer'
_symmetry_space_group_name_H-M	'P1'
_symmetry_Int_Tables_number	1
_symmetry_cell_setting	triclinic
loop_
_symmetry_equiv_pos_as_xyz
  x,y,z
_cell_length_a	8.559649
_cell_length_b	15.995350
_cell_length_c	7.681481
_cell_angle_alpha	84.260013
_cell_angle_beta	94.913240
_cell_angle_gamma	76.635520
loop_
_atom_site_label
_atom_site_type_symbol
_atom_site_fract_x
_atom_site_fract_y
_atom_site_fract_z
O1	O	2.105023	-0.019508	-0.146402
O2	O	1.639818	0.023734	-0.146408
O3	O	1.885137	-0.120592	-0.146403
O4	O	1.859704	0.124818	-0.146407
O5	O	1.915332	-0.138392	0.146455
O6	O	1.670013	0.005934	0.146450
O7	O	2.135218	-0.037308	0.146457
Zn8	Zn	1.907409	-0.018513	0.192951
Zn9	Zn	1.867627	0.004939	-0.192902
O10	O	1.889898	0.107018	0.146452
C11	C	1.595386	0.018111	0.000020
C12	C	1.418005	0.027866	0.000017
C13	C	1.899183	-0.160619	0.000023
C14	C	1.896030	-0.253366	0.000013
C15	C	1.884710	-0.590386	0.000019
C16	C	1.709930	-0.531678	-0.000641
C17	C	1.713151	-0.435230	0.000019
C18	C	1.890325	-0.423187	0.000015
C19	C	1.993741	-0.479970	0.167249
C20	C	1.989366	-0.576332	0.167389
C21	C	1.958639	-0.556680	-0.165646
C22	C	1.958369	-0.459598	-0.167856
C23	C	1.893508	-0.328694	0.000018
C24	C	1.881533	-0.684880	0.000027
C25	C	2.179650	-0.031685	0.000025
C26	C	2.357029	-0.041439	0.000016
C27	C	1.875853	0.147046	0.000022
C28	C	1.879005	0.239793	0.000020
N29	N	1.934572	-0.034520	0.456286
N30	N	1.840477	0.020939	-0.456237
H31	H	1.440525	-0.108235	0.000008
C32	C	2.163709	-0.631667	0.177663
N33	N	2.295023	-0.673342	0.185412
C34	C	1.710704	0.097410	0.442172
N35	N	1.612955	0.155009	0.365643
H36	H	2.030642	-0.091125	0.531494
C37	C	1.863809	-0.569053	-0.336886
N38	N	1.792365	-0.578371	-0.465855
H39	H	1.334498	0.094668	0.000007
C40	C	1.604930	-0.381102	-0.161926
N41	N	1.523405	-0.340335	-0.283903
H42	H	1.946720	-0.455304	0.291703
H43	H	1.882609	-0.420778	-0.291571
H44	H	1.627735	-0.538430	-0.120568
H45	H	1.657339	-0.410279	0.120102
C46	C	1.632642	-0.561878	0.160507
N47	N	1.574441	-0.584620	0.281899
H48	H	2.087336	-0.596656	-0.166773
C49	C	1.921868	-0.605862	0.336266
N50	N	1.871021	-0.628098	0.463465
H51	H	2.124547	-0.474592	0.173465
H52	H	2.086530	-0.451930	-0.177957
