data_functionalizedCrystal
_audit_creation_method	'MofGen! by Chris Wilmer'
_symmetry_space_group_name_H-M	'P1'
_symmetry_Int_Tables_number	1
_symmetry_cell_setting	triclinic
loop_
_symmetry_equiv_pos_as_xyz
  x,y,z
_cell_length_a	6.817900
_cell_length_b	11.168130
_cell_length_c	11.168136
_cell_angle_alpha	92.019983
_cell_angle_beta	108.508683
_cell_angle_gamma	108.508653
loop_
_atom_site_label
_atom_site_type_symbol
_atom_site_fract_x
_atom_site_fract_y
_atom_site_fract_z
V1	V	-4.109882	-0.174724	-0.393709
O2	O	-4.069466	0.008377	-0.386204
O3	O	-4.086170	-0.346429	-0.391026
O4	O	-4.086173	-0.172044	-0.565415
O5	O	-4.069464	-0.167215	-0.210609
V6	V	-4.587112	-0.152822	-0.371808
O7	O	-4.384946	-0.222767	-0.441752
O8	O	-4.762246	-0.104778	-0.323765
O9	O	-4.387617	0.018883	-0.374490
O10	O	-4.744925	-0.335922	-0.379313
O11	O	-4.744927	-0.160330	-0.554908
O12	O	-4.387615	-0.155501	-0.200102
C13	C	-3.936378	-0.388286	-0.384818
C14	C	-3.998442	-0.528658	-0.383769
C15	C	-4.082926	-0.608381	-0.493195
C16	C	-4.147074	-0.753462	-0.492113
C17	C	-3.936380	-0.165840	-0.607266
C18	C	-3.998442	-0.164786	-0.747637
C19	C	-4.200950	-0.170305	-0.816329
C20	C	-4.265098	-0.169216	-0.961409
C21	C	-4.200752	0.060735	-0.380695
C22	C	-4.117927	0.201105	-0.381753
C23	C	-4.200750	-0.161709	-0.158244
C24	C	-4.117925	-0.162757	-0.017872
H25	H	-3.973590	-0.567811	-0.289285
H26	H	-4.045502	-0.730409	-0.288067
H27	H	-4.438583	-0.173946	-1.020460
H28	H	-4.219516	-0.821957	-0.585795
H29	H	-3.872553	-0.159246	-0.796232
H30	H	-3.944444	-0.158040	-0.958831
C31	C	-4.116494	-0.555499	-0.620844
C32	C	-3.917511	-0.463601	-0.647204
C33	C	-3.951085	-0.410723	-0.774857
C34	C	-4.183642	-0.449743	-0.876150
C35	C	-4.382642	-0.541646	-0.849792
C36	C	-4.349068	-0.594524	-0.722139
H37	H	-3.745343	-0.434712	-0.572219
H38	H	-3.803770	-0.342690	-0.794368
H39	H	-4.208495	-0.410599	-0.970646
H40	H	-4.554809	-0.570535	-0.924777
H41	H	-4.496382	-0.662557	-0.702628
H42	H	-4.326829	-0.175828	-0.767730
