data_functionalizedCrystal
_audit_creation_method	'MofGen! by Chris Wilmer'
_symmetry_space_group_name_H-M	'P1'
_symmetry_Int_Tables_number	1
_symmetry_cell_setting	triclinic
loop_
_symmetry_equiv_pos_as_xyz
  x,y,z
_cell_length_a	6.817900
_cell_length_b	11.102188
_cell_length_c	17.982968
_cell_angle_alpha	94.233461
_cell_angle_beta	102.451960
_cell_angle_gamma	108.603875
loop_
_atom_site_label
_atom_site_type_symbol
_atom_site_fract_x
_atom_site_fract_y
_atom_site_fract_z
V1	V	-4.041363	-0.177029	-0.237549
O2	O	-4.001741	0.007282	-0.233027
O3	O	-4.018610	-0.349841	-0.235924
O4	O	-3.987546	-0.174844	-0.341152
O5	O	-4.033021	-0.168927	-0.127070
V6	V	-4.522369	-0.154920	-0.224334
O7	O	-4.308141	-0.225528	-0.266535
O8	O	-4.705788	-0.106422	-0.195348
O9	O	-4.321915	0.017892	-0.225959
O10	O	-4.679388	-0.339231	-0.228856
O11	O	-4.648109	-0.163022	-0.334813
O12	O	-4.352980	-0.157106	-0.120731
C13	C	-3.870026	-0.391952	-0.232177
C14	C	-3.932674	-0.533232	-0.231539
C15	C	-3.922543	-0.581106	-0.161469
C16	C	-3.981431	-0.713854	-0.160873
C17	C	-4.060569	-0.750844	-0.300423
C18	C	-4.001696	-0.618098	-0.301018
C19	C	-3.830399	-0.168724	-0.366404
C20	C	-3.867851	-0.168080	-0.451100
C21	C	-4.068311	-0.174147	-0.494772
C22	C	-4.103489	-0.173541	-0.574352
C23	C	-3.938208	-0.166879	-0.610261
C24	C	-3.737729	-0.160808	-0.566583
C25	C	-3.702550	-0.161404	-0.487003
C26	C	-3.879599	-0.158401	-0.887520
C27	C	-3.914797	-0.157809	-0.967106
C28	C	-4.280538	-0.170538	-0.974869
C29	C	-4.245359	-0.171135	-0.895289
C30	C	-4.044881	-0.165057	-0.851618
C31	C	-4.006738	-0.165711	-0.765327
C32	C	-3.976352	-0.166234	-0.696551
C33	C	-4.133843	0.059996	-0.229704
C34	C	-4.050433	0.201274	-0.230347
C35	C	-4.173470	-0.163229	-0.095475
C36	C	-4.115256	-0.163867	-0.010778
H37	H	-4.116770	-0.819957	-0.356990
H38	H	-4.009960	-0.579121	-0.358081
H39	H	-3.866343	-0.512011	-0.104894
N40	N	-4.246586	-0.181343	-0.456046
H41	H	-4.378913	-0.185091	-0.495790
H42	H	-4.201228	-0.102679	-0.415799
N43	N	-3.970515	-0.765493	-0.085298
H44	H	-3.917859	-0.691584	-0.041377
H45	H	-3.868848	-0.815358	-0.079426
H46	H	-4.266717	-0.178474	-0.609906
N47	N	-4.423626	-0.178326	-0.856560
H48	H	-4.555957	-0.182073	-0.896302
H49	H	-4.378258	-0.099660	-0.816314
H50	H	-3.780192	-0.152381	-0.996339
N51	N	-4.496774	-0.177088	-1.021972
H52	H	-4.493989	-0.175694	-1.077834
H53	H	-4.531759	-0.100785	-1.002357
N54	N	-3.663381	-0.151868	-0.840435
H55	H	-3.679357	-0.231018	-0.814641
H56	H	-3.601989	-0.072596	-0.799889
N57	N	-3.559450	-0.153611	-0.605307
H58	H	-3.612152	-0.154157	-0.662348
H59	H	-3.512167	-0.230124	-0.597096
N60	N	-3.486333	-0.154863	-0.439902
H61	H	-3.502302	-0.234009	-0.414104
H62	H	-3.424974	-0.075588	-0.399358
