data_functionalizedCrystal
_audit_creation_method	'MofGen! by Chris Wilmer'
_symmetry_space_group_name_H-M	'P1'
_symmetry_Int_Tables_number	1
_symmetry_cell_setting	triclinic
loop_
_symmetry_equiv_pos_as_xyz
  x,y,z
_cell_length_a	25.639242
_cell_length_b	25.639239
_cell_length_c	25.639233
_cell_angle_alpha	89.981253
_cell_angle_beta	89.977834
_cell_angle_gamma	90.034213
loop_
_atom_site_label
_atom_site_type_symbol
_atom_site_fract_x
_atom_site_fract_y
_atom_site_fract_z
Zn1	Zn	0.799225	-0.208277	-0.295742
Zn2	Zn	0.799149	-0.295696	-0.208307
Zn3	Zn	0.711801	-0.208269	-0.208306
Zn4	Zn	0.711746	-0.295676	-0.295696
O5	O	0.755480	-0.251979	-0.252013
O6	O	0.872380	-0.219884	-0.284163
O7	O	0.787553	-0.284103	-0.135141
O8	O	0.723453	-0.135105	-0.219924
O9	O	0.872324	-0.284111	-0.219924
O10	O	0.787683	-0.135111	-0.284163
O11	O	0.723379	-0.219871	-0.135141
O12	O	0.638629	-0.219853	-0.219880
O13	O	0.723360	-0.284078	-0.368868
O14	O	0.638589	-0.284070	-0.284085
O15	O	0.787630	-0.219866	-0.368901
O16	O	0.787499	-0.368858	-0.219880
O17	O	0.723286	-0.368844	-0.284085
C18	C	0.619638	-0.251959	-0.251977
C19	C	0.561524	-0.251963	-0.251975
C20	C	0.201149	-0.285473	-0.285413
C21	C	0.146544	-0.285477	-0.285421
O22	O	0.118297	-0.313943	-0.313821
N23	N	0.119241	-0.251994	-0.252047
C24	C	0.146545	-0.218502	-0.218666
O25	O	0.118308	-0.190022	-0.190280
C26	C	0.201149	-0.218496	-0.218661
C27	C	0.228449	-0.251985	-0.252034
C28	C	0.228449	-0.318959	-0.318783
C29	C	0.283049	-0.318956	-0.318774
C30	C	0.310350	-0.285468	-0.285395
C31	C	0.283049	-0.251983	-0.252024
C32	C	0.228452	-0.185002	-0.185283
C33	C	0.283059	-0.185000	-0.185281
C34	C	0.310359	-0.218488	-0.218654
C35	C	0.364950	-0.218492	-0.218636
N36	N	0.392253	-0.251974	-0.252010
C37	C	0.364953	-0.285463	-0.285389
C38	C	0.031875	-0.218515	-0.218680
C39	C	-0.022728	-0.218523	-0.218683
C40	C	-0.022725	-0.285497	-0.285438
C41	C	0.031878	-0.285492	-0.285433
C42	C	0.059178	-0.251998	-0.252054
C43	C	0.479618	-0.285455	-0.285368
C44	C	0.534223	-0.285451	-0.285354
C45	C	0.534216	-0.218475	-0.218601
C46	C	0.479615	-0.218481	-0.218612
C47	C	0.452318	-0.251972	-0.252000
O48	O	0.393232	-0.190038	-0.190252
O49	O	0.393197	-0.313933	-0.313776
C50	C	0.755392	-0.387822	-0.251989
C51	C	0.755403	-0.445936	-0.251996
C52	C	0.789004	-0.806294	-0.218638
C53	C	0.789024	-0.860898	-0.218645
O54	O	0.817502	-0.889131	-0.190257
N55	N	0.755572	-0.888218	-0.252048
C56	C	0.722102	-0.860932	-0.285449
O57	O	0.693651	-0.889184	-0.313861
C58	C	0.722085	-0.806328	-0.285444
C59	C	0.755535	-0.779011	-0.252036
C60	C	0.822452	-0.778976	-0.185233
C61	C	0.822431	-0.724376	-0.185226
C62	C	0.788962	-0.697093	-0.218623
C63	C	0.755514	-0.724410	-0.252028
C64	C	0.688617	-0.779042	-0.318847
C65	C	0.688603	-0.724435	-0.318840
C66	C	0.722053	-0.697118	-0.285432
C67	C	0.722024	-0.642527	-0.285418
N68	N	0.755475	-0.615206	-0.252016
C69	C	0.788944	-0.642490	-0.218618
C70	C	0.722141	-0.975602	-0.285457
C71	C	0.722155	-1.030204	-0.285459
C72	C	0.789078	-1.030167	-0.218656
C73	C	0.789061	-0.975564	-0.218652
C74	C	0.755593	-0.948282	-0.252055
C75	C	0.788897	-0.527824	-0.218605
C76	C	0.788872	-0.473219	-0.218599
C77	C	0.721951	-0.473261	-0.285403
C78	C	0.721974	-0.527862	-0.285408
C79	C	0.755452	-0.555142	-0.252007
O80	O	0.693562	-0.614260	-0.313793
O81	O	0.817396	-0.614231	-0.190216
C82	C	0.891853	-0.252000	-0.252049
C83	C	0.949967	-0.252009	-0.252064
C84	C	0.755497	-0.251970	-0.388386
C85	C	0.755504	-0.251966	-0.446500
C86	C	0.755583	-0.115606	-0.252048
C87	C	0.755627	-0.057492	-0.252064
C88	C	0.789012	-0.218432	-0.806886
C89	C	0.789019	-0.218417	-0.861491
O90	O	0.817466	-0.189967	-0.889747
N91	N	0.755562	-0.251844	-0.888783
C92	C	0.722093	-0.285283	-0.861468
O93	O	0.693636	-0.313713	-0.889695
C94	C	0.722084	-0.285294	-0.806864
C95	C	0.755547	-0.251870	-0.779575
C96	C	0.822472	-0.185009	-0.779597
C97	C	0.822466	-0.185025	-0.724997
C98	C	0.789000	-0.218462	-0.697685
C99	C	0.755541	-0.251885	-0.724974
C100	C	0.688613	-0.318731	-0.779550
C101	C	0.688607	-0.318739	-0.724943
C102	C	0.722069	-0.285314	-0.697654
C103	C	0.722070	-0.285338	-0.643063
N104	N	0.755526	-0.251912	-0.615771
C105	C	0.788992	-0.218474	-0.643082
C106	C	0.722113	-0.285256	-0.976138
C107	C	0.722124	-0.285247	-1.030741
C108	C	0.789049	-0.218381	-1.030760
C109	C	0.789041	-0.218392	-0.976157
C110	C	0.755570	-0.251829	-0.948846
C111	C	0.788977	-0.218509	-0.528417
C112	C	0.788970	-0.218529	-0.473811
C113	C	0.722043	-0.285393	-0.473797
C114	C	0.722052	-0.285375	-0.528397
C115	C	0.755521	-0.251929	-0.555706
O116	O	0.693635	-0.313773	-0.614771
O117	O	0.817439	-0.190044	-0.614847
C118	C	0.755494	-0.251951	-0.116170
C119	C	0.755588	-0.251807	-0.058057
H120	H	0.206233	-0.157734	-0.158106
H121	H	0.457387	-0.191213	-0.191436
O122	O	0.309496	-0.152449	-0.152804
C123	C	0.273686	-0.122887	-0.123362
H124	H	0.234751	-0.144303	-0.121523
H125	H	0.289440	-0.117249	-0.082174
H126	H	0.267912	-0.083207	-0.142581
O127	O	0.689518	-0.446727	-0.317901
C128	C	0.719261	-0.415091	-0.351682
H129	H	0.760441	-0.431513	-0.354953
H130	H	0.700329	-0.414463	-0.391901
H131	H	0.721064	-0.373716	-0.335508
O132	O	0.821531	-0.949087	-0.186129
C133	C	0.810134	-0.962454	-0.134008
H134	H	0.790044	-1.002116	-0.132909
H135	H	0.847884	-0.964302	-0.110604
H136	H	0.783258	-0.931752	-0.116365
H137	H	0.816221	-0.191310	-0.451595
O138	O	0.821539	-0.186005	-0.554859
C139	C	0.851057	-0.156503	-0.519054
H140	H	0.852840	-0.177934	-0.480133
H141	H	0.892261	-0.150929	-0.534836
H142	H	0.831942	-0.116792	-0.513243
H143	H	0.457399	-0.312726	-0.312556
H144	H	0.816288	-0.191174	-0.953941
H145	H	-0.044963	-0.312763	-0.312619
H146	H	0.694912	-1.052442	-0.312659
O147	O	0.854984	-0.152502	-0.698573
C148	C	0.884527	-0.122998	-0.734397
H149	H	0.863114	-0.121183	-0.773313
H150	H	0.890131	-0.081805	-0.718632
H151	H	0.924223	-0.142146	-0.740212
O152	O	0.854908	-0.152468	-0.806144
C153	C	0.825180	-0.118689	-0.837736
H154	H	0.783997	-0.115458	-0.821280
H155	H	0.844122	-0.078456	-0.838353
H156	H	0.823381	-0.134838	-0.879120
H157	H	0.206227	-0.346229	-0.345967
H158	H	0.556449	-0.312723	-0.312530
H159	H	0.816298	-0.191153	-1.053007
H160	H	0.694881	-0.312471	-1.052955
H161	H	0.661376	-0.801275	-0.346049
H162	H	0.816111	-0.450979	-0.191392
O163	O	0.309484	-0.351500	-0.351245
C164	C	0.273670	-0.381063	-0.380696
H165	H	0.234761	-0.359649	-0.382543
H166	H	0.289458	-0.386699	-0.421881
H167	H	0.267831	-0.420744	-0.361480
O168	O	0.656054	-0.351214	-0.805969
C169	C	0.626526	-0.380731	-0.770144
H170	H	0.624738	-0.359320	-0.731224
H171	H	0.585326	-0.386293	-0.785901
H172	H	0.645637	-0.420446	-0.764337
H173	H	0.694857	-0.312487	-0.953905
H174	H	0.661345	-0.345963	-0.702710
H175	H	0.694809	-0.312597	-0.550617
O176	O	0.656043	-0.698015	-0.351307
C177	C	0.626537	-0.733840	-0.380802
H178	H	0.624754	-0.772773	-0.359387
H179	H	0.585334	-0.718102	-0.386340
H180	H	0.645664	-0.739613	-0.420529
O181	O	0.689527	-0.317930	-0.447342
C182	C	0.659987	-0.347426	-0.483132
H183	H	0.681398	-0.349225	-0.522066
H184	H	0.654389	-0.388624	-0.467350
H185	H	0.620288	-0.328280	-0.488922
O186	O	0.058315	-0.318036	-0.317903
C187	C	0.022503	-0.347602	-0.347352
H188	H	-0.016408	-0.326192	-0.349200
H189	H	0.038291	-0.353240	-0.388537
H190	H	0.016667	-0.387284	-0.328134
O191	O	0.560800	-0.186019	-0.186153
C192	C	0.592344	-0.215735	-0.152319
H193	H	0.600504	-0.255388	-0.170683
H194	H	0.630752	-0.194430	-0.145354
H195	H	0.571282	-0.221417	-0.113561
O196	O	0.058311	-0.185967	-0.186198
C197	C	0.022498	-0.156410	-0.156755
H198	H	-0.016435	-0.177830	-0.154917
H199	H	0.038251	-0.150773	-0.115566
H200	H	0.016720	-0.116729	-0.175971
O201	O	0.821431	-0.554239	-0.186109
C202	C	0.850954	-0.518410	-0.156635
H203	H	0.829521	-0.479510	-0.154804
H204	H	0.856564	-0.534193	-0.115446
H205	H	0.890648	-0.512554	-0.175822
O206	O	0.854954	-0.697785	-0.152850
C207	C	0.888702	-0.666167	-0.182651
H208	H	0.870230	-0.657982	-0.222251
H209	H	0.895717	-0.627775	-0.161356
H210	H	0.927448	-0.687177	-0.188444
O211	O	0.854982	-0.805393	-0.152738
C212	C	0.884505	-0.769563	-0.123267
H213	H	0.863073	-0.730662	-0.121440
H214	H	0.890114	-0.785342	-0.082077
H215	H	0.924200	-0.763710	-0.142453
H216	H	-0.044951	-0.191258	-0.191502
H217	H	0.816333	-1.052391	-0.191464
H218	H	0.694883	-0.953392	-0.312656
O219	O	0.689463	-0.554320	-0.317907
C220	C	0.659907	-0.518527	-0.347371
H221	H	0.681304	-0.479581	-0.349193
H222	H	0.654312	-0.534286	-0.388564
H223	H	0.620208	-0.512773	-0.328183
