data_functionalizedCrystal
_audit_creation_method	'MofGen! by Chris Wilmer'
_symmetry_space_group_name_H-M	'P1'
_symmetry_Int_Tables_number	1
_symmetry_cell_setting	triclinic
loop_
_symmetry_equiv_pos_as_xyz
  x,y,z
_cell_length_a	14.908571
_cell_length_b	16.120444
_cell_length_c	14.908308
_cell_angle_alpha	84.013251
_cell_angle_beta	89.824947
_cell_angle_gamma	89.788391
loop_
_atom_site_label
_atom_site_type_symbol
_atom_site_fract_x
_atom_site_fract_y
_atom_site_fract_z
Zn1	Zn	1.320089	-0.434924	0.609966
Zn2	Zn	1.820089	0.065076	1.109966
Zn3	Zn	1.321029	-0.566746	0.466391
Zn4	Zn	1.821029	-0.066746	0.966391
Zn5	Zn	1.179332	-0.418916	0.450140
Zn6	Zn	1.679332	0.081084	0.950140
Zn7	Zn	1.162114	-0.565756	0.607991
Zn8	Zn	1.662114	-0.065756	1.107991
O9	O	1.245641	-0.496586	0.533622
O10	O	1.745641	0.003414	1.033622
O11	O	1.445627	-0.459524	0.598548
O12	O	1.945627	0.040476	1.098548
O13	O	1.309832	-0.540851	0.338087
O14	O	1.809832	-0.040851	0.838087
O15	O	1.204815	-0.304419	0.465366
O16	O	1.704815	0.195581	0.965366
O17	O	1.446318	-0.556373	0.493063
O18	O	1.946318	-0.056373	0.993063
O19	O	1.308229	-0.316180	0.582790
O20	O	1.808229	0.183820	1.082790
O21	O	1.205727	-0.432242	0.326147
O22	O	1.705727	0.067758	0.826147
O23	O	1.051634	-0.431281	0.463452
O24	O	1.551634	0.068719	0.963452
O25	O	1.175471	-0.554686	0.734401
O26	O	1.675471	-0.054686	1.234401
O27	O	1.038984	-0.539164	0.579424
O28	O	1.538984	-0.039164	1.079424
O29	O	1.291534	-0.458564	0.735852
O30	O	1.791534	0.041436	1.235852
O31	O	1.293136	-0.683236	0.491149
O32	O	1.793136	-0.183236	0.991149
O33	O	1.176382	-0.682508	0.595182
O34	O	1.676382	-0.182508	1.095182
C35	C	1.012791	-0.483379	0.519461
C36	C	1.512791	0.016621	1.019461
C37	C	0.913174	-0.477750	0.513425
C38	C	1.413174	0.022250	1.013425
C39	C	0.712859	-0.579668	0.622700
C40	C	1.212859	-0.079668	1.122700
C41	C	0.619260	-0.574382	0.617032
C42	C	1.119260	-0.074382	1.117032
C43	C	0.632375	-0.461888	0.496427
C44	C	1.132375	0.038112	0.996427
C45	C	0.725974	-0.467174	0.502095
C46	C	1.225974	0.032826	1.002095
C47	C	0.766213	-0.526067	0.565232
C48	C	1.266213	-0.026067	1.065232
C49	C	0.859814	-0.531357	0.570895
C50	C	1.359814	-0.031357	1.070895
C51	C	0.872926	-0.418859	0.450295
C52	C	1.372926	0.081141	0.950295
C53	C	0.779327	-0.413573	0.444627
C54	C	1.279327	0.086427	0.944627
C55	C	1.233016	-0.713113	0.544736
C56	C	1.733016	-0.213113	1.044736
C57	C	1.227696	-0.805750	0.549525
C58	C	1.727696	-0.305750	1.049525
C59	C	1.273450	-1.016974	0.508982
C60	C	1.773450	-0.516974	1.008982
C61	C	1.217997	-0.975356	0.558281
C62	C	1.717997	-0.475356	1.058281
C63	C	1.223395	-0.880979	0.553408
C64	C	1.723395	-0.380979	1.053408
C65	C	1.268053	-1.111360	0.513854
C66	C	1.768053	-0.611360	1.013854
C67	C	1.479400	-0.509845	0.547839
C68	C	1.979400	-0.009845	1.047839
C69	C	1.579014	-0.515495	0.553897
C70	C	2.079014	-0.015495	1.053897
C71	C	1.231477	-0.508300	0.768750
C72	C	1.731477	-0.008300	1.268750
C73	C	1.225441	-0.513292	0.868948
C74	C	1.725441	-0.013292	1.368948
C75	C	1.258338	-0.279215	0.522486
C76	C	1.758338	0.220785	1.022486
C77	C	1.263749	-0.186585	0.517740
C78	C	1.763749	0.313415	1.017740
C79	C	1.259805	-0.484860	0.299408
C80	C	1.759805	0.015140	0.799408
C81	C	1.266028	-0.479643	0.199210
C82	C	1.766028	0.020357	0.699210
C83	C	1.334954	-0.422562	1.058741
C84	C	1.834954	0.077438	1.558741
C85	C	1.329286	-0.427249	1.152885
C86	C	1.829286	0.072751	1.652885
C87	C	1.208432	-0.527350	1.151383
C88	C	1.708432	-0.027350	1.651383
C89	C	1.214101	-0.522663	1.057238
C90	C	1.714101	-0.022663	1.557238
C91	C	1.277364	-0.470267	1.010921
C92	C	1.777364	0.029733	1.510921
C93	C	1.283036	-0.465585	0.916775
C94	C	1.783036	0.034415	1.416775
C95	C	1.162179	-0.565681	0.915273
C96	C	1.662179	-0.065681	1.415273
C97	C	1.156511	-0.570368	1.009418
C98	C	1.656511	-0.070368	1.509418
H99	H	0.746551	-0.365623	0.393225
H100	H	1.246551	0.134377	0.893225
C101	C	1.098827	-0.618161	0.862663
C102	C	1.598827	-0.118161	1.362663
N103	N	1.051113	-0.657690	0.823037
N104	N	1.551113	-0.157690	1.323037
H105	H	1.166469	-1.010605	0.604146
H106	H	1.666469	-0.510605	1.104146
C107	C	1.343051	-0.969355	0.447016
C108	C	1.843051	-0.469355	0.947016
N109	N	1.395470	-0.933478	0.400340
N110	N	1.895470	-0.433478	0.900340
C111	C	1.392641	-0.374771	1.205485
C112	C	1.892641	0.125229	1.705485
N113	N	1.440363	-0.335243	1.245102
N114	N	1.940363	0.164757	1.745102
C115	C	0.560575	-0.633353	0.680245
C116	C	1.060575	-0.133353	1.180245
N117	N	0.516372	-0.677774	0.727858
N118	N	1.016372	-0.177774	1.227858
H119	H	1.334550	-0.422923	0.879065
H120	H	1.834550	0.077077	1.379065
H121	H	1.386470	-0.379904	1.021029
H122	H	1.886470	0.120096	1.521029
C123	C	1.138827	-0.584958	1.202346
C124	C	1.638827	-0.084958	1.702346
N125	N	1.086394	-0.628343	1.240732
N126	N	1.586394	-0.128343	1.740732
C127	C	1.086918	-0.627994	1.060377
C128	C	1.586918	-0.127994	1.560377
N129	N	1.034499	-0.671398	1.098759
N130	N	1.534499	-0.171398	1.598759
H131	H	0.892574	-0.579312	0.622304
H132	H	1.392574	-0.079312	1.122304
C133	C	0.757124	-0.644453	0.692147
C134	C	1.257124	-0.144453	1.192147
N135	N	0.790463	-0.693249	0.744458
N136	N	1.290463	-0.193249	1.244458
H137	H	0.916377	-0.375215	0.403499
H138	H	1.416377	0.124785	0.903499
C139	C	0.588095	-0.397104	0.426990
C140	C	1.088095	0.102896	0.926990
N141	N	0.554742	-0.348306	0.374691
N142	N	1.054742	0.151694	0.874691
