data_functionalizedCrystal
_audit_creation_method	'MofGen! by Chris Wilmer'
_symmetry_space_group_name_H-M	'P1'
_symmetry_Int_Tables_number	1
_symmetry_cell_setting	triclinic
loop_
_symmetry_equiv_pos_as_xyz
  x,y,z
_cell_length_a	17.077404
_cell_length_b	17.077402
_cell_length_c	17.077396
_cell_angle_alpha	89.975636
_cell_angle_beta	89.976781
_cell_angle_gamma	90.022802
loop_
_atom_site_label
_atom_site_type_symbol
_atom_site_fract_x
_atom_site_fract_y
_atom_site_fract_z
Zn1	Zn	-1.200036	0.312583	0.443943
Zn2	Zn	-1.199935	0.443858	0.312686
Zn3	Zn	-1.068767	0.312602	0.312682
Zn4	Zn	-1.068727	0.443803	0.443901
O5	O	-1.134366	0.378212	0.378303
O6	O	-1.309869	0.330012	0.426551
O7	O	-1.182510	0.426478	0.202839
O8	O	-1.086239	0.202753	0.330110
O9	O	-1.309795	0.426459	0.330117
O10	O	-1.182682	0.202739	0.426547
O11	O	-1.086141	0.330044	0.202836
O12	O	-0.958915	0.329991	0.330070
O13	O	-1.086171	0.426365	0.553754
O14	O	-0.958886	0.426383	0.426476
O15	O	-1.182643	0.329959	0.553784
O16	O	-1.182471	0.553698	0.330077
O17	O	-1.086073	0.553657	0.426480
C18	C	-0.930418	0.378184	0.378268
C19	C	-0.843169	0.378191	0.378272
C20	C	-0.467390	0.328082	0.428604
C21	C	-0.549370	0.328079	0.428598
C22	C	-0.590320	0.378211	0.378306
C23	C	-0.549284	0.428354	0.328023
C24	C	-0.467305	0.428361	0.328033
C25	C	-0.720154	0.428336	0.328003
C26	C	-0.802139	0.428329	0.327991
C27	C	-0.802219	0.328054	0.428568
C28	C	-0.720240	0.328061	0.428578
C29	C	-0.679211	0.378204	0.378293
C30	C	-1.134278	0.582159	0.378291
C31	C	-1.134312	0.669409	0.378312
C32	C	-0.339110	0.378232	0.378331
C33	C	-0.426360	0.378220	0.378323
C34	C	-1.184699	1.045219	0.328218
C35	C	-1.184662	0.963238	0.328202
C36	C	-1.134417	0.922258	0.378348
C37	C	-1.084200	0.963263	0.428509
C38	C	-1.084235	1.045242	0.428521
C39	C	-1.084134	0.792393	0.428481
C40	C	-1.084101	0.710408	0.428471
C41	C	-1.184562	0.710389	0.328163
C42	C	-1.184596	0.792368	0.328175
C43	C	-1.134380	0.833367	0.378336
C44	C	-1.134414	0.378154	0.583048
C45	C	-1.134434	0.378129	0.670298
C46	C	-1.134467	1.173467	0.378341
C47	C	-1.134488	1.086217	0.378377
C48	C	-1.134364	0.378212	0.174356
C49	C	-1.134496	0.378016	0.087106
C50	C	-1.184669	0.327926	0.711305
C51	C	-1.184678	0.327900	0.793285
C52	C	-1.134456	0.378081	0.834257
C53	C	-1.084216	0.428287	0.793244
C54	C	-1.084203	0.428308	0.711265
C55	C	-1.084248	0.428239	0.964114
C56	C	-1.084261	0.428219	1.046099
C57	C	-1.184722	0.327831	1.046135
C58	C	-1.184710	0.327853	0.964156
C59	C	-1.134470	0.378059	0.923148
H60	H	-0.686750	0.469171	0.287059
C61	C	-1.239795	0.665298	0.272975
C62	C	-1.205789	0.609011	0.211299
C63	C	-1.261022	0.563918	0.156115
C64	C	-1.350260	0.575111	0.162607
C65	C	-1.384270	0.631400	0.224286
C66	C	-1.329038	0.676493	0.279470
H67	H	-1.139726	0.600723	0.206491
H68	H	-1.235845	0.522249	0.110456
H69	H	-1.391147	0.541730	0.121756
H70	H	-1.450334	0.639688	0.229094
H71	H	-1.354214	0.718162	0.325129
H72	H	-1.225628	0.286950	1.079527
C73	C	-1.239970	1.090294	0.273056
C74	C	-1.206011	1.146716	0.211405
C75	C	-1.261281	1.191789	0.156239
C76	C	-1.350510	1.180439	0.162723
C77	C	-1.384473	1.124014	0.224376
C78	C	-1.329203	1.078941	0.279542
H79	H	-1.139955	1.155120	0.206603
H80	H	-1.236139	1.233558	0.110599
H81	H	-1.391424	1.213804	0.121885
H82	H	-1.450530	1.115609	0.229178
H83	H	-1.354345	1.037171	0.325182
C84	C	-1.028927	0.918189	0.483669
C85	C	-1.035284	0.929409	0.572914
C86	C	-0.980010	0.884338	0.628078
C87	C	-0.918378	0.828048	0.593997
C88	C	-0.912017	0.816826	0.504748
C89	C	-0.967292	0.861896	0.449584
H90	H	-1.080910	0.971081	0.598146
H91	H	-0.984718	0.892646	0.694146
H92	H	-0.877460	0.794684	0.634833
H93	H	-0.866391	0.775154	0.479516
H94	H	-0.962583	0.853589	0.383516
H95	H	-1.043248	0.825771	0.469333
C96	C	-1.239899	0.918144	0.273027
C97	C	-1.233552	0.929483	0.183787
C98	C	-1.288792	0.884392	0.128607
C99	C	-1.350378	0.827962	0.162668
C100	C	-1.356727	0.816620	0.251913
C101	C	-1.301488	0.861712	0.307092
H102	H	-1.187960	0.971259	0.158569
H103	H	-1.284091	0.892788	0.062542
H104	H	-1.391270	0.794583	0.121821
H105	H	-1.402320	0.774845	0.277131
H106	H	-1.306188	0.853315	0.373157
C107	C	-0.675198	0.272916	0.483902
C108	C	-0.686515	0.279441	0.573126
C109	C	-0.641475	0.224297	0.628453
C110	C	-0.585117	0.162628	0.594557
C111	C	-0.573798	0.156099	0.505328
C112	C	-0.618838	0.211243	0.450001
H113	H	-0.728237	0.325095	0.598222
H114	H	-0.649855	0.229131	0.694506
H115	H	-0.551776	0.121807	0.635513
H116	H	-0.532076	0.110445	0.480232
H117	H	-0.610458	0.206410	0.383948
C118	C	-0.594327	0.483500	0.272701
C119	C	-0.650661	0.449399	0.211123
C120	C	-0.695703	0.504544	0.155798
C121	C	-0.684411	0.593791	0.162050
C122	C	-0.628075	0.627897	0.223631
C123	C	-0.583033	0.572751	0.278956
H124	H	-0.659022	0.383329	0.206491
H125	H	-0.737406	0.479296	0.110212
H126	H	-0.717754	0.634612	0.121096
H127	H	-0.619714	0.693966	0.228262
H128	H	-0.541329	0.597999	0.324542
C129	C	-1.028823	0.665322	0.483617
C130	C	-0.939595	0.676661	0.477107
C131	C	-0.884314	0.631572	0.532250
C132	C	-0.918261	0.575145	0.593902
C133	C	-1.007494	0.563804	0.600415
C134	C	-1.062775	0.608893	0.545272
H135	H	-0.914461	0.718434	0.431466
H136	H	-0.818258	0.639968	0.527428
H137	H	-0.877339	0.541768	0.634722
H138	H	-1.032628	0.522031	0.646056
H139	H	-1.128831	0.600497	0.550094
C140	C	-1.029003	1.090344	0.483697
C141	C	-0.973735	1.045271	0.538859
C142	C	-0.918499	1.090372	0.594034
C143	C	-0.918530	1.180546	0.594046
C144	C	-0.973800	1.225623	0.538882
C145	C	-1.029037	1.180522	0.483707
H146	H	-0.973710	0.978515	0.538852
H147	H	-0.877584	1.057002	0.634870
H148	H	-0.877641	1.213932	0.634890
H149	H	-0.973826	1.292380	0.538889
H150	H	-1.069951	1.213892	0.442871
C151	C	-1.239914	0.272725	0.666239
C152	C	-1.205925	0.211108	0.609881
C153	C	-1.261171	0.155904	0.564818
C154	C	-1.350406	0.162316	0.576113
C155	C	-1.384400	0.223936	0.632474
C156	C	-1.329154	0.279140	0.677537
H157	H	-1.139864	0.206359	0.601517
H158	H	-1.236006	0.110289	0.523095
H159	H	-1.391302	0.121450	0.542755
H160	H	-1.450461	0.228685	0.640838
H161	H	-1.354319	0.324755	0.719260
C162	C	-0.847185	0.483474	0.272671
C163	C	-0.802059	0.538634	0.217364
C164	C	-0.847105	0.593778	0.162042
C165	C	-0.937279	0.593762	0.162026
C166	C	-0.982411	0.538600	0.217336
C167	C	-0.937364	0.483456	0.272658
H168	H	-0.735302	0.538647	0.217373
H169	H	-0.813695	0.634612	0.121098
H170	H	-0.970625	0.634583	0.121074
H171	H	-1.049167	0.538587	0.217326
H172	H	-0.970774	0.442622	0.313601
C173	C	-1.239938	0.272674	0.838390
C174	C	-1.329170	0.279099	0.827140
C175	C	-1.384431	0.223867	0.872242
C176	C	-1.350462	0.162211	0.928594
C177	C	-1.261226	0.155783	0.939846
C178	C	-1.205964	0.211015	0.894744
H179	H	-1.354320	0.324743	0.785422
H180	H	-1.450490	0.228626	0.863912
H181	H	-1.391370	0.121325	0.961981
H182	H	-1.236075	0.110139	0.981564
H183	H	-1.139906	0.206256	0.903074
C184	C	-1.028992	0.483468	0.918998
C185	C	-0.939758	0.477059	0.930239
C186	C	-0.884510	0.532289	0.885119
C187	C	-0.918495	0.593929	0.828758
C188	C	-1.007733	0.600341	0.817515
C189	C	-1.062982	0.545111	0.862635
H190	H	-0.914596	0.431427	0.971962
H191	H	-0.818449	0.527542	0.893442
H192	H	-0.877597	0.634814	0.795358
H193	H	-1.032895	0.645973	0.775791
H194	H	-1.129042	0.549858	0.854311
H195	H	-0.434055	0.287254	0.469554
H196	H	-1.225513	0.825732	0.287345
H197	H	-0.582773	0.287254	0.469545
H198	H	-1.043365	0.469079	1.079456
H199	H	-1.225609	0.286995	0.930799
H200	H	-0.835630	0.287225	0.469510
H201	H	-1.043322	0.469142	0.826610
H202	H	-0.433900	0.469190	0.287090
H203	H	-1.043289	0.469181	0.677878
