data_functionalizedCrystal
_audit_creation_method	'MofGen! by Chris Wilmer'
_symmetry_space_group_name_H-M	'P1'
_symmetry_Int_Tables_number	1
_symmetry_cell_setting	triclinic
loop_
_symmetry_equiv_pos_as_xyz
  x,y,z
_cell_length_a	18.215399
_cell_length_b	18.215407
_cell_length_c	18.215405
_cell_angle_alpha	89.975194
_cell_angle_beta	89.969449
_cell_angle_gamma	90.020595
loop_
_atom_site_label
_atom_site_type_symbol
_atom_site_fract_x
_atom_site_fract_y
_atom_site_fract_z
Zn1	Zn	-0.416118	-1.125072	-0.292993
Zn2	Zn	0.083882	-0.625072	0.207007
Zn3	Zn	-0.293046	-1.124980	-0.416065
Zn4	Zn	0.206954	-0.624980	0.083935
Zn5	Zn	-0.293063	-1.002005	-0.293016
Zn6	Zn	0.206937	-0.502005	0.206984
Zn7	Zn	-0.416069	-1.001970	-0.416023
Zn8	Zn	0.083931	-0.501970	0.083977
O9	O	-0.354574	-1.063507	-0.354524
O10	O	0.145426	-0.563507	0.145476
O11	O	-0.399805	-1.228044	-0.309327
O12	O	0.100195	-0.728044	0.190673
O13	O	-0.190064	-1.108643	-0.399769
O14	O	0.309936	-0.608643	0.100231
O15	O	-0.309414	-1.018382	-0.190029
O16	O	0.190586	-0.518382	0.309971
O17	O	-0.309384	-1.227977	-0.399747
O18	O	0.190616	-0.727977	0.100253
O19	O	-0.399822	-1.108799	-0.190012
O20	O	0.100178	-0.608799	0.309988
O21	O	-0.190077	-1.018293	-0.309366
O22	O	0.309923	-0.518293	0.190634
O23	O	-0.309367	-0.899016	-0.309325
O24	O	0.190633	-0.399016	0.190675
O25	O	-0.519060	-1.018324	-0.399675
O26	O	-0.019060	-0.518324	0.100325
O27	O	-0.399739	-0.898991	-0.399697
O28	O	0.100261	-0.398991	0.100303
O29	O	-0.519095	-1.108766	-0.309286
O30	O	-0.019095	-0.608766	0.190714
O31	O	-0.309337	-1.108610	-0.519043
O32	O	0.190663	-0.608610	-0.019043
O33	O	-0.399722	-1.018235	-0.519012
O34	O	0.100278	-0.518235	-0.019012
C35	C	-0.354550	-0.872301	-0.354510
C36	C	0.145450	-0.372301	0.145490
C37	C	-0.354558	-0.790502	-0.354521
C38	C	0.145442	-0.290502	0.145479
C39	C	-0.546527	-1.063552	-0.354473
C40	C	-0.046527	-0.563552	0.145527
C41	C	-0.628326	-1.063571	-0.354452
C42	C	-0.128326	-0.563571	0.145548
C43	C	-0.401553	-0.602314	-0.401650
C44	C	0.098447	-0.102314	0.098350
C45	C	-0.401561	-0.525455	-0.401652
C46	C	0.098439	-0.025455	0.098348
C47	C	-0.307598	-0.525452	-0.307402
C48	C	0.192402	-0.025452	0.192598
C49	C	-0.307594	-0.602309	-0.307397
C50	C	0.192406	-0.102309	0.192603
C51	C	-0.354570	-0.640738	-0.354526
C52	C	0.145430	-0.140738	0.145474
C53	C	-0.354582	-0.487022	-0.354532
C54	C	0.145418	0.012978	0.145468
C55	C	-0.354591	-0.403688	-0.354533
C56	C	0.145409	0.096312	0.145467
C57	C	-0.354563	-0.724077	-0.354524
C58	C	0.145437	-0.224077	0.145476
C59	C	-0.816540	-1.110681	-0.307342
C60	C	-0.316540	-0.610681	0.192658
C61	C	-0.893398	-1.110690	-0.307321
C62	C	-0.393398	-0.610690	0.192679
C63	C	-0.893350	-1.016513	-0.401448
C64	C	-0.393350	-0.516513	0.098552
C65	C	-0.816493	-1.016501	-0.401465
C66	C	-0.316493	-0.516501	0.098535
C67	C	-0.778089	-1.063589	-0.354413
C68	C	-0.278089	-0.563589	0.145587
C69	C	-0.931806	-1.063610	-0.354375
C70	C	-0.431806	-0.563610	0.145625
C71	C	-1.015139	-1.063619	-0.354352
C72	C	-0.515139	-0.563619	0.145648
C73	C	-0.694750	-1.063579	-0.354435
C74	C	-0.194750	-0.563579	0.145565
C75	C	-0.163368	-1.063504	-0.354522
C76	C	0.336632	-0.563504	0.145478
C77	C	-0.081569	-1.063628	-0.354336
C78	C	0.418431	-0.563628	0.145664
C79	C	-0.354538	-1.063429	-0.545731
C80	C	0.145462	-0.563429	-0.045731
C81	C	-0.354548	-1.063463	-0.627529
C82	C	0.145452	-0.563463	-0.127529
C83	C	-0.354595	-0.255460	-0.354537
C84	C	0.145405	0.244540	0.145463
C85	C	-0.354595	-0.337259	-0.354536
C86	C	0.145405	0.162741	0.145464
C87	C	-0.307571	-1.110632	-0.815715
C88	C	0.192429	-0.610632	-0.315715
C89	C	-0.307589	-1.110665	-0.892574
C90	C	0.192411	-0.610665	-0.392574
C91	C	-0.401629	-1.016476	-0.892581
C92	C	0.098371	-0.516476	-0.392581
C93	C	-0.401615	-1.016447	-0.815724
C94	C	0.098385	-0.516447	-0.315724
C95	C	-0.354581	-1.063524	-0.777293
C96	C	0.145419	-0.563524	-0.277293
C97	C	-0.354614	-1.063586	-0.931009
C98	C	0.145386	-0.563586	-0.431009
C99	C	-0.354634	-1.063621	-1.014343
C100	C	0.145366	-0.563621	-0.514343
C101	C	-0.354563	-1.063490	-0.693954
C102	C	0.145437	-0.563490	-0.193954
C103	C	-0.354625	-1.063605	-0.162571
C104	C	0.145375	-0.563605	0.337429
C105	C	-0.354648	-1.063647	-0.080772
C106	C	0.145352	-0.563647	0.419228
H107	H	-0.439819	-0.494174	-0.440025
H108	H	0.060181	0.005826	0.059975
N109	N	-0.934784	-0.965736	-0.452193
N110	N	-0.434784	-0.465736	0.047807
H111	H	-0.921398	-0.977135	-0.504780
H112	H	-0.421398	-0.477135	-0.004780
H113	H	-0.921391	-0.913176	-0.440701
H114	H	-0.421391	-0.413176	0.059299
H115	H	-0.269351	-0.494153	-0.269033
H116	H	0.230649	0.005847	0.230967
N117	N	-0.452318	-0.965636	-0.774273
N118	N	0.047682	-0.465636	-0.274273
H119	H	-0.504915	-0.977036	-0.787600
H120	H	-0.004915	-0.477036	-0.287600
H121	H	-0.440777	-0.913085	-0.787712
H122	H	0.059223	-0.413085	-0.287712
N123	N	-0.775014	-0.965691	-0.452222
N124	N	-0.275014	-0.465691	0.047778
H125	H	-0.811004	-0.935863	-0.482026
H126	H	-0.311004	-0.435863	0.017974
H127	H	-0.743113	-0.995615	-0.486290
H128	H	-0.243113	-0.495615	0.013710
N129	N	-0.452217	-0.643764	-0.452478
N130	N	0.047783	-0.143764	0.047522
H131	H	-0.481982	-0.607757	-0.482331
H132	H	0.018018	-0.107757	0.017669
H133	H	-0.486326	-0.675679	-0.422563
H134	H	0.013674	-0.175679	0.077437
H135	H	-0.269275	-1.148966	-0.784426
H136	H	0.230725	-0.648966	-0.284426
N137	N	-0.256876	-1.161467	-0.934013
N138	N	0.243124	-0.661467	-0.434013
H139	H	-0.264021	-1.154345	-0.988534
H140	H	0.235979	-0.654345	-0.488534
H141	H	-0.268374	-1.214015	-0.920526
H142	H	0.231626	-0.714015	-0.420526
N143	N	-0.256918	-0.643765	-0.256572
N144	N	0.243082	-0.143765	0.243428
H145	H	-0.286890	-0.675676	-0.222507
H146	H	0.213110	-0.175676	0.277493
H147	H	-0.227163	-0.607718	-0.226768
H148	H	0.272837	-0.107718	0.273232
H149	H	-0.439921	-0.978146	-0.923881
H150	H	0.060079	-0.478146	-0.423881
H151	H	-0.785274	-1.149021	-0.269028
H152	H	-0.285274	-0.649021	0.230972
H153	H	-0.924701	-1.149035	-0.268990
H154	H	-0.424701	-0.649035	0.231010
