data_functionalizedCrystal
_audit_creation_method	'MofGen! by Chris Wilmer'
_symmetry_space_group_name_H-M	'P1'
_symmetry_Int_Tables_number	1
_symmetry_cell_setting	triclinic
loop_
_symmetry_equiv_pos_as_xyz
  x,y,z
_cell_length_a	16.120530
_cell_length_b	12.645330
_cell_length_c	16.120297
_cell_angle_alpha	87.125115
_cell_angle_beta	89.871860
_cell_angle_gamma	87.108294
loop_
_atom_site_label
_atom_site_type_symbol
_atom_site_fract_x
_atom_site_fract_y
_atom_site_fract_z
Zn1	Zn	1.247519	-0.537082	0.534581
Zn2	Zn	1.254495	-0.705845	0.395529
Zn3	Zn	1.115507	-0.519169	0.388499
Zn4	Zn	1.108451	-0.704868	0.527498
O5	O	1.181493	-0.616741	0.461527
O6	O	1.364812	-0.567375	0.522042
O7	O	1.241930	-0.673993	0.278231
O8	O	1.133052	-0.373201	0.407899
O9	O	1.369937	-0.691364	0.419881
O10	O	1.230041	-0.386362	0.515225
O11	O	1.139816	-0.536843	0.273066
O12	O	0.998204	-0.535896	0.401031
O13	O	1.121027	-0.689700	0.644804
O14	O	0.993020	-0.672329	0.503153
O15	O	1.223200	-0.566428	0.650008
O16	O	1.235089	-0.854059	0.413013
O17	O	1.127791	-0.853342	0.509970
C18	C	0.965439	-0.602064	0.450561
C19	C	0.873009	-0.595812	0.445890
C20	C	0.703778	-0.584372	0.437368
C21	C	0.660046	-0.649192	0.485747
C22	C	0.565880	-0.642827	0.481005
C23	C	0.797952	-0.590736	0.442108
C24	C	1.181453	-0.892167	0.461505
C25	C	1.181510	-1.010002	0.461528
C26	C	1.248914	-1.177958	0.400396
C27	C	1.249115	-1.055422	0.400564
C28	C	1.200830	-1.061367	0.550384
C29	C	1.201356	-1.183979	0.550068
C30	C	1.094716	-1.169992	0.434665
C31	C	1.095237	-1.047295	0.432721
C32	C	1.398391	-0.631476	0.472536
C33	C	1.490820	-0.637756	0.477228
C34	C	1.170548	-0.629953	0.678422
C35	C	1.165884	-0.635584	0.770849
C36	C	1.181556	-0.340242	0.461568
C37	C	1.181582	-0.222415	0.461586
C38	C	1.192444	-0.603507	0.245479
C39	C	1.197269	-0.597589	0.153060
C40	C	1.157338	-0.645837	0.940074
C41	C	1.205813	-0.587338	0.983840
C42	C	1.201058	-0.593044	1.078003
C43	C	1.162092	-0.640133	0.845903
H44	H	0.693327	-0.709464	0.530727
H45	H	1.076289	-1.195686	0.370767
N46	N	1.025683	-1.005749	0.486957
H47	H	0.996555	-1.067249	0.514220
H48	H	0.984730	-0.960169	0.451785
H49	H	1.112270	-0.700201	0.973321
N50	N	0.659703	-0.504559	0.377770
H51	H	0.597708	-0.511286	0.382782
H52	H	0.677821	-0.518356	0.319113
H53	H	1.237542	-1.020427	0.334818
H54	H	1.263450	-1.036079	0.572950
H55	H	1.237537	-1.202521	0.334469
N56	N	1.285291	-1.229081	0.579569
H57	H	1.321600	-1.169285	0.592656
H58	H	1.312227	-1.271779	0.534589
H59	H	1.154220	-1.213663	0.597471
N60	N	1.333809	-1.225678	0.424196
H61	H	1.328842	-1.275969	0.474443
H62	H	1.371359	-1.167308	0.437654
N63	N	1.334454	-1.023514	0.424622
H64	H	1.376665	-1.050410	0.383285
H65	H	1.348861	-1.055074	0.481886
H66	H	1.153089	-1.032173	0.597388
H67	H	1.080589	-1.013131	0.367308
N68	N	1.028331	-1.207931	0.493621
H69	H	1.054351	-1.258824	0.537556
H70	H	0.985504	-1.245085	0.461741
H71	H	1.250884	-0.532970	0.950591
