data_functionalizedCrystal
_audit_creation_method	'MofGen! by Chris Wilmer'
_symmetry_space_group_name_H-M	'P1'
_symmetry_Int_Tables_number	1
_symmetry_cell_setting	triclinic
loop_
_symmetry_equiv_pos_as_xyz
  x,y,z
_cell_length_a	16.625547
_cell_length_b	16.625546
_cell_length_c	19.077174
_cell_angle_alpha	92.270997
_cell_angle_beta	87.680275
_cell_angle_gamma	90.022405
loop_
_atom_site_label
_atom_site_type_symbol
_atom_site_fract_x
_atom_site_fract_y
_atom_site_fract_z
Zn1	Zn	1.250962	-0.339334	-0.398028
Zn2	Zn	1.245459	-0.468756	-0.280330
Zn3	Zn	1.110718	-0.333942	-0.280337
Zn4	Zn	1.116092	-0.474126	-0.397978
O5	O	1.180808	-0.404040	-0.339168
O6	O	1.363065	-0.356512	-0.382433
O7	O	1.223034	-0.446369	-0.181840
O8	O	1.129376	-0.221826	-0.295973
O9	O	1.359022	-0.451598	-0.295961
O10	O	1.232412	-0.225788	-0.382440
O11	O	1.124040	-0.347321	-0.181846
O12	O	0.998598	-0.352528	-0.295924
O13	O	1.138534	-0.460750	-0.496474
O14	O	1.002546	-0.455521	-0.382354
O15	O	1.237623	-0.361719	-0.496512
O16	O	1.228244	-0.582300	-0.295912
O17	O	1.133199	-0.586245	-0.382347
C18	C	0.971315	-0.404022	-0.339135
C19	C	0.881694	-0.404035	-0.339137
C20	C	0.808912	-0.404037	-0.339146
C21	C	0.717605	-0.404042	-0.339164
C22	C	0.644829	-0.404051	-0.339181
C23	C	0.553516	-0.404057	-0.339198
C24	C	1.180730	-0.613529	-0.339139
C25	C	1.180772	-0.703151	-0.339149
C26	C	1.180916	-1.031330	-0.339223
C27	C	1.180873	-0.940020	-0.339204
C28	C	1.180843	-0.867243	-0.339186
C29	C	1.180802	-0.775928	-0.339168
C30	C	1.391118	-0.404057	-0.339202
C31	C	1.480740	-0.404065	-0.339216
C32	C	1.189292	-0.412435	-0.522744
C33	C	1.192907	-0.416012	-0.600974
C34	C	1.180908	-0.193733	-0.339213
C35	C	1.180951	-0.104113	-0.339232
C36	C	1.143067	-0.366125	-0.637728
C37	C	1.146461	-0.369494	-0.711233
C38	C	1.199700	-0.422745	-0.747982
C39	C	1.249542	-0.472638	-0.711222
C40	C	1.246143	-0.469273	-0.637719
C41	C	1.215387	-0.438342	-0.967814
C42	C	1.218784	-0.441701	-1.041322
C43	C	1.115702	-0.338557	-1.041328
C44	C	1.112311	-0.335194	-0.967823
C45	C	1.162150	-0.385090	-0.931070
N46	N	1.203172	-0.426188	-0.823116
N47	N	1.158673	-0.381651	-0.855937
C48	C	1.172403	-0.395619	-0.156306
C49	C	1.168944	-0.391814	-0.078077
H50	H	1.099719	-0.322757	-0.607813
H51	H	1.075125	-0.297936	-1.071260
H52	H	1.105873	-0.328873	-0.741155
H53	H	1.068957	-0.291833	-0.937907
O54	O	1.270522	-0.493506	-1.076913
C55	C	1.313797	-0.536810	-1.028713
H56	H	1.278348	-0.537206	-0.976311
H57	H	1.323347	-0.601309	-1.049942
H58	H	1.374689	-0.506935	-1.020909
O59	O	1.263689	-0.486889	-0.932089
C60	C	1.215800	-0.537010	-0.889541
H61	H	1.153314	-0.542999	-0.911676
H62	H	1.244898	-0.599024	-0.888705
H63	H	1.210464	-0.509538	-0.833837
O64	O	1.294637	-0.517766	-0.602122
C65	C	1.342341	-0.565505	-0.650317
H66	H	1.347578	-0.534875	-0.702720
H67	H	1.404881	-0.573147	-0.629084
H68	H	1.313140	-0.627094	-0.658119
O69	O	1.301236	-0.524298	-0.747027
C70	C	1.293536	-0.516585	-0.819785
H71	H	1.267626	-0.454817	-0.829836
H72	H	1.355222	-0.523341	-0.847727
H73	H	1.251538	-0.565361	-0.840626
