data_functionalizedCrystal
_audit_creation_method	'MofGen! by Chris Wilmer'
_symmetry_space_group_name_H-M	'P1'
_symmetry_Int_Tables_number	1
_symmetry_cell_setting	triclinic
loop_
_symmetry_equiv_pos_as_xyz
  x,y,z
_cell_length_a	13.897449
_cell_length_b	12.827892
_cell_length_c	12.827885
_cell_angle_alpha	90.029786
_cell_angle_beta	90.022760
_cell_angle_gamma	90.016219
loop_
_atom_site_label
_atom_site_type_symbol
_atom_site_fract_x
_atom_site_fract_y
_atom_site_fract_z
Zn1	Zn	1.474712	-0.415959	0.590946
Zn2	Zn	1.474614	-0.590737	0.416206
Zn3	Zn	1.313403	-0.416013	0.416209
Zn4	Zn	1.313389	-0.590662	0.590896
O5	O	1.394030	-0.503343	0.503564
O6	O	1.609681	-0.439153	0.567786
O7	O	1.453194	-0.567613	0.269970
O8	O	1.334848	-0.269770	0.439410
O9	O	1.609609	-0.567561	0.439406
O10	O	1.453361	-0.269730	0.567789
O11	O	1.334753	-0.439244	0.269972
O12	O	1.178420	-0.439171	0.439362
O13	O	1.334824	-0.567433	0.737138
O14	O	1.178410	-0.567485	0.567703
O15	O	1.453347	-0.439080	0.737175
O16	O	1.453181	-0.736963	0.439357
O17	O	1.334730	-0.736908	0.567700
C18	C	1.393969	-0.774853	0.503546
C19	C	1.394032	-0.891006	0.503573
C20	C	1.143415	-0.503327	0.503528
C21	C	1.036201	-0.503345	0.503537
C22	C	1.452715	-0.942783	0.440135
C23	C	1.452781	-1.062833	0.440161
C24	C	0.949132	-0.503348	0.503554
C25	C	0.839899	-0.503356	0.503586
C26	C	1.645623	-0.503359	0.503601
C27	C	1.752837	-0.503367	0.503617
C28	C	1.394095	-0.503242	0.776135
C29	C	1.394123	-0.503199	0.892288
C30	C	1.394117	-0.230772	0.503606
C31	C	1.394154	-0.114619	0.503623
C32	C	1.394020	-0.503367	0.232054
C33	C	1.394179	-0.503116	0.115902
C34	C	1.452779	-0.439674	0.944091
C35	C	1.452809	-0.439628	1.064141
H36	H	1.502911	-0.898237	0.385807
Cl37	Cl	1.316573	-1.045885	0.587478
Cl38	Cl	1.316540	-0.959776	0.587466
Cl39	Cl	1.530348	-1.131574	0.356298
Cl40	Cl	1.530350	-0.355661	1.132916
Cl41	Cl	1.530255	-0.355727	0.875355
H42	H	1.343963	-0.557509	1.071359
Cl43	Cl	1.316617	-0.587115	0.961024
