data_functionalizedCrystal
_audit_creation_method	'MofGen! by Chris Wilmer'
_symmetry_space_group_name_H-M	'P1'
_symmetry_Int_Tables_number	1
_symmetry_cell_setting	triclinic
loop_
_symmetry_equiv_pos_as_xyz
  x,y,z
_cell_length_a	17.699104
_cell_length_b	14.853567
_cell_length_c	16.776229
_cell_angle_alpha	89.997147
_cell_angle_beta	89.991971
_cell_angle_gamma	83.463224
loop_
_atom_site_label
_atom_site_type_symbol
_atom_site_fract_x
_atom_site_fract_y
_atom_site_fract_z
O1	O	1.004365	0.114098	-0.066298
O2	O	1.504365	0.614098	0.433702
O3	O	0.784027	0.128911	-0.066295
O4	O	1.284027	0.628911	0.433705
O5	O	0.900081	-0.009747	-0.066299
O6	O	1.400081	0.490253	0.433701
O7	O	0.888310	0.252755	-0.066294
O8	O	1.388310	0.752755	0.433706
O9	O	0.900066	-0.009755	0.066278
O10	O	1.400066	0.490245	0.566278
O11	O	0.784011	0.128902	0.066282
O12	O	1.284011	0.628902	0.566282
O13	O	1.004349	0.114089	0.066279
O14	O	1.504349	0.614089	0.566279
Zn15	Zn	0.894178	0.121494	0.087330
Zn16	Zn	1.394178	0.621494	0.587330
Zn17	Zn	0.894198	0.121505	-0.087346
Zn18	Zn	1.394198	0.621505	0.412654
O19	O	0.888295	0.252746	0.066283
O20	O	1.388295	0.752746	0.566283
C21	C	0.755821	0.128372	-0.000006
C22	C	1.255821	0.628372	0.499994
C23	C	0.671800	0.126770	-0.000006
C24	C	1.171800	0.626770	0.499994
C25	C	0.899540	-0.043338	-0.000013
C26	C	1.399540	0.456662	0.499987
C27	C	0.897942	-0.143416	-0.000020
C28	C	1.397942	0.356584	0.499980
C29	C	0.147116	0.199125	-0.000013
C30	C	0.647116	0.699125	0.499987
C31	C	0.226064	0.200625	-0.000015
C32	C	0.726064	0.700625	0.499985
C33	C	0.274470	0.119228	-0.000016
C34	C	0.774470	0.619228	0.499984
C35	C	0.243925	0.036325	-0.000023
C36	C	0.743925	0.536325	0.499977
C37	C	0.164979	0.034827	-0.000027
C38	C	0.664979	0.534827	0.499973
C39	C	0.562307	0.042368	-0.000011
C40	C	1.062307	0.542368	0.499989
C41	C	0.641258	0.043873	-0.000005
C42	C	1.141258	0.543873	0.499995
C43	C	0.623392	0.208167	0.000001
C44	C	1.123392	0.708167	0.500001
C45	C	0.544446	0.206668	-0.000002
C46	C	1.044446	0.706668	0.499998
C47	C	0.513908	0.123766	-0.000013
C48	C	1.013908	0.623766	0.499987
C49	C	0.428304	0.122141	-0.000012
C50	C	0.928304	0.622141	0.499988
C51	C	0.360073	0.120852	-0.000011
C52	C	0.860073	0.620852	0.499989
C53	C	0.822247	-0.555678	-0.000004
C54	C	1.322247	-0.055678	0.499996
C55	C	0.960122	-0.577454	-0.000005
C56	C	1.460122	-0.077454	0.499995
C57	C	0.961625	-0.483426	-0.000010
C58	C	1.461625	0.016574	0.499990
C59	C	0.893438	-0.425519	-0.000010
C60	C	1.393438	0.074481	0.499990
C61	C	0.823748	-0.461640	-0.000006
C62	C	1.323748	0.038360	0.499994
C63	C	1.031314	-0.447297	-0.000006
C64	C	1.531314	0.052703	0.499994
C65	C	1.032819	-0.353263	-0.000010
C66	C	1.532819	0.146737	0.499990
C67	C	0.964631	-0.295355	-0.000016
C68	C	1.464631	0.204645	0.499984
C69	C	0.894938	-0.331481	-0.000013
C70	C	1.394938	0.168519	0.499987
C71	C	0.826751	-0.273575	-0.000013
C72	C	1.326751	0.226425	0.499987
C73	C	0.757057	-0.309700	-0.000015
C74	C	1.257057	0.190300	0.499985
C75	C	0.755559	-0.403732	-0.000012
C76	C	1.255559	0.096268	0.499988
C77	C	0.966129	-0.201323	-0.000019
C78	C	1.466129	0.298677	0.499981
C79	C	0.828252	-0.179537	-0.000015
C80	C	1.328252	0.320463	0.499985
C81	C	1.032555	0.114627	-0.000011
C82	C	1.532555	0.614627	0.499989
C83	C	1.116576	0.116229	-0.000017
C84	C	1.616576	0.616229	0.499983
C85	C	0.888836	0.286338	-0.000005
C86	C	1.388836	0.786338	0.499995
C87	C	0.890434	0.386415	-0.000003
C88	C	1.390434	0.886415	0.499997
N89	N	0.894170	0.121486	0.206541
N90	N	1.394170	0.621486	0.706541
N91	N	0.894213	0.121506	-0.206557
N92	N	1.394213	0.621506	0.293443
C93	C	0.945574	0.060114	0.248256
C94	C	1.445574	0.560114	0.748256
C95	C	0.945578	0.060113	0.331708
C96	C	1.445578	0.560113	0.831708
C97	C	0.894181	0.121490	0.373444
C98	C	1.394181	0.621490	0.873444
C99	C	0.842771	0.182865	0.331723
C100	C	1.342771	0.682865	0.831723
C101	C	0.842764	0.182861	0.248272
C102	C	1.342764	0.682861	0.748272
C103	C	0.842798	0.182883	0.668270
C104	C	1.342798	0.682883	1.168270
C105	C	0.842811	0.182884	0.751726
C106	C	1.342811	0.682884	1.251726
C107	C	0.945613	0.060135	0.751706
C108	C	1.445613	0.560135	1.251706
C109	C	0.945606	0.060131	0.668256
C110	C	1.445606	0.560131	1.168256
C111	C	0.894193	0.121502	0.626542
C112	C	1.394193	0.621502	1.126542
C113	C	0.894188	0.121501	0.536053
C114	C	1.394188	0.621501	1.036053
C115	C	0.894189	0.121496	0.463931
C116	C	1.394189	0.621496	0.963931
H117	H	0.107709	0.265409	-0.000005
H118	H	0.607709	0.765409	0.499995
H119	H	1.015637	-0.624607	0.000001
H120	H	1.515637	-0.124607	0.500001
Cl121	Cl	0.671340	-0.236892	-0.000009
Cl122	Cl	1.171340	0.263108	0.499991
H123	H	0.698818	-0.433154	-0.000013
H124	H	1.198818	0.066846	0.499987
Cl125	Cl	0.778191	0.260048	0.804193
Cl126	Cl	1.278191	0.760048	1.304193
H127	H	0.648265	0.275669	0.000007
H128	H	1.148265	0.775669	0.500007
Cl129	Cl	1.010202	-0.017043	0.384152
Cl130	Cl	1.510202	0.482957	0.884152
H131	H	0.800918	0.232836	0.365708
H132	H	1.300918	0.732836	0.865708
Cl133	Cl	1.117029	-0.520097	0.000011
Cl134	Cl	1.617029	-0.020097	0.500011
Cl135	Cl	0.126586	-0.069390	-0.000033
Cl136	Cl	0.626586	0.430610	0.499967
Cl137	Cl	0.778170	0.260037	0.615835
Cl138	Cl	1.278170	0.760037	1.115835
H139	H	0.772725	-0.132395	-0.000019
H140	H	1.272725	0.367605	0.499981
Cl141	Cl	0.778135	0.260015	0.195830
Cl142	Cl	1.278135	0.760015	0.695830
H143	H	1.089568	-0.323859	-0.000010
H144	H	1.589568	0.176141	0.499990
Cl145	Cl	1.053737	-0.155911	-0.000002
Cl146	Cl	1.553737	0.344089	0.499998
Cl147	Cl	0.264454	0.304842	-0.000013
Cl148	Cl	0.764454	0.804842	0.499987
H149	H	0.987431	0.010138	0.214281
H150	H	1.487431	0.510138	0.714281
Cl151	Cl	0.304779	-0.066003	-0.000027
Cl152	Cl	0.804779	0.433997	0.499973
H153	H	0.505036	0.272950	0.000003
H154	H	1.005036	0.772950	0.500003
H155	H	0.680670	-0.022414	-0.000008
H156	H	1.180670	0.477586	0.499992
H157	H	0.537453	-0.025135	-0.000018
H158	H	1.037453	0.474865	0.499982
H159	H	0.987461	0.010155	0.634277
H160	H	1.487461	0.510155	1.134277
H161	H	0.987474	0.010160	0.785679
H162	H	1.487474	0.510160	1.285679
H163	H	0.765504	-0.585095	-0.000008
H164	H	1.265504	-0.085095	0.499992
