data_functionalizedCrystal
_audit_creation_method	'MofGen! by Chris Wilmer'
_symmetry_space_group_name_H-M	'P1'
_symmetry_Int_Tables_number	1
_symmetry_cell_setting	triclinic
loop_
_symmetry_equiv_pos_as_xyz
  x,y,z
_cell_length_a	12.759395
_cell_length_b	12.645330
_cell_length_c	12.759387
_cell_angle_alpha	90.029414
_cell_angle_beta	90.020509
_cell_angle_gamma	90.019229
loop_
_atom_site_label
_atom_site_type_symbol
_atom_site_fract_x
_atom_site_fract_y
_atom_site_fract_z
Zn1	Zn	1.606247	-0.421940	0.594015
Zn2	Zn	1.606128	-0.599242	0.418340
Zn3	Zn	1.430545	-0.421998	0.418352
Zn4	Zn	1.430528	-0.599167	0.593979
O5	O	1.518362	-0.510587	0.506172
O6	O	1.753252	-0.445467	0.570722
O7	O	1.582794	-0.575786	0.271320
O8	O	1.453909	-0.273643	0.441674
O9	O	1.753165	-0.575730	0.441654
O10	O	1.582996	-0.273600	0.570733
O11	O	1.453794	-0.445565	0.271329
O12	O	1.283522	-0.445492	0.441639
O13	O	1.453880	-0.575601	0.741005
O14	O	1.283509	-0.575657	0.570672
O15	O	1.582980	-0.445394	0.741032
O16	O	1.582778	-0.747579	0.441619
O17	O	1.453765	-0.747524	0.570660
C18	C	1.245395	-0.510574	0.506153
C19	C	1.128618	-0.510594	0.506171
C20	C	1.518285	-0.786016	0.506157
C21	C	1.518349	-0.903846	0.506186
C22	C	1.128644	-0.646354	0.640315
C23	C	1.073796	-0.714242	0.707390
C24	C	0.964074	-0.714255	0.707403
C25	C	0.909198	-0.646370	0.640335
C26	C	0.964046	-0.578482	0.573260
C27	C	1.073770	-0.578478	0.573253
C28	C	0.964020	-0.442718	0.439123
C29	C	1.073742	-0.442709	0.439103
C30	C	0.909144	-0.374833	0.372056
C31	C	0.963992	-0.306948	0.304974
C32	C	1.073720	-0.306939	0.304963
C33	C	1.128590	-0.374820	0.372028
C34	C	1.437522	-1.071420	0.587616
C35	C	1.437108	-0.948860	0.587354
C36	C	1.488373	-0.948450	0.395464
C37	C	1.487880	-1.071049	0.395958
C38	C	1.629646	-1.070930	0.534579
C39	C	1.628964	-0.948323	0.537001
C40	C	1.792395	-0.510600	0.506190
C41	C	1.909172	-0.510606	0.506198
C42	C	1.518441	-0.510483	0.780205
C43	C	1.518475	-0.510438	0.896982
C44	C	1.518468	-0.234081	0.506209
C45	C	1.518513	-0.116251	0.506225
C46	C	1.518344	-0.510614	0.233204
C47	C	1.518513	-0.510359	0.116428
C48	C	1.652916	-0.374862	0.897029
C49	C	1.720151	-0.307058	0.951914
C50	C	1.720176	-0.307019	1.061636
C51	C	1.652958	-0.374790	1.116475
C52	C	1.585723	-0.442594	1.061591
C53	C	1.585707	-0.442627	0.951867
C54	C	1.451278	-0.578163	1.061543
C55	C	1.451256	-0.578209	0.951822
C56	C	1.384059	-0.645934	1.116383
C57	C	1.316828	-0.713745	1.061498
C58	C	1.316806	-0.713781	0.951770
C59	C	1.384021	-0.646013	0.896937
H60	H	1.217985	-0.646358	0.640303
N61	N	0.797121	-0.646351	0.640359
N62	N	0.748194	-0.563682	0.662474
H63	H	0.669037	-0.563663	0.662494
H64	H	1.384014	-0.646041	0.807596
H65	H	0.819803	-0.374843	0.372076
N66	N	1.240667	-0.374819	0.372044
N67	N	1.289671	-0.352770	0.454043
H68	H	1.368827	-0.352770	0.454062
N69	N	1.129867	-0.783567	0.775896
N70	N	1.227832	-0.783549	0.775882
H71	H	1.267431	-0.832506	0.824267
N72	N	0.907923	-0.237610	0.236490
N73	N	0.809958	-0.237622	0.236522
H74	H	0.770354	-0.188651	0.188154
N75	N	1.558648	-1.108249	0.317267
N76	N	1.608239	-1.043664	0.262153
H77	H	1.658206	-1.069931	0.206567
N78	N	1.129726	-0.237572	0.236451
N79	N	1.080713	-0.176967	0.176587
H80	H	1.120263	-0.127972	0.128200
N81	N	1.708643	-0.909876	0.468041
N82	N	1.685094	-0.848801	0.394729
H83	H	1.741364	-0.821650	0.346014
N84	N	1.652974	-0.374769	1.228553
N85	N	1.592963	-0.435285	1.277503
H86	H	1.592973	-0.435274	1.356660
H87	H	1.455863	-0.918699	0.669454
N88	N	1.384087	-0.645874	1.228460
N89	N	1.444121	-0.585331	1.277454
H90	H	1.444141	-0.585291	1.356611
N91	N	1.460894	-1.108238	0.690959
N92	N	1.537509	-1.167958	0.705834
H93	H	1.554039	-1.193941	0.778827
H94	H	1.774877	-0.251879	0.907251
H95	H	1.355647	-1.102324	0.569071
H96	H	1.354719	-0.919629	0.568570
H97	H	1.262098	-0.768912	1.106157
H98	H	1.406640	-1.099744	0.371938
N99	N	0.908026	-0.783586	0.775916
N100	N	0.846835	-0.746374	0.842930
H101	H	0.807248	-0.795338	0.891317
N102	N	1.560024	-0.911857	0.317315
N103	N	1.570124	-0.814940	0.300930
H104	H	1.620730	-0.789092	0.245740
N105	N	1.248110	-0.783041	0.895727
N106	N	1.188100	-0.843534	0.944707
H107	H	1.139580	-0.892449	0.905131
N108	N	1.387522	-0.910048	0.364792
N109	N	1.337551	-0.849843	0.424286
H110	H	1.266323	-0.822720	0.402630
N111	N	1.705332	-1.107297	0.460204
N112	N	1.677689	-1.166334	0.386606
H113	H	1.731134	-1.192022	0.334073
H114	H	1.656990	-1.101767	0.613945
H115	H	1.651570	-0.919166	0.618486
H116	H	1.774918	-0.251801	1.106323
N117	N	1.652915	-0.374898	0.784952
N118	N	1.712936	-0.314392	0.736001
H119	H	1.712937	-0.314415	0.656845
