data_functionalizedCrystal
_audit_creation_method	'MofGen! by Chris Wilmer'
_symmetry_space_group_name_H-M	'P1'
_symmetry_Int_Tables_number	1
_symmetry_cell_setting	triclinic
loop_
_symmetry_equiv_pos_as_xyz
  x,y,z
_cell_length_a	10.654550
_cell_length_b	8.559649
_cell_length_c	9.130313
_cell_angle_alpha	89.997262
_cell_angle_beta	89.999724
_cell_angle_gamma	77.131797
loop_
_atom_site_label
_atom_site_type_symbol
_atom_site_fract_x
_atom_site_fract_y
_atom_site_fract_z
O1	O	1.644682	0.224185	-0.121684
O2	O	1.276997	0.245544	-0.121710
O3	O	1.493232	0.002621	-0.121693
O4	O	1.428446	0.467107	-0.121701
O5	O	1.493220	0.002614	0.121906
O6	O	1.276984	0.245537	0.121889
O7	O	1.644669	0.224178	0.121915
Cu8	Cu	1.460826	0.234857	0.144144
Cu9	Cu	1.460840	0.234865	-0.143939
O10	O	1.428433	0.467100	0.121898
C11	C	1.230355	0.243972	0.000086
C12	C	1.091396	0.239280	0.000076
C13	C	0.997136	0.382309	0.000078
C14	C	0.866571	0.377890	0.000103
C15	C	0.924541	0.087402	0.000119
C16	C	1.055103	0.091822	0.000104
C17	C	1.498136	-0.056858	0.000104
C18	C	1.512750	-0.234076	0.000097
C19	C	1.691311	0.225750	0.000116
C20	C	1.830270	0.230442	0.000116
C21	C	1.423530	0.526579	0.000098
C22	C	1.408915	0.703797	0.000095
N23	N	1.460824	0.234850	0.346767
N24	N	1.460853	0.234859	-0.346562
C25	C	1.556598	0.127329	0.423426
C26	C	1.556610	0.127330	0.576763
C27	C	1.365070	0.342385	0.576768
C28	C	1.365054	0.342375	0.423434
H29	H	1.026680	0.502378	0.000066
N30	N	1.659862	0.011318	0.340738
H31	H	1.645319	0.027618	0.231968
H32	H	1.747079	0.030785	0.367513
N33	N	1.261795	0.458373	0.659464
H34	H	1.201119	0.526485	0.587629
H35	H	1.212246	0.396618	0.723104
N36	N	1.276352	-0.187066	0.000079
H37	H	1.227942	-0.208192	-0.090224
H38	H	1.228039	-0.208237	0.090441
N39	N	1.659920	0.011374	0.659442
H40	H	1.645401	0.027688	0.768213
H41	H	1.656362	-0.102035	0.632650
H42	H	0.789827	0.494359	0.000108
N43	N	0.885396	-0.071636	0.000157
H44	H	0.788382	-0.052735	0.000166
H45	H	0.920867	-0.134297	-0.090144
N46	N	1.156783	-0.062452	0.000119
H47	H	1.113982	-0.156536	0.000131
H48	H	1.212215	-0.066950	-0.090187
H49	H	1.612835	-0.316473	0.000116
H50	H	1.287057	0.429932	0.361013
