data_functionalizedCrystal
_audit_creation_method	'MofGen! by Chris Wilmer'
_symmetry_space_group_name_H-M	'P1'
_symmetry_Int_Tables_number	1
_symmetry_cell_setting	triclinic
loop_
_symmetry_equiv_pos_as_xyz
  x,y,z
_cell_length_a	21.395362
_cell_length_b	16.120444
_cell_length_c	21.395355
_cell_angle_alpha	92.881464
_cell_angle_beta	89.956060
_cell_angle_gamma	92.943436
loop_
_atom_site_label
_atom_site_type_symbol
_atom_site_fract_x
_atom_site_fract_y
_atom_site_fract_z
Zn1	Zn	0.945240	-0.331660	-0.367218
Zn2	Zn	1.445240	0.168340	0.132782
Zn3	Zn	0.939838	-0.471059	-0.267751
Zn4	Zn	1.439838	0.028941	0.232249
Zn5	Zn	0.840453	-0.331699	-0.262421
Zn6	Zn	1.340453	0.168301	0.237579
Zn7	Zn	0.835119	-0.471077	-0.372456
Zn8	Zn	1.335119	0.028923	0.127544
O9	O	0.890163	-0.401374	-0.317462
O10	O	1.390163	0.098626	0.182538
O11	O	1.032202	-0.350128	-0.354062
O12	O	1.532202	0.149872	0.145938
O13	O	0.926626	-0.452582	-0.179366
O14	O	1.426626	0.047418	0.320634
O15	O	0.858846	-0.215025	-0.271900
O16	O	1.358846	0.284975	0.228100
O17	O	1.028234	-0.452544	-0.280984
O18	O	1.528234	0.047456	0.219016
O19	O	0.935833	-0.214996	-0.348895
O20	O	1.435833	0.285004	0.151105
O21	O	0.853609	-0.350194	-0.175451
O22	O	1.353609	0.149806	0.324549
O23	O	0.752067	-0.350211	-0.276979
O24	O	1.252067	0.149789	0.223021
O25	O	0.849755	-0.452574	-0.459439
O26	O	1.349755	0.047426	0.040561
O27	O	0.748148	-0.452611	-0.357821
O28	O	1.248148	0.047389	0.142179
O29	O	0.930660	-0.350145	-0.455591
O30	O	1.430660	0.149855	0.044409
O31	O	0.921454	-0.587731	-0.286062
O32	O	1.421454	-0.087731	0.213938
O33	O	0.844518	-0.587743	-0.362989
O34	O	1.344518	-0.087743	0.137011
C35	C	0.727373	-0.401418	-0.317391
C36	C	1.227373	0.098582	0.182609
C37	C	0.657731	-0.401457	-0.317376
C38	C	1.157731	0.098543	0.182624
C39	C	0.622991	-0.454847	-0.359413
C40	C	1.122991	0.045153	0.140587
C41	C	0.557556	-0.454827	-0.359440
C42	C	1.057556	0.045173	0.140560
C43	C	0.526864	-0.401425	-0.317419
C44	C	1.026864	0.098575	0.182581
C45	C	0.561612	-0.348024	-0.275379
C46	C	1.061612	0.151976	0.224621
C47	C	0.627045	-0.348040	-0.275357
C48	C	1.127045	0.151960	0.224643
C49	C	0.423394	-0.394708	-0.260758
C50	C	0.923394	0.105292	0.239242
C51	C	0.357962	-0.394698	-0.260779
C52	C	0.857962	0.105302	0.239221
C53	C	0.325045	-0.401370	-0.317486
C54	C	0.825045	0.098630	0.182514
C55	C	0.357568	-0.408070	-0.374175
C56	C	0.857568	0.091930	0.125825
C57	C	0.423002	-0.408086	-0.374153
C58	C	0.923002	0.091914	0.125847
C59	C	0.455912	-0.401401	-0.317438
C60	C	0.955912	0.098599	0.182562
C61	C	0.219353	-0.454741	-0.359556
C62	C	0.719353	0.045259	0.140444
C63	C	0.153918	-0.454715	-0.359584
C64	C	0.653918	0.045285	0.140416
C65	C	0.157975	-0.347917	-0.275518
C66	C	0.657975	0.152083	0.224482
C67	C	0.223409	-0.347939	-0.275495
C68	C	0.723409	0.152061	0.224505
C69	C	0.254094	-0.401355	-0.317514
C70	C	0.754094	0.098645	0.182486
C71	C	0.881838	-0.617988	-0.325686
C72	C	1.381838	-0.117988	0.174314
C73	C	0.878334	-0.710657	-0.329225
C74	C	1.378334	-0.210657	0.170775
C75	C	0.908494	-0.921578	-0.299236
C76	C	1.408494	-0.421578	0.200764
C77	C	0.871948	-0.880318	-0.335694
C78	C	1.371948	-0.380318	0.164306
C79	C	0.875502	-0.785910	-0.332094
C80	C	1.375502	-0.285910	0.167906
C81	C	0.904940	-1.015995	-0.302835
C82	C	1.404940	-0.515995	0.197165
C83	C	1.053588	-0.401330	-0.317533
C84	C	1.553588	0.098670	0.182467
C85	C	1.123230	-0.401312	-0.317564
C86	C	1.623230	0.098688	0.182436
C87	C	0.890215	-0.401357	-0.480884
C88	C	1.390215	0.098643	0.019116
C89	C	0.890238	-0.401350	-0.550525
C90	C	1.390238	0.098650	-0.050525
C91	C	0.898537	-0.183914	-0.309219
C92	C	1.398537	0.316086	0.190781
C93	C	0.902106	-0.091245	-0.305706
C94	C	1.402106	0.408755	0.194294
C95	C	0.932363	-0.348013	-0.581236
C96	C	1.432363	0.151987	-0.081236
C97	C	0.932364	-0.347977	-0.646670
C98	C	1.432364	0.152023	-0.146670
C99	C	0.890245	-0.401293	-0.681392
C100	C	1.390245	0.098707	-0.181392
C101	C	0.848111	-0.454633	-0.650673
C102	C	1.348111	0.045367	-0.150673
C103	C	0.848108	-0.454662	-0.585240
C104	C	1.348108	0.045338	-0.085240
C105	C	0.882412	-0.476364	-0.787915
C106	C	1.382412	0.023636	-0.287915
C107	C	0.882420	-0.476337	-0.853347
C108	C	1.382420	0.023663	-0.353347
C109	C	0.890252	-0.401205	-0.883209
C110	C	1.390252	0.098795	-0.383209
C111	C	0.898089	-0.326097	-0.847631
C112	C	1.398089	0.173903	-0.347631
C113	C	0.898086	-0.326126	-0.782198
C114	C	1.398086	0.173874	-0.282198
C115	C	0.890244	-0.401268	-0.752343
C116	C	1.390244	0.098732	-0.252343
C117	C	0.932381	-0.347825	-0.984870
C118	C	1.432381	0.152175	-0.484870
C119	C	0.932377	-0.347787	-1.050306
C120	C	1.432377	0.152213	-0.550306
C121	C	0.848127	-0.454451	-1.054308
C122	C	1.348127	0.045549	-0.554308
C123	C	0.848128	-0.454481	-0.988874
C124	C	1.348128	0.045519	-0.488874
C125	C	0.890258	-0.401169	-0.954159
C126	C	1.390258	0.098831	-0.454159
C127	C	0.890149	-0.401330	-0.154672
C128	C	1.390149	0.098670	0.345328
C129	C	0.890257	-0.401103	-0.085023
C130	C	1.390257	0.098897	0.414977
H131	H	0.132986	-0.304432	-0.241306
H132	H	0.632986	0.195568	0.258694
H133	H	0.450190	-0.389271	-0.214577
H134	H	0.950190	0.110729	0.285423
O135	O	0.802683	-0.512138	-0.688122
O136	O	1.302683	-0.012138	-0.188122
H137	H	0.754059	-0.497848	-0.674987
H138	H	1.254059	0.002152	-0.174987
O139	O	0.873961	-0.557403	-0.755706
O140	O	1.373961	-0.057403	-0.255706
H141	H	0.828187	-0.588514	-0.769422
H142	H	1.328187	-0.088514	-0.269422
O143	O	0.826961	-0.927443	-0.380614
O144	O	1.326961	-0.427443	0.119386
H145	H	0.838294	-0.910749	-0.429181
H146	H	1.338294	-0.410749	0.070819
O147	O	0.953481	-0.874461	-0.254317
O148	O	1.453481	-0.374461	0.245683
H149	H	0.949246	-0.806630	-0.258507
H150	H	1.449246	-0.306630	0.241493
H151	H	0.529265	-0.498303	-0.393674
H152	H	1.029265	0.001697	0.106326
O153	O	0.260885	-0.290375	-0.230139
O154	O	0.760885	0.209625	0.269861
H155	H	0.228551	-0.253246	-0.200916
H156	H	0.728551	0.246754	0.299084
O157	O	0.906537	-0.245124	-0.743824
O158	O	1.406537	0.254876	-0.243824
H159	H	0.868272	-0.204194	-0.754788
H160	H	1.368272	0.295806	-0.254788
H161	H	0.536618	-0.304542	-0.241166
H162	H	1.036618	0.195458	0.258834
O163	O	0.977799	-0.290512	-0.543791
O164	O	1.477799	0.209488	-0.043791
H165	H	1.007090	-0.253413	-0.576144
H166	H	1.507090	0.246587	-0.076144
H167	H	0.966667	-0.304539	-0.671679
H168	H	1.466667	0.195461	-0.171679
H169	H	0.904468	-0.264917	-0.871943
H170	H	1.404468	0.235083	-0.371943
H171	H	0.813801	-0.498094	-0.560236
H172	H	1.313801	0.001906	-0.060236
H173	H	0.647970	-0.498342	-0.393629
H174	H	1.147970	0.001658	0.106371
O175	O	0.977811	-0.290318	-0.947420
O176	O	1.477811	0.209682	-0.447420
H177	H	1.007097	-0.253212	-0.979770
H178	H	1.507097	0.246788	-0.479770
O179	O	0.977815	-0.290259	-1.083434
O180	O	1.477815	0.209741	-0.583434
H181	H	1.007113	-0.253201	-1.048299
H182	H	1.507113	0.246799	-0.548299
O183	O	0.873966	-0.557346	-0.891711
O184	O	1.373966	-0.057346	-0.391711
H185	H	0.915615	-0.565845	-0.921872
H186	H	1.415615	-0.065845	-0.421872
H187	H	0.331486	-0.389248	-0.214620
H188	H	0.831486	0.110752	0.285380
H189	H	0.244339	-0.498232	-0.393774
H190	H	0.744339	0.001768	0.106226
H191	H	0.655331	-0.304561	-0.241125
H192	H	1.155331	0.195439	0.258875
O193	O	0.802696	-0.512006	-0.955737
O194	O	1.302696	-0.012006	-0.455737
H195	H	0.772259	-0.474694	-0.924487
H196	H	1.272259	0.025306	-0.424487
H197	H	0.449479	-0.413539	-0.420311
H198	H	0.949479	0.086461	0.079689
O199	O	0.802696	-0.511959	-1.091747
O200	O	1.302696	-0.011959	-0.591747
H201	H	0.809776	-0.502982	-1.142407
H202	H	1.309776	-0.002982	-0.642407
H203	H	0.125633	-0.498190	-0.393820
H204	H	0.625633	0.001810	0.106180
H205	H	0.330769	-0.413502	-0.420352
H206	H	0.830769	0.086498	0.079648
