data_functionalizedCrystal
_audit_creation_method	'MofGen! by Chris Wilmer'
_symmetry_space_group_name_H-M	'P1'
_symmetry_Int_Tables_number	1
_symmetry_cell_setting	triclinic
loop_
_symmetry_equiv_pos_as_xyz
  x,y,z
_cell_length_a	11.792241
_cell_length_b	12.837942
_cell_length_c	11.295483
_cell_angle_alpha	85.469583
_cell_angle_beta	94.129266
_cell_angle_gamma	89.511178
loop_
_atom_site_label
_atom_site_type_symbol
_atom_site_fract_x
_atom_site_fract_y
_atom_site_fract_z
O1	O	-1.528213	-0.135234	-0.098907
O2	O	-1.199360	-0.149884	-0.098935
O3	O	-1.356494	0.008384	-0.098914
O4	O	-1.371079	-0.293502	-0.098928
O5	O	-1.342690	-0.005495	0.099135
O6	O	-1.185556	-0.163764	0.099114
O7	O	-1.514409	-0.149114	0.099142
Cu8	Cu	-1.348722	-0.157706	0.117212
Cu9	Cu	-1.365047	-0.141292	-0.117004
O10	O	-1.357275	-0.307382	0.099121
C11	C	-1.150074	-0.155903	0.000086
C12	C	-1.023782	-0.153148	0.000076
C13	C	-1.344666	0.040093	0.000109
C14	C	-1.329972	0.155253	0.000106
C15	C	-1.563695	-0.143094	0.000118
C16	C	-1.689988	-0.145849	0.000121
C17	C	-0.792553	-0.148085	0.000110
C18	C	-0.921225	-0.150898	0.000091
C19	C	-1.369104	-0.339090	0.000095
C20	C	-1.383798	-0.454250	0.000091
C21	C	-1.506618	0.395219	0.000096
C22	C	-1.492818	0.503423	0.000093
C23	C	-1.288572	0.479866	0.000088
C24	C	-1.302372	0.371663	0.000091
C25	C	-1.411399	0.329343	0.000097
C26	C	-1.425198	0.221137	0.000109
C27	C	-1.220954	0.197583	0.000095
C28	C	-1.207153	0.305787	0.000092
N29	N	-1.337249	-0.169250	0.281946
N30	N	-1.376529	-0.129739	-0.281739
C31	C	-1.459116	-0.046580	0.531252
C32	C	-1.450454	-0.055311	0.655914
C33	C	-1.311258	-0.195439	0.655936
C34	C	-1.319920	-0.186707	0.531274
C35	C	-1.393852	-0.112277	0.468936
C36	C	-1.402519	-0.103551	0.344271
C37	C	-1.263318	-0.243673	0.344295
C38	C	-1.254656	-0.252404	0.468958
H39	H	-1.513973	0.186682	0.000118
H40	H	-1.210180	-0.297170	0.293543
O41	O	-1.101319	0.347036	-0.000069
C42	C	-0.974324	0.462665	-0.102711
C43	C	-1.094232	0.416052	-0.102667
H44	H	-0.968547	0.518458	-0.185664
H45	H	-0.956968	0.507005	-0.019886
H46	H	-0.908653	0.396972	-0.102647
H47	H	-1.159978	0.481681	-0.102772
H48	H	-1.111490	0.371685	-0.185484
O49	O	-1.239272	-0.267616	0.716455
C50	C	-1.045721	-0.329868	0.754592
C51	C	-1.127119	-0.248056	0.685997
H52	H	-0.955031	-0.314097	0.729973
H53	H	-1.050643	-0.324808	0.854407
H54	H	-1.071250	-0.411323	0.730115
H55	H	-1.101646	-0.166564	0.710375
H56	H	-1.122185	-0.253208	0.586199
O57	O	-1.182678	-0.324593	0.529467
C58	C	-0.989138	-0.386880	0.567587
C59	C	-1.070522	-0.305046	0.499010
H60	H	-0.898446	-0.371118	0.542969
H61	H	-0.994056	-0.381833	0.667405
H62	H	-1.014683	-0.468326	0.543093
H63	H	-1.045032	-0.223563	0.523404
H64	H	-1.065593	-0.310184	0.399209
O65	O	-1.530804	0.025844	0.470729
C66	C	-1.580576	0.208453	0.432582
C67	C	-1.499288	0.126552	0.501183
H68	H	-1.555139	0.289892	0.457198
H69	H	-1.575537	0.203484	0.332768
H70	H	-1.671293	0.192601	0.457057
H71	H	-1.408535	0.142350	0.476808
H72	H	-1.504425	0.131540	0.600981
H73	H	-1.143418	0.143934	0.000106
H74	H	-1.503596	-0.001813	0.706649
H75	H	-1.595391	0.360761	0.000112
O76	O	-1.474196	-0.031092	0.283793
C77	C	-1.523880	0.151547	0.245788
C78	C	-1.442614	0.069583	0.314309
H79	H	-1.498391	0.232959	0.270454
H80	H	-1.518879	0.146627	0.145961
H81	H	-1.614595	0.135718	0.270284
H82	H	-1.351864	0.085357	0.289913
H83	H	-1.447715	0.074521	0.414119
O84	O	-1.585431	0.567262	0.000148
C85	C	-1.789477	0.579209	0.000077
C86	C	-1.684684	0.506789	0.000046
H87	H	-1.869751	0.530348	-0.000030
H88	H	-1.782431	0.624632	0.082978
H89	H	-1.793827	0.636280	-0.082788
H90	H	-1.680270	0.449658	0.082855
H91	H	-1.691773	0.461441	-0.082910
H92	H	-1.199808	0.514343	0.000071
