data_functionalizedCrystal
_audit_creation_method	'MofGen! by Chris Wilmer'
_symmetry_space_group_name_H-M	'P1'
_symmetry_Int_Tables_number	1
_symmetry_cell_setting	triclinic
loop_
_symmetry_equiv_pos_as_xyz
  x,y,z
_cell_length_a	12.837943
_cell_length_b	19.188930
_cell_length_c	11.892095
_cell_angle_alpha	93.870839
_cell_angle_beta	85.689438
_cell_angle_gamma	88.986861
loop_
_atom_site_label
_atom_site_type_symbol
_atom_site_fract_x
_atom_site_fract_y
_atom_site_fract_z
O1	O	1.381278	0.177430	-0.094009
O2	O	1.079513	0.168466	-0.094014
O3	O	1.239102	0.071891	-0.093990
O4	O	1.221689	0.274006	-0.094034
O5	O	1.225796	0.079929	0.094016
O6	O	1.066207	0.176505	0.093991
O7	O	1.367972	0.185469	0.093996
Zn8	Zn	1.214977	0.182263	0.123844
Zn9	Zn	1.232508	0.171672	-0.123862
O10	O	1.208383	0.282044	0.093971
C11	C	1.034253	0.169458	-0.000012
C12	C	0.919217	0.160427	-0.000013
C13	C	0.677767	0.268994	-0.000021
C14	C	0.569680	0.260512	-0.000021
C15	C	0.594952	0.134982	-0.000005
C16	C	0.703040	0.143464	-0.000005
C17	C	0.744443	0.210472	-0.000015
C18	C	0.852533	0.218953	-0.000023
C19	C	0.877803	0.093423	0.000001
C20	C	0.769716	0.084941	0.000001
C21	C	1.231885	0.049861	0.000016
C22	C	1.230191	-0.027760	0.000026
C23	C	1.323833	-0.066260	0.000033
C24	C	1.322244	-0.139194	0.000015
C25	C	1.227006	-0.173623	0.000012
C26	C	1.133352	-0.135114	-0.000001
C27	C	1.134944	-0.062182	0.000006
N28	N	1.149679	-0.283886	0.063993
N29	N	1.148172	-0.353168	0.063989
C30	C	1.222201	-0.393362	-0.000010
N31	N	1.297809	-0.361657	-0.063992
N32	N	1.299318	-0.292369	-0.063982
C33	C	1.225268	-0.252705	0.000004
C34	C	1.314126	-0.510946	-0.000025
C35	C	1.312534	-0.583882	-0.000050
C36	C	1.123638	-0.579799	-0.000054
C37	C	1.125234	-0.506866	-0.000041
C38	C	1.220481	-0.472444	-0.000020
C39	C	1.413232	0.184477	-0.000009
C40	C	1.528268	0.193508	-0.000015
C41	C	1.215600	0.304074	-0.000037
C42	C	1.217294	0.381694	-0.000054
N43	N	1.203020	0.189491	0.292896
N44	N	1.244474	0.164439	-0.292914
C45	C	1.327677	0.114101	0.529563
C46	C	1.319327	0.119160	0.647904
C47	C	1.177964	0.204661	0.647920
C48	C	1.186314	0.199603	0.529579
C49	C	1.261175	0.154323	0.470405
C50	C	1.269529	0.149269	0.352062
C51	C	1.128162	0.234767	0.352080
C52	C	1.119812	0.239825	0.470421
H53	H	0.711478	0.323555	-0.000030
H54	H	0.561216	0.080430	0.000095
H55	H	1.048980	-0.475518	-0.000040
O56	O	1.416856	-0.473818	-0.000026
H57	H	1.416687	-0.437426	0.076612
H58	H	1.373479	0.086407	0.696067
O59	O	1.020912	-0.616923	-0.000048
H60	H	1.021091	-0.653325	-0.076674
O61	O	0.725057	0.012671	0.000017
H62	H	0.681843	0.002527	-0.076612
H63	H	1.074014	0.267520	0.303900
H64	H	1.117008	0.241523	0.696115
H65	H	1.388792	-0.615228	-0.000050
O66	O	0.949722	0.030299	0.000010
H67	H	0.929610	0.001846	0.076639
O68	O	1.039081	0.288664	0.534254
H69	H	1.053650	0.342986	0.511519
O70	O	1.350260	0.100429	0.288230
H71	H	1.395091	0.073304	0.349254
H72	H	1.401391	-0.038239	0.000046
O73	O	0.897197	0.291223	-0.000018
H74	H	0.832668	0.330492	-0.000006
O75	O	0.497760	0.323631	-0.000033
H76	H	0.544715	0.371648	-0.000047
H77	H	1.398501	-0.170548	0.000016
O78	O	1.030625	-0.172240	0.000009
H79	H	1.045248	-0.229423	0.000021
O80	O	1.033936	-0.020652	0.000020
H81	H	0.993757	-0.036938	-0.076605
O82	O	1.408414	0.065267	0.465727
H83	H	1.453254	0.038146	0.526746
