data_functionalizedCrystal
_audit_creation_method	'MofGen! by Chris Wilmer'
_symmetry_space_group_name_H-M	'P1'
_symmetry_Int_Tables_number	1
_symmetry_cell_setting	triclinic
loop_
_symmetry_equiv_pos_as_xyz
  x,y,z
_cell_length_a	10.908937
_cell_length_b	12.376903
_cell_length_c	11.026607
_cell_angle_alpha	80.118381
_cell_angle_beta	95.664014
_cell_angle_gamma	104.727913
loop_
_atom_site_label
_atom_site_type_symbol
_atom_site_fract_x
_atom_site_fract_y
_atom_site_fract_z
O1	O	1.636872	-0.094033	0.194679
O2	O	1.283942	-0.094027	0.104142
O3	O	1.431157	-0.094025	0.320160
O4	O	1.489656	-0.094034	-0.021339
O5	O	1.482273	0.093972	0.288933
O6	O	1.335057	0.093970	0.072914
O7	O	1.687988	0.093964	0.163452
Zn8	Zn	1.519638	0.123815	0.113225
Zn9	Zn	1.452291	-0.123878	0.154369
O10	O	1.540772	0.093962	-0.052567
C11	C	1.263614	-0.000028	0.080067
C12	C	1.126888	-0.000025	0.054869
C13	C	0.915305	-0.000044	0.120783
C14	C	1.056623	-0.000029	0.146825
N15	N	1.565609	0.292860	0.085148
C16	C	1.299558	0.647925	0.247616
C17	C	1.267362	0.529595	0.267266
C18	C	1.341921	0.470406	0.221737
C19	C	1.448681	0.529558	0.156557
C20	C	1.480886	0.647899	0.136913
C21	C	1.523249	0.470380	0.111035
C22	C	1.630010	0.529531	0.045855
C23	C	1.662209	0.647862	0.026214
C24	C	1.587650	0.707051	0.071742
C25	C	1.491045	0.352038	0.130679
C26	C	1.672373	0.352012	0.019976
C27	C	1.704569	0.470342	0.000327
C28	C	1.708314	-0.000038	0.187527
C29	C	1.845039	-0.000048	0.212726
C30	C	1.445923	-0.000028	0.347579
C31	C	1.413749	-0.000031	0.475802
N32	N	1.406321	0.707077	0.182444
C33	C	1.526006	-0.000037	-0.079986
C34	C	1.558178	-0.000041	-0.208207
C35	C	1.502582	-0.000035	0.567534
C36	C	1.469331	-0.000038	0.700060
H37	H	1.082430	-0.000035	-0.043133
H38	H	1.658832	-0.000128	0.772240
O39	O	1.293722	0.000017	0.499349
C40	C	1.151113	-0.000062	0.652923
C41	C	1.287102	-0.000089	0.626429
H42	H	1.145710	-0.000172	0.755669
H43	H	1.124823	0.078634	0.598370
H44	H	1.082101	-0.078719	0.624344
H45	H	1.356205	0.078514	0.655014
H46	H	1.313286	-0.078837	0.680967
H47	H	1.180440	0.481442	0.320339
H48	H	1.101080	-0.000028	0.244829
O49	O	0.862274	-0.000255	0.003884
C50	C	0.813056	-0.097627	-0.172797
C51	C	0.873126	-0.097541	-0.040403
H52	H	0.821833	-0.176263	-0.208652
H53	H	0.708503	-0.097712	-0.173029
H54	H	0.864444	-0.018914	-0.234759
H55	H	0.821838	-0.176241	0.021635
H56	H	0.977684	-0.097397	-0.040269
O57	O	1.622646	-0.000239	0.544286
C58	C	1.791040	-0.097611	0.585582
C59	C	1.655044	-0.097530	0.611994
H60	H	1.817286	-0.176250	0.640329
H61	H	1.796508	-0.097684	0.482881
H62	H	1.860045	-0.018901	0.614046
H63	H	1.585959	-0.176227	0.583604
H64	H	1.649681	-0.097399	0.714697
O65	O	1.310671	0.355461	0.240594
C66	C	1.252131	0.185663	0.147509
C67	C	1.287546	0.315842	0.125984
H68	H	1.233398	0.153592	0.054864
H69	H	1.333628	0.153440	0.201652
H70	H	1.163052	0.153582	0.201962
H71	H	1.376591	0.348020	0.071498
H72	H	1.205975	0.347988	0.071894
H73	H	1.238870	0.696129	0.284687
H74	H	0.889501	-0.000047	0.310723
H75	H	1.404119	0.303888	0.183748
O76	O	1.349226	-0.000190	0.723572
C77	C	1.162708	-0.097626	0.833702
C78	C	1.298719	-0.097580	0.807205
H79	H	1.121822	-0.176369	0.901301
H80	H	1.164538	-0.019006	0.875339
H81	H	1.101034	-0.097567	0.743999
H82	H	1.360470	-0.097679	0.896854
H83	H	1.296790	-0.176193	0.765515
O84	O	1.765928	0.705148	-0.037167
C85	C	1.942424	0.692630	-0.144834
C86	C	1.824980	0.627616	-0.073102
H87	H	1.990216	0.629974	-0.173886
H88	H	1.912016	0.748015	-0.230270
H89	H	2.012039	0.748048	-0.083368
H90	H	1.755316	0.572137	-0.134467
H91	H	1.855483	0.572303	0.012344
H92	H	1.613854	0.803405	0.055740
O93	O	1.744809	0.294655	-0.024460
C94	C	1.827898	0.258389	-0.203961
C95	C	1.745861	0.323443	-0.153808
H96	H	1.828753	0.281622	-0.308546
H97	H	1.929043	0.281653	-0.161794
H98	H	1.786555	0.163657	-0.178666
H99	H	1.787092	0.418190	-0.179086
H100	H	1.644725	0.300085	-0.195971
H101	H	1.791495	0.518520	-0.052745
