data_functionalizedCrystal
_audit_creation_method	'MofGen! by Chris Wilmer'
_symmetry_space_group_name_H-M	'P1'
_symmetry_Int_Tables_number	1
_symmetry_cell_setting	triclinic
loop_
_symmetry_equiv_pos_as_xyz
  x,y,z
_cell_length_a	25.639243
_cell_length_b	25.639240
_cell_length_c	25.639233
_cell_angle_alpha	90.020815
_cell_angle_beta	89.984038
_cell_angle_gamma	89.954114
loop_
_atom_site_label
_atom_site_type_symbol
_atom_site_fract_x
_atom_site_fract_y
_atom_site_fract_z
Zn1	Zn	0.799209	0.208176	-0.295648
Zn2	Zn	0.799125	0.295595	-0.208209
Zn3	Zn	0.711785	0.208180	-0.208222
Zn4	Zn	0.711723	0.295587	-0.295609
O5	O	0.755461	0.251885	-0.251922
O6	O	0.872363	0.219775	-0.284061
O7	O	0.787531	0.284004	-0.135046
O8	O	0.723443	0.135014	-0.219841
O9	O	0.872302	0.284001	-0.219820
O10	O	0.787673	0.135012	-0.284073
O11	O	0.723362	0.219781	-0.135055
O12	O	0.638612	0.219772	-0.219802
O13	O	0.723338	0.283987	-0.368779
O14	O	0.638566	0.283990	-0.284005
O15	O	0.787613	0.219767	-0.368808
O16	O	0.787471	0.368759	-0.219781
O17	O	0.723257	0.368753	-0.283993
C18	C	0.619618	0.251881	-0.251901
C19	C	0.561504	0.251892	-0.251905
C20	C	0.201167	0.218495	-0.285428
C21	C	0.146563	0.218494	-0.285431
O22	O	0.118349	0.190088	-0.313908
N23	N	0.119222	0.251883	-0.251936
C24	C	0.146487	0.285271	-0.218432
O25	O	0.118217	0.313670	-0.189942
C26	C	0.201091	0.285268	-0.218427
C27	C	0.228429	0.251881	-0.251928
C28	C	0.228506	0.185109	-0.318926
C29	C	0.283106	0.185111	-0.318923
C30	C	0.310368	0.218497	-0.285423
C31	C	0.283030	0.251882	-0.251925
C32	C	0.228355	0.318653	-0.184921
C33	C	0.282962	0.318647	-0.184918
C34	C	0.310301	0.285260	-0.218418
C35	C	0.364892	0.285270	-0.218422
N36	N	0.392234	0.251881	-0.251917
C37	C	0.364972	0.218494	-0.285417
C38	C	0.031817	0.285273	-0.218446
C39	C	-0.022786	0.285279	-0.218453
C40	C	-0.022706	0.218501	-0.285452
C41	C	0.031897	0.218499	-0.285446
C42	C	0.059158	0.251884	-0.251941
C43	C	0.479637	0.218500	-0.285409
C44	C	0.534242	0.218506	-0.285405
C45	C	0.534158	0.285281	-0.218405
C46	C	0.479557	0.285278	-0.218411
C47	C	0.452298	0.251883	-0.251915
O48	O	0.393141	0.313659	-0.189958
O49	O	0.393248	0.190095	-0.313898
C50	C	0.755362	0.387727	-0.251893
C51	C	0.755368	0.445841	-0.251898
C52	C	0.788941	0.806195	-0.218524
C53	C	0.788957	0.860799	-0.218529
O54	O	0.817432	0.889028	-0.190136
N55	N	0.755503	0.888124	-0.251934
C56	C	0.722034	0.860841	-0.285339
O57	O	0.693581	0.889096	-0.313754
C58	C	0.722022	0.806238	-0.285337
C59	C	0.755474	0.778916	-0.251926
C60	C	0.822391	0.778873	-0.185116
C61	C	0.822374	0.724273	-0.185111
C62	C	0.788907	0.696994	-0.218513
C63	C	0.755457	0.724315	-0.251920
C64	C	0.688556	0.778956	-0.318745
C65	C	0.688546	0.724349	-0.318739
C66	C	0.721999	0.697027	-0.285329
C67	C	0.721973	0.642436	-0.285317
N68	N	0.755427	0.615112	-0.251912
C69	C	0.788894	0.642390	-0.218510
C70	C	0.722065	0.975512	-0.285343
C71	C	0.722075	1.030114	-0.285344
C72	C	0.788998	1.030068	-0.218534
C73	C	0.788985	0.975465	-0.218531
C74	C	0.755519	0.948187	-0.251939
C75	C	0.788856	0.527725	-0.218500
C76	C	0.788835	0.473120	-0.218496
C77	C	0.721914	0.473170	-0.285308
C78	C	0.721933	0.527771	-0.285310
C79	C	0.755408	0.555047	-0.251905
O80	O	0.693514	0.614173	-0.313696
O81	O	0.817348	0.614128	-0.190105
C82	C	0.891834	0.251889	-0.251943
C83	C	0.949948	0.251890	-0.251952
C84	C	0.755478	0.251875	-0.388295
C85	C	0.755485	0.251871	-0.446409
C86	C	0.755554	1.115512	-0.251953
C87	C	0.755544	1.057397	-0.251944
C88	C	0.788995	0.218333	-0.806793
C89	C	0.789002	0.218318	-0.861397
O90	O	0.817451	0.189864	-0.889652
N91	N	0.755542	0.251749	-0.888692
C92	C	0.722071	0.285192	-0.861379
O93	O	0.693611	0.313626	-0.889609
C94	C	0.722062	0.285204	-0.806776
C95	C	0.755527	0.251775	-0.779484
C96	C	0.822457	0.184906	-0.779501
C97	C	0.822451	0.184921	-0.724901
C98	C	0.788983	0.218363	-0.697592
C99	C	0.755521	0.251790	-0.724884
C100	C	0.688588	0.318644	-0.779464
C101	C	0.688582	0.318653	-0.724857
C102	C	0.722047	0.285224	-0.697565
C103	C	0.722047	0.285247	-0.642974
N104	N	0.755507	0.251817	-0.615680
C105	C	0.788975	0.218375	-0.642989
C106	C	0.722091	0.285165	-0.976050
C107	C	0.722102	0.285157	-1.030652
C108	C	0.789032	0.218282	-1.030667
C109	C	0.789024	0.218293	-0.976063
C110	C	0.755550	0.251735	-0.948755
C111	C	0.788960	0.218410	-0.528323
C112	C	0.788953	0.218429	-0.473718
C113	C	0.722021	0.285302	-0.473708
C114	C	0.722030	0.285285	-0.528309
C115	C	0.755501	0.251834	-0.555615
O116	O	0.693611	0.313686	-0.614685
O117	O	0.817425	0.189941	-0.614752
C118	C	0.755474	0.251856	-0.116080
C119	C	0.755568	0.251713	-0.057966
H120	H	0.457449	0.191305	-0.312690
H121	H	0.849646	0.801078	-0.157916
H122	H	0.661337	0.345866	-0.801675
N123	N	0.654393	0.806863	-0.352875
N124	N	0.654404	0.855616	-0.352884
H125	H	0.630275	0.875325	-0.376990
N126	N	0.823004	0.445204	-0.184369
N127	N	0.822984	0.396452	-0.184363
H128	H	0.847114	0.376737	-0.160261
H129	H	0.816225	0.953223	-0.191325
N130	N	0.200429	0.352753	-0.150703
N131	N	0.169938	0.386102	-0.169028
H132	H	0.150213	0.410185	-0.144858
N133	N	0.562167	0.184390	-0.319618
N134	N	0.592654	0.151044	-0.301281
H135	H	0.612374	0.126949	-0.325441
H136	H	0.694832	0.312400	-0.953819
N137	N	0.823137	0.184272	-0.445850
N138	N	0.819707	0.136026	-0.451957
H139	H	0.843849	0.111901	-0.432277
H140	H	0.556365	0.312465	-0.191131
N141	N	0.311026	0.150992	-0.353131
N142	N	0.341508	0.117642	-0.334793
H143	H	0.361223	0.093542	-0.358953
N144	N	0.654382	0.352813	-0.696972
N145	N	0.624507	0.382654	-0.721350
H146	H	0.600353	0.406780	-0.701657
H147	H	0.816250	1.052289	-0.191338
H148	H	0.457297	0.312470	-0.191138
H149	H	0.694857	0.312384	-1.052868
H150	H	0.849711	0.157671	-0.801731
N151	N	0.310816	0.352753	-0.150700
N152	N	0.359568	0.352754	-0.150700
H153	H	0.379240	0.376842	-0.126535
H154	H	0.849701	0.157699	-0.702685
N155	N	0.687849	0.319433	-0.556189
N156	N	0.706206	0.352747	-0.586662
H157	H	0.682060	0.376863	-0.606347
H158	H	0.816214	0.191169	-0.550550
H159	H	0.694773	0.312531	-0.451463
H160	H	0.206315	0.157919	-0.346206
N161	N	0.823211	0.184144	-0.948196
N162	N	0.853091	0.154291	-0.972592
H163	H	0.877237	0.130170	-0.952914
H164	H	0.054153	0.191310	-0.312725
N165	N	0.856549	0.696377	-0.150979
N166	N	0.886426	0.720748	-0.121162
H167	H	0.910566	0.701050	-0.097056
H168	H	0.694830	1.052355	-0.312545
N169	N	-0.050567	0.184401	-0.319671
N170	N	-0.099320	0.184411	-0.319666
H171	H	-0.118999	0.160330	-0.343831
H172	H	-0.045040	0.312472	-0.191180
N173	N	0.654358	0.696478	-0.352857
N174	N	0.654344	0.647726	-0.352850
H175	H	0.630199	0.628042	-0.376944
N176	N	0.823052	0.555574	-0.184374
N177	N	0.852911	0.531164	-0.154549
H178	H	0.877060	0.550832	-0.130444
H179	H	0.694808	0.953304	-0.312546
N180	N	0.059653	0.319383	-0.184216
N181	N	0.035230	0.349189	-0.154314
H182	H	0.054886	0.373279	-0.130139
H183	H	0.694695	0.550017	-0.312518
N184	N	0.687729	0.445292	-0.319418
N185	N	0.687723	0.396539	-0.319404
H186	H	0.663581	0.376848	-0.343496
N187	N	0.823217	0.184124	-1.058576
N188	N	0.823214	0.184121	-1.107328
H189	H	0.847356	0.159999	-1.127042
