data_functionalizedCrystal
_audit_creation_method	'MofGen! by Chris Wilmer'
_symmetry_space_group_name_H-M	'P1'
_symmetry_Int_Tables_number	1
_symmetry_cell_setting	triclinic
loop_
_symmetry_equiv_pos_as_xyz
  x,y,z
_cell_length_a	16.959455
_cell_length_b	12.594516
_cell_length_c	16.959447
_cell_angle_alpha	89.973903
_cell_angle_beta	89.977004
_cell_angle_gamma	90.015193
loop_
_atom_site_label
_atom_site_type_symbol
_atom_site_fract_x
_atom_site_fract_y
_atom_site_fract_z
Zn1	Zn	1.208415	-0.423805	-0.447060
Zn2	Zn	1.208336	-0.601812	-0.314891
Zn3	Zn	1.076237	-0.423839	-0.314884
Zn4	Zn	1.076212	-0.601732	-0.447016
O5	O	1.142300	-0.512797	-0.380963
O6	O	1.319015	-0.447437	-0.429549
O7	O	1.190790	-0.578251	-0.204279
O8	O	1.093814	-0.274888	-0.332432
O9	O	1.318957	-0.578218	-0.332446
O10	O	1.190925	-0.274864	-0.429542
O11	O	1.093738	-0.447495	-0.204274
O12	O	0.965623	-0.447418	-0.332389
O13	O	1.093772	-0.578082	-0.557633
O14	O	0.965605	-0.578115	-0.429467
O15	O	1.190900	-0.447360	-0.557665
O16	O	1.190766	-0.750747	-0.332403
O17	O	1.093695	-0.750689	-0.429474
C18	C	0.936934	-0.512762	-0.380923
C19	C	0.849077	-0.512773	-0.380925
C20	C	0.477561	-0.580827	-0.330375
C21	C	0.477642	-0.444855	-0.431647
C22	C	0.560188	-0.444838	-0.431627
C23	C	0.601424	-0.512817	-0.380982
C24	C	0.560114	-0.580814	-0.330356
C25	C	0.601505	-0.376849	-0.482258
C26	C	0.684055	-0.376830	-0.482242
C27	C	0.725293	-0.444805	-0.431592
C28	C	0.683978	-0.512804	-0.380963
C29	C	0.725213	-0.580783	-0.330318
C30	C	0.683900	-0.648778	-0.279684
C31	C	0.601351	-0.648789	-0.279706
C32	C	0.807841	-0.444794	-0.431570
C33	C	0.807767	-0.580770	-0.330298
C34	C	1.142241	-0.789338	-0.380952
C35	C	1.142287	-0.907643	-0.380974
C36	C	1.089534	-1.047667	-0.433744
C37	C	1.161593	-0.976761	-0.453143
C38	C	1.070235	-0.976978	-0.361610
C39	C	1.214514	-1.047523	-0.400439
C40	C	1.123107	-1.047746	-0.308873
C41	C	1.195217	-0.976872	-0.328244
C42	C	1.348468	-0.512833	-0.381003
C43	C	1.436325	-0.512848	-0.381020
C44	C	1.142342	-0.512708	-0.587131
C45	C	1.142360	-0.512671	-0.674988
C46	C	1.142381	-0.235176	-0.380991
C47	C	1.142416	-0.116871	-0.381003
C48	C	1.091899	-0.444480	-1.046467
C49	C	1.192960	-0.580638	-1.046460
C50	C	1.192947	-0.580662	-0.963914
C51	C	1.142408	-0.512596	-0.922641
C52	C	1.091882	-0.444505	-0.963913
C53	C	1.243466	-0.648760	-0.922636
C54	C	1.243453	-0.648788	-0.840085
C55	C	1.192918	-0.580716	-0.798810
C56	C	1.142391	-0.512621	-0.840087
C57	C	1.091852	-0.444555	-0.798814
C58	C	1.041328	-0.376454	-0.840090
C59	C	1.041347	-0.376432	-0.922638
C60	C	1.192899	-0.580737	-0.716261
C61	C	1.091835	-0.444580	-0.716260
C62	C	1.142303	-0.512808	-0.175596
C63	C	1.142438	-0.512546	-0.087740
H64	H	0.443919	-0.636184	-0.289148
H65	H	1.239934	-0.945984	-0.283630
H66	H	1.000212	-0.320990	-0.956252
N67	N	0.989450	-0.935934	-0.339891
H68	H	0.974506	-0.962867	-0.285808
H69	H	0.990176	-0.855750	-0.339584
N70	N	1.030449	-1.088859	-0.492882
H71	H	0.989414	-1.133083	-0.464834
H72	H	1.004004	-1.027017	-0.520044
H73	H	1.050683	-0.389146	-0.682661
N74	N	0.556790	-0.722134	-0.225111
H75	H	0.595437	-0.765198	-0.193023
H76	H	0.522517	-0.678758	-0.188595
H77	H	1.050767	-0.389031	-1.080077
H78	H	1.000176	-0.321039	-0.806474
H79	H	0.841335	-0.636124	-0.289054
N80	N	0.433172	-0.371544	-0.486274
H81	H	0.374608	-0.381873	-0.478605
H82	H	0.447598	-0.295504	-0.474062
H83	H	0.567924	-0.321511	-0.523496
N84	N	1.247457	-0.654064	-1.090972
H85	H	1.239797	-0.643721	-1.149529
H86	H	1.303913	-0.637518	-1.076564
H87	H	1.284603	-0.704188	-0.956247
H88	H	1.284592	-0.704241	-0.806485
N89	N	1.247380	-0.654188	-0.671744
H90	H	1.279393	-0.697306	-0.710420
H91	H	1.283970	-0.610885	-0.637510
H92	H	0.717686	-0.321464	-0.523470
H93	H	0.717485	-0.704132	-0.238453
H94	H	1.275520	-1.078384	-0.416900
N95	N	1.183167	-0.935459	-0.533922
H96	H	1.143239	-0.961205	-0.573738
H97	H	1.183473	-0.855278	-0.533110
H98	H	1.106804	-1.078947	-0.247904
N99	N	0.852402	-0.371475	-0.486180
H100	H	0.813753	-0.328418	-0.518269
H101	H	0.886636	-0.322154	-0.454062
