data_functionalizedCrystal
_audit_creation_method	'MofGen! by Chris Wilmer'
_symmetry_space_group_name_H-M	'P1'
_symmetry_Int_Tables_number	1
_symmetry_cell_setting	triclinic
loop_
_symmetry_equiv_pos_as_xyz
  x,y,z
_cell_length_a	14.044191
_cell_length_b	14.044220
_cell_length_c	13.930277
_cell_angle_alpha	89.994760
_cell_angle_beta	89.995225
_cell_angle_gamma	93.190327
loop_
_atom_site_label
_atom_site_type_symbol
_atom_site_fract_x
_atom_site_fract_y
_atom_site_fract_z
O1	O	1.277176	0.230199	-0.079789
O2	O	1.000504	0.221887	-0.079801
O3	O	1.134687	0.087707	-0.079785
O4	O	1.142993	0.364379	-0.079804
O5	O	1.134667	0.087702	0.079876
O6	O	1.000483	0.221882	0.079861
O7	O	1.277156	0.230195	0.079873
Zn8	Zn	1.138816	0.226038	0.105217
Zn9	Zn	1.138843	0.226044	-0.105144
O10	O	1.142972	0.364374	0.079858
C11	C	0.964872	0.218248	0.000029
C12	C	0.858728	0.207401	0.000024
C13	C	0.613270	0.264501	0.000030
C14	C	0.664395	0.187585	0.000034
C15	C	0.772532	0.198613	0.000029
C16	C	0.505123	0.253474	0.000035
C17	C	1.131041	0.052083	0.000046
C18	C	1.120197	-0.054060	0.000046
C19	C	1.100370	-0.248398	0.000032
C20	C	1.177285	-0.299526	0.000032
C21	C	1.166253	-0.407663	0.000024
C22	C	1.111400	-0.140252	0.000040
C23	C	1.312788	0.233834	0.000042
C24	C	1.418931	0.244681	0.000039
C25	C	1.146618	0.399998	0.000025
C26	C	1.157463	0.506142	0.000018
N27	N	1.138805	0.226033	0.248783
N28	N	1.138862	0.226041	-0.248711
C29	C	1.079422	0.285433	0.701045
C30	C	1.198290	0.166650	0.701028
C31	C	1.198278	0.166646	0.600533
C32	C	1.138839	0.226037	0.550289
C33	C	1.079411	0.285433	0.600540
C34	C	1.257712	0.107258	0.550273
C35	C	1.257704	0.107253	0.449772
C36	C	1.198259	0.166640	0.399526
C37	C	1.138828	0.226037	0.449784
C38	C	1.079388	0.285429	0.399540
C39	C	1.019951	0.344822	0.449796
C40	C	1.019966	0.344820	0.550295
C41	C	1.198244	0.166642	0.299027
C42	C	1.079377	0.285429	0.299035
H43	H	1.251419	-0.262085	-0.000029
H44	H	1.026242	-0.285837	0.000026
H45	H	1.030970	0.333789	0.258132
C46	C	0.967167	0.397559	0.295738
C47	C	0.954616	0.410104	0.394560
H48	H	0.926828	0.437857	0.261638
H49	H	1.031752	0.413357	0.279269
H50	H	0.951416	0.332954	0.279287
H51	H	0.970374	0.474708	0.411013
H52	H	0.890016	0.394312	0.411036
C53	C	0.967219	0.397574	0.704359
C54	C	0.954647	0.410110	0.605538
H55	H	0.926901	0.437888	0.738464
H56	H	0.951464	0.332982	0.720835
H57	H	1.031820	0.413366	0.720797
H58	H	0.890048	0.394311	0.589098
H59	H	0.970397	0.474716	0.589055
C60	C	0.762704	0.356263	0.000001
C61	C	0.663810	0.364573	0.000010
H62	H	0.793911	0.418044	-0.000020
H63	H	0.780636	0.322572	0.055681
H64	H	0.780633	0.322551	-0.055675
H65	H	0.645880	0.398279	0.055690
H66	H	0.645870	0.398279	-0.055675
C67	C	1.208027	0.038492	0.814060
C68	C	1.263619	0.101368	0.756259
H69	H	1.248359	-0.001816	0.848156
H70	H	1.172646	0.073871	0.858363
H71	H	1.165384	0.000769	0.774856
H72	H	1.306257	0.139097	0.795464
H73	H	1.299016	0.065985	0.711950
C74	C	1.267440	-0.020902	0.663301
C75	C	1.323038	0.041977	0.605510
H76	H	1.307769	-0.061209	0.697402
H77	H	1.232051	0.014474	0.707600
H78	H	1.224804	-0.058626	0.624090
H79	H	1.365668	0.079707	0.644722
H80	H	1.358443	0.006598	0.561206
H81	H	1.031027	0.333787	0.741966
C82	C	1.299671	-0.053302	0.419106
C83	C	1.323014	0.041857	0.394653
H84	H	1.339983	-0.093706	0.385107
H85	H	1.308124	-0.061687	0.486165
H86	H	1.235076	-0.069050	0.402612
H87	H	1.387608	0.057607	0.411154
H88	H	1.314570	0.050247	0.327579
C89	C	0.514960	0.095806	0.000021
C90	C	0.613856	0.087506	0.000026
H91	H	0.483759	0.034024	0.000005
H92	H	0.497017	0.129489	0.055699
H93	H	0.497035	0.129523	-0.055657
H94	H	0.631782	0.053795	0.055707
H95	H	0.631806	0.053808	-0.055658
C96	C	1.240359	0.006151	0.268058
C97	C	1.263570	0.101376	0.243770
H98	H	1.280688	-0.034139	0.233936
H99	H	1.248888	-0.002352	0.335091
H100	H	1.175763	-0.009641	0.251604
H101	H	1.328165	0.117169	0.260231
H102	H	1.255049	0.109883	0.176722
