data_functionalizedCrystal
_audit_creation_method	'MofGen! by Chris Wilmer'
_symmetry_space_group_name_H-M	'P1'
_symmetry_Int_Tables_number	1
_symmetry_cell_setting	triclinic
loop_
_symmetry_equiv_pos_as_xyz
  x,y,z
_cell_length_a	18.215405
_cell_length_b	17.077404
_cell_length_c	17.077396
_cell_angle_alpha	90.019501
_cell_angle_beta	90.031591
_cell_angle_gamma	90.025110
loop_
_atom_site_label
_atom_site_type_symbol
_atom_site_fract_x
_atom_site_fract_y
_atom_site_fract_z
Zn1	Zn	-0.292980	1.200044	0.443826
Zn2	Zn	-0.416053	1.199946	0.312553
Zn3	Zn	-0.293006	1.068776	0.312574
Zn4	Zn	-0.416010	1.068739	0.443776
O5	O	-0.354512	1.134376	0.378182
O6	O	-0.309313	1.309878	0.426424
O7	O	-0.399760	1.182521	0.202708
O8	O	-0.190018	1.086245	0.330014
O9	O	-0.399735	1.309806	0.329978
O10	O	-0.189999	1.182687	0.426444
O11	O	-0.309357	1.086150	0.202724
O12	O	-0.309315	0.958924	0.329966
O13	O	-0.399660	1.086182	0.553630
O14	O	-0.399685	0.958897	0.426360
O15	O	-0.309271	1.182651	0.553666
O16	O	-0.519032	1.182485	0.329930
O17	O	-0.519000	1.086088	0.426340
C18	C	-0.354499	0.930428	0.378160
C19	C	-0.354511	0.843178	0.378170
C20	C	-0.545718	1.134293	0.378144
C21	C	-0.627517	1.134330	0.378154
C22	C	-0.401638	0.802195	0.428282
C23	C	-0.401639	0.720214	0.428294
C24	C	-0.354517	0.679219	0.378190
C25	C	-0.307385	0.720208	0.328076
C26	C	-0.307380	0.802187	0.328068
C27	C	-0.307400	0.549338	0.328095
C28	C	-0.307405	0.467354	0.328102
C29	C	-0.401659	0.467365	0.428321
C30	C	-0.401654	0.549344	0.428313
C31	C	-0.354522	0.590328	0.378198
C32	C	-0.815703	1.184642	0.328046
C33	C	-0.892562	1.184677	0.328065
C34	C	-0.892569	1.084211	0.428374
C35	C	-0.815711	1.084180	0.428359
C36	C	-0.777281	1.134395	0.378190
C37	C	-0.930997	1.134460	0.378225
C38	C	-1.014330	1.134498	0.378246
C39	C	-0.693942	1.134358	0.378170
C40	C	-0.162559	1.134481	0.378237
C41	C	-0.080760	1.134525	0.378261
C42	C	-0.354458	1.134424	0.582926
C43	C	-0.354435	1.134444	0.670176
C44	C	-0.354526	1.339120	0.378204
C45	C	-0.354532	1.426370	0.378214
C46	C	-0.354513	1.134374	0.174234
C47	C	-0.354329	1.134506	0.086985
C48	C	-0.307365	1.184677	0.711187
C49	C	-0.307341	1.184687	0.793167
C50	C	-0.354390	1.134466	0.834136
C51	C	-0.401462	1.084227	0.793120
C52	C	-0.401482	1.084214	0.711141
C53	C	-0.401418	1.084259	0.963990
C54	C	-0.401399	1.084273	1.045974
C55	C	-0.307276	1.184731	1.046016
C56	C	-0.307296	1.184718	0.964037
C57	C	-0.354369	1.134480	0.923027
H58	H	-0.440013	0.835567	0.469079
Cl59	Cl	-0.460608	1.021090	0.844623
Cl60	Cl	-0.248197	1.247875	0.844720
H61	H	-0.440032	0.433993	0.469129
H62	H	-0.269001	0.835555	0.287266
H63	H	-0.784426	1.043263	0.469195
Cl64	Cl	-0.248217	1.247819	0.659691
Cl65	Cl	-0.940862	1.247849	0.265027
Cl66	Cl	-0.248152	1.247858	0.912535
H67	H	-0.268946	1.225635	1.079411
H68	H	-0.784415	1.225530	0.287197
H69	H	-0.440029	0.582721	0.469108
H70	H	-0.269014	0.686823	0.287284
Cl71	Cl	-0.460656	1.021059	0.659584
H72	H	-0.439709	1.043377	1.079329
H73	H	-0.440016	0.686849	0.469099
H74	H	-0.269025	0.433978	0.287312
H75	H	-0.923868	1.043327	0.469218
H76	H	-0.439738	1.043338	0.930602
H77	H	-0.269014	0.582705	0.287293
