data_functionalizedCrystal
_audit_creation_method	'MofGen! by Chris Wilmer'
_symmetry_space_group_name_H-M	'P1'
_symmetry_Int_Tables_number	1
_symmetry_cell_setting	triclinic
loop_
_symmetry_equiv_pos_as_xyz
  x,y,z
_cell_length_a	23.096457
_cell_length_b	14.395555
_cell_length_c	23.096457
_cell_angle_alpha	59.996377
_cell_angle_beta	90.003973
_cell_angle_gamma	60.001365
loop_
_atom_site_label
_atom_site_type_symbol
_atom_site_fract_x
_atom_site_fract_y
_atom_site_fract_z
Zr1	Zr	0.557770	1.016828	-0.076018
O2	O	0.465308	1.210646	-0.168473
O3	O	0.586112	0.823025	-0.047674
O4	O	0.586093	1.016854	-0.168476
O5	O	0.465344	1.016792	0.047618
O6	O	0.681374	1.016856	-0.168479
O7	O	0.465327	1.016817	-0.047671
O8	O	0.681407	0.670132	0.047613
O9	O	0.465311	1.363516	-0.168475
O10	O	0.669309	0.902735	-0.035590
O11	O	0.598215	0.902714	0.035526
O12	O	0.598194	1.130922	-0.106703
O13	O	0.527100	1.130901	-0.035587
Zr14	Zr	0.709759	1.016790	0.075952
Zr15	Zr	0.709731	1.016832	-0.076023
Zr16	Zr	0.557798	1.016786	0.075958
Zr17	Zr	0.557774	1.260637	-0.076020
Zr18	Zr	0.709754	0.772981	0.075954
O19	O	0.681417	1.210593	0.047608
O20	O	0.681377	1.210652	-0.168481
O21	O	0.465348	1.210587	0.047616
O22	O	0.802220	0.822972	0.168408
O23	O	0.802181	0.823031	-0.047682
O24	O	0.586151	0.822966	0.168416
O25	O	0.802185	1.016827	-0.047684
O26	O	0.681435	1.016765	0.168410
O27	O	0.586155	1.016762	0.168414
O28	O	0.802202	1.016801	0.047606
O29	O	0.586100	1.363519	-0.168479
O30	O	0.681429	0.670099	0.168414
O31	O	0.802218	0.670103	0.168409
O32	O	0.802196	0.670135	0.047609
O33	O	0.465333	1.363483	-0.047675
O34	O	0.586122	1.363486	-0.047679
O35	O	0.669335	0.902696	0.106637
O36	O	0.740429	0.902717	0.035521
O37	O	0.669313	1.130904	-0.035592
O38	O	0.598220	1.130883	0.035524
C39	C	0.633759	0.711841	-0.000030
C40	C	0.633757	0.608337	-0.000029
C41	C	0.443684	1.016804	-0.000026
C42	C	0.379172	1.016802	-0.000023
C43	C	0.594995	0.547733	0.038749
C44	C	0.566885	0.562007	-0.028120
C45	C	0.661850	0.409668	0.066819
C46	C	0.605607	0.624038	-0.066937
C47	C	0.700609	0.471635	0.028050
C48	C	0.672516	0.485956	-0.038858
C49	C	0.385988	0.897695	0.037090
C50	C	0.325373	0.897693	0.037093
C51	C	0.257942	1.016805	-0.000031
C52	C	0.251129	1.135929	-0.037146
C53	C	0.311744	1.135927	-0.037142
N54	N	0.135137	1.105476	-0.060448
N55	N	0.077557	1.105469	-0.060450
C56	C	0.075309	1.016817	-0.000044
N57	N	0.132822	0.928151	0.060364
N58	N	0.190408	0.928154	0.060365
C59	C	0.192211	1.016820	-0.000039
C60	C	0.016401	0.897699	0.037076
C61	C	-0.044217	0.897702	0.037081
C62	C	-0.118461	1.135942	-0.037165
C63	C	-0.057843	1.135935	-0.037163
C64	C	0.009586	1.016810	-0.000044
C65	C	0.823845	1.016814	-0.000040
C66	C	0.888356	1.016816	-0.000042
C67	C	0.633730	1.016861	-0.190131
C68	C	0.633718	1.016878	-0.254648
C69	C	0.633770	1.321777	-0.000036
C70	C	0.633772	1.425281	-0.000037
C71	C	0.686210	1.016882	-0.284944
C72	C	0.686226	1.016855	-0.345552
C73	C	0.633739	1.016851	-0.375870
C74	C	0.581242	1.016840	-0.345564
C75	C	0.581231	1.016854	-0.284954
N76	N	0.571504	1.091207	-0.494227
N77	N	0.571516	1.091197	-0.551805
C78	C	0.633768	1.016808	-0.558485
N79	N	0.696010	0.942446	-0.505417
N80	N	0.695997	0.942462	-0.447835
C81	C	0.633744	1.016836	-0.441591
C82	C	0.686282	1.016781	-0.654498
C83	C	0.686298	1.016746	-0.715104
C84	C	0.581308	1.016744	-0.715120
C85	C	0.581297	1.016766	-0.654511
C86	C	0.633784	1.016790	-0.624205
C87	C	0.633799	1.016757	0.190065
C88	C	0.633811	1.016740	0.254583
C89	C	0.823839	0.711846	-0.000037
C90	C	0.888348	0.608344	-0.000038
C91	C	0.633793	0.711789	0.190068
C92	C	0.633803	0.608268	0.254587
C93	C	0.823874	0.711794	0.190061
C94	C	0.888395	0.608275	0.254577
C95	C	0.443655	1.321824	-0.190127
C96	C	0.379134	1.425343	-0.254643
C97	C	0.443690	1.321772	-0.000029
C98	C	0.379180	1.425274	-0.000027
C99	C	0.633735	1.321829	-0.190134
C100	C	0.633726	1.425350	-0.254652
C101	C	0.881519	0.559748	-0.037164
C102	C	0.942127	0.462511	-0.037180
C103	C	1.009563	0.413865	-0.000065
C104	C	1.016391	0.462471	0.037062
C105	C	0.955784	0.559713	0.037073
C106	C	0.670931	0.559645	0.322011
C107	C	0.670938	0.462389	0.382638
C108	C	0.633820	0.413753	0.375841
C109	C	0.596687	0.462386	0.308410
C110	C	0.596677	0.559646	0.247783
C111	C	0.955811	0.559673	0.247753
C112	C	1.016442	0.462419	0.308367
C113	C	1.009654	0.413763	0.375805
C114	C	0.942231	0.462375	0.382627
C115	C	0.881602	0.559634	0.322014
C116	C	0.311717	1.473957	-0.247819
C117	C	0.251087	1.571241	-0.308432
C118	C	0.257874	1.619902	-0.375870
C119	C	0.325298	1.571284	-0.382693
C120	C	0.385927	1.474008	-0.322080
C121	C	0.386009	1.473880	0.037092
C122	C	0.325402	1.571145	0.037091
C123	C	0.257965	1.619794	-0.000026
C124	C	0.251137	1.571183	-0.037150
C125	C	0.311744	1.473927	-0.037153
C126	C	0.670851	1.473956	-0.247832
C127	C	0.670855	1.571212	-0.308448
C128	C	0.633730	1.619867	-0.375884
C129	C	0.596604	1.571251	-0.382703
C130	C	0.596604	1.473990	-0.322087
H131	H	0.562172	0.574950	0.071493
Br132	Br	0.334617	0.736035	0.087462
H133	H	0.961355	0.599268	0.067310
H134	H	0.701178	0.422804	0.437538
Br135	Br	1.107936	0.396463	0.299091
H136	H	1.059028	0.334568	0.425154
Br137	Br	0.933031	0.396328	0.474156
H138	H	0.208621	1.698986	-0.000018
H139	H	0.826614	0.599354	-0.067397
Br140	Br	0.790110	0.625577	0.331289
H141	H	0.566377	1.610881	-0.437617
Br142	Br	0.721316	0.625623	0.331256
Br143	Br	0.510080	1.016718	-0.756254
H144	H	0.538485	1.016850	-0.260286
Br145	Br	0.932844	0.396563	-0.087569
H146	H	1.058908	0.334683	-0.000079
H147	H	0.306177	1.434343	-0.192913
H148	H	0.633834	0.334557	0.425212
H149	H	1.071306	0.422849	0.067280
H150	H	0.306189	1.232922	-0.067363
Br151	Br	0.757515	1.016807	-0.613365
H152	H	0.701083	1.434356	-0.192927
Br153	Br	0.965043	0.625691	0.156238
Br154	Br	0.546316	0.396364	0.299196
H155	H	0.566445	0.599223	0.192886
Br156	Br	0.565910	0.776670	-0.161213
H157	H	0.196222	1.610808	-0.067370
Br158	Br	0.159593	1.637200	-0.299156
Br159	Br	0.302463	1.407967	-0.087531
H160	H	0.208501	1.699110	-0.425220
Br161	Br	0.477418	1.408037	-0.331354
Br162	Br	0.334498	1.637335	-0.474221
Br163	Br	0.757549	1.016734	-0.756218
Br164	Br	0.477523	1.407882	0.087470
Br165	Br	0.334685	1.637092	0.087480
Br166	Br	0.757473	1.016858	-0.386674
Br167	Br	0.721242	1.637174	-0.299177
Br168	Br	0.633737	1.751867	-0.458142
Br169	Br	0.159617	1.297583	-0.087523
Br170	Br	0.701440	0.256955	0.161048
H171	H	0.728949	1.016897	-0.260270
H172	H	0.071305	0.800700	0.067316
H173	H	0.538506	1.016834	-0.370251
H174	H	0.757127	0.434464	0.051823
H175	H	-0.038661	0.800706	0.067309
H176	H	0.566369	1.434426	-0.327651
H177	H	0.510355	0.599197	-0.051876
H178	H	0.440888	0.800694	0.067311
Br179	Br	-0.209969	1.297598	-0.087540
Br180	Br	0.727149	0.441053	-0.093593
H181	H	0.538550	1.016771	-0.629845
Br182	Br	-0.067093	1.297591	-0.087536
