data_functionalizedCrystal
_audit_creation_method	'MofGen! by Chris Wilmer'
_symmetry_space_group_name_H-M	'P1'
_symmetry_Int_Tables_number	1
_symmetry_cell_setting	triclinic
loop_
_symmetry_equiv_pos_as_xyz
  x,y,z
_cell_length_a	21.395362
_cell_length_b	29.839131
_cell_length_c	21.395355
_cell_angle_alpha	89.979828
_cell_angle_beta	89.956060
_cell_angle_gamma	90.057297
loop_
_atom_site_label
_atom_site_type_symbol
_atom_site_fract_x
_atom_site_fract_y
_atom_site_fract_z
Zn1	Zn	0.957813	-0.178715	-0.354578
Zn2	Zn	1.457813	0.321285	0.145422
Zn3	Zn	0.957696	-0.253830	-0.249798
Zn4	Zn	1.457696	0.246170	0.250202
Zn5	Zn	0.853028	-0.178736	-0.249780
Zn6	Zn	1.353028	0.321264	0.250220
Zn7	Zn	0.852977	-0.253840	-0.354503
Zn8	Zn	1.352977	0.246160	0.145497
O9	O	0.905378	-0.216280	-0.302165
O10	O	1.405378	0.283720	0.197835
O11	O	1.045475	-0.188667	-0.340718
O12	O	1.545475	0.311333	0.159282
O13	O	0.943783	-0.243874	-0.162117
O14	O	1.443783	0.256126	0.337883
O15	O	0.866998	-0.115866	-0.263706
O16	O	1.366998	0.384134	0.236294
O17	O	1.045389	-0.243853	-0.263737
O18	O	1.545389	0.256147	0.236263
O19	O	0.943983	-0.115851	-0.340701
O20	O	1.443983	0.384149	0.159299
O21	O	0.866884	-0.188702	-0.162104
O22	O	1.366884	0.311298	0.337896
O23	O	0.765343	-0.188711	-0.263632
O24	O	1.265343	0.311289	0.236368
O25	O	0.866912	-0.243869	-0.442191
O26	O	1.366912	0.256131	0.057809
O27	O	0.765306	-0.243889	-0.340571
O28	O	1.265306	0.256111	0.159429
O29	O	0.943934	-0.188676	-0.442246
O30	O	1.443934	0.311324	0.057754
O31	O	0.943735	-0.316699	-0.263663
O32	O	1.443735	0.183301	0.236337
O33	O	0.866798	-0.316705	-0.340589
O34	O	1.366798	0.183295	0.159411
C35	C	0.742591	-0.216304	-0.302092
C36	C	1.242591	0.283696	0.197908
C37	C	0.672950	-0.216325	-0.302076
C38	C	1.172950	0.283675	0.197924
C39	C	0.640233	-0.245094	-0.342078
C40	C	1.140233	0.254906	0.157922
C41	C	0.574798	-0.245083	-0.342106
C42	C	1.074798	0.254917	0.157894
C43	C	0.542081	-0.216308	-0.302120
C44	C	1.042081	0.283692	0.197880
C45	C	0.574805	-0.187533	-0.262115
C46	C	1.074805	0.312467	0.237885
C47	C	0.640239	-0.187541	-0.262093
C48	C	1.140239	0.312459	0.237907
C49	C	0.438357	-0.212688	-0.245715
C50	C	0.938357	0.287312	0.254285
C51	C	0.372925	-0.212683	-0.245736
C52	C	0.872925	0.287317	0.254264
C53	C	0.340261	-0.216278	-0.302189
C54	C	0.840261	0.283722	0.197811
C55	C	0.373038	-0.219889	-0.358623
C56	C	0.873038	0.280111	0.141377
C57	C	0.438472	-0.219897	-0.358601
C58	C	0.938472	0.280103	0.141399
C59	C	0.471129	-0.216295	-0.302140
C60	C	0.971129	0.283705	0.197860
C61	C	0.236592	-0.245037	-0.342226
C62	C	0.736592	0.254963	0.157774
C63	C	0.171155	-0.245023	-0.342254
C64	C	0.671155	0.254977	0.157746
C65	C	0.171164	-0.187475	-0.262258
C66	C	0.671164	0.312525	0.237742
C67	C	0.236599	-0.187487	-0.262235
C68	C	0.736599	0.312513	0.237765
C69	C	0.269309	-0.216270	-0.302218
C70	C	0.769309	0.283730	0.197782
C71	C	0.905265	-0.333003	-0.302133
C72	C	1.405265	0.166997	0.197867
C73	C	0.905274	-0.382937	-0.302141
C74	C	1.405274	0.117063	0.197859
C75	C	0.945512	-0.692564	-0.262168
C76	C	1.445512	-0.192564	0.237832
C77	C	0.945589	-0.880237	-0.262192
C78	C	1.445589	-0.380237	0.237808
O79	O	0.979711	-0.904488	-0.228181
O80	O	1.479711	-0.404488	0.271819
N81	N	0.905508	-0.903722	-0.302212
N82	N	1.405508	-0.403722	0.197788
C83	C	0.865408	-0.880286	-0.342231
C84	C	1.365408	-0.380286	0.157769
O85	O	0.831323	-0.904567	-0.376276
O86	O	1.331323	-0.404567	0.123724
C87	C	0.865334	-0.692614	-0.342210
C88	C	1.365334	-0.192614	0.157790
C89	C	0.905414	-0.669131	-0.302183
C90	C	1.405414	-0.169131	0.197817
C91	C	0.985588	-0.669082	-0.222145
C92	C	1.485588	-0.169082	0.277855
C93	C	0.985566	-0.622166	-0.222136
C94	C	1.485566	-0.122166	0.277864
C95	C	0.945468	-0.598733	-0.262152
C96	C	1.445468	-0.098733	0.237848
C97	C	0.905391	-0.622216	-0.302175
C98	C	1.405391	-0.122216	0.197825
C99	C	0.825238	-0.669178	-0.382232
C100	C	1.325238	-0.169178	0.117768
C101	C	0.825224	-0.622257	-0.382224
C102	C	1.325224	-0.122257	0.117776
C103	C	0.865303	-0.598775	-0.342197
C104	C	1.365303	-0.098775	0.157803
C105	C	0.865271	-0.551867	-0.342182
C106	C	1.365271	-0.051867	0.157818
N107	N	0.905352	-0.528383	-0.302162
N108	N	1.405352	-0.028383	0.197838
C109	C	0.945450	-0.551816	-0.262147
C110	C	1.445450	-0.051816	0.237853
C111	C	0.865449	-0.978816	-0.342239
C112	C	1.365449	-0.478816	0.157761
C113	C	0.865466	-1.025734	-0.342244
C114	C	1.365466	-0.525734	0.157756
C115	C	0.945649	-1.025683	-0.262205
C116	C	1.445649	-0.525683	0.237795
C117	C	0.945627	-0.978764	-0.262198
C118	C	1.445627	-0.478764	0.237802
C119	C	0.905530	-0.955332	-0.302219
C120	C	1.405530	-0.455332	0.197781
C121	C	0.945400	-0.453290	-0.262132
C122	C	1.445400	0.046710	0.237868
C123	C	0.945373	-0.406370	-0.262126
C124	C	1.445373	0.093630	0.237874
C125	C	0.865193	-0.406426	-0.342167
C126	C	1.365193	0.093574	0.157833
C127	C	0.865218	-0.453342	-0.342171
C128	C	1.365218	0.046658	0.157829
C129	C	0.905327	-0.476772	-0.302152
C130	C	1.405327	0.023228	0.197848
O131	O	0.831172	-0.527587	-0.376180
O132	O	1.331172	-0.027587	0.123820
O133	O	0.979540	-0.527526	-0.228117
O134	O	1.479540	-0.027526	0.271883
C135	C	0.945534	-0.739480	-0.262176
C136	C	1.445534	-0.239480	0.237824
C137	C	0.905458	-0.762962	-0.302199
C138	C	1.405458	-0.262962	0.197801
C139	C	0.865359	-0.739529	-0.342214
C140	C	1.365359	-0.239529	0.157786
C141	C	0.905475	-0.809880	-0.302204
C142	C	1.405475	-0.309880	0.197796
C143	C	0.945574	-0.833313	-0.262189
C144	C	1.445574	-0.333313	0.237811
C145	C	0.985655	-0.809828	-0.222169
C146	C	1.485655	-0.309828	0.277831
C147	C	0.985633	-0.762913	-0.222161
C148	C	1.485633	-0.262913	0.277839
C149	C	0.825278	-0.763014	-0.382234
C150	C	1.325278	-0.263014	0.117766
C151	C	0.825303	-0.809929	-0.382238
C152	C	1.325303	-0.309929	0.117762
C153	C	0.865402	-0.833362	-0.342223
C154	C	1.365402	-0.333362	0.157777
C155	C	1.068802	-0.216257	-0.302238
C156	C	1.568802	0.283743	0.197762
C157	C	1.138443	-0.216247	-0.302269
C158	C	1.638443	0.283753	0.197731
C159	C	0.905431	-0.216271	-0.465588
C160	C	1.405431	0.283729	0.034412
C161	C	0.905453	-0.216267	-0.535229
C162	C	1.405453	0.283733	-0.035229
C163	C	0.905509	-0.099102	-0.302210
C164	C	1.405509	0.400898	0.197790
C165	C	0.905565	-0.049167	-0.302229
C166	C	1.405565	0.450833	0.197771
C167	C	0.945556	-0.187527	-0.567972
C168	C	1.445556	0.312473	-0.067972
C169	C	0.945556	-0.187507	-0.633408
C170	C	1.445556	0.312493	-0.133408
C171	C	0.905458	-0.216237	-0.666098
C172	C	1.405458	0.283763	-0.166098
C173	C	0.865346	-0.244979	-0.633347
C174	C	1.365346	0.255021	-0.133347
C175	C	0.865344	-0.244994	-0.567912
C176	C	1.365344	0.255006	-0.067912
C177	C	0.900471	-0.256689	-0.769760
C178	C	1.400471	0.243311	-0.269760
C179	C	0.900478	-0.256674	-0.835193
C180	C	1.400478	0.243326	-0.335193
C181	C	0.905461	-0.216189	-0.867918
C182	C	1.405461	0.283811	-0.367918
C183	C	0.910451	-0.175717	-0.835203
C184	C	1.410451	0.324283	-0.335203
C185	C	0.910449	-0.175733	-0.769769
C186	C	1.410449	0.324267	-0.269769
C187	C	0.905455	-0.216223	-0.737050
C188	C	1.405455	0.283777	-0.237050
C189	C	0.945566	-0.187425	-0.971614
C190	C	1.445566	0.312575	-0.471614
C191	C	0.945561	-0.187405	-1.037051
C192	C	1.445561	0.312595	-0.537051
C193	C	0.865355	-0.244881	-1.036988
C194	C	1.365355	0.255119	-0.536988
C195	C	0.865357	-0.244897	-0.971553
C196	C	1.365357	0.255103	-0.471553
C197	C	0.905466	-0.216170	-0.938870
C198	C	1.405466	0.283830	-0.438870
C199	C	0.905363	-0.216257	-0.139377
C200	C	1.405363	0.283743	0.360623
C201	C	0.905462	-0.216134	-0.069736
C202	C	1.405462	0.283866	0.430264
H203	H	0.464947	-0.209759	-0.199741
H204	H	0.964947	0.290241	0.300259
N205	N	0.824387	-0.274320	-0.666745
N206	N	1.324387	0.225680	-0.166745
N207	N	0.824394	-0.274303	-0.725168
N208	N	1.324394	0.225697	-0.225168
H209	H	0.795463	-0.295024	-0.748756
H210	H	1.295463	0.204976	-0.248756
N211	N	0.824479	-0.954883	-0.383113
N212	N	1.324479	-0.454883	0.116887
N213	N	0.784551	-0.928746	-0.361019
N214	N	1.284551	-0.428746	0.138981
H215	H	0.755615	-0.911844	-0.389885
H216	H	1.255615	-0.411844	0.110115
H217	H	0.896245	-0.289648	-0.743120
H218	H	1.396245	0.210352	-0.243120
N219	N	0.339459	-0.208991	-0.188088
N220	N	0.839459	0.291009	0.311912
N221	N	0.346788	-0.175282	-0.154199
N222	N	0.846788	0.324718	0.345801
H223	H	0.323156	-0.172674	-0.113482
H224	H	0.823156	0.327326	0.386518
H225	H	0.832683	-0.268398	-0.541253
H226	H	1.332683	0.231602	-0.041253
H227	H	0.832544	-0.387340	-0.374745
H228	H	1.332544	0.112660	0.125255
N229	N	0.541389	-0.158146	-0.221261
N230	N	1.041389	0.341854	0.278739
N231	N	0.548629	-0.161066	-0.163436
N232	N	1.048629	0.338934	0.336564
H233	H	0.525029	-0.140309	-0.134583
H234	H	1.025029	0.359691	0.365417
H235	H	1.018269	-0.743797	-0.189567
H236	H	1.518269	-0.243797	0.310433
H237	H	1.018245	-0.688156	-0.189559
H238	H	1.518245	-0.188156	0.310441
H239	H	0.144519	-0.268450	-0.374833
H240	H	0.644519	0.231550	0.125167
N241	N	0.986516	-0.158151	-0.666875
N242	N	1.486516	0.341849	-0.166875
N243	N	0.964507	-0.129519	-0.703377
N244	N	1.464507	0.370481	-0.203377
H245	H	0.993435	-0.108786	-0.727014
H246	H	1.493435	0.391214	-0.227014
H247	H	0.263237	-0.164062	-0.229657
H248	H	0.763237	0.335938	0.270343
N249	N	0.824393	-0.274252	-0.938095
N250	N	1.324393	0.225748	-0.438095
N251	N	0.784484	-0.258457	-0.901555
N252	N	1.284484	0.241543	-0.401555
H253	H	0.755549	-0.279188	-0.877925
H254	H	1.255549	0.220812	-0.377925
N255	N	0.895358	-0.298019	-0.868590
N256	N	1.395358	0.201981	-0.368590
N257	N	0.935640	-0.327876	-0.861309
N258	N	1.435640	0.172124	-0.361309
H259	H	0.932011	-0.357079	-0.884888
H260	H	1.432011	0.142921	-0.384888
H261	H	0.914510	-0.142779	-0.743135
H262	H	1.414510	0.357221	-0.243135
N263	N	0.673652	-0.158148	-0.221228
N264	N	1.173652	0.341852	0.278772
N265	N	0.644437	-0.132453	-0.185533
N266	N	1.144437	0.367547	0.314467
H267	H	0.668034	-0.111694	-0.156670
H268	H	1.168034	0.388306	0.343330
H269	H	0.792598	-0.688290	-0.414823
H270	H	1.292598	-0.188290	0.085177
N271	N	0.471933	-0.223571	-0.416254
N272	N	0.971933	0.276429	0.083746
N273	N	0.464705	-0.194681	-0.457939
N274	N	0.964705	0.305319	0.042061
H275	H	0.488333	-0.197272	-0.498661
H276	H	0.988333	0.302728	0.001339
H277	H	0.978263	-0.959647	-0.229605
H278	H	1.478263	-0.459647	0.270395
N279	N	0.986520	-0.158078	-0.938215
N280	N	1.486520	0.341922	-0.438215
N281	N	0.986514	-0.158096	-0.879792
N282	N	1.486514	0.341904	-0.379792
H283	H	1.015437	-0.137370	-0.856204
H284	H	1.515437	0.362630	-0.356204
N285	N	0.673635	-0.274497	-0.382923
N286	N	1.173635	0.225503	0.117077
N287	N	0.644411	-0.300182	-0.418638
N288	N	1.144411	0.199818	0.081362
H289	H	0.668002	-0.320948	-0.447486
H290	H	1.168002	0.179052	0.052514
H291	H	0.978010	-0.387252	-0.229529
H292	H	1.478010	0.112748	0.270471
H293	H	1.018303	-0.828916	-0.189585
H294	H	1.518303	-0.328916	0.310415
H295	H	0.978216	-0.164134	-0.541366
H296	H	1.478216	0.335866	-0.041366
H297	H	0.978217	-0.163998	-1.063709
H298	H	1.478217	0.336002	-0.563709
H299	H	0.792573	-0.603181	-0.414816
H300	H	1.292573	-0.103181	0.085184
N301	N	0.986602	-1.049623	-0.221323
N302	N	1.486602	-0.549623	0.278677
N303	N	0.964589	-1.075837	-0.181373
N304	N	1.464589	-0.575837	0.318627
H305	H	0.993513	-1.092747	-0.152503
H306	H	1.493513	-0.592747	0.347497
N307	N	0.541380	-0.274474	-0.382974
N308	N	1.041380	0.225526	0.117026
N309	N	0.570593	-0.300169	-0.418670
N310	N	1.070593	0.199831	0.081330
H311	H	0.546993	-0.320927	-0.447534
H312	H	1.046993	0.179073	0.052466
N313	N	0.824265	-0.477324	-0.383050
N314	N	1.324265	0.022676	0.116950
N315	N	0.788461	-0.456394	-0.418769
N316	N	1.288461	0.043606	0.081231
H317	H	0.759539	-0.473328	-0.447643
H318	H	1.259539	0.026672	0.052357
N319	N	0.824512	-1.049718	-0.383116
N320	N	1.324512	-0.549718	0.116884
N321	N	0.766698	-1.044529	-0.378884
N322	N	1.266698	-0.544529	0.121116
H323	H	0.737773	-1.061466	-0.407752
H324	H	1.237773	-0.561466	0.092248
N325	N	0.339672	-0.223575	-0.416286
N326	N	0.839672	0.276425	0.083714
N327	N	0.281249	-0.223572	-0.416300
N328	N	0.781249	0.276428	0.083700
H329	H	0.257681	-0.226180	-0.457023
H330	H	0.757681	0.273820	0.042977
H331	H	0.144526	-0.164043	-0.229704
H332	H	0.644526	0.335957	0.270296
N333	N	0.986372	-0.477212	-0.221249
N334	N	1.486372	0.022788	0.278751
N335	N	1.022147	-0.456233	-0.185518
N336	N	1.522147	0.043767	0.314482
H337	H	1.051080	-0.473127	-0.156641
H338	H	1.551080	0.026873	0.343359
H339	H	0.263226	-0.268472	-0.374785
H340	H	0.763226	0.231528	0.125215
N341	N	0.784351	-0.833906	-0.423127
N342	N	1.284351	-0.333906	0.076873
N343	N	0.748554	-0.812973	-0.458850
N344	N	1.248554	-0.312973	0.041150
H345	H	0.719635	-0.829904	-0.487730
H346	H	1.219635	-0.329904	0.012270
N347	N	0.824393	-0.274221	-1.070382
N348	N	1.324393	0.225779	-0.570382
N349	N	0.824397	-0.274201	-1.128804
N350	N	1.324397	0.225799	-0.628804
H351	H	0.795464	-0.294922	-1.152392
H352	H	1.295464	0.205078	-0.652392
N353	N	1.026502	-0.598189	-0.181239
N354	N	1.526502	-0.098189	0.318761
N355	N	1.022372	-0.603463	-0.123422
N356	N	1.522372	-0.103463	0.376578
H357	H	1.051286	-0.586534	-0.094533
H358	H	1.551286	-0.086534	0.405467
N359	N	0.784315	-0.739089	-0.423117
N360	N	1.284315	-0.239089	0.076883
N361	N	0.748536	-0.760068	-0.458844
N362	N	1.248536	-0.260068	0.041156
H363	H	0.719600	-0.743173	-0.487719
H364	H	1.219600	-0.243173	0.012281
H365	H	0.914510	-0.142751	-0.861847
H366	H	1.414510	0.357249	-0.361847
