data_functionalizedCrystal
_audit_creation_method	'MofGen! by Chris Wilmer'
_symmetry_space_group_name_H-M	'P1'
_symmetry_Int_Tables_number	1
_symmetry_cell_setting	triclinic
loop_
_symmetry_equiv_pos_as_xyz
  x,y,z
_cell_length_a	16.959455
_cell_length_b	12.594516
_cell_length_c	16.959447
_cell_angle_alpha	89.974854
_cell_angle_beta	89.985678
_cell_angle_gamma	90.013000
loop_
_atom_site_label
_atom_site_type_symbol
_atom_site_fract_x
_atom_site_fract_y
_atom_site_fract_z
Zn1	Zn	1.208406	-0.423808	-0.446937
Zn2	Zn	1.208338	-0.601815	-0.314770
Zn3	Zn	1.076234	-0.423841	-0.314775
Zn4	Zn	1.076208	-0.601735	-0.446909
O5	O	1.142297	-0.512800	-0.380848
O6	O	1.319008	-0.447440	-0.429415
O7	O	1.190796	-0.578253	-0.204160
O8	O	1.093807	-0.274891	-0.332320
O9	O	1.318958	-0.578221	-0.332313
O10	O	1.190912	-0.274866	-0.429419
O11	O	1.093740	-0.447497	-0.204163
O12	O	0.965620	-0.447420	-0.332293
O13	O	1.093762	-0.578085	-0.557524
O14	O	0.965601	-0.578118	-0.429371
O15	O	1.190887	-0.447363	-0.557544
O16	O	1.190771	-0.750750	-0.332286
O17	O	1.093696	-0.750692	-0.429367
C18	C	0.936930	-0.512765	-0.380830
C19	C	0.849074	-0.512775	-0.380841
C20	C	1.142245	-0.789341	-0.380840
C21	C	1.142295	-0.907646	-0.380863
C22	C	0.477584	-0.444690	-0.330405
C23	C	0.477613	-0.580998	-0.431336
C24	C	0.560158	-0.580982	-0.431332
C25	C	0.601421	-0.512821	-0.380862
C26	C	0.560137	-0.444674	-0.330396
C27	C	0.601448	-0.649135	-0.481790
C28	C	0.683999	-0.649123	-0.481787
C29	C	0.725263	-0.580955	-0.431320
C30	C	0.683974	-0.512806	-0.380854
C31	C	0.725237	-0.444644	-0.330384
C32	C	0.683949	-0.376488	-0.279920
C33	C	0.601401	-0.376507	-0.279930
C34	C	0.807811	-0.580937	-0.431311
C35	C	0.807790	-0.444629	-0.330376
C36	C	1.089491	-0.976906	-0.433629
C37	C	1.070239	-1.047768	-0.361503
C38	C	1.161619	-1.047583	-0.453001
C39	C	1.123005	-0.976950	-0.308699
C40	C	1.214418	-0.976758	-0.400246
C41	C	1.195194	-1.047589	-0.328071
C42	C	1.348465	-0.512836	-0.380866
C43	C	1.436321	-0.512851	-0.380874
C44	C	1.142329	-0.512712	-0.587016
C45	C	1.142343	-0.512674	-0.674873
C46	C	1.142370	-0.235179	-0.380873
C47	C	1.142401	-0.116873	-0.380884
C48	C	1.091869	-0.580623	-1.046340
C49	C	1.193006	-0.444501	-1.046357
C50	C	1.192985	-0.444523	-0.963811
C51	C	1.142406	-0.512598	-0.922526
C52	C	1.091848	-0.580650	-0.963787
C53	C	1.243548	-0.376480	-0.922544
C54	C	1.243530	-0.376501	-0.839993
C55	C	1.192946	-0.444571	-0.798706
C56	C	1.142385	-0.512625	-0.839972
C57	C	1.091806	-0.580699	-0.798687
C58	C	1.041241	-0.648749	-0.839952
C59	C	1.041265	-0.648720	-0.922500
C60	C	1.192922	-0.444600	-0.716158
C61	C	1.091785	-0.580726	-0.716134
C62	C	1.142309	-0.512811	-0.175482
C63	C	1.142448	-0.512548	-0.087625
H64	H	0.717556	-0.320996	-0.238824
H65	H	1.239894	-1.078429	-0.283406
C66	C	1.046985	-0.641029	-1.172869
C67	C	1.036292	-0.655424	-1.091694
H68	H	1.012677	-0.687214	-1.200866
H69	H	1.035437	-0.569517	-1.186402
H70	H	1.100095	-0.656613	-1.186390
H71	H	0.983183	-0.639832	-1.078171
H72	H	1.047835	-0.726952	-1.078154
C73	C	1.080746	-0.723927	-0.623279
C74	C	1.036189	-0.655556	-0.670751
H75	H	1.046423	-0.770118	-0.595258
H76	H	1.115171	-0.764634	-0.655480
H77	H	1.110853	-0.683394	-0.586895
H78	H	1.006087	-0.696090	-0.707139
H79	H	1.001751	-0.614846	-0.638546
H80	H	1.177920	-1.078609	-0.513999
C81	C	1.002720	-0.828939	-0.947889
C82	C	0.985692	-0.723521	-0.967859
H83	H	0.968410	-0.875116	-0.975891
H84	H	1.055822	-0.844510	-0.961413
H85	H	0.995461	-0.838685	-0.892816
H86	H	0.992957	-0.713773	-1.022931
H87	H	0.932577	-0.707945	-0.954340
H88	H	1.284732	-0.321064	-0.956164
C89	C	0.474848	-0.316001	-0.235135
C90	C	0.556017	-0.301590	-0.224469
H91	H	0.446830	-0.269753	-0.200893
H92	H	0.461348	-0.300523	-0.288260
H93	H	0.461319	-0.387500	-0.223470
H94	H	0.569547	-0.230092	-0.236139
H95	H	0.569523	-0.317060	-0.171331
C96	C	0.452236	-0.633047	-0.565119
C97	C	0.432256	-0.655908	-0.486816
H98	H	0.424234	-0.679296	-0.599372
H99	H	0.438717	-0.561558	-0.576761
H100	H	0.507309	-0.642799	-0.572330
H101	H	0.377184	-0.646148	-0.479603
H102	H	0.445769	-0.727413	-0.475169
C103	C	1.030217	-0.791938	-0.747089
C104	C	0.985651	-0.723576	-0.794558
H105	H	0.995899	-0.838126	-0.719058
H106	H	1.064637	-0.832648	-0.779292
H107	H	1.060329	-0.751398	-0.710713
H108	H	0.955543	-0.764115	-0.830939
H109	H	0.951217	-0.682862	-0.762352
H110	H	1.234190	-0.389083	-1.079976
C111	C	0.576074	-0.701180	-0.615574
C112	C	0.556087	-0.724038	-0.537271
H113	H	0.548067	-0.747422	-0.649828
H114	H	0.562564	-0.629688	-0.627216
H115	H	0.631145	-0.710945	-0.622782
H116	H	0.501016	-0.714265	-0.530061
H117	H	0.569591	-0.795546	-0.525625
H118	H	1.284703	-0.321090	-0.806402
C119	C	0.934365	-0.641442	-0.476108
C120	C	0.853195	-0.655849	-0.486771
H121	H	0.962380	-0.687698	-0.510346
H122	H	0.947896	-0.569954	-0.487771
H123	H	0.947866	-0.656923	-0.422975
H124	H	0.839692	-0.640360	-0.539902
H125	H	0.839658	-0.727353	-0.475113
C126	C	0.953671	-0.970847	-0.473295
C127	C	1.029106	-0.934995	-0.493778
H128	H	0.916392	-0.944965	-0.510423
H129	H	0.952965	-1.046257	-0.473385
H130	H	0.940492	-0.945618	-0.422186
H131	H	1.042287	-0.960231	-0.544885
H132	H	1.029813	-0.859569	-0.493696
C133	C	1.292898	-0.310053	-0.724470
C134	C	1.248497	-0.369806	-0.670800
H135	H	1.327205	-0.263872	-0.696467
H136	H	1.323127	-0.356426	-0.756655
H137	H	1.258473	-0.269325	-0.756677
H138	H	1.282922	-0.410541	-0.638596
H139	H	1.218266	-0.323427	-0.638601
H140	H	0.443964	-0.389196	-0.289321
H141	H	1.009295	-1.078983	-0.345126
C142	C	1.032482	-0.873449	-0.231654
C143	C	1.100897	-0.935252	-0.226330
H144	H	1.018831	-0.847712	-0.180803
H145	H	1.041661	-0.815198	-0.266044
H146	H	0.990554	-0.915532	-0.251713
H147	H	1.142827	-0.893167	-0.206276
H148	H	1.091723	-0.993512	-0.191928
C149	C	0.799469	-0.309897	-0.230603
C150	C	0.853143	-0.369707	-0.274892
H151	H	0.827470	-0.263650	-0.196347
H152	H	0.767293	-0.269244	-0.265097
H153	H	0.767252	-0.356237	-0.200319
H154	H	0.885356	-0.323367	-0.305181
H155	H	0.885332	-0.410362	-0.240394
H156	H	0.717608	-0.704619	-0.522877
H157	H	1.275348	-0.945547	-0.416658
