data_functionalizedCrystal
_audit_creation_method	'MofGen! by Chris Wilmer'
_symmetry_space_group_name_H-M	'P1'
_symmetry_Int_Tables_number	1
_symmetry_cell_setting	triclinic
loop_
_symmetry_equiv_pos_as_xyz
  x,y,z
_cell_length_a	27.732048
_cell_length_b	27.732048
_cell_length_c	18.266242
_cell_angle_alpha	89.988683
_cell_angle_beta	89.996455
_cell_angle_gamma	82.642655
loop_
_atom_site_label
_atom_site_type_symbol
_atom_site_fract_x
_atom_site_fract_y
_atom_site_fract_z
O1	O	0.640930	0.057518	-0.060794
O2	O	0.500137	0.066263	-0.060818
O3	O	0.574906	-0.008506	-0.060791
O4	O	0.566161	0.132287	-0.060821
O5	O	0.574894	-0.008510	0.060971
O6	O	0.500124	0.066259	0.060944
O7	O	0.640918	0.057514	0.060968
Zn8	Zn	0.570519	0.061886	0.080288
Zn9	Zn	0.570535	0.061891	-0.080138
O10	O	0.566148	0.132283	0.060941
C11	C	0.482124	0.066078	0.000061
C12	C	0.428469	0.065525	0.000052
C13	C	0.089654	0.106229	0.000076
C14	C	-0.112006	0.104178	0.000082
O15	O	-0.143262	0.141398	0.000106
N16	N	-0.131130	0.059843	0.000090
C17	C	-0.099835	0.016017	0.000101
O18	O	-0.120728	-0.021740	0.000116
C19	C	0.101824	0.018068	0.000100
C20	C	0.120944	0.062407	0.000084
C21	C	0.108775	0.150563	0.000061
C22	C	0.159187	0.151075	0.000055
C23	C	0.190477	0.107253	0.000064
C24	C	0.171356	0.062919	0.000079
C25	C	0.133117	-0.025757	0.000116
C26	C	0.183535	-0.025240	0.000117
C27	C	0.202655	0.019098	0.000102
C28	C	0.253059	0.019609	0.000082
N29	N	0.272183	0.063944	0.000074
C30	C	0.240892	0.107766	0.000065
C31	C	-0.205709	0.014943	0.000101
C32	C	-0.256124	0.014430	0.000100
C33	C	-0.268291	0.102591	0.000082
C34	C	-0.217876	0.103104	0.000078
C35	C	-0.186585	0.059278	0.000093
C36	C	0.346761	0.108839	0.000052
C37	C	0.397178	0.109347	0.000043
C38	C	0.409341	0.021186	0.000065
C39	C	0.358929	0.020678	0.000070
C40	C	0.327639	0.064508	0.000066
O41	O	0.284343	-0.017592	0.000066
O42	O	0.261794	0.145518	0.000067
C43	C	0.039242	0.105716	0.000081
C44	C	0.020120	0.061382	0.000096
C45	C	0.051411	0.017560	0.000105
C46	C	-0.030294	0.060869	0.000095
C47	C	-0.061585	0.104691	0.000086
C48	C	-0.042461	0.149026	0.000078
C49	C	0.007951	0.149539	0.000072
C50	C	0.032287	-0.026775	0.000113
C51	C	-0.018125	-0.027284	0.000117
C52	C	-0.049416	0.016538	0.000109
C53	C	0.574716	-0.026515	0.000092
C54	C	0.574164	-0.080170	0.000098
C55	C	0.614867	-0.418985	0.000067
C56	C	0.612816	-0.620645	0.000056
O57	O	0.650037	-0.651900	0.000030
N58	N	0.568481	-0.639768	0.000049
C59	C	0.524656	-0.608474	0.000041
O60	O	0.486899	-0.629367	0.000027
C61	C	0.526707	-0.406815	0.000046
C62	C	0.571045	-0.387694	0.000060
C63	C	0.659202	-0.399864	0.000080
C64	C	0.659714	-0.349452	0.000087
C65	C	0.615892	-0.318161	0.000080
C66	C	0.571557	-0.337282	0.000067
C67	C	0.482882	-0.375521	0.000032
C68	C	0.483399	-0.325104	0.000031
C69	C	0.527737	-0.305983	0.000045
C70	C	0.528247	-0.255580	0.000067
N71	N	0.572583	-0.236456	0.000073
C72	C	0.616405	-0.267747	0.000080
C73	C	0.523582	-0.714348	0.000039
C74	C	0.523069	-0.764762	0.000039
C75	C	0.611230	-0.776930	0.000053
C76	C	0.611742	-0.726514	0.000059
C77	C	0.567917	-0.695224	0.000046
C78	C	0.617477	-0.161878	0.000094
C79	C	0.617986	-0.111461	0.000104
C80	C	0.529825	-0.099298	0.000086
C81	C	0.529316	-0.149710	0.000080
C82	C	0.573147	-0.180999	0.000082
O83	O	0.491047	-0.224296	0.000084
O84	O	0.654156	-0.246844	0.000077
C85	C	0.614355	-0.469397	0.000060
C86	C	0.570021	-0.488518	0.000047
C87	C	0.526198	-0.457228	0.000040
C88	C	0.569508	-0.538933	0.000047
C89	C	0.613330	-0.570223	0.000053
C90	C	0.657665	-0.551100	0.000060
C91	C	0.658177	-0.500688	0.000067
C92	C	0.481863	-0.476351	0.000034
C93	C	0.481355	-0.526764	0.000028
C94	C	0.525177	-0.558054	0.000034
C95	C	0.658931	0.057699	0.000088
C96	C	0.712586	0.058252	0.000091
C97	C	0.566338	0.150292	0.000057
C98	C	0.566891	0.203947	0.000046
N99	N	0.570511	0.061882	0.189775
N100	N	0.570547	0.061891	-0.189625
C101	C	0.603630	0.028791	0.228096
C102	C	0.603633	0.028788	0.304741
C103	C	0.570522	0.061886	0.343062
C104	C	0.537397	0.094981	0.304732
C105	C	0.537392	0.094979	0.228089
N106	N	0.564050	0.104705	0.463385
N107	N	0.564058	0.104705	0.536193
C108	C	0.570535	0.061893	0.573985
N109	N	0.577014	0.019079	0.536217
N110	N	0.577009	0.019080	0.463403
C111	C	0.570524	0.061892	0.426169
C112	C	0.603659	0.028796	0.695412
C113	C	0.603659	0.028793	0.772059
C114	C	0.537425	0.094990	0.772049
C115	C	0.537423	0.094988	0.695404
C116	C	0.570543	0.061892	0.657090
H117	H	-0.202311	0.139207	0.000070
N118	N	0.639384	-0.006896	0.813397
H119	H	0.660641	0.011438	0.845184
H120	H	0.621045	-0.028166	0.845167
H121	H	0.630596	0.001841	0.196903
N122	N	0.338309	-0.027146	0.000087
H123	H	0.317668	-0.029324	0.045232
H124	H	0.317684	-0.029300	-0.045072
H125	H	0.083302	0.186251	0.000056
N126	N	0.443095	-0.026077	0.000075
H127	H	0.477932	-0.019021	0.000073
H128	H	0.436940	-0.045414	0.045222
H129	H	0.057760	-0.062462	0.000121
N130	N	-0.302047	0.149856	0.000122
H131	H	-0.282287	0.178024	0.000133
H132	H	-0.323242	0.151585	-0.045003
H133	H	0.023514	0.185643	0.000061
H134	H	0.646911	-0.802415	0.000059
N135	N	0.639354	-0.006906	0.346085
H136	H	0.660332	-0.027873	0.310183
H137	H	0.660582	0.011458	0.377872
H138	H	0.447710	-0.299629	0.000020
N139	N	0.704930	-0.584855	0.000060
H140	H	0.733098	-0.565097	0.000067
H141	H	0.706631	-0.606046	0.045196
H142	H	0.493213	-0.165279	0.000089
N143	N	0.433530	-0.547384	0.000025
H144	H	0.405849	-0.519907	0.000022
H145	H	0.431399	-0.568028	-0.045117
H146	H	-0.180236	-0.020747	0.000113
H147	H	0.446177	-0.450879	0.000027
N148	N	0.501681	0.130677	0.346059
H149	H	0.506711	0.125658	0.400428
H150	H	0.507004	0.164932	0.332647
H151	H	0.694282	-0.485125	0.000078
H152	H	0.494146	-0.073812	0.000083
N153	N	0.501668	0.130670	0.186752
H154	H	0.480690	0.151637	0.222655
H155	H	0.520009	0.151914	0.154940
N156	N	0.639377	-0.006899	0.654081
H157	H	0.660356	-0.027867	0.689991
H158	H	0.621031	-0.028142	0.622291
N159	N	0.112506	-0.073581	0.000141
H160	H	0.091861	-0.075759	0.045281
H161	H	0.091885	-0.075738	-0.045023
H162	H	0.654093	-0.095896	0.000117
N163	N	0.659563	-0.705893	0.000069
H164	H	0.661737	-0.685253	0.045207
H165	H	0.687215	-0.733396	0.000048
H166	H	-0.067947	0.184708	0.000068
N167	N	0.435062	-0.396141	0.000007
H168	H	0.432873	-0.416793	0.045141
H169	H	0.407409	-0.368639	-0.000030
N170	N	-0.038745	-0.075109	0.000129
H171	H	-0.011268	-0.102790	0.000136
H172	H	-0.059395	-0.077242	0.045273
N173	N	0.501708	0.130686	0.813370
H174	H	0.506735	0.125665	0.867739
H175	H	0.507032	0.164940	0.799961
N176	N	0.501702	0.130680	0.654067
H177	H	0.480726	0.151648	0.689971
H178	H	0.520042	0.151924	0.622252
H179	H	0.695819	-0.333889	0.000095
N180	N	0.179806	0.198897	0.000035
H181	H	0.152328	0.226577	0.000030
H182	H	0.200458	0.201034	0.045171
H183	H	0.412743	0.145454	0.000031
N184	N	0.706471	-0.433609	0.000088
H185	H	0.734630	-0.413838	0.000097
H186	H	0.708175	-0.454794	0.045229
N187	N	0.313018	0.156111	0.000066
H188	H	0.332788	0.184271	0.000060
H189	H	0.291830	0.157830	-0.045067
N190	N	0.217283	-0.072510	0.000138
H191	H	0.197517	-0.100672	0.000149
H192	H	0.238467	-0.074220	-0.045001
H193	H	0.486964	-0.780325	0.000041
H194	H	-0.271687	-0.021674	0.000101
H195	H	0.487892	-0.688875	0.000029
N196	N	0.664750	-0.195621	0.000096
H197	H	0.692910	-0.175851	0.000107
H198	H	0.666454	-0.216810	0.045234
