data_functionalizedCrystal
_audit_creation_method	'MofGen! by Chris Wilmer'
_symmetry_space_group_name_H-M	'P1'
_symmetry_Int_Tables_number	1
_symmetry_cell_setting	triclinic
loop_
_symmetry_equiv_pos_as_xyz
  x,y,z
_cell_length_a	9.065215
_cell_length_b	10.868271
_cell_length_c	9.065215
_cell_angle_alpha	90.000445
_cell_angle_beta	85.014697
_cell_angle_gamma	90.003841
loop_
_atom_site_label
_atom_site_type_symbol
_atom_site_fract_x
_atom_site_fract_y
_atom_site_fract_z
O1	O	1.960402	0.102305	0.216330
O2	O	2.293735	0.435639	0.549663
O3	O	2.627069	0.768972	0.882996
O4	O	1.531117	0.102311	0.234080
O5	O	1.864450	0.435644	0.567414
O6	O	2.197783	0.768977	0.900747
O7	O	1.754635	0.102303	0.010562
O8	O	2.087968	0.435636	0.343896
O9	O	2.421301	0.768969	0.677229
O10	O	1.736884	0.102313	0.439848
O11	O	2.070217	0.435647	0.773181
O12	O	2.403550	0.768980	1.106514
O13	O	1.754614	-0.102342	0.010569
O14	O	2.087948	0.230991	0.343903
O15	O	2.421281	0.564325	0.677236
O16	O	1.531096	-0.102334	0.234088
O17	O	1.864429	0.230999	0.567421
O18	O	2.197763	0.564333	0.900754
O19	O	1.960382	-0.102339	0.216337
O20	O	2.293715	0.230994	0.549670
O21	O	2.627048	0.564327	0.883003
Zn22	Zn	1.745736	-0.134828	0.225213
Zn23	Zn	2.079069	0.198505	0.558547
Zn24	Zn	2.412402	0.531838	0.891880
Zn25	Zn	1.745763	0.134800	0.225204
Zn26	Zn	2.079096	0.468133	0.558537
Zn27	Zn	2.412429	0.801466	0.891871
O28	O	1.736863	-0.102331	0.439855
O29	O	2.070197	0.231002	0.773188
O30	O	2.403530	0.564335	1.106522
C31	C	1.476120	-0.000011	0.232379
C32	C	1.809453	0.333322	0.565712
C33	C	2.142786	0.666656	0.899046
C34	C	1.312277	-0.000009	0.227281
C35	C	1.645610	0.333324	0.560614
C36	C	1.978943	0.666658	0.893948
N37	N	1.745728	-0.318843	0.225219
N38	N	2.079061	0.014491	0.558552
N39	N	2.412395	0.347824	0.891885
C40	C	1.745739	-0.430180	0.225219
C41	C	2.079073	-0.096847	0.558553
C42	C	2.412406	0.236486	0.891886
C43	C	1.745759	-0.569858	0.225206
C44	C	2.079092	-0.236524	0.558539
C45	C	2.412425	0.096809	0.891873
C46	C	2.015379	-0.000015	0.218038
C47	C	2.348712	0.333318	0.551371
C48	C	2.682045	0.666652	0.884705
C49	C	2.179222	-0.000009	0.223136
C50	C	2.512555	0.333324	0.556469
C51	C	2.845888	0.666658	0.889803
C52	C	1.752920	-0.000018	-0.044421
C53	C	2.086253	0.333315	0.288912
C54	C	2.419586	0.666648	0.622246
C55	C	1.747822	-0.000015	-0.208264
C56	C	2.081155	0.333319	0.125069
C57	C	2.414488	0.666652	0.458403
N58	N	1.745782	0.318814	0.225187
N59	N	2.079115	0.652147	0.558520
N60	N	2.412448	0.985480	0.891853
C61	C	1.738579	-0.000008	0.494838
C62	C	2.071912	0.333326	0.828171
C63	C	2.405245	0.666659	1.161505
C64	C	1.743677	-0.000003	0.658681
C65	C	2.077010	0.333330	0.992014
C66	C	2.410343	0.666663	1.325348
