data_functionalizedCrystal
_audit_creation_method	'MofGen! by Chris Wilmer'
_symmetry_space_group_name_H-M	'P1'
_symmetry_Int_Tables_number	1
_symmetry_cell_setting	triclinic
loop_
_symmetry_equiv_pos_as_xyz
  x,y,z
_cell_length_a	10.489711
_cell_length_b	10.489716
_cell_length_c	15.072220
_cell_angle_alpha	90.002992
_cell_angle_beta	89.985932
_cell_angle_gamma	84.528072
loop_
_atom_site_label
_atom_site_type_symbol
_atom_site_fract_x
_atom_site_fract_y
_atom_site_fract_z
O1	O	1.694076	0.179781	-0.073806
O2	O	1.322874	0.196713	-0.073800
O3	O	1.516937	0.002646	-0.073806
O4	O	1.500012	0.373848	-0.073800
O5	O	1.516889	0.002657	0.073759
O6	O	1.322825	0.196724	0.073765
O7	O	1.694027	0.179791	0.073759
Zn8	Zn	1.508419	0.188259	0.097191
Zn9	Zn	1.508482	0.188246	-0.097232
O10	O	1.499963	0.373858	0.073766
C11	C	1.275317	0.195448	-0.000017
C12	C	1.133686	0.191646	-0.000015
C13	C	0.951289	0.308352	-0.000023
C14	C	1.043464	0.250050	-0.072780
C15	C	1.043389	0.250029	0.072708
C16	C	0.973524	0.126506	-0.072851
C17	C	0.973440	0.126502	0.072702
C18	C	1.065587	0.068111	-0.000073
C19	C	1.515642	-0.044880	-0.000026
C20	C	1.511837	-0.186511	-0.000034
C21	C	1.630843	-0.284198	-0.000028
C22	C	1.567981	-0.361557	-0.072782
C23	C	1.567906	-0.361510	0.072705
C24	C	1.449025	-0.262005	-0.072848
C25	C	1.448967	-0.261953	0.072705
C26	C	1.386018	-0.339263	-0.000067
C27	C	1.741584	0.181057	-0.000026
C28	C	1.883215	0.184859	-0.000034
C29	C	1.501259	0.421385	-0.000016
C30	C	1.505064	0.563016	-0.000014
N31	N	1.508384	0.188268	0.229880
N32	N	1.508526	0.188227	-0.229921
C33	C	1.508480	0.188241	0.589082
C34	C	1.404285	0.291727	0.551478
C35	C	1.404529	0.292111	0.448652
C36	C	1.508431	0.188254	0.410878
C37	C	1.641794	0.218533	0.448167
C38	C	1.641212	0.219270	0.551025
C39	C	1.480495	0.054176	0.551180
C40	C	1.477450	0.055041	0.448317
C41	C	1.508412	0.188259	0.310164
C42	C	1.508507	0.188238	0.689795
H43	H	1.115053	-0.033485	-0.000111
H44	H	0.942740	0.074298	-0.134434
C45	C	1.085361	0.320629	-0.155874
C46	C	1.034655	0.461389	-0.171856
C47	C	1.076545	0.531976	-0.254947
C48	C	1.169141	0.461803	-0.322054
C49	C	1.219852	0.321036	-0.306073
C50	C	1.177962	0.250449	-0.222983
H51	H	0.966105	0.513341	-0.122178
H52	H	1.039005	0.636181	-0.266776
H53	H	1.200151	0.514056	-0.383562
H54	H	1.288402	0.269083	-0.355752
H55	H	1.215503	0.146243	-0.211153
H56	H	0.942401	0.074297	0.134214
H57	H	1.074320	0.302308	0.134219
H58	H	0.901590	0.409854	-0.000093
C59	C	1.770678	-0.250861	-0.000126
C60	C	1.860493	-0.295436	-0.077207
C61	C	2.000324	-0.262096	-0.077309
C62	C	2.050340	-0.184182	-0.000330
C63	C	1.960524	-0.139603	0.076757
C64	C	1.820693	-0.172942	0.076859
H65	H	1.823470	-0.353116	-0.134197
H66	H	2.066812	-0.295097	-0.134375
H67	H	2.153851	-0.159502	-0.000406
H68	H	1.997547	-0.081922	0.133747
H69	H	1.754205	-0.139941	0.133925
H70	H	1.618238	-0.405061	-0.134293
C71	C	1.381236	-0.203517	-0.156043
C72	C	1.372407	-0.057817	-0.171446
C73	C	1.304626	0.000672	-0.254641
C74	C	1.245673	-0.086539	-0.322431
C75	C	1.254500	-0.232248	-0.307029
C76	C	1.322282	-0.290737	-0.223835
H77	H	1.416049	0.006749	-0.121262
H78	H	1.298092	0.108535	-0.266042
H79	H	1.195497	-0.043242	-0.384016
H80	H	1.210858	-0.296815	-0.357214
H81	H	1.328816	-0.398601	-0.212434
C82	C	1.246076	-0.372267	-0.000113
C83	C	1.156323	-0.327447	-0.077138
C84	C	1.016384	-0.360454	-0.077189
C85	C	0.966199	-0.438283	-0.000215
C86	C	1.055954	-0.483108	0.076816
C87	C	1.195892	-0.450100	0.076866
H88	H	1.193472	-0.269829	-0.134124
H89	H	0.949942	-0.327271	-0.134213
H90	H	0.862608	-0.462717	-0.000253
H91	H	1.018805	-0.540725	0.133801
H92	H	1.262335	-0.483283	0.133890
H93	H	1.379340	0.032091	0.423946
H94	H	1.666822	0.315235	0.422399
H95	H	1.398754	-0.218425	0.134218
C96	C	1.635767	-0.420229	0.155804
C97	C	1.778331	-0.404088	0.171762
C98	C	1.846202	-0.462804	0.254855
C99	C	1.771508	-0.537660	0.321990
C100	C	1.628935	-0.553804	0.306034
C101	C	1.561064	-0.495089	0.222941
H102	H	1.833631	-0.348672	0.122063
H103	H	1.951744	-0.450852	0.266667
H104	H	1.821750	-0.581124	0.383501
H105	H	1.573635	-0.609221	0.355733
H106	H	1.455522	-0.507041	0.211129
H107	H	1.305437	0.273892	0.423443
C108	C	1.428318	0.425354	0.586326
C109	C	1.542044	0.440828	0.648723
C110	C	1.566109	0.574459	0.683547
C111	C	1.476448	0.692616	0.655975
C112	C	1.362715	0.677146	0.593575
C113	C	1.338650	0.543515	0.558751
H114	H	1.608423	0.353358	0.669137
H115	H	1.650302	0.585911	0.729740
H116	H	1.494262	0.791538	0.681754
H117	H	1.296336	0.764616	0.573162
H118	H	1.254457	0.532064	0.512558
C119	C	1.749120	0.119495	0.415110
C120	C	1.860425	0.163297	0.359790
C121	C	1.967749	0.064258	0.326731
C122	C	1.963769	-0.078583	0.348993
C123	C	1.852460	-0.122392	0.404316
C124	C	1.745135	-0.023353	0.437374
H125	H	1.863376	0.269043	0.343308
H126	H	2.050148	0.096689	0.285778
H127	H	2.043217	-0.151897	0.324521
H128	H	1.849509	-0.228137	0.420798
H129	H	1.662737	-0.055784	0.478328
C130	C	1.428839	0.426475	0.415393
C131	C	1.448098	0.533759	0.482426
C132	C	1.472411	0.668129	0.449167
C133	C	1.477464	0.695216	0.348876
C134	C	1.458205	0.587929	0.281837
C135	C	1.433892	0.453559	0.315096
H136	H	1.444357	0.513710	0.556673
H137	H	1.486668	0.747549	0.498794
H138	H	1.495462	0.794684	0.324256
H139	H	1.461945	0.607977	0.207590
H140	H	1.419635	0.374138	0.265468
C141	C	1.749189	0.121414	0.584635
C142	C	1.835675	0.042852	0.517879
C143	C	1.943656	-0.054993	0.551483
C144	C	1.965153	-0.074277	0.651844
C145	C	1.878665	0.004286	0.718606
C146	C	1.770683	0.102132	0.685001
H147	H	1.819764	0.057125	0.443580
H148	H	2.007680	-0.113151	0.502061
H149	H	2.045087	-0.146709	0.676720
H150	H	1.894575	-0.009987	0.792904
H151	H	1.706659	0.160290	0.734424
H152	H	1.304875	0.273791	0.576241
H153	H	1.665687	0.317079	0.575008
H154	H	1.385294	0.025360	0.577171
H155	H	1.548317	-0.025671	0.422606
H156	H	1.556466	-0.022850	0.575496
