data_functionalizedCrystal
_audit_creation_method	'MofGen! by Chris Wilmer'
_symmetry_space_group_name_H-M	'P1'
_symmetry_Int_Tables_number	1
_symmetry_cell_setting	triclinic
loop_
_symmetry_equiv_pos_as_xyz
  x,y,z
_cell_length_a	18.426585
_cell_length_b	20.875641
_cell_length_c	18.426585
_cell_angle_alpha	57.589776
_cell_angle_beta	90.001513
_cell_angle_gamma	62.441129
loop_
_atom_site_label
_atom_site_type_symbol
_atom_site_fract_x
_atom_site_fract_y
_atom_site_fract_z
Zr1	Zr	0.728260	0.702141	-0.124403
O2	O	0.617934	0.835961	-0.245836
O3	O	0.758227	0.568322	-0.083325
O4	O	0.763776	0.702147	-0.240286
O5	O	0.612391	0.702131	0.030555
O6	O	0.883202	0.702152	-0.240289
O7	O	0.612385	0.702136	-0.088876
O8	O	0.873277	0.462763	0.040484
O9	O	0.622317	0.941520	-0.250218
O10	O	0.864790	0.623367	-0.070463
O11	O	0.775668	0.623361	0.018670
O12	O	0.782201	0.780922	-0.166130
O13	O	0.693079	0.780916	-0.076998
Zr14	Zr	0.918740	0.702141	0.066070
Zr15	Zr	0.918730	0.702149	-0.124408
Zr16	Zr	0.728269	0.702134	0.066076
Zr17	Zr	0.735250	0.870496	-0.131392
Zr18	Zr	0.911750	0.533787	0.073059
O19	O	0.888772	0.835961	0.024993
O20	O	0.888759	0.835971	-0.245844
O21	O	0.617947	0.835951	0.025000
O22	O	1.029066	0.568322	0.187504
O23	O	1.029052	0.568332	-0.083333
O24	O	0.758241	0.568312	0.187511
O25	O	1.034609	0.702152	-0.088888
O26	O	0.883224	0.702136	0.181953
O27	O	0.763797	0.702131	0.181956
O28	O	1.034615	0.702147	0.030543
O29	O	0.773716	0.941525	-0.250222
O30	O	0.873284	0.462758	0.191890
O31	O	1.024683	0.462763	0.191885
O32	O	1.024675	0.462769	0.040480
O33	O	0.622324	0.941514	-0.098813
O34	O	0.773723	0.941520	-0.098817
O35	O	0.864799	0.623361	0.107798
O36	O	0.953921	0.623367	0.018665
O37	O	0.871332	0.780922	-0.077003
O38	O	0.782210	0.780916	0.012130
C39	C	0.814756	0.491556	-0.020425
C40	C	0.811788	0.420085	-0.017458
C41	C	0.856913	0.386511	-0.062591
C42	C	0.854126	0.319352	-0.059794
C43	C	0.806211	0.285772	-0.011870
C44	C	0.761085	0.319349	0.033268
C45	C	0.763877	0.386502	0.030476
C46	C	0.792878	0.084928	0.001472
C47	C	0.790087	0.017771	0.004258
C48	C	0.883130	0.017778	-0.088803
C49	C	0.885913	0.084937	-0.091595
C50	C	0.840792	0.118504	-0.046453
N51	N	0.803359	0.217127	-0.009013
N52	N	0.843648	0.187144	-0.049305
C53	C	0.585250	0.702133	-0.029160
C54	C	0.504390	0.702129	-0.029158
C55	C	0.208276	0.702157	-0.029174
C56	C	0.290662	0.702153	-0.029172
C57	C	0.356331	0.702143	-0.029167
C58	C	0.438722	0.702139	-0.029163
C59	C	1.061750	0.702150	-0.029173
C60	C	1.142610	0.702153	-0.029175
C61	C	0.823488	0.702150	-0.267426
C62	C	0.823484	0.702153	-0.348290
C63	C	0.832244	0.912727	-0.037908
C64	C	0.835211	0.984198	-0.040875
C65	C	0.823516	0.702126	-0.644372
C66	C	0.823509	0.702130	-0.561991
C67	C	0.823499	0.702140	-0.496334
C68	C	0.823493	0.702144	-0.413947
C69	C	0.823512	0.702133	0.209094
C70	C	0.823516	0.702129	0.289957
C71	C	1.053006	0.491565	-0.020431
C72	C	1.130898	0.420097	-0.017467
C73	C	0.814768	0.491547	0.217835
C74	C	0.811805	0.420073	0.301665
C75	C	1.053018	0.491556	0.217829
C76	C	1.130914	0.420085	0.301657
C77	C	0.593982	0.912727	-0.276161
C78	C	0.516085	0.984198	-0.359989
C79	C	0.593994	0.912718	-0.037901
C80	C	0.516102	0.984186	-0.040866
C81	C	0.832232	0.912736	-0.276168
C82	C	0.835195	0.984210	-0.359998
C83	C	1.120952	0.386535	-0.062606
C84	C	1.194133	0.319393	-0.059839
C85	C	1.277260	0.285809	-0.011926
C86	C	1.287204	0.319378	0.033215
C87	C	1.214024	0.386523	0.030441
C88	C	0.856938	0.386508	0.387564
C89	C	0.854151	0.319360	0.466339
C90	C	0.806234	0.285774	0.459212
C91	C	0.761095	0.319345	0.373303
C92	C	0.763878	0.386497	0.294531
C93	C	1.214024	0.386525	0.294497
C94	C	1.287223	0.319380	0.373254
C95	C	1.277311	0.285792	0.459171
C96	C	1.194193	0.319358	0.466329
C97	C	1.120996	0.386507	0.387572
C98	C	0.432976	1.017766	-0.352830
C99	C	0.359777	1.084932	-0.431588
C100	C	0.369690	1.118524	-0.517505
C101	C	0.452808	1.084953	-0.524663
C102	C	0.526005	1.017793	-0.445905
C103	C	0.526048	1.017755	0.004265
C104	C	0.452868	1.084916	0.001476
C105	C	0.369741	1.118502	-0.046439
C106	C	0.359796	1.084930	-0.091576
C107	C	0.432976	1.017775	-0.088792
C108	C	0.883120	1.017775	-0.352842
C109	C	0.885922	1.084923	-0.431601
C110	C	0.840793	1.118510	-0.517516
C111	C	0.792866	1.084938	-0.524671
C112	C	0.790070	1.017786	-0.445912
H113	H	0.890871	0.292016	-0.096544
H114	H	1.222135	0.413841	0.067205
H115	H	1.186019	0.292069	-0.096598
H116	H	1.053273	0.413878	-0.101633
F117	F	1.355137	0.214345	-0.008981
H118	H	0.924930	0.112276	-0.130618
F119	F	0.739052	0.982078	-0.453542
H120	H	0.292105	1.112286	-0.130588
H121	H	0.424865	0.990445	-0.125541
F122	F	0.463470	1.120631	0.049523
F123	F	1.183657	0.283601	0.557775
F124	F	1.375681	0.283624	0.084206
H125	H	0.895957	0.413847	0.393385
H126	H	0.924947	1.112250	-0.425758
F127	F	0.803281	0.214304	0.543057
F128	F	0.463344	1.120712	-0.616109
H129	H	0.919870	0.990439	-0.282893
H130	H	0.756140	0.112247	0.038234
H131	H	0.890912	0.292034	0.536281
F132	F	0.614454	0.982069	-0.453539
H133	H	0.722082	0.291989	0.367514
H134	H	0.727127	0.413816	0.224591
H135	H	0.843076	1.173189	-0.581640
F136	F	1.224593	0.422264	0.203065
F137	F	0.739084	-0.017963	0.055265
F138	F	0.907907	0.422248	-0.113603
F139	F	0.931150	-0.017953	-0.136841
H140	H	0.756124	1.112295	-0.594633
H141	H	0.722076	0.291998	0.072294
F142	F	0.614511	0.982024	0.055264
H143	H	1.053326	0.413822	0.393414
H144	H	1.336921	0.231115	0.523293
H145	H	0.424889	0.990419	-0.282879
F146	F	0.715851	0.422232	0.078515
H147	H	1.354895	0.292057	0.367410
H148	H	0.310161	1.173184	-0.048699
H149	H	0.292106	1.112254	-0.425743
F150	F	0.291778	1.190002	-0.601319
