data_functionalizedCrystal
_audit_creation_method	'MofGen! by Chris Wilmer'
_symmetry_space_group_name_H-M	'P1'
_symmetry_Int_Tables_number	1
_symmetry_cell_setting	triclinic
loop_
_symmetry_equiv_pos_as_xyz
  x,y,z
_cell_length_a	8.597213
_cell_length_b	26.809956
_cell_length_c	8.559649
_cell_angle_alpha	89.991966
_cell_angle_beta	77.624681
_cell_angle_gamma	82.306057
loop_
_atom_site_label
_atom_site_type_symbol
_atom_site_fract_x
_atom_site_fract_y
_atom_site_fract_z
O1	O	2.053681	-0.129734	0.238101
O2	O	1.594553	-0.110004	0.256353
O3	O	1.864567	-0.121607	0.015258
O4	O	1.783668	-0.118131	0.479196
O5	O	1.864610	-0.038649	0.015214
O6	O	1.594597	-0.027046	0.256309
O7	O	2.053724	-0.046777	0.238057
Zn8	Zn	1.824168	-0.023740	0.247176
Zn9	Zn	1.824110	-0.133040	0.247234
O10	O	1.783711	-0.035174	0.479152
C11	C	1.536341	-0.066023	0.254369
C12	C	1.362824	-0.058566	0.248502
N13	N	1.824073	-0.207634	0.247262
C14	C	1.943910	-0.557410	0.140680
C15	C	1.943940	-0.766289	0.140644
O16	O	2.045811	-0.797670	0.050086
N17	N	1.824203	-0.787267	0.247169
C18	C	1.704457	-0.756022	0.353717
O19	O	1.602624	-0.778659	0.444333
C20	C	1.704435	-0.547145	0.353760
C21	C	1.824170	-0.526169	0.247217
C22	C	2.063637	-0.536434	0.034147
C23	C	2.063623	-0.484217	0.034151
C24	C	1.943883	-0.452976	0.140688
C25	C	1.824157	-0.473952	0.247221
C26	C	1.584697	-0.515901	0.460315
C27	C	1.584705	-0.463679	0.460319
C28	C	1.704440	-0.442703	0.353776
C29	C	1.704403	-0.390494	0.353762
N30	N	1.824140	-0.369516	0.247237
C31	C	1.943880	-0.400757	0.140700
C32	C	1.704475	-0.865686	0.353685
C33	C	1.704478	-0.917905	0.353673
C34	C	1.943964	-0.928169	0.140601
C35	C	1.943952	-0.875948	0.140607
C36	C	1.824211	-0.844708	0.247160
C37	C	1.943841	-0.291098	0.140716
C38	C	1.943813	-0.238875	0.140725
C39	C	1.704334	-0.228617	0.353802
C40	C	1.704356	-0.280834	0.353788
C41	C	1.824124	-0.312074	0.247239
O42	O	1.602596	-0.359083	0.444284
O43	O	2.045718	-0.378112	0.050121
C44	C	1.943924	-0.609627	0.140675
C45	C	1.824198	-0.630603	0.247208
C46	C	1.704458	-0.599362	0.353746
C47	C	1.824201	-0.682822	0.247196
C48	C	1.943941	-0.714063	0.140659
C49	C	2.063677	-0.693085	0.034134
C50	C	2.063664	-0.640868	0.034138
C51	C	1.584721	-0.620340	0.460270
C52	C	1.584744	-0.672557	0.460256
C53	C	1.704483	-0.703798	0.353719
C54	C	2.111937	-0.090759	0.240042
C55	C	2.285454	-0.098219	0.245908
C56	C	1.870719	-0.080392	-0.044198
C57	C	1.888968	-0.081179	-0.221293
N58	N	1.824218	0.050854	0.247136
C59	C	1.777559	-0.076389	0.538608
C60	C	1.759310	-0.075605	0.715703
H61	H	2.041317	-0.221800	0.053959
H62	H	2.013943	-0.086546	-0.302844
H63	H	1.351957	-0.137870	0.248188
H64	H	1.296308	-0.018912	0.246240
H65	H	1.487198	-0.438245	0.547092
N66	N	1.582047	-0.302256	0.462630
N67	N	1.566145	-0.295743	0.610108
H68	H	1.479771	-0.310870	0.686991
N69	N	1.602534	-0.068882	-0.182012
N70	N	1.507319	-0.099762	-0.189225
H71	H	1.396593	-0.095015	-0.116977
N72	N	2.066085	-0.323008	0.031800
N73	N	2.081861	-0.317837	-0.115663
H74	H	2.168157	-0.340378	-0.192613
N75	N	2.185944	-0.462804	-0.074690
N76	N	2.292839	-0.490712	-0.169793
H77	H	2.379239	-0.475592	-0.246665
N78	N	2.185964	-0.568332	-0.074712
N79	N	2.201861	-0.563162	-0.222186
H80	H	2.288259	-0.585686	-0.299083
N81	N	2.066266	-0.854533	0.031763
N82	N	2.173155	-0.882438	-0.063353
H83	H	2.259547	-0.867317	-0.140230
N84	N	2.066260	-0.960093	0.031779
N85	N	2.066232	-1.006715	0.031799
H86	H	2.152603	-1.029265	-0.045046
N87	N	1.582140	-0.939319	0.462490
N88	N	1.475244	-0.911413	0.557599
H89	H	1.388840	-0.926534	0.634461
N90	N	1.582033	-0.196692	0.462604
N91	N	1.582058	-0.150070	0.462583
H92	H	1.495687	-0.127521	0.539430
N93	N	1.582147	-0.833786	0.462552
N94	N	1.475261	-0.852530	0.557648
H95	H	1.388863	-0.830003	0.634536
N96	N	2.185980	-0.619454	-0.074708
N97	N	2.292871	-0.647362	-0.169816
H98	H	2.379265	-0.632242	-0.246695
H99	H	2.161170	-0.718530	-0.052619
N100	N	1.462371	-0.537309	0.569152
N101	N	1.355486	-0.509401	0.664262
H102	H	1.269085	-0.524519	0.741137
N103	N	1.462423	-0.693970	0.569119
N104	N	1.446533	-0.687455	0.716594
H105	H	1.360153	-0.702576	0.793487
N106	N	1.462375	-0.588432	0.569073
N107	N	1.371375	-0.555392	0.516694
H108	H	1.284952	-0.532858	0.593535
