data_functionalizedCrystal
_audit_creation_method	'MofGen! by Chris Wilmer'
_symmetry_space_group_name_H-M	'P1'
_symmetry_Int_Tables_number	1
_symmetry_cell_setting	triclinic
loop_
_symmetry_equiv_pos_as_xyz
  x,y,z
_cell_length_a	12.837943
_cell_length_b	12.837942
_cell_length_c	11.892095
_cell_angle_alpha	94.302569
_cell_angle_beta	85.689438
_cell_angle_gamma	94.828940
loop_
_atom_site_label
_atom_site_type_symbol
_atom_site_fract_x
_atom_site_fract_y
_atom_site_fract_z
O1	O	1.408367	0.266110	-0.093982
O2	O	1.105234	0.252667	-0.093989
O3	O	1.250078	0.107822	-0.093979
O4	O	1.263522	0.410955	-0.093992
O5	O	1.237999	0.119879	0.094028
O6	O	1.093155	0.264723	0.094018
O7	O	1.396288	0.278167	0.094025
Zn8	Zn	1.242803	0.273359	0.123871
Zn9	Zn	1.258718	0.257474	-0.123836
O10	O	1.251443	0.423011	0.094014
C11	C	1.060125	0.254153	0.000014
C12	C	0.943710	0.240609	0.000011
C13	C	1.239497	0.074781	0.000024
C14	C	1.225953	-0.041634	0.000022
C15	C	0.718835	0.403439	0.000020
C16	C	0.609453	0.390717	0.000019
C17	C	0.615561	0.202446	0.000015
C18	C	0.724943	0.215167	0.000017
C19	C	0.776577	0.315667	0.000017
C20	C	0.885961	0.328387	0.000011
C21	C	0.892066	0.140117	0.000015
C22	C	0.782684	0.127395	0.000014
C23	C	1.388784	-0.266509	0.000002
C24	C	1.376062	-0.375892	-0.000000
C25	C	1.187791	-0.369784	0.000007
C26	C	1.200512	-0.260402	0.000009
C27	C	1.301011	-0.208768	0.000008
C28	C	1.313731	-0.099383	0.000019
C29	C	1.125461	-0.093278	0.000018
C30	C	1.112740	-0.202660	0.000016
C31	C	1.441397	0.276680	0.000020
C32	C	1.557812	0.290224	0.000015
C33	C	1.262024	0.456052	0.000009
C34	C	1.275569	0.572467	0.000004
N35	N	1.231950	0.284200	0.292925
N36	N	1.269579	0.246626	-0.292889
C37	C	1.345098	0.171130	0.529580
C38	C	1.337519	0.178716	0.647922
C39	C	1.209210	0.306952	0.647951
C40	C	1.216788	0.299366	0.529610
C41	C	1.284736	0.231454	0.470428
C42	C	1.292319	0.223874	0.352085
C43	C	1.164005	0.352104	0.352116
C44	C	1.156426	0.359690	0.470458
H45	H	0.928000	0.410219	0.000013
H46	H	1.053990	-0.046252	0.000033
H47	H	0.740628	0.045572	0.000026
H48	H	1.114857	0.401227	0.303941
O49	O	1.461432	-0.431820	0.000046
C50	C	1.552860	-0.362788	0.000014
H51	H	1.532046	-0.281641	0.035611
H52	H	1.611518	-0.393030	0.054593
H53	H	1.588946	-0.357873	-0.090183
H54	H	0.760876	0.485269	0.000019
O55	O	0.553260	0.475889	-0.000135
C56	C	0.496084	0.467938	-0.097522
H57	H	0.484433	0.382221	-0.129985
H58	H	0.416467	0.500237	-0.075626
H59	H	0.541115	0.514924	-0.165703
H60	H	1.101102	0.414980	0.518656
H61	H	1.386671	0.129593	0.696080
H62	H	1.347647	0.168579	0.303901
O63	O	0.948036	0.054780	0.000164
C64	C	0.916936	0.000655	0.097547
H65	H	0.834564	0.020262	0.130015
H66	H	0.917395	-0.087299	0.075643
H67	H	0.973698	0.025232	0.165727
O68	O	0.565232	0.104900	-0.000023
C69	C	0.456304	0.112503	0.000017
H70	H	0.441030	0.189383	-0.035583
H71	H	0.420177	0.044050	-0.054555
H72	H	0.419624	0.110224	0.090218
O73	O	1.143143	0.372769	0.705580
C74	C	1.068629	0.314662	0.774020
H75	H	1.101102	0.238019	0.791721
H76	H	1.051056	0.362031	0.857251
H77	H	0.993475	0.296949	0.728432
O78	O	1.411386	-0.049283	-0.000188
C79	C	1.471795	-0.084129	-0.097552
H80	H	1.417583	-0.116772	-0.165601
H81	H	1.524957	-0.015675	-0.130241
H82	H	1.521695	-0.148115	-0.075546
O83	O	1.486369	-0.216288	0.000206
C84	C	1.493096	-0.146940	0.097562
H85	H	1.431471	-0.173809	0.165617
H86	H	1.574396	-0.146306	0.130249
H87	H	1.478862	-0.064632	0.075548
O88	O	1.090245	-0.420113	0.000055
C89	C	1.097847	-0.529040	0.000016
H90	H	1.174727	-0.544318	0.035605
H91	H	1.029392	-0.565172	0.054598
H92	H	1.095569	-0.565710	-0.090183
O93	O	1.015183	-0.252950	-0.000131
C94	C	1.008430	-0.322256	-0.097518
H95	H	1.090338	-0.343372	-0.129990
H96	H	0.958241	-0.396480	-0.075617
H97	H	0.971250	-0.282962	-0.165693
O98	O	1.411120	0.105083	0.472260
C99	C	1.462799	0.053490	0.549848
H100	H	1.414362	0.053448	0.634216
H101	H	1.472709	-0.030716	0.515651
H102	H	1.543115	0.096017	0.562415
