data_functionalizedCrystal
_audit_creation_method	'MofGen! by Chris Wilmer'
_symmetry_space_group_name_H-M	'P1'
_symmetry_Int_Tables_number	1
_symmetry_cell_setting	triclinic
loop_
_symmetry_equiv_pos_as_xyz
  x,y,z
_cell_length_a	12.827893
_cell_length_b	13.897448
_cell_length_c	12.827885
_cell_angle_alpha	90.032276
_cell_angle_beta	90.019272
_cell_angle_gamma	90.017663
loop_
_atom_site_label
_atom_site_type_symbol
_atom_site_fract_x
_atom_site_fract_y
_atom_site_fract_z
Zn1	Zn	1.597653	-0.383969	0.590831
Zn2	Zn	1.930986	-0.050636	0.924164
Zn3	Zn	2.264320	0.282698	1.257497
Zn4	Zn	1.597540	-0.545295	0.416083
Zn5	Zn	1.930873	-0.211962	0.749417
Zn6	Zn	2.264207	0.121371	1.082750
Zn7	Zn	1.422894	-0.384016	0.416104
Zn8	Zn	1.756228	-0.050683	0.749438
Zn9	Zn	2.089561	0.282651	1.082771
Zn10	Zn	1.422873	-0.545224	0.590783
Zn11	Zn	1.756206	-0.211890	0.924117
Zn12	Zn	2.089539	0.121443	1.257450
O13	O	1.510240	-0.464626	0.503450
O14	O	1.843573	-0.131293	0.836784
O15	O	2.176907	0.202041	1.170117
O16	O	1.743874	-0.405380	0.567661
O17	O	2.077207	-0.072046	0.900994
O18	O	2.410541	0.261287	1.234328
O19	O	1.574335	-0.523951	0.269850
O20	O	1.907668	-0.190618	0.603183
O21	O	2.241001	0.142716	0.936517
O22	O	1.446133	-0.249028	0.439311
O23	O	1.779466	0.084305	0.772644
O24	O	2.112799	0.417639	1.105977
O25	O	1.743791	-0.523905	0.439275
O26	O	2.077124	-0.190572	0.772608
O27	O	2.410458	0.142761	1.105942
O28	O	1.574527	-0.248994	0.567681
O29	O	1.907860	0.084340	0.901015
O30	O	2.241194	0.417673	1.234348
O31	O	1.446023	-0.405460	0.269865
O32	O	1.779357	-0.072126	0.603199
O33	O	2.112690	0.261207	0.936532
O34	O	1.276655	-0.405390	0.439265
O35	O	1.609989	-0.072057	0.772598
O36	O	1.943322	0.261277	1.105931
O37	O	1.446096	-0.523783	0.737026
O38	O	1.779429	-0.190450	1.070359
O39	O	2.112762	0.142884	1.403692
O40	O	1.276639	-0.523829	0.567601
O41	O	1.609973	-0.190495	0.900934
O42	O	1.943306	0.142838	1.234267
O43	O	1.574506	-0.405310	0.737060
O44	O	1.907839	-0.071977	1.070394
O45	O	2.241173	0.261357	1.403727
O46	O	1.574314	-0.680267	0.439229
O47	O	1.907647	-0.346934	0.772562
O48	O	2.240980	-0.013601	1.105896
O49	O	1.445986	-0.680215	0.567580
O50	O	1.779320	-0.346881	0.900914
O51	O	2.112653	-0.013548	1.234247
C52	C	1.238730	-0.464607	0.503430
C53	C	1.572063	-0.131274	0.836764
C54	C	1.905397	0.202059	1.170097
C55	C	1.122577	-0.464623	0.503447
C56	C	1.455910	-0.131289	0.836780
C57	C	1.789244	0.202044	1.170113
C58	C	1.070812	-0.523321	0.566853
C59	C	1.404145	-0.189988	0.900187
C60	C	1.737479	0.143345	1.233520
C61	C	0.950762	-0.523338	0.566872
C62	C	1.284095	-0.190005	0.900205
C63	C	1.617428	0.143328	1.233538
C64	C	1.510164	-0.715240	0.503420
C65	C	1.843497	-0.381907	0.836753
C66	C	2.176830	-0.048574	1.170087
C67	C	1.510227	-0.822454	0.503442
C68	C	1.843560	-0.489121	0.836775
C69	C	2.176893	-0.155788	1.170109
C70	C	1.510336	-1.018749	0.503508
C71	C	1.843670	-0.685416	0.836841
C72	C	2.177003	-0.352083	1.170174
C73	C	1.510272	-0.909517	0.503474
C74	C	1.843606	-0.576183	0.836808
C75	C	2.176939	-0.242850	1.170141
C76	C	1.782810	-0.464645	0.503471
C77	C	2.116143	-0.131312	0.836804
C78	C	2.449477	0.202021	1.170138
C79	C	1.898963	-0.464654	0.503480
C80	C	2.232296	-0.131320	0.836813
C81	C	2.565630	0.202013	1.170146
C82	C	1.510311	-0.464533	0.776021
C83	C	1.843644	-0.131200	1.109354
C84	C	2.176978	0.202133	1.442687
C85	C	1.510341	-0.464494	0.892174
C86	C	1.843675	-0.131161	1.225507
C87	C	2.177008	0.202173	1.558841
C88	C	1.510345	-0.213033	0.503504
C89	C	1.843678	0.120300	0.836837
C90	C	2.177012	0.453634	1.170170
C91	C	1.510390	-0.105819	0.503526
C92	C	1.843723	0.227514	0.836860
C93	C	2.177056	0.560848	1.170193
C94	C	1.510229	-0.464649	0.231940
C95	C	1.843563	-0.131315	0.565274
C96	C	2.176896	0.202018	0.898607
C97	C	1.510401	-0.464416	0.115788
C98	C	1.843735	-0.131083	0.449121
C99	C	2.177068	0.202250	0.782454
C100	C	1.573890	-0.405858	0.943976
C101	C	1.907223	-0.072525	1.277309
C102	C	2.240556	0.260809	1.610642
C103	C	1.573923	-0.405816	1.064026
C104	C	1.907256	-0.072483	1.397360
C105	C	2.240589	0.260851	1.730693
H106	H	1.078018	-0.414377	0.449180
H107	H	1.411351	-0.081044	0.782513
H108	H	1.744685	0.252289	1.115846
H109	H	0.943473	-0.414400	0.449188
H110	H	1.276807	-0.081067	0.782522
H111	H	1.610140	0.252266	1.115855
H112	H	1.115371	-0.573559	0.621128
H113	H	1.448704	-0.240226	0.954462
H114	H	1.782037	0.093107	1.287795
H115	H	0.906245	-0.573595	0.621154
H116	H	1.239578	-0.240262	0.954487
H117	H	1.572911	0.093071	1.287820
Cl118	Cl	1.657830	-0.328373	0.875238
Cl119	Cl	1.991163	0.004961	1.208571
Cl120	Cl	2.324496	0.338294	1.541905
Cl121	Cl	1.657932	-0.328312	1.132800
Cl122	Cl	1.991265	0.005022	1.466133
Cl123	Cl	2.324599	0.338355	1.799466
H124	H	1.455953	-0.514656	0.936701
H125	H	1.789286	-0.181323	1.270034
H126	H	2.122619	0.152010	1.603368
H127	H	1.455996	-0.514623	1.071246
H128	H	1.789330	-0.181289	1.404579
H129	H	2.122663	0.152044	1.737913
