data_functionalizedCrystal
_audit_creation_method	'MofGen! by Chris Wilmer'
_symmetry_space_group_name_H-M	'P1'
_symmetry_Int_Tables_number	1
_symmetry_cell_setting	triclinic
loop_
_symmetry_equiv_pos_as_xyz
  x,y,z
_cell_length_a	19.077105
_cell_length_b	18.050590
_cell_length_c	19.076919
_cell_angle_alpha	92.270515
_cell_angle_beta	90.076224
_cell_angle_gamma	87.714864
loop_
_atom_site_label
_atom_site_type_symbol
_atom_site_fract_x
_atom_site_fract_y
_atom_site_fract_z
Zn1	Zn	1.058306	-0.359282	-0.440410
Zn2	Zn	1.062957	-0.478691	-0.322901
Zn3	Zn	0.945523	-0.349334	-0.318204
Zn4	Zn	0.940779	-0.478243	-0.435654
O5	O	1.001891	-0.416388	-0.379292
O6	O	1.157255	-0.379473	-0.428779
O7	O	1.051311	-0.457555	-0.223947
O8	O	0.960522	-0.246732	-0.334440
O9	O	1.160673	-0.467202	-0.342445
O10	O	1.043383	-0.254041	-0.424224
O11	O	0.965032	-0.362517	-0.220496
O12	O	0.846561	-0.362083	-0.329827
O13	O	0.952437	-0.466439	-0.534616
O14	O	0.843076	-0.456792	-0.416117
O15	O	1.038784	-0.379039	-0.538111
O16	O	1.046712	-0.582553	-0.337833
O17	O	0.956948	-0.582224	-0.420672
C18	C	0.819322	-0.408310	-0.371947
C19	C	0.741218	-0.404873	-0.368821
C20	C	0.702731	-0.452637	-0.412209
C21	C	0.629343	-0.449397	-0.409275
C22	C	0.594444	-0.398397	-0.362950
C23	C	0.632936	-0.350628	-0.319561
C24	C	0.706322	-0.353864	-0.322498
C25	C	0.375155	-0.383420	-0.349358
C26	C	0.301764	-0.380189	-0.346422
C27	C	0.298176	-0.478958	-0.436137
C28	C	0.371564	-0.482193	-0.439068
C29	C	0.410049	-0.434421	-0.395681
N30	N	0.519430	-0.395087	-0.359949
N31	N	0.485062	-0.437728	-0.398687
C32	C	1.001838	-0.609336	-0.379262
C33	C	1.001879	-0.691884	-0.379275
C34	C	1.050788	-0.891494	-0.334297
C35	C	1.065373	-0.944195	-0.399117
C36	C	1.001918	-0.843017	-0.379305
C37	C	0.987403	-0.937403	-0.314516
C38	C	1.001957	-0.989005	-0.379328
C39	C	1.016535	-0.894634	-0.444160
C40	C	0.938536	-0.887835	-0.359515
C41	C	0.953096	-0.940514	-0.424378
C42	C	1.001897	-0.758918	-0.379291
C43	C	1.001977	-1.073103	-0.379349
C44	C	1.185173	-0.424497	-0.386667
C45	C	1.263277	-0.427953	-0.389809
C46	C	0.994562	-0.423799	-0.562572
C47	C	0.991439	-0.426957	-0.640675
C48	C	1.001963	-0.222687	-0.379339
C49	C	1.001993	-0.140143	-0.379358
C50	C	1.034926	-0.382938	-0.679189
C51	C	1.031983	-0.385902	-0.752575
C52	C	0.985556	-0.432890	-0.787446
C53	C	0.942065	-0.476910	-0.748927
C54	C	0.945005	-0.473941	-0.675542
C55	C	0.971940	-0.446644	-1.006726
C56	C	0.969005	-0.449611	-1.080116
C57	C	1.058922	-0.358602	-1.083759
C58	C	1.061860	-0.355641	-1.010373
C59	C	1.018367	-0.399658	-0.971860
N60	N	0.982549	-0.435922	-0.862458
N61	N	1.021371	-0.396621	-0.896850
C62	C	1.009232	-0.408953	-0.196727
C63	C	1.012491	-0.405592	-0.118630
H64	H	0.598010	-0.488293	-0.444605
Br65	Br	0.879053	-0.540675	-0.796251
H66	H	0.911783	-0.961907	-0.462496
H67	H	0.731140	-0.494169	-0.449929
Br68	Br	0.418922	-0.551414	-0.501936
H69	H	0.884936	-0.863176	-0.342744
Br70	Br	0.758555	-0.289035	-0.263617
H71	H	0.604515	-0.309100	-0.281845
Br72	Br	1.119684	-0.855614	-0.270924
Br73	Br	0.245942	-0.543790	-0.495013
H74	H	0.273351	-0.338651	-0.308703
Br75	Br	0.885981	-0.533679	-0.623272
H76	H	1.094331	-0.322764	-1.115124
Br77	Br	0.966913	-0.968905	-0.223181
Br78	Br	0.427376	-0.318583	-0.290479
Br79	Br	1.124872	-0.291872	-0.963053
H80	H	1.118990	-0.968837	-0.415870
Br81	Br	0.905991	-0.513381	-1.127441
Br82	Br	1.037139	-0.863301	-0.535527
H83	H	1.072733	-0.344678	-0.650802
Br84	Br	1.091036	-0.326196	-0.804842
H85	H	0.936534	-0.482497	-0.975379
