data_functionalizedCrystal
_audit_creation_method	'MofGen! by Chris Wilmer'
_symmetry_space_group_name_H-M	'P1'
_symmetry_Int_Tables_number	1
_symmetry_cell_setting	triclinic
loop_
_symmetry_equiv_pos_as_xyz
  x,y,z
_cell_length_a	11.026607
_cell_length_b	17.038272
_cell_length_c	9.482900
_cell_angle_alpha	100.012096
_cell_angle_beta	78.636152
_cell_angle_gamma	99.848786
loop_
_atom_site_label
_atom_site_type_symbol
_atom_site_fract_x
_atom_site_fract_y
_atom_site_fract_z
O1	O	1.662374	0.322506	-0.120910
O2	O	1.305163	0.284676	-0.120910
O3	O	1.481644	0.189477	-0.120899
O4	O	1.485893	0.417705	-0.120922
O5	O	1.445807	0.208914	0.120891
O6	O	1.269325	0.304112	0.120880
O7	O	1.626537	0.341943	0.120880
Cu8	Cu	1.444659	0.324802	0.142957
Cu9	Cu	1.487041	0.301816	-0.142988
O10	O	1.450056	0.437141	0.120868
C11	C	1.241313	0.287415	-0.000015
C12	C	1.104451	0.266610	-0.000015
C13	C	1.036577	0.324055	-0.000022
C14	C	0.895123	0.302554	-0.000021
C15	C	1.459863	0.169523	-0.000004
C16	C	1.448341	0.081107	-0.000004
C17	C	1.554125	0.045899	-0.000003
C18	C	1.543294	-0.037179	-0.000016
C19	C	1.426676	-0.085048	-0.000021
C20	C	1.320885	-0.049835	-0.000027
C21	C	1.331719	0.033241	-0.000024
C22	C	1.388403	-0.336201	-0.000041
C23	C	1.377576	-0.419281	-0.000040
C24	C	1.599987	-0.406621	-0.000032
C25	C	1.610809	-0.323543	-0.000020
C26	C	1.505019	-0.288338	-0.000034
C27	C	1.415602	-0.169967	-0.000031
C28	C	1.516096	-0.203421	-0.000034
C29	C	1.690388	0.339203	-0.000018
C30	C	1.827251	0.360008	-0.000028
C31	C	1.471837	0.457095	-0.000030
C32	C	1.483360	0.545511	-0.000039
N33	N	1.414859	0.340969	0.344075
N34	N	1.516850	0.285644	-0.344106
C35	C	1.478242	0.306580	0.416279
C36	C	1.453458	0.320039	0.583695
H37	H	1.057843	0.201507	-0.000046
H38	H	1.686115	-0.435294	-0.000024
H39	H	1.282604	-0.458253	-0.000021
H40	H	1.225934	-0.088816	-0.000041
H41	H	1.342241	0.380373	0.406201
H42	H	1.245579	0.061906	-0.000025
O43	O	0.882633	0.437723	0.000029
C44	C	0.792063	0.486956	-0.000018
H45	H	0.695677	0.456186	0.045759
H46	H	0.813867	0.547337	0.070174
H47	H	0.793405	0.497157	-0.116020
O48	O	1.092270	0.401688	-0.000282
C49	C	1.184823	0.407070	-0.125485
H50	H	1.163054	0.354322	-0.213011
H51	H	1.186263	0.466029	-0.167521
H52	H	1.279991	0.405210	-0.097167
O53	O	1.603543	0.238669	0.581811
C54	C	1.721497	0.271433	0.618626
H55	H	1.708541	0.310814	0.729219
H56	H	1.774950	0.220574	0.623466
H57	H	1.776379	0.309402	0.532963
O58	O	1.565038	0.259642	0.342368
C59	C	1.682863	0.292526	0.379439
H60	H	1.669676	0.331946	0.489978
H61	H	1.736371	0.241740	0.384526
H62	H	1.737817	0.330483	0.293793
O63	O	1.302333	-0.216455	-0.000285
C64	C	1.255866	-0.210054	-0.125487
H65	H	1.336877	-0.190537	-0.213012
H66	H	1.204543	-0.270939	-0.167526
H67	H	1.188606	-0.163510	-0.097167
O68	O	1.285504	-0.302132	0.000029
C69	C	1.180261	-0.362200	-0.000001
H70	H	1.198365	-0.415886	0.045769
H71	H	1.095211	-0.336986	0.070206
H72	H	1.162102	-0.382302	-0.115997
O73	O	0.839513	0.224875	-0.000273
C74	C	0.784078	0.199367	-0.125479
H75	H	0.831793	0.238047	-0.213007
H76	H	0.795102	0.133652	-0.167509
H77	H	0.680515	0.205776	-0.097166
O78	O	1.667513	0.092272	-0.000066
C79	C	1.758551	0.043380	-0.000036
H80	H	1.725008	-0.021372	-0.045810
H81	H	1.849859	0.066166	-0.070239
H82	H	1.774404	0.045811	0.115961
O83	O	1.366908	0.367156	0.657630
C84	C	1.400847	0.445546	0.620563
H85	H	1.464595	0.443221	0.510001
H86	H	1.313215	0.471326	0.615527
H87	H	1.452173	0.485477	0.706183
H88	H	1.629434	-0.065841	-0.000012
H89	H	1.611051	-0.164446	-0.000063
O90	O	1.724195	-0.277168	-0.000075
C91	C	1.815236	-0.326056	-0.000033
H92	H	1.781708	-0.390807	-0.045824
H93	H	1.906551	-0.303261	-0.070216
H94	H	1.831071	-0.323630	0.115969
