data_functionalizedCrystal
_audit_creation_method	'MofGen! by Chris Wilmer'
_symmetry_space_group_name_H-M	'P1'
_symmetry_Int_Tables_number	1
_symmetry_cell_setting	triclinic
loop_
_symmetry_equiv_pos_as_xyz
  x,y,z
_cell_length_a	6.394989
_cell_length_b	9.065215
_cell_length_c	8.140239
_cell_angle_alpha	89.997810
_cell_angle_beta	90.000568
_cell_angle_gamma	94.243796
loop_
_atom_site_label
_atom_site_type_symbol
_atom_site_fract_x
_atom_site_fract_y
_atom_site_fract_z
O1	O	-0.306345	1.963205	-0.136582
O2	O	0.193655	2.463205	0.363418
O3	O	-0.331481	1.534150	-0.136589
O4	O	0.168519	2.034150	0.363411
O5	O	-0.014964	1.754768	-0.136587
O6	O	0.485036	2.254768	0.363413
O7	O	-0.622862	1.742588	-0.136585
O8	O	-0.122862	2.242588	0.363415
O9	O	-0.014960	1.754755	0.136640
O10	O	0.485040	2.254755	0.636640
O11	O	-0.331477	1.534138	0.136638
O12	O	0.168523	2.034138	0.636638
O13	O	-0.306341	1.963193	0.136645
O14	O	0.193659	2.463193	0.636645
Zn15	Zn	-0.318908	1.748663	0.180022
Zn16	Zn	0.181092	2.248663	0.680022
Zn17	Zn	-0.318914	1.748680	-0.179966
Zn18	Zn	0.181086	2.248680	0.320034
O19	O	-0.622858	1.742575	0.136643
O20	O	-0.122858	2.242575	0.636643
C21	C	-0.329065	1.479135	0.000024
C22	C	0.170935	1.979135	0.500024
C23	C	-0.321846	1.315226	0.000021
C24	C	0.178154	1.815226	0.500021
C25	C	0.062905	1.752354	0.000021
C26	C	0.562905	2.252354	0.500021
C27	C	0.299279	1.744993	0.000019
C28	C	0.799279	2.244993	0.500019
C29	C	-0.308757	2.018208	0.000028
C30	C	0.191243	2.518208	0.500028
C31	C	-0.315976	2.182117	0.000021
C32	C	0.184024	2.682117	0.500021
N33	N	-0.318904	1.748663	0.425705
N34	N	0.181096	2.248663	0.925705
N35	N	-0.318902	1.748692	-0.425649
N36	N	0.181098	2.248692	0.074351
