data_functionalizedCrystal
_audit_creation_method	'MofGen! by Chris Wilmer'
_symmetry_space_group_name_H-M	'P1'
_symmetry_Int_Tables_number	1
_symmetry_cell_setting	triclinic
loop_
_symmetry_equiv_pos_as_xyz
  x,y,z
_cell_length_a	6.817900
_cell_length_b	14.125469
_cell_length_c	19.453114
_cell_angle_alpha	96.284531
_cell_angle_beta	101.709288
_cell_angle_gamma	100.398878
loop_
_atom_site_label
_atom_site_type_symbol
_atom_site_fract_x
_atom_site_fract_y
_atom_site_fract_z
V1	V	-3.991106	-0.134114	-0.218726
O2	O	-3.995376	0.005414	-0.214841
O3	O	-3.927403	-0.264935	-0.216961
O4	O	-3.934209	-0.132504	-0.314242
O5	O	-3.988523	-0.127934	-0.116887
V6	V	-4.477817	-0.117372	-0.206578
O7	O	-4.245369	-0.170841	-0.245373
O8	O	-4.673751	-0.080645	-0.179930
O9	O	-4.318314	0.013449	-0.208342
O10	O	-4.590944	-0.256900	-0.210462
O11	O	-4.597797	-0.123552	-0.308416
O12	O	-4.311507	-0.118982	-0.111061
C13	C	-3.768956	-0.296812	-0.213441
C14	C	-3.798101	-0.403763	-0.212636
C15	C	-3.851530	-0.599581	-0.211170
C16	C	-4.036760	-0.651917	-0.214135
C17	C	-4.066490	-0.760877	-0.213320
C18	C	-3.821792	-0.490611	-0.211986
C19	C	-3.777637	-0.127882	-0.337532
C20	C	-3.812300	-0.127430	-0.415615
C21	C	-4.009802	-0.132048	-0.455863
C22	C	-4.042372	-0.131624	-0.529230
C23	C	-3.877435	-0.126602	-0.562350
C24	C	-3.679904	-0.121979	-0.522092
C25	C	-3.647336	-0.122393	-0.448725
N26	N	-3.811749	-0.177410	-0.681035
N27	N	-3.842699	-0.177019	-0.750731
C28	C	-3.975548	-0.125351	-0.783400
N29	N	-4.076310	-0.074102	-0.743742
N30	N	-4.045364	-0.074498	-0.674040
C31	C	-3.912729	-0.126151	-0.641903
C32	C	-4.208378	-0.129508	-0.903202
C33	C	-4.240939	-0.129078	-0.976570
C34	C	-3.878468	-0.119442	-0.969431
C35	C	-3.845909	-0.119863	-0.896063
C36	C	-4.010873	-0.124900	-0.862954
C37	C	-4.140102	0.045321	-0.211860
C38	C	-4.090194	0.152270	-0.212670
C39	C	-4.131421	-0.123608	-0.087768
C40	C	-4.075997	-0.124054	-0.009684
H41	H	-4.173011	-0.614891	-0.217285
C42	C	-3.697020	-0.113891	-1.005847
H43	H	-3.574722	-0.111190	-0.971364
H44	H	-3.720668	-0.169912	-1.040625
H45	H	-3.683703	-0.057119	-1.028009
H46	H	-3.685086	-0.116113	-0.863294
C47	C	-3.667471	-0.649591	-0.206905
H48	H	-3.711917	-0.717324	-0.206901
H49	H	-3.609410	-0.640137	-0.246718
H50	H	-3.567547	-0.622182	-0.164450
H51	H	-4.144131	-0.136146	-0.428909
H52	H	-4.203209	-0.135389	-0.562007
C53	C	-3.498478	-0.116459	-0.558520
H54	H	-3.546163	-0.116884	-0.607981
H55	H	-3.400161	-0.058153	-0.538734
H56	H	-3.437198	-0.170949	-0.551328
H57	H	-3.486501	-0.118626	-0.415954
C58	C	-4.389820	-0.135039	-0.866777
H59	H	-4.512111	-0.137714	-0.901256
H60	H	-4.403167	-0.191797	-0.844606
H61	H	-4.366131	-0.079002	-0.832003
H62	H	-4.401770	-0.132830	-1.009338
