data_functionalizedCrystal
_audit_creation_method	'MofGen! by Chris Wilmer'
_symmetry_space_group_name_H-M	'P1'
_symmetry_Int_Tables_number	1
_symmetry_cell_setting	triclinic
loop_
_symmetry_equiv_pos_as_xyz
  x,y,z
_cell_length_a	14.044220
_cell_length_b	14.044220
_cell_length_c	15.455313
_cell_angle_alpha	92.908275
_cell_angle_beta	87.080121
_cell_angle_gamma	93.188878
loop_
_atom_site_label
_atom_site_type_symbol
_atom_site_fract_x
_atom_site_fract_y
_atom_site_fract_z
O1	O	1.280995	0.226350	-0.072042
O2	O	1.004324	0.218043	-0.072063
O3	O	1.138506	0.083861	-0.072044
O4	O	1.146813	0.360532	-0.072061
O5	O	1.130830	0.091500	0.072217
O6	O	0.996648	0.225682	0.072198
O7	O	1.273319	0.233989	0.072219
Cu8	Cu	1.134283	0.230533	0.085381
Cu9	Cu	1.143360	0.221499	-0.085225
O10	O	1.139137	0.368171	0.072200
C11	C	1.131033	0.052059	0.000086
C12	C	1.120188	-0.054084	0.000086
C13	C	0.964865	0.218227	0.000064
C14	C	0.858722	0.207382	0.000056
C15	C	1.100363	-0.248422	0.000072
C16	C	1.177277	-0.299552	0.000076
C17	C	1.166246	-0.407689	0.000068
C18	C	1.111392	-0.140276	0.000080
C19	C	0.664384	0.187557	0.000075
C20	C	0.613254	0.264471	0.000074
C21	C	0.505117	0.253440	0.000084
C22	C	0.772530	0.198586	0.000064
C23	C	1.312779	0.233805	0.000090
C24	C	1.418921	0.244650	0.000092
C25	C	1.146611	0.399973	0.000068
C26	C	1.157456	0.506115	0.000062
N27	N	1.127905	0.236886	0.205375
N28	N	1.149745	0.215139	-0.205219
C29	C	1.184933	0.179906	0.250778
C30	C	1.180120	0.184721	0.341585
C31	C	1.118281	0.246521	0.386988
C32	C	1.061246	0.303504	0.341579
C33	C	1.066056	0.298684	0.250774
C34	C	1.097520	0.267301	0.658566
C35	C	1.092717	0.272119	0.749378
C36	C	1.211589	0.153334	0.749377
C37	C	1.216397	0.148523	0.658570
C38	C	1.159359	0.205502	0.613169
N39	N	1.113362	0.251446	0.479808
N40	N	1.164274	0.200572	0.520352
H41	H	1.026235	-0.285860	0.000064
H42	H	0.650694	0.338604	0.000065
H43	H	1.019616	0.345082	0.213808
O44	O	1.275479	-0.249971	0.000099
H45	H	1.268848	-0.171584	0.000113
H46	H	1.010891	0.353820	0.378552
O47	O	0.614803	0.089361	0.000080
H48	H	0.536419	0.095998	0.000079
H49	H	1.235293	0.129586	0.213816
H50	H	1.226556	0.138322	0.378551
O51	O	1.283085	0.081859	0.609599
H52	H	1.321926	0.043037	0.656426
O53	O	1.273099	0.091871	0.798343
H54	H	1.259363	0.105596	0.869113
H55	H	1.042358	0.322448	0.786342
H56	H	1.051078	0.313698	0.621608
