data_functionalizedCrystal
_audit_creation_method	'MofGen! by Chris Wilmer'
_symmetry_space_group_name_H-M	'P1'
_symmetry_Int_Tables_number	1
_symmetry_cell_setting	triclinic
loop_
_symmetry_equiv_pos_as_xyz
  x,y,z
_cell_length_a	27.780850
_cell_length_b	27.780865
_cell_length_c	27.780936
_cell_angle_alpha	120.004110
_cell_angle_beta	89.999060
_cell_angle_gamma	119.999893
loop_
_atom_site_label
_atom_site_type_symbol
_atom_site_fract_x
_atom_site_fract_y
_atom_site_fract_z
O1	O	0.330205	-0.424604	-0.014332
O2	O	0.260208	-0.326031	0.014243
O3	O	0.260205	-0.424601	-0.084330
O4	O	0.330207	-0.326034	0.084242
O5	O	0.340268	-0.344537	-0.084324
O6	O	0.340270	-0.245967	0.014249
O7	O	0.410267	-0.344540	-0.014325
Zn8	Zn	0.387980	-0.282542	-0.000037
Zn9	Zn	0.282495	-0.388029	-0.000045
O10	O	0.410269	-0.245970	0.084248
C11	C	0.207591	-0.090574	0.029857
C12	C	0.237292	-0.031171	0.025764
C13	C	0.236695	-0.119400	0.030267
C14	C	0.120427	-0.177736	0.029864
C15	C	0.056933	-0.211527	0.025778
C16	C	0.149664	-0.206430	0.030274
C17	C	0.207594	-0.177735	0.029865
C18	C	0.237299	-0.211525	0.025780
C19	C	0.149660	-0.119401	0.030266
C20	C	0.261297	-0.238824	0.022479
C21	C	0.261287	0.016820	0.022455
C22	C	0.005635	-0.238828	0.022475
C23	C	0.291404	-0.273072	0.018338
C24	C	0.291391	0.077027	0.018306
C25	C	-0.058720	-0.273077	0.018334
O26	O	-0.080484	-0.245978	0.014237
O27	O	-0.249052	-0.344555	-0.014340
O28	O	-0.150490	-0.245974	0.084234
O29	O	-0.179046	-0.344559	-0.084337
O30	O	-0.150487	-0.326028	0.084242
O31	O	-0.249049	-0.424610	-0.014333
O32	O	-0.080481	-0.326032	0.014245
Zn33	Zn	-0.164764	-0.388031	-0.000043
Zn34	Zn	-0.164769	-0.282556	-0.000053
O35	O	-0.179043	-0.424614	-0.084330
C36	C	0.207592	-0.492844	-0.372411
C37	C	0.237297	-0.459051	-0.402113
C38	C	0.149660	-0.551184	-0.401518
C39	C	0.207592	-0.492844	-0.285245
C40	C	0.237297	-0.459051	-0.221748
C41	C	0.149660	-0.551184	-0.314484
C42	C	0.120424	-0.580014	-0.372417
C43	C	0.056928	-0.639423	-0.402124
C44	C	0.236696	-0.464147	-0.314478
C45	C	0.005629	-0.687419	-0.426124
C46	C	0.261294	-0.431749	-0.426108
C47	C	0.261295	-0.431748	-0.170448
C48	C	-0.058728	-0.747633	-0.456234
C49	C	0.291401	-0.397498	-0.456211
C50	C	0.291402	-0.397497	-0.106090
C51	C	0.462867	-0.580024	-0.029978
C52	C	0.433161	-0.639435	-0.025896
C53	C	0.520799	-0.551196	-0.030384
C54	C	0.462871	-0.492852	-0.029969
C55	C	0.433169	-0.459057	-0.025878
C56	C	0.520803	-0.464155	-0.030375
C57	C	0.550036	-0.492854	-0.029971
C58	C	0.613532	-0.459062	-0.025881
C59	C	0.433766	-0.551193	-0.030382
C60	C	0.664831	-0.431760	-0.022576
C61	C	0.409162	-0.687432	-0.022597
C62	C	0.409174	-0.431753	-0.022571
C63	C	0.729187	-0.397510	-0.018430
C64	C	0.379054	-0.747648	-0.018458
C65	C	0.379070	-0.397500	-0.018423
O66	O	0.410249	0.234682	-0.014367
O67	O	0.340255	0.094695	0.014212
O68	O	0.340246	0.094673	-0.084363
O69	O	0.410257	0.234704	0.084208
O70	O	0.260186	0.094672	-0.084364
O71	O	0.260194	0.094694	0.014211
O72	O	0.330188	0.234681	-0.014368
Zn73	Zn	0.282480	0.164687	-0.000079
Zn74	Zn	0.387963	0.164689	-0.000077
O75	O	0.330197	0.234703	0.084207
O76	O	-0.249058	-0.905309	-0.495045
O77	O	-0.080490	-0.765302	-0.425039
O78	O	-0.179053	-0.765300	-0.425035
O79	O	-0.150495	-0.905311	-0.495049
O80	O	-0.179055	-0.765302	-0.505096
O81	O	-0.080492	-0.765304	-0.505100
O82	O	-0.249060	-0.905311	-0.575106
Zn83	Zn	-0.164776	-0.835308	-0.552814
Zn84	Zn	-0.164773	-0.835305	-0.447331
O85	O	-0.150497	-0.905313	-0.575110
O86	O	0.330212	-0.326029	-0.575068
O87	O	0.260206	-0.424601	-0.505078
O88	O	0.260210	-0.326029	-0.505067
O89	O	0.330207	-0.424601	-0.575079
O90	O	0.340271	-0.245967	-0.425001
O91	O	0.340267	-0.344539	-0.425012
O92	O	0.410273	-0.245967	-0.495002
Zn93	Zn	0.387981	-0.282541	-0.447295
Zn94	Zn	0.282498	-0.388026	-0.552785
O95	O	0.410268	-0.344539	-0.495013
C96	C	0.550053	-0.090556	0.372334
C97	C	0.613549	-0.031146	0.402041
C98	C	0.520817	-0.119384	0.401436
C99	C	0.462884	-0.177726	0.285163
C100	C	0.433179	-0.211520	0.221665
C101	C	0.433781	-0.206422	0.314397
C102	C	0.462885	-0.177725	0.372329
C103	C	0.433181	-0.211517	0.402031
C104	C	0.520816	-0.119385	0.314401
C105	C	0.409184	-0.238819	0.426027
C106	C	0.664848	0.016850	0.426041
C107	C	0.409181	-0.238822	0.170366
C108	C	0.379077	-0.273070	0.456131
C109	C	0.729205	0.077064	0.456150
C110	C	0.379074	-0.273074	0.106008
C111	C	-0.134903	-0.177715	0.372319
C112	C	-0.138994	-0.211503	0.402025
C113	C	-0.134502	-0.119379	0.401417
C114	C	-0.134891	-0.177722	0.285149
C115	C	-0.138969	-0.211516	0.221654
C116	C	-0.134490	-0.119385	0.314380
C117	C	-0.134907	-0.090555	0.372310
C118	C	-0.139001	-0.031150	0.402008
C119	C	-0.134487	-0.206413	0.314388
C120	C	-0.142311	0.016842	0.426001
C121	C	-0.142300	-0.238801	0.426025
C122	C	-0.142265	-0.238819	0.170356
C123	C	-0.146462	0.077051	0.456101
C124	C	-0.146447	-0.273046	0.456134
C125	C	-0.146399	-0.273072	0.106001
C126	C	-0.194627	-0.580033	-0.372405
C127	C	-0.190532	-0.639438	-0.402104
C128	C	-0.195031	-0.551209	-0.401512
C129	C	-0.194642	-0.492866	-0.285244
C130	C	-0.190564	-0.459071	-0.221749
C131	C	-0.195046	-0.464174	-0.314484
C132	C	-0.194630	-0.492872	-0.372414
C133	C	-0.190539	-0.459084	-0.402121
C134	C	-0.195043	-0.551202	-0.314475
C135	C	-0.187232	-0.431786	-0.426120
C136	C	-0.187223	-0.687430	-0.426096
C137	C	-0.187268	-0.431768	-0.170451
C138	C	-0.183085	-0.397540	-0.456229
C139	C	-0.183073	-0.747639	-0.456196
C140	C	-0.183135	-0.397515	-0.106096
C141	C	0.120389	-0.177824	-0.372449
C142	C	0.056892	-0.211620	-0.402152
C143	C	0.149622	-0.206525	-0.401552
C144	C	0.207561	-0.090644	-0.285280
C145	C	0.237269	-0.031226	-0.221783
C146	C	0.236662	-0.119477	-0.314516
C147	C	0.207555	-0.177824	-0.372449
C148	C	0.237257	-0.211621	-0.402153
C149	C	0.149628	-0.119476	-0.314516
C150	C	0.261252	-0.238925	-0.426150
C151	C	0.005593	-0.238924	-0.426150
C152	C	0.261269	0.016777	-0.170484
C153	C	0.291356	-0.273180	-0.456257
C154	C	-0.058765	-0.273178	-0.456256
C155	C	0.291380	0.076999	-0.106127
O156	O	-0.179119	-0.344496	0.575006
O157	O	-0.150548	-0.245942	0.504997
O158	O	-0.249116	-0.344515	0.504984
O159	O	-0.080550	-0.245924	0.575019
O160	O	-0.249102	-0.424577	0.424930
O161	O	-0.150533	-0.326004	0.424943
O162	O	-0.179105	-0.424558	0.494952
Zn163	Zn	-0.164817	-0.387992	0.447237
Zn164	Zn	-0.164835	-0.282508	0.552711
O165	O	-0.080536	-0.325985	0.494965
C166	C	0.462890	0.507201	0.372293
C167	C	0.433189	0.540998	0.401998
C168	C	0.520823	0.535901	0.401396
C169	C	0.462883	0.420020	0.285124
C170	C	0.433175	0.360602	0.221628
C171	C	0.520816	0.448852	0.314360
C172	C	0.550056	0.507200	0.372292
C173	C	0.613553	0.540995	0.401996
C174	C	0.433783	0.448853	0.314361
C175	C	0.664852	0.568299	0.425992
C176	C	0.409194	0.568303	0.425996
C177	C	0.409174	0.312599	0.170328
C178	C	0.729209	0.602553	0.456098
C179	C	0.379090	0.602558	0.456103
C180	C	0.379063	0.252377	0.105971
H181	H	0.284296	-0.095266	0.030929
H182	H	0.386181	-0.253368	0.290920
H183	H	0.284265	-0.095338	-0.291045
H184	H	0.386168	-0.575320	-0.031035
Br185	Br	-0.196127	-0.591399	-0.275344
H186	H	0.284290	-0.417189	-0.291000
H187	H	0.544267	-0.575327	-0.031041
Br188	Br	0.110501	-0.284774	-0.480889
Br189	Br	0.559949	0.614150	0.480733
H190	H	-0.195685	-0.575344	-0.449112
H191	H	-0.195702	-0.417229	-0.291012
H192	H	0.544289	-0.095246	0.449040
H193	H	0.126155	-0.095349	-0.291046
H194	H	0.544290	-0.095254	0.290934
H195	H	0.126192	-0.095270	0.030924
H196	H	0.386198	0.424756	0.290876
Br197	Br	0.559921	0.408607	0.275254
H198	H	0.126187	-0.575304	-0.291009
H199	H	0.126192	-0.253368	0.030936
H200	H	0.544275	-0.417207	-0.031023
Br201	Br	0.110541	-0.591410	-0.480858
H202	H	-0.133835	-0.095265	0.290902
Br203	Br	-0.133411	-0.079154	0.480753
H204	H	-0.133841	-0.253365	0.290918
