data_functionalizedCrystal
_audit_creation_method	'MofGen! by Chris Wilmer'
_symmetry_space_group_name_H-M	'P1'
_symmetry_Int_Tables_number	1
_symmetry_cell_setting	triclinic
loop_
_symmetry_equiv_pos_as_xyz
  x,y,z
_cell_length_a	14.560438
_cell_length_b	14.560438
_cell_length_c	14.560438
_cell_angle_alpha	90.001034
_cell_angle_beta	60.000905
_cell_angle_gamma	60.000378
loop_
_atom_site_label
_atom_site_type_symbol
_atom_site_fract_x
_atom_site_fract_y
_atom_site_fract_z
Zr1	Zr	1.005292	0.884752	-0.120514
O2	O	1.196892	0.738102	-0.267158
O3	O	0.813691	0.929707	-0.075562
O4	O	1.005295	0.929703	-0.267163
O5	O	1.005286	0.738110	0.075584
O6	O	1.005297	1.080841	-0.267164
O7	O	1.005288	0.738107	-0.075557
O8	O	0.662553	1.080849	0.075575
O9	O	1.348030	0.738102	-0.267155
O10	O	0.892501	1.061673	-0.056388
O11	O	0.892497	0.948884	0.056407
O12	O	1.118086	0.948878	-0.169178
O13	O	1.118082	0.836088	-0.056382
Zr14	Zr	1.005292	1.125806	0.120537
Zr15	Zr	1.005296	1.125800	-0.120515
Zr16	Zr	1.005288	0.884758	0.120538
Zr17	Zr	1.246339	0.884752	-0.120509
Zr18	Zr	0.764244	1.125805	0.120532
O19	O	1.196892	1.080850	0.075585
O20	O	1.196898	1.080841	-0.267160
O21	O	1.196887	0.738111	0.075587
O22	O	0.813691	1.272455	0.267181
O23	O	0.813697	1.272447	-0.075564
O24	O	0.813685	0.929716	0.267183
O25	O	1.005297	1.272447	-0.075561
O26	O	1.005288	1.080855	0.267186
O27	O	1.005286	0.929716	0.267187
O28	O	1.005295	1.272451	0.075580
O29	O	1.348034	0.929703	-0.267156
O30	O	0.662550	1.080854	0.267179
O31	O	0.662553	1.272455	0.267178
O32	O	0.662556	1.272450	0.075573
O33	O	1.348027	0.738107	-0.075551
O34	O	1.348030	0.929708	-0.075552
O35	O	0.892497	1.061679	0.169201
O36	O	0.892501	1.174469	0.056405
O37	O	1.118086	1.061674	-0.056384
O38	O	1.118082	0.948884	0.056411
C39	C	0.703778	1.005278	0.000006
C40	C	0.601447	1.005278	0.000004
C41	C	0.553373	1.064151	-0.058874
C42	C	0.457213	1.064155	-0.058864
C43	C	0.457215	0.946405	0.058905
C44	C	0.553366	0.946408	0.058900
C45	C	1.005287	0.703764	0.000014
C46	C	1.005285	0.601433	0.000014
C47	C	0.887534	0.612233	0.058885
C48	C	0.887540	0.516078	0.058886
C49	C	1.123059	0.398327	-0.058864
C50	C	1.123051	0.494481	-0.058858
C51	C	1.306806	1.005279	0.000017
C52	C	1.409137	1.005279	0.000019
C53	C	1.005297	1.005271	-0.301508
C54	C	1.005299	1.005268	-0.403841
C55	C	1.005297	1.306793	0.000009
C56	C	1.005299	1.409124	0.000009
C57	C	1.123049	0.946392	-0.510792
C58	C	1.123043	0.946405	-0.606941
C59	C	0.887525	1.064173	-0.489174
C60	C	0.887532	1.064166	-0.393027
C61	C	1.005287	1.005286	0.301531
C62	C	1.005285	1.005289	0.403864
C63	C	0.703783	1.306793	0.000004
C64	C	0.601454	1.409124	0.000001
C65	C	0.703773	1.005286	0.301525
C66	C	0.601440	1.005288	0.403856
C67	C	0.703778	1.306800	0.301523
C68	C	0.601447	1.409134	0.403853
C69	C	1.306806	0.703757	-0.301500
C70	C	1.409137	0.601424	-0.403830
C71	C	1.306800	0.703765	0.000019
C72	C	1.409130	0.601434	0.000022
C73	C	1.306811	1.005272	-0.301502
C74	C	1.409143	1.005269	-0.403833
C75	C	0.553377	1.398324	-0.058875
C76	C	0.457235	1.494478	-0.058881
C77	C	0.457253	1.612230	0.058873
C78	C	0.553399	1.516076	0.058872
C79	C	0.553362	1.064166	0.510809
C80	C	0.457219	1.064156	0.606956
C81	C	0.457236	0.946387	0.489184
C82	C	0.553384	0.946392	0.393039
C83	C	0.553371	1.516086	0.393053
C84	C	0.457229	1.612235	0.489207
C85	C	0.457242	1.494467	0.606958
C86	C	0.553390	1.398320	0.510805
H87	H	0.418072	1.112096	-0.106806
H88	H	0.418100	1.485677	0.694048
C89	C	0.606245	1.527977	0.275407
C90	C	0.553364	1.645627	0.263532
C91	C	0.606239	1.657524	0.145887
C92	C	0.711994	1.551771	0.040117
C93	C	0.764881	1.434113	0.051988
C94	C	0.712007	1.422217	0.169634
H95	H	0.475072	1.723919	0.341832
H96	H	0.567087	1.744622	0.137099
H97	H	0.751135	1.560578	-0.046971
H98	H	0.843173	1.355822	-0.026312
H99	H	0.751158	1.335118	0.178421
C100	C	0.606235	1.128940	0.522704
C101	C	0.553351	1.193699	0.640355
C102	C	0.606224	1.258471	0.652255
C103	C	0.711981	1.258485	0.546505
C104	C	0.764870	1.193723	0.428847
C105	C	0.711997	1.128951	0.416946
H106	H	0.475058	1.193692	0.718644
H107	H	0.567071	1.306412	0.739354
H108	H	0.751120	1.306433	0.555315
H109	H	0.843163	1.193731	0.350557
H110	H	0.751150	1.081010	0.329847
H111	H	0.418090	1.699318	0.480406
H112	H	0.418056	0.898474	0.106854
H113	H	0.592516	1.112088	-0.106829
H114	H	1.218944	0.485679	-0.106795
H115	H	0.592537	1.311229	0.519608
C116	C	0.606249	1.280677	-0.123642
C117	C	0.553366	1.268802	-0.188411
C118	C	0.606239	1.151156	-0.253183
C119	C	0.711994	1.045386	-0.253188
C120	C	0.764882	1.057257	-0.188417
C121	C	0.712010	1.174903	-0.123644
H122	H	0.475075	1.347103	-0.188410
H123	H	0.567087	1.142369	-0.301131
H124	H	0.751134	0.958297	-0.301136
H125	H	0.843174	0.978956	-0.188417
H126	H	0.751162	1.183690	-0.075696
H127	H	0.592506	0.898466	0.106851
H128	H	0.791641	0.699314	0.106835
H129	H	0.791655	0.524881	0.106826
H130	H	1.218940	0.311237	-0.106797
H131	H	1.218928	0.898463	-0.694022
H132	H	0.791644	1.112124	-0.480383
H133	H	1.218942	0.898434	-0.519603
H134	H	0.418097	1.485675	-0.106826
H135	H	0.791640	1.112116	-0.305936
H136	H	0.418113	1.699320	0.106806
H137	H	0.592547	1.524878	0.106816
H138	H	0.592533	0.898441	0.305948
H139	H	0.418079	1.112099	0.694038
H140	H	0.418095	0.898438	0.480391
