data_functionalizedCrystal
_audit_creation_method	'MofGen! by Chris Wilmer'
_symmetry_space_group_name_H-M	'P1'
_symmetry_Int_Tables_number	1
_symmetry_cell_setting	triclinic
loop_
_symmetry_equiv_pos_as_xyz
  x,y,z
_cell_length_a	10.723024
_cell_length_b	15.021413
_cell_length_c	10.723024
_cell_angle_alpha	89.994776
_cell_angle_beta	95.532131
_cell_angle_gamma	89.992288
loop_
_atom_site_label
_atom_site_type_symbol
_atom_site_fract_x
_atom_site_fract_y
_atom_site_fract_z
O1	O	-1.657195	0.074037	0.175011
O2	O	-1.294043	0.074037	0.191764
O3	O	-1.483996	0.074033	0.001811
O4	O	-1.467243	0.074040	0.364963
O5	O	-1.483966	-0.074031	0.001838
O6	O	-1.294013	-0.074027	0.191791
O7	O	-1.657165	-0.074027	0.175038
Zn8	Zn	-1.475584	-0.097536	0.183419
Zn9	Zn	-1.475624	0.097545	0.183383
O10	O	-1.467212	-0.074024	0.364991
C11	C	-1.247528	0.000005	0.190558
C12	C	-1.108974	0.000005	0.186911
C13	C	-1.033991	0.000007	0.293198
C14	C	-0.890788	0.000007	0.289431
N15	N	-1.475566	-0.230673	0.183442
C16	C	-1.387718	-0.470355	0.271235
C17	C	-1.500687	-0.529689	0.296421
C18	C	-1.475598	-0.412280	0.183411
C19	C	-1.362659	-0.529688	0.158254
C20	C	-1.475618	-0.587704	0.183384
C21	C	-1.588624	-0.470308	0.208654
C22	C	-1.450522	-0.470302	0.070437
C23	C	-1.563572	-0.529609	0.095576
C24	C	-1.475584	-0.311223	0.183430
C25	C	-1.475645	-0.688760	0.183365
C26	C	-0.703680	0.000005	0.176243
C27	C	-0.842234	0.000005	0.179891
C28	C	-1.482762	0.000002	-0.044675
C29	C	-1.479114	0.000006	-0.183229
N30	N	-1.475652	0.230683	0.183350
C31	C	-1.585401	0.000007	-0.258212
C32	C	-1.581634	0.000010	-0.401415
C33	C	-1.468447	0.000009	0.411477
C34	C	-1.472094	0.000012	0.550031
H35	H	-1.067152	0.000025	0.093125
O36	O	-1.299000	-0.439413	0.359832
C37	C	-1.180251	-0.470945	0.334284
H38	H	-1.192060	-0.533850	0.274857
H39	H	-1.130872	-0.417800	0.281210
C40	C	-1.086787	-0.414946	0.531339
C41	C	-1.101289	-0.492211	0.458358
H42	H	-1.038075	-0.428059	0.607872
H43	H	-1.166788	-0.393698	0.548550
H44	H	-1.045641	-0.370665	0.487096
H45	H	-1.142447	-0.536485	0.502594
H46	H	-1.021292	-0.513466	0.441157
O47	O	-1.525803	-0.560775	0.410466
C48	C	-1.432941	-0.530574	0.502808
H49	H	-1.344018	-0.513926	0.457304
H50	H	-1.467874	-0.468483	0.549727
C51	C	-1.513648	-0.624396	0.657655
C52	C	-1.404429	-0.603956	0.601767
H53	H	-1.496064	-0.669658	0.718702
H54	H	-1.576215	-0.644741	0.595444
H55	H	-1.542749	-0.572647	0.696744
H56	H	-1.375339	-0.655701	0.562666
H57	H	-1.341856	-0.583621	0.663974
H58	H	-1.429259	-0.444195	-0.025060
H59	H	-1.075814	0.000004	0.386984
O60	O	-1.702489	-0.439181	0.234285
C61	C	-1.701083	-0.345325	0.234056
H62	H	-1.600419	-0.320784	0.252726
H63	H	-1.742966	-0.319870	0.138941
C64	C	-1.902586	-0.340476	0.314139
C65	C	-1.778949	-0.310335	0.337081
H66	H	-1.950622	-0.318892	0.377685
H67	H	-1.903536	-0.403708	0.314290
H68	H	-1.937471	-0.319262	0.234874
H69	H	-1.744061	-0.331559	0.416337
H70	H	-1.777995	-0.247105	0.336946
O71	O	-1.652497	-0.560419	0.007089
C72	C	-1.771351	-0.529979	0.034057
H73	H	-1.768671	-0.513424	0.138030
H74	H	-1.797395	-0.467783	-0.023603
C75	C	-1.872911	-0.623444	-0.126748
C76	C	-1.869623	-0.603118	0.000956
H77	H	-1.933532	-0.668557	-0.147170
H78	H	-1.792837	-0.643950	-0.144921
H79	H	-1.894610	-0.571607	-0.174783
H80	H	-1.847909	-0.654951	0.048989
H81	H	-1.949696	-0.582622	0.019137
O82	O	-1.248814	-0.560910	0.132716
C83	C	-1.262793	-0.612483	0.022402
H84	H	-1.363156	-0.638055	0.006492
H85	H	-1.241120	-0.569776	-0.060710
C86	C	-1.048499	-0.660561	0.055203
C87	C	-1.171764	-0.691974	0.035668
H88	H	-0.992345	-0.709592	0.063382
H89	H	-1.039079	-0.625812	0.129521
H90	H	-1.030456	-0.624971	-0.014061
H91	H	-1.189810	-0.727554	0.104938
H92	H	-1.181186	-0.726731	-0.038639
H93	H	-1.679187	0.000001	-0.216390
H94	H	-1.672624	0.000007	-0.465848
H95	H	-1.385328	0.000011	-0.225051
O96	O	-0.919212	0.000122	0.071412
C97	C	-0.995335	0.076818	0.066666
H98	H	-1.002645	0.102386	0.165791
H99	H	-0.952111	0.130513	0.009235
C100	C	-1.118024	0.022123	-0.116583
C101	C	-1.127012	0.053521	0.005164
H102	H	-1.199247	0.007754	-0.154526
H103	H	-1.066736	-0.029548	-0.113390
H104	H	-1.081999	0.066874	-0.164427
H105	H	-1.163022	0.008767	0.053010
H106	H	-1.178309	0.105184	0.001977
H107	H	-0.826355	0.000012	0.380421
H108	H	-1.381099	0.000004	-0.385544
