data_functionalizedCrystal
_audit_creation_method	'MofGen! by Chris Wilmer'
_symmetry_space_group_name_H-M	'P1'
_symmetry_Int_Tables_number	1
_symmetry_cell_setting	triclinic
loop_
_symmetry_equiv_pos_as_xyz
  x,y,z
_cell_length_a	13.635800
_cell_length_b	9.514072
_cell_length_c	19.551833
_cell_angle_alpha	87.724634
_cell_angle_beta	78.336523
_cell_angle_gamma	118.843421
loop_
_atom_site_label
_atom_site_type_symbol
_atom_site_fract_x
_atom_site_fract_y
_atom_site_fract_z
V1	V	-2.045821	-0.223892	0.218410
O2	O	-1.995402	0.009026	0.213689
O3	O	-2.063250	-0.442274	0.217458
O4	O	-2.016657	-0.221209	0.313418
O5	O	-2.042318	-0.213570	0.117064
V6	V	-2.282884	-0.195943	0.206222
O7	O	-2.186757	-0.285202	0.245144
O8	O	-2.367047	-0.134633	0.179487
O9	O	-2.153852	0.022439	0.207174
O10	O	-2.392001	-0.428861	0.210943
O11	O	-2.345086	-0.206265	0.307568
O12	O	-2.200445	-0.198626	0.111213
V13	V	-1.545821	-0.223892	0.218410
O14	O	-1.495402	0.009026	0.213689
O15	O	-1.563250	-0.442274	0.217458
O16	O	-1.516657	-0.221209	0.313418
O17	O	-1.542318	-0.213570	0.117064
V18	V	-1.782884	-0.195943	0.206222
O19	O	-1.686757	-0.285202	0.245144
O20	O	-1.867047	-0.134633	0.179487
O21	O	-1.653852	0.022439	0.207174
O22	O	-1.892001	-0.428861	0.210943
O23	O	-1.845086	-0.206265	0.307568
O24	O	-1.700445	-0.198626	0.111213
C25	C	-1.996038	-0.495488	0.214152
C26	C	-2.050899	-0.674023	0.214007
C27	C	-1.936603	-0.213494	0.336558
C28	C	-1.953675	-0.212745	0.414232
C29	C	-2.052737	0.075644	0.210478
C30	C	-1.987495	0.254178	0.210627
C31	C	-2.112171	-0.206346	0.088069
C32	C	-2.084717	-0.207087	0.010395
C33	C	-1.496038	-0.495488	0.214152
C34	C	-1.550899	-0.674023	0.214007
C35	C	-1.436603	-0.213494	0.336558
C36	C	-1.453675	-0.212745	0.414232
C37	C	-2.054119	-0.220455	0.454299
C38	C	-2.070160	-0.219751	0.527281
C39	C	-1.985762	-0.211369	0.560197
C40	C	-1.885301	-0.203650	0.520121
C41	C	-1.869258	-0.204337	0.447138
C42	C	-1.971007	-0.298695	0.679724
C43	C	-1.987058	-0.298018	0.752706
C44	C	-2.035240	-0.209241	0.785298
C45	C	-2.067394	-0.121163	0.744902
C46	C	-2.051350	-0.121851	0.671920
C47	C	-2.003148	-0.210622	0.639334
C48	C	-2.153084	-0.216185	0.904501
C49	C	-2.169118	-0.215471	0.977485
C50	C	-1.984261	-0.199386	0.970324
C51	C	-1.968224	-0.200084	0.897341
C52	C	-2.052642	-0.208492	0.864435
C53	C	-1.552737	0.075644	0.210478
C54	C	-1.487495	0.254178	0.210627
C55	C	-1.612171	-0.206346	0.088069
C56	C	-1.584717	-0.207087	0.010395
C57	C	-1.554120	-0.220428	0.454290
C58	C	-1.570168	-0.219703	0.527272
C59	C	-1.485774	-0.211306	0.560195
C60	C	-1.385319	-0.203618	0.520131
C61	C	-1.369269	-0.204331	0.447150
C62	C	-1.486877	-0.215466	-0.022510
C63	C	-1.461059	-0.216143	-0.095495
C64	C	-1.533088	-0.208453	-0.135571
C65	C	-1.630935	-0.200069	-0.102661
C66	C	-1.656746	-0.199380	-0.029679
H67	H	-1.891231	-0.670696	0.207810
H68	H	-1.512065	-0.209035	-0.194996
H69	H	-1.647167	-0.749154	0.216814
H70	H	-1.498858	-0.210727	0.619622
H71	H	-1.736422	-0.192567	-0.002893
H72	H	-1.381383	-0.222970	-0.122279
H73	H	-2.077529	-0.050133	0.639032
H74	H	-1.316611	-0.196782	0.546949
H75	H	-2.147167	-0.749154	0.216814
H76	H	-1.622852	-0.227270	0.427494
H77	H	-2.106631	-0.048877	0.771438
H78	H	-2.151960	-0.226037	0.559910
H79	H	-2.122858	-0.227294	0.427511
H80	H	-2.221820	-0.223026	0.877707
H81	H	-2.250910	-0.221738	1.010105
H82	H	-1.689572	-0.193804	-0.135303
H83	H	-1.915538	-0.192548	0.997122
H84	H	-1.391231	-0.670696	0.207810
H85	H	-1.287475	-0.198078	0.414541
H86	H	-1.886438	-0.193823	0.864719
H87	H	-1.931759	-0.370978	0.653192
H88	H	-1.960884	-0.369746	0.785592
H89	H	-1.816583	-0.196820	0.546925
H90	H	-1.651972	-0.225970	0.559882
H91	H	-1.428214	-0.221727	0.010111
H92	H	-1.787459	-0.198047	0.414515
