data_functionalizedCrystal
_audit_creation_method	'MofGen! by Chris Wilmer'
_symmetry_space_group_name_H-M	'P1'
_symmetry_Int_Tables_number	1
_symmetry_cell_setting	triclinic
loop_
_symmetry_equiv_pos_as_xyz
  x,y,z
_cell_length_a	8.497374
_cell_length_b	13.032831
_cell_length_c	13.032268
_cell_angle_alpha	90.886977
_cell_angle_beta	97.165050
_cell_angle_gamma	82.807824
loop_
_atom_site_label
_atom_site_type_symbol
_atom_site_fract_x
_atom_site_fract_y
_atom_site_fract_z
Zn1	Zn	1.065474	-1.498661	0.781026
Zn2	Zn	1.300536	-1.520443	0.609088
Zn3	Zn	0.999567	-1.348508	0.587255
Zn4	Zn	1.292006	-1.326690	0.759212
O5	O	1.164396	-1.423576	0.684146
O6	O	1.127808	-1.645476	0.776485
O7	O	1.236600	-1.515883	0.462271
O8	O	0.787549	-1.368441	0.612952
O9	O	1.300507	-1.661480	0.650163
O10	O	0.835971	-1.478758	0.755314
O11	O	1.015479	-1.389563	0.446231
O12	O	1.007208	-1.201688	0.591799
O13	O	1.285969	-1.331255	0.906027
O14	O	1.222061	-1.185658	0.718135
O15	O	1.119537	-1.457602	0.922054
O16	O	1.520166	-1.494726	0.629011
O17	O	1.513899	-1.352377	0.739306
C18	C	1.106558	-1.156355	0.650232
C19	C	1.081857	-1.042033	0.635747
C20	C	1.209153	-1.389565	0.952401
C21	C	1.228226	-1.375072	1.066715
C22	C	1.222461	-1.691840	0.718193
C23	C	1.247205	-1.806158	0.732701
C24	C	1.574276	-1.423561	0.684159
C25	C	1.752923	-1.423590	0.684145
C26	C	1.119712	-1.457513	0.416941
C27	C	1.100238	-1.472205	0.302653
C28	C	1.177288	-0.983173	0.691705
C29	C	1.151761	-0.865016	0.676736
C30	C	1.154382	-1.431124	1.125610
C31	C	1.174093	-1.416146	1.243760
H32	H	1.051147	-0.827937	0.617747
O33	O	0.961916	-0.997941	0.565239
C34	C	0.848708	-0.986961	0.386191
C35	C	0.984616	-1.036983	0.465941
H36	H	0.867033	-1.018491	0.305888
H37	H	0.729059	-1.005747	0.406937
H38	H	0.849478	-0.899546	0.386704
H39	H	0.983997	-1.124407	0.465469
H40	H	1.104203	-1.018115	0.445166
H41	H	1.306027	-1.315988	1.103762
O42	O	1.061427	-1.501478	1.081289
C43	C	0.831273	-1.530608	0.961659
C44	C	0.936430	-1.450824	1.011752
H45	H	0.730170	-1.489683	0.905444
H46	H	0.906918	-1.590701	0.918118
H47	H	0.778822	-1.570506	1.024398
H48	H	0.988903	-1.410850	0.949079
H49	H	0.860713	-1.390798	1.055317
O50	O	1.297276	-1.027574	0.762004
C51	C	1.432019	-1.185812	0.841093
C52	C	1.296092	-1.135670	0.761426
H53	H	1.431086	-1.273213	0.840668
H54	H	1.551684	-1.167140	0.820268
H55	H	1.413844	-1.154186	0.921384
H56	H	1.314113	-1.167267	0.681107
H57	H	1.176476	-1.154336	0.782340
O58	O	1.367195	-0.850552	0.803009
C59	C	1.501932	-1.008786	0.882111
C60	C	1.366013	-0.958648	0.802436
H61	H	1.501000	-1.096186	0.881689
H62	H	1.621601	-0.990114	0.861290
H63	H	1.483747	-0.977156	0.962398
H64	H	1.384044	-0.990249	0.722120
H65	H	1.246393	-0.977313	0.823345
O66	O	1.266935	-1.345741	1.288114
C67	C	1.371103	-1.266554	1.446308
C68	C	1.265942	-1.346334	1.396212
H69	H	1.370309	-1.266991	1.533710
H70	H	1.498778	-1.287255	1.427620
H71	H	1.321980	-1.186290	1.414661
H72	H	1.314923	-1.426625	1.427831
H73	H	1.138283	-1.325544	1.414894
H74	H	1.022410	-1.531281	1.265610
