data_functionalizedCrystal
_audit_creation_method	'MofGen! by Chris Wilmer'
_symmetry_space_group_name_H-M	'P1'
_symmetry_Int_Tables_number	1
_symmetry_cell_setting	triclinic
loop_
_symmetry_equiv_pos_as_xyz
  x,y,z
_cell_length_a	14.853567
_cell_length_b	14.750522
_cell_length_c	14.853567
_cell_angle_alpha	75.820493
_cell_angle_beta	96.365070
_cell_angle_gamma	104.180888
loop_
_atom_site_label
_atom_site_type_symbol
_atom_site_fract_x
_atom_site_fract_y
_atom_site_fract_z
O1	O	1.213829	0.079753	-0.135168
O2	O	0.951373	0.079768	-0.149192
O3	O	1.089613	0.079763	-0.010951
O4	O	1.075590	0.079758	-0.273409
O5	O	1.054639	-0.079892	0.024013
O6	O	0.916399	-0.079886	-0.114229
O7	O	1.178856	-0.079902	-0.100204
Zn8	Zn	1.042075	-0.105243	-0.101665
Zn9	Zn	1.088154	0.105109	-0.147731
O10	O	1.040616	-0.079897	-0.238445
C11	C	0.900298	-0.000057	-0.131076
C12	C	0.800216	-0.000051	-0.129173
N13	N	1.010633	-0.248803	-0.070226
C14	C	0.387678	-0.000070	-0.039003
C15	C	0.366396	-0.000073	-0.203236
C16	C	0.460431	-0.000070	-0.205026
C17	C	0.518093	-0.000066	-0.123805
C18	C	0.481722	-0.000065	-0.040792
C19	C	0.496812	-0.000061	-0.288039
C20	C	0.590852	-0.000057	-0.289834
C21	C	0.648515	-0.000060	-0.208610
C22	C	0.612137	-0.000060	-0.125593
C23	C	0.669800	-0.000056	-0.044372
C24	C	0.633423	-0.000063	0.038647
C25	C	0.539385	-0.000067	0.040432
C26	C	0.742553	-0.000055	-0.210395
C27	C	0.763844	-0.000050	-0.046161
C28	C	1.207340	-0.600596	-0.266994
C29	C	1.185329	-0.701098	-0.244949
C30	C	1.075858	-0.701074	-0.135400
C31	C	1.097856	-0.600570	-0.157439
C32	C	1.163598	-0.550339	-0.223235
C33	C	1.054115	-0.550313	-0.113680
C34	C	1.076116	-0.449818	-0.135714
C35	C	1.141857	-0.399580	-0.201506
C36	C	1.185599	-0.449844	-0.245269
C37	C	0.988378	-0.600547	-0.047878
C38	C	0.944637	-0.550290	-0.004120
C39	C	0.966632	-0.449793	-0.026158
C40	C	1.032374	-0.399555	-0.091950
C41	C	0.922891	-0.399529	0.017605
C42	C	0.944891	-0.299034	-0.004429
C43	C	1.054374	-0.299059	-0.113984
C44	C	1.229931	-0.000075	-0.118321
C45	C	1.330015	-0.000074	-0.120225
C46	C	1.071491	-0.000061	0.040119
C47	C	1.069589	-0.000053	0.140201
N48	N	1.119603	0.248669	-0.179163
C49	C	1.058738	-0.000070	-0.289516
C50	C	1.060642	-0.000072	-0.389599
C51	C	0.979420	-0.000066	0.552738
C52	C	1.143651	-0.000076	0.574021
C53	C	1.145442	-0.000070	0.479986
C54	C	1.064221	-0.000064	0.422323
C55	C	0.981209	-0.000063	0.458694
C56	C	1.228451	-0.000080	0.443609
C57	C	1.230246	-0.000076	0.349569
C58	C	1.149025	-0.000063	0.291902
C59	C	1.066009	-0.000061	0.328279
C60	C	0.984788	-0.000055	0.270616
C61	C	0.901773	-0.000047	0.306990
C62	C	0.899988	-0.000050	0.401028
C63	C	1.150810	-0.000059	0.197864
C64	C	0.986576	-0.000052	0.176573
H65	H	0.810787	-0.000050	0.019982
O66	O	1.125273	-0.244875	-0.184964
H67	H	1.133213	-0.166552	-0.192937
O68	O	0.348452	-0.000079	0.050537
H69	H	0.273374	-0.000081	0.038141
H70	H	0.911832	-0.000055	0.582357
O71	O	0.695617	-0.000065	0.126252
H72	H	0.767116	-0.000064	0.111055
H73	H	1.218398	-0.000072	0.168254
H74	H	0.835642	-0.000048	0.260029
H75	H	1.022333	-0.741986	-0.081825
H76	H	0.319444	-0.000068	-0.269364
H77	H	0.909271	-0.258114	0.031203
H78	H	1.209776	-0.000088	0.620977
H79	H	0.509753	-0.000096	0.108026
H80	H	1.294575	-0.000094	0.490567
H81	H	0.449858	-0.000054	-0.354168
O82	O	1.319782	-0.000063	0.310332
H83	H	1.375960	-0.000057	0.366227
H84	H	0.620461	-0.000051	-0.357432
H85	H	0.832401	-0.000044	0.430652
H86	H	0.772167	-0.000051	-0.277987
O87	O	1.165599	-0.291187	-0.225352
H88	H	1.193568	-0.264590	-0.161808
O89	O	1.256506	-0.395651	-0.316238
H90	H	1.283231	-0.447479	-0.342967
H91	H	1.260863	-0.559694	-0.320582
O92	O	1.232521	-0.755293	-0.292154
H93	H	1.270908	-0.801051	-0.238982
O94	O	0.964657	-0.708939	-0.024084
H95	H	0.889439	-0.735460	-0.040353
O96	O	0.873726	-0.604468	0.066840
H97	H	0.865770	-0.682793	0.074807
H98	H	0.869370	-0.440443	0.071184
O99	O	0.898971	-0.000054	0.114380
H100	H	0.840948	-0.000058	0.155476
