data_functionalizedCrystal
_audit_creation_method	'MofGen! by Chris Wilmer'
_symmetry_space_group_name_H-M	'P1'
_symmetry_Int_Tables_number	1
_symmetry_cell_setting	triclinic
loop_
_symmetry_equiv_pos_as_xyz
  x,y,z
_cell_length_a	19.121102
_cell_length_b	19.077068
_cell_length_c	19.077174
_cell_angle_alpha	85.342852
_cell_angle_beta	85.348236
_cell_angle_gamma	90.021182
loop_
_atom_site_label
_atom_site_type_symbol
_atom_site_fract_x
_atom_site_fract_y
_atom_site_fract_z
Zn1	Zn	1.078213	0.344773	-0.457820
Zn2	Zn	1.578213	0.844773	0.042180
Zn3	Zn	1.069055	0.457519	-0.344256
Zn4	Zn	1.569055	0.957519	0.155744
Zn5	Zn	0.956235	0.334618	-0.334522
Zn6	Zn	1.456235	0.834618	0.165478
Zn7	Zn	0.956188	0.457180	-0.457080
Zn8	Zn	1.456188	0.957180	0.042920
O9	O	1.014923	0.398523	-0.398419
O10	O	1.514923	0.898523	0.101581
O11	O	1.175281	0.364121	-0.447139
O12	O	1.675281	0.864121	0.052861
O13	O	1.050276	0.437108	-0.244147
O14	O	1.550276	0.937108	0.255853
O15	O	0.976267	0.237488	-0.347114
O16	O	1.476267	0.737488	0.152886
O17	O	1.168553	0.446955	-0.363704
O18	O	1.668553	0.946955	0.136296
O19	O	1.065884	0.244949	-0.437700
O20	O	1.565884	0.744949	0.062300
O21	O	0.967387	0.346813	-0.236996
O22	O	1.467387	0.846813	0.263004
O23	O	0.857945	0.346484	-0.346396
O24	O	1.357945	0.846484	0.153604
O25	O	0.976188	0.446377	-0.555995
O26	O	1.476188	0.946377	-0.055995
O27	O	0.857910	0.436530	-0.436439
O28	O	1.357910	0.936530	0.063561
O29	O	1.065839	0.363792	-0.556539
O30	O	1.565839	0.863792	-0.056539
O31	O	1.050231	0.555952	-0.362986
O32	O	1.550231	1.055952	0.137014
O33	O	0.967308	0.555703	-0.445877
O34	O	1.467308	1.055703	0.054123
C35	C	1.007790	0.581363	-0.405424
C36	C	1.507790	1.081363	0.094576
C37	C	1.004804	0.659586	-0.408447
C38	C	1.504804	1.159586	0.091553
C39	C	0.832444	0.390369	-0.390281
C40	C	1.332444	0.890369	0.109719
C41	C	0.754379	0.386898	-0.386817
C42	C	1.254379	0.886898	0.113183
C43	C	1.022030	0.406180	-0.582606
C44	C	1.522030	0.906180	-0.082606
C45	C	1.025058	0.409443	-0.661095
C46	C	1.525058	0.909443	-0.161095
C47	C	0.717698	0.432215	-0.432002
C48	C	1.217698	0.932215	0.067998
C49	C	0.644348	0.428944	-0.428750
C50	C	1.144348	0.928944	0.071250
C51	C	0.607679	0.380361	-0.380310
C52	C	1.107679	0.880361	0.119690
C53	C	0.644365	0.335039	-0.335123
C54	C	1.144365	0.835039	0.164877
C55	C	0.717714	0.338306	-0.338379
C56	C	1.217714	0.838306	0.161621
C57	C	0.386213	0.368143	-0.368141
C58	C	0.886213	0.868143	0.131859
C59	C	0.312859	0.364881	-0.364887
C60	C	0.812859	0.864881	0.135113
C61	C	0.312848	0.458786	-0.458515
C62	C	0.812848	0.958786	0.041485
C63	C	0.386198	0.462052	-0.461763
C64	C	0.886198	0.962052	0.038237
C65	C	0.422877	0.416728	-0.416579
C66	C	0.922877	0.916728	0.083421
C67	C	0.532704	0.377018	-0.376983
C68	C	1.032704	0.877018	0.123017
C69	C	0.497852	0.420067	-0.419910
C70	C	0.997852	0.920067	0.080090
C71	C	1.198114	0.406709	-0.406590
C72	C	1.698114	0.906709	0.093410
C73	C	1.276179	0.410198	-0.410071
C74	C	1.776179	0.910198	0.089929
C75	C	1.022102	0.214970	-0.391404
C76	C	1.522102	0.714970	0.108596
C77	C	1.025162	0.136751	-0.388414
C78	C	1.525162	0.636751	0.111586
C79	C	1.046611	0.696446	-0.366749
C80	C	1.546611	1.196446	0.133251
C81	C	1.043807	0.769945	-0.369596
C82	C	1.543807	1.269945	0.130404
C83	C	0.999191	0.806584	-0.414139
C84	C	1.499191	1.306584	0.085861
C85	C	0.957383	0.769720	-0.455841
C86	C	1.457383	1.269720	0.044159
C87	C	0.960191	0.696222	-0.452997
C88	C	1.460191	1.196222	0.047003
C89	C	0.986162	1.026389	-0.427272
C90	C	1.486162	1.526389	0.072728
C91	C	0.983355	1.099892	-0.430112
C92	C	1.483355	1.599892	0.069888
C93	C	1.069780	1.100112	-0.343868
C94	C	1.569780	1.600112	0.156132
C95	C	1.072582	1.026612	-0.341025
C96	C	1.572582	1.526612	0.158975
C97	C	1.030776	0.989755	-0.382730
C98	C	1.530776	1.489755	0.117270
N99	N	0.996322	0.881713	-0.417049
N100	N	1.496322	1.381713	0.082951
N101	N	1.033649	0.914628	-0.379823
N102	N	1.533649	1.414628	0.120177
C103	C	0.983327	0.363965	-0.694246
C104	C	1.483327	0.863965	-0.194246
C105	C	0.986170	0.367036	-0.767995
C106	C	1.486170	0.867036	-0.267995
C107	C	1.030748	0.415583	-0.808593
C108	C	1.530748	0.915583	-0.308593
C109	C	1.072480	0.461066	-0.775437
C110	C	1.572480	0.961066	-0.275437
C111	C	1.069633	0.457997	-0.701689
C112	C	1.569633	0.957997	-0.201689
C113	C	1.043886	0.429805	-1.029555
C114	C	1.543886	0.929805	-0.529555
C115	C	1.046732	0.432869	-1.103308
C116	C	1.546732	0.932869	-0.603308
C117	C	0.960420	0.338840	-1.095861
C118	C	1.460420	0.838840	-0.595861
C119	C	0.957580	0.335773	-1.022112
C120	C	1.457580	0.835773	-0.522112
C121	C	0.999310	0.381258	-0.988963
C122	C	1.499310	0.881258	-0.488963
N123	N	1.033656	0.418722	-0.883976
N124	N	1.533656	0.918722	-0.383976
N125	N	0.996397	0.378122	-0.913580
N126	N	1.496397	0.878122	-0.413580
C127	C	1.007886	0.390846	-0.214949
C128	C	1.507886	0.890846	0.285051
C129	C	1.005001	0.387391	-0.136458
C130	C	1.505001	0.887391	0.363542
H131	H	0.747549	0.471779	-0.471445
H132	H	1.247549	0.971779	0.028555
H133	H	1.103621	0.495025	-0.674699
H134	H	1.603621	0.995025	-0.174699
H135	H	0.283006	0.325310	-0.325445
H136	H	0.783006	0.825310	0.174555
H137	H	1.082938	0.666619	-0.330475
H138	H	1.582938	1.166619	0.169525
H139	H	0.614503	0.295478	-0.295685
H140	H	1.114503	0.795478	0.204315
H141	H	0.747578	0.301401	-0.301588
H142	H	1.247578	0.801401	0.198412
H143	H	0.614487	0.465847	-0.465543
H144	H	1.114487	0.965847	0.034457
O145	O	0.914139	0.805393	-0.499151
O146	O	1.414139	1.305393	0.000849
C147	C	0.954229	0.851524	-0.548228
C148	C	1.454229	1.351524	-0.048228
H149	H	1.006096	0.863843	-0.526165
H150	H	1.506096	1.363843	-0.026165
H151	H	0.965006	0.825689	-0.599811
H152	H	1.465006	1.325689	-0.099811
C153	C	0.849694	0.905040	-0.589056
C154	C	1.349694	1.405040	-0.089056
C155	C	0.913396	0.920176	-0.561956
C156	C	1.413396	1.420176	-0.061956
H157	H	0.824505	0.947387	-0.597527
H158	H	1.324505	1.447387	-0.097527
H159	H	0.822684	0.873959	-0.555994
H160	H	1.322684	1.373959	-0.055994
H161	H	0.858684	0.883510	-0.632039
H162	H	1.358684	1.383510	-0.132039
H163	H	0.904404	0.941697	-0.518969
H164	H	1.404404	1.441697	-0.018969
H165	H	0.940403	0.951262	-0.595011
H166	H	1.440403	1.451262	-0.095011
H167	H	0.527711	0.459621	-0.459353
H168	H	1.027711	0.959621	0.040647
H169	H	0.952185	0.330006	-0.794983
H170	H	1.452185	0.830006	-0.294983
H171	H	0.947033	1.129722	-0.466396
H172	H	1.447033	1.629722	0.033604
H173	H	1.103817	1.130129	-0.309915
H174	H	1.603817	1.630129	0.190085
H175	H	0.926148	0.666212	-0.486952
H176	H	1.426148	1.166212	0.013048
O177	O	0.421709	0.509266	-0.508882
O178	O	0.921709	1.009266	-0.008882
C179	C	0.373604	0.548577	-0.548054
C180	C	0.873604	1.048577	-0.048054
H181	H	0.322538	0.517531	-0.547125
H182	H	0.822538	1.017531	-0.047125
H183	H	0.362713	0.600556	-0.523803
H184	H	0.862713	1.100556	-0.023803
C185	C	0.467468	0.601371	-0.625996
C186	C	0.967468	1.101371	-0.125996
C187	C	0.404750	0.563237	-0.624861
C188	C	0.904750	1.063237	-0.124861
H189	H	0.486681	0.610418	-0.673374
H190	H	0.986681	1.110418	-0.173374
H191	H	0.499878	0.574889	-0.599604
H192	H	0.999878	1.074889	-0.099604
H193	H	0.458384	0.644683	-0.605784
H194	H	0.958384	1.144683	-0.105784
H195	H	0.413836	0.519924	-0.645065
H196	H	0.913836	1.019924	-0.145065
H197	H	0.372342	0.589713	-0.651258
H198	H	0.872342	1.089713	-0.151258
H199	H	0.947031	0.324429	-0.661197
H200	H	1.447031	0.824429	-0.161197
H201	H	0.502840	0.337462	-0.337541
H202	H	1.002840	0.837462	0.162459
O203	O	1.084440	0.805639	-0.329019
O204	O	1.584440	1.305639	0.170981
C205	C	1.124429	0.757541	-0.289105
C206	C	1.624429	1.257541	0.210895
H207	H	1.097567	0.703789	-0.283329
H208	H	1.597567	1.203789	0.216671
H209	H	1.179052	0.753123	-0.317077
H210	H	1.679052	1.253123	0.182923
C211	C	1.163605	0.849600	-0.222616
C212	C	1.663605	1.349600	0.277384
C213	C	1.130609	0.783582	-0.215516
C214	C	1.630609	1.283582	0.284484
H215	H	1.167420	0.865664	-0.177224
H216	H	1.667420	1.365664	0.322776
H217	H	1.136665	0.882005	-0.249508
H218	H	1.636665	1.382005	0.250492
H219	H	1.209120	0.845909	-0.245928
H220	H	1.709120	1.345909	0.254072
H221	H	1.085091	0.787275	-0.192212
H222	H	1.585091	1.287275	0.307788
H223	H	1.157541	0.751177	-0.188618
H224	H	1.657541	1.251177	0.311382
H225	H	0.282976	0.495685	-0.495302
H226	H	0.782976	0.995685	0.004698
O227	O	0.914217	0.288592	-0.982783
O228	O	1.414217	0.788592	-0.482783
C229	C	0.878007	0.249096	-1.027858
C230	C	1.378007	0.749096	-0.527858
H231	H	0.876471	0.279999	-1.081420
H232	H	1.376471	0.779999	-0.581420
H233	H	0.906126	0.197128	-1.034811
H234	H	1.406126	0.697128	-0.534811
C235	C	0.804434	0.196449	-0.929567
C236	C	1.304434	0.696449	-0.429567
C237	C	0.802541	0.234409	-0.995350
C238	C	1.302541	0.734409	-0.495350
H239	H	0.757884	0.187386	-0.909513
H240	H	1.257884	0.687386	-0.409513
H241	H	0.828830	0.223057	-0.899198
H242	H	1.328830	0.723057	-0.399198
H243	H	0.827869	0.153148	-0.935369
H244	H	1.327869	0.653148	-0.435369
H245	H	0.779114	0.277713	-0.989545
H246	H	1.279114	0.777713	-0.489545
H247	H	0.778139	0.207808	-1.025717
H248	H	1.278139	0.707808	-0.525717
O249	O	1.115989	0.991135	-0.297747
O250	O	1.615989	1.491135	0.202253
C251	C	1.152278	1.039428	-0.261542
C252	C	1.652278	1.539428	0.238458
H253	H	1.153798	1.093117	-0.292600
H254	H	1.653798	1.593117	0.207400
H255	H	1.124236	1.043910	-0.207046
H256	H	1.624236	1.543910	0.292954
C257	C	1.225880	0.947661	-0.215511
C258	C	1.725880	1.447661	0.284489
C259	C	1.227751	1.013601	-0.253659
C260	C	1.727751	1.513601	0.246341
H261	H	1.272434	0.931729	-0.210645
H262	H	1.772434	1.431729	0.289355
H263	H	1.201430	0.915124	-0.239900
H264	H	1.701430	1.415124	0.260100
H265	H	1.202508	0.951405	-0.170101
H266	H	1.702508	1.451405	0.329899
H267	H	1.251115	1.009855	-0.299070
H268	H	1.751115	1.509855	0.200930
H269	H	1.252207	1.046138	-0.229277
H270	H	1.752207	1.546138	0.270723
H271	H	0.926445	0.301809	-1.122859
H272	H	1.426445	0.801809	-0.622859
O273	O	1.090051	0.480095	-1.142640
O274	O	1.590051	0.980095	-0.642640
C275	C	1.126286	0.519572	-1.097568
C276	C	1.626286	1.019572	-0.597568
H277	H	1.095394	0.518540	-1.043809
H278	H	1.595394	1.018540	-0.543809
H279	H	1.180334	0.495862	-1.091117
H280	H	1.680334	0.995862	-0.591117
C281	C	1.172529	0.597384	-1.195698
C282	C	1.672529	1.097384	-0.695698
C283	C	1.134583	0.596122	-1.129672
C284	C	1.634583	1.096122	-0.629672
H285	H	1.177650	0.644603	-1.215502
H286	H	1.677650	1.144603	-0.715502
H287	H	1.148119	0.570786	-1.226064
H288	H	1.648119	1.070786	-0.726064
H289	H	1.217564	0.577622	-1.190313
H290	H	1.717564	1.077622	-0.690313
H291	H	1.089546	0.615875	-1.135059
H292	H	1.589546	1.115875	-0.635059
H293	H	1.158986	0.622725	-1.099307
H294	H	1.658986	1.122725	-0.599307
H295	H	0.952121	0.996385	-0.461229
H296	H	1.452121	1.496385	0.038771
O297	O	1.084460	0.473882	-0.997277
O298	O	1.584460	0.973882	-0.497277
C299	C	1.129754	0.434068	-0.955123
C300	C	1.629754	0.934068	-0.455123
H301	H	1.106641	0.379172	-0.940934
H302	H	1.606641	0.879172	-0.440934
H303	H	1.183202	0.429843	-0.985569
H304	H	1.683202	0.929843	-0.485569
C305	C	1.166640	0.537866	-0.904543
C306	C	1.666640	1.037866	-0.404543
C307	C	1.138249	0.470443	-0.887111
C308	C	1.638249	0.970443	-0.387111
H309	H	1.171883	0.560305	-0.862591
H310	H	1.671883	1.060305	-0.362591
H311	H	1.136127	0.564690	-0.932945
H312	H	1.636127	1.064690	-0.432945
H313	H	1.211177	0.534335	-0.929916
H314	H	1.711177	1.034335	-0.429916
H315	H	1.093709	0.473975	-0.861746
H316	H	1.593709	0.973975	-0.361746
H317	H	1.168755	0.443620	-0.858703
H318	H	1.668755	0.943620	-0.358703
O319	O	0.421727	0.324087	-0.324179
O320	O	0.921727	0.824087	0.175821
C321	C	0.373632	0.280496	-0.280740
C322	C	0.873632	0.780496	0.219260
H323	H	0.320129	0.306890	-0.277028
H324	H	0.820129	0.806890	0.222972
H325	H	0.368912	0.227824	-0.304301
H326	H	0.868912	0.727824	0.195699
C327	C	0.465456	0.235958	-0.211038
C328	C	0.965456	0.735958	0.288962
C329	C	0.399745	0.268379	-0.206474
C330	C	0.899745	0.768379	0.293526
H331	H	0.481565	0.228480	-0.165228
H332	H	0.981565	0.728480	0.334772
H333	H	0.497860	0.265324	-0.240305
H334	H	0.997860	0.765324	0.259695
H335	H	0.461515	0.192068	-0.230675
H336	H	0.961515	0.692068	0.269325
H337	H	0.403689	0.312271	-0.186846
H338	H	0.903689	0.812271	0.313154
H339	H	0.367342	0.239020	-0.177202
H340	H	0.867342	0.739020	0.322798
H341	H	1.108773	0.500597	-0.808497
H342	H	1.608773	1.000597	-0.308497
