data_functionalizedCrystal
_audit_creation_method	'MofGen! by Chris Wilmer'
_symmetry_space_group_name_H-M	'P1'
_symmetry_Int_Tables_number	1
_symmetry_cell_setting	triclinic
loop_
_symmetry_equiv_pos_as_xyz
  x,y,z
_cell_length_a	12.759401
_cell_length_b	16.959453
_cell_length_c	12.759393
_cell_angle_alpha	89.964451
_cell_angle_beta	89.980875
_cell_angle_gamma	90.022370
loop_
_atom_site_label
_atom_site_type_symbol
_atom_site_fract_x
_atom_site_fract_y
_atom_site_fract_z
Zn1	Zn	1.606197	-0.314642	-0.593970
Zn2	Zn	1.606067	-0.446844	-0.418278
Zn3	Zn	1.430499	-0.314683	-0.418307
Zn4	Zn	1.430463	-0.446782	-0.593917
O5	O	1.518306	-0.380738	-0.506118
O6	O	1.753201	-0.332188	-0.570674
O7	O	1.582738	-0.429355	-0.271261
O8	O	1.453875	-0.204066	-0.441644
O9	O	1.753105	-0.429316	-0.441593
O10	O	1.582960	-0.204037	-0.570702
O11	O	1.453749	-0.332257	-0.271282
O12	O	1.283473	-0.332197	-0.441593
O13	O	1.453814	-0.429211	-0.740945
O14	O	1.283447	-0.429250	-0.570613
O15	O	1.582925	-0.332128	-0.740984
O16	O	1.582703	-0.557447	-0.441542
O17	O	1.453687	-0.557401	-0.570584
C18	C	1.245339	-0.380721	-0.506101
C19	C	1.128562	-0.380733	-0.506118
C20	C	0.963958	-0.330149	-0.439066
C21	C	1.073682	-0.330132	-0.439056
C22	C	1.073712	-0.431349	-0.573203
C23	C	0.963990	-0.431361	-0.573218
C24	C	0.909084	-0.279550	-0.371992
C25	C	0.963926	-0.228933	-0.304909
C26	C	1.073650	-0.228916	-0.304898
C27	C	1.128532	-0.279516	-0.371971
C28	C	1.518206	-0.586104	-0.506077
C29	C	1.518259	-0.673961	-0.506095
C30	C	1.451132	-0.715318	-0.438852
C31	C	1.585430	-0.715157	-0.573360
C32	C	1.585479	-0.797703	-0.573383
C33	C	1.518352	-0.839060	-0.506141
C34	C	1.451177	-0.797872	-0.438875
C35	C	1.652646	-0.838897	-0.640655
C36	C	1.652697	-0.921448	-0.640681
C37	C	1.585575	-0.962807	-0.573432
C38	C	1.518397	-0.921614	-0.506164
C39	C	1.451270	-0.962971	-0.438921
C40	C	1.384097	-0.921779	-0.371646
C41	C	1.384054	-0.839231	-0.371627
C42	C	1.585618	-1.045355	-0.573452
C43	C	1.451315	-1.045525	-0.438944
C44	C	1.792339	-0.380755	-0.506136
C45	C	1.909116	-0.380762	-0.506144
C46	C	1.518380	-0.380658	-0.780152
C47	C	1.518411	-0.380624	-0.896928
C48	C	1.518436	-0.174570	-0.506182
C49	C	1.518491	-0.086713	-0.506209
C50	C	1.585649	-0.330068	-0.951812
C51	C	1.585673	-0.330040	-1.061536
C52	C	1.451221	-0.431129	-1.061483
C53	C	1.451191	-0.431153	-0.951761
C54	C	1.652868	-0.279539	-0.896980
C55	C	1.720112	-0.228980	-0.951863
C56	C	1.720137	-0.228952	-1.061588
C57	C	1.652918	-0.279482	-1.116428
C58	C	1.518293	-0.380760	-0.233151
C59	C	1.518466	-0.380572	-0.116375
H60	H	1.118406	-0.472546	-0.627810
C61	C	1.436597	-0.537428	-1.184821
C62	C	1.377348	-0.486679	-1.121758
H63	H	1.390990	-0.571727	-1.222024
H64	H	1.476633	-0.507313	-1.233208
H65	H	1.482337	-0.567670	-1.141992
H66	H	1.331612	-0.456433	-1.164588
H67	H	1.337293	-0.516796	-1.073366
C68	C	1.718332	-1.036900	-0.706432
C69	C	1.659433	-1.090633	-0.647407
H70	H	1.763905	-1.064854	-0.752090
H71	H	1.672506	-1.004704	-0.746550
H72	H	1.758543	-1.004709	-0.660684
H73	H	1.619216	-1.122820	-0.693155
H74	H	1.705265	-1.122843	-0.607286
H75	H	1.774832	-0.187835	-0.907205
H76	H	1.396425	-0.472308	-0.907073
C77	C	0.930272	-0.470010	-0.751034
C78	C	0.903695	-0.486990	-0.646954
H79	H	0.893050	-0.504353	-0.796558
H80	H	0.912320	-0.416920	-0.766519
H81	H	1.003472	-0.477254	-0.760613
H82	H	0.830495	-0.479740	-0.637373
H83	H	0.921640	-0.540093	-0.631463
H84	H	1.652858	-0.279558	-0.807637
C85	C	1.853039	-0.129037	-1.050614
C86	C	1.794047	-0.173378	-1.121918
H87	H	1.898676	-0.094733	-1.087860
H88	H	1.807276	-0.098808	-1.007829
H89	H	1.893187	-0.163500	-1.007805
H90	H	1.753893	-0.138915	-1.164721
H91	H	1.839816	-0.203610	-1.164720
H92	H	0.819741	-0.279559	-0.371991
H93	H	0.919234	-0.187731	-0.250307
H94	H	1.118300	-0.187695	-0.250284
C95	C	1.285695	-0.224385	-0.298922
C96	C	1.249144	-0.279498	-0.371961
H97	H	1.360154	-0.224381	-0.298910
H98	H	1.260900	-0.173404	-0.317220
H99	H	1.260832	-0.238004	-0.231098
H100	H	1.274000	-0.265876	-0.439786
H101	H	1.273949	-0.330490	-0.353669
C102	C	1.726162	-0.224409	-1.273636
C103	C	1.652950	-0.279454	-1.237039
H104	H	1.726188	-0.224399	-1.348095
H105	H	1.708014	-0.173412	-1.248842
H106	H	1.793940	-0.238093	-1.248803
H107	H	1.585170	-0.265767	-1.261866
H108	H	1.671092	-0.330462	-1.261844
C109	C	1.436847	-1.138455	-0.297633
C110	C	1.377525	-1.090982	-0.365028
H111	H	1.391290	-1.166514	-0.251998
H112	H	1.476844	-1.174799	-0.337699
H113	H	1.482628	-1.106244	-0.257482
H114	H	1.331749	-1.123194	-0.405185
H115	H	1.337510	-1.054634	-0.324958
C116	C	1.242839	-1.014711	-0.356954
C117	C	1.310311	-0.967247	-0.297736
H118	H	1.197293	-1.042785	-0.311325
H119	H	1.202606	-0.982498	-0.402663
H120	H	1.282863	-1.051048	-0.397021
H121	H	1.270288	-0.930905	-0.257674
H122	H	1.350548	-0.999462	-0.252009
H123	H	1.329363	-0.805687	-0.316855
H124	H	1.396443	-0.681778	-0.384075
H125	H	1.707396	-0.954979	-0.695458
C126	C	1.599875	-0.622225	-0.714662
C127	C	1.659208	-0.669693	-0.647270
H128	H	1.645427	-0.594151	-0.760287
H129	H	1.554110	-0.654434	-0.754815
H130	H	1.559863	-0.585886	-0.674585
H131	H	1.699215	-0.706036	-0.687347
H132	H	1.704992	-0.637481	-0.607113
C133	C	1.667086	-0.745953	-0.781943
C134	C	1.726422	-0.793430	-0.714563
H135	H	1.712635	-0.717877	-0.827566
H136	H	1.621317	-0.778158	-0.822098
H137	H	1.627077	-0.709618	-0.741857
H138	H	1.766425	-0.829769	-0.754648
H139	H	1.772209	-0.761222	-0.674404
