data_functionalizedCrystal
_audit_creation_method	'MofGen! by Chris Wilmer'
_symmetry_space_group_name_H-M	'P1'
_symmetry_Int_Tables_number	1
_symmetry_cell_setting	triclinic
loop_
_symmetry_equiv_pos_as_xyz
  x,y,z
_cell_length_a	8.559649
_cell_length_b	9.065218
_cell_length_c	7.540329
_cell_angle_alpha	90.001757
_cell_angle_beta	89.997379
_cell_angle_gamma	102.602725
loop_
_atom_site_label
_atom_site_type_symbol
_atom_site_fract_x
_atom_site_fract_y
_atom_site_fract_z
O1	O	2.119402	0.049968	-0.147454
O2	O	2.619402	0.549968	0.352546
O3	O	1.655298	-0.026097	-0.147462
O4	O	2.155298	0.473903	0.352538
O5	O	1.896943	0.227784	-0.147454
O6	O	2.396943	0.727784	0.352546
O7	O	1.877757	-0.203912	-0.147462
O8	O	2.377757	0.296088	0.352538
O9	O	1.896928	0.227785	0.147511
O10	O	2.396928	0.727785	0.647511
O11	O	1.655284	-0.026096	0.147503
O12	O	2.155284	0.473904	0.647503
O13	O	2.119387	0.049969	0.147511
O14	O	2.619387	0.549969	0.647511
Cu15	Cu	1.887334	0.011937	0.174440
Cu16	Cu	2.387334	0.511937	0.674440
Cu17	Cu	1.887351	0.011936	-0.174391
Cu18	Cu	2.387351	0.511936	0.325609
O19	O	1.877742	-0.203911	0.147503
O20	O	2.377742	0.296089	0.647503
C21	C	1.595845	-0.031861	0.000020
C22	C	2.095845	0.468139	0.500020
C23	C	1.418713	-0.049020	0.000017
C24	C	1.918713	0.450980	0.500017
N25	N	1.887334	0.011940	0.419788
N26	N	2.387334	0.511940	0.919788
C27	C	1.895092	0.282539	0.000025
C28	C	2.395092	0.782539	0.500025
C29	C	1.889578	0.445689	0.000017
C30	C	2.389578	0.945689	0.500017
C31	C	2.178841	0.055733	0.000025
C32	C	2.678841	0.555733	0.500025
C33	C	2.355972	0.072892	0.000017
C34	C	2.855972	0.572892	0.500017
C35	C	1.879594	-0.258667	0.000020
C36	C	2.379594	0.241333	0.500020
C37	C	1.885107	-0.421817	0.000017
C38	C	2.385107	0.078183	0.500017
N39	N	1.887364	0.011946	-0.419739
N40	N	2.387364	0.511946	0.080261
H41	H	1.336908	-0.166528	0.000005
H42	H	1.836908	0.333472	0.500005
O43	O	1.464316	0.228540	0.000025
O44	O	1.964316	0.728540	0.500025
H45	H	1.390501	0.315141	0.000014
H46	H	1.890501	0.815141	0.500014
