data_functionalizedCrystal
_audit_creation_method	'MofGen! by Chris Wilmer'
_symmetry_space_group_name_H-M	'P1'
_symmetry_Int_Tables_number	1
_symmetry_cell_setting	triclinic
loop_
_symmetry_equiv_pos_as_xyz
  x,y,z
_cell_length_a	16.109301
_cell_length_b	10.654550
_cell_length_c	15.186229
_cell_angle_alpha	89.997420
_cell_angle_beta	89.999362
_cell_angle_gamma	83.973192
loop_
_atom_site_label
_atom_site_type_symbol
_atom_site_fract_x
_atom_site_fract_y
_atom_site_fract_z
O1	O	1.104090	0.161419	-0.073171
O2	O	1.604090	0.661419	0.426829
O3	O	0.862148	0.181507	-0.073184
O4	O	1.362148	0.681507	0.426816
O5	O	0.988682	-0.011352	-0.073174
O6	O	1.488682	0.488648	0.426826
O7	O	0.977556	0.354278	-0.073181
O8	O	1.477556	0.854278	0.426819
O9	O	0.988673	-0.011354	0.073283
O10	O	1.488673	0.488646	0.573283
O11	O	0.862139	0.181505	0.073273
O12	O	1.362139	0.681505	0.573273
O13	O	1.104082	0.161416	0.073287
O14	O	1.604082	0.661416	0.573287
Zn15	Zn	0.983109	0.171460	0.096533
Zn16	Zn	1.483109	0.671460	0.596533
Zn17	Zn	0.983120	0.171463	-0.096431
Zn18	Zn	1.483120	0.671463	0.403569
O19	O	0.977548	0.354275	0.073276
O20	O	1.477548	0.854275	0.573276
C21	C	0.831164	0.180692	0.000043
C22	C	1.331164	0.680692	0.500043
C23	C	0.738854	0.178253	0.000037
C24	C	1.238854	0.678253	0.500037
C25	C	0.517228	0.287019	0.000045
C26	C	1.017228	0.787019	0.500045
C27	C	0.430494	0.284717	0.000051
C28	C	0.930494	0.784717	0.500051
C29	C	0.449008	0.055896	0.000052
C30	C	0.949008	0.555896	0.500052
C31	C	0.535741	0.058199	0.000052
C32	C	1.035741	0.558199	0.500052
C33	C	0.569848	0.173764	0.000045
C34	C	1.069848	0.673764	0.500045
C35	C	0.396382	0.169159	0.000050
C36	C	0.896382	0.669159	0.500050
C37	C	0.302341	0.166662	0.000056
C38	C	0.802341	0.666662	0.500056
C39	C	0.663895	0.176262	0.000040
C40	C	1.163895	0.676262	0.500040
C41	C	0.987861	-0.058140	0.000054
C42	C	1.487861	0.441860	0.500054
C43	C	0.985417	-0.197550	0.000050
C44	C	1.485417	0.302450	0.500050
C45	C	1.059918	-0.278046	0.000057
C46	C	1.559918	0.221954	0.500057
C47	C	1.057616	-0.409036	0.000051
C48	C	1.557616	0.090964	0.500051
C49	C	0.906306	-0.379020	0.000035
C50	C	1.406306	0.120980	0.500035
C51	C	0.908608	-0.248033	0.000035
C52	C	1.408608	0.251967	0.500035
C53	C	1.136726	-0.227564	0.000073
C54	C	1.636726	0.272436	0.500073
C55	C	1.211233	-0.308061	0.000081
C56	C	1.711233	0.191939	0.500081
C57	C	1.208932	-0.439051	0.000075
C58	C	1.708932	0.060949	0.500075
C59	C	1.132123	-0.489543	0.000061
C60	C	1.632123	0.010457	0.500061
C61	C	1.135066	0.162231	0.000058
C62	C	1.635066	0.662231	0.500058
C63	C	1.227376	0.164671	0.000057
C64	C	1.727376	0.664671	0.500057
C65	C	0.978369	0.401063	0.000047
C66	C	1.478369	0.901063	0.500047
C67	C	0.980813	0.540473	0.000044
C68	C	1.480813	1.040473	0.500044
N69	N	0.983108	0.171457	0.228226
N70	N	1.483108	0.671457	0.728226
N71	N	0.983129	0.171457	-0.228123
N72	N	1.483129	0.671457	0.271877
C73	C	1.039156	0.086088	0.453953
C74	C	1.539156	0.586088	0.953953
C75	C	1.039159	0.086085	0.546143
C76	C	1.539159	0.586085	1.046143
C77	C	0.927074	0.256830	0.546143
C78	C	1.427074	0.756830	1.046143
C79	C	0.927068	0.256826	0.453955
C80	C	1.427068	0.756826	0.953955
C81	C	0.983114	0.171456	0.407862
C82	C	1.483114	0.671456	0.907862
C83	C	0.983122	0.171457	0.592240
C84	C	1.483122	0.671457	1.092240
C85	C	0.983125	0.171455	0.692196
C86	C	1.483125	0.671455	1.192196
C87	C	0.983111	0.171457	0.307900
C88	C	1.483111	0.671457	0.807900
H89	H	1.138609	-0.120907	0.000081
H90	H	1.638609	0.379093	0.500081
H91	H	0.544995	0.381119	0.000046
H92	H	1.044995	0.881119	0.500046
H93	H	0.881444	0.326338	0.583680
H94	H	1.381444	0.826338	1.083680
Br95	Br	0.359084	0.438426	0.000056
Br96	Br	0.859084	0.938426	0.500056
Br97	Br	0.807498	-0.138779	0.000022
Br98	Br	1.307498	0.361221	0.500022
H99	H	0.881427	0.326344	0.416425
H100	H	1.381427	0.826344	0.916425
H101	H	0.421227	-0.038193	0.000063
H102	H	0.921227	0.461807	0.500063
H103	H	1.273768	-0.266942	0.000070
H104	H	1.773768	0.233058	0.500070
Br105	Br	0.607160	-0.095514	0.000063
Br106	Br	1.107160	0.404486	0.500063
H107	H	1.269599	-0.504589	0.000072
H108	H	1.769599	-0.004589	0.500072
Br109	Br	1.115216	-0.029774	0.391402
Br110	Br	1.615216	0.470226	0.891402
Br111	Br	1.115215	-0.029783	0.608693
Br112	Br	1.615215	0.470217	1.108693
H113	H	1.130255	-0.596205	0.000046
H114	H	1.630255	-0.096205	0.500046
Br115	Br	0.802073	-0.447545	0.000015
Br116	Br	1.302073	0.052455	0.500015
