data_functionalizedCrystal
_audit_creation_method	'MofGen! by Chris Wilmer'
_symmetry_space_group_name_H-M	'P1'
_symmetry_Int_Tables_number	1
_symmetry_cell_setting	triclinic
loop_
_symmetry_equiv_pos_as_xyz
  x,y,z
_cell_length_a	12.759401
_cell_length_b	18.101395
_cell_length_c	12.759393
_cell_angle_alpha	90.032370
_cell_angle_beta	90.020938
_cell_angle_gamma	90.032629
loop_
_atom_site_label
_atom_site_type_symbol
_atom_site_fract_x
_atom_site_fract_y
_atom_site_fract_z
Zn1	Zn	1.606147	-0.294764	0.594006
Zn2	Zn	1.605987	-0.418623	0.418321
Zn3	Zn	1.430445	-0.294803	0.418342
Zn4	Zn	1.430387	-0.418571	0.593958
O5	O	1.518242	-0.356690	0.506157
O6	O	1.753147	-0.311199	0.570713
O7	O	1.582659	-0.402236	0.271302
O8	O	1.453844	-0.191165	0.441673
O9	O	1.753030	-0.402198	0.441637
O10	O	1.582931	-0.191136	0.570733
O11	O	1.453689	-0.311266	0.271318
O12	O	1.283417	-0.311216	0.441626
O13	O	1.453744	-0.402110	0.740986
O14	O	1.283374	-0.402148	0.570651
O15	O	1.582874	-0.311149	0.741021
O16	O	1.582603	-0.522249	0.441590
O17	O	1.453590	-0.522211	0.570630
C18	C	1.245274	-0.356681	0.506136
C19	C	1.128498	-0.356695	0.506152
C20	C	1.073641	-0.404115	0.573229
C21	C	0.963917	-0.404118	0.573250
C22	C	0.963916	-0.309278	0.439107
C23	C	1.073638	-0.309272	0.439092
C24	C	1.518101	-0.549101	0.506126
C25	C	1.518137	-0.631415	0.506148
C26	C	1.518368	-0.930506	0.506204
C27	C	1.437384	-0.899187	0.587594
C28	C	1.436999	-0.813570	0.587340
C29	C	1.518253	-0.782123	0.506177
C30	C	1.488271	-0.813282	0.395451
C31	C	1.487748	-0.898927	0.395938
C32	C	1.629511	-0.898846	0.534565
C33	C	1.628857	-0.813194	0.536994
C34	C	1.518190	-0.698264	0.506155
C35	C	1.518428	-1.014365	0.506219
C36	C	1.792275	-0.356700	0.506178
C37	C	1.909051	-0.356704	0.506187
C38	C	1.518320	-0.356619	0.780190
C39	C	1.518354	-0.356589	0.896967
C40	C	1.518411	-0.163528	0.506211
C41	C	1.518484	-0.081214	0.506234
C42	C	1.518224	-0.356708	0.233189
C43	C	1.518394	-0.356529	0.116413
C44	C	1.585597	-0.309218	0.951849
C45	C	1.585614	-0.309186	1.061573
C46	C	1.451143	-0.403902	1.061523
C47	C	1.451121	-0.403930	0.951801
H48	H	1.455958	-0.919730	0.669962
H49	H	1.692386	-0.791784	0.482034
H50	H	1.118304	-0.270652	0.384470
N51	N	0.907866	-0.452563	0.641747
N52	N	0.809901	-0.452565	0.641752
H53	H	0.770313	-0.486782	0.690129
N54	N	1.460535	-0.787144	0.690339
N55	N	1.477358	-0.831955	0.762915
H56	H	1.493977	-0.813296	0.835664
H57	H	1.651467	-0.792826	0.618482
N58	N	1.663815	-0.925849	0.634134
N59	N	1.750844	-0.906526	0.669878
H60	H	1.775063	-0.925597	0.740203
H61	H	1.355504	-0.920777	0.569045
N62	N	0.907860	-0.260844	0.370618
N63	N	0.809895	-0.260856	0.370638
H64	H	0.770305	-0.226649	0.322265
H65	H	1.354618	-0.793149	0.568554
H66	H	1.640339	-0.270668	0.907206
H67	H	1.406503	-0.918973	0.371913
H68	H	1.396407	-0.442447	1.106183
N69	N	1.654320	-0.260810	1.117633
N70	N	1.721256	-0.286856	1.178862
H71	H	1.769783	-0.252688	1.218455
N72	N	1.558510	-0.924914	0.317248
N73	N	1.608118	-0.879796	0.262140
H74	H	1.658082	-0.898146	0.206554
N75	N	1.559945	-0.787732	0.317310
N76	N	1.634098	-0.746173	0.342415
H77	H	1.684721	-0.728127	0.287229
N78	N	1.129663	-0.452560	0.641731
N79	N	1.080665	-0.494896	0.701616
H80	H	1.120227	-0.529112	0.749999
N81	N	1.387430	-0.786455	0.364778
N82	N	1.337471	-0.744397	0.424274
H83	H	1.266250	-0.725449	0.402616
H84	H	1.689846	-0.919098	0.475286
H85	H	1.396356	-0.442504	0.907115
