data_functionalizedCrystal
_audit_creation_method	'MofGen! by Chris Wilmer'
_symmetry_space_group_name_H-M	'P1'
_symmetry_Int_Tables_number	1
_symmetry_cell_setting	triclinic
loop_
_symmetry_equiv_pos_as_xyz
  x,y,z
_cell_length_a	19.188930
_cell_length_b	19.188925
_cell_length_c	18.266242
_cell_angle_alpha	89.993996
_cell_angle_beta	89.977082
_cell_angle_gamma	83.143665
loop_
_atom_site_label
_atom_site_type_symbol
_atom_site_fract_x
_atom_site_fract_y
_atom_site_fract_z
O1	O	0.926148	0.087169	-0.061116
O2	O	0.722836	0.098903	-0.061065
O3	O	0.830361	-0.008620	-0.061088
O4	O	0.818623	0.194692	-0.061093
O5	O	0.830343	-0.008625	0.060674
O6	O	0.722818	0.098898	0.060697
O7	O	0.926129	0.087163	0.060646
Zn8	Zn	0.824471	0.093030	0.080004
Zn9	Zn	0.824495	0.093037	-0.080423
O10	O	0.818605	0.194687	0.060669
C11	C	0.696816	0.098520	-0.000178
C12	C	0.619311	0.097380	-0.000159
C13	C	0.829972	-0.034634	-0.000207
C14	C	0.828833	-0.112138	-0.000209
C15	C	0.884297	-0.673909	-0.000241
C16	C	0.885374	-0.601085	-0.000234
C17	C	0.822282	-0.556151	-0.000219
C18	C	0.758108	-0.584045	-0.000191
C19	C	0.757033	-0.656867	-0.000190
N20	N	0.776612	-0.435469	-0.041652
N21	N	0.777637	-0.366291	-0.041655
C22	C	0.825516	-0.336742	-0.000220
N23	N	0.872341	-0.378984	0.041208
N24	N	0.871318	-0.448168	0.041207
C25	C	0.823440	-0.477187	-0.000220
C26	C	0.890852	-0.229893	-0.000236
C27	C	0.891926	-0.157068	-0.000225
C28	C	0.764659	-0.140029	-0.000189
C29	C	0.763587	-0.212852	-0.000193
C30	C	0.826685	-0.257780	-0.000220
C31	C	0.574386	0.160471	-0.000172
C32	C	0.501563	0.159399	-0.000180
C33	C	0.473667	0.095233	-0.000189
C34	C	0.518602	0.032134	-0.000172
C35	C	0.591424	0.033207	-0.000157
N36	N	0.365694	0.046188	-0.041659
N37	N	0.296516	0.045172	-0.041675
C38	C	0.254259	0.091995	-0.000234
N39	N	0.283792	0.139882	0.041214
N40	N	0.352977	0.140899	0.041227
C41	C	0.394705	0.094062	-0.000206
C42	C	0.130369	0.153928	-0.000255
C43	C	0.057544	0.152854	-0.000258
C44	C	0.074586	0.025586	-0.000258
C45	C	0.147409	0.026663	-0.000247
C46	C	0.175296	0.090835	-0.000249
C47	C	0.952150	0.087546	-0.000243
C48	C	1.029654	0.088687	-0.000267
C49	C	0.818993	0.220700	-0.000213
C50	C	0.820132	0.298205	-0.000217
N51	N	0.824460	0.093024	0.189491
N52	N	0.824512	0.093037	-0.189910
C53	C	0.872087	0.045436	0.227790
C54	C	0.872092	0.045433	0.304435
C55	C	0.824475	0.093030	0.342778
C56	C	0.776839	0.140621	0.304469
C57	C	0.776831	0.140619	0.227826
N58	N	0.815398	0.154838	0.463110
N59	N	0.815410	0.154838	0.535918
C60	C	0.824495	0.093040	0.573700
N61	N	0.833581	0.031240	0.535924
N62	N	0.833573	0.031240	0.463109
C63	C	0.824478	0.093038	0.425885
C64	C	0.872130	0.045445	0.695106
C65	C	0.872129	0.045440	0.771752
C66	C	0.776880	0.140635	0.771786
C67	C	0.776877	0.140633	0.695141
C68	C	0.824505	0.093039	0.656806
H69	H	0.937626	-0.578376	-0.000253
H70	H	0.051874	-0.026659	-0.000311
C71	C	0.161048	0.224513	-0.000250
H72	H	0.123859	0.261936	-0.000248
H73	H	0.189124	0.227580	-0.042706
H74	H	0.189080	0.227574	0.042221
C75	C	0.686449	-0.687543	-0.000173
H76	H	0.649026	-0.650355	-0.000167
H77	H	0.683379	-0.715605	0.042286
H78	H	0.683393	-0.715589	-0.042641
C79	C	0.960256	-0.279316	-0.000256
H80	H	0.998626	-0.252275	-0.000258
H81	H	0.962489	-0.308073	-0.042718
H82	H	0.962475	-0.308082	0.042209
H83	H	0.706738	-0.547455	-0.000176
H84	H	0.628003	-0.018171	-0.000147
H85	H	0.020966	0.204232	-0.000265
H86	H	0.183988	-0.024713	-0.000241
H87	H	0.738107	0.179386	0.803004
H88	H	0.713288	-0.103444	-0.000170
C89	C	0.724493	0.192988	0.653010
H90	H	0.696138	0.221339	0.686821
H91	H	0.695506	0.167944	0.623129
H92	H	0.749521	0.221992	0.623096
C93	C	0.962511	-0.126393	-0.000253
H94	H	0.999933	-0.163583	-0.000276
H95	H	0.965577	-0.098344	0.042207
H96	H	0.965574	-0.098335	-0.042720
C97	C	0.924507	-0.006913	0.652931
H98	H	0.917687	-0.000094	0.601799
H99	H	0.917069	-0.053492	0.665502
H100	H	0.971084	0.000555	0.665466
C101	C	0.693004	-0.243529	-0.000178
H102	H	0.655582	-0.206340	-0.000174
H103	H	0.689933	-0.271588	0.042282
H104	H	0.689947	-0.271577	-0.042645
H105	H	0.464977	0.210777	-0.000189
C106	C	0.953701	-0.723328	-0.000270
H107	H	0.943873	-0.770693	-0.000274
H108	H	0.980024	-0.714900	0.042179
H109	H	0.980019	-0.714887	-0.042749
C110	C	0.605059	0.231058	-0.000161
H111	H	0.567869	0.268479	-0.000162
H112	H	0.633140	0.234128	-0.042613
H113	H	0.633084	0.234117	0.042315
C114	C	0.924485	-0.006911	0.346576
H115	H	0.917665	-0.000094	0.397712
H116	H	0.971054	0.000560	0.333989
H117	H	0.917049	-0.053497	0.334030
H118	H	0.910867	0.006681	0.196579
C119	C	0.724448	0.192965	0.346640
H120	H	0.696073	0.221300	0.312850
H121	H	0.749459	0.221976	0.376528
H122	H	0.695471	0.167902	0.376550
C123	C	0.487920	-0.038447	-0.000187
H124	H	0.438115	-0.030051	-0.000206
H125	H	0.503329	-0.064421	0.042276
H126	H	0.503381	-0.064412	-0.042651
C127	C	0.724443	0.192973	0.185695
H128	H	0.696086	0.221323	0.219505
H129	H	0.695458	0.167929	0.155812
H130	H	0.749472	0.221978	0.155784
H131	H	0.910911	0.006685	0.802936
