data_functionalizedCrystal
_audit_creation_method	'MofGen! by Chris Wilmer'
_symmetry_space_group_name_H-M	'P1'
_symmetry_Int_Tables_number	1
_symmetry_cell_setting	triclinic
loop_
_symmetry_equiv_pos_as_xyz
  x,y,z
_cell_length_a	18.215407
_cell_length_b	12.594516
_cell_length_c	18.215399
_cell_angle_alpha	90.022106
_cell_angle_beta	90.017368
_cell_angle_gamma	90.013496
loop_
_atom_site_label
_atom_site_type_symbol
_atom_site_fract_x
_atom_site_fract_y
_atom_site_fract_z
Zn1	Zn	1.125117	-0.423826	0.416097
Zn2	Zn	1.375117	-0.173826	0.666097
Zn3	Zn	1.625117	0.076174	0.916097
Zn4	Zn	1.875117	0.326174	1.166097
Zn5	Zn	1.125044	-0.601823	0.293044
Zn6	Zn	1.375044	-0.351823	0.543044
Zn7	Zn	1.625044	-0.101823	0.793044
Zn8	Zn	1.875044	0.148177	1.043044
Zn9	Zn	1.002050	-0.423851	0.293050
Zn10	Zn	1.252050	-0.173851	0.543050
Zn11	Zn	1.502050	0.076149	0.793050
Zn12	Zn	1.752050	0.326149	1.043050
Zn13	Zn	1.002035	-0.601755	0.416074
Zn14	Zn	1.252035	-0.351755	0.666074
Zn15	Zn	1.502035	-0.101755	0.916074
Zn16	Zn	1.752035	0.148245	1.166074
O17	O	1.063561	-0.512814	0.354566
O18	O	1.313561	-0.262814	0.604566
O19	O	1.563561	-0.012814	0.854566
O20	O	1.813561	0.237186	1.104566
O21	O	1.228092	-0.447455	0.399781
O22	O	1.478092	-0.197455	0.649781
O23	O	1.728092	0.052545	0.899781
O24	O	1.978092	0.302545	1.149781
O25	O	1.108705	-0.578254	0.190060
O26	O	1.358705	-0.328254	0.440060
O27	O	1.608705	-0.078254	0.690060
O28	O	1.858705	0.171746	0.940060
O29	O	1.018412	-0.274902	0.309385
O30	O	1.268412	-0.024902	0.559385
O31	O	1.518412	0.225098	0.809385
O32	O	1.768412	0.475098	1.059385
O33	O	1.228038	-0.578229	0.309374
O34	O	1.478038	-0.328229	0.559374
O35	O	1.728038	-0.078229	0.809374
O36	O	1.978038	0.171771	1.059374
O37	O	1.108829	-0.274883	0.399787
O38	O	1.358829	-0.024883	0.649787
O39	O	1.608829	0.225117	0.899787
O40	O	1.858829	0.475117	1.149787
O41	O	1.018341	-0.447499	0.190065
O42	O	1.268341	-0.197499	0.440065
O43	O	1.518341	0.052501	0.690065
O44	O	1.768341	0.302501	0.940065
O45	O	0.899063	-0.447432	0.309362
O46	O	1.149063	-0.197432	0.559362
O47	O	1.399063	0.052568	0.809362
O48	O	1.649063	0.302568	1.059362
O49	O	1.018386	-0.578113	0.519061
O50	O	1.268386	-0.328113	0.769061
O51	O	1.518386	-0.078113	1.019061
O52	O	1.768386	0.171887	1.269061
O53	O	0.899052	-0.578137	0.399747
O54	O	1.149052	-0.328137	0.649747
O55	O	1.399052	-0.078137	0.899747
O56	O	1.649052	0.171863	1.149747
O57	O	1.108814	-0.447389	0.519079
O58	O	1.358814	-0.197389	0.769079
O59	O	1.608814	0.052611	1.019079
O60	O	1.858814	0.302611	1.269079
O61	O	1.108690	-0.750760	0.309351
O62	O	1.358690	-0.500760	0.559351
O63	O	1.608690	-0.250760	0.809351
O64	O	1.858690	-0.000760	1.059351
O65	O	1.018315	-0.750709	0.399741
O66	O	1.268315	-0.500709	0.649741
O67	O	1.518315	-0.250709	0.899741
O68	O	1.768315	-0.000709	1.149741
C69	C	0.872355	-0.512781	0.354553
C70	C	1.122355	-0.262781	0.604553
C71	C	1.372355	-0.012781	0.854553
C72	C	1.622355	0.237219	1.104553
C73	C	0.790556	-0.512793	0.354565
C74	C	1.040556	-0.262793	0.604565
C75	C	1.290556	-0.012793	0.854565
C76	C	1.540556	0.237207	1.104565
C77	C	1.063513	-0.789355	0.354559
C78	C	1.313513	-0.539355	0.604559
C79	C	1.563513	-0.289355	0.854559
C80	C	1.813513	-0.039355	1.104559
C81	C	1.063560	-0.907660	0.354581
C82	C	1.313560	-0.657660	0.604581
C83	C	1.563560	-0.407660	0.854581
C84	C	1.813560	-0.157660	1.104581
C85	C	0.602389	-0.444839	0.401715
C86	C	0.852389	-0.194839	0.651715
C87	C	1.102389	0.055161	0.901715
C88	C	1.352389	0.305161	1.151715
C89	C	0.525530	-0.444848	0.401717
C90	C	0.775530	-0.194848	0.651717
C91	C	1.025530	0.055152	0.901717
C92	C	1.275530	0.305152	1.151717
C93	C	0.525486	-0.580818	0.307431
C94	C	0.775486	-0.330818	0.557431
C95	C	1.025486	-0.080818	0.807431
C96	C	1.275486	0.169182	1.057431
C97	C	0.602343	-0.580803	0.307425
C98	C	0.852343	-0.330803	0.557425
C99	C	1.102343	-0.080803	0.807425
C100	C	1.352343	0.169197	1.057425
C101	C	0.640793	-0.512815	0.354571
C102	C	0.890793	-0.262815	0.604571
C103	C	1.140793	-0.012815	0.854571
C104	C	1.390793	0.237185	1.104571
C105	C	0.487077	-0.512839	0.354579
C106	C	0.737077	-0.262839	0.604579
C107	C	0.987077	-0.012839	0.854579
C108	C	1.237077	0.237161	1.104579
C109	C	0.403743	-0.512850	0.354582
C110	C	0.653743	-0.262850	0.604582
C111	C	0.903743	-0.012850	0.854582
C112	C	1.153743	0.237150	1.104582
C113	C	0.724132	-0.512803	0.354568
C114	C	0.974132	-0.262803	0.604568
C115	C	1.224132	-0.012803	0.854568
C116	C	1.474132	0.237197	1.104568
C117	C	1.014400	-0.976924	0.403709
C118	C	1.264400	-0.726924	0.653709
C119	C	1.514400	-0.476924	0.903709
C120	C	1.764400	-0.226924	1.153709
C121	C	0.996471	-1.047782	0.336557
C122	C	1.246471	-0.797782	0.586557
C123	C	1.496471	-0.547782	0.836557
C124	C	1.746471	-0.297782	1.086557
C125	C	1.081556	-1.047602	0.421744
C126	C	1.331556	-0.797602	0.671744
C127	C	1.581556	-0.547602	0.921744
C128	C	1.831556	-0.297602	1.171744
C129	C	1.045595	-0.976959	0.287393
C130	C	1.295595	-0.726959	0.537393
C131	C	1.545595	-0.476959	0.787393
C132	C	1.795595	-0.226959	1.037393
C133	C	1.130712	-0.976773	0.372625
C134	C	1.380712	-0.726773	0.622625
C135	C	1.630712	-0.476773	0.872625
C136	C	1.880712	-0.226773	1.122625
C137	C	1.112808	-1.047598	0.305427
C138	C	1.362808	-0.797598	0.555427
C139	C	1.612808	-0.547598	0.805427
C140	C	1.862808	-0.297598	1.055427
C141	C	1.255514	-0.512847	0.354580
C142	C	1.505514	-0.262847	0.604580
C143	C	1.755514	-0.012847	0.854580
C144	C	2.005514	0.237153	1.104580
C145	C	1.337313	-0.512862	0.354585
C146	C	1.587313	-0.262862	0.604585
C147	C	1.837313	-0.012862	0.854585
C148	C	2.087313	0.237138	1.104585
C149	C	1.063606	-0.512740	0.546519
C150	C	1.313606	-0.262740	0.796519
C151	C	1.563606	-0.012740	1.046519
C152	C	1.813606	0.237260	1.296519
C153	C	1.063625	-0.512709	0.628318
C154	C	1.313625	-0.262709	0.878318
C155	C	1.563625	-0.012709	1.128318
C156	C	1.813625	0.237291	1.378318
C157	C	1.063630	-0.235193	0.354590
C158	C	1.313630	0.014807	0.604590
C159	C	1.563630	0.264807	0.854590
C160	C	1.813630	0.514807	1.104590
C161	C	1.063659	-0.116887	0.354599
C162	C	1.313659	0.133113	0.604599
C163	C	1.563659	0.383113	0.854599
C164	C	1.813659	0.633113	1.104599
C165	C	1.063559	-0.512810	0.163360
C166	C	1.313559	-0.262810	0.413360
C167	C	1.563559	-0.012810	0.663360
C168	C	1.813559	0.237190	0.913360
C169	C	1.063683	-0.512541	0.081561
C170	C	1.313683	-0.262541	0.331561
C171	C	1.563683	-0.012541	0.581561
C172	C	1.813683	0.237459	0.831561
C173	C	1.110728	-0.444578	0.816522
C174	C	1.360728	-0.194578	1.066522
C175	C	1.610728	0.055422	1.316522
C176	C	1.860728	0.305422	1.566522
C177	C	1.110737	-0.444547	0.893381
C178	C	1.360737	-0.194547	1.143381
C179	C	1.610737	0.055453	1.393381
C180	C	1.860737	0.305453	1.643381
C181	C	1.016574	-0.580676	0.893352
C182	C	1.266574	-0.330676	1.143352
C183	C	1.516574	-0.080676	1.393352
C184	C	1.766574	0.169324	1.643352
C185	C	1.016563	-0.580701	0.816494
C186	C	1.266563	-0.330701	1.066494
C187	C	1.516563	-0.080701	1.316494
C188	C	1.766563	0.169299	1.566494
C189	C	1.063644	-0.512653	0.778082
C190	C	1.313644	-0.262653	1.028082
C191	C	1.563644	-0.012653	1.278082
C192	C	1.813644	0.237347	1.528082
C193	C	1.063664	-0.512597	0.931798
C194	C	1.313664	-0.262597	1.181798
C195	C	1.563664	-0.012597	1.431798
C196	C	1.813664	0.237403	1.681798
C197	C	1.063674	-0.512564	1.015132
C198	C	1.313674	-0.262564	1.265132
C199	C	1.563674	-0.012564	1.515132
C200	C	1.813674	0.237436	1.765132
C201	C	1.063634	-0.512685	0.694743
C202	C	1.313634	-0.262685	0.944743
C203	C	1.563634	-0.012685	1.194743
C204	C	1.813634	0.237315	1.444743
H205	H	0.633693	-0.389475	0.440102
H206	H	0.883693	-0.139475	0.690102
H207	H	1.133693	0.110525	0.940102
H208	H	1.383693	0.360525	1.190102
Br209	Br	0.952685	-0.673025	0.945488
Br210	Br	1.202685	-0.423025	1.195488
Br211	Br	1.452685	-0.173025	1.445488
Br212	Br	1.702685	0.076975	1.695488
H213	H	0.494266	-0.389493	0.440105
H214	H	0.744266	-0.139493	0.690105
H215	H	0.994266	0.110507	0.940105
H216	H	1.244266	0.360507	1.190105
Br217	Br	0.952651	-0.673086	0.764320
Br218	Br	1.202651	-0.423086	1.014320
Br219	Br	1.452651	-0.173086	1.264320
Br220	Br	1.702651	0.076914	1.514320
Br221	Br	1.174622	-0.352226	0.764393
Br222	Br	1.424622	-0.102226	1.014393
Br223	Br	1.674622	0.147774	1.264393
Br224	Br	1.924622	0.397774	1.514393
Br225	Br	1.174646	-0.352162	0.945548
Br226	Br	1.424646	-0.102162	1.195548
Br227	Br	1.674646	0.147838	1.445548
Br228	Br	1.924646	0.397838	1.695548
H229	H	0.633612	-0.636159	0.269031
H230	H	0.883612	-0.386159	0.519031
H231	H	1.133612	-0.136159	0.769031
H232	H	1.383612	0.113841	1.019031
Br233	Br	0.473300	-0.673085	0.243451
Br234	Br	0.723300	-0.423085	0.493451
Br235	Br	0.973300	-0.173085	0.743451
Br236	Br	1.223300	0.076915	0.993451
H237	H	0.972753	-0.945891	0.445195
H238	H	1.222753	-0.695891	0.695195
H239	H	1.472753	-0.445891	0.945195
H240	H	1.722753	-0.195891	1.195195
Br241	Br	0.901891	-1.099763	0.311120
Br242	Br	1.151891	-0.849763	0.561120
Br243	Br	1.401891	-0.599763	0.811120
Br244	Br	1.651891	-0.349763	1.061120
H245	H	1.030348	-0.946057	0.230585
H246	H	1.280348	-0.696057	0.480585
H247	H	1.530348	-0.446057	0.730585
H248	H	1.780348	-0.196057	0.980585
H249	H	1.154423	-1.078434	0.263841
H250	H	1.404423	-0.828434	0.513841
H251	H	1.654423	-0.578434	0.763841
H252	H	1.904423	-0.328434	1.013841
H253	H	1.187442	-0.945562	0.387905
H254	H	1.437442	-0.695562	0.637905
H255	H	1.687442	-0.445562	0.887905
H256	H	1.937442	-0.195562	1.137905
H257	H	1.096738	-1.078632	0.478536
H258	H	1.346738	-0.828632	0.728536
H259	H	1.596738	-0.578632	0.978536
H260	H	1.846738	-0.328632	1.228536
