data_functionalizedCrystal
_audit_creation_method	'MofGen! by Chris Wilmer'
_symmetry_space_group_name_H-M	'P1'
_symmetry_Int_Tables_number	1
_symmetry_cell_setting	triclinic
loop_
_symmetry_equiv_pos_as_xyz
  x,y,z
_cell_length_a	10.489741
_cell_length_b	14.519709
_cell_length_c	12.996460
_cell_angle_alpha	90.007090
_cell_angle_beta	90.002874
_cell_angle_gamma	84.109659
loop_
_atom_site_label
_atom_site_type_symbol
_atom_site_fract_x
_atom_site_fract_y
_atom_site_fract_z
O1	O	-1.692699	-0.130116	-0.085506
O2	O	-1.321376	-0.142329	-0.085522
O3	O	-1.516883	-0.002038	-0.085504
O4	O	-1.497193	-0.270408	-0.085524
O5	O	-1.516862	-0.002030	0.085630
O6	O	-1.321356	-0.142322	0.085612
O7	O	-1.692679	-0.130108	0.085628
Cu8	Cu	-1.507015	-0.136214	0.101246
Cu9	Cu	-1.507040	-0.136224	-0.101140
O10	O	-1.497172	-0.270400	0.085610
C11	C	-1.273844	-0.141403	0.000043
C12	C	-1.132243	-0.138643	0.000037
C13	C	-1.515955	0.032331	0.000063
C14	C	-1.513205	0.134727	0.000063
C15	C	-1.740211	-0.131035	0.000061
C16	C	-1.881812	-0.133794	0.000060
C17	C	-1.065034	-0.049380	0.000053
C18	C	-0.972477	-0.091551	-0.084326
C19	C	-0.972491	-0.091564	0.084399
C20	C	-1.041552	-0.180851	-0.084411
C21	C	-1.041575	-0.180852	0.084389
C22	C	-0.949046	-0.223088	-0.000010
C23	C	-1.498100	-0.304768	0.000041
C24	C	-1.500850	-0.407165	0.000034
N25	N	-1.507008	-0.136207	0.243593
C26	C	-1.503082	0.509678	0.000036
C27	C	-1.505893	0.405355	0.000044
C28	C	-1.508143	0.322206	0.000051
C29	C	-1.510955	0.217876	0.000057
N30	N	-1.507057	-0.136223	-0.243487
C31	C	-1.507038	-0.136224	0.663407
C32	C	-1.507026	-0.136223	0.546602
C33	C	-1.507023	-0.136216	0.453504
C34	C	-1.507010	-0.136213	0.336691
H35	H	-0.941865	-0.053785	-0.155658
H36	H	-0.898856	-0.296546	-0.000062
O37	O	-0.936164	-0.046365	0.169474
C38	C	-0.954401	0.096326	0.265560
C39	C	-0.995665	0.045233	0.169191
H40	H	-1.002468	0.170398	0.265352
H41	H	-0.984221	0.059063	0.337502
H42	H	-0.845878	0.097353	0.265132
H43	H	-1.104181	0.044191	0.169519
H44	H	-0.965751	0.082513	0.097291
O45	O	-1.078115	-0.225734	0.169593
C46	C	-1.084705	-0.229452	0.354867
C47	C	-1.043275	-0.178532	0.258450
H48	H	-1.056530	-0.191322	0.426732
H49	H	-1.193016	-0.231682	0.353701
H50	H	-1.035155	-0.303100	0.355542
H51	H	-1.092734	-0.104862	0.257713
H52	H	-0.934952	-0.176378	0.259653
O53	O	-1.077995	-0.225963	-0.169509
C54	C	-1.180085	-0.354865	-0.235960
C55	C	-1.138908	-0.303859	-0.139503
H56	H	-1.229317	-0.417865	-0.211734
H57	H	-1.249367	-0.306253	-0.283301
H58	H	-1.091960	-0.378271	-0.284263
H59	H	-1.226956	-0.280449	-0.091120
H60	H	-1.069582	-0.352504	-0.092239
O61	O	-1.125141	0.038186	-0.000224
C62	C	-1.158269	0.184141	-0.089467
C63	C	-1.090134	0.084997	-0.089285
H64	H	-1.129971	0.222023	-0.161455
H65	H	-1.266467	0.181264	-0.088804
H66	H	-1.128742	0.222557	-0.018224
H67	H	-1.119556	0.046524	-0.160516
H68	H	-0.981950	0.087941	-0.089895
