data_functionalizedCrystal
_audit_creation_method	'MofGen! by Chris Wilmer'
_symmetry_space_group_name_H-M	'P1'
_symmetry_Int_Tables_number	1
_symmetry_cell_setting	triclinic
loop_
_symmetry_equiv_pos_as_xyz
  x,y,z
_cell_length_a	10.654550
_cell_length_b	19.188924
_cell_length_c	9.130313
_cell_angle_alpha	89.996698
_cell_angle_beta	89.996220
_cell_angle_gamma	83.813433
loop_
_atom_site_label
_atom_site_type_symbol
_atom_site_fract_x
_atom_site_fract_y
_atom_site_fract_z
O1	O	1.665755	0.098059	-0.121927
O2	O	1.300078	0.107402	-0.121904
O3	O	1.493474	0.001143	-0.121899
O4	O	1.472359	0.204317	-0.121932
O5	O	1.493471	0.001146	0.121700
O6	O	1.300076	0.107405	0.121694
O7	O	1.665752	0.098062	0.121672
Cu8	Cu	1.482914	0.102733	0.143926
Cu9	Cu	1.482917	0.102730	-0.144158
O10	O	1.472357	0.204320	0.121666
C11	C	1.253294	0.106717	-0.000102
C12	C	1.113894	0.104665	-0.000093
C13	C	1.492790	-0.024871	-0.000098
C14	C	1.490742	-0.102389	-0.000094
C15	C	1.033081	0.167228	-0.000124
C16	C	0.902102	0.165295	-0.000149
C17	C	0.932759	0.038231	-0.000117
C18	C	1.063737	0.040164	-0.000082
C19	C	1.083239	0.231729	-0.000135
C20	C	1.002425	0.294297	-0.000168
C21	C	0.871445	0.292364	-0.000193
C22	C	0.821279	0.227863	-0.000185
C23	C	1.489787	-0.138796	-0.132880
C24	C	1.487845	-0.211631	-0.132891
C25	C	1.486883	-0.248059	-0.000109
C26	C	1.487830	-0.211643	0.132695
C27	C	1.489760	-0.138808	0.132702
N28	N	1.555314	-0.367273	0.098714
N29	N	1.553484	-0.436463	0.098698
C30	C	1.481066	-0.467506	-0.000123
N31	N	1.410563	-0.426745	-0.098949
N32	N	1.412399	-0.357549	-0.098937
C33	C	1.484789	-0.327036	-0.000102
C34	C	1.478003	-0.582889	-0.132930
C35	C	1.476053	-0.655725	-0.132935
C36	C	1.476051	-0.655736	0.132655
C37	C	1.477989	-0.582901	0.132656
C38	C	1.478971	-0.546482	-0.000140
C39	C	1.712537	0.098746	-0.000134
C40	C	1.851937	0.100799	-0.000153
C41	C	1.473040	0.230334	-0.000138
C42	C	1.475089	0.307852	-0.000151
N43	N	1.482921	0.102735	0.346548
N44	N	1.482920	0.102723	-0.346781
C45	C	1.568578	0.055700	0.423202
C46	C	1.568575	0.055692	0.576539
C47	C	1.397253	0.149760	0.576554
C48	C	1.397252	0.149764	0.423220
C49	C	1.654248	0.008672	0.346531
C50	C	1.739913	-0.038367	0.423185
C51	C	1.739909	-0.038375	0.576522
C52	C	1.654241	0.008655	0.653204
H53	H	1.189887	0.233309	-0.000121
H54	H	1.327507	0.188050	0.638999
C55	C	0.878468	-0.031844	-0.000354
C56	C	0.919636	-0.069710	-0.125647
C57	C	0.869665	-0.134271	-0.125912
H58	H	0.788894	-0.024134	-0.000459
H59	H	0.906242	-0.057670	0.084560
H60	H	0.891856	-0.043890	-0.210539
H61	H	1.009204	-0.077439	-0.125568
H62	H	0.897438	-0.160096	-0.040998
H63	H	0.780092	-0.126554	-0.126013
H64	H	0.897599	-0.159973	-0.210914
H65	H	1.327501	0.188064	0.360808
H66	H	1.475269	-0.685366	-0.241070
H67	H	1.487043	-0.241306	0.240807
H68	H	0.805649	0.343310	-0.000206
H69	H	1.490532	-0.109165	0.240836
H70	H	1.475258	-0.685394	0.240769
C71	C	1.151637	-0.027706	-0.000282
C72	C	1.227782	-0.030298	-0.125566
C73	C	1.308784	-0.092805	-0.125784
H74	H	1.103170	-0.066455	-0.000366
H75	H	1.203419	-0.029592	0.084638
H76	H	1.176007	-0.028418	-0.210464
H77	H	1.276276	0.008437	-0.125508
H78	H	1.360566	-0.094692	-0.040864
H79	H	1.260307	-0.131549	-0.125864
H80	H	1.360467	-0.094569	-0.210780
C81	C	1.479109	-0.543500	0.276981
C82	C	1.477886	-0.590990	0.393268
C83	C	1.478934	-0.554722	0.526247
H84	H	1.406671	-0.510113	0.282723
H85	H	1.553108	-0.520078	0.282572
H86	H	1.403895	-0.614401	0.387680
H87	H	1.550319	-0.624379	0.387575
H88	H	1.552933	-0.531300	0.531838
H89	H	1.406494	-0.521336	0.531974
H90	H	1.478116	-0.586939	0.605164
H91	H	1.487060	-0.241279	-0.241025
H92	H	1.043279	0.346811	-0.000163
H93	H	1.490583	-0.109148	-0.241014
H94	H	1.478796	-0.553235	-0.241060
H95	H	1.654260	0.008675	0.221676
H96	H	1.809654	-0.076661	0.360742
H97	H	0.714625	0.226295	-0.000183
H98	H	1.809652	-0.076680	0.638932
H99	H	1.654237	0.008639	0.778062
