data_functionalizedCrystal
_audit_creation_method	'MofGen! by Chris Wilmer'
_symmetry_space_group_name_H-M	'P1'
_symmetry_Int_Tables_number	1
_symmetry_cell_setting	triclinic
loop_
_symmetry_equiv_pos_as_xyz
  x,y,z
_cell_length_a	11.026607
_cell_length_b	15.995350
_cell_length_c	9.482900
_cell_angle_alpha	99.336743
_cell_angle_beta	78.636152
_cell_angle_gamma	96.039196
loop_
_atom_site_label
_atom_site_type_symbol
_atom_site_fract_x
_atom_site_fract_y
_atom_site_fract_z
O1	O	1.629075	0.340363	-0.120882
O2	O	1.275769	0.300437	-0.120885
O3	O	1.462080	0.199968	-0.120882
O4	O	1.442765	0.440832	-0.120885
O5	O	1.424236	0.220481	0.120910
O6	O	1.237926	0.320950	0.120907
O7	O	1.591231	0.360875	0.120910
Cu8	Cu	1.411123	0.342785	0.142986
Cu9	Cu	1.455878	0.318527	-0.142961
O10	O	1.404921	0.461344	0.120907
C11	C	1.211637	0.303328	0.000010
C12	C	1.076923	0.281371	0.000009
C13	C	1.003118	0.341997	0.000007
C14	C	0.863884	0.319305	0.000005
C15	C	1.442360	0.178909	0.000011
C16	C	1.439967	0.085597	0.000003
C17	C	1.431369	-0.253446	0.000008
C18	C	1.298767	-0.226057	-0.000536
C19	C	1.301076	-0.128960	0.000009
C20	C	1.435634	-0.085243	0.000005
C21	C	1.479470	-0.104742	0.138078
C22	C	1.476118	-0.201871	0.138193
C23	C	1.521895	-0.225142	-0.136769
C24	C	1.522149	-0.128356	-0.138594
C25	C	1.438051	0.009819	0.000008
C26	C	1.428954	-0.348507	0.000014
C27	C	1.655364	0.357984	0.000012
C28	C	1.790080	0.379940	0.000004
C29	C	1.424641	0.482403	0.000011
C30	C	1.427036	0.575714	0.000009
N31	N	1.379654	0.359848	0.344106
N32	N	1.487357	0.301459	-0.344081
C33	C	1.446587	0.323554	0.416306
C34	C	1.420413	0.337759	0.583723
H35	H	1.265122	-0.116689	-0.098967
H36	H	1.343722	0.379346	0.645846
O37	O	1.640805	-0.093270	-0.148855
C38	C	1.849485	-0.093974	-0.285930
C39	C	1.715157	-0.133795	-0.274489
H40	H	1.909642	-0.126735	-0.387482
H41	H	1.851340	-0.023363	-0.292993
H42	H	1.886934	-0.102381	-0.185709
H43	H	1.677625	-0.125451	-0.374682
H44	H	1.713382	-0.204391	-0.267355
O45	O	1.029520	0.199359	-0.000187
C46	C	1.034819	0.055761	-0.125500
C47	C	1.088627	0.148605	-0.125442
H48	H	1.082566	0.014703	-0.226773
H49	H	1.050982	0.031768	-0.024380
H50	H	0.930995	0.052090	-0.125430
H51	H	1.192461	0.152348	-0.125563
H52	H	1.072367	0.172557	-0.226553
O53	O	1.489865	-0.268118	-0.261659
C54	C	1.552954	-0.362987	-0.483032
C55	C	1.589397	-0.314378	-0.341646
H56	H	1.633415	-0.400386	-0.547756
H57	H	1.468062	-0.408645	-0.455437
H58	H	1.530428	-0.315861	-0.550623
H59	H	1.611986	-0.361441	-0.273987
H60	H	1.674250	-0.268707	-0.369343
H61	H	1.564039	0.259864	0.593796
H62	H	1.619870	-0.242236	-0.137701
H63	H	1.523265	0.281962	0.354179
O64	O	1.288252	0.409468	0.418437
C65	C	1.178742	0.468796	0.653071
C66	C	1.282312	0.412597	0.569078
H67	H	1.173889	0.471330	0.774878
H68	H	1.199451	0.535749	0.623338
H69	H	1.086142	0.440864	0.623162
H70	H	1.374954	0.440454	0.598941
H71	H	1.261496	0.345651	0.598818
O72	O	0.816486	0.237288	-0.000190
C73	C	0.821785	0.093690	-0.125503
C74	C	0.875593	0.186535	-0.125445
H75	H	0.869532	0.052633	-0.226777
H76	H	0.837949	0.069698	-0.024384
H77	H	0.717961	0.090020	-0.125433
H78	H	0.979427	0.190278	-0.125567
H79	H	0.859333	0.210487	-0.226556
H80	H	1.043008	0.410702	0.000014
O81	O	1.220633	-0.095104	0.118244
C82	C	1.008890	-0.094187	0.246036
C83	C	1.099860	-0.132612	0.112074
H84	H	0.911221	-0.124484	0.241078
H85	H	1.037832	-0.106845	0.349146
H86	H	1.010268	-0.022732	0.247009
H87	H	1.098528	-0.204075	0.110961
H88	H	1.070886	-0.119887	0.009026
H89	H	1.261230	-0.260983	-0.099551
H90	H	1.412240	-0.218609	0.241408
O91	O	0.837865	0.461861	-0.000086
C92	C	1.020190	0.559179	-0.000052
C93	C	0.966239	0.466372	0.000032
H94	H	1.123983	0.562859	0.000075
H95	H	1.004160	0.583118	-0.101278
H96	H	0.972337	0.600279	0.101101
H97	H	1.014057	0.425205	-0.101052
H98	H	0.982253	0.442501	0.101326
H99	H	1.572555	-0.218904	0.144455
H100	H	1.577522	-0.075281	0.143209
O101	O	1.217471	-0.249095	0.116883
C102	C	1.119480	-0.363962	0.244917
C103	C	1.211593	-0.337986	0.111890
H104	H	1.114677	-0.435833	0.240909
H105	H	1.151849	-0.331499	0.348726
H106	H	1.023643	-0.343781	0.243546
H107	H	1.307457	-0.358163	0.113121
H108	H	1.179119	-0.370441	0.008141
O109	O	1.406038	-0.068801	0.260770
C110	C	1.264883	-0.091834	0.482105
C111	C	1.348027	-0.132642	0.343238
H112	H	1.217938	-0.143432	0.548804
H113	H	1.323903	-0.044803	0.549247
H114	H	1.191184	-0.057053	0.451010
H115	H	1.421738	-0.167467	0.374202
H116	H	1.288926	-0.179627	0.276132
O117	O	1.484147	-0.114867	-0.260501
C118	C	1.409653	-0.178157	-0.478965
C119	C	1.452633	-0.193562	-0.340947
H120	H	1.384187	-0.241771	-0.544059
H121	H	1.325170	-0.139101	-0.446997
H122	H	1.487877	-0.142186	-0.548068
H123	H	1.374492	-0.229558	-0.271781
H124	H	1.537150	-0.232582	-0.373016
