data_functionalizedCrystal
_audit_creation_method	'MofGen! by Chris Wilmer'
_symmetry_space_group_name_H-M	'P1'
_symmetry_Int_Tables_number	1
_symmetry_cell_setting	triclinic
loop_
_symmetry_equiv_pos_as_xyz
  x,y,z
_cell_length_a	18.215407
_cell_length_b	18.215405
_cell_length_c	18.215399
_cell_angle_alpha	89.972459
_cell_angle_beta	89.980167
_cell_angle_gamma	90.023180
loop_
_atom_site_label
_atom_site_type_symbol
_atom_site_fract_x
_atom_site_fract_y
_atom_site_fract_z
Zn1	Zn	1.125083	-0.292983	-0.416118
Zn2	Zn	1.124996	-0.416054	-0.293053
Zn3	Zn	1.002016	-0.293007	-0.293065
Zn4	Zn	1.001986	-0.416013	-0.416077
O5	O	1.063520	-0.354514	-0.354578
O6	O	1.228056	-0.309316	-0.399805
O7	O	1.108658	-0.399759	-0.190070
O8	O	1.018389	-0.190020	-0.309411
O9	O	1.227992	-0.399736	-0.309389
O10	O	1.108807	-0.190002	-0.399817
O11	O	1.018305	-0.309357	-0.190079
O12	O	0.899027	-0.309317	-0.309372
O13	O	1.018339	-0.399666	-0.519067
O14	O	0.899006	-0.399689	-0.399748
O15	O	1.108778	-0.309276	-0.519097
O16	O	1.108630	-0.519033	-0.309350
O17	O	1.018255	-0.519003	-0.399736
C18	C	0.872314	-0.354502	-0.354557
C19	C	0.790515	-0.354514	-0.354566
C20	C	1.063450	-0.545721	-0.354553
C21	C	1.063487	-0.627520	-0.354567
C22	C	0.602329	-0.401645	-0.401566
C23	C	0.525470	-0.401647	-0.401575
C24	C	0.525463	-0.307397	-0.307607
C25	C	0.602321	-0.307392	-0.307602
C26	C	0.640751	-0.354520	-0.354580
C27	C	0.487035	-0.354528	-0.354594
C28	C	0.403702	-0.354530	-0.354604
C29	C	0.724090	-0.354517	-0.354572
C30	C	1.110589	-0.815643	-0.401705
C31	C	1.110616	-0.892502	-0.401719
C32	C	1.016542	-0.892634	-0.307497
C33	C	1.016512	-0.815776	-0.307488
C34	C	1.063540	-0.777283	-0.354590
C35	C	1.063597	-0.930999	-0.354614
C36	C	1.063625	-1.014333	-0.354628
C37	C	1.063511	-0.693944	-0.354577
C38	C	1.255473	-0.354528	-0.354600
C39	C	1.337272	-0.354533	-0.354609
C40	C	1.063565	-0.354464	-0.546531
C41	C	1.063584	-0.354442	-0.628330
C42	C	1.063611	-0.162561	-0.354620
C43	C	1.063650	-0.080763	-0.354638
C44	C	1.110692	-0.307332	-0.816541
C45	C	1.110701	-0.307311	-0.893400
C46	C	1.016528	-0.401438	-0.893358
C47	C	1.016516	-0.401455	-0.816500
C48	C	1.063602	-0.354403	-0.778094
C49	C	1.063623	-0.354365	-0.931810
C50	C	1.063632	-0.354342	-1.015144
C51	C	1.063592	-0.354425	-0.694755
C52	C	1.063518	-0.354512	-0.163372
C53	C	1.063641	-0.354326	-0.081574
H54	H	0.633617	-0.440018	-0.439820
O55	O	0.965708	-0.452224	-0.775038
H56	H	0.998611	-0.489679	-0.740009
O57	O	0.483987	-0.452477	-0.452217
H58	H	0.448947	-0.489845	-0.419174
H59	H	1.148881	-0.784304	-0.440060
O60	O	1.161483	-0.256535	-0.934872
H61	H	1.198911	-0.289462	-0.969898
O62	O	1.161360	-0.933880	-0.452535
H63	H	1.219122	-0.919099	-0.439962
O64	O	0.484014	-0.256592	-0.256914
H65	H	0.424115	-0.264524	-0.264798
O66	O	0.643771	-0.256573	-0.256912
H67	H	0.604137	-0.223814	-0.224234
H68	H	1.149031	-0.269017	-0.785273
H69	H	0.978255	-0.923984	-0.269147
O70	O	0.965771	-0.774393	-0.256663
H71	H	0.933084	-0.814070	-0.223901
H72	H	0.978193	-0.439748	-0.924637
