data_functionalizedCrystal
_audit_creation_method	'MofGen! by Chris Wilmer'
_symmetry_space_group_name_H-M	'P1'
_symmetry_Int_Tables_number	1
_symmetry_cell_setting	triclinic
loop_
_symmetry_equiv_pos_as_xyz
  x,y,z
_cell_length_a	14.519731
_cell_length_b	19.288874
_cell_length_c	18.366186
_cell_angle_alpha	90.002075
_cell_angle_beta	89.992506
_cell_angle_gamma	96.585461
loop_
_atom_site_label
_atom_site_type_symbol
_atom_site_fract_x
_atom_site_fract_y
_atom_site_fract_z
O1	O	-1.223285	0.091116	0.060569
O2	O	-0.723285	0.591116	0.560569
O3	O	-0.954743	0.101823	0.060567
O4	O	-0.454743	0.601823	0.560567
O5	O	-1.096769	-0.004632	0.060562
O6	O	-0.596769	0.495368	0.560562
O7	O	-1.081259	0.197571	0.060574
O8	O	-0.581259	0.697571	0.560574
O9	O	-1.096750	-0.004628	-0.060537
O10	O	-0.596750	0.495372	0.439463
O11	O	-0.954725	0.101827	-0.060533
O12	O	-0.454725	0.601827	0.439467
O13	O	-1.223266	0.091120	-0.060530
O14	O	-0.723266	0.591120	0.439470
Zn15	Zn	-1.088993	0.096474	-0.079759
Zn16	Zn	-0.588993	0.596474	0.420241
Zn17	Zn	-1.089017	0.096469	0.079795
Zn18	Zn	-0.589017	0.596469	0.579795
O19	O	-1.081241	0.197575	-0.060526
O20	O	-0.581241	0.697575	0.439474
C21	C	-0.920378	0.101323	0.000017
C22	C	-0.420378	0.601323	0.500017
C23	C	-0.818007	0.099820	0.000015
C24	C	-0.318007	0.599820	0.500015
C25	C	-0.734870	0.098599	0.000017
C26	C	-0.234870	0.598599	0.500017
C27	C	-0.630571	0.097072	0.000016
C28	C	-0.130571	0.597072	0.500016
C29	C	-0.547440	0.095861	0.000015
C30	C	-0.047440	0.595861	0.500015
C31	C	-0.443134	0.094335	0.000015
C32	C	0.056866	0.594335	0.500015
C33	C	-1.096259	-0.030508	0.000013
C34	C	-0.596259	0.469492	0.500013
C35	C	-1.094756	-0.107617	0.000013
C36	C	-0.594756	0.392383	0.500013
C37	C	-1.083958	-0.663223	-0.065981
C38	C	-0.583958	-0.163223	0.434019
C39	C	-1.085360	-0.590771	-0.065985
C40	C	-0.585360	-0.090771	0.434015
C41	C	-1.086075	-0.554539	0.000026
C42	C	-0.586075	-0.054539	0.500026
C43	C	-1.085365	-0.590764	0.066045
C44	C	-0.585365	-0.090764	0.566045
C45	C	-1.083953	-0.663214	0.066047
C46	C	-0.583953	-0.163214	0.566047
C47	C	-1.142331	-0.445003	0.050598
C48	C	-0.642331	0.054997	0.550598
C49	C	-1.143748	-0.372555	0.050593
C50	C	-0.643748	0.127445	0.550593
C51	C	-1.090423	-0.331077	0.000022
C52	C	-0.590423	0.168923	0.500022
C53	C	-1.035693	-0.362058	-0.050555
C54	C	-0.535693	0.137942	0.449445
C55	C	-1.034282	-0.434508	-0.050553
C56	C	-0.534282	0.065492	0.449447
C57	C	-1.087604	-0.475978	0.000031
C58	C	-0.587604	0.024022	0.500031
C59	C	-1.092647	-0.216298	-0.065997
C60	C	-0.592647	0.283702	0.434003
C61	C	-1.094043	-0.143844	-0.065998
C62	C	-0.594043	0.356156	0.434002
C63	C	-1.094057	-0.143839	0.066033
C64	C	-0.594057	0.356161	0.566033
C65	C	-1.092652	-0.216291	0.066033
C66	C	-0.592652	0.283709	0.566033
C67	C	-1.091951	-0.252517	0.000015
C68	C	-0.591951	0.247483	0.500015
C69	C	-0.257632	0.091620	0.000018
C70	C	0.242368	0.591620	0.500018
C71	C	-0.360003	0.093123	0.000013
C72	C	0.139997	0.593123	0.500013
C73	C	-1.081750	0.223451	0.000025
C74	C	-0.581750	0.723451	0.500025
C75	C	-1.083253	0.300560	0.000030
C76	C	-0.583253	0.800560	0.500030
N77	N	-1.088983	0.096477	-0.188650
N78	N	-0.588983	0.596477	0.311350
C79	C	-1.144790	0.138679	-0.773196
C80	C	-0.644790	0.638679	-0.273196
C81	C	-1.144780	0.138685	-0.696968
C82	C	-0.644780	0.638685	-0.196968
C83	C	-1.089025	0.096462	-0.658861
C84	C	-0.589025	0.596462	-0.158861
C85	C	-1.033258	0.054241	-0.696988
C86	C	-0.533258	0.554241	-0.196988
C87	C	-1.033263	0.054241	-0.773214
C88	C	-0.533263	0.554241	-0.273214
C89	C	-1.086730	0.033829	-0.538098
C90	C	-0.586730	0.533829	-0.038098
C91	C	-1.086732	0.033828	-0.461873
C92	C	-0.586732	0.533828	0.038127
C93	C	-1.089007	0.096463	-0.423754
C94	C	-0.589007	0.596463	0.076246
C95	C	-1.091299	0.159101	-0.461868
C96	C	-0.591299	0.659101	0.038132
C97	C	-1.091303	0.159101	-0.538094
C98	C	-0.591303	0.659101	-0.038094
C99	C	-1.089014	0.096458	-0.576206
C100	C	-0.589014	0.596458	-0.076206
C101	C	-1.144755	0.138692	-0.302981
C102	C	-0.644755	0.638692	0.197019
C103	C	-1.144739	0.138700	-0.226752
C104	C	-0.644739	0.638700	0.273248
C105	C	-1.033223	0.054250	-0.226773
C106	C	-0.533223	0.554250	0.273227
C107	C	-1.033234	0.054248	-0.303000
C108	C	-0.533234	0.554248	0.197000
C109	C	-1.089005	0.096468	-0.341100
C110	C	-0.589005	0.596468	0.158900
N111	N	-1.089034	0.096461	0.188686
N112	N	-0.589034	0.596461	0.688686
H113	H	-1.085917	-0.561276	-0.119740
H114	H	-0.585917	-0.061276	0.380260
O115	O	-1.199856	-0.489734	0.105145
O116	O	-0.699856	0.010266	0.605145
H117	H	-1.153663	-0.518309	0.139296
H118	H	-0.653663	-0.018309	0.639296
H119	H	-1.083386	-0.692714	-0.119737
H120	H	-0.583386	-0.192714	0.380263
H121	H	-0.987821	0.019874	-0.195746
H122	H	-0.487821	0.519874	0.304254
O123	O	-0.975249	-0.467926	-0.105093
O124	O	-0.475249	0.032074	0.394907
H125	H	-0.938398	-0.426918	-0.140258
H126	H	-0.438398	0.073082	0.359742
H127	H	-1.092084	-0.245780	0.119786
H128	H	-0.592084	0.254220	0.619786
H129	H	-1.190182	0.173067	-0.665927
H130	H	-0.690182	0.673067	-0.165927
H131	H	-1.190163	0.173073	-0.334004
H132	H	-0.690163	0.673073	0.165996
O133	O	-1.202769	-0.339145	0.105149
O134	O	-0.702769	0.160855	0.605149
H135	H	-1.276543	-0.360255	0.097690
H136	H	-0.776543	0.139745	0.597690
H137	H	-0.992274	-0.328288	-0.091737
H138	H	-0.492274	0.171712	0.408263
O139	O	-1.204873	0.184241	-0.185633
O140	O	-0.704873	0.684241	0.314367
H141	H	-1.243657	0.213593	-0.224936
H142	H	-0.743657	0.713593	0.275064
O143	O	-0.973133	0.008702	-0.814340
O144	O	-0.473133	0.508702	-0.314340
H145	H	-1.017511	-0.028544	-0.849065
H146	H	-0.517511	0.471456	-0.349065
H147	H	-1.085943	-0.561259	0.119791
H148	H	-0.585943	-0.061259	0.619791
H149	H	-1.083378	-0.692701	0.119803
H150	H	-0.583378	-0.192701	0.619803
O151	O	-1.084256	-0.033729	-0.420772
O152	O	-0.584256	0.466271	0.079228
H153	H	-1.020326	-0.057050	-0.435412
H154	H	-0.520326	0.442950	0.064588
O155	O	-0.973113	0.008707	-0.344130
O156	O	-0.473113	0.508707	0.155870
H157	H	-1.017493	-0.028536	-0.378856
H158	H	-0.517493	0.471464	0.121144
H159	H	-1.093152	0.210105	-0.430832
H160	H	-0.593152	0.710105	0.069168
O161	O	-1.094799	-0.104781	-0.137202
O162	O	-0.594799	0.395219	0.362798
H163	H	-1.095885	-0.048314	-0.126115
H164	H	-0.595885	0.451686	0.373885
O165	O	-0.973122	0.008702	-0.655887
O166	O	-0.473122	0.508702	-0.155887
H167	H	-0.934344	-0.020652	-0.695202
H168	H	-0.434344	0.479348	-0.195202
O169	O	-1.091874	-0.255377	-0.137196
O170	O	-0.591874	0.244623	0.362804
H171	H	-1.092583	-0.218016	-0.183100
H172	H	-0.592583	0.281984	0.316900
H173	H	-1.084869	-0.017179	-0.569129
H174	H	-0.584869	0.482821	-0.069129
H175	H	-1.094628	-0.114339	0.119781
H176	H	-0.594628	0.385661	0.619781
H177	H	-1.190201	0.173059	-0.804212
H178	H	-0.690201	0.673059	-0.304212
O179	O	-1.093770	0.226653	-0.579207
O180	O	-0.593770	0.726653	-0.079207
H181	H	-1.095348	0.270211	-0.539900
H182	H	-0.595348	0.770211	-0.039900
