data_functionalizedCrystal
_audit_creation_method	'MofGen! by Chris Wilmer'
_symmetry_space_group_name_H-M	'P1'
_symmetry_Int_Tables_number	1
_symmetry_cell_setting	triclinic
loop_
_symmetry_equiv_pos_as_xyz
  x,y,z
_cell_length_a	18.101389
_cell_length_b	16.120490
_cell_length_c	16.120484
_cell_angle_alpha	90.164100
_cell_angle_beta	92.879328
_cell_angle_gamma	87.085916
loop_
_atom_site_label
_atom_site_type_symbol
_atom_site_fract_x
_atom_site_fract_y
_atom_site_fract_z
Zn1	Zn	-0.492954	1.254462	-0.395775
Zn2	Zn	-0.159621	1.587796	-0.062442
Zn3	Zn	0.173713	1.921129	0.270891
Zn4	Zn	-0.375048	1.247309	-0.534811
Zn5	Zn	-0.041715	1.580642	-0.201478
Zn6	Zn	0.291619	1.913975	0.131856
Zn7	Zn	-0.362556	1.115405	-0.388709
Zn8	Zn	-0.029222	1.448738	-0.055375
Zn9	Zn	0.304111	1.782072	0.277958
Zn10	Zn	-0.492279	1.108314	-0.527720
Zn11	Zn	-0.158946	1.441648	-0.194387
Zn12	Zn	0.174388	1.774981	0.138946
O13	O	-0.430709	1.181373	-0.461754
O14	O	-0.097376	1.514706	-0.128420
O15	O	0.235958	1.848039	0.204913
O16	O	-0.482824	1.369879	-0.420144
O17	O	-0.149491	1.703212	-0.086810
O18	O	0.183843	2.036546	0.246523
O19	O	-0.269757	1.229785	-0.515440
O20	O	0.063576	1.563118	-0.182107
O21	O	0.396909	1.896452	0.151226
O22	O	-0.374907	1.139813	-0.273282
O23	O	-0.041574	1.473146	0.060051
O24	O	0.291759	1.806479	0.393385
O25	O	-0.396199	1.364623	-0.522293
O26	O	-0.062866	1.697956	-0.188959
O27	O	0.270468	2.031290	0.144374
O28	O	-0.470711	1.241978	-0.278474
O29	O	-0.137377	1.575311	0.054859
O30	O	0.195956	1.908644	0.388193
O31	O	-0.260579	1.132876	-0.408099
O32	O	0.072754	1.466209	-0.074766
O33	O	0.406088	1.799543	0.258567
O34	O	-0.374253	0.998099	-0.401224
O35	O	-0.040920	1.331432	-0.067890
O36	O	0.292413	1.664766	0.265443
O37	O	-0.596002	1.127728	-0.510208
O38	O	-0.262669	1.461061	-0.176874
O39	O	0.070664	1.794394	0.156459
O40	O	-0.469560	0.992889	-0.503355
O41	O	-0.136227	1.326223	-0.170022
O42	O	0.197106	1.659556	0.163312
O43	O	-0.596498	1.235102	-0.413268
O44	O	-0.263165	1.568435	-0.079935
O45	O	0.070169	1.901769	0.253398
O46	O	-0.395545	1.222909	-0.650234
O47	O	-0.062211	1.556243	-0.316901
O48	O	0.271122	1.889576	0.016432
O49	O	-0.481674	1.120791	-0.645025
O50	O	-0.148341	1.454124	-0.311691
O51	O	0.184993	1.787458	0.021642
C52	C	-0.420478	0.965322	-0.450754
C53	C	-0.087145	1.298655	-0.117420
C54	C	0.246188	1.631989	0.215913
C55	C	-0.416120	0.872894	-0.446068
C56	C	-0.082787	1.206227	-0.112735
C57	C	0.250547	1.539560	0.220599
C58	C	-0.453318	0.659923	-0.486054
C59	C	-0.119984	0.993256	-0.152720
C60	C	0.213349	1.326589	0.180613
C61	C	-0.408162	0.703670	-0.437520
C62	C	-0.074829	1.037004	-0.104187
C63	C	0.258504	1.370337	0.229146
C64	C	-0.412591	0.797835	-0.442278
C65	C	-0.079258	1.131168	-0.108944
C66	C	0.254075	1.464501	0.224389
C67	C	-0.448889	0.565750	-0.481297
C68	C	-0.115556	0.899083	-0.147964
C69	C	0.217777	1.232416	0.185369
C70	C	-0.623873	1.181422	-0.461735
C71	C	-0.290539	1.514755	-0.128402
C72	C	0.042794	1.848088	0.204931
C73	C	-0.706187	1.181443	-0.461727
C74	C	-0.372854	1.514776	-0.128394
C75	C	-0.039521	1.848109	0.204939
C76	C	-1.005274	1.181499	-0.461574
C77	C	-0.671941	1.514832	-0.128241
C78	C	-0.338607	1.848166	0.205093
C79	C	-0.973618	1.113731	-0.522350
C80	C	-0.640284	1.447064	-0.189017
C81	C	-0.306951	1.780398	0.144317
C82	C	-0.888020	1.113890	-0.522656
C83	C	-0.554687	1.447224	-0.189323
C84	C	-0.221354	1.780557	0.144011
C85	C	-0.856894	1.181470	-0.461650
C86	C	-0.523560	1.514804	-0.128317
C87	C	-0.190227	1.848137	0.205017
C88	C	-0.893148	1.267879	-0.489891
C89	C	-0.559815	1.601212	-0.156558
C90	C	-0.226482	1.934545	0.176775
C91	C	-0.978794	1.267498	-0.490294
C92	C	-0.645461	1.600831	-0.156960
C93	C	-0.312128	1.934165	0.176373
C94	C	-0.968886	1.163628	-0.372453
C95	C	-0.635552	1.496961	-0.039119
C96	C	-0.302219	1.830294	0.294214
C97	C	-0.883164	1.161653	-0.372862
C98	C	-0.549831	1.494986	-0.039529
C99	C	-0.216498	1.828319	0.293805
C100	C	-0.773035	1.181460	-0.461692
C101	C	-0.439702	1.514793	-0.128359
C102	C	-0.106369	1.848126	0.204975
C103	C	-1.089133	1.181516	-0.461534
C104	C	-0.755799	1.514849	-0.128201
C105	C	-0.422466	1.848182	0.205132
C106	C	-0.238297	1.181375	-0.461715
C107	C	0.095036	1.514708	-0.128381
C108	C	0.428370	1.848041	0.204952
C109	C	-0.155980	1.181527	-0.461497
C110	C	0.177353	1.514860	-0.128163
C111	C	0.510686	1.848193	0.205170
C112	C	-0.440980	1.398267	-0.472797
C113	C	-0.107647	1.731600	-0.139464
C114	C	0.225686	2.064934	0.193869
C115	C	-0.445357	1.490694	-0.477504
C116	C	-0.112024	1.824028	-0.144170
C117	C	0.221309	2.157361	0.189163
C118	C	-0.439909	1.170327	-0.677802
C119	C	-0.106576	1.503660	-0.344469
C120	C	0.226758	1.836994	-0.011136
C121	C	-0.443873	1.165678	-0.770233
C122	C	-0.110540	1.499011	-0.436900
C123	C	0.222794	1.832344	-0.103566
C124	C	-0.451126	1.157194	-0.939465
C125	C	-0.117792	1.490527	-0.606131
C126	C	0.215541	1.823861	-0.272798
C127	C	-0.410312	1.205700	-0.983210
C128	C	-0.076978	1.539034	-0.649877
C129	C	0.256355	1.872367	-0.316543
C130	C	-0.414347	1.200980	-1.077376
C131	C	-0.081014	1.534313	-0.744043
C132	C	0.252319	1.867647	-0.410710
C133	C	-0.447091	1.161913	-0.845290
C134	C	-0.113758	1.495247	-0.511956
C135	C	0.219576	1.828580	-0.178623
C136	C	-0.421491	1.192484	-0.244863
C137	C	-0.088157	1.525817	0.088471
C138	C	0.245176	1.859151	0.421804
C139	C	-0.417562	1.197219	-0.152437
C140	C	-0.084229	1.530552	0.180897
C141	C	0.249104	1.863886	0.514230
H142	H	-0.366177	0.670404	-0.392397
H143	H	-0.032844	1.003737	-0.059064
H144	H	0.300490	1.337071	0.274270
H145	H	-1.002419	1.283168	-0.555575
H146	H	-0.669086	1.616501	-0.222241
H147	H	-0.335752	1.949835	0.111092
H148	H	-0.489095	1.112125	-0.972733
H149	H	-0.155761	1.445458	-0.639399
H150	H	0.177572	1.778791	-0.306066
H151	H	-0.495299	0.693187	-0.531174
H152	H	-0.161965	1.026520	-0.197841
H153	H	0.171368	1.359854	0.135493
H154	H	-0.999972	1.319463	-0.448190
H155	H	-0.666639	1.652796	-0.114857
H156	H	-0.333306	1.986130	0.218477
H157	H	-0.863287	1.049676	-0.504468
H158	H	-0.529954	1.383009	-0.171134
H159	H	-0.196620	1.716342	0.162199
H160	H	-0.990500	1.049313	-0.504304
H161	H	-0.657167	1.382647	-0.170971
H162	H	-0.323833	1.715980	0.162363
H163	H	-0.998601	1.125043	-0.587912
H164	H	-0.665268	1.458376	-0.254579
H165	H	-0.331935	1.791709	0.078755
H166	H	-0.871020	1.125328	-0.588623
H167	H	-0.537687	1.458662	-0.255290
H168	H	-0.204353	1.791995	0.078043
C169	C	-0.359006	1.266585	-0.938265
C170	C	-0.025673	1.599919	-0.604932
C171	C	0.307660	1.933252	-0.271598
N172	N	-0.320361	1.312439	-0.904409
N173	N	0.012972	1.645772	-0.571075
N174	N	0.346305	1.979106	-0.237742
H175	H	-0.873200	1.319534	-0.447211
H176	H	-0.539867	1.652867	-0.113878
H177	H	-0.206534	1.986200	0.219455
C178	C	-0.869087	1.289536	-0.577185
C179	C	-0.535754	1.622869	-0.243852
C180	C	-0.202421	1.956203	0.089481
N181	N	-0.850966	1.305843	-0.642938
N182	N	-0.517633	1.639177	-0.309604
N183	N	-0.184300	1.972510	0.023729
C184	C	-0.992787	1.080296	-0.338867
C185	C	-0.659454	1.413629	-0.005534
C186	C	-0.326121	1.746962	0.327799
N187	N	-1.010790	1.017525	-0.313581
N188	N	-0.677456	1.350859	0.019753
N189	N	-0.344123	1.684192	0.353086
H190	H	-0.859025	1.098086	-0.351646
H191	H	-0.525691	1.431419	-0.018312
H192	H	-0.192358	1.764752	0.315021
H193	H	-0.861688	1.207765	-0.324818
H194	H	-0.528354	1.541098	0.008516
H195	H	-0.195021	1.874431	0.341849
H196	H	-0.989339	1.213041	-0.327117
H197	H	-0.656006	1.546374	0.006217
H198	H	-0.322672	1.879708	0.339550
