data_functionalizedCrystal
_audit_creation_method	'MofGen! by Chris Wilmer'
_symmetry_space_group_name_H-M	'P1'
_symmetry_Int_Tables_number	1
_symmetry_cell_setting	triclinic
loop_
_symmetry_equiv_pos_as_xyz
  x,y,z
_cell_length_a	23.532407
_cell_length_b	23.532409
_cell_length_c	22.010155
_cell_angle_alpha	90.007292
_cell_angle_beta	89.996931
_cell_angle_gamma	82.849119
loop_
_atom_site_label
_atom_site_type_symbol
_atom_site_fract_x
_atom_site_fract_y
_atom_site_fract_z
O1	O	0.755264	0.069127	-0.050445
O2	O	1.088598	0.402460	0.282888
O3	O	1.421931	0.735793	0.616221
O4	O	0.589401	0.079130	-0.050463
O5	O	0.922734	0.412463	0.282871
O6	O	1.256068	0.745797	0.616204
O7	O	0.677334	-0.008803	-0.050454
O8	O	1.010667	0.324530	0.282879
O9	O	1.344000	0.657863	0.616212
O10	O	0.667332	0.157060	-0.050454
O11	O	1.000665	0.490393	0.282879
O12	O	1.333998	0.823727	0.616213
O13	O	0.677318	-0.008790	0.050596
O14	O	1.010651	0.324543	0.383929
O15	O	1.343984	0.657877	0.717263
O16	O	0.589385	0.079143	0.050588
O17	O	0.922718	0.412477	0.383921
O18	O	1.256052	0.745810	0.717254
O19	O	0.755248	0.069140	0.050605
O20	O	1.088582	0.402473	0.383938
O21	O	1.421915	0.735807	0.717272
Cu22	Cu	0.672315	0.074143	0.059823
Cu23	Cu	1.005649	0.407476	0.393156
Cu24	Cu	1.338982	0.740809	0.726490
Cu25	Cu	0.672334	0.074127	-0.059681
Cu26	Cu	1.005667	0.407461	0.273653
Cu27	Cu	1.339001	0.740794	0.606986
O28	O	0.667316	0.157073	0.050596
O29	O	1.000649	0.490407	0.383930
O30	O	1.333982	0.823740	0.717263
C31	C	0.568177	0.078882	0.000060
C32	C	0.901510	0.412215	0.333393
C33	C	1.234844	0.745549	0.666727
C34	C	0.504960	0.078116	0.000053
C35	C	0.838293	0.411449	0.333387
C36	C	1.171627	0.744783	0.666720
C37	C	0.105857	0.125349	0.000081
C38	C	0.439190	0.458683	0.333414
C39	C	0.772524	0.792016	0.666748
C40	C	0.046457	0.124638	0.000085
C41	C	0.379790	0.457971	0.333418
C42	C	0.713124	0.791305	0.666751
O43	O	0.009713	0.168424	0.000107
O44	O	0.343046	0.501757	0.333440
O45	O	0.676379	0.835090	0.666774
N46	N	0.023830	0.072362	0.000084
N47	N	0.357164	0.405695	0.333417
N48	N	0.690497	0.739028	0.666750
C49	C	0.060608	0.020794	0.000085
C50	C	0.393941	0.354127	0.333418
C51	C	0.727274	0.687460	0.666752
O52	O	0.035908	-0.023737	0.000085
O53	O	0.369241	0.309596	0.333418
O54	O	0.702574	0.642930	0.666752
C55	C	0.120007	0.021506	0.000086
C56	C	0.453340	0.354839	0.333419
C57	C	0.786673	0.688172	0.666752
C58	C	0.142630	0.073785	0.000081
C59	C	0.475963	0.407119	0.333414
C60	C	0.809296	0.740452	0.666747
C61	C	0.128481	0.177625	0.000077
C62	C	0.461814	0.510958	0.333410
C63	C	0.795147	0.844291	0.666743
C64	C	0.187877	0.178336	0.000072
C65	C	0.521210	0.511669	0.333405
C66	C	0.854544	0.845003	0.666739
C67	C	0.224649	0.126772	0.000071
C68	C	0.557983	0.460105	0.333405
C69	C	0.891316	0.793438	0.666738
C70	C	0.202026	0.074496	0.000076
C71	C	0.535359	0.407830	0.333409
C72	C	0.868692	0.741163	0.666742
C73	C	0.156783	-0.030062	0.000091
C74	C	0.490116	0.303271	0.333425
C75	C	0.823449	0.636605	0.666758
C76	C	0.216185	-0.029345	0.000092
C77	C	0.549519	0.303988	0.333426
C78	C	0.882852	0.637321	0.666759
C79	C	0.238808	0.022934	0.000087
C80	C	0.572142	0.356268	0.333421
C81	C	0.905475	0.689601	0.666754
C82	C	0.298195	0.023643	0.000070
C83	C	0.631528	0.356977	0.333404
C84	C	0.964861	0.690310	0.666737
N85	N	0.320821	0.075920	0.000071
N86	N	0.654154	0.409253	0.333405
N87	N	0.987488	0.742586	0.666738
C88	C	0.284049	0.127484	0.000072
C89	C	0.617382	0.460817	0.333405
C90	C	0.950715	0.794151	0.666739
C91	C	-0.064135	0.019302	0.000085
C92	C	0.269198	0.352635	0.333418
C93	C	0.602532	0.685969	0.666751
C94	C	-0.123533	0.018589	0.000080
C95	C	0.209800	0.351923	0.333413
C96	C	0.543134	0.685256	0.666746
C97	C	-0.137679	0.122434	0.000081
C98	C	0.195654	0.455767	0.333414
C99	C	0.528987	0.789101	0.666747
C100	C	-0.078280	0.123146	0.000081
C101	C	0.255053	0.456480	0.333415
C102	C	0.588386	0.789813	0.666748
C103	C	-0.041508	0.071578	0.000086
C104	C	0.291825	0.404912	0.333419
C105	C	0.625158	0.738245	0.666752
C106	C	0.408785	0.128974	0.000061
C107	C	0.742119	0.462307	0.333395
C108	C	1.075452	0.795640	0.666728
C109	C	0.468187	0.129680	0.000054
C110	C	0.801521	0.463014	0.333387
C111	C	1.134854	0.796347	0.666721
C112	C	0.482329	0.025836	0.000056
C113	C	0.815662	0.359169	0.333389
C114	C	1.148995	0.692503	0.666723
C115	C	0.422932	0.025129	0.000060
C116	C	0.756265	0.358462	0.333394
C117	C	1.089599	0.691796	0.666727
C118	C	0.386161	0.076702	0.000065
C119	C	0.719494	0.410036	0.333398
C120	C	1.052828	0.743369	0.666732
O121	O	0.334973	-0.020119	0.000051
O122	O	0.668307	0.313214	0.333384
O123	O	1.001640	0.646547	0.666717
O124	O	0.308757	0.172007	0.000080
O125	O	0.642090	0.505340	0.333413
O126	O	0.975423	0.838674	0.666747
C127	C	0.677071	-0.030013	0.000069
C128	C	1.010404	0.303321	0.333403
C129	C	1.343737	0.636654	0.666736
C130	C	0.676304	-0.093230	0.000065
C131	C	1.009638	0.240104	0.333398
C132	C	1.342971	0.573437	0.666731
C133	C	0.673054	-0.366482	-0.055021
C134	C	1.006387	-0.033148	0.278313
C135	C	1.339721	0.300185	0.611646
C136	C	0.673766	-0.307082	-0.055021
C137	C	1.007099	0.026252	0.278313
C138	C	1.340432	0.359585	0.611646
O139	O	0.674161	-0.276363	-0.101865
O140	O	1.007494	0.056970	0.231469
O141	O	1.340828	0.390304	0.564802
N142	N	0.674109	-0.277372	0.000063
N143	N	1.007443	0.055961	0.333396
N144	N	1.340776	0.389294	0.666729
C145	C	0.673747	-0.307067	0.055150
C146	C	1.007080	0.026266	0.388483
C147	C	1.340414	0.359600	0.721816
O148	O	0.674105	-0.276343	0.102003
O149	O	1.007438	0.056991	0.435336
O150	O	1.340772	0.390324	0.768669
C151	C	0.673039	-0.366467	0.055149
C152	C	1.006373	-0.033133	0.388483
C153	C	1.339706	0.300200	0.721816
C154	C	0.672690	-0.396172	0.000062
C155	C	1.006023	-0.062839	0.333395
C156	C	1.339357	0.270494	0.666729
C157	C	0.672705	-0.396187	-0.110103
C158	C	1.006039	-0.062854	0.223230
C159	C	1.339372	0.270479	0.556563
C160	C	0.671993	-0.455583	-0.110103
C161	C	1.005326	-0.122250	0.223230
C162	C	1.338659	0.211083	0.556564
C163	C	0.671629	-0.485274	-0.055020
C164	C	1.004962	-0.151940	0.278313
C165	C	1.338295	0.181393	0.611646
C166	C	0.671977	-0.455568	0.000062
C167	C	1.005311	-0.122235	0.333396
C168	C	1.338644	0.211099	0.666729
C169	C	0.672681	-0.396161	0.110236
C170	C	1.006014	-0.062828	0.443569
C171	C	1.339348	0.270506	0.776902
C172	C	0.671974	-0.455565	0.110230
C173	C	1.005307	-0.122231	0.443564
C174	C	1.338641	0.211102	0.776897
C175	C	0.671625	-0.485270	0.055143
C176	C	1.004958	-0.151937	0.388477
C177	C	1.338291	0.181396	0.721810
C178	C	0.670901	-0.544654	0.055146
C179	C	1.004234	-0.211321	0.388479
C180	C	1.337567	0.122012	0.721812
N181	N	0.670557	-0.574364	0.000062
N182	N	1.003891	-0.241030	0.333395
N183	N	1.337224	0.092303	0.666729
C184	C	0.670921	-0.544673	-0.055021
C185	C	1.004255	-0.211340	0.278313
C186	C	1.337588	0.121993	0.611646
C187	C	0.675234	-0.182324	0.055147
C188	C	1.008567	0.151009	0.388480
C189	C	1.341900	0.484343	0.721814
C190	C	0.675937	-0.122925	0.055148
C191	C	1.009271	0.210409	0.388481
C192	C	1.342604	0.543742	0.721815
C193	C	0.675957	-0.122944	-0.055023
C194	C	1.009290	0.210390	0.278311
C195	C	1.342624	0.543723	0.611644
C196	C	0.675250	-0.182343	-0.055023
C197	C	1.008583	0.150990	0.278310
C198	C	1.341916	0.484323	0.611643
C199	C	0.674890	-0.212033	0.000063
C200	C	1.008224	0.121300	0.333397
C201	C	1.341557	0.454633	0.666730
C202	C	0.669424	-0.669409	-0.055016
C203	C	1.002757	-0.336076	0.278317
C204	C	1.336091	-0.002743	0.611651
C205	C	0.668709	-0.728810	-0.055011
C206	C	1.002042	-0.395477	0.278322
C207	C	1.335376	-0.062143	0.611656
C208	C	0.668692	-0.728786	0.055160
C209	C	1.002025	-0.395453	0.388493
C210	C	1.335359	-0.062120	0.721826
C211	C	0.669404	-0.669390	0.055155
C212	C	1.002738	-0.336057	0.388488
C213	C	1.336071	-0.002724	0.721821
C214	C	0.669772	-0.639703	0.000062
C215	C	1.003105	-0.306370	0.333395
C216	C	1.336439	0.026963	0.666729
O217	O	0.670507	-0.575411	0.101965
O218	O	1.003841	-0.242078	0.435299
O219	O	1.337174	0.091256	0.768632
O220	O	0.670571	-0.575406	-0.101866
O221	O	1.003904	-0.242073	0.231468
O222	O	1.337237	0.091261	0.564801
C223	C	0.776472	0.069388	0.000081
C224	C	1.109806	0.402721	0.333414
C225	C	1.443139	0.736055	0.666747
C226	C	0.839689	0.070154	0.000083
C227	C	1.173023	0.403487	0.333417
C228	C	1.506356	0.736821	0.666750
C229	C	0.667579	0.178283	0.000071
C230	C	1.000912	0.511616	0.333405
C231	C	1.334245	0.844949	0.666738
C232	C	0.668345	0.241500	0.000072
C233	C	1.001678	0.574833	0.333405
C234	C	1.335012	0.908166	0.666739
N235	N	0.672306	0.074153	0.143875
N236	N	1.005639	0.407487	0.477209
N237	N	1.338973	0.740820	0.810542
N238	N	0.672348	0.074112	-0.143733
N239	N	1.005681	0.407445	0.189600
N240	N	1.339014	0.740779	0.522933
C241	C	0.711273	0.035196	0.563659
C242	C	1.044606	0.368529	0.896992
C243	C	1.377940	0.701863	1.230325
C244	C	0.711276	0.035192	0.627266
C245	C	1.044609	0.368525	0.960599
C246	C	1.377942	0.701859	1.293933
O247	O	0.744384	0.002076	0.660161
O248	O	1.077717	0.335410	0.993494
O249	O	1.411050	0.668743	1.326827
N250	N	0.672334	0.074115	0.659083
N251	N	1.005667	0.407449	0.992416
N252	N	1.339000	0.740782	1.325749
C253	C	0.633383	0.113041	0.627288
C254	C	0.966716	0.446375	0.960621
C255	C	1.300050	0.779708	1.293955
O256	O	0.600260	0.146148	0.660191
O257	O	0.933593	0.479481	0.993524
O258	O	1.266927	0.812815	1.326858
C259	C	0.633378	0.113042	0.563682
C260	C	0.966711	0.446375	0.897015
C261	C	1.300045	0.779709	1.230348
C262	C	0.672326	0.074120	0.531868
C263	C	1.005660	0.407453	0.865202
C264	C	1.338993	0.740787	1.198535
C265	C	0.750217	-0.003723	0.531845
C266	C	1.083551	0.329610	0.865179
C267	C	1.416884	0.662943	1.198512
C268	C	0.750215	-0.003719	0.468242
C269	C	1.083549	0.329615	0.801575
C270	C	1.416882	0.662948	1.134909
C271	C	0.711269	0.035205	0.436452
C272	C	1.044602	0.368539	0.769785
C273	C	1.377935	0.701872	1.103119
C274	C	0.672324	0.074125	0.468265
C275	C	1.005657	0.407458	0.801599
C276	C	1.338991	0.740791	1.134932
C277	C	0.594425	0.151965	0.531888
C278	C	0.927758	0.485298	0.865222
C279	C	1.261092	0.818631	1.198555
C280	C	0.594423	0.151962	0.468277
C281	C	0.927757	0.485295	0.801611
C282	C	1.261090	0.818629	1.134944
C283	C	0.633371	0.113040	0.436464
C284	C	0.966705	0.446373	0.769798
C285	C	1.300038	0.779707	1.103131
C286	C	0.633375	0.113054	0.372872
C287	C	0.966709	0.446387	0.706205
C288	C	1.300042	0.779720	1.039539
N289	N	0.672317	0.074130	0.341056
N290	N	1.005650	0.407464	0.674389
N291	N	1.338984	0.740797	1.007722
C292	C	0.711264	0.035206	0.372846
C293	C	1.044597	0.368540	0.706179
C294	C	1.377930	0.701873	1.039512
C295	C	0.633396	0.113036	0.760866
C296	C	0.966729	0.446369	1.094199
C297	C	1.300062	0.779703	1.427532
C298	C	0.633403	0.113038	0.824471
C299	C	0.966736	0.446372	1.157804
C300	C	1.300069	0.779705	1.491138
C301	C	0.711295	0.035188	0.824445
C302	C	1.044628	0.368522	1.157778
C303	C	1.377961	0.701855	1.491111
C304	C	0.711290	0.035189	0.760838
C305	C	1.044623	0.368522	1.094172
C306	C	1.377957	0.701856	1.427505
C307	C	0.672337	0.074113	0.729049
C308	C	1.005671	0.407446	1.062383
C309	C	1.339004	0.740779	1.395716
C310	C	0.711257	0.035219	0.239274
C311	C	1.044590	0.368553	0.572608
C312	C	1.377923	0.701886	0.905941
C313	C	0.711253	0.035229	0.175665
C314	C	1.044586	0.368563	0.508999
C315	C	1.377919	0.701896	0.842332
C316	C	0.633359	0.113077	0.175697
C317	C	0.966692	0.446411	0.509031
C318	C	1.300026	0.779744	0.842364
C319	C	0.633365	0.113070	0.239301
C320	C	0.966698	0.446403	0.572634
C321	C	1.300031	0.779736	0.905967
C322	C	0.672316	0.074136	0.271088
C323	C	1.005649	0.407469	0.604421
C324	C	1.338982	0.740803	0.937754
O325	O	0.600283	0.146151	0.339937
O326	O	0.933616	0.479484	0.673270
O327	O	1.266949	0.812817	1.006604
O328	O	0.744376	0.002100	0.339935
O329	O	1.077710	0.335433	0.673268
O330	O	1.411043	0.668767	1.006602
H331	H	0.378853	0.170970	0.000067
H332	H	0.712186	0.504303	0.333400
H333	H	1.045519	0.837636	0.666734
H334	H	-0.059865	0.165717	0.000081
H335	H	0.273468	0.499050	0.333414
H336	H	0.606801	0.832384	0.666747
H337	H	0.668422	-0.752993	-0.099871
H338	H	1.001756	-0.419660	0.233462
H339	H	1.335089	-0.086327	0.566795
H340	H	0.669666	-0.645200	0.100011
H341	H	1.002999	-0.311866	0.433345
H342	H	1.336333	0.021467	0.766678
H343	H	0.743004	0.003495	0.734940
H344	H	1.076338	0.336828	1.068273
H345	H	1.409671	0.670162	1.401607
Br346	Br	0.673201	-0.355905	-0.184869
Br347	Br	1.006534	-0.022571	0.148464
Br348	Br	1.339867	0.310762	0.481798
H349	H	0.674964	-0.206525	-0.099880
H350	H	1.008297	0.126808	0.233453
H351	H	1.341631	0.460141	0.566786
H352	H	0.676252	-0.098759	-0.099874
H353	H	1.009585	0.234575	0.233459
H354	H	1.342918	0.567908	0.566792
Br355	Br	0.803080	-0.056557	0.574978
Br356	Br	1.136413	0.276777	0.908311
Br357	Br	1.469746	0.610110	1.241645
Br358	Br	0.580506	0.165903	0.132544
Br359	Br	0.913839	0.499236	0.465877
Br360	Br	1.247173	0.832569	0.799210
H361	H	0.486603	0.172254	0.000049
H362	H	0.819937	0.505588	0.333383
H363	H	1.153270	0.838921	0.666716
H364	H	0.674936	-0.206493	0.100008
H365	H	1.008270	0.126840	0.433341
H366	H	1.341603	0.460174	0.766675
H367	H	0.676211	-0.098742	0.100006
H368	H	1.009544	0.234591	0.433339
H369	H	1.342878	0.567925	0.766672
Br370	Br	0.764151	-0.017637	0.867602
Br371	Br	1.097484	0.315696	1.200935
Br372	Br	1.430818	0.649029	1.534269
Br373	Br	0.580513	0.165901	0.282474
Br374	Br	0.913846	0.499235	0.615807
Br375	Br	1.247179	0.832568	0.949141
Br376	Br	0.673146	-0.355860	0.185002
Br377	Br	1.006479	-0.022527	0.518335
Br378	Br	1.339813	0.310806	0.851668
H379	H	-0.167631	0.164421	0.000084
H380	H	0.165702	0.497754	0.333417
H381	H	0.499036	0.831087	0.666751
Br382	Br	0.671490	-0.495855	0.184995
Br383	Br	1.004824	-0.162522	0.518329
Br384	Br	1.338157	0.170811	0.851662
H385	H	0.671712	-0.479765	-0.154961
H386	H	1.005046	-0.146432	0.178373
H387	H	1.338379	0.186902	0.511706
H388	H	-0.141947	-0.023982	0.000074
H389	H	0.191386	0.309352	0.333408
H390	H	0.524720	0.642685	0.666741
Br391	Br	0.580552	0.165872	0.867639
Br392	Br	0.913885	0.499206	1.200972
Br393	Br	1.247219	0.832539	1.534306
Br394	Br	-0.014235	-0.050690	0.000085
Br395	Br	0.319098	0.282644	0.333419
Br396	Br	0.652431	0.615977	0.666752
Br397	Br	0.580530	0.165870	0.717730
Br398	Br	0.913863	0.499203	1.051063
Br399	Br	1.247197	0.832536	1.384396
H400	H	0.206291	0.220907	0.000068
H401	H	0.539624	0.554241	0.333401
H402	H	0.872957	0.887574	0.666734
H403	H	0.781929	-0.035414	0.442344
H404	H	1.115262	0.297920	0.775677
H405	H	1.448595	0.631253	1.109010
Br406	Br	0.126096	-0.101017	0.000085
Br407	Br	0.459429	0.232316	0.333418
Br408	Br	0.792762	0.565649	0.666751
Br409	Br	0.541553	0.204788	0.425140
Br410	Br	0.874887	0.538121	0.758473
Br411	Br	1.208220	0.871455	1.091806
Br412	Br	0.078585	0.247615	0.000077
Br413	Br	0.411918	0.580948	0.333411
Br414	Br	0.745252	0.914281	0.666744
H415	H	0.668393	-0.752971	0.100007
H416	H	1.001727	-0.419637	0.433340
H417	H	1.335060	-0.086304	0.766673
H418	H	0.742971	0.003534	0.149765
H419	H	1.076304	0.336868	0.483098
H420	H	1.409638	0.670201	0.816432
H421	H	0.246123	-0.071339	0.000096
H422	H	0.579456	0.261994	0.333430
H423	H	0.912790	0.595327	0.666763
H424	H	0.669724	-0.645245	-0.099878
H425	H	1.003057	-0.311912	0.233456
H426	H	1.336391	0.021422	0.566789
H427	H	0.404512	-0.017441	0.000055
H428	H	0.737845	0.315892	0.333389
H429	H	1.071178	0.649225	0.666722
H430	H	0.512279	-0.016146	0.000053
H431	H	0.845613	0.317187	0.333387
H432	H	1.178946	0.650520	0.666720
Br433	Br	0.764119	-0.017620	0.282403
Br434	Br	1.097453	0.315714	0.615737
Br435	Br	1.430786	0.649047	0.949070
H436	H	0.562710	0.183658	0.557782
H437	H	0.896043	0.516992	0.891115
H438	H	1.229376	0.850325	1.224448
