data_functionalizedCrystal
_audit_creation_method	'MofGen! by Chris Wilmer'
_symmetry_space_group_name_H-M	'P1'
_symmetry_Int_Tables_number	1
_symmetry_cell_setting	triclinic
loop_
_symmetry_equiv_pos_as_xyz
  x,y,z
_cell_length_a	21.295417
_cell_length_b	21.295419
_cell_length_c	18.101389
_cell_angle_alpha	90.019749
_cell_angle_beta	89.977434
_cell_angle_gamma	89.952934
loop_
_atom_site_label
_atom_site_type_symbol
_atom_site_fract_x
_atom_site_fract_y
_atom_site_fract_z
Zn1	Zn	-0.250397	-0.962321	-0.418727
Zn2	Zn	-0.355651	-0.962234	-0.294877
Zn3	Zn	-0.250430	-0.857055	-0.294898
Zn4	Zn	-0.355663	-0.857014	-0.418675
O5	O	-0.303035	-0.909656	-0.356794
O6	O	-0.264340	-1.050399	-0.402311
O7	O	-0.341701	-0.948262	-0.191246
O8	O	-0.162336	-0.871072	-0.311355
O9	O	-0.341670	-1.050335	-0.311318
O10	O	-0.162312	-0.948411	-0.402332
O11	O	-0.264396	-0.870987	-0.191262
O12	O	-0.264408	-0.768960	-0.311305
O13	O	-0.341691	-0.871003	-0.522315
O14	O	-0.341722	-0.768930	-0.402243
O15	O	-0.264352	-0.948371	-0.522353
O16	O	-0.443742	-0.948222	-0.311268
O17	O	-0.443751	-0.870918	-0.402222
C18	C	-0.303070	-0.746104	-0.356771
C19	C	-0.303101	-0.676136	-0.356779
C20	C	-0.262902	-0.643325	-0.404231
C21	C	-0.262887	-0.577583	-0.404233
C22	C	-0.303082	-0.544654	-0.356790
C23	C	-0.343283	-0.577472	-0.309328
C24	C	-0.343293	-0.643213	-0.309323
N25	N	-0.358162	-0.441379	-0.351001
N26	N	-0.358152	-0.378927	-0.351010
C27	C	-0.303055	-0.346579	-0.356803
N28	N	-0.247969	-0.379041	-0.362601
N29	N	-0.247980	-0.441498	-0.362595
C30	C	-0.303076	-0.473368	-0.356791
C31	C	-0.262837	-0.242483	-0.404260
C32	C	-0.262821	-0.176739	-0.404257
C33	C	-0.343223	-0.176630	-0.309356
C34	C	-0.343234	-0.242372	-0.309356
C35	C	-0.303042	-0.275295	-0.356812
C36	C	-0.466587	-0.909573	-0.356753
C37	C	-0.536555	-0.909596	-0.356760
C38	C	-0.569396	-0.949884	-0.309449
C39	C	-0.635138	-0.949913	-0.309466
C40	C	-0.668037	-0.909643	-0.356786
C41	C	-0.635188	-0.869352	-0.404106
C42	C	-0.569447	-0.869328	-0.404094
N43	N	-0.771320	-0.854576	-0.362424
N44	N	-0.833771	-0.854600	-0.362432
C45	C	-0.866112	-0.909714	-0.356828
N46	N	-0.833642	-0.964803	-0.351203
N47	N	-0.771185	-0.964778	-0.351191
C48	C	-0.739323	-0.909665	-0.356805
C49	C	-0.970239	-0.950038	-0.309533
C50	C	-1.035982	-0.950068	-0.309554
C51	C	-1.036031	-0.869501	-0.404191
C52	C	-0.970288	-0.869476	-0.404173
C53	C	-0.937396	-0.909744	-0.356840
C54	C	-0.138845	-0.909756	-0.356852
C55	C	-0.068877	-0.909798	-0.356876
C56	C	-0.303019	-0.909692	-0.549956
C57	C	-0.303012	-0.909708	-0.632270
C58	C	-0.303008	-0.073846	-0.356814
C59	C	-0.303016	-0.143814	-0.356813
C60	C	-0.302894	-0.909744	-0.931361
C61	C	-0.351399	-0.860898	-0.900012
C62	C	-0.351624	-0.861030	-0.814394
C63	C	-0.302953	-0.909726	-0.782979
C64	C	-0.320940	-0.976048	-0.814077
C65	C	-0.321259	-0.975776	-0.899722
C66	C	-0.236294	-0.892844	-0.899793
C67	C	-0.236679	-0.891368	-0.814142
C68	C	-0.302985	-0.909719	-0.699119
C69	C	-0.302864	-0.909755	-1.015221
C70	C	-0.303005	-0.909656	-0.164384
C71	C	-0.302835	-0.909762	-0.082070
H72	H	-0.375970	-0.269087	-0.270718
C73	C	-0.336463	-0.795171	-0.927566
C74	C	-0.283409	-0.797355	-0.973208
C75	C	-0.269635	-0.736819	-0.998616
H76	H	-0.328390	-0.768438	-0.886645
H77	H	-0.371183	-0.779361	-0.954777
H78	H	-0.248697	-0.813156	-0.945998
H79	H	-0.291468	-0.824076	-1.014139
H80	H	-0.304355	-0.721009	-1.025827
H81	H	-0.261565	-0.710091	-0.957691
H82	H	-0.233641	-0.738294	-1.029592
H83	H	-0.943547	-0.836667	-0.442696
C84	C	-0.670846	-0.993717	-0.258206
C85	C	-0.708521	-1.034070	-0.300171
C86	C	-0.741419	-1.074428	-0.252972
H87	H	-0.696580	-0.969715	-0.225916
H88	H	-0.641867	-1.017732	-0.230019
H89	H	-0.737496	-1.010057	-0.328345
H90	H	-0.682803	-1.058086	-0.332459
H91	H	-0.712440	-1.098443	-0.224785
H92	H	-0.767149	-1.050420	-0.220684
H93	H	-0.766980	-1.101816	-0.281438
H94	H	-0.230083	-0.150025	-0.442897
H95	H	-0.400464	-0.871945	-0.921533
H96	H	-0.375951	-0.149819	-0.270727
C97	C	-0.336738	-0.795412	-0.786397
C98	C	-0.382148	-0.753286	-0.812380
C99	C	-0.368462	-0.692832	-0.786603
H100	H	-0.296517	-0.783024	-0.803765
H101	H	-0.336884	-0.795366	-0.733912
H102	H	-0.381997	-0.753330	-0.864855
H103	H	-0.422374	-0.765654	-0.795015
H104	H	-0.368608	-0.692786	-0.734118
H105	H	-0.328240	-0.680449	-0.803972
H106	H	-0.399274	-0.664243	-0.804223
H107	H	-0.287463	-1.013404	-0.920461
H108	H	-1.062816	-0.836715	-0.442724
C109	C	-1.071527	-0.993944	-0.258230
C110	C	-1.055398	-1.056196	-0.274437
C111	C	-1.088109	-1.096645	-0.227166
H112	H	-1.115407	-0.988311	-0.264947
H113	H	-1.060765	-0.984795	-0.208449
H114	H	-1.066164	-1.065343	-0.324207
H115	H	-1.011524	-1.061850	-0.267716
H116	H	-1.077347	-1.087495	-0.177385
H117	H	-1.131988	-1.091005	-0.233887
H118	H	-1.077166	-1.138887	-0.238152
H119	H	-0.400990	-0.872188	-0.793906
C120	C	-0.219189	-0.678955	-0.455773
C121	C	-0.183969	-0.636144	-0.497315
C122	C	-0.143686	-0.668945	-0.544793
H123	H	-0.243239	-0.704595	-0.488052
H124	H	-0.191696	-0.704601	-0.427514
H125	H	-0.211459	-0.610510	-0.525571
H126	H	-0.159906	-0.610504	-0.465055
H127	H	-0.116193	-0.694591	-0.516534
H128	H	-0.167741	-0.694583	-0.577067
H129	H	-0.119780	-0.639903	-0.572980
H130	H	-0.369944	-0.990103	-0.919700
H131	H	-0.542707	-0.836520	-0.442621
H132	H	-0.286721	-1.013420	-0.793730
C133	C	-0.219131	-0.278119	-0.455807
C134	C	-0.183907	-0.235309	-0.497348
C135	C	-0.143634	-0.268112	-0.544835
H136	H	-0.243188	-0.303752	-0.488086
H137	H	-0.191639	-0.303771	-0.427555
H138	H	-0.211396	-0.209668	-0.525598
H139	H	-0.159838	-0.209675	-0.465088
H140	H	-0.116142	-0.293765	-0.516583
H141	H	-0.167696	-0.293744	-0.577109
H142	H	-0.119726	-0.239071	-0.573021
H143	H	-0.230149	-0.550863	-0.442873
C144	C	-0.385204	-0.995522	-0.785635
C145	C	-0.425766	-1.004870	-0.845486
C146	C	-0.484970	-1.022813	-0.819317
H147	H	-0.401580	-0.963459	-0.754614
H148	H	-0.381475	-1.033424	-0.758313
H149	H	-0.429497	-0.966972	-0.872796
H150	H	-0.409411	-1.036936	-0.876512
H151	H	-0.481241	-1.060716	-0.791995
H152	H	-0.501339	-0.990748	-0.788296
H153	H	-0.512497	-1.029164	-0.859921
H154	H	-0.219902	-0.845322	-0.921385
C155	C	-0.218611	-0.826240	-0.787182
C156	C	-0.209609	-0.786614	-0.847970
C157	C	-0.192975	-0.726612	-0.823158
H158	H	-0.180845	-0.828724	-0.759426
H159	H	-0.251209	-0.809929	-0.756880
H160	H	-0.177013	-0.802922	-0.878260
H161	H	-0.247367	-0.784112	-0.875733
H162	H	-0.225573	-0.710300	-0.792856
H163	H	-0.155210	-0.729102	-0.795402
H164	H	-0.186870	-0.699717	-0.864398
C165	C	-0.386902	-0.541610	-0.257901
C166	C	-0.378303	-0.477013	-0.268077
C167	C	-0.418479	-0.443959	-0.220718
H168	H	-0.377669	-0.552298	-0.208131
H169	H	-0.429225	-0.552313	-0.268653
H170	H	-0.335989	-0.466315	-0.257319
H171	H	-0.387541	-0.466307	-0.317837
H172	H	-0.460803	-0.454661	-0.231470
H173	H	-0.409243	-0.454651	-0.170951
H174	H	-0.412655	-0.400127	-0.227621
C175	C	-0.533799	-0.993678	-0.258041
C176	C	-0.576636	-1.028980	-0.216626
C177	C	-0.543866	-1.069338	-0.169271
H178	H	-0.508192	-0.969678	-0.225676
H179	H	-0.508123	-1.021117	-0.286382
H180	H	-0.602301	-1.001545	-0.188287
H181	H	-0.602245	-1.052993	-0.248971
H182	H	-0.518191	-1.096776	-0.197612
H183	H	-0.518260	-1.045333	-0.136911
H184	H	-0.572926	-1.093299	-0.141170
H185	H	-0.198624	-0.924350	-0.792758
C186	C	-0.934443	-0.993797	-0.258270
C187	C	-0.896618	-1.034097	-0.300236
C188	C	-0.863631	-1.074410	-0.253038
H189	H	-0.963350	-1.017859	-0.230083
H190	H	-0.908807	-0.969741	-0.225980
H191	H	-0.922251	-1.058150	-0.332513
H192	H	-0.867700	-1.010052	-0.328422
H193	H	-0.837995	-1.050354	-0.220748
H194	H	-0.892542	-1.098468	-0.224853
H195	H	-0.837958	-1.101755	-0.281505
C196	C	-0.188108	-0.940221	-0.926974
C197	C	-0.186034	-0.939057	-1.004273
C198	C	-0.141652	-0.982687	-1.029341
H199	H	-0.199567	-0.981055	-0.910763
H200	H	-0.147943	-0.929764	-0.907763
H201	H	-0.226191	-0.949518	-1.023477
H202	H	-0.174568	-0.898233	-1.020503
H203	H	-0.101487	-0.972230	-1.010130
H204	H	-0.153116	-1.023518	-1.013126
H205	H	-0.140235	-0.981899	-1.081790
H206	H	-0.661979	-0.836565	-0.442636
C207	C	-0.387012	-0.678727	-0.257776
C208	C	-0.422221	-0.635822	-0.216237
C209	C	-0.462509	-0.668515	-0.168753
H210	H	-0.362967	-0.704390	-0.225495
H211	H	-0.414513	-0.704340	-0.286029
H212	H	-0.394723	-0.610220	-0.187985
H213	H	-0.446279	-0.610158	-0.248498
H214	H	-0.490010	-0.694128	-0.197006
H215	H	-0.438459	-0.694176	-0.136477
H216	H	-0.486407	-0.639409	-0.140568
