data_functionalizedCrystal
_audit_creation_method	'MofGen! by Chris Wilmer'
_symmetry_space_group_name_H-M	'P1'
_symmetry_Int_Tables_number	1
_symmetry_cell_setting	triclinic
loop_
_symmetry_equiv_pos_as_xyz
  x,y,z
_cell_length_a	20.016444
_cell_length_b	12.970454
_cell_length_c	12.970454
_cell_angle_alpha	59.999776
_cell_angle_beta	90.001560
_cell_angle_gamma	59.999975
loop_
_atom_site_label
_atom_site_type_symbol
_atom_site_fract_x
_atom_site_fract_y
_atom_site_fract_z
Zr1	Zr	0.643608	1.128485	-0.135256
O2	O	0.536932	1.343581	-0.299889
O3	O	0.676310	0.913393	-0.084787
O4	O	0.676311	1.128483	-0.299878
O5	O	0.536930	1.128492	0.084868
O6	O	0.786255	1.128477	-0.299869
O7	O	0.536931	1.128491	-0.084798
O8	O	0.786253	0.743721	0.084889
O9	O	0.536932	1.513248	-0.299890
O10	O	0.772307	1.001858	-0.063257
O11	O	0.690256	1.001863	0.063357
O12	O	0.690257	1.255103	-0.189884
O13	O	0.608206	1.255108	-0.063270
Zr14	Zr	0.818955	1.128477	0.135356
Zr15	Zr	0.818956	1.128476	-0.135243
Zr16	Zr	0.643606	1.128487	0.135342
Zr17	Zr	0.643608	1.399085	-0.135258
Zr18	Zr	0.818955	0.857877	0.135357
O19	O	0.786253	1.343570	0.084886
O20	O	0.786255	1.343568	-0.299870
O21	O	0.536930	1.343583	0.084867
O22	O	0.925631	0.913381	0.299988
O23	O	0.925633	0.913379	-0.084768
O24	O	0.676308	0.913395	0.299970
O25	O	0.925633	1.128470	-0.084769
O26	O	0.786252	1.128480	0.299977
O27	O	0.676308	1.128486	0.299968
O28	O	0.925632	1.128471	0.084898
O29	O	0.676311	1.513241	-0.299879
O30	O	0.786252	0.743722	0.299979
O31	O	0.925631	0.743714	0.299989
O32	O	0.925632	0.743713	0.084900
O33	O	0.536931	1.513250	-0.084800
O34	O	0.676310	1.513242	-0.084790
O35	O	0.772306	1.001859	0.189984
O36	O	0.854357	1.001854	0.063370
O37	O	0.772307	1.255100	-0.063258
O38	O	0.690256	1.255105	0.063356
C39	C	0.731281	0.790002	0.000051
C40	C	0.731281	0.675125	0.000052
C41	C	0.511947	1.128493	0.000033
C42	C	0.437507	1.128497	0.000027
C43	C	0.266251	1.128480	-0.093425
C44	C	0.196311	1.128470	-0.093416
C45	C	0.196318	1.128479	0.093533
C46	C	0.266260	1.128477	0.093529
C47	C	0.301223	1.128485	0.000043
C48	C	0.161340	1.128477	0.000056
C49	C	0.085508	1.128467	0.000066
C50	C	0.377061	1.128493	0.000034
C51	C	0.950616	1.128469	0.000066
C52	C	1.025056	1.128465	0.000072
C53	C	0.731283	1.128479	-0.338428
C54	C	0.731283	1.128479	-0.453304
C55	C	0.731281	1.466961	0.000048
C56	C	0.731281	1.581837	0.000047
C57	C	0.731280	1.128483	0.338527
C58	C	0.731279	1.128484	0.453403
C59	C	0.950616	0.789990	0.000068
C60	C	1.025056	0.675109	0.000074
C61	C	0.731280	0.790004	0.338529
C62	C	0.731279	0.675128	0.453406
C63	C	0.950614	0.789992	0.338546
C64	C	1.025054	0.675112	0.453428
C65	C	0.511949	1.466971	-0.338446
C66	C	0.437509	1.581851	-0.453329
C67	C	0.511947	1.466972	0.000031
C68	C	0.437507	1.581853	0.000025
C69	C	0.731283	1.466959	-0.338430
C70	C	0.731283	1.581835	-0.453306
C71	C	1.017185	0.621162	-0.066032
C72	C	1.087122	0.513234	-0.066051
C73	C	1.164930	0.459248	0.000044
C74	C	1.172800	0.513206	0.066152
C75	C	1.102863	0.621140	0.066163
C76	C	1.102849	0.621160	0.441287
C77	C	1.172799	0.513233	0.549221
C78	C	1.164953	0.459252	0.669294
C79	C	1.087150	0.513214	0.681433
C80	C	1.017202	0.621147	0.573501
C81	C	0.359714	1.635816	-0.441187
C82	C	0.289764	1.743776	-0.549121
C83	C	0.297610	1.797763	-0.669195
C84	C	0.375412	1.743794	-0.681334
C85	C	0.445361	1.635842	-0.573401
C86	C	0.445378	1.635812	0.066120
C87	C	0.375440	1.743769	0.066110
C88	C	0.297632	1.797759	0.000011
C89	C	0.289763	1.743796	-0.066092
C90	C	0.359700	1.635848	-0.066088
H91	H	0.294717	1.128483	-0.169545
H92	H	0.353310	1.591866	-0.343427
O93	O	1.079428	0.460751	0.798007
C94	C	1.036308	0.398266	0.811870
H95	H	0.997694	0.447030	0.714711
H96	H	1.081618	0.275331	0.863448
C97	C	1.027590	0.370312	1.007917
C98	C	0.980157	0.430214	0.888585
H99	H	0.992956	0.390011	1.055243
H100	H	1.056643	0.412404	0.998581
H101	H	1.065346	0.267870	1.050883
H102	H	0.942410	0.532655	0.845616
H103	H	0.951096	0.388139	0.897916
H104	H	1.080699	0.469315	-0.119884
H105	H	1.221871	0.371361	0.000025
H106	H	0.381791	1.787763	-0.779111
O107	O	0.352193	1.583305	-0.130258
C108	C	0.430599	1.476413	-0.116060
H109	H	0.476974	1.494118	-0.091737
H110	H	0.448409	1.363526	-0.036913
C111	C	0.372579	1.466483	-0.270197
C112	C	0.429538	1.488236	-0.240333
H113	H	0.371925	1.473769	-0.346851
H114	H	0.319755	1.538494	-0.279759
H115	H	0.387428	1.372410	-0.204231
H116	H	0.414682	1.582313	-0.306290
H117	H	0.482359	1.416240	-0.230784
O118	O	0.941572	0.673744	0.585079
C119	C	0.881505	0.780555	0.464078
H120	H	0.908742	0.827793	0.392512
H121	H	0.859634	0.728904	0.436592
C122	C	0.775193	0.845176	0.553606
C123	C	0.808643	0.903202	0.465709
H124	H	0.730245	0.920828	0.554612
H125	H	0.815660	0.773211	0.635128
H126	H	0.756973	0.802134	0.530690
H127	H	0.826871	0.946226	0.488635
H128	H	0.768177	0.975177	0.384191
O129	O	0.214237	1.796202	-0.537152
C130	C	0.205278	1.858632	-0.470565
H131	H	0.268245	1.809866	-0.411000
H132	H	0.171842	1.981575	-0.540457
C133	C	0.078263	1.886521	-0.457036
C134	C	0.155600	1.826617	-0.383869
H135	H	0.047617	1.866780	-0.403562
H136	H	0.084297	1.844466	-0.501901
H137	H	0.050410	1.988970	-0.515276
H138	H	0.183455	1.724169	-0.325643
H139	H	0.149570	1.868654	-0.338992
O140	O	0.214196	1.796371	-0.130487
C141	C	0.205215	1.858781	-0.259510
H142	H	0.249501	1.891181	-0.282933
H143	H	0.219092	1.776054	-0.280643
C144	C	0.062441	1.955145	-0.311491
C145	C	0.116829	1.994950	-0.340262
H146	H	0.007920	2.039136	-0.361304
H147	H	0.068492	1.913093	-0.224565
H148	H	0.074016	1.886203	-0.329102
H149	H	0.105261	2.063876	-0.322636
H150	H	0.110774	2.037017	-0.427187
H151	H	0.381864	1.787688	0.119943
O152	O	0.520868	1.583528	-0.585430
C153	C	0.512783	1.654359	-0.714558
H154	H	0.450358	1.698854	-0.772107
H155	H	0.518521	1.748097	-0.746359
C156	C	0.657195	1.490353	-0.664231
C157	C	0.580527	1.544991	-0.734912
H158	H	0.698984	1.422893	-0.676787
H159	H	0.662643	1.442635	-0.577234
H160	H	0.661965	1.568480	-0.690739
H161	H	0.575754	1.466867	-0.708392
H162	H	0.575079	1.592693	-0.821905
H163	H	0.240646	1.885663	-0.757071
H164	H	0.953836	0.665116	-0.119870
O165	O	1.248447	0.460545	0.130340
C166	C	1.308477	0.353735	0.116123
H167	H	1.281200	0.306566	0.091763
H168	H	1.330359	0.405366	0.036994
C169	C	1.414842	0.288966	0.270310
C170	C	1.381342	0.231024	0.240401
H171	H	1.459790	0.213275	0.346967
H172	H	1.374399	0.360930	0.279885
H173	H	1.433069	0.331992	0.204359
H174	H	1.363105	0.188016	0.306343
H175	H	1.421783	0.159050	0.230839
H176	H	0.167840	1.128463	-0.169525
H177	H	0.167843	1.128475	0.169646
H178	H	0.294737	1.128477	0.169648
H179	H	1.236143	0.469308	0.539314
O180	O	1.110661	0.673320	0.130506
C181	C	1.194336	0.602538	0.188811
H182	H	1.231624	0.493148	0.201869
H183	H	1.214945	0.673325	0.126876
C184	C	1.161730	0.711721	0.302486
C185	C	1.207527	0.577360	0.318535
H186	H	1.169868	0.696195	0.382503
H187	H	1.105357	0.759413	0.263202
H188	H	1.178909	0.770697	0.250869
H189	H	1.190340	0.518394	0.370137
H190	H	1.263898	0.529657	0.357831
H191	H	1.109252	0.665096	0.343526
H192	H	0.508727	1.591862	0.119954
H193	H	1.221917	0.371366	0.757170
H194	H	0.240692	1.885657	0.000018
