data_functionalizedCrystal
_audit_creation_method	'MofGen! by Chris Wilmer'
_symmetry_space_group_name_H-M	'P1'
_symmetry_Int_Tables_number	1
_symmetry_cell_setting	triclinic
loop_
_symmetry_equiv_pos_as_xyz
  x,y,z
_cell_length_a	23.532407
_cell_length_b	23.532407
_cell_length_c	9.482900
_cell_angle_alpha	99.270833
_cell_angle_beta	80.775065
_cell_angle_gamma	82.848678
loop_
_atom_site_label
_atom_site_type_symbol
_atom_site_fract_x
_atom_site_fract_y
_atom_site_fract_z
O1	O	0.764174	0.060180	-0.120724
O2	O	1.014174	0.310180	0.129276
O3	O	1.264174	0.560180	0.379276
O4	O	1.514174	0.810180	0.629276
O5	O	0.598314	0.070180	-0.120769
O6	O	0.848314	0.320180	0.129231
O7	O	1.098314	0.570180	0.379231
O8	O	1.348314	0.820180	0.629231
O9	O	0.686243	-0.017750	-0.120719
O10	O	0.936243	0.232250	0.129281
O11	O	1.186243	0.482250	0.379281
O12	O	1.436243	0.732250	0.629281
O13	O	0.676244	0.148110	-0.120775
O14	O	0.926244	0.398110	0.129225
O15	O	1.176244	0.648110	0.379225
O16	O	1.426244	0.898110	0.629225
O17	O	0.668382	0.000182	0.121064
O18	O	0.918382	0.250182	0.371064
O19	O	1.168382	0.500182	0.621064
O20	O	1.418382	0.750182	0.871064
O21	O	0.580453	0.088112	0.121013
O22	O	0.830453	0.338112	0.371013
O23	O	1.080453	0.588112	0.621013
O24	O	1.330453	0.838112	0.871013
O25	O	0.746313	0.078112	0.121058
O26	O	0.996313	0.328112	0.371058
O27	O	1.246313	0.578112	0.621058
O28	O	1.496313	0.828112	0.871058
Cu29	Cu	0.661752	0.084749	0.143112
Cu30	Cu	0.911752	0.334749	0.393112
Cu31	Cu	1.161752	0.584749	0.643112
Cu32	Cu	1.411752	0.834749	0.893112
Cu33	Cu	0.682875	0.063543	-0.142823
Cu34	Cu	0.932875	0.313543	0.107177
Cu35	Cu	1.182875	0.563543	0.357177
Cu36	Cu	1.432875	0.813543	0.607177
O37	O	0.658383	0.166041	0.121008
O38	O	0.908383	0.416041	0.371008
O39	O	1.158383	0.666041	0.621008
O40	O	1.408383	0.916041	0.871008
C41	C	0.568168	0.078891	0.000117
C42	C	0.818168	0.328891	0.250117
C43	C	1.068168	0.578891	0.500117
C44	C	1.318168	0.828891	0.750117
C45	C	0.504952	0.078124	0.000101
C46	C	0.754952	0.328124	0.250101
C47	C	1.004952	0.578124	0.500101
C48	C	1.254952	0.828124	0.750101
C49	C	0.105845	0.125361	0.000151
C50	C	0.355845	0.375361	0.250151
C51	C	0.605845	0.625361	0.500151
C52	C	0.855845	0.875361	0.750151
C53	C	0.046444	0.124650	0.000160
C54	C	0.296444	0.374650	0.250160
C55	C	0.546444	0.624650	0.500160
C56	C	0.796444	0.874650	0.750160
O57	O	0.009697	0.168439	0.000198
O58	O	0.259697	0.418439	0.250198
O59	O	0.509697	0.668439	0.500198
O60	O	0.759697	0.918439	0.750198
N61	N	0.023817	0.072375	0.000175
N62	N	0.273817	0.322375	0.250175
N63	N	0.523817	0.572375	0.500175
N64	N	0.773817	0.822375	0.750175
C65	C	0.060593	0.020808	0.000196
C66	C	0.310593	0.270808	0.250196
C67	C	0.560593	0.520808	0.500196
C68	C	0.810593	0.770808	0.750196
O69	O	0.035892	-0.023721	0.000211
O70	O	0.285892	0.226279	0.250211
O71	O	0.535892	0.476279	0.500211
O72	O	0.785892	0.726279	0.750211
C73	C	0.119992	0.021520	0.000197
C74	C	0.369992	0.271520	0.250197
C75	C	0.619992	0.521520	0.500197
C76	C	0.869992	0.771520	0.750197
C77	C	0.142617	0.073798	0.000167
C78	C	0.392617	0.323798	0.250167
C79	C	0.642617	0.573798	0.500167
C80	C	0.892617	0.823798	0.750167
C81	C	0.128470	0.177634	0.000122
C82	C	0.378470	0.427634	0.250122
C83	C	0.628470	0.677634	0.500122
C84	C	0.878470	0.927634	0.750122
C85	C	0.187867	0.178344	0.000111
C86	C	0.437867	0.428344	0.250111
C87	C	0.687867	0.678344	0.500111
C88	C	0.937867	0.928344	0.750111
C89	C	0.224639	0.126781	0.000127
C90	C	0.474639	0.376781	0.250127
C91	C	0.724639	0.626781	0.500127
C92	C	0.974639	0.876781	0.750127
C93	C	0.202014	0.074508	0.000155
C94	C	0.452014	0.324508	0.250155
C95	C	0.702014	0.574508	0.500155
C96	C	0.952014	0.824508	0.750155
C97	C	0.156766	-0.030045	0.000229
C98	C	0.406766	0.219955	0.250229
C99	C	0.656766	0.469955	0.500229
C100	C	0.906766	0.719955	0.750229
C101	C	0.216168	-0.029328	0.000231
C102	C	0.466168	0.220672	0.250231
C103	C	0.716168	0.470672	0.500231
C104	C	0.966168	0.720672	0.750231
C105	C	0.238793	0.022949	0.000201
C106	C	0.488793	0.272949	0.250201
C107	C	0.738793	0.522949	0.500201
C108	C	0.988793	0.772949	0.750201
C109	C	0.298183	0.023655	0.000160
C110	C	0.548183	0.273655	0.250160
C111	C	0.798183	0.523655	0.500160
C112	C	1.048183	0.773655	0.750160
N113	N	0.320810	0.075931	0.000145
N114	N	0.570810	0.325931	0.250145
N115	N	0.820810	0.575931	0.500145
N116	N	1.070810	0.825931	0.750145
C117	C	0.284038	0.127494	0.000128
C118	C	0.534038	0.377494	0.250128
C119	C	0.784038	0.627494	0.500128
C120	C	1.034038	0.877494	0.750128
C121	C	-0.064150	0.019317	0.000196
C122	C	0.185850	0.269317	0.250196
C123	C	0.435850	0.519317	0.500196
C124	C	0.685850	0.769317	0.750196
C125	C	-0.123547	0.018603	0.000184
C126	C	0.126453	0.268603	0.250184
C127	C	0.376453	0.518603	0.500184
C128	C	0.626453	0.768603	0.750184
C129	C	-0.137692	0.122445	0.000151
C130	C	0.112308	0.372445	0.250151
C131	C	0.362308	0.622445	0.500151
C132	C	0.612308	0.872445	0.750151
C133	C	-0.078293	0.123158	0.000152
C134	C	0.171707	0.373158	0.250152
C135	C	0.421707	0.623158	0.500152
C136	C	0.671707	0.873158	0.750152
C137	C	-0.041522	0.071592	0.000181
C138	C	0.208478	0.321592	0.250181
C139	C	0.458478	0.571592	0.500181
C140	C	0.708478	0.821592	0.750181
C141	C	0.408777	0.128981	0.000102
C142	C	0.658777	0.378981	0.250102
C143	C	0.908777	0.628981	0.500102
C144	C	1.158777	0.878981	0.750102
C145	C	0.468180	0.129687	0.000084
C146	C	0.718180	0.379687	0.250084
C147	C	0.968180	0.629687	0.500084
C148	C	1.218180	0.879687	0.750084
C149	C	0.482319	0.025845	0.000125
C150	C	0.732319	0.275845	0.250125
C151	C	0.982319	0.525845	0.500125
C152	C	1.232319	0.775845	0.750125
C153	C	0.422922	0.025139	0.000136
C154	C	0.672922	0.275139	0.250136
C155	C	0.922922	0.525139	0.500136
C156	C	1.172922	0.775139	0.750136
C157	C	0.386151	0.076712	0.000129
C158	C	0.636151	0.326712	0.250129
C159	C	0.886151	0.576712	0.500129
C160	C	1.136151	0.826712	0.750129
O161	O	0.334964	-0.020110	0.000128
O162	O	0.584964	0.229890	0.250128
O163	O	0.834964	0.479890	0.500128
O164	O	1.084964	0.729890	0.750128
O165	O	0.308746	0.172017	0.000132
O166	O	0.558746	0.422017	0.250132
O167	O	0.808746	0.672017	0.500132
O168	O	1.058746	0.922017	0.750132
C169	C	0.677058	-0.030000	0.000176
C170	C	0.927058	0.220000	0.250176
C171	C	1.177058	0.470000	0.500176
C172	C	1.427058	0.720000	0.750176
C173	C	0.676291	-0.093216	0.000187
C174	C	0.926291	0.156784	0.250187
C175	C	1.176291	0.406784	0.500187
C176	C	1.426291	0.656784	0.750187
C177	C	0.723530	-0.492324	0.000120
C178	C	0.973530	-0.242324	0.250120
C179	C	1.223530	0.007676	0.500120
C180	C	1.473530	0.257676	0.750120
C181	C	0.722819	-0.551725	0.000109
C182	C	0.972819	-0.301725	0.250109
C183	C	1.222819	-0.051725	0.500109
C184	C	1.472819	0.198275	0.750109
O185	O	0.766608	-0.588473	0.000067
O186	O	1.016608	-0.338473	0.250067
O187	O	1.266608	-0.088473	0.500067
O188	O	1.516608	0.161527	0.750067
N189	N	0.670544	-0.574352	0.000096
N190	N	0.920544	-0.324352	0.250096
N191	N	1.170544	-0.074352	0.500096
N192	N	1.420544	0.175648	0.750096
C193	C	0.618977	-0.537576	0.000079
C194	C	0.868977	-0.287576	0.250079
C195	C	1.118977	-0.037576	0.500079
C196	C	1.368977	0.212424	0.750079
O197	O	0.574447	-0.562276	0.000066
O198	O	0.824447	-0.312276	0.250066
O199	O	1.074447	-0.062276	0.500066
O200	O	1.324447	0.187724	0.750066
C201	C	0.619689	-0.478177	0.000080
C202	C	0.869689	-0.228177	0.250080
C203	C	1.119689	0.021823	0.500080
C204	C	1.369689	0.271823	0.750080
C205	C	0.671966	-0.455552	0.000108
C206	C	0.921966	-0.205552	0.250108
C207	C	1.171966	0.044448	0.500108
C208	C	1.421966	0.294448	0.750108
C209	C	0.775803	-0.469699	0.000146
C210	C	1.025803	-0.219699	0.250146
C211	C	1.275803	0.030301	0.500146
C212	C	1.525803	0.280301	0.750146
C213	C	0.776513	-0.410301	0.000160
C214	C	1.026513	-0.160301	0.250160
C215	C	1.276513	0.089699	0.500160
C216	C	1.526513	0.339699	0.750160
C217	C	0.724950	-0.373529	0.000148
C218	C	0.974950	-0.123529	0.250148
C219	C	1.224950	0.126471	0.500148
C220	C	1.474950	0.376471	0.750148
C221	C	0.672676	-0.396155	0.000122
C222	C	0.922676	-0.146155	0.250122
C223	C	1.172676	0.103845	0.500122
C224	C	1.422676	0.353845	0.750122
C225	C	0.568123	-0.441402	0.000053
C226	C	0.818123	-0.191402	0.250053
C227	C	1.068123	0.058598	0.500053
C228	C	1.318123	0.308598	0.750053
C229	C	0.568840	-0.382000	0.000053
C230	C	0.818840	-0.132000	0.250053
C231	C	1.068840	0.118000	0.500053
C232	C	1.318840	0.368000	0.750053
C233	C	0.621117	-0.359375	0.000081
C234	C	0.871117	-0.109375	0.250081
C235	C	1.121117	0.140625	0.500081
C236	C	1.371117	0.390625	0.750081
C237	C	0.621823	-0.299985	0.000124
C238	C	0.871823	-0.049985	0.250124
C239	C	1.121823	0.200015	0.500124
C240	C	1.371823	0.450015	0.750124
N241	N	0.674099	-0.277358	0.000137
N242	N	0.924099	-0.027358	0.250137
N243	N	1.174099	0.222642	0.500137
N244	N	1.424099	0.472642	0.750137
C245	C	0.725662	-0.314130	0.000149
C246	C	0.975662	-0.064130	0.250149
C247	C	1.225662	0.185870	0.500149
C248	C	1.475662	0.435870	0.750149
C249	C	0.617486	-0.662319	0.000075
C250	C	0.867486	-0.412319	0.250075
C251	C	1.117486	-0.162319	0.500075
C252	C	1.367486	0.087681	0.750075
C253	C	0.616772	-0.721716	0.000085
C254	C	0.866772	-0.471716	0.250085
C255	C	1.116772	-0.221716	0.500085
C256	C	1.366772	0.028284	0.750085
C257	C	0.720615	-0.735861	0.000112
C258	C	0.970615	-0.485861	0.250112
C259	C	1.220615	-0.235861	0.500112
C260	C	1.470615	0.014139	0.750112
C261	C	0.721327	-0.676462	0.000112
C262	C	0.971327	-0.426462	0.250112
C263	C	1.221327	-0.176462	0.500112
C264	C	1.471327	0.073538	0.750112
C265	C	0.669761	-0.639691	0.000088
C266	C	0.919761	-0.389691	0.250088
C267	C	1.169761	-0.139691	0.500088
C268	C	1.419761	0.110309	0.750088
C269	C	0.727149	-0.189391	0.000179
C270	C	0.977149	0.060609	0.250179
C271	C	1.227149	0.310609	0.500179
C272	C	1.477149	0.560609	0.750179
C273	C	0.727855	-0.129988	0.000199
C274	C	0.977855	0.120012	0.250199
C275	C	1.227855	0.370012	0.500199
C276	C	1.477855	0.620012	0.750199
C277	C	0.624013	-0.115848	0.000165
C278	C	0.874013	0.134152	0.250165
C279	C	1.124013	0.384152	0.500165
C280	C	1.374013	0.634152	0.750165
C281	C	0.623307	-0.175246	0.000152
C282	C	0.873307	0.074754	0.250152
C283	C	1.123307	0.324754	0.500152
C284	C	1.373307	0.574754	0.750152
C285	C	0.674880	-0.212017	0.000155
C286	C	0.924880	0.037983	0.250155
C287	C	1.174880	0.287983	0.500155
C288	C	1.424880	0.537983	0.750155
O289	O	0.578058	-0.263204	0.000159
O290	O	0.828058	-0.013204	0.250159
O291	O	1.078058	0.236796	0.500159
O292	O	1.328058	0.486796	0.750159
O293	O	0.770186	-0.289423	0.000143
O294	O	1.020186	-0.039423	0.250143
O295	O	1.270186	0.210577	0.500143
O296	O	1.520186	0.460577	0.750143
C297	C	0.776459	0.069401	0.000169
C298	C	1.026459	0.319401	0.250169
C299	C	1.276459	0.569401	0.500169
C300	C	1.526459	0.819401	0.750169
C301	C	0.839676	0.070167	0.000175
C302	C	1.089676	0.320167	0.250175
C303	C	1.339676	0.570167	0.500175
C304	C	1.589676	0.820167	0.750175
C305	C	0.667569	0.178291	0.000110
C306	C	0.917569	0.428291	0.250110
C307	C	1.167569	0.678291	0.500110
C308	C	1.417569	0.928291	0.750110
C309	C	0.668336	0.241506	0.000089
C310	C	0.918336	0.491506	0.250089
C311	C	1.168336	0.741506	0.500089
C312	C	1.418336	0.991506	0.750089
N313	N	0.646900	0.099664	0.344224
N314	N	0.896900	0.349664	0.594224
N315	N	1.146900	0.599664	0.844224
N316	N	1.396900	0.849664	1.094224
N317	N	0.697732	0.048623	-0.343935
N318	N	0.947732	0.298623	-0.093935
N319	N	1.197732	0.548623	0.156065
N320	N	1.447732	0.798623	0.406065
C321	C	0.678490	0.067939	0.416441
C322	C	0.928490	0.317939	0.666441
C323	C	1.178490	0.567939	0.916441
C324	C	1.428490	0.817939	1.166441
C325	C	0.666137	0.080353	0.583852
C326	C	0.916137	0.330353	0.833852
C327	C	1.166137	0.580353	1.083852
C328	C	1.416137	0.830353	1.333852
H329	H	0.098536	0.219626	0.000114
H330	H	0.348536	0.469626	0.250114
H331	H	0.598536	0.719626	0.500114
H332	H	0.848536	0.969626	0.750114
H333	H	0.714679	0.031585	0.354334
H334	H	0.964679	0.281585	0.604334
H335	H	1.214679	0.531585	0.854334
H336	H	1.464679	0.781585	1.104334
H337	H	0.610707	0.136014	0.406333
H338	H	0.860707	0.386014	0.656333
H339	H	1.110707	0.636014	0.906333
H340	H	1.360707	0.886014	1.156333
F341	F	0.618826	0.127867	0.665022
F342	F	0.868826	0.377867	0.915022
F343	F	1.118826	0.627867	1.165022
F344	F	1.368826	0.877867	1.415022
H345	H	-0.034213	-0.022678	0.000206
H346	H	0.215787	0.227322	0.250206
H347	H	0.465787	0.477322	0.500206
H348	H	0.715787	0.727322	0.750206
F349	F	0.562597	-0.623188	0.000063
F350	F	0.812597	-0.373188	0.250063
F351	F	1.062597	-0.123188	0.500063
F352	F	1.312597	0.126812	0.750063
H353	H	-0.141960	-0.023968	0.000186
H354	H	0.108040	0.226032	0.250186
H355	H	0.358040	0.476032	0.500186
H356	H	0.608040	0.726032	0.750186
H357	H	-0.167643	0.164431	0.000144
H358	H	0.082357	0.414431	0.250144
H359	H	0.332357	0.664431	0.500144
H360	H	0.582357	0.914431	0.750144
H361	H	0.526847	-0.352063	0.000031
H362	H	0.776847	-0.102063	0.250031
H363	H	1.026847	0.147937	0.500031
H364	H	1.276847	0.397937	0.750031
F365	F	0.745134	0.001200	0.574898
F366	F	0.995134	0.251200	0.824898
F367	F	1.245134	0.501200	1.074898
F368	F	1.495134	0.751200	1.324898
F369	F	0.132702	-0.085688	0.000240
F370	F	0.382702	0.164312	0.250240
F371	F	0.632702	0.414312	0.500240
F372	F	0.882702	0.664312	0.750240
F373	F	0.492255	0.185329	0.000048
F374	F	0.742255	0.435329	0.250048
F375	F	0.992255	0.685329	0.500048
F376	F	1.242255	0.935329	0.750048
F377	F	0.830689	-0.508827	0.000158
F378	F	1.080689	-0.258827	0.250158
F379	F	1.330689	-0.008827	0.500158
F380	F	1.580689	0.241173	0.750158
F381	F	0.398842	-0.030500	0.000168
F382	F	0.648842	0.219500	0.250168
F383	F	0.898842	0.469500	0.500168
F384	F	1.148842	0.719500	0.750168
F385	F	0.211938	0.233986	0.000086
F386	F	0.461938	0.483986	0.250086
F387	F	0.711938	0.733986	0.500086
F388	F	0.961938	0.983986	0.750086
F389	F	0.369651	0.183871	0.000096
F390	F	0.619651	0.433871	0.250096
F391	F	0.869651	0.683871	0.500096
F392	F	1.119651	0.933871	0.750096
F393	F	0.255299	-0.084213	0.000265
F394	F	0.505299	0.165787	0.250265
F395	F	0.755299	0.415787	0.500265
F396	F	1.005299	0.665787	0.750265
H397	H	0.512270	-0.016136	0.000133
H398	H	0.762270	0.233864	0.250133
H399	H	1.012270	0.483864	0.500133
H400	H	1.262270	0.733864	0.750133
H401	H	-0.059877	0.165727	0.000136
H402	H	0.190123	0.415727	0.250136
H403	H	0.440123	0.665727	0.500136
H404	H	0.690123	0.915727	0.750136
F405	F	0.782040	-0.228518	0.000181
F406	F	1.032040	0.021482	0.250181
F407	F	1.282040	0.271482	0.500181
F408	F	1.532040	0.521482	0.750181
F409	F	0.783498	-0.105913	0.000228
F410	F	1.033498	0.144087	0.250228
F411	F	1.283498	0.394087	0.500228
F412	F	1.533498	0.644087	0.750228
F413	F	0.832157	-0.386233	0.000158
F414	F	1.082157	-0.136233	0.250158
F415	F	1.332157	0.113767	0.500158
F416	F	1.582157	0.363767	0.750158
F417	F	0.776967	-0.652389	0.000142
F418	F	1.026967	-0.402389	0.250142
F419	F	1.276967	-0.152389	0.500142
F420	F	1.526967	0.097611	0.750142
F421	F	0.775494	-0.775008	0.000117
F422	F	1.025494	-0.525008	0.250117
F423	F	1.275494	-0.275008	0.500117
F424	F	1.525494	-0.025008	0.750117
H425	H	0.574201	-0.740129	0.000087
H426	H	0.824201	-0.490129	0.250087
H427	H	1.074201	-0.240129	0.500087
H428	H	1.324201	0.009871	0.750087
F429	F	0.512482	-0.465468	0.000017
F430	F	0.762482	-0.215468	0.250017
F431	F	1.012482	0.034532	0.500017
F432	F	1.262482	0.284532	0.750017
H433	H	0.580735	-0.193665	0.000170
H434	H	0.830735	0.056335	0.250170
H435	H	1.080735	0.306335	0.500170
H436	H	1.330735	0.556335	0.750170
H437	H	0.582031	-0.085898	0.000160
H438	H	0.832031	0.164102	0.250160
H439	H	1.082031	0.414102	0.500160
H440	H	1.332031	0.664102	0.750160
