data_functionalizedCrystal
_audit_creation_method	'MofGen! by Chris Wilmer'
_symmetry_space_group_name_H-M	'P1'
_symmetry_Int_Tables_number	1
_symmetry_cell_setting	triclinic
loop_
_symmetry_equiv_pos_as_xyz
  x,y,z
_cell_length_a	19.288835
_cell_length_b	14.586319
_cell_length_c	19.288865
_cell_angle_alpha	90.009016
_cell_angle_beta	96.869897
_cell_angle_gamma	89.988022
loop_
_atom_site_label
_atom_site_type_symbol
_atom_site_fract_x
_atom_site_fract_y
_atom_site_fract_z
O1	O	-0.921361	0.076431	0.086547
O2	O	-0.421361	0.576431	0.586547
O3	O	-0.719097	0.076394	0.098258
O4	O	-0.219097	0.576394	0.598258
O5	O	-0.826073	0.076395	-0.008728
O6	O	-0.326073	0.576395	0.491272
O7	O	-0.814384	0.076430	0.193534
O8	O	-0.314384	0.576430	0.693534
O9	O	-0.826066	-0.076085	-0.008730
O10	O	-0.326066	0.423915	0.491270
O11	O	-0.719090	-0.076086	0.098256
O12	O	-0.219090	0.423914	0.598256
O13	O	-0.921353	-0.076050	0.086546
O14	O	-0.421353	0.423950	0.586546
Cu15	Cu	-0.820221	-0.089991	0.092401
Cu16	Cu	-0.320221	0.410009	0.592401
Cu17	Cu	-0.820230	0.090335	0.092403
Cu18	Cu	-0.320230	0.590335	0.592403
O19	O	-0.814377	-0.076051	0.193532
O20	O	-0.314377	0.423949	0.693532
C21	C	-0.693217	0.000149	0.097884
C22	C	-0.193217	0.500149	0.597884
C23	C	-0.616112	0.000134	0.096763
C24	C	-0.116112	0.500134	0.596763
C25	C	-0.579912	0.083253	0.096226
C26	C	-0.079912	0.583253	0.596226
C27	C	-0.507465	0.083262	0.095165
C28	C	-0.007465	0.583262	0.595165
C29	C	-0.471222	0.000148	0.094628
C30	C	0.028778	0.500148	0.594628
C31	C	-0.507430	-0.082982	0.095169
C32	C	-0.007430	0.417018	0.595169
C33	C	-0.579875	-0.082988	0.096237
C34	C	-0.079875	0.417012	0.596237
C35	C	-0.361891	-0.063526	0.052251
C36	C	0.138109	0.436474	0.552251
C37	C	-0.289448	-0.063516	0.051179
C38	C	0.210552	0.436484	0.551179
C39	C	-0.247778	0.000164	0.091338
C40	C	0.252222	0.500164	0.591338
C41	C	-0.278561	0.063851	0.132559
C42	C	0.221439	0.563851	0.632559
C43	C	-0.351006	0.063844	0.133627
C44	C	0.148994	0.563844	0.633627
C45	C	-0.392668	0.000145	0.093470
C46	C	0.107332	0.500145	0.593470
C47	C	-0.133023	0.083298	0.089651
C48	C	0.366977	0.583298	0.589651
C49	C	-0.060574	0.083304	0.088595
C50	C	0.439426	0.583304	0.588595
C51	C	-0.060541	-0.082942	0.088592
C52	C	0.439459	0.417058	0.588592
C53	C	-0.132988	-0.082945	0.089655
C54	C	0.367012	0.417055	0.589655
C55	C	-0.169225	0.000178	0.090181
C56	C	0.330775	0.500178	0.590181
N57	N	-0.820220	-0.216823	0.092399
N58	N	-0.320220	0.283177	0.592399
C59	C	-0.867604	-0.451829	0.045041
C60	C	-0.367604	0.048171	0.545041
C61	C	-0.867606	-0.547810	0.045040
C62	C	-0.367606	-0.047810	0.545040
C63	C	-0.772846	-0.547820	0.139759
C64	C	-0.272846	-0.047820	0.639759
C65	C	-0.772842	-0.451841	0.139757
C66	C	-0.272842	0.048159	0.639757
C67	C	-0.820225	-0.403848	0.092399
C68	C	-0.320225	0.096152	0.592399
C69	C	-0.820231	-0.595808	0.092399
C70	C	-0.320231	-0.095808	0.592399
C71	C	-0.820233	-0.699875	0.092398
C72	C	-0.320233	-0.199875	0.592398
C73	C	-0.820222	-0.299774	0.092399
C74	C	-0.320222	0.200226	0.592399
C75	C	0.052767	0.000190	0.086924
C76	C	0.552767	0.500190	0.586924
C77	C	-0.024336	0.000189	0.088059
C78	C	0.475664	0.500189	0.588059
C79	C	-0.825694	0.000152	-0.034606
C80	C	-0.325694	0.500152	0.465394
C81	C	-0.824565	0.000144	-0.111709
C82	C	-0.324565	0.500144	0.388291
N83	N	-0.820236	0.217167	0.092399
N84	N	-0.320236	0.717167	0.592399
C85	C	-0.887333	0.000151	-0.156412
C86	C	-0.387333	0.500151	0.343588
C87	C	-0.886273	0.000165	-0.228859
C88	C	-0.386273	0.500165	0.271141
C89	C	-0.822440	0.000154	-0.256600
C90	C	-0.322440	0.500154	0.243400
C91	C	-0.759663	0.000153	-0.211887
C92	C	-0.259663	0.500153	0.288113
C93	C	-0.760725	0.000147	-0.139441
C94	C	-0.260725	0.500147	0.360559
C95	C	-0.772257	-0.053266	-0.364882
C96	C	-0.272257	0.446734	0.135118
C97	C	-0.771197	-0.053266	-0.437327
C98	C	-0.271197	0.446734	0.062673
C99	C	-0.819160	0.000174	-0.480045
C100	C	-0.319160	0.500174	0.019955
C101	C	-0.868195	0.053603	-0.450312
C102	C	-0.368195	0.553603	0.049688
C103	C	-0.869257	0.053598	-0.377866
C104	C	-0.369257	0.553598	0.122134
C105	C	-0.821280	0.000160	-0.335154
C106	C	-0.321280	0.500160	0.164846
C107	C	-0.880783	0.000198	-0.603304
C108	C	-0.380783	0.500198	-0.103304
C109	C	-0.879720	0.000218	-0.675752
C110	C	-0.379720	0.500218	-0.175752
C111	C	-0.753108	0.000196	-0.658778
C112	C	-0.253108	0.500196	-0.158778
C113	C	-0.754173	0.000185	-0.586332
C114	C	-0.254173	0.500185	-0.086332
C115	C	-0.818012	0.000182	-0.558599
C116	C	-0.318012	0.500182	-0.058599
C117	C	-0.814757	0.000194	0.219409
C118	C	-0.314757	0.500194	0.719409
C119	C	-0.815886	0.000208	0.296513
C120	C	-0.315886	0.500208	0.796513
H121	H	-0.376066	0.115698	0.167192
H122	H	0.123934	0.615698	0.667192
C123	C	-0.919722	-0.600585	-0.007063
C124	C	-0.419722	-0.100585	0.492937
N125	N	-0.958976	-0.640335	-0.046311
N126	N	-0.458976	-0.140335	0.453689
C127	C	-0.255594	-0.133579	0.005842
C128	C	0.244406	0.366421	0.505842
N129	N	-0.230096	-0.186356	-0.028305
N130	N	0.269904	0.313644	0.471695
C131	C	-0.232728	0.133900	0.176742
C132	C	0.267272	0.633900	0.676742
N133	N	-0.198204	0.186659	0.210020
N134	N	0.301796	0.686659	0.710020
C135	C	-0.689446	0.000134	-0.242403
C136	C	-0.189446	0.500134	0.257597
N137	N	-0.636557	0.000120	-0.265387
N138	N	-0.136557	0.500120	0.234613
H139	H	-0.031101	0.150992	0.088161
H140	H	0.468899	0.650992	0.588161
C141	C	-0.919721	-0.399040	-0.007059
C142	C	-0.419721	0.100960	0.492941
N143	N	-0.958975	-0.359281	-0.046305
N144	N	-0.458975	0.140719	0.453695
C145	C	-0.407722	-0.133583	0.008069
C146	C	0.092278	0.366417	0.508069
N147	N	-0.442242	-0.186347	-0.025209
N148	N	0.057758	0.313653	0.474791
C149	C	-0.172810	-0.174384	0.090237
C150	C	0.327190	0.325616	0.590237
N151	N	-0.202804	-0.243259	0.090675
N152	N	0.297196	0.256741	0.590675
C153	C	-0.720749	-0.399058	0.191888
C154	C	-0.220749	0.100942	0.691888
N155	N	-0.681525	-0.359303	0.231161
N156	N	-0.181525	0.140697	0.731161
H157	H	-0.909181	0.097103	-0.353660
H158	H	-0.409181	0.597103	0.146340
H159	H	-0.734269	-0.586906	0.178318
H160	H	-0.234269	-0.086906	0.678318
C161	C	-0.957559	0.000155	-0.125911
C162	C	-0.457559	0.500155	0.374089
N163	N	-1.010453	0.000160	-0.102936
N164	N	-0.510453	0.500160	0.397064
H165	H	-0.937388	0.000174	-0.265263
H166	H	-0.437388	0.500174	0.234737
H167	H	-0.609348	-0.150676	0.096675
H168	H	-0.109348	0.349324	0.596675
C169	C	-0.467562	-0.174408	0.094577
C170	C	0.032438	0.325592	0.594577
N171	N	-0.437533	-0.243273	0.094133
N172	N	0.062467	0.256727	0.594133
H173	H	-0.733198	-0.096788	-0.330106
H174	H	-0.233198	0.403212	0.169894
C175	C	-0.920956	0.112396	-0.497296
C176	C	-0.420956	0.612396	0.002704
N177	N	-0.960695	0.156677	-0.532688
N178	N	-0.460695	0.656677	-0.032688
C179	C	-0.951007	0.000208	-0.572796
C180	C	-0.451007	0.500208	-0.072796
N181	N	-1.003900	0.000218	-0.549819
N182	N	-0.503900	0.500218	-0.049819
H183	H	-0.930836	0.000228	-0.712149
H184	H	-0.430836	0.500228	-0.212149
C185	C	-0.691671	0.000137	-0.090266
C186	C	-0.191671	0.500137	0.409734
N187	N	-0.639659	0.000128	-0.053225
N188	N	-0.139659	0.500128	0.446775
C189	C	-0.682890	0.000187	-0.689288
C190	C	-0.182890	0.500187	-0.189288
N191	N	-0.630000	0.000183	-0.712272
N192	N	-0.130000	0.500183	-0.212272
C193	C	-0.717258	-0.112039	-0.470026
C194	C	-0.217258	0.387961	0.029974
N195	N	-0.676629	-0.156306	-0.494654
N196	N	-0.176629	0.343694	0.005346
C197	C	-0.619769	0.174691	0.096803
C198	C	-0.119769	0.674691	0.596803
N199	N	-0.649790	0.243563	0.097237
N200	N	-0.149790	0.743563	0.597237
C201	C	-0.172885	0.174734	0.090242
C202	C	0.327115	0.674734	0.590242
N203	N	-0.202906	0.243605	0.090690
N204	N	0.297094	0.743605	0.590690
C205	C	-0.467638	0.174702	0.094569
C206	C	0.032362	0.674702	0.594569
N207	N	-0.437643	0.243575	0.094118
N208	N	0.062357	0.743575	0.594118
H209	H	-0.703059	0.000175	-0.549933
H210	H	-0.203059	0.500175	-0.049933
H211	H	-0.031033	-0.150616	0.088159
H212	H	0.468967	0.349384	0.588159
