data_functionalizedCrystal
_audit_creation_method	'MofGen! by Chris Wilmer'
_symmetry_space_group_name_H-M	'P1'
_symmetry_Int_Tables_number	1
_symmetry_cell_setting	triclinic
loop_
_symmetry_equiv_pos_as_xyz
  x,y,z
_cell_length_a	13.635800
_cell_length_b	19.452420
_cell_length_c	17.982968
_cell_angle_alpha	83.861480
_cell_angle_beta	102.451960
_cell_angle_gamma	78.303285
loop_
_atom_site_label
_atom_site_type_symbol
_atom_site_fract_x
_atom_site_fract_y
_atom_site_fract_z
V1	V	2.003102	-0.097842	0.237924
O2	O	2.001594	0.004025	0.233011
O3	O	1.974565	-0.193353	0.236665
O4	O	1.976411	-0.096634	0.341522
O5	O	1.999736	-0.093364	0.127428
V6	V	2.245801	-0.085622	0.224663
O7	O	2.131675	-0.124646	0.267013
O8	O	2.342326	-0.058818	0.195574
O9	O	2.162734	0.009889	0.225921
O10	O	2.306008	-0.187489	0.229575
O11	O	2.307866	-0.090100	0.335158
O12	O	2.160889	-0.086830	0.121064
V13	V	2.503102	-0.097842	0.237924
O14	O	2.501594	0.004025	0.233011
O15	O	2.474565	-0.193353	0.236665
O16	O	2.476411	-0.096634	0.341522
O17	O	2.499736	-0.093364	0.127428
V18	V	2.745801	-0.085622	0.224663
O19	O	2.631675	-0.124646	0.267013
O20	O	2.842326	-0.058818	0.195574
O21	O	2.662734	0.009889	0.225921
O22	O	2.806008	-0.187489	0.229575
O23	O	2.807866	-0.090100	0.335158
O24	O	2.660889	-0.086830	0.121064
C25	C	1.896091	-0.216627	0.233007
C26	C	1.913386	-0.294711	0.232669
C27	C	1.903569	-0.321146	0.162690
C28	C	1.919855	-0.394512	0.162349
C29	C	1.945939	-0.441439	0.231990
C30	C	1.955763	-0.414996	0.301978
C31	C	1.939486	-0.341632	0.302317
N32	N	1.928159	-0.562023	0.281036
N33	N	1.943617	-0.631716	0.280709
C34	C	1.994983	-0.662482	0.230971
N35	N	2.030290	-0.620921	0.181560
N36	N	2.014825	-0.551222	0.181885
C37	C	1.963591	-0.520991	0.231629
C38	C	2.002825	-0.768468	0.160617
C39	C	2.019118	-0.841836	0.160279
C40	C	2.055017	-0.862319	0.299909
C41	C	2.038733	-0.788953	0.300246
C42	C	2.012633	-0.742031	0.230597
C43	C	1.898445	-0.093252	0.366761
C44	C	1.917235	-0.092896	0.451456
C45	C	2.072879	0.033159	0.229577
C46	C	2.045204	0.111242	0.229920
C47	C	2.070526	-0.090215	0.095821
C48	C	2.041356	-0.090567	0.011126
C49	C	2.396091	-0.216627	0.233007
C50	C	2.413386	-0.294711	0.232669
C51	C	2.398445	-0.093252	0.366761
C52	C	2.417235	-0.092896	0.451456
C53	C	2.016862	-0.096249	0.495141
C54	C	2.034511	-0.095914	0.574720
C55	C	1.952533	-0.092232	0.610614
C56	C	1.852896	-0.088877	0.566924
C57	C	1.835247	-0.089206	0.487345
C58	C	1.924070	-0.087547	0.887855
C59	C	1.941728	-0.087219	0.967440
C60	C	2.123334	-0.094254	0.975231
C61	C	2.105686	-0.094584	0.895652
C62	C	2.006050	-0.091225	0.851968
C63	C	1.986914	-0.091587	0.765678
C64	C	1.971669	-0.091875	0.696903
C65	C	2.572879	0.033159	0.229577
C66	C	2.545204	0.111242	0.229920
C67	C	2.570526	-0.090215	0.095821
C68	C	2.541356	-0.090567	0.011126
C69	C	2.512318	-0.334971	0.236330
C70	C	2.528585	-0.408341	0.236024
C71	C	2.445918	-0.441448	0.232051
C72	C	2.346979	-0.401182	0.228392
C73	C	2.330714	-0.327814	0.228703
C74	C	2.516868	-0.096242	0.495127
C75	C	2.534534	-0.095898	0.574705
C76	C	2.452568	-0.092214	0.610613
C77	C	2.352926	-0.088866	0.566936
C78	C	2.335260	-0.089204	0.487358
C79	C	2.618766	0.151502	0.226261
C80	C	2.592770	0.224872	0.226571
C81	C	2.493214	0.257978	0.230546
C82	C	2.419646	0.217713	0.234203
C83	C	2.445640	0.144346	0.233888
C84	C	2.441092	-0.094243	-0.024762
C85	C	2.413666	-0.094566	-0.104344
C86	C	2.486508	-0.091217	-0.148035
C87	C	2.586779	-0.087538	-0.112142
C88	C	2.614202	-0.087211	-0.032563
H89	H	1.911858	-0.416039	0.105362
O90	O	2.726142	0.115807	0.221956
H91	H	2.762844	0.074909	0.273825
H92	H	2.609151	-0.441116	0.239002
H93	H	2.472062	0.317719	0.230802
O94	O	2.456931	-0.091572	-0.233867
H95	H	2.432258	-0.141299	-0.244844
H96	H	2.250151	-0.295039	0.225718
H97	H	2.583622	-0.099244	0.465902
H98	H	2.466967	-0.091940	0.675411
H99	H	1.786148	-0.085874	0.596154
H100	H	1.977003	-0.453210	0.358680
O101	O	2.257826	-0.436900	0.224108
H102	H	2.197744	-0.413461	0.170140
O103	O	2.665344	-0.083933	-0.159268
H104	H	2.629423	-0.084787	-0.220630
O105	O	2.722349	-0.083249	0.006143
H106	H	2.768386	-0.080981	-0.037612
H107	H	2.254127	-0.086481	0.451807
O108	O	2.008520	-0.870349	0.084796
H109	H	2.064662	-0.854015	0.054226
O110	O	1.875406	-0.270536	0.087573
H111	H	1.871316	-0.301248	0.038854
O112	O	1.950062	-0.313112	0.377796
H113	H	1.970930	-0.358066	0.426167
O114	O	2.642006	-0.099510	0.621806
H115	H	2.696030	-0.102139	0.583465
O116	O	2.264525	-0.084903	0.605670
H117	H	2.293564	-0.085241	0.668343
H118	H	2.338586	0.244680	0.237439
H119	H	2.332015	-0.097561	-0.133556
H120	H	2.385734	0.111570	0.236875
O121	O	1.974687	-0.717852	0.085503
H122	H	1.970614	-0.748564	0.036783
O123	O	2.362539	-0.097907	0.022363
H124	H	2.288221	-0.100529	-0.015971
H125	H	2.076256	-0.900527	0.356612
H126	H	2.579640	-0.308025	0.239561
O127	O	2.049301	-0.760432	0.375722
H128	H	2.070166	-0.805387	0.424092
H129	H	2.083623	-0.099252	0.465923
O130	O	2.463456	-0.520576	0.231679
H131	H	2.546137	-0.543002	0.234874
H132	H	2.652686	0.257646	0.223594
H133	H	1.754116	-0.086459	0.451774
O134	O	2.141967	-0.099516	0.621830
H135	H	2.194774	-0.149386	0.616752
O136	O	2.194107	-0.098545	0.856939
H137	H	2.253693	-0.148282	0.882402
O138	O	2.230799	-0.097861	1.022345
H139	H	2.255832	-0.145993	1.067113
O140	O	1.853239	-0.083495	1.006063
H141	H	1.793481	-0.033830	0.980650
H142	H	1.842950	-0.084837	0.852301
