data_functionalizedCrystal
_audit_creation_method	'MofGen! by Chris Wilmer'
_symmetry_space_group_name_H-M	'P1'
_symmetry_Int_Tables_number	1
_symmetry_cell_setting	triclinic
loop_
_symmetry_equiv_pos_as_xyz
  x,y,z
_cell_length_a	10.654562
_cell_length_b	12.837942
_cell_length_c	11.892293
_cell_angle_alpha	86.041117
_cell_angle_beta	85.683224
_cell_angle_gamma	89.659522
loop_
_atom_site_label
_atom_site_type_symbol
_atom_site_fract_x
_atom_site_fract_y
_atom_site_fract_z
O1	O	1.675867	0.139802	0.094075
O2	O	1.311905	0.153673	0.094061
O3	O	1.485816	-0.004223	0.094060
O4	O	1.501956	0.297698	0.094075
O5	O	1.501534	0.007730	-0.093940
O6	O	1.327623	0.165626	-0.093940
O7	O	1.691585	0.151756	-0.093926
Zn8	Zn	1.512100	0.160589	-0.123782
Zn9	Zn	1.491390	0.144840	0.123917
O10	O	1.517674	0.309652	-0.093925
C11	C	1.272855	0.158629	0.000059
C12	C	1.133080	0.155574	0.000053
C13	C	1.075961	0.160664	-0.102417
C14	C	0.944625	0.157801	-0.102398
C15	C	0.927537	0.144761	0.102570
C16	C	1.058871	0.147617	0.102550
C17	C	1.085825	0.168197	-0.220754
C18	C	0.954489	0.165334	-0.220736
C19	C	1.488222	-0.036906	0.000061
C20	C	1.471960	-0.152101	0.000062
C21	C	1.667461	-0.391648	0.000093
C22	C	1.652187	-0.499885	0.000094
C23	C	1.426138	-0.476812	0.000074
C24	C	1.441412	-0.368576	0.000073
C25	C	1.562078	-0.325998	0.000080
C26	C	1.577352	-0.217759	0.000071
C27	C	1.351302	-0.194690	0.000059
C28	C	1.336028	-0.302926	0.000060
C29	C	1.730635	0.146800	0.000079
C30	C	1.870409	0.149854	0.000092
C31	C	1.515267	0.342335	0.000077
C32	C	1.531529	0.457529	0.000083
N33	N	1.526243	0.171337	-0.292830
N34	N	1.477256	0.134084	0.292965
C35	C	1.378800	0.059129	0.470457
C36	C	1.388696	0.066670	0.352120
C37	C	1.555923	0.193964	0.352156
C38	C	1.546028	0.186423	0.470493
C39	C	1.457464	0.119002	0.529640
C40	C	1.447576	0.111456	0.647979
C41	C	1.614796	0.238756	0.648013
C42	C	1.624692	0.246297	0.529676
H43	H	1.675604	-0.183094	0.000073
O44	O	1.784753	-0.350456	0.000150
C45	C	2.007358	-0.384755	0.000097
C46	C	1.874595	-0.431542	0.000056
H47	H	2.080033	-0.450288	-0.000003
H48	H	2.013658	-0.339697	0.078795
H49	H	2.026673	-0.329623	-0.078561
H50	H	1.855192	-0.486718	0.078661
H51	H	1.868361	-0.476536	-0.078694
O52	O	1.292717	-0.006226	0.528045
C53	C	1.111095	-0.022312	0.661595
C54	C	1.208521	0.051817	0.596470
H55	H	1.042981	0.024589	0.716915
H56	H	1.161491	-0.082563	0.717064
H57	H	1.056632	-0.063841	0.598947
H58	H	1.263012	0.093419	0.659037
H59	H	1.158050	0.112003	0.540984
H60	H	1.738002	-0.553334	0.000108
H61	H	0.867100	0.138282	0.186019
O62	O	1.312226	0.008399	0.294803
C63	C	1.145241	-0.118589	0.307256
C64	C	1.231789	-0.052674	0.372308
H65	H	1.080168	-0.167967	0.369890
H66	H	1.204901	-0.171885	0.251893
H67	H	1.086521	-0.064647	0.251811
H68	H	1.290526	-0.106536	0.427814
H69	H	1.172058	0.000632	0.427599
H70	H	1.128061	0.099386	-0.266202
H71	H	1.628023	0.248859	0.303978
O72	O	1.309025	-0.518352	0.000019
C73	C	1.185321	-0.674884	0.000092
C74	C	1.318023	-0.627978	0.000129
H75	H	1.192549	-0.763524	0.000205
H76	H	1.139141	-0.642999	-0.078611
H77	H	1.126015	-0.652847	0.078745
H78	H	1.377430	-0.649996	-0.078471
H79	H	1.364103	-0.659861	0.078884
H80	H	1.237785	-0.337609	0.000058
H81	H	1.105372	0.143456	0.185991
H82	H	1.265492	-0.141224	0.000039
O83	O	1.710688	0.311699	0.472041
C84	C	1.799996	0.379780	0.289752
C85	C	1.702566	0.305654	0.354878
H86	H	1.793444	0.374934	0.195015
H87	H	1.898575	0.356116	0.312934
H88	H	1.780035	0.463232	0.313107
H89	H	1.722410	0.222180	0.331558
H90	H	1.604018	0.329407	0.331692
O91	O	1.691173	0.297080	0.705375
C92	C	1.757667	0.469883	0.741668
C93	C	1.671123	0.403961	0.676619
H94	H	1.741468	0.556309	0.718460
H95	H	1.860128	0.449271	0.718371
H96	H	1.735412	0.452862	0.836403
H97	H	1.693266	0.420947	0.581869
H98	H	1.568688	0.424584	0.700010
O99	O	1.134791	0.261152	-0.264681
C100	C	1.273318	0.349991	-0.409367
C101	C	1.217985	0.244647	-0.359721
H102	H	1.340571	0.336686	-0.486229
H103	H	1.326493	0.387365	-0.342867
H104	H	1.193772	0.403926	-0.435801
H105	H	1.297454	0.190633	-0.333293
H106	H	1.164777	0.207357	-0.426254
H107	H	0.919826	0.239925	-0.266162
O108	O	0.913138	0.077749	-0.264436
C109	C	0.904944	-0.110271	-0.249221
C110	C	0.951876	-0.011169	-0.199638
H111	H	0.936223	-0.182185	-0.196840
H112	H	0.945962	-0.113426	-0.340271
H113	H	0.797811	-0.108559	-0.247218
H114	H	1.059001	-0.012814	-0.201562
H115	H	0.910763	-0.008050	-0.108613
H116	H	1.375465	0.056557	0.696135
