data_functionalizedCrystal
_audit_creation_method	'MofGen! by Chris Wilmer'
_symmetry_space_group_name_H-M	'P1'
_symmetry_Int_Tables_number	1
_symmetry_cell_setting	triclinic
loop_
_symmetry_equiv_pos_as_xyz
  x,y,z
_cell_length_a	19.805407
_cell_length_b	19.805404
_cell_length_c	19.805399
_cell_angle_alpha	89.972890
_cell_angle_beta	89.979591
_cell_angle_gamma	90.031534
loop_
_atom_site_label
_atom_site_type_symbol
_atom_site_fract_x
_atom_site_fract_y
_atom_site_fract_z
Zn1	Zn	1.034721	-0.269444	-0.382737
Zn2	Zn	1.034629	-0.382632	-0.269550
Zn3	Zn	0.921535	-0.269466	-0.269560
Zn4	Zn	0.921493	-0.382600	-0.382695
O5	O	0.978094	-0.326036	-0.326135
O6	O	1.129425	-0.284463	-0.367736
O7	O	1.019607	-0.367643	-0.174834
O8	O	0.936606	-0.174747	-0.284595
O9	O	1.129358	-0.367622	-0.284578
O10	O	1.019763	-0.174730	-0.367746
O11	O	0.936517	-0.284501	-0.174842
O12	O	0.826813	-0.284470	-0.284554
O13	O	0.936533	-0.367567	-0.477417
O14	O	0.826782	-0.367589	-0.367674
O15	O	1.019721	-0.284431	-0.477448
O16	O	1.019565	-0.477345	-0.284537
O17	O	0.936444	-0.477321	-0.367664
C18	C	0.802238	-0.326029	-0.326111
C19	C	0.727006	-0.326042	-0.326116
C20	C	0.265254	-0.282816	-0.369528
C21	C	0.335942	-0.282817	-0.369523
C22	C	0.371245	-0.326046	-0.326157
C23	C	0.335855	-0.369281	-0.282798
C24	C	0.265168	-0.369283	-0.282807
C25	C	0.620928	-0.369276	-0.282762
C26	C	0.691620	-0.369270	-0.282755
C27	C	0.691703	-0.282810	-0.369479
C28	C	0.621016	-0.282812	-0.369488
C29	C	0.585632	-0.326049	-0.326131
C30	C	0.508984	-0.326048	-0.326138
C31	C	0.447892	-0.326044	-0.326147
C32	C	0.978009	-0.501892	-0.326109
C33	C	0.978034	-0.577124	-0.326121
C34	C	1.021542	-1.038904	-0.282946
C35	C	1.021510	-0.968216	-0.282933
C36	C	0.978183	-0.932885	-0.326171
C37	C	0.934880	-0.968247	-0.369421
C38	C	0.934909	-1.038934	-0.369430
C39	C	0.934763	-0.683173	-0.369384
C40	C	0.934739	-0.612481	-0.369373
C41	C	1.021364	-0.612456	-0.282886
C42	C	1.021392	-0.683143	-0.282895
C43	C	0.978087	-0.718498	-0.326142
C44	C	0.978121	-0.795146	-0.326155
C45	C	0.978152	-0.856238	-0.326162
C46	C	1.154637	-0.326043	-0.326160
C47	C	1.229869	-0.326046	-0.326171
C48	C	0.978132	-0.325993	-0.502678
C49	C	0.978149	-0.325975	-0.577910
C50	C	0.978199	-0.149493	-0.326176
C51	C	0.978244	-0.074261	-0.326194
C52	C	1.021466	-0.282684	-0.613272
C53	C	1.021473	-0.282664	-0.683960
C54	C	0.978165	-0.325939	-0.719286
C55	C	0.934844	-0.369232	-0.683919
C56	C	0.934834	-0.369248	-0.613232
C57	C	0.934882	-0.369169	-0.968993
C58	C	0.934896	-0.369151	-1.039685
C59	C	1.021521	-0.282586	-1.039721
C60	C	1.021511	-0.282601	-0.969033
C61	C	0.978187	-0.325891	-0.933673
C62	C	0.978179	-0.325911	-0.857025
C63	C	0.978176	-0.325924	-0.795933
C64	C	0.978096	-0.326029	-0.150279
C65	C	0.978211	-0.325857	-0.075048
H66	H	0.236359	-0.404487	-0.247502
H67	H	0.899599	-0.939476	-0.404624
C68	C	1.069147	-0.234997	-0.930175
C69	C	1.122262	-0.264336	-0.881582
C70	C	1.169897	-0.216728	-0.842724
C71	C	1.164416	-0.139780	-0.852459
C72	C	1.111298	-0.110437	-0.901054
C73	C	1.063664	-0.158045	-0.939912
H74	H	1.126322	-0.321301	-0.874373
H75	H	1.209218	-0.238451	-0.806750
H76	H	1.199678	-0.104538	-0.823694
H77	H	1.107239	-0.053472	-0.908262
H78	H	1.024343	-0.136323	-0.975886
H79	H	1.056766	-0.939429	-0.247716
H80	H	1.056676	-0.711905	-0.247688
H81	H	0.899454	-0.583716	-0.404584
C82	C	0.887188	-0.416870	-0.574329
C83	C	0.810247	-0.411343	-0.584031
C84	C	0.762598	-0.458964	-0.545128
C85	C	0.791890	-0.512112	-0.496522
C86	C	0.868835	-0.517641	-0.486818
C87	C	0.916484	-0.470020	-0.525721
H88	H	0.788560	-0.371997	-0.620014
H89	H	0.705638	-0.454870	-0.552312
H90	H	0.756618	-0.547364	-0.467723
H91	H	0.890522	-0.556987	-0.450835
H92	H	0.973444	-0.474114	-0.518537
H93	H	1.056795	-0.247335	-1.068519
H94	H	0.364750	-0.247616	-0.404832
H95	H	0.899496	-0.711951	-0.404593
H96	H	0.592276	-0.247608	-0.404798
C97	C	0.374687	-0.416834	-0.235094
C98	C	0.423270	-0.387433	-0.182000
C99	C	0.462100	-0.434985	-0.134294
C100	C	0.452348	-0.511939	-0.139682
C101	C	0.403762	-0.541343	-0.192780
C102	C	0.364932	-0.493791	-0.240486
H103	H	0.430491	-0.330464	-0.178008
H104	H	0.498066	-0.413217	-0.094988
H105	H	0.481092	-0.547139	-0.104368
H106	H	0.396541	-0.598312	-0.196771
H107	H	0.328966	-0.515559	-0.279792
H108	H	1.056827	-1.067665	-0.247739
C109	C	0.887205	-0.416765	-0.930103
C110	C	0.887165	-0.416767	-0.852349
C111	C	0.839473	-0.464353	-0.813456
C112	C	0.791822	-0.511937	-0.852315
C113	C	0.791860	-0.511937	-0.930073
C114	C	0.839552	-0.464351	-0.968966
H115	H	0.922441	-0.381540	-0.823580
H116	H	0.839445	-0.464353	-0.755894
H117	H	0.756517	-0.547163	-0.823524
H118	H	0.756584	-0.547163	-0.958843
H119	H	0.839580	-0.464351	-1.026528
C120	C	0.730627	-0.235251	-0.417177
C121	C	0.779230	-0.264644	-0.470264
C122	C	0.818152	-0.217085	-0.517958
C123	C	0.808472	-0.140133	-0.512566
C124	C	0.759867	-0.110736	-0.459477
C125	C	0.720944	-0.158296	-0.411783
H126	H	0.786398	-0.321612	-0.474257
H127	H	0.854133	-0.238846	-0.557258
H128	H	0.837285	-0.104927	-0.547872
H129	H	0.752699	-0.053768	-0.455484
H130	H	0.684964	-0.136534	-0.372483
C131	C	0.887250	-0.416752	-1.078545
C132	C	0.892714	-0.493701	-1.068809
C133	C	0.845070	-0.541299	-1.107668
C134	C	0.791963	-0.511948	-1.156264
C135	C	0.786498	-0.434995	-1.166002
C136	C	0.834141	-0.387397	-1.127142
H137	H	0.932029	-0.515432	-1.032834
H138	H	0.849117	-0.598265	-1.100459
H139	H	0.756695	-0.547183	-1.185030
H140	H	0.747183	-0.413264	-1.201977
H141	H	0.830094	-0.330432	-1.134351
C142	C	1.068996	-0.573563	-0.235307
C143	C	1.039683	-0.525031	-0.182128
C144	C	1.087316	-0.486140	-0.134553
C145	C	1.164261	-0.495781	-0.140157
C146	C	1.193578	-0.544315	-0.193339
C147	C	1.145945	-0.583206	-0.240914
H148	H	0.982720	-0.517892	-0.177977
H149	H	1.065613	-0.450212	-0.095184
H150	H	1.199522	-0.466992	-0.104939
H151	H	1.250541	-0.551454	-0.197490
H152	H	1.167648	-0.619134	-0.280282
C153	C	0.226424	-0.235262	-0.417232
C154	C	0.236175	-0.240888	-0.494166
C155	C	0.197347	-0.193335	-0.541873
C156	C	0.148767	-0.140156	-0.512646
C157	C	0.139013	-0.134528	-0.435708
C158	C	0.177841	-0.182081	-0.388001
H159	H	0.272139	-0.280256	-0.515806
H160	H	0.204568	-0.197501	-0.598828
H161	H	0.120024	-0.104955	-0.547961
H162	H	0.103049	-0.095160	-0.414068
H163	H	0.170621	-0.177915	-0.331046
H164	H	0.720362	-0.404475	-0.247440
H165	H	0.899655	-1.067720	-0.404651
H166	H	0.592128	-0.404481	-0.247457
H167	H	1.056734	-0.247446	-0.584514
H168	H	0.899580	-0.404465	-0.712687
H169	H	1.056747	-0.247414	-0.712748
