data_functionalizedCrystal
_audit_creation_method	'MofGen! by Chris Wilmer'
_symmetry_space_group_name_H-M	'P1'
_symmetry_Int_Tables_number	1
_symmetry_cell_setting	triclinic
loop_
_symmetry_equiv_pos_as_xyz
  x,y,z
_cell_length_a	12.759401
_cell_length_b	16.120484
_cell_length_c	12.759393
_cell_angle_alpha	92.862621
_cell_angle_beta	89.982620
_cell_angle_gamma	92.925560
loop_
_atom_site_label
_atom_site_type_symbol
_atom_site_fract_x
_atom_site_fract_y
_atom_site_fract_z
Zn1	Zn	1.584960	-0.331851	-0.615146
Zn2	Zn	2.084960	0.168149	-0.115146
Zn3	Zn	1.575915	-0.471289	-0.448359
Zn4	Zn	2.075915	0.028711	0.051641
Zn5	Zn	1.409262	-0.331895	-0.439488
Zn6	Zn	1.909262	0.168105	0.060512
Zn7	Zn	1.400312	-0.471225	-0.623996
Zn8	Zn	1.900312	0.028775	-0.123996
O9	O	1.492612	-0.401565	-0.531747
O10	O	1.992612	0.098435	-0.031747
O11	O	1.730780	-0.350357	-0.593029
O12	O	2.230780	0.149643	-0.093029
O13	O	1.553768	-0.452844	-0.300164
O14	O	2.053768	0.047156	0.199836
O15	O	1.440101	-0.215224	-0.455373
O16	O	1.940101	0.284776	0.044627
O17	O	1.724135	-0.452801	-0.470492
O18	O	2.224135	0.047199	0.029508
O19	O	1.569185	-0.215192	-0.584428
O20	O	2.069185	0.284808	-0.084428
O21	O	1.431330	-0.350432	-0.293646
O22	O	1.931330	0.149568	0.206354
O23	O	1.261055	-0.350369	-0.463955
O24	O	1.761055	0.149631	0.036045
O25	O	1.424845	-0.452691	-0.769840
O26	O	1.924845	0.047309	-0.269840
O27	O	1.254478	-0.452734	-0.599512
O28	O	1.754478	0.047266	-0.099512
O29	O	1.560505	-0.350294	-0.763338
O30	O	2.060505	0.149706	-0.263338
O31	O	1.545089	-0.587946	-0.479074
O32	O	2.045089	-0.087946	0.020926
O33	O	1.416074	-0.587899	-0.608114
O34	O	1.916074	-0.087899	-0.108114
C35	C	1.219646	-0.401550	-0.531732
C36	C	1.719646	0.098450	-0.031732
C37	C	1.102868	-0.401563	-0.531751
C38	C	1.602868	0.098437	-0.031751
C39	C	1.478657	-0.618172	-0.545539
C40	C	1.978657	-0.118172	-0.045539
C41	C	1.472783	-0.710838	-0.551475
C42	C	1.972783	-0.210838	-0.051475
C43	C	1.044604	-0.454950	-0.602230
C44	C	1.544604	0.045050	-0.102230
C45	C	0.934879	-0.454961	-0.602242
C46	C	1.434879	0.045039	-0.102242
C47	C	0.941693	-0.348196	-0.461287
C48	C	1.441693	0.151804	0.038713
C49	C	1.051416	-0.348181	-0.461281
C50	C	1.551416	0.151819	0.038719
C51	C	1.040669	-0.516593	-0.683607
C52	C	1.540669	-0.016593	-0.183607
C53	C	0.930944	-0.516603	-0.683619
C54	C	1.430944	-0.016603	-0.183619
C55	C	1.462065	-0.880498	-0.562333
C56	C	1.962065	-0.380498	-0.062333
C57	C	1.523347	-0.921791	-0.501178
C58	C	2.023347	-0.421791	-0.001178
C59	C	1.517384	-1.016197	-0.507219
C60	C	2.017384	-0.516197	-0.007219
C61	C	1.468028	-0.786085	-0.556293
C62	C	1.968028	-0.286085	-0.056293
C63	C	1.766644	-0.401581	-0.531763
C64	C	2.266644	0.098419	-0.031763
C65	C	1.883421	-0.401588	-0.531770
C66	C	2.383421	0.098412	-0.031770
C67	C	1.492686	-0.401480	-0.805775
C68	C	1.992686	0.098520	-0.305775
C69	C	1.492717	-0.401444	-0.922549
C70	C	1.992717	0.098556	-0.422549
C71	C	1.506650	-0.184112	-0.517924
C72	C	2.006650	0.315888	-0.017924
C73	C	1.512632	-0.091447	-0.512033
C74	C	2.012632	0.408553	-0.012033
C75	C	1.428993	-0.348108	-0.974023
C76	C	1.928993	0.151892	-0.474023
C77	C	1.429026	-0.348083	-1.083746
C78	C	1.929026	0.151917	-0.583746
C79	C	1.556517	-0.454733	-1.090511
C80	C	2.056517	0.045267	-0.590511
C81	C	1.556478	-0.454761	-0.980791
C82	C	2.056478	0.045239	-0.480791
C83	C	1.355390	-0.286533	-0.970118
C84	C	1.855390	0.213467	-0.470118
C85	C	1.355423	-0.286508	-1.079841
C86	C	1.855423	0.213492	-0.579841
C87	C	1.492603	-0.401590	-0.258781
C88	C	1.992603	0.098410	0.241219
C89	C	1.492790	-0.401391	-0.141992
C90	C	1.992790	0.098609	0.358008
H91	H	1.098851	-0.304703	-0.403897
H92	H	1.598851	0.195297	0.096103
H93	H	1.071580	-0.499373	-0.763915
H94	H	1.571580	0.000627	-0.263915
H95	H	0.899787	-0.304733	-0.403914
H96	H	1.399787	0.195267	0.096086
Cl97	Cl	1.087122	-0.611265	-0.644533
Cl98	Cl	1.587122	-0.111265	-0.144533
H99	H	1.272891	-0.303823	-0.941443
H100	H	1.772891	0.196177	-0.441443
H101	H	0.898423	-0.493556	-0.759501
H102	H	1.398423	0.006444	-0.259501
Cl103	Cl	1.374151	-0.935379	-0.650167
Cl104	Cl	1.874151	-0.435379	-0.150167
H105	H	0.897009	-0.581156	-0.665804
H106	H	1.397009	-0.081156	-0.165804
H107	H	1.580290	-0.886243	-0.444282
H108	H	2.080290	-0.386243	0.055718
Cl109	Cl	1.636579	-0.521825	-0.916085
Cl110	Cl	2.136579	-0.021825	-0.416085
H111	H	1.608430	-0.498141	-1.137944
H112	H	2.108430	0.001859	-0.637944
H113	H	1.388487	-0.225210	-0.932191
H114	H	1.888487	0.274790	-0.432191
H115	H	1.276643	-0.309620	-1.115341
H116	H	1.776643	0.190380	-0.615341
Cl117	Cl	1.395352	-0.186775	-1.119493
Cl118	Cl	1.895352	0.313225	-0.619493
