data_functionalizedCrystal
_audit_creation_method	'MofGen! by Chris Wilmer'
_symmetry_space_group_name_H-M	'P1'
_symmetry_Int_Tables_number	1
_symmetry_cell_setting	triclinic
loop_
_symmetry_equiv_pos_as_xyz
  x,y,z
_cell_length_a	17.699083
_cell_length_b	14.971486
_cell_length_c	13.448316
_cell_angle_alpha	89.998199
_cell_angle_beta	90.000153
_cell_angle_gamma	96.551429
loop_
_atom_site_label
_atom_site_type_symbol
_atom_site_fract_x
_atom_site_fract_y
_atom_site_fract_z
O1	O	-0.098633	1.186608	-0.082563
O2	O	0.234700	1.519942	0.250770
O3	O	0.568033	1.853275	0.584104
O4	O	-0.110445	0.926168	-0.082588
O5	O	0.222889	1.259501	0.250745
O6	O	0.556222	1.592834	0.584078
O7	O	0.005632	1.063746	-0.082585
O8	O	0.338965	1.397079	0.250749
O9	O	0.672299	1.730413	0.584082
O10	O	-0.214710	1.049030	-0.082567
O11	O	0.118623	1.382363	0.250767
O12	O	0.451956	1.715697	0.584100
O13	O	0.005639	1.063729	0.082799
O14	O	0.338972	1.397062	0.416133
O15	O	0.672306	1.730395	0.749466
O16	O	-0.110438	0.926150	0.082796
O17	O	0.222896	1.259484	0.416129
O18	O	0.556229	1.592817	0.749462
O19	O	-0.098626	1.186591	0.082821
O20	O	0.234707	1.519924	0.416154
O21	O	0.568040	1.853258	0.749488
Cu22	Cu	-0.104531	1.056369	0.097909
Cu23	Cu	0.228802	1.389703	0.431242
Cu24	Cu	0.562135	1.723036	0.764576
Cu25	Cu	-0.104540	1.056390	-0.097676
Cu26	Cu	0.228794	1.389723	0.235657
Cu27	Cu	0.562127	1.723056	0.568990
O28	O	-0.214703	1.049013	0.082817
O29	O	0.118630	1.382346	0.416151
O30	O	0.451964	1.715679	0.749484
C31	C	-0.109913	0.892836	0.000100
C32	C	0.223420	1.226169	0.333434
C33	C	0.556754	1.559503	0.666767
C34	C	-0.108330	0.793544	0.000090
C35	C	0.225003	1.126878	0.333423
C36	C	0.558337	1.460211	0.666756
C37	C	-0.176522	0.736085	0.000097
C38	C	0.156811	1.069418	0.333430
C39	C	0.490145	1.402751	0.666763
C40	C	-0.175030	0.642790	0.000111
C41	C	0.158303	0.976124	0.333445
C42	C	0.491636	1.309457	0.666778
C43	C	-0.105346	0.606958	0.000112
C44	C	0.227988	0.940291	0.333445
C45	C	0.561321	1.273624	0.666779
C46	C	-0.037148	0.664425	0.000108
C47	C	0.296185	0.997758	0.333441
C48	C	0.629518	1.331091	0.666775
C49	C	-0.038641	0.757717	0.000100
C50	C	0.294692	1.091051	0.333434
C51	C	0.628026	1.424384	0.666767
C52	C	-0.034042	0.469973	0.000121
C53	C	0.299291	0.803306	0.333455
C54	C	0.632625	1.136640	0.666788
C55	C	-0.032549	0.376674	0.000127
C56	C	0.300784	0.710007	0.333461
C57	C	0.634118	1.043341	0.666794
C58	C	-0.170431	0.355046	0.000133
C59	C	0.162902	0.688379	0.333466
C60	C	0.496235	1.021713	0.666799
C61	C	-0.171924	0.448339	0.000125
C62	C	0.161409	0.781672	0.333458
C63	C	0.494743	1.115005	0.666792
C64	C	-0.103726	0.505799	0.000119
C65	C	0.229607	0.839133	0.333452
C66	C	0.562940	1.172466	0.666786
C67	C	-0.242905	1.049549	0.000128
C68	C	0.090428	1.382882	0.333461
C69	C	0.423762	1.716215	0.666795
C70	C	-0.326927	1.051131	0.000135
C71	C	0.006406	1.384464	0.333469
C72	C	0.339740	1.717797	0.666802
C73	C	-0.375349	0.970375	0.000127
C74	C	-0.042016	1.303708	0.333461
C75	C	0.291318	1.637042	0.666794
C76	C	-0.454296	0.971867	0.000116
C77	C	-0.120963	1.305200	0.333449
C78	C	0.212371	1.638533	0.666783
C79	C	-0.484819	1.054115	0.000119
C80	C	-0.151486	1.387448	0.333453
C81	C	0.181847	1.720782	0.666786
C82	C	-0.436391	1.134877	0.000124
C83	C	-0.103058	1.468210	0.333458
C84	C	0.230276	1.801543	0.666791
C85	C	-0.357445	1.133384	0.000129
C86	C	-0.024112	1.466717	0.333462
C87	C	0.309221	1.800051	0.666795
C88	C	-0.754769	1.140898	0.000105
C89	C	-0.421435	1.474232	0.333438
C90	C	-0.088102	1.807565	0.666772
C91	C	-0.833720	1.142385	0.000104
C92	C	-0.500387	1.475718	0.333437
C93	C	-0.167054	1.809051	0.666770
C94	C	-0.851619	0.979381	0.000092
C95	C	-0.518286	1.312714	0.333426
C96	C	-0.184953	1.646047	0.666759
C97	C	-0.772674	0.977888	0.000097
C98	C	-0.439341	1.311221	0.333430
C99	C	-0.106007	1.644555	0.666763
C100	C	-0.724252	1.058649	0.000096
C101	C	-0.390919	1.391983	0.333430
C102	C	-0.057586	1.725316	0.666763
C103	C	-0.638649	1.057031	0.000107
C104	C	-0.305316	1.390364	0.333440
C105	C	0.028017	1.723698	0.666774
C106	C	-0.570421	1.055734	0.000116
C107	C	-0.237088	1.389068	0.333449
C108	C	0.096246	1.722401	0.666783
C109	C	0.033834	1.063210	0.000103
C110	C	0.367167	1.396543	0.333436
C111	C	0.700501	1.729877	0.666769
C112	C	0.117856	1.061628	0.000089
C113	C	0.451189	1.394962	0.333422
C114	C	0.784523	1.728295	0.666755
C115	C	-0.099158	1.219923	0.000130
C116	C	0.234175	1.553256	0.333464
C117	C	0.567509	1.886589	0.666797
C118	C	-0.100741	1.319214	0.000134
C119	C	0.232592	1.652548	0.333468
C120	C	0.565926	1.985881	0.666801
N121	N	-0.104525	1.056361	0.235473
N122	N	0.228808	1.389695	0.568807
N123	N	0.562142	1.723028	0.902140
N124	N	-0.104540	1.056404	-0.235241
N125	N	0.228793	1.389738	0.098093
N126	N	0.562127	1.723071	0.431426
C127	C	-0.053147	1.117300	0.287515
C128	C	0.280186	1.450633	0.620849
C129	C	0.613519	1.783967	0.954182
C130	C	-0.053147	1.117306	0.391619
C131	C	0.280187	1.450639	0.724952
C132	C	0.613520	1.783972	1.058285
C133	C	-0.104528	1.056376	0.443678
C134	C	0.228806	1.389709	0.777011
C135	C	0.562139	1.723043	1.110345
C136	C	-0.155908	0.995431	0.391629
C137	C	0.177425	1.328764	0.724962
C138	C	0.510759	1.662098	1.058295
C139	C	-0.155904	0.995422	0.287527
C140	C	0.177429	1.328755	0.620861
C141	C	0.510762	1.662089	0.954194
C142	C	-0.155913	0.995456	0.608609
C143	C	0.177420	1.328789	0.941942
C144	C	0.510754	1.662123	1.275275
C145	C	-0.155918	0.995466	0.712717
C146	C	0.177415	1.328799	1.046051
C147	C	0.510749	1.662133	1.379384
C148	C	-0.053155	1.117339	0.712700
C149	C	0.280178	1.450673	1.046033
C150	C	0.613511	1.784006	1.379367
C151	C	-0.053152	1.117330	0.608599
C152	C	0.280182	1.450664	0.941932
C153	C	0.613515	1.783997	1.275265
C154	C	-0.104533	1.056386	0.556557
C155	C	0.228800	1.389719	0.889890
C156	C	0.562134	1.723053	1.223223
H157	H	0.021492	0.516756	0.000118
H158	H	0.354825	0.850089	0.333452
H159	H	0.688159	1.183422	0.666785
H160	H	-0.715353	1.206659	0.000111
H161	H	-0.382020	1.539993	0.333444
H162	H	-0.048686	1.873326	0.666778
H163	H	0.019590	0.635242	0.000123
H164	H	0.352924	0.968576	0.333456
H165	H	0.686257	1.301909	0.666789
H166	H	-0.350504	0.903399	0.000136
H167	H	-0.017170	1.236732	0.333470
H168	H	0.316163	1.570065	0.666803
H169	H	0.016888	0.804501	0.000094
H170	H	0.350221	1.137834	0.333428
H171	H	0.683555	1.471167	0.666761
Br172	Br	-0.291728	1.242985	0.000129
Br173	Br	0.041605	1.576319	0.333462
Br174	Br	0.374939	1.909652	0.666795
H175	H	-0.493719	0.906107	0.000106
H176	H	-0.160385	1.239440	0.333440
H177	H	0.172948	1.572774	0.666773
Br178	Br	-0.731254	0.866262	0.000099
Br179	Br	-0.397920	1.199595	0.333432
Br180	Br	-0.064587	1.532928	0.666766
H181	H	-0.233267	0.765252	0.000096
H182	H	0.100066	1.098585	0.333429
H183	H	0.433399	1.431919	0.666762
H184	H	-0.197741	0.945817	0.434021
H185	H	0.135592	1.279150	0.767355
H186	H	0.468926	1.612483	1.100688
Br187	Br	0.016583	1.200001	0.216874
Br188	Br	0.349917	1.533335	0.550208
Br189	Br	0.683250	1.866668	0.883541
H190	H	-0.225960	0.308257	0.000142
H191	H	0.107373	0.641590	0.333475
H192	H	0.440707	0.974923	0.666808
H193	H	-0.461249	1.201845	0.000129
H194	H	-0.127916	1.535178	0.333462
H195	H	0.205418	1.868512	0.666796
Br196	Br	0.062024	0.328044	0.000161
Br197	Br	0.395357	0.661377	0.333495
Br198	Br	0.728691	0.994710	0.666828
Br199	Br	-0.917339	0.869774	0.000090
Br200	Br	-0.584005	1.203107	0.333423
Br201	Br	-0.250672	1.536440	0.666756
H202	H	-0.858569	1.209365	0.000105
H203	H	-0.525235	1.542699	0.333438
H204	H	-0.191902	1.876032	0.666772
Br205	Br	-0.225629	0.912710	0.216899
Br206	Br	0.107704	1.246043	0.550232
Br207	Br	0.441037	1.579377	0.883565
Br208	Br	0.016573	1.200027	0.537943
Br209	Br	0.349906	1.533361	0.871276
Br210	Br	0.683240	1.866694	1.204610
H211	H	-0.197751	0.945826	0.566240
H212	H	0.135583	1.279159	0.899573
H213	H	0.468916	1.612492	1.232906
Br214	Br	-0.267581	0.564812	0.000118
Br215	Br	0.065753	0.898145	0.333451
Br216	Br	0.399086	1.231478	0.666784
H217	H	-0.011311	1.166926	0.433991
H218	H	0.322023	1.500259	0.767324
H219	H	0.655356	1.833592	1.100657
H220	H	-0.197757	0.945850	0.755099
H221	H	0.135576	1.279183	1.088432
H222	H	0.468910	1.612517	1.421766
H223	H	-0.228667	0.477510	0.000115
H224	H	0.104666	0.810844	0.333448
H225	H	0.438000	1.144177	0.666782
H226	H	-0.011319	1.166962	0.755079
H227	H	0.322014	1.500295	1.088412
H228	H	0.655348	1.833629	1.421745
