data_functionalizedCrystal
_audit_creation_method	'MofGen! by Chris Wilmer'
_symmetry_space_group_name_H-M	'P1'
_symmetry_Int_Tables_number	1
_symmetry_cell_setting	triclinic
loop_
_symmetry_equiv_pos_as_xyz
  x,y,z
_cell_length_a	12.759401
_cell_length_b	19.120786
_cell_length_c	12.759393
_cell_angle_alpha	92.476000
_cell_angle_beta	90.020938
_cell_angle_gamma	92.466720
loop_
_atom_site_label
_atom_site_type_symbol
_atom_site_fract_x
_atom_site_fract_y
_atom_site_fract_z
Zn1	Zn	1.588347	-0.279569	0.576137
Zn2	Zn	1.580708	-0.397044	0.392943
Zn3	Zn	1.412643	-0.279607	0.400470
Zn4	Zn	1.405111	-0.396995	0.568583
O5	O	1.496702	-0.338304	0.484533
O6	O	1.734354	-0.295157	0.551847
O7	O	1.558370	-0.381502	0.246918
O8	O	1.442300	-0.181311	0.430084
O9	O	1.728742	-0.381465	0.417255
O10	O	1.571389	-0.181283	0.559146
O11	O	1.434893	-0.295221	0.252448
O12	O	1.264623	-0.295174	0.422759
O13	O	1.429462	-0.381382	0.716609
O14	O	1.259089	-0.381418	0.546271
O15	O	1.564085	-0.295110	0.722158
O16	O	1.551066	-0.495328	0.409930
O17	O	1.422055	-0.495292	0.538972
C18	C	1.223736	-0.338295	0.484513
C19	C	1.106958	-0.338308	0.484528
C20	C	1.049238	-0.383284	0.548731
C21	C	0.939513	-0.383287	0.548751
C22	C	0.945240	-0.293336	0.420358
C23	C	1.054962	-0.293330	0.420343
C24	C	1.484943	-0.520796	0.472838
C25	C	1.480008	-0.598867	0.467870
C26	C	1.544849	-0.635470	0.532786
C27	C	1.540208	-0.708826	0.528119
C28	C	1.470731	-0.745577	0.458531
C29	C	1.405883	-0.708969	0.393612
C30	C	1.410519	-0.635615	0.398284
C31	C	1.453367	-0.967065	0.441064
C32	C	1.448738	-1.040425	0.436394
C33	C	1.583063	-1.040276	0.570903
C34	C	1.587698	-0.966920	0.575565
C35	C	1.522846	-0.930318	0.510650
C36	C	1.465988	-0.820559	0.453757
C37	C	1.527584	-0.855338	0.515430
C38	C	1.770735	-0.338313	0.484554
C39	C	1.887511	-0.338317	0.484563
C40	C	1.496785	-0.338236	0.758571
C41	C	1.496821	-0.338207	0.875349
C42	C	1.508536	-0.155099	0.496297
C43	C	1.513579	-0.077028	0.501310
C44	C	1.496683	-0.338320	0.211565
C45	C	1.496864	-0.338151	0.094799
C46	C	1.566924	-0.293278	0.933103
C47	C	1.566944	-0.293248	1.042829
C48	C	1.426753	-0.383082	1.037038
C49	C	1.426729	-0.383108	0.927314
H50	H	1.601430	-0.605552	0.589447
H51	H	1.584149	-0.825413	0.572093
H52	H	1.593017	-0.738625	0.580973
C53	C	1.625825	-0.174307	1.084237
C54	C	1.644008	-0.243860	1.106307
H55	H	1.673408	-0.143816	1.123421
H56	H	1.555913	-0.164022	1.102874
H57	H	1.635840	-0.167911	1.011449
H58	H	1.633985	-0.250258	1.179095
H59	H	1.713937	-0.254149	1.087677
C60	C	1.367893	-0.502008	1.063168
C61	C	1.349718	-0.432441	1.094159
H62	H	1.320331	-0.532480	1.098427
H63	H	1.437815	-0.512281	1.080505
H64	H	1.357843	-0.508443	0.989554
H65	H	1.359777	-0.426004	1.167773
H66	H	1.279780	-0.422164	1.076829
C67	C	1.406000	-0.477615	0.797837
C68	C	1.349668	-0.432498	0.863818
H69	H	1.358424	-0.508100	0.758634
H70	H	1.450034	-0.504476	0.838923
H71	H	1.447732	-0.450867	0.751194
H72	H	1.307941	-0.459246	0.910466
H73	H	1.305616	-0.405635	0.822729
C74	C	1.184431	-0.198829	0.412020
C75	C	1.118416	-0.243888	0.349766
H76	H	1.223599	-0.168304	0.368451
H77	H	1.231095	-0.225612	0.450237
H78	H	1.143365	-0.172003	0.459581
H79	H	1.159483	-0.270718	0.302210
H80	H	1.071747	-0.217102	0.311531
C81	C	1.720009	-0.974145	0.708051
C82	C	1.664073	-0.926525	0.652056
H83	H	1.767160	-0.949205	0.755273
H84	H	1.758404	-1.002755	0.660488
H85	H	1.672397	-1.002762	0.746381
H86	H	1.711686	-0.897911	0.613719
H87	H	1.625676	-0.897903	0.699626
C88	C	1.592361	-1.122689	0.706989
C89	C	1.654331	-1.080513	0.642266
H90	H	1.636360	-1.147526	0.751053
H91	H	1.550332	-1.155069	0.664872
H92	H	1.548377	-1.094071	0.748951
H93	H	1.698311	-1.109132	0.600298
H94	H	1.696378	-1.048129	0.684388
H95	H	0.892522	-0.419910	0.601033
C96	C	1.080900	-0.417632	0.724344
C97	C	1.106396	-0.432715	0.619292
H98	H	1.116191	-0.448146	0.767907
H99	H	1.007301	-0.424075	0.733533
H100	H	1.101934	-0.370448	0.742840
H101	H	1.085355	-0.479898	0.600793
H102	H	1.180011	-0.426278	0.610098
C103	C	0.779585	-0.253404	0.363370
C104	C	0.888082	-0.243900	0.349804
H105	H	0.744301	-0.222886	0.319806
H106	H	0.762303	-0.243183	0.434636
H107	H	0.758567	-0.300587	0.344850
H108	H	0.909101	-0.196718	0.368332
H109	H	0.905371	-0.254116	0.278522
H110	H	1.623994	-0.256715	0.890798
C111	C	1.269416	-1.063160	0.383624
C112	C	1.372360	-1.080828	0.359904
H113	H	1.222270	-1.088109	0.336407
H114	H	1.262892	-1.014242	0.377106
H115	H	1.253267	-1.075159	0.453441
H116	H	1.388512	-1.068825	0.290089
H117	H	1.378888	-1.129758	0.366413
C118	C	1.317242	-0.884681	0.431576
C119	C	1.382087	-0.926842	0.369700
H120	H	1.273231	-0.859852	0.387513
H121	H	1.359276	-0.852293	0.473675
H122	H	1.275229	-0.913307	0.475491
H123	H	1.424105	-0.898215	0.325790
H124	H	1.340048	-0.959234	0.327583
H125	H	1.357717	-0.605813	0.345424
C126	C	1.273568	-0.701742	0.261133
C127	C	1.329507	-0.749364	0.317121
H128	H	1.226414	-0.726681	0.213913
H129	H	1.321171	-0.673125	0.222809
H130	H	1.235169	-0.673132	0.308707
H131	H	1.367913	-0.777971	0.269546
H132	H	1.281898	-0.777993	0.355446
H133	H	1.409422	-0.850490	0.397095
