data_functionalizedCrystal
_audit_creation_method	'MofGen! by Chris Wilmer'
_symmetry_space_group_name_H-M	'P1'
_symmetry_Int_Tables_number	1
_symmetry_cell_setting	triclinic
loop_
_symmetry_equiv_pos_as_xyz
  x,y,z
_cell_length_a	25.639234
_cell_length_b	25.639242
_cell_length_c	25.639239
_cell_angle_alpha	90.034213
_cell_angle_beta	90.024584
_cell_angle_gamma	90.026995
loop_
_atom_site_label
_atom_site_type_symbol
_atom_site_fract_x
_atom_site_fract_y
_atom_site_fract_z
Zn1	Zn	-0.295742	-0.799250	0.208247
Zn2	Zn	0.204258	-0.299250	0.708247
Zn3	Zn	-0.208307	-0.799166	0.295674
Zn4	Zn	0.291693	-0.299166	0.795674
Zn5	Zn	-0.208306	-0.711819	0.208248
Zn6	Zn	0.291694	-0.211819	0.708248
Zn7	Zn	-0.295696	-0.711771	0.295646
Zn8	Zn	0.204304	-0.211771	0.795646
O9	O	-0.252013	-0.755502	0.251954
O10	O	0.247987	-0.255502	0.751954
O11	O	-0.284163	-0.872404	0.219855
O12	O	0.215837	-0.372404	0.719855
O13	O	-0.135141	-0.787564	0.284089
O14	O	0.364859	-0.287564	0.784089
O15	O	-0.219924	-0.723472	0.135083
O16	O	0.280076	-0.223472	0.635083
O17	O	-0.219924	-0.872342	0.284088
O18	O	0.280076	-0.372342	0.784088
O19	O	-0.284163	-0.787707	0.135082
O20	O	0.215837	-0.287707	0.635082
O21	O	-0.135141	-0.723390	0.219858
O22	O	0.364859	-0.223390	0.719858
O23	O	-0.219880	-0.638647	0.219830
O24	O	0.280120	-0.138647	0.719830
O25	O	-0.368868	-0.723391	0.284040
O26	O	0.131132	-0.223391	0.784040
O27	O	-0.284085	-0.638613	0.284041
O28	O	0.215915	-0.138613	0.784041
O29	O	-0.368901	-0.787661	0.219828
O30	O	0.131099	-0.287661	0.719828
O31	O	-0.219880	-0.787518	0.368836
O32	O	0.280120	-0.287518	0.868836
O33	O	-0.284085	-0.723309	0.368815
O34	O	0.215915	-0.223309	0.868815
C35	C	-0.251977	-0.619659	0.251933
C36	C	0.248023	-0.119659	0.751933
C37	C	-0.251975	-0.561545	0.251937
C38	C	0.248025	-0.061545	0.751937
C39	C	-0.251989	-0.755414	0.387796
C40	C	0.248011	-0.255414	0.887796
C41	C	-0.251996	-0.755424	0.445910
C42	C	0.248004	-0.255424	0.945910
C43	C	-0.388386	-0.755530	0.251931
C44	C	0.111614	-0.255530	0.751931
C45	C	-0.446500	-0.755542	0.251921
C46	C	0.053500	-0.255542	0.751921
C47	C	-0.697686	-0.788971	0.285323
C48	C	-0.197686	-0.288971	0.785323
C49	C	-0.643082	-0.788965	0.285334
C50	C	-0.143082	-0.288965	0.785334
O51	O	-0.614839	-0.817364	0.313792
O52	O	-0.114839	-0.317364	0.813792
N53	N	-0.615774	-0.755553	0.251895
N54	N	-0.115774	-0.255553	0.751895
C55	C	-0.643073	-0.722141	0.218447
C56	C	-0.143073	-0.222141	0.718447
O57	O	-0.614832	-0.693720	0.190006
O58	O	-0.114832	-0.193720	0.690006
C59	C	-0.697677	-0.722144	0.218439
C60	C	-0.197677	-0.222144	0.718439
C61	C	-0.724982	-0.755562	0.251877
C62	C	-0.224982	-0.255562	0.751877
C63	C	-0.724991	-0.822386	0.318758
C64	C	-0.224991	-0.322386	0.818758
C65	C	-0.779592	-0.822392	0.318747
C66	C	-0.279592	-0.322392	0.818747
C67	C	-0.806887	-0.788983	0.285300
C68	C	-0.306887	-0.288983	0.785300
C69	C	-0.779582	-0.755568	0.251865
C70	C	-0.279582	-0.255568	0.751865
C71	C	-0.724975	-0.688729	0.184994
C72	C	-0.224975	-0.188729	0.684994
C73	C	-0.779582	-0.688735	0.184989
C74	C	-0.279582	-0.188735	0.684989
C75	C	-0.806887	-0.722153	0.218427
C76	C	-0.306887	-0.222153	0.718427
C77	C	-0.861478	-0.722165	0.218406
C78	C	-0.361478	-0.222165	0.718406
N79	N	-0.888786	-0.755578	0.251845
N80	N	-0.388786	-0.255578	0.751845
C81	C	-0.861491	-0.788986	0.285292
C82	C	-0.361491	-0.288986	0.785292
C83	C	-0.528403	-0.722136	0.218467
C84	C	-0.028403	-0.222136	0.718467
C85	C	-0.473800	-0.722135	0.218472
C86	C	0.026200	-0.222135	0.718472
C87	C	-0.473813	-0.788959	0.285360
C88	C	0.026187	-0.288959	0.785360
C89	C	-0.528416	-0.788962	0.285352
C90	C	-0.028416	-0.288962	0.785352
C91	C	-0.555710	-0.755548	0.251906
C92	C	-0.055710	-0.255548	0.751906
C93	C	-0.976156	-0.788997	0.285264
C94	C	-0.476156	-0.288997	0.785264
C95	C	-1.030761	-0.789002	0.285248
C96	C	-0.530761	-0.289002	0.785248
C97	C	-1.030744	-0.722176	0.218363
C98	C	-0.530744	-0.222176	0.718363
C99	C	-0.976144	-0.722173	0.218377
C100	C	-0.476144	-0.222173	0.718377
C101	C	-0.948851	-0.755585	0.251832
C102	C	-0.448851	-0.255585	0.751832
O103	O	-0.889756	-0.693780	0.189965
O104	O	-0.389756	-0.193780	0.689965
O105	O	-0.889739	-0.817397	0.313733
O106	O	-0.389739	-0.317397	0.813733
C107	C	-0.116170	-0.755503	0.251939
C108	C	0.383830	-0.255503	0.751939
C109	C	-0.058057	-0.755593	0.251802
C110	C	0.441943	-0.255593	0.751802
C111	C	-0.252049	-0.891875	0.251975
C112	C	0.247951	-0.391875	0.751975
C113	C	-0.252064	-0.949989	0.251984
C114	C	0.247936	-0.449989	0.751984
C115	C	-0.285413	-0.201173	0.285444
C116	C	0.214587	0.298827	0.785444
C117	C	-0.285421	-0.146568	0.285447
C118	C	0.214579	0.353432	0.785447
O119	O	-0.313821	-0.118324	0.313911
O120	O	0.186179	0.381676	0.813911
N121	N	-0.252047	-0.119263	0.251968
N122	N	0.247953	0.380737	0.751968
C123	C	-0.218666	-0.146564	0.218480
C124	C	0.281334	0.353436	0.718480
O125	O	-0.190280	-0.118324	0.190003
O126	O	0.309720	0.381676	0.690003
C127	C	-0.218661	-0.201167	0.218474
C128	C	0.281339	0.298833	0.718474
C129	C	-0.252034	-0.228470	0.251959
C130	C	0.247966	0.271530	0.751959
C131	C	-0.318783	-0.228476	0.318926
C132	C	0.181217	0.271524	0.818926
C133	C	-0.318774	-0.283076	0.318924
C134	C	0.181226	0.216924	0.818924
C135	C	-0.285395	-0.310374	0.285439
C136	C	0.214605	0.189626	0.785439
C137	C	-0.252024	-0.283071	0.251957
C138	C	0.247976	0.216929	0.751957
C139	C	-0.185283	-0.228468	0.184983
C140	C	0.314717	0.271532	0.684983
C141	C	-0.185281	-0.283075	0.184981
C142	C	0.314719	0.216925	0.684981
C143	C	-0.218654	-0.310378	0.218466
C144	C	0.281346	0.189622	0.718466
C145	C	-0.218636	-0.364969	0.218469
C146	C	0.281364	0.135031	0.718469
N147	N	-0.252010	-0.392275	0.251949
N148	N	0.247990	0.107725	0.751949
C149	C	-0.285389	-0.364977	0.285434
C150	C	0.214611	0.135023	0.785434
C151	C	-0.218680	-0.031893	0.218493
C152	C	0.281320	0.468107	0.718493
C153	C	-0.218683	0.022709	0.218501
C154	C	0.281317	0.522709	0.718501
C155	C	-0.285438	0.022701	0.285468
C156	C	0.214562	0.522701	0.785468
C157	C	-0.285433	-0.031902	0.285463
C158	C	0.214567	0.468098	0.785463
C159	C	-0.252054	-0.059199	0.251972
C160	C	0.247946	0.440801	0.751972
C161	C	-0.285368	-0.479642	0.285426
C162	C	0.214632	0.020358	0.785426
C163	C	-0.285354	-0.534247	0.285422
C164	C	0.214646	-0.034247	0.785422
C165	C	-0.218601	-0.534235	0.218453
C166	C	0.281399	-0.034235	0.718453
C167	C	-0.218612	-0.479634	0.218458
C168	C	0.281388	0.020366	0.718458
C169	C	-0.252000	-0.452339	0.251947
C170	C	0.248000	0.047661	0.751947
O171	O	-0.190252	-0.393248	0.190019
O172	O	0.309748	0.106752	0.690019
O173	O	-0.313776	-0.393223	0.313901
O174	O	0.186224	0.106777	0.813901
C175	C	-0.252048	-0.755604	0.115581
C176	C	0.247952	-0.255604	0.615581
C177	C	-0.252064	-0.755648	0.057467
C178	C	0.247936	-0.255648	0.557467
C179	C	-0.218638	-0.789022	0.806272
C180	C	0.281362	-0.289022	1.306272
C181	C	-0.218645	-0.789042	0.860876
C182	C	0.281355	-0.289042	1.360876
O183	O	-0.190257	-0.817518	0.889111
O184	O	0.309743	-0.317518	1.389111
N185	N	-0.252048	-0.755593	0.888193
N186	N	0.247952	-0.255593	1.388193
C187	C	-0.285449	-0.722126	0.860902
C188	C	0.214551	-0.222126	1.360902
O189	O	-0.313861	-0.693677	0.889152
O190	O	0.186139	-0.193677	1.389152
C191	C	-0.285444	-0.722109	0.806299
C192	C	0.214556	-0.222109	1.306299
C193	C	-0.252036	-0.755556	0.778985
C194	C	0.247964	-0.255556	1.278985
C195	C	-0.185233	-0.822467	0.778958
C196	C	0.314767	-0.322467	1.278958
C197	C	-0.185226	-0.822446	0.724357
C198	C	0.314774	-0.322446	1.224357
C199	C	-0.218623	-0.788980	0.697071
C200	C	0.281377	-0.288980	1.197071
C201	C	-0.252028	-0.755535	0.724385
C202	C	0.247972	-0.255535	1.224385
C203	C	-0.318847	-0.688644	0.779010
C204	C	0.181153	-0.188644	1.279010
C205	C	-0.318840	-0.688630	0.724403
C206	C	0.181160	-0.188630	1.224403
C207	C	-0.285432	-0.722077	0.697089
C208	C	0.214568	-0.222077	1.197089
C209	C	-0.285418	-0.722048	0.642498
C210	C	0.214582	-0.222048	1.142498
N211	N	-0.252016	-0.755497	0.615181
N212	N	0.247984	-0.255497	1.115181
C213	C	-0.218619	-0.788963	0.642467
C214	C	0.281381	-0.288963	1.142467
C215	C	-0.285457	-0.722165	0.975573
C216	C	0.214543	-0.222165	1.475573
C217	C	-0.285459	-0.722179	1.030175
C218	C	0.214541	-0.222179	1.530175
C219	C	-0.218656	-0.789097	1.030145
C220	C	0.281344	-0.289097	1.530145
C221	C	-0.218652	-0.789080	0.975542
C222	C	0.281348	-0.289080	1.475542
C223	C	-0.252055	-0.755614	0.948256
C224	C	0.247945	-0.255614	1.448256
C225	C	-0.218605	-0.788916	0.527802
C226	C	0.281395	-0.288916	1.027802
C227	C	-0.218599	-0.788890	0.473197
C228	C	0.281401	-0.288890	0.973197
C229	C	-0.285403	-0.721975	0.473232
C230	C	0.214597	-0.221975	0.973232
C231	C	-0.285408	-0.721998	0.527832
C232	C	0.214592	-0.221998	1.027832
C233	C	-0.252007	-0.755473	0.555116
C234	C	0.247993	-0.255473	1.055116
O235	O	-0.313794	-0.693588	0.614228
O236	O	0.186206	-0.193588	1.114228
O237	O	-0.190216	-0.817412	0.614212
O238	O	0.309784	-0.317412	1.114212
H239	H	-1.052990	-0.816217	0.312477
H240	H	-0.552990	-0.316217	0.812477
H241	H	-0.312530	-0.556475	0.312691
H242	H	0.187470	-0.056475	0.812691
H243	H	-0.312659	-0.694938	1.052410
H244	H	0.187341	-0.194938	1.552410
H245	H	-0.312656	-0.694909	0.953360
H246	H	0.187344	-0.194909	1.453360
H247	H	-0.702753	-0.661516	0.157767
H248	H	-0.202753	-0.161516	0.657767
H249	H	-0.158103	-0.305297	0.157705
H250	H	0.341897	0.194703	0.657705
N251	N	-0.184582	0.050587	0.184301
N252	N	0.315418	0.550587	0.684301
N253	N	-0.154781	0.026201	0.154410
N254	N	0.345219	0.526201	0.654410
H255	H	-0.130697	0.045887	0.130254
H256	H	0.369303	0.545887	0.630254
N257	N	-0.151105	-0.856646	0.806824
N258	N	0.348895	-0.356646	1.306824
N259	N	-0.117766	-0.838279	0.837320
N260	N	0.382234	-0.338279	1.337320
H261	H	-0.093657	-0.862416	0.856998
H262	H	0.406343	-0.362416	1.356998
N263	N	-0.319525	-0.687801	0.445352
N264	N	0.180475	-0.187801	0.945352
N265	N	-0.367774	-0.691249	0.451416
N266	N	0.132226	-0.191249	0.951416
H267	H	-0.391876	-0.667117	0.431724
H268	H	0.108124	-0.167117	0.931724
N269	N	-0.184515	-0.451750	0.184257
N270	N	0.315485	0.048250	0.684257
N271	N	-0.154713	-0.476132	0.154364
N272	N	0.345287	0.023868	0.654364
H273	H	-0.130634	-0.456442	0.130205
H274	H	0.369366	0.043558	0.630205
N275	N	-0.352953	-0.654436	0.696533
N276	N	0.147047	-0.154436	1.196533
N277	N	-0.334519	-0.621115	0.666109
N278	N	0.165481	-0.121115	1.166109
H279	H	-0.358610	-0.596964	0.646426
H280	H	0.141390	-0.096964	1.146426
N281	N	-0.948257	-0.688048	0.184206
N282	N	-0.448257	-0.188048	0.684206
N283	N	-0.972637	-0.658228	0.154338
N284	N	-0.472637	-0.158228	0.654338
H285	H	-0.952946	-0.634126	0.130205
H286	H	-0.452946	-0.134126	0.630205
N287	N	-0.184506	-0.562132	0.184257
N288	N	0.315494	-0.062132	0.684257
N289	N	-0.184508	-0.610885	0.184262
N290	N	0.315492	-0.110885	0.684262
H291	H	-0.160431	-0.630589	0.160109
H292	H	0.339569	-0.130589	0.660109
N293	N	-0.184553	-0.823294	1.058024
N294	N	0.315447	-0.323294	1.558024
N295	N	-0.188077	-0.871535	1.051882
N296	N	0.311923	-0.371535	1.551882
H297	H	-0.163994	-0.895686	1.071574
H298	H	0.336006	-0.395686	1.571574
H299	H	-0.191448	-0.816316	0.953306
H300	H	0.308552	-0.316316	1.453306
N301	N	-0.445904	-0.688011	0.184312
N302	N	0.054096	-0.188011	0.684312
N303	N	-0.415450	-0.706427	0.151003
N304	N	0.084550	-0.206427	0.651003
H305	H	-0.395748	-0.682325	0.126878
H306	H	0.104252	-0.182325	0.626878
H307	H	-0.191392	-0.816127	0.450959
H308	H	0.308608	-0.316127	0.950959
N309	N	-0.697126	-0.856526	0.352924
N310	N	-0.197126	-0.356526	0.852924
N311	N	-0.703259	-0.904772	0.349456
N312	N	-0.203259	-0.404772	0.849456
H313	H	-0.683584	-0.928889	0.373585
H314	H	-0.183584	-0.428889	0.873585
N315	N	-0.319539	0.050581	0.319678
N316	N	0.180461	0.550581	0.819678
N317	N	-0.315986	0.044512	0.367918
N318	N	0.184014	0.544512	0.867918
H319	H	-0.340068	0.064202	0.392078
H320	H	0.159932	0.564202	0.892078
H321	H	-0.550644	-0.816174	0.312580
H322	H	-0.050644	-0.316174	0.812580
H323	H	-0.346049	-0.661405	0.801240
H324	H	0.153951	-0.161405	1.301240
N325	N	-0.184483	-0.823111	0.555659
N326	N	0.315517	-0.323111	1.055659
N327	N	-0.154660	-0.852966	0.531256
N328	N	0.345340	-0.352966	1.031256
H329	H	-0.130559	-0.877114	0.550929
H330	H	0.369441	-0.377114	1.050929
H331	H	-0.158024	-0.849683	0.702121
H332	H	0.341976	-0.349683	1.202121
N333	N	-0.807477	-0.856529	0.352903
N334	N	-0.307477	-0.356529	0.852903
N335	N	-0.801395	-0.904776	0.349450
N336	N	-0.301395	-0.404776	0.849450
H337	H	-0.821085	-0.928885	0.373578
H338	H	-0.321085	-0.428885	0.873578
N339	N	-0.319527	-0.687821	0.555728
N340	N	0.180473	-0.187821	1.055728
N341	N	-0.349339	-0.657939	0.531356
N342	N	0.150661	-0.157939	1.031356
H343	H	-0.373439	-0.633803	0.551054
H344	H	0.126561	-0.133803	1.051054
N345	N	-0.319469	-0.451775	0.319643
N346	N	0.180531	0.048225	0.819643
N347	N	-0.315907	-0.457854	0.367881
N348	N	0.184093	0.042146	0.867881
H349	H	-0.339989	-0.438174	0.392050
H350	H	0.160011	0.061826	0.892050
H351	H	-0.801803	-0.661525	0.157753
H352	H	-0.301803	-0.161525	0.657753
H353	H	-0.953940	-0.816208	0.312504
H354	H	-0.453940	-0.316208	0.812504
H355	H	-0.451579	-0.816162	0.312595
H356	H	0.048421	-0.316162	0.812595
H357	H	-1.052978	-0.694977	0.191130
H358	H	-0.552978	-0.194977	0.691130
N359	N	-0.556273	-0.688000	0.184295
N360	N	-0.056273	-0.188000	0.684295
N361	N	-0.531880	-0.658173	0.154444
N362	N	-0.031880	-0.158173	0.654444
H363	H	-0.551560	-0.634063	0.130310
H364	H	-0.051560	-0.134063	0.630310
H365	H	-0.345967	-0.206256	0.346194
H366	H	0.154033	0.293744	0.846194
N367	N	-0.352868	-0.310953	0.353131
N368	N	0.147132	0.189047	0.853131
N369	N	-0.382667	-0.286565	0.383022
N370	N	0.117333	0.213435	0.883022
H371	H	-0.406749	-0.306249	0.407182
H372	H	0.093251	0.193751	0.907182
N373	N	-0.319524	-0.059781	0.319671
N374	N	0.180476	0.440219	0.819671
N375	N	-0.349320	-0.035395	0.349567
N376	N	0.150680	0.464605	0.849567
H377	H	-0.373399	-0.055082	0.373729
H378	H	0.126601	0.444918	0.873729
H379	H	-0.191496	-0.054115	0.191222
H380	H	0.308504	0.445885	0.691222
N381	N	-0.151188	-0.200595	0.150777
N382	N	0.348812	0.299405	0.650777
N383	N	-0.121393	-0.224985	0.120884
N384	N	0.378607	0.275015	0.620884
H385	H	-0.097311	-0.205302	0.096723
H386	H	0.402689	0.294698	0.596723
