data_functionalizedCrystal
_audit_creation_method	'MofGen! by Chris Wilmer'
_symmetry_space_group_name_H-M	'P1'
_symmetry_Int_Tables_number	1
_symmetry_cell_setting	triclinic
loop_
_symmetry_equiv_pos_as_xyz
  x,y,z
_cell_length_a	6.817900
_cell_length_b	9.582860
_cell_length_c	10.943881
_cell_angle_alpha	90.877642
_cell_angle_beta	108.843448
_cell_angle_gamma	111.206767
loop_
_atom_site_label
_atom_site_type_symbol
_atom_site_fract_x
_atom_site_fract_y
_atom_site_fract_z
V1	V	-4.128128	-0.207013	-0.402316
O2	O	-4.072650	0.009992	-0.394901
O3	O	-4.118444	-0.410514	-0.399330
O4	O	-4.105919	-0.203810	-0.577886
O5	O	-4.085261	-0.198144	-0.215108
V6	V	-4.603345	-0.181059	-0.379953
O7	O	-4.407605	-0.263945	-0.451371
O8	O	-4.774065	-0.124127	-0.330898
O9	O	-4.389823	0.022442	-0.382938
O10	O	-4.776221	-0.398064	-0.387368
O11	O	-4.763610	-0.189928	-0.567160
O12	O	-4.402348	-0.184263	-0.204382
C13	C	-3.972016	-0.460124	-0.392923
C14	C	-4.045559	-0.626489	-0.391652
C15	C	-3.956038	-0.196450	-0.620688
C16	C	-4.019419	-0.195177	-0.764216
C17	C	-4.249291	-0.202225	-0.855091
C18	C	-4.128019	-0.073585	-0.920975
C19	C	-4.253559	-0.321458	-0.954062
C20	C	-3.897260	-0.066452	-0.828196
C21	C	-4.022881	-0.314437	-0.861291
C22	C	-3.901436	-0.185762	-0.927126
C23	C	-4.199594	0.072044	-0.389342
C24	C	-4.105291	0.238407	-0.390621
C25	C	-4.215571	-0.191627	-0.161574
C26	C	-4.131426	-0.192892	-0.018044
H27	H	-4.395614	-0.209039	-0.823215
N28	N	-3.963294	-0.449345	-0.825934
H29	H	-3.833295	-0.444189	-0.853468
H30	H	-4.097573	-0.545536	-0.872220
N31	N	-4.453913	-0.464184	-1.026426
H32	H	-4.585707	-0.470241	-1.000393
H33	H	-4.415440	-0.555140	-1.003768
N34	N	-4.187716	0.061293	-0.956324
H35	H	-4.319644	0.055018	-0.930345
H36	H	-4.228837	0.061597	-1.053609
N37	N	-3.697010	0.076410	-0.756026
H38	H	-3.738908	0.133645	-0.697082
H39	H	-3.649426	0.141866	-0.821013
N40	N	-3.707202	-0.176484	-0.969022
H41	H	-3.666376	-0.266530	-0.946151
H42	H	-3.573467	-0.080107	-0.922506
