data_functionalizedCrystal
_audit_creation_method	'MofGen! by Chris Wilmer'
_symmetry_space_group_name_H-M	'P1'
_symmetry_Int_Tables_number	1
_symmetry_cell_setting	triclinic
loop_
_symmetry_equiv_pos_as_xyz
  x,y,z
_cell_length_a	14.628931
_cell_length_b	23.196402
_cell_length_c	14.628931
_cell_angle_alpha	60.001772
_cell_angle_beta	89.999882
_cell_angle_gamma	60.000584
loop_
_atom_site_label
_atom_site_type_symbol
_atom_site_fract_x
_atom_site_fract_y
_atom_site_fract_z
Zr1	Zr	0.880645	0.630998	-0.119919
O2	O	0.734690	0.751263	-0.265872
O3	O	0.925385	0.510732	-0.075183
O4	O	0.925390	0.630997	-0.265880
O5	O	0.734684	0.630998	0.075257
O6	O	1.075822	0.630997	-0.265880
O7	O	0.734685	0.630998	-0.075174
O8	O	1.075812	0.415865	0.075242
O9	O	0.734694	0.846130	-0.265865
O10	O	1.056736	0.560199	-0.056097
O11	O	0.944470	0.560199	0.056169
O12	O	0.944476	0.701796	-0.168352
O13	O	0.832211	0.701796	-0.056087
Zr14	Zr	1.120567	0.630998	0.120001
Zr15	Zr	1.120567	0.630998	-0.119920
Zr16	Zr	0.880645	0.630998	0.120002
Zr17	Zr	0.880652	0.782300	-0.119909
Zr18	Zr	1.120560	0.479696	0.119991
O19	O	1.075827	0.751263	0.075265
O20	O	1.075828	0.751263	-0.265872
O21	O	0.734690	0.751263	0.075265
O22	O	1.266522	0.510733	0.265953
O23	O	1.266522	0.510732	-0.075184
O24	O	0.925384	0.510733	0.265954
O25	O	1.266528	0.630998	-0.075175
O26	O	1.075822	0.630998	0.265962
O27	O	0.925390	0.630998	0.265962
O28	O	1.266527	0.630998	0.075256
O29	O	0.925400	0.846130	-0.265865
O30	O	1.075812	0.415866	0.265947
O31	O	1.266518	0.415866	0.265947
O32	O	1.266518	0.415865	0.075242
O33	O	0.734694	0.846130	-0.075160
O34	O	0.925399	0.846130	-0.075160
O35	O	1.056735	0.560200	0.168434
O36	O	1.169001	0.560199	0.056168
O37	O	1.056742	0.701796	-0.056087
O38	O	0.944476	0.701796	0.056179
C39	C	1.000598	0.441742	0.000028
C40	C	1.000595	0.377510	0.000024
C41	C	1.059189	0.347339	-0.058582
C42	C	1.059200	0.286978	-0.058573
C43	C	1.000595	0.256801	0.000027
C44	C	0.941998	0.286976	0.058645
C45	C	0.941998	0.347330	0.058644
C46	C	0.902436	0.194772	-0.008337
C47	C	0.902432	0.134423	-0.008343
C48	C	1.000596	0.070647	0.000038
C49	C	1.098762	0.067235	0.008403
C50	C	1.098762	0.127589	0.008401
C51	C	1.000589	0.191357	0.000035
C52	C	1.059207	-0.024975	-0.058561
C53	C	1.059221	-0.085341	-0.058544
C54	C	0.942009	-0.085336	0.058667
C55	C	0.942006	-0.024977	0.058657
C56	C	1.000602	0.005203	0.000037
C57	C	0.700501	0.630998	0.000042
C58	C	0.598648	0.630998	0.000042
C59	C	0.553239	0.630998	-0.078718
C60	C	0.447968	0.630998	-0.078719
C61	C	1.300711	0.630998	0.000040
C62	C	1.402564	0.630998	0.000040
C63	C	1.000606	0.630997	-0.300064
C64	C	1.000607	0.630997	-0.401917
C65	C	1.000614	0.820254	0.000054
C66	C	1.000617	0.884486	0.000058
C67	C	0.944918	0.701238	-0.503012
C68	C	0.944917	0.701240	-0.608284
C69	C	1.000606	0.630998	0.300146
C70	C	1.000605	0.630999	0.401999
C71	C	1.300703	0.441742	0.000027
C72	C	1.402553	0.377510	0.000023
C73	C	1.000597	0.441742	0.300133
C74	C	1.000594	0.377510	0.401981
C75	C	1.300703	0.441742	0.300132
C76	C	1.402553	0.377510	0.401980
C77	C	0.700509	0.820253	-0.300050
C78	C	0.598659	0.884485	-0.401899
C79	C	0.700509	0.820254	0.000054
C80	C	0.598659	0.884486	0.000059
C81	C	1.000615	0.820253	-0.300051
C82	C	1.000618	0.884485	-0.401899
C83	C	1.391782	0.347346	-0.058591
C84	C	1.487471	0.287001	-0.058617
C85	C	1.593932	0.256818	-0.000023
C86	C	1.604701	0.286988	0.058592
C87	C	1.509012	0.347335	0.058611
C88	C	1.059194	0.347347	0.508422
C89	C	1.059187	0.287003	0.604128
C90	C	1.000586	0.256819	0.593392
C91	C	0.941979	0.286989	0.486940
C92	C	0.941980	0.347336	0.391236
C93	C	1.508994	0.347346	0.391208
C94	C	1.604702	0.287002	0.486896
C95	C	1.593966	0.256819	0.593355
C96	C	1.487514	0.286989	0.604126
C97	C	1.391808	0.347336	0.508439
C98	C	0.492218	0.914656	-0.391126
C99	C	0.396510	0.975019	-0.486814
C100	C	0.407246	1.005206	-0.593274
C101	C	0.513698	0.975032	-0.604044
C102	C	0.609404	0.914674	-0.508357
C103	C	0.609430	0.914656	0.058662
C104	C	0.513740	0.975017	0.058663
C105	C	0.407280	1.005203	0.000065
C106	C	0.396511	0.975030	-0.058545
C107	C	0.492200	0.914674	-0.058552
C108	C	1.059230	0.914649	-0.391127
C109	C	1.059255	0.974994	-0.486816
C110	C	1.000660	1.005177	-0.593275
C111	C	0.942045	0.975007	-0.604045
C112	C	0.942028	0.914659	-0.508358
H113	H	1.106924	-0.000404	-0.106289
H114	H	0.894267	0.262405	0.478215
F115	F	0.525107	1.007165	-0.717355
H116	H	1.178693	0.124807	0.015215
H117	H	0.894265	0.371888	0.304571
F118	F	0.797949	0.262646	-0.017258
H119	H	1.517798	0.371887	0.106348
F120	F	1.121574	0.379457	0.519874
H121	H	0.309841	0.999577	-0.478023
F122	F	1.717986	0.254902	0.475410
F123	F	1.000596	0.192591	0.695260
F124	F	1.121571	0.254903	0.717411
H125	H	1.671905	0.207681	0.671261
H126	H	1.517757	0.371913	0.304532
H127	H	1.106984	0.999552	-0.478025
H128	H	1.478789	0.262405	0.690818
H129	H	0.559594	0.630994	0.067473
H130	H	1.106916	0.262409	-0.106298
F131	F	0.879680	1.007144	-0.717356
H132	H	1.106945	0.890083	-0.304451
F133	F	0.453592	0.631004	0.088177
F134	F	1.278527	0.379429	0.519921
H135	H	0.696071	0.890109	-0.517142
H136	H	0.483455	0.890082	-0.304450
H137	H	0.329307	1.054352	-0.671179
H138	H	0.522531	0.999574	0.106395
H139	H	0.483414	0.890111	-0.106270
H140	H	0.696107	0.890084	0.106387
H141	H	0.329373	1.054348	0.000080
F142	F	0.283199	1.007162	-0.120902
H143	H	1.691394	0.262404	0.106297
H144	H	1.000683	1.054316	-0.671180
F145	F	0.879631	0.882569	-0.519840
H146	H	1.106905	0.371908	-0.106311
H147	H	1.178700	0.015301	0.015241
H148	H	1.106942	-0.109910	-0.106263
H149	H	0.897234	0.761376	-0.695010
F150	F	0.879636	-0.117448	0.121034
H151	H	0.822499	0.137209	-0.015160
F152	F	0.879638	0.007136	0.121032
H153	H	0.894283	0.262402	0.106358
H154	H	0.894281	0.371895	0.106368
H155	H	1.305105	0.371920	-0.106319
H156	H	1.671839	0.207679	-0.000047
F157	F	0.604289	0.630992	-0.166850
F158	F	0.396925	0.631003	-0.166861
F159	F	0.882606	0.779843	-0.514281
H160	H	1.048286	0.570862	-0.393301
F161	F	1.062921	0.552390	-0.484649
H162	H	1.478681	0.262444	-0.106349
