data_functionalizedCrystal
_audit_creation_method	'MofGen! by Chris Wilmer'
_symmetry_space_group_name_H-M	'P1'
_symmetry_Int_Tables_number	1
_symmetry_cell_setting	triclinic
loop_
_symmetry_equiv_pos_as_xyz
  x,y,z
_cell_length_a	12.759401
_cell_length_b	12.594516
_cell_length_c	12.759393
_cell_angle_alpha	90.029726
_cell_angle_beta	90.020938
_cell_angle_gamma	90.013340
loop_
_atom_site_label
_atom_site_type_symbol
_atom_site_fract_x
_atom_site_fract_y
_atom_site_fract_z
Zn1	Zn	1.606287	-0.423647	0.594026
Zn2	Zn	1.606187	-0.601663	0.418348
Zn3	Zn	1.430586	-0.423704	0.418361
Zn4	Zn	1.430587	-0.601589	0.593985
O5	O	1.518412	-0.512651	0.506180
O6	O	1.753295	-0.447269	0.570733
O7	O	1.582851	-0.578111	0.271329
O8	O	1.453935	-0.274751	0.441685
O9	O	1.753222	-0.578056	0.441664
O10	O	1.583022	-0.274709	0.570746
O11	O	1.453838	-0.447365	0.271338
O12	O	1.283565	-0.447293	0.441646
O13	O	1.453936	-0.577930	0.741012
O14	O	1.283566	-0.577985	0.570677
O15	O	1.583023	-0.447197	0.741042
O16	O	1.582852	-0.750599	0.441625
O17	O	1.453839	-0.750545	0.570665
C18	C	1.245445	-0.512638	0.506159
C19	C	1.128668	-0.512658	0.506175
C20	C	1.518363	-0.789192	0.506162
C21	C	1.518439	-0.907497	0.506189
C22	C	1.073834	-0.580812	0.573256
C23	C	0.964110	-0.580816	0.573277
C24	C	0.964064	-0.444509	0.439127
C25	C	1.073786	-0.444500	0.439113
C26	C	1.588690	-0.976741	0.436079
C27	C	1.614368	-1.047434	0.531972
C28	C	1.492893	-1.047603	0.410357
C29	C	1.544165	-0.976632	0.602133
C30	C	1.422645	-0.976795	0.480453
C31	C	1.448286	-1.047456	0.576412
C32	C	1.792445	-0.512665	0.506202
C33	C	1.909222	-0.512671	0.506211
C34	C	1.518491	-0.512549	0.780214
C35	C	1.518524	-0.512505	0.896990
C36	C	1.518489	-0.235030	0.506221
C37	C	1.518522	-0.116725	0.506239
C38	C	1.518394	-0.512676	0.233213
C39	C	1.518564	-0.512420	0.116437
C40	C	1.585744	-0.444422	0.951869
C41	C	1.585762	-0.444376	1.061594
C42	C	1.451336	-0.580506	1.061550
C43	C	1.451314	-0.580546	0.951828
H44	H	0.919469	-0.636313	0.627902
C45	C	1.378289	-0.654589	0.892426
C46	C	1.319461	-0.714194	0.963931
C47	C	1.252192	-0.782416	0.909249
H48	H	1.332425	-0.614002	0.849618
H49	H	1.418436	-0.701038	0.849644
H50	H	1.279318	-0.667750	1.006695
H51	H	1.365298	-0.754802	1.006741
H52	H	1.292338	-0.828866	0.866467
H53	H	1.206334	-0.741821	0.866443
H54	H	1.212276	-0.822874	0.957757
H55	H	1.118433	-0.388994	0.384488
H56	H	1.471251	-1.078777	0.329293
H57	H	1.640498	-0.388934	1.106271
C58	C	1.378551	-0.654514	1.121147
C59	C	1.438034	-0.722735	1.184115
C60	C	1.371021	-0.790938	1.239018
H61	H	1.332776	-0.613903	1.164036
H62	H	1.338530	-0.695129	1.072780
H63	H	1.478037	-0.682124	1.232477
H64	H	1.483806	-0.763369	1.141252
H65	H	1.331000	-0.831553	1.190650
H66	H	1.325249	-0.750319	1.281901
H67	H	1.411371	-0.837240	1.281740
C68	C	1.668003	-0.935537	0.357080
C69	C	1.718028	-1.021450	0.308626
C70	C	1.791108	-0.983533	0.235863
H71	H	1.633080	-0.894115	0.305608
H72	H	1.718583	-0.892970	0.392069
H73	H	1.667456	-1.064000	0.273638
H74	H	1.752973	-1.062881	0.360071
H75	H	1.841688	-0.940966	0.270852
H76	H	1.756176	-0.942111	0.184398
H77	H	1.825065	-1.041818	0.202985
C78	C	1.133611	-0.654760	0.645959
C79	C	1.241438	-0.640189	0.631572
C80	C	1.296534	-0.708300	0.698523
H81	H	1.115792	-0.639335	0.716620
H82	H	1.115670	-0.726281	0.630456
H83	H	1.259372	-0.568684	0.647082
H84	H	1.259288	-0.655622	0.560925
H85	H	1.278593	-0.779821	0.683020
H86	H	1.278707	-0.692869	0.769180
H87	H	1.369700	-0.698430	0.688764
H88	H	0.919365	-0.389018	0.384526
H89	H	1.640468	-0.389016	0.907224
H90	H	1.565726	-0.945590	0.683267
C91	C	1.722522	-1.088601	0.560998
C92	C	1.790024	-1.002656	0.578112
C93	C	1.889671	-1.040527	0.604828
H94	H	1.717905	-1.130028	0.623015
H95	H	1.748953	-1.131152	0.505480
H96	H	1.763598	-0.960122	0.633626
H97	H	1.794672	-0.961220	0.516109
H98	H	1.916102	-1.083079	0.549310
H99	H	1.885043	-1.081955	0.666843
H100	H	1.935485	-0.982220	0.616434
H101	H	1.388913	-1.078309	0.635791
H102	H	1.341623	-0.945740	0.458628
