data_functionalizedCrystal
_audit_creation_method	'MofGen! by Chris Wilmer'
_symmetry_space_group_name_H-M	'P1'
_symmetry_Int_Tables_number	1
_symmetry_cell_setting	triclinic
loop_
_symmetry_equiv_pos_as_xyz
  x,y,z
_cell_length_a	12.759399
_cell_length_b	21.395362
_cell_length_c	21.395355
_cell_angle_alpha	90.043940
_cell_angle_beta	89.985737
_cell_angle_gamma	89.969005
loop_
_atom_site_label
_atom_site_type_symbol
_atom_site_fract_x
_atom_site_fract_y
_atom_site_fract_z
Zn1	Zn	-0.417943	-0.957927	-0.354604
Zn2	Zn	0.082057	-0.457927	0.145396
Zn3	Zn	-0.593607	-0.957858	-0.249834
Zn4	Zn	-0.093607	-0.457858	0.250166
Zn5	Zn	-0.417992	-0.853142	-0.249805
Zn6	Zn	0.082008	-0.353142	0.250195
Zn7	Zn	-0.593629	-0.853140	-0.354539
Zn8	Zn	-0.093629	-0.353140	0.145461
O9	O	-0.505793	-0.905517	-0.302196
O10	O	-0.005793	-0.405517	0.197804
O11	O	-0.441215	-1.045596	-0.340746
O12	O	0.058785	-0.545596	0.159254
O13	O	-0.570323	-0.943940	-0.162153
O14	O	-0.070323	-0.443940	0.337847
O15	O	-0.270964	-0.867072	-0.263722
O16	O	0.229036	-0.367072	0.236278
O17	O	-0.570275	-1.045545	-0.263772
O18	O	-0.070275	-0.545545	0.236228
O19	O	-0.270928	-0.944057	-0.340717
O20	O	0.229072	-0.444057	0.159283
O21	O	-0.441299	-0.867005	-0.162131
O22	O	0.058701	-0.367005	0.337869
O23	O	-0.441320	-0.765464	-0.263659
O24	O	0.058680	-0.265464	0.236341
O25	O	-0.570312	-0.867068	-0.442226
O26	O	-0.070312	-0.367068	0.057774
O27	O	-0.570360	-0.765462	-0.340607
O28	O	-0.070360	-0.265462	0.159393
O29	O	-0.441236	-0.944055	-0.442273
O30	O	0.058764	-0.444055	0.057727
O31	O	-0.740631	-0.943937	-0.263709
O32	O	-0.240631	-0.443937	0.236291
O33	O	-0.740647	-0.867001	-0.340635
O34	O	-0.240647	-0.367001	0.159365
C35	C	-0.505848	-0.742729	-0.302123
C36	C	-0.005848	-0.242729	0.197877
C37	C	-0.505897	-0.673088	-0.302107
C38	C	-0.005897	-0.173088	0.197893
C39	C	-0.778760	-0.905479	-0.302182
C40	C	-0.278760	-0.405479	0.197818
C41	C	-0.895537	-0.905519	-0.302196
C42	C	-0.395537	-0.405519	0.197804
C43	C	-0.505771	-0.905569	-0.465619
C44	C	-0.005771	-0.405569	0.034381
C45	C	-0.505762	-0.905591	-0.535260
C46	C	-0.005762	-0.405591	-0.035260
C47	C	-0.950355	-0.945626	-0.262187
C48	C	-0.450355	-0.445626	0.237813
C49	C	-1.060079	-0.945666	-0.262208
C50	C	-0.560079	-0.445666	0.237792
C51	C	-1.060156	-0.865488	-0.342250
C52	C	-0.560156	-0.365488	0.157750
C53	C	-0.950434	-0.865452	-0.342232
C54	C	-0.450434	-0.365452	0.157768
C55	C	-1.209913	-1.019619	-0.239938
C56	C	-0.709913	-0.519619	0.260062
C57	C	-1.264735	-1.059720	-0.199919
C58	C	-0.764735	-0.559720	0.300081
C59	C	-1.229161	-1.069357	-0.138789
C60	C	-0.729161	-0.569357	0.361211
C61	C	-1.138766	-1.038884	-0.117667
C62	C	-0.638766	-0.538884	0.382333
C63	C	-1.083949	-0.998779	-0.157683
C64	C	-0.583949	-0.498779	0.342317
C65	C	-1.119522	-0.989154	-0.218821
C66	C	-0.619522	-0.489154	0.281179
C67	C	-0.800599	-0.791497	-0.364494
C68	C	-0.300599	-0.291497	0.135506
C69	C	-0.745780	-0.751388	-0.404508
C70	C	-0.245780	-0.251388	0.095492
C71	C	-0.781352	-0.741745	-0.465639
C72	C	-0.281352	-0.241745	0.034361
C73	C	-0.871751	-0.772207	-0.486759
C74	C	-0.371751	-0.272207	0.013241
C75	C	-0.926570	-0.812316	-0.446745
C76	C	-0.426570	-0.312316	0.053255
C77	C	-0.890990	-0.821960	-0.385615
C78	C	-0.390990	-0.321960	0.114385
C79	C	-0.231759	-0.905573	-0.302224
C80	C	0.268241	-0.405573	0.197776
C81	C	-0.114983	-0.905596	-0.302236
C82	C	0.385017	-0.405596	0.197764
C83	C	-0.505738	-1.068940	-0.302269
C84	C	-0.005738	-0.568940	0.197731
C85	C	-0.505714	-1.138582	-0.302300
C86	C	-0.005714	-0.638582	0.197700
C87	C	-0.573177	-0.640390	-0.342113
C88	C	-0.073177	-0.140390	0.157887
C89	C	-0.573152	-0.574955	-0.342141
C90	C	-0.073152	-0.074955	0.157859
C91	C	-0.505857	-0.542220	-0.302152
C92	C	-0.005857	-0.042220	0.197848
C93	C	-0.438564	-0.574925	-0.262142
C94	C	0.061436	-0.074925	0.237858
C95	C	-0.438584	-0.640359	-0.262120
C96	C	0.061416	-0.140359	0.237880
C97	C	-0.497393	-0.438494	-0.245746
C98	C	0.002607	0.061506	0.254254
C99	C	-0.497380	-0.373061	-0.245767
C100	C	0.002620	0.126939	0.254233
C101	C	-0.505788	-0.340399	-0.302221
C102	C	-0.005788	0.159601	0.197779
C103	C	-0.514231	-0.373178	-0.358655
C104	C	-0.014231	0.126822	0.141345
C105	C	-0.514251	-0.438613	-0.358632
C106	C	-0.014251	0.061387	0.141368
C107	C	-0.505827	-0.471267	-0.302172
C108	C	-0.005827	0.028733	0.197828
C109	C	-0.573044	-0.236749	-0.342261
C110	C	-0.073044	0.263251	0.157739
C111	C	-0.573011	-0.171312	-0.342290
C112	C	-0.073011	0.328688	0.157710
C113	C	-0.438428	-0.171284	-0.262285
C114	C	0.061572	0.328716	0.237715
C115	C	-0.438456	-0.236719	-0.262262
C116	C	0.061544	0.263281	0.237738
C117	C	-0.505769	-0.269448	-0.302249
C118	C	-0.005769	0.230552	0.197751
C119	C	-0.438550	-0.945676	-0.567999
C120	C	0.061450	-0.445676	-0.067999
C121	C	-0.438504	-0.945676	-0.633435
C122	C	0.061496	-0.445676	-0.133435
C123	C	-0.505691	-0.905596	-0.666129
C124	C	-0.005691	-0.405596	-0.166129
C125	C	-0.572908	-0.865503	-0.633382
C126	C	-0.072908	-0.365503	-0.133382
C127	C	-0.572944	-0.865500	-0.567948
C128	C	-0.072944	-0.365500	-0.067948
C129	C	-0.600292	-0.900635	-0.769797
C130	C	-0.100292	-0.400635	-0.269797
C131	C	-0.600258	-0.900642	-0.835230
C132	C	-0.100258	-0.400642	-0.335230
C133	C	-0.505580	-0.905600	-0.867950
C134	C	-0.005580	-0.405600	-0.367950
C135	C	-0.410932	-0.910564	-0.835228
C136	C	0.089068	-0.410564	-0.335228
C137	C	-0.410968	-0.910561	-0.769794
C138	C	0.089032	-0.410561	-0.269794
C139	C	-0.505659	-0.905594	-0.737081
C140	C	-0.005659	-0.405594	-0.237081
C141	C	-0.438312	-0.945686	-0.971641
C142	C	0.061688	-0.445686	-0.471641
C143	C	-0.438265	-0.945681	-1.037078
C144	C	0.061735	-0.445681	-0.537078
C145	C	-0.572678	-0.865512	-1.037024
C146	C	-0.072678	-0.365512	-0.537024
C147	C	-0.572716	-0.865514	-0.971588
C148	C	-0.072716	-0.365514	-0.471588
C149	C	-0.505534	-0.905604	-0.938901
C150	C	-0.005534	-0.405604	-0.438901
C151	C	-0.505738	-0.905501	-0.139408
C152	C	-0.005738	-0.405501	0.360592
C153	C	-0.505451	-0.905600	-0.069767
C154	C	-0.005451	-0.405600	0.430233
H155	H	-0.905660	-0.978252	-0.229588
H156	H	-0.405660	-0.478252	0.270412
H157	H	-0.627675	-0.832855	-0.541292
H158	H	-0.127675	-0.332855	-0.041292
F159	F	-0.523232	-0.473496	-0.418692
F160	F	-0.023232	0.026504	0.081308
F161	F	-0.644409	-0.822845	-0.668178
F162	F	-0.144409	-0.322845	-0.168178
F163	F	-0.644679	-0.271583	-0.384821
F164	F	-0.144679	0.228417	0.115179
H165	H	-0.383766	-0.978317	-0.660096
H166	H	0.116234	-0.478317	-0.160096
F167	F	-0.644618	-0.136513	-0.384876
F168	F	-0.144618	0.363487	0.115124
H169	H	-0.490512	-0.346377	-0.199815
H170	H	0.009488	0.153623	0.300185
F171	F	-0.366802	-0.136449	-0.219728
F172	F	0.133198	0.363551	0.280272
F173	F	-0.644176	-0.822851	-1.071815
F174	F	-0.144176	-0.322851	-0.571815
H175	H	-0.490542	-0.465081	-0.199772
H176	H	0.009458	0.034919	0.300228
H177	H	-0.627988	-0.667034	-0.374675
H178	H	-0.127988	-0.167034	0.125325
F179	F	-0.310161	-0.915843	-0.870046
F180	F	0.189839	-0.415843	-0.370046
H181	H	-0.383844	-0.978321	-0.541389
H182	H	0.116156	-0.478321	-0.041389
H183	H	-0.736709	-0.709083	-0.498217
H184	H	-0.236709	-0.209083	0.001783
H185	H	-0.627939	-0.548327	-0.374722
H186	H	-0.127939	-0.048327	0.125278
F187	F	-0.366971	-0.675160	-0.219538
F188	F	0.133029	-0.175160	0.280462
H189	H	-0.521076	-0.346587	-0.404625
H190	H	-0.021076	0.153413	0.095375
F191	F	-0.366849	-0.271520	-0.219679
F192	F	0.133151	0.228480	0.280321
H193	H	-0.677325	-0.896604	-0.861866
H194	H	-0.177325	-0.396604	-0.361866
H195	H	-1.010350	-0.973969	-0.140486
H196	H	-0.510350	-0.473969	0.359514
F197	F	-1.118591	-0.822846	-0.384855
F198	F	-0.618591	-0.322846	0.115145
H199	H	-0.383770	-0.548268	-0.229583
H200	H	0.116230	-0.048268	0.270417
H201	H	-0.333903	-0.914602	-0.743155
H202	H	0.166097	-0.414602	-0.243155
H203	H	-0.383603	-0.978327	-0.945026
H204	H	0.116397	-0.478327	-0.445026
F205	F	-0.701071	-0.895373	-0.734980
F206	F	-0.201071	-0.395373	-0.234980
H207	H	-0.771621	-0.799351	-0.314718
H208	H	-0.271621	-0.299351	0.185282
F209	F	-0.366736	-0.988355	-1.071921
F210	F	0.133264	-0.488355	-0.571921
F211	F	-1.287511	-1.112036	-0.096198
F212	F	-0.787511	-0.612036	0.403802
F213	F	-0.644258	-0.822851	-0.936744
F214	F	-0.144258	-0.322851	-0.436744
F215	F	-1.247772	-1.009374	-0.305003
F216	F	-0.747772	-0.509374	0.194997
F217	F	-1.100919	-1.049137	-0.052600
F218	F	-0.600919	-0.549137	0.447400
H219	H	-1.000174	-0.837122	-0.463948
H220	H	-0.500174	-0.337122	0.036052
F221	F	-0.649589	-0.718950	-0.382021
F222	F	-0.149589	-0.218950	0.117979
H223	H	-1.338335	-1.084532	-0.217123
H224	H	-0.838335	-0.584532	0.282877
F225	F	-0.909613	-0.761944	-0.551822
F226	F	-0.409613	-0.261944	-0.051822
