data_functionalizedCrystal
_audit_creation_method	'MofGen! by Chris Wilmer'
_symmetry_space_group_name_H-M	'P1'
_symmetry_Int_Tables_number	1
_symmetry_cell_setting	triclinic
loop_
_symmetry_equiv_pos_as_xyz
  x,y,z
_cell_length_a	10.686220
_cell_length_b	18.215405
_cell_length_c	18.215399
_cell_angle_alpha	90.030551
_cell_angle_beta	85.648888
_cell_angle_gamma	94.406955
loop_
_atom_site_label
_atom_site_type_symbol
_atom_site_fract_x
_atom_site_fract_y
_atom_site_fract_z
Zn1	Zn	1.929037	-0.206568	0.329900
Zn2	Zn	1.928880	-0.329646	0.206835
Zn3	Zn	1.718027	-0.216044	0.216277
Zn4	Zn	1.717968	-0.339053	0.339285
O5	O	1.823478	-0.272828	0.273074
O6	O	2.105592	-0.214991	0.305696
O7	O	1.900868	-0.314606	0.105105
O8	O	1.746108	-0.111799	0.231373
O9	O	2.105476	-0.305416	0.215281
O10	O	1.901136	-0.104836	0.314851
O11	O	1.745956	-0.231143	0.112042
O12	O	1.541443	-0.240265	0.240473
O13	O	1.746008	-0.321450	0.441023
O14	O	1.541400	-0.330639	0.330847
O15	O	1.901079	-0.224113	0.434128
O16	O	1.900812	-0.433882	0.224381
O17	O	1.745856	-0.440794	0.321692
C18	C	1.823345	-0.464040	0.273045
C19	C	1.823403	-0.545836	0.273052
C20	C	1.495638	-0.287502	0.287703
C21	C	1.355386	-0.293797	0.293979
C22	C	1.904278	-0.730398	0.222460
C23	C	1.904334	-0.807255	0.222476
C24	C	1.742839	-0.814498	0.323734
C25	C	1.742790	-0.737643	0.323722
C26	C	1.823508	-0.695595	0.273081
C27	C	1.823613	-0.849306	0.273108
C28	C	1.823674	-0.932637	0.273125
C29	C	1.823449	-0.612259	0.273064
C30	C	2.152598	-0.258097	0.258389
C31	C	2.292850	-0.251820	0.252130
C32	C	1.823555	-0.272774	0.465024
C33	C	1.823588	-0.272751	0.546821
C34	C	1.823646	-0.080867	0.273119
C35	C	1.823718	0.000935	0.273137
C36	C	1.823474	-0.272825	0.081868
C37	C	1.823686	-0.272630	0.000060
C38	C	1.904362	-0.222022	0.731425
C39	C	1.904377	-0.222000	0.808283
C40	C	1.742902	-0.323361	0.815452
C41	C	1.742882	-0.323379	0.738595
C42	C	1.823619	-0.272711	0.696584
C43	C	1.823654	-0.272670	0.850298
C44	C	1.823670	-0.272647	0.933631
C45	C	1.823602	-0.272733	0.613245
H46	H	1.970005	-0.696165	0.181227
H47	H	1.677017	-0.709304	0.364946
C48	C	1.441142	-0.234889	0.146603
C49	C	1.365415	-0.196799	0.197282
H50	H	1.485951	-0.200919	0.112745
H51	H	1.389690	-0.269191	0.120671
H52	H	1.499157	-0.260378	0.172026
H53	H	1.307393	-0.171314	0.171860
H54	H	1.416871	-0.162484	0.223217
C55	C	2.063944	-0.792371	0.122379
C56	C	1.993114	-0.845511	0.166829
H57	H	2.118750	-0.815990	0.088022
H58	H	2.112156	-0.760189	0.152309
H59	H	2.008959	-0.764903	0.096653
H60	H	2.048099	-0.872975	0.192559
H61	H	1.944898	-0.877706	0.136896
C62	C	1.671195	-0.935529	0.368708
C63	C	1.654104	-0.860720	0.379389
H64	H	1.616403	-0.964062	0.403065
H65	H	1.755960	-0.944277	0.375745
H66	H	1.652790	-0.948984	0.320073
H67	H	1.672518	-0.847264	0.428024
H68	H	1.569319	-0.851967	0.372359
H69	H	1.970100	-0.180762	0.697221
H70	H	1.677122	-0.364656	0.710227
H71	H	1.301623	-0.334558	0.334607
H72	H	1.970124	-0.180723	0.836647
C73	C	1.671241	-0.368344	0.936451
C74	C	1.654169	-0.379060	0.861633
H75	H	1.616465	-0.402735	0.964958
H76	H	1.652814	-0.319726	0.949880
H77	H	1.756021	-0.375316	0.945255
H78	H	1.569391	-0.372082	0.852828
H79	H	1.672587	-0.427690	0.848199
