data_functionalizedCrystal
_audit_creation_method	'MofGen! by Chris Wilmer'
_symmetry_space_group_name_H-M	'P1'
_symmetry_Int_Tables_number	1
_symmetry_cell_setting	triclinic
loop_
_symmetry_equiv_pos_as_xyz
  x,y,z
_cell_length_a	17.640112
_cell_length_b	25.639240
_cell_length_c	17.639309
_cell_angle_alpha	78.755475
_cell_angle_beta	114.276544
_cell_angle_gamma	101.256349
loop_
_atom_site_label
_atom_site_type_symbol
_atom_site_fract_x
_atom_site_fract_y
_atom_site_fract_z
Zn1	Zn	1.165539	-0.023804	-0.211680
Zn2	Zn	1.193269	-0.125960	-0.073905
Zn3	Zn	1.055587	-0.053253	-0.101706
Zn4	Zn	1.027691	-0.125946	-0.239469
O5	O	1.110522	-0.082241	-0.156690
O6	O	1.284527	-0.025036	-0.170140
O7	O	1.198285	-0.128646	0.037720
O8	O	1.070242	0.023829	-0.116300
O9	O	1.304901	-0.100091	-0.068917
O10	O	1.151023	0.045465	-0.197097
O11	O	1.097131	-0.075228	0.017295
O12	O	0.936577	-0.075214	-0.143245
O13	O	1.022698	-0.100066	-0.351096
O14	O	0.916082	-0.128621	-0.244459
O15	O	1.123973	-0.025022	-0.330680
O16	O	1.171235	-0.199134	-0.095863
O17	O	1.049586	-0.199123	-0.217502
C18	C	0.896431	-0.105112	-0.199885
C19	C	0.804838	-0.114907	-0.218383
C20	C	0.556757	-0.007819	-0.016166
C21	C	0.470689	-0.017032	-0.033560
C22	C	0.449439	-0.072757	-0.138772
C23	C	0.535506	-0.063546	-0.121390
C24	C	0.589159	-0.031077	-0.060086
C25	C	0.567908	-0.086804	-0.165310
C26	C	0.653968	-0.077596	-0.147926
C27	C	0.707626	-0.045130	-0.086623
C28	C	0.675219	-0.021869	-0.042703
C29	C	0.514254	-0.119276	-0.226610
C30	C	0.546656	-0.142534	-0.270529
C31	C	0.632717	-0.133323	-0.253150
C32	C	0.686375	-0.100857	-0.191847
C33	C	0.665124	-0.156584	-0.297071
C34	C	0.751185	-0.147376	-0.279688
C35	C	0.772436	-0.091649	-0.174464
C36	C	1.110412	-0.218097	-0.156694
C37	C	1.110434	-0.276206	-0.156708
C38	C	1.152569	-0.516068	-0.198816
C39	C	1.152545	-0.461467	-0.198815
O40	O	1.188280	-0.423609	-0.234608
N41	N	1.110523	-0.445470	-0.156700
C42	C	1.068528	-0.484077	-0.114577
O43	O	1.032783	-0.465456	-0.078754
C44	C	1.068557	-0.538676	-0.114574
C45	C	1.110575	-0.554670	-0.156698
C46	C	1.194584	-0.532063	-0.240937
C47	C	1.194606	-0.586660	-0.240939
C48	C	1.152613	-0.625263	-0.198821
C49	C	1.110597	-0.609268	-0.156701
C50	C	1.026567	-0.577282	-0.072446
C51	C	1.026600	-0.631885	-0.072446
C52	C	1.068619	-0.647879	-0.114570
C53	C	1.068625	-0.702467	-0.114585
N54	N	1.110648	-0.718465	-0.156700
C55	C	1.152642	-0.679863	-0.198818
C56	C	1.068471	-0.369412	-0.114586
C57	C	1.068437	-0.314814	-0.114594
C58	C	1.152456	-0.292208	-0.198831
C59	C	1.152485	-0.346808	-0.198827
C60	C	1.110494	-0.385410	-0.156701
C61	C	1.152684	-0.794522	-0.198820
C62	C	1.152700	-0.849125	-0.198822
C63	C	1.068685	-0.871726	-0.114581
C64	C	1.068665	-0.817127	-0.114583
C65	C	1.110671	-0.778526	-0.156704
O66	O	1.032912	-0.740355	-0.078807
O67	O	1.188390	-0.698492	-0.234625
C68	C	1.325448	-0.059280	-0.113327
C69	C	1.417038	-0.049496	-0.094849
C70	C	1.067131	-0.059257	-0.371624
C71	C	1.048640	-0.049463	-0.463216
C72	C	1.110651	0.054151	-0.156700
C73	C	1.110706	0.112273	-0.156704
C74	C	0.969917	-0.007850	-0.602945
C75	C	0.987298	-0.017056	-0.516879
C76	C	1.092622	-0.072679	-0.495604
C77	C	1.075247	-0.063480	-0.581670
C78	C	1.013894	-0.031064	-0.635334
C79	C	1.119224	-0.086694	-0.614060
C80	C	1.101853	-0.077493	-0.700118
C81	C	1.040505	-0.045078	-0.753787
C82	C	0.996523	-0.021863	-0.721393
C83	C	1.180581	-0.119107	-0.560393
C84	C	1.224559	-0.142321	-0.592783
C85	C	1.207184	-0.133123	-0.678843
C86	C	1.145835	-0.100708	-0.732512
C87	C	1.251166	-0.156338	-0.711237
C88	C	1.233795	-0.147137	-0.797296
C89	C	1.128464	-0.091507	-0.818570
C90	C	1.153791	-0.105092	0.057417
C91	C	1.172442	-0.114721	0.149040
H92	H	0.600442	0.018629	0.033741
H93	H	1.194724	-0.126596	-0.490319
H94	H	1.269607	-0.166039	-0.823667
O95	O	0.727456	0.009679	0.016794
C96	C	0.869465	0.048535	0.090233
C97	C	0.810400	0.012808	0.022824
H98	H	0.936540	0.051067	0.095143
H99	H	0.849689	0.090451	0.072244
H100	H	0.865894	0.030503	0.153265
H101	H	0.813941	0.030792	-0.040232
H102	H	0.830194	-0.029104	0.040885
H103	H	0.444311	0.001914	0.002204
O104	O	1.027825	-0.801679	-0.073606
C105	C	0.944435	-0.829870	0.009887
C106	C	0.990666	-0.847434	-0.036473
H107	H	0.914365	-0.866853	0.039907
H108	H	0.990950	-0.804878	0.060638
H109	H	0.893713	-0.804870	-0.036619
H110	H	1.041386	-0.872453	0.009969
H111	H	0.944100	-0.872398	-0.087236
H112	H	0.946561	0.004531	-0.765090
H113	H	1.186696	-0.359826	-0.233133
O114	O	1.193244	-0.254634	-0.239668
C115	C	1.230392	-0.160497	-0.277030
C116	C	1.184188	-0.202993	-0.230735
H117	H	1.223071	-0.118736	-0.269839
H118	H	1.299783	-0.165593	-0.249199
H119	H	1.202477	-0.165706	-0.346385
H120	H	1.212033	-0.197811	-0.161375
H121	H	1.114800	-0.197885	-0.258634
O122	O	1.235255	-0.494520	-0.281921
C123	C	1.223741	-0.419816	-0.391025
C124	C	1.177587	-0.462293	-0.344657
H125	H	1.177134	-0.393756	-0.441769
H126	H	1.274460	-0.393624	-0.344589
H127	H	1.253797	-0.440649	-0.421082
H128	H	1.147480	-0.441504	-0.314598
H129	H	1.126913	-0.488481	-0.391129
H130	H	0.951485	0.001853	-0.490512
O131	O	1.027970	-0.909299	-0.073677
C132	C	0.990756	-1.003436	-0.036381
C133	C	1.036906	-0.960939	-0.082730
H134	H	0.997950	-1.045197	-0.043699
H135	H	1.018699	-0.998295	0.033002
H136	H	0.921393	-0.998271	-0.064185
H137	H	1.106273	-0.966078	-0.054997
H138	H	1.008896	-0.966092	-0.152110
H139	H	0.405744	-0.099194	-0.188683
H140	H	1.186891	-0.763097	-0.233117
O141	O	1.152324	-0.104098	-0.443489
C142	C	1.297763	-0.117360	-0.388916
C143	C	1.230242	-0.081720	-0.447949
H144	H	1.360772	-0.099287	-0.392515
H145	H	1.302702	-0.119943	-0.321818
H146	H	1.279783	-0.159262	-0.408757
H147	H	1.248173	-0.039799	-0.428184
H148	H	1.225317	-0.079182	-0.515033
H149	H	1.034211	-0.301796	-0.080303
O150	O	1.235512	-0.602101	-0.281854
C151	C	1.318828	-0.573896	-0.365419
C152	C	1.272541	-0.556342	-0.319107
H153	H	1.348764	-0.536910	-0.395565
H154	H	1.369637	-0.598845	-0.318941
H155	H	1.272292	-0.598937	-0.416089
H156	H	1.319013	-0.531281	-0.268438
H157	H	1.221720	-0.531421	-0.365636
H158	H	1.034269	-0.400841	-0.080285
H159	H	0.816121	-0.065201	-0.124556
H160	H	0.444179	-0.126772	-0.240761
H161	H	0.502961	-0.168972	-0.320441
H162	H	1.078502	-0.065113	-0.862268
H163	H	0.992353	-0.564269	-0.038144
H164	H	1.026366	-0.037585	-0.823860
O165	O	0.985734	-0.669313	-0.031514
C166	C	0.902446	-0.685967	0.052085
C167	C	0.948678	-0.643526	0.005752
H168	H	0.872489	-0.665135	0.082242
H169	H	0.851659	-0.712109	0.005619
H170	H	0.949021	-0.712082	0.102749
H171	H	0.902167	-0.617374	-0.044910
H172	H	0.999478	-0.617422	0.052270
H173	H	0.621429	-0.183024	-0.346979
H174	H	0.777566	-0.166314	-0.315452
H175	H	0.919955	0.018544	-0.646642
O176	O	1.193584	-0.864725	-0.239619
C177	C	1.302634	-0.913191	-0.228350
C178	C	1.256391	-0.895574	-0.182050
H179	H	1.353435	-0.938126	-0.181822
H180	H	1.256136	-0.938240	-0.279028
H181	H	1.332603	-0.876210	-0.258474
H182	H	1.226421	-0.932524	-0.151874
H183	H	1.302926	-0.870506	-0.131416
H184	H	1.301125	-0.182726	-0.667531
O185	O	0.791228	-0.036281	-0.069725
C186	C	0.919011	-0.075449	-0.023417
C187	C	0.824336	-0.085547	-0.042545
H188	H	0.945811	-0.115272	-0.001421
H189	H	0.929562	-0.055361	-0.082525
H190	H	0.951763	-0.048228	0.027915
H191	H	0.791523	-0.112780	-0.093851
H192	H	0.813847	-0.105609	0.016604
O193	O	1.284041	-0.173882	-0.540636
C194	C	1.314665	-0.253670	-0.441190
C195	C	1.247218	-0.217980	-0.500226
H196	H	1.284923	-0.289324	-0.408488
H197	H	1.343106	-0.268728	-0.479088
H198	H	1.365920	-0.229352	-0.392241
H199	H	1.195913	-0.242262	-0.549186
H200	H	1.218844	-0.202918	-0.462271
