data_functionalizedCrystal
_audit_creation_method	'MofGen! by Chris Wilmer'
_symmetry_space_group_name_H-M	'P1'
_symmetry_Int_Tables_number	1
_symmetry_cell_setting	triclinic
loop_
_symmetry_equiv_pos_as_xyz
  x,y,z
_cell_length_a	19.288867
_cell_length_b	17.019294
_cell_length_c	18.366186
_cell_angle_alpha	86.114787
_cell_angle_beta	89.992441
_cell_angle_gamma	83.266056
loop_
_atom_site_label
_atom_site_type_symbol
_atom_site_fract_x
_atom_site_fract_y
_atom_site_fract_z
O1	O	0.921526	0.098414	-0.066694
O2	O	1.421526	0.598414	0.433306
O3	O	0.719289	0.111687	-0.067533
O4	O	1.219289	0.611687	0.432467
O5	O	0.826049	-0.009803	-0.059908
O6	O	1.326049	0.490197	0.440092
O7	O	0.814766	0.219903	-0.074318
O8	O	1.314766	0.719903	0.425682
O9	O	0.826030	-0.009808	0.061192
O10	O	1.326030	0.490192	0.561192
O11	O	0.719271	0.111681	0.053567
O12	O	1.219271	0.611681	0.553567
O13	O	0.921508	0.098408	0.054406
O14	O	1.421508	0.598408	0.554406
Zn15	Zn	0.820386	0.105044	0.073214
Zn16	Zn	1.320386	0.605044	0.573214
Zn17	Zn	0.820410	0.105051	-0.086340
Zn18	Zn	1.320410	0.605051	0.413660
O19	O	0.814748	0.219897	0.046782
O20	O	1.314748	0.719897	0.546782
C21	C	0.693403	0.111257	-0.006957
C22	C	1.193403	0.611257	0.493043
C23	C	0.616297	0.109974	-0.006879
C24	C	1.116297	0.609974	0.493121
C25	C	0.060725	0.100737	-0.072302
C26	C	0.560725	0.600737	0.427698
C27	C	0.133175	0.101937	-0.072380
C28	C	0.633175	0.601937	0.427620
C29	C	0.169395	0.102538	-0.006407
C30	C	0.669395	0.602538	0.493593
C31	C	0.133161	0.101918	0.059651
C32	C	0.633161	0.601918	0.559651
C33	C	0.060714	0.100709	0.059727
C34	C	0.560714	0.600709	0.559727
C35	C	0.278799	0.150652	0.041148
C36	C	0.778799	0.650652	0.541148
C37	C	0.351245	0.151866	0.041068
C38	C	0.851245	0.651866	0.541068
C39	C	0.392847	0.106262	-0.006640
C40	C	0.892847	0.606262	0.493360
C41	C	0.361993	0.059455	-0.054282
C42	C	0.861993	0.559455	0.445718
C43	C	0.289546	0.058247	-0.054206
C44	C	0.789546	0.558247	0.445794
C45	C	0.247952	0.103848	-0.006483
C46	C	0.747952	0.603848	0.493517
C47	C	0.507630	0.108179	-0.072778
C48	C	1.007630	0.608179	0.427222
C49	C	0.580082	0.109374	-0.072853
C50	C	1.080082	0.609374	0.427147
C51	C	0.580066	0.109363	0.059179
C52	C	1.080066	0.609363	0.559179
C53	C	0.507617	0.108159	0.059253
C54	C	1.007617	0.608159	0.559253
C55	C	0.471403	0.107571	-0.006728
C56	C	0.971403	0.607571	0.493272
C57	C	0.825611	-0.039193	0.002484
C58	C	1.325611	0.460807	0.502484
C59	C	0.824328	-0.126759	0.007972
C60	C	1.324328	0.373241	0.507972
C61	C	0.823736	-0.167890	-0.055461
C62	C	1.323736	0.332110	0.444539
C63	C	0.822525	-0.250167	-0.050302
C64	C	1.322525	0.249833	0.449698
C65	C	0.821911	-0.291312	0.018291
C66	C	1.321911	0.208688	0.518291
C67	C	0.822500	-0.250175	0.081728
C68	C	1.322500	0.249825	0.581728
C69	C	0.823706	-0.167899	0.076568
C70	C	1.323706	0.332101	0.576568
C71	C	0.818265	-0.539733	0.037173
C72	C	1.318265	-0.039733	0.537173
C73	C	0.817061	-0.622015	0.042328
C74	C	1.317061	-0.122015	0.542328
C75	C	0.817084	-0.622001	-0.089703
C76	C	1.317084	-0.122001	0.410297
C77	C	0.818294	-0.539724	-0.094856
C78	C	1.318294	-0.039724	0.405144
C79	C	0.818880	-0.498593	-0.031419
C80	C	1.318880	0.001407	0.468581
C81	C	0.820675	-0.375413	0.023566
C82	C	1.320675	0.124587	0.523566
C83	C	0.820111	-0.414494	-0.036695
C84	C	1.320111	0.085506	0.463305
C85	C	0.947394	0.098838	-0.006171
C86	C	1.447394	0.598838	0.493829
C87	C	1.024500	0.100121	-0.006254
C88	C	1.524500	0.600121	0.493746
C89	C	0.815185	0.249288	-0.015612
C90	C	1.315185	0.749288	0.484388
C91	C	0.816469	0.336854	-0.021105
C92	C	1.316469	0.836854	0.478895
N93	N	0.820375	0.105038	0.182105
N94	N	1.320375	0.605038	0.682105
N95	N	0.820427	0.105051	-0.195231
N96	N	1.320427	0.605051	0.304769
C97	C	0.867664	0.051268	0.223580
C98	C	1.367664	0.551268	0.723580
C99	C	0.867668	0.051265	0.299808
C100	C	1.367668	0.551265	0.799808
C101	C	0.820391	0.105044	0.334558
C102	C	1.320391	0.605044	0.834558
C103	C	0.773093	0.158818	0.293073
C104	C	1.273093	0.658818	0.793073
C105	C	0.773085	0.158814	0.216847
C106	C	1.273085	0.658814	0.716847
C107	C	0.811220	0.176920	0.450809
C108	C	1.311220	0.676920	0.950809
C109	C	0.811232	0.176924	0.527034
C110	C	1.311232	0.676924	1.027034
C111	C	0.820410	0.105054	0.569665
C112	C	1.320410	0.605054	1.069665
C113	C	0.829591	0.033177	0.536062
C114	C	1.329591	0.533177	1.036062
C115	C	0.829583	0.033173	0.459836
C116	C	1.329583	0.533173	0.959836
C117	C	0.820393	0.105053	0.417212
C118	C	1.320393	0.605053	0.917212
C119	C	0.867706	0.051277	0.693795
C120	C	1.367706	0.551277	1.193795
C121	C	0.867706	0.051272	0.770024
C122	C	1.367706	0.551272	1.270024
C123	C	0.773134	0.158831	0.763288
C124	C	1.273134	0.658831	1.263288
C125	C	0.773131	0.158829	0.687060
C126	C	1.273131	0.658829	1.187060
C127	C	0.820421	0.105053	0.652318
C128	C	1.320421	0.605053	1.152318
H129	H	0.395864	0.022323	-0.093133
H130	H	0.895864	0.522323	0.406867
H131	H	0.818756	-0.506256	0.088828
H132	H	1.318756	-0.006256	0.588828
N133	N	0.839483	-0.044344	0.423591
N134	N	1.339483	0.455656	0.923591
H135	H	0.800910	-0.077123	0.438920
H136	H	1.300910	0.422877	0.938920
H137	H	0.838103	-0.033366	0.368844
H138	H	1.338103	0.466634	0.868844
N139	N	0.619116	0.110016	0.130340
N140	N	1.119116	0.610016	0.630340
H141	H	0.612184	0.060915	0.162280
H142	H	1.112184	0.560915	0.662280
H143	H	0.670494	0.110905	0.120212
H144	H	1.170494	0.610905	0.620212
H145	H	0.818795	-0.506229	-0.150711
H146	H	1.318795	-0.006229	0.349289
H147	H	0.816557	-0.655513	0.098187
H148	H	1.316557	-0.155513	0.598187
N149	N	0.801325	0.254444	0.563274
N150	N	1.301325	0.754444	1.063274
H151	H	0.839891	0.287231	0.547937
H152	H	1.339891	0.787231	1.047937
H153	H	0.754699	0.284433	0.548117
H154	H	1.254699	0.784433	1.048117
H155	H	0.478121	0.107661	0.113037
H156	H	0.978121	0.607661	0.613037
H157	H	0.816606	-0.655498	-0.141349
H158	H	1.316606	-0.155498	0.358651
N159	N	0.821845	-0.294553	0.155710
N160	N	1.321845	0.205447	0.655710
H161	H	0.822402	-0.256009	0.195112
H162	H	1.322402	0.243991	0.695112
H163	H	0.778308	-0.322146	0.160316
H164	H	1.278308	0.177854	0.660316
H165	H	0.803734	0.235449	0.416104
H166	H	1.303734	0.735449	0.916104
H167	H	0.820606	-0.380989	-0.092543
H168	H	1.320606	0.119011	0.407457
N169	N	0.384519	0.202335	0.092462
N170	N	0.884519	0.702335	0.592462
H171	H	0.436726	0.196182	0.085174
H172	H	0.936726	0.696182	0.585174
H173	H	0.365163	0.259760	0.082104
H174	H	0.865163	0.759760	0.582104
H175	H	0.734598	0.202604	0.321370
H176	H	1.234598	0.702604	0.821370
H177	H	0.824178	-0.134410	0.128222
H178	H	1.324178	0.365590	0.628222
N179	N	0.722077	0.216808	0.172108
N180	N	1.222077	0.716808	0.672108
H181	H	0.692123	0.250875	0.205686
H182	H	1.192123	0.750875	0.705686
H183	H	0.748626	0.251607	0.138289
H184	H	1.248626	0.751607	0.638289
N185	N	0.172255	0.102611	-0.143623
N186	N	0.672255	0.602611	0.356377
H187	H	0.223645	0.103468	-0.133658
H188	H	0.723645	0.603468	0.366342
H189	H	0.165277	0.053515	-0.169378
H190	H	0.665277	0.553515	0.330622
H191	H	0.244933	0.187784	0.080006
H192	H	0.744933	0.687784	0.580006
H193	H	0.031219	0.100211	0.113513
H194	H	0.531219	0.600211	0.613513
H195	H	0.824240	-0.134396	-0.111316
H196	H	1.324240	0.365604	0.388684
N197	N	0.021667	0.100092	-0.143464
N198	N	0.521667	0.600092	0.356536
H199	H	0.055614	0.100661	-0.185317
H200	H	0.555614	0.600661	0.314683
H201	H	-0.002707	0.050696	-0.143239
H202	H	0.497293	0.550696	0.356761
N203	N	0.619159	0.110026	-0.144094
N204	N	1.119159	0.610026	0.355906
H205	H	0.585222	0.109469	-0.185878
H206	H	1.085222	0.609469	0.314122
H207	H	0.643543	0.159415	-0.150066
H208	H	1.143543	0.659415	0.349934
N209	N	0.172222	0.102563	0.130809
N210	N	0.672222	0.602563	0.630809
H211	H	0.223614	0.103426	0.120738
H212	H	0.723614	0.603426	0.620738
H213	H	0.153873	0.151240	0.156584
H214	H	0.653873	0.651240	0.656584
H215	H	0.822046	-0.283653	-0.101955
H216	H	1.322046	0.216347	0.398045
H217	H	0.820178	-0.408923	0.079414
H218	H	1.320178	0.091077	0.579414
H219	H	0.478144	0.107697	-0.126504
H220	H	0.978144	0.607697	0.373496
N221	N	0.722136	0.216837	0.642322
N222	N	1.222136	0.716837	1.142322
H223	H	0.729306	0.208676	0.588761
H224	H	1.229306	0.708676	1.088761
H225	H	0.672874	0.207869	0.656221
H226	H	1.172874	0.707869	1.156221
N227	N	0.256266	0.007763	-0.105582
N228	N	0.756266	0.507763	0.394418
H229	H	0.293609	-0.020946	-0.135819
H230	H	0.793609	0.479054	0.364181
H231	H	0.230791	-0.032204	-0.076417
H232	H	0.730791	0.467796	0.423583
N233	N	0.918663	-0.006734	0.186108
N234	N	1.418663	0.493266	0.686108
H235	H	0.967948	0.002212	0.198801
H236	H	1.467948	0.502212	0.698801
H237	H	0.910664	-0.062673	0.202909
H238	H	1.410664	0.437327	0.702909
N239	N	0.918674	-0.006727	0.344559
N240	N	1.418674	0.493273	0.844559
H241	H	0.910739	-0.062696	0.334817
H242	H	1.410739	0.437304	0.834817
H243	H	0.967934	0.002290	0.330701
H244	H	1.467934	0.502290	0.830701
N245	N	0.839495	-0.044348	0.582030
N246	N	1.339495	0.455652	1.082030
H247	H	0.838104	-0.033443	0.635418
H248	H	1.338104	0.466557	1.135418
H249	H	0.800914	-0.077090	0.570769
H250	H	1.300914	0.422910	1.070769
N251	N	0.918706	-0.006723	0.656316
N252	N	1.418706	0.493277	1.156316
H253	H	0.948662	-0.040792	0.694161
H254	H	1.448662	0.459208	1.194161
H255	H	0.892150	-0.041521	0.626879
H256	H	1.392150	0.458479	1.126879
N257	N	0.918724	-0.006712	0.814761
N258	N	1.418724	0.493288	1.314761
H259	H	0.948684	-0.040770	0.781182
H260	H	1.448684	0.459230	1.281182
H261	H	0.949390	0.023424	0.844480
H262	H	1.449390	0.523424	1.344480
N263	N	0.722135	0.216832	0.800756
N264	N	1.222135	0.716832	1.300756
H265	H	0.729313	0.208674	0.855340
H266	H	1.229313	0.708674	1.355340
H267	H	0.730097	0.272772	0.783917
H268	H	1.230097	0.772772	1.283917
