data_functionalizedCrystal
_audit_creation_method	'MofGen! by Chris Wilmer'
_symmetry_space_group_name_H-M	'P1'
_symmetry_Int_Tables_number	1
_symmetry_cell_setting	triclinic
loop_
_symmetry_equiv_pos_as_xyz
  x,y,z
_cell_length_a	21.395362
_cell_length_b	25.639239
_cell_length_c	21.395355
_cell_angle_alpha	89.980666
_cell_angle_beta	89.956060
_cell_angle_gamma	90.054564
loop_
_atom_site_label
_atom_site_type_symbol
_atom_site_fract_x
_atom_site_fract_y
_atom_site_fract_z
Zn1	Zn	0.957825	-0.207990	-0.354582
Zn2	Zn	1.207825	0.042010	-0.104582
Zn3	Zn	1.457825	0.292010	0.145418
Zn4	Zn	1.707825	0.542010	0.395418
Zn5	Zn	0.957713	-0.295409	-0.249803
Zn6	Zn	1.207713	-0.045409	0.000197
Zn7	Zn	1.457713	0.204591	0.250197
Zn8	Zn	1.707713	0.454591	0.500197
Zn9	Zn	0.853040	-0.208014	-0.249783
Zn10	Zn	1.103040	0.041986	0.000217
Zn11	Zn	1.353040	0.291986	0.250217
Zn12	Zn	1.603040	0.541986	0.500217
Zn13	Zn	0.852994	-0.295420	-0.354508
Zn14	Zn	1.102994	-0.045420	-0.104508
Zn15	Zn	1.352994	0.204580	0.145492
Zn16	Zn	1.602994	0.454580	0.395492
O17	O	0.905393	-0.251708	-0.302169
O18	O	1.155393	-0.001708	-0.052169
O19	O	1.405393	0.248292	0.197831
O20	O	1.655393	0.498292	0.447831
O21	O	1.045488	-0.219571	-0.340722
O22	O	1.295488	0.030429	-0.090722
O23	O	1.545488	0.280429	0.159278
O24	O	1.795488	0.530429	0.409278
O25	O	0.943800	-0.283822	-0.162122
O26	O	1.193800	-0.033822	0.087878
O27	O	1.443800	0.216178	0.337878
O28	O	1.693800	0.466178	0.587878
O29	O	0.867006	-0.134846	-0.263708
O30	O	1.117006	0.115154	-0.013708
O31	O	1.367006	0.365154	0.236292
O32	O	1.617006	0.615154	0.486292
O33	O	1.045405	-0.283798	-0.263742
O34	O	1.295405	-0.033798	-0.013742
O35	O	1.545405	0.216202	0.236258
O36	O	1.795405	0.466202	0.486258
O37	O	0.943991	-0.134828	-0.340703
O38	O	1.193991	0.115172	-0.090703
O39	O	1.443991	0.365172	0.159297
O40	O	1.693991	0.615172	0.409297
O41	O	0.866897	-0.219613	-0.162108
O42	O	1.116897	0.030387	0.087892
O43	O	1.366897	0.280387	0.337892
O44	O	1.616897	0.530387	0.587892
O45	O	0.765356	-0.219623	-0.263636
O46	O	1.015356	0.030377	-0.013636
O47	O	1.265356	0.280377	0.236364
O48	O	1.515356	0.530377	0.486364
O49	O	0.866928	-0.283817	-0.442196
O50	O	1.116928	-0.033817	-0.192196
O51	O	1.366928	0.216183	0.057804
O52	O	1.616928	0.466183	0.307804
O53	O	0.765322	-0.283840	-0.340576
O54	O	1.015322	-0.033840	-0.090576
O55	O	1.265322	0.216160	0.159424
O56	O	1.515322	0.466160	0.409424
O57	O	0.943947	-0.219582	-0.442250
O58	O	1.193947	0.030418	-0.192250
O59	O	1.443947	0.280418	0.057750
O60	O	1.693947	0.530418	0.307750
O61	O	0.943756	-0.368576	-0.263669
O62	O	1.193756	-0.118576	-0.013669
O63	O	1.443756	0.131424	0.236331
O64	O	1.693756	0.381424	0.486331
O65	O	0.866820	-0.368584	-0.340596
O66	O	1.116820	-0.118584	-0.090596
O67	O	1.366820	0.131416	0.159404
O68	O	1.616820	0.381416	0.409404
C69	C	0.742605	-0.251736	-0.302096
C70	C	0.992605	-0.001736	-0.052096
C71	C	1.242605	0.248264	0.197904
C72	C	1.492605	0.498264	0.447904
C73	C	0.672964	-0.251760	-0.302080
C74	C	0.922964	-0.001760	-0.052080
C75	C	1.172964	0.248240	0.197920
C76	C	1.422964	0.498240	0.447920
C77	C	0.905288	-0.387551	-0.302140
C78	C	1.155288	-0.137551	-0.052140
C79	C	1.405288	0.112449	0.197860
C80	C	1.655288	0.362449	0.447860
C81	C	0.905300	-0.445665	-0.302149
C82	C	1.155300	-0.195665	-0.052149
C83	C	1.405300	0.054335	0.197851
C84	C	1.655300	0.304335	0.447851
C85	C	0.640250	-0.285243	-0.342083
C86	C	0.890250	-0.035243	-0.092083
C87	C	1.140250	0.214757	0.157917
C88	C	1.390250	0.464757	0.407917
C89	C	0.574814	-0.285230	-0.342111
C90	C	0.824814	-0.035230	-0.092111
C91	C	1.074814	0.214770	0.157889
C92	C	1.324814	0.464770	0.407889
C93	C	0.542096	-0.251740	-0.302125
C94	C	0.792096	-0.001740	-0.052125
C95	C	1.042096	0.248260	0.197875
C96	C	1.292096	0.498260	0.447875
C97	C	0.574818	-0.218252	-0.262119
C98	C	0.824818	0.031748	-0.012119
C99	C	1.074818	0.281748	0.237881
C100	C	1.324818	0.531748	0.487881
C101	C	0.640252	-0.218262	-0.262097
C102	C	0.890252	0.031738	-0.012097
C103	C	1.140252	0.281738	0.237903
C104	C	1.390252	0.531738	0.487903
C105	C	0.438372	-0.247528	-0.245720
C106	C	0.688372	0.002472	0.004280
C107	C	0.938372	0.252472	0.254280
C108	C	1.188372	0.502472	0.504280
C109	C	0.372939	-0.247522	-0.245741
C110	C	0.622939	0.002478	0.004259
C111	C	0.872939	0.252478	0.254259
C112	C	1.122939	0.502478	0.504259
C113	C	0.340275	-0.251706	-0.302194
C114	C	0.590275	-0.001706	-0.052194
C115	C	0.840275	0.248294	0.197806
C116	C	1.090275	0.498294	0.447806
C117	C	0.373052	-0.255908	-0.358627
C118	C	0.623052	-0.005908	-0.108627
C119	C	0.873052	0.244092	0.141373
C120	C	1.123052	0.494092	0.391373
C121	C	0.438486	-0.255918	-0.358605
C122	C	0.688486	-0.005918	-0.108605
C123	C	0.938486	0.244082	0.141395
C124	C	1.188486	0.494082	0.391395
C125	C	0.471143	-0.251725	-0.302145
C126	C	0.721143	-0.001725	-0.052145
C127	C	0.971143	0.248275	0.197855
C128	C	1.221143	0.498275	0.447855
C129	C	0.236608	-0.285176	-0.342231
C130	C	0.486608	-0.035176	-0.092231
C131	C	0.736608	0.214824	0.157769
C132	C	0.986608	0.464824	0.407769
C133	C	0.171172	-0.285160	-0.342260
C134	C	0.421172	-0.035160	-0.092260
C135	C	0.671172	0.214840	0.157740
C136	C	0.921172	0.464840	0.407740
C137	C	0.171176	-0.218185	-0.262262
C138	C	0.421176	0.031815	-0.012262
C139	C	0.671176	0.281815	0.237738
C140	C	0.921176	0.531815	0.487738
C141	C	0.236612	-0.218198	-0.262239
C142	C	0.486612	0.031802	-0.012239
C143	C	0.736612	0.281802	0.237761
C144	C	0.986612	0.531802	0.487761
C145	C	0.269324	-0.251697	-0.302222
C146	C	0.519324	-0.001697	-0.052222
C147	C	0.769324	0.248303	0.197778
C148	C	1.019324	0.498303	0.447778
C149	C	0.945558	-0.806011	-0.262182
C150	C	1.195558	-0.556011	-0.012182
C151	C	1.445558	-0.306011	0.237818
C152	C	1.695558	-0.056011	0.487818
C153	C	0.945582	-0.860616	-0.262190
C154	C	1.195582	-0.610616	-0.012190
C155	C	1.445582	-0.360616	0.237810
C156	C	1.695582	-0.110616	0.487810
O157	O	0.979702	-0.888838	-0.228177
O158	O	1.229702	-0.638838	0.021823
O159	O	1.479702	-0.388838	0.271823
O160	O	1.729702	-0.138838	0.521823
N161	N	0.905503	-0.887947	-0.302211
N162	N	1.155503	-0.637947	-0.052211
N163	N	1.405503	-0.387947	0.197789
N164	N	1.655503	-0.137947	0.447789
C165	C	0.865401	-0.860672	-0.342230
C166	C	1.115401	-0.610672	-0.092230
C167	C	1.365401	-0.360672	0.157770
C168	C	1.615401	-0.110672	0.407770
O169	O	0.831313	-0.888934	-0.376271
O170	O	1.081313	-0.638934	-0.126271
O171	O	1.331313	-0.388934	0.123729
O172	O	1.581313	-0.138934	0.373729
C173	C	0.865381	-0.806069	-0.342224
C174	C	1.115381	-0.556069	-0.092224
C175	C	1.365381	-0.306069	0.157776
C176	C	1.615381	-0.056069	0.407776
C177	C	0.905458	-0.778740	-0.302196
C178	C	1.155458	-0.528740	-0.052196
C179	C	1.405458	-0.278740	0.197804
C180	C	1.655458	-0.028740	0.447804
C181	C	0.985633	-0.778682	-0.222158
C182	C	1.235633	-0.528682	0.027842
C183	C	1.485633	-0.278682	0.277842
C184	C	1.735633	-0.028682	0.527842
C185	C	0.985608	-0.724082	-0.222149
C186	C	1.235608	-0.474082	0.027851
C187	C	1.485608	-0.224082	0.277851
C188	C	1.735608	0.025918	0.527851
C189	C	0.945508	-0.696810	-0.262164
C190	C	1.195508	-0.446810	-0.012164
C191	C	1.445508	-0.196810	0.237836
C192	C	1.695508	0.053190	0.487836
C193	C	0.905433	-0.724139	-0.302187
C194	C	1.155433	-0.474139	-0.052187
C195	C	1.405433	-0.224139	0.197813
C196	C	1.655433	0.025861	0.447813
C197	C	0.825282	-0.778794	-0.382246
C198	C	1.075282	-0.528794	-0.132246
C199	C	1.325282	-0.278794	0.117754
C200	C	1.575282	-0.028794	0.367754
C201	C	0.825266	-0.724187	-0.382237
C202	C	1.075266	-0.474187	-0.132237
C203	C	1.325266	-0.224187	0.117763
C204	C	1.575266	0.025813	0.367763
C205	C	0.865343	-0.696858	-0.342209
C206	C	1.115343	-0.446858	-0.092209
C207	C	1.365343	-0.196858	0.157791
C208	C	1.615343	0.053142	0.407791
C209	C	0.865308	-0.642267	-0.342193
C210	C	1.115308	-0.392267	-0.092193
C211	C	1.365308	-0.142267	0.157807
C212	C	1.615308	0.107733	0.407807
N213	N	0.905387	-0.614935	-0.302173
N214	N	1.155387	-0.364935	-0.052173
N215	N	1.405387	-0.114935	0.197827
N216	N	1.655387	0.135065	0.447827
C217	C	0.945487	-0.642207	-0.262158
C218	C	1.195487	-0.392207	-0.012158
C219	C	1.445487	-0.142207	0.237842
C220	C	1.695487	0.107793	0.487842
C221	C	0.865448	-0.975343	-0.342239
C222	C	1.115448	-0.725343	-0.092239
C223	C	1.365448	-0.475343	0.157761
C224	C	1.615448	-0.225343	0.407761
C225	C	0.865465	-1.029945	-0.342242
C226	C	1.115465	-0.779945	-0.092242
C227	C	1.365465	-0.529945	0.157758
C228	C	1.615465	-0.279945	0.407758
C229	C	0.945648	-1.029885	-0.262204
C230	C	1.195648	-0.779885	-0.012204
C231	C	1.445648	-0.529885	0.237796
C232	C	1.695648	-0.279885	0.487796
C233	C	0.945627	-0.975281	-0.262198
C234	C	1.195627	-0.725281	-0.012198
C235	C	1.445627	-0.475281	0.237802
C236	C	1.695627	-0.225281	0.487802
C237	C	0.905528	-0.948011	-0.302219
C238	C	1.155528	-0.698011	-0.052219
C239	C	1.405528	-0.448011	0.197781
C240	C	1.655528	-0.198011	0.447781
C241	C	0.945430	-0.527542	-0.262142
C242	C	1.195430	-0.277542	-0.012142
C243	C	1.445430	-0.027542	0.237858
C244	C	1.695430	0.222458	0.487858
C245	C	0.945400	-0.472937	-0.262134
C246	C	1.195400	-0.222937	-0.012134
C247	C	1.445400	0.027063	0.237866
C248	C	1.695400	0.277063	0.487866
C249	C	0.865220	-0.473002	-0.342175
C250	C	1.115220	-0.223002	-0.092175
C251	C	1.365220	0.026998	0.157825
C252	C	1.615220	0.276998	0.407825
C253	C	0.865248	-0.527602	-0.342180
C254	C	1.115248	-0.277602	-0.092180
C255	C	1.365248	-0.027602	0.157820
C256	C	1.615248	0.222398	0.407820
C257	C	0.905358	-0.554871	-0.302162
C258	C	1.155358	-0.304871	-0.052162
C259	C	1.405358	-0.054871	0.197838
C260	C	1.655358	0.195129	0.447838
O261	O	0.831207	-0.614010	-0.376190
O262	O	1.081207	-0.364010	-0.126190
O263	O	1.331207	-0.114010	0.123810
O264	O	1.581207	0.135990	0.373810
O265	O	0.979575	-0.613939	-0.228128
O266	O	1.229575	-0.363939	0.021872
O267	O	1.479575	-0.113939	0.271872
O268	O	1.729575	0.136061	0.521872
C269	C	1.068816	-0.251681	-0.302242
C270	C	1.318816	-0.001681	-0.052242
C271	C	1.568816	0.248319	0.197758
C272	C	1.818816	0.498319	0.447758
C273	C	1.138458	-0.251669	-0.302274
C274	C	1.388458	-0.001669	-0.052274
C275	C	1.638458	0.248331	0.197726
C276	C	1.888458	0.498331	0.447726
C277	C	0.905445	-0.251698	-0.465592
C278	C	1.155445	-0.001698	-0.215592
C279	C	1.405445	0.248302	0.034408
C280	C	1.655445	0.498302	0.284408
C281	C	0.905467	-0.251693	-0.535234
C282	C	1.155467	-0.001693	-0.285234
C283	C	1.405467	0.248307	-0.035234
C284	C	1.655467	0.498307	0.214766
C285	C	0.905516	-0.115335	-0.302212
C286	C	1.155516	0.134665	-0.052212
C287	C	1.405516	0.384665	0.197788
C288	C	1.655516	0.634665	0.447788
C289	C	0.905568	-0.057221	-0.302230
C290	C	1.155568	0.192779	-0.052230
C291	C	1.405568	0.442779	0.197770
C292	C	1.655568	0.692779	0.447770
C293	C	0.945569	-0.218245	-0.567976
C294	C	1.195569	0.031755	-0.317976
C295	C	1.445569	0.281755	-0.067976
C296	C	1.695569	0.531755	0.182024
C297	C	0.945568	-0.218222	-0.633412
C298	C	1.195568	0.031778	-0.383412
C299	C	1.445568	0.281778	-0.133412
C300	C	1.695568	0.531778	0.116588
C301	C	0.905472	-0.251658	-0.666102
C302	C	1.155472	-0.001658	-0.416102
C303	C	1.405472	0.248342	-0.166102
C304	C	1.655472	0.498342	0.083898
C305	C	0.865362	-0.285108	-0.633352
C306	C	1.115362	-0.035108	-0.383352
C307	C	1.365362	0.214892	-0.133352
C308	C	1.615362	0.464892	0.116648
C309	C	0.865360	-0.285126	-0.567917
C310	C	1.115360	-0.035126	-0.317917
C311	C	1.365360	0.214874	-0.067917
C312	C	1.615360	0.464874	0.182083
C313	C	0.900488	-0.298736	-0.769765
C314	C	1.150488	-0.048736	-0.519765
C315	C	1.400488	0.201264	-0.269765
C316	C	1.650488	0.451264	-0.019765
C317	C	0.900495	-0.298719	-0.835198
C318	C	1.150495	-0.048719	-0.585198
C319	C	1.400495	0.201281	-0.335198
C320	C	1.650495	0.451281	-0.085198
C321	C	0.905476	-0.251602	-0.867923
C322	C	1.155476	-0.001602	-0.617923
C323	C	1.405476	0.248398	-0.367923
C324	C	1.655476	0.498398	-0.117923
C325	C	0.910463	-0.204501	-0.835207
C326	C	1.160463	0.045499	-0.585207
C327	C	1.410463	0.295499	-0.335207
C328	C	1.660463	0.545499	-0.085207
C329	C	0.910461	-0.204519	-0.769773
C330	C	1.160461	0.045481	-0.519773
C331	C	1.410461	0.295481	-0.269773
C332	C	1.660461	0.545481	-0.019773
C333	C	0.905470	-0.251642	-0.737054
C334	C	1.155470	-0.001642	-0.487054
C335	C	1.405470	0.248358	-0.237054
C336	C	1.655470	0.498358	0.012946
C337	C	0.945579	-0.218127	-0.971618
C338	C	1.195579	0.031873	-0.721618
C339	C	1.445579	0.281873	-0.471618
C340	C	1.695579	0.531873	-0.221618
C341	C	0.945574	-0.218103	-1.037055
C342	C	1.195574	0.031897	-0.787055
C343	C	1.445574	0.281897	-0.537055
C344	C	1.695574	0.531897	-0.287055
C345	C	0.865371	-0.284994	-1.036993
C346	C	1.115371	-0.034994	-0.786993
C347	C	1.365371	0.215006	-0.536993
C348	C	1.615371	0.465006	-0.286993
C349	C	0.865373	-0.285013	-0.971558
C350	C	1.115373	-0.035013	-0.721558
C351	C	1.365373	0.214987	-0.471558
C352	C	1.615373	0.464987	-0.221558
C353	C	0.905480	-0.251580	-0.938874
C354	C	1.155480	-0.001580	-0.688874
C355	C	1.405480	0.248420	-0.438874
C356	C	1.655480	0.498420	-0.188874
C357	C	0.905377	-0.251681	-0.139381
C358	C	1.155377	-0.001681	0.110619
C359	C	1.405377	0.248319	0.360619
C360	C	1.655377	0.498319	0.610619
C361	C	0.905476	-0.251538	-0.069741
C362	C	1.155476	-0.001538	0.180259
C363	C	1.405476	0.248462	0.430259
C364	C	1.655476	0.498462	0.680259
H365	H	0.666880	-0.312519	-0.374642
H366	H	0.916880	-0.062519	-0.124642
H367	H	1.166880	0.187481	0.125358
H368	H	1.416880	0.437481	0.375358
Cl369	Cl	0.533679	-0.327325	-0.392404
Cl370	Cl	0.783679	-0.077325	-0.142404
Cl371	Cl	1.033679	0.172675	0.107596
Cl372	Cl	1.283679	0.422675	0.357596
H373	H	0.914520	-0.166167	-0.743138
H374	H	1.164520	0.083833	-0.493138
H375	H	1.414520	0.333833	-0.243138
H376	H	1.664520	0.583833	0.006862
H377	H	0.792613	-0.701986	-0.414829
H378	H	1.042613	-0.451986	-0.164829
H379	H	1.292613	-0.201986	0.085171
H380	H	1.542613	0.048014	0.335171
Cl381	Cl	0.130045	-0.327253	-0.392557
Cl382	Cl	0.380045	-0.077253	-0.142557
Cl383	Cl	0.630045	0.172747	0.107443
Cl384	Cl	0.880045	0.422747	0.357443
H385	H	0.465171	-0.259338	-0.404555
H386	H	0.715171	-0.009338	-0.154555
H387	H	0.965171	0.240662	0.095445
H388	H	1.215171	0.490662	0.345445
H389	H	0.978093	-0.549738	-0.229556
H390	H	1.228093	-0.299738	0.020444
H391	H	1.478093	-0.049738	0.270444
H392	H	1.728093	0.200262	0.520444
Cl393	Cl	0.277735	-0.327284	-0.392498
Cl394	Cl	0.527735	-0.077284	-0.142498
Cl395	Cl	0.777735	0.172716	0.107502
Cl396	Cl	1.027735	0.422716	0.357502
H397	H	0.978301	-1.052099	-0.229624
H398	H	1.228301	-0.802099	0.020376
H399	H	1.478301	-0.552099	0.270376
H400	H	1.728301	-0.302099	0.520376
Cl401	Cl	0.130050	-0.176080	-0.211997
Cl402	Cl	0.380050	0.073920	0.038003
Cl403	Cl	0.630050	0.323920	0.288003
Cl404	Cl	0.880050	0.573920	0.538003
Cl405	Cl	0.814852	-0.561959	-0.392488
Cl406	Cl	1.064852	-0.311959	-0.142488
Cl407	Cl	1.314852	-0.061959	0.107512
Cl408	Cl	1.564852	0.188041	0.357512
H409	H	0.978036	-0.450687	-0.229537
H410	H	1.228036	-0.200687	0.020463
H411	H	1.478036	0.049313	0.270463
H412	H	1.728036	0.299313	0.520463
Cl413	Cl	0.814815	-0.438707	-0.392480
Cl414	Cl	1.064815	-0.188707	-0.142480
Cl415	Cl	1.314815	0.061293	0.107520
Cl416	Cl	1.564815	0.311293	0.357520
Cl417	Cl	0.331997	-0.261165	-0.429603
Cl418	Cl	0.581997	-0.011165	-0.179603
Cl419	Cl	0.831997	0.238835	0.070397
Cl420	Cl	1.081997	0.488835	0.320397
H421	H	0.978227	-0.191020	-0.541369
H422	H	1.228227	0.058980	-0.291369
H423	H	1.478227	0.308980	-0.041369
H424	H	1.728227	0.558980	0.208631
Cl425	Cl	0.995973	-0.176159	-0.674582
Cl426	Cl	1.245973	0.073841	-0.424582
Cl427	Cl	1.495973	0.323841	-0.174582
Cl428	Cl	1.745973	0.573841	0.075418
H429	H	0.832790	-0.953142	-0.374827
H430	H	1.082790	-0.703142	-0.124827
H431	H	1.332790	-0.453142	0.125173
H432	H	1.582790	-0.203142	0.375173
Cl433	Cl	0.774903	-0.813137	-0.432577
Cl434	Cl	1.024903	-0.563137	-0.182577
Cl435	Cl	1.274903	-0.313137	0.067423
Cl436	Cl	1.524903	-0.063137	0.317423
H437	H	0.978262	-0.953033	-0.229605
H438	H	1.228262	-0.703033	0.020395
H439	H	1.478262	-0.453033	0.270395
H440	H	1.728262	-0.203033	0.520395
Cl441	Cl	0.815073	-1.064295	-0.392557
Cl442	Cl	1.065073	-0.814295	-0.142557
Cl443	Cl	1.315073	-0.564295	0.107443
Cl444	Cl	1.565073	-0.314295	0.357443
Cl445	Cl	0.916728	-0.145264	-0.876339
Cl446	Cl	1.166728	0.104736	-0.626339
Cl447	Cl	1.416728	0.354736	-0.376339
Cl448	Cl	1.666728	0.604736	-0.126339
H449	H	0.263248	-0.190936	-0.229661
H450	H	0.513248	0.059064	0.020339
H451	H	0.763248	0.309064	0.270339
H452	H	1.013248	0.559064	0.520339
Cl453	Cl	0.995995	-0.176095	-0.930527
Cl454	Cl	1.245995	0.073905	-0.680527
Cl455	Cl	1.495995	0.323905	-0.430527
Cl456	Cl	1.745995	0.573905	-0.180527
Cl457	Cl	0.814958	-0.327023	-1.078084
Cl458	Cl	1.064958	-0.077023	-0.828084
Cl459	Cl	1.314958	0.172977	-0.578084
Cl460	Cl	1.564958	0.422977	-0.328084
H461	H	0.548174	-0.190984	-0.229563
H462	H	0.798174	0.059016	0.020437
H463	H	1.048174	0.309016	0.270437
H464	H	1.298174	0.559016	0.520437
H465	H	0.978228	-0.190863	-1.063713
H466	H	1.228228	0.059137	-0.813713
H467	H	1.478228	0.309137	-0.563713
H468	H	1.728228	0.559137	-0.313713
Cl469	Cl	0.814959	-0.327067	-0.930394
Cl470	Cl	1.064959	-0.077067	-0.680394
Cl471	Cl	1.314959	0.172933	-0.430394
Cl472	Cl	1.564959	0.422933	-0.180394
H473	H	1.018244	-0.701834	-0.189557
H474	H	1.268244	-0.451834	0.060443
H475	H	1.518244	-0.201834	0.310443
H476	H	1.768244	0.048166	0.560443
H477	H	1.018290	-0.800881	-0.189573
H478	H	1.268290	-0.550881	0.060427
H479	H	1.518290	-0.300881	0.310427
H480	H	1.768290	-0.050881	0.560427
Cl481	Cl	0.331740	-0.242239	-0.174797
Cl482	Cl	0.581740	0.007761	0.075203
Cl483	Cl	0.831740	0.257761	0.325203
Cl484	Cl	1.081740	0.507761	0.575203
H485	H	0.896438	-0.337072	-0.861831
H486	H	1.146438	-0.087072	-0.611831
H487	H	1.396438	0.162928	-0.361831
H488	H	1.646438	0.412928	-0.111831
H489	H	0.896265	-0.337094	-0.743126
H490	H	1.146265	-0.087094	-0.493126
H491	H	1.396265	0.162906	-0.243126
H492	H	1.646265	0.412906	0.006874
H493	H	0.832701	-0.312363	-0.541259
H494	H	1.082701	-0.062363	-0.291259
H495	H	1.332701	0.187637	-0.041259
H496	H	1.582701	0.437637	0.208741
Cl497	Cl	0.479428	-0.242270	-0.174743
Cl498	Cl	0.729428	0.007730	0.075257
Cl499	Cl	0.979428	0.257730	0.325257
Cl500	Cl	1.229428	0.507730	0.575257
Cl501	Cl	0.681380	-0.176167	-0.211803
Cl502	Cl	0.931380	0.073833	0.038197
Cl503	Cl	1.181380	0.323833	0.288197
Cl504	Cl	1.431380	0.573833	0.538197
H505	H	0.832714	-0.312330	-0.659972
H506	H	1.082714	-0.062330	-0.409972
H507	H	1.332714	0.187670	-0.159972
H508	H	1.582714	0.437670	0.090028
