data_functionalizedCrystal
_audit_creation_method	'MofGen! by Chris Wilmer'
_symmetry_space_group_name_H-M	'P1'
_symmetry_Int_Tables_number	1
_symmetry_cell_setting	triclinic
loop_
_symmetry_equiv_pos_as_xyz
  x,y,z
_cell_length_a	13.032721
_cell_length_b	13.032891
_cell_length_c	11.169409
_cell_angle_alpha	82.803792
_cell_angle_beta	97.146154
_cell_angle_gamma	90.903621
loop_
_atom_site_label
_atom_site_type_symbol
_atom_site_fract_x
_atom_site_fract_y
_atom_site_fract_z
Zn1	Zn	-0.609274	1.520325	-0.988813
Zn2	Zn	-0.109274	2.020325	-0.488813
Zn3	Zn	-0.781267	1.498351	-0.809997
Zn4	Zn	-0.281267	1.998351	-0.309997
Zn5	Zn	-0.587463	1.348323	-0.759912
Zn6	Zn	-0.087463	1.848323	-0.259912
Zn7	Zn	-0.759324	1.326473	-0.982405
Zn8	Zn	-0.259324	1.826473	-0.482405
O9	O	-0.684332	1.423368	-0.885282
O10	O	-0.184332	1.923368	-0.385282
O11	O	-0.650400	1.661325	-0.988734
O12	O	-0.150400	2.161325	-0.488734
O13	O	-0.755614	1.478397	-0.635403
O14	O	-0.255614	1.978397	-0.135403
O15	O	-0.446452	1.389480	-0.771998
O16	O	0.053548	1.889480	-0.271998
O17	O	-0.776763	1.645180	-0.857359
O18	O	-0.276763	2.145180	-0.357359
O19	O	-0.462476	1.515849	-0.940170
O20	O	0.037524	2.015849	-0.440170
O21	O	-0.613227	1.368173	-0.598607
O22	O	-0.113227	1.868173	-0.098607
O23	O	-0.591949	1.201510	-0.765785
O24	O	-0.091949	1.701510	-0.265785
O25	O	-0.739364	1.352240	-1.151205
O26	O	-0.239364	1.852240	-0.651205
O27	O	-0.718215	1.185457	-0.929249
O28	O	-0.218215	1.685457	-0.429249
O29	O	-0.629123	1.494662	-1.155912
O30	O	-0.129123	1.994662	-0.655912
O31	O	-0.922261	1.457210	-0.851146
O32	O	-0.422261	1.957210	-0.351146
O33	O	-0.906139	1.330933	-0.977814
O34	O	-0.406139	1.830933	-0.477814
C35	C	-0.650335	1.156168	-0.841388
C36	C	-0.150335	1.656168	-0.341388
C37	C	-0.635816	1.041855	-0.822641
C38	C	-0.135816	1.541855	-0.322641
C39	C	-0.676909	0.864815	-0.875702
C40	C	-0.176909	1.364815	-0.375702
C41	C	-0.691921	0.982963	-0.895076
C42	C	-0.191921	1.482963	-0.395076
C43	C	-0.951516	1.389344	-0.919250
C44	C	-0.451516	1.889344	-0.419250
C45	C	-1.065830	1.374883	-0.933837
C46	C	-0.565830	1.874883	-0.433837
C47	C	-1.124745	1.430970	-0.877732
C48	C	-0.624745	1.930970	-0.377732
C49	C	-1.242895	1.416025	-0.892807
C50	C	-0.742895	1.916025	-0.392807
C51	C	-0.416108	1.457553	-0.851212
C52	C	0.083892	1.957553	-0.351212
C53	C	-0.301807	1.472120	-0.836693
C54	C	0.198193	1.972120	-0.336693
C55	C	-0.684229	1.423465	-1.198323
C56	C	-0.184229	1.923465	-0.698323
C57	C	-0.684184	1.423506	-1.331723
C58	C	-0.184184	1.923506	-0.831723
C59	C	-0.718463	1.691611	-0.929348
C60	C	-0.218463	2.191611	-0.429348
C61	C	-0.733007	1.805921	-0.948127
C62	C	-0.233007	2.305921	-0.448127
C63	C	-0.684368	1.423340	-0.573458
C64	C	-0.184368	1.923340	-0.073458
C65	C	-0.684148	1.423535	-0.440055
C66	C	-0.184148	1.923535	0.059945
H67	H	-0.617765	0.827770	-0.799358
H68	H	-0.117765	1.327770	-0.299358
H69	H	-1.279922	1.356942	-0.952011
H70	H	-0.779922	1.856942	-0.452011
Br71	Br	-1.240106	1.570613	-0.738032
Br72	Br	-0.740106	2.070613	-0.238032
H73	H	-0.576666	1.004816	-0.746292
H74	H	-0.076666	1.504816	-0.246292
H75	H	-0.751061	1.020005	-0.971434
H76	H	-0.251061	1.520005	-0.471434
H77	H	-1.102862	1.315804	-0.993037
H78	H	-0.602862	1.815804	-0.493037
Br79	Br	-0.831574	0.867656	-1.075393
Br80	Br	-0.331574	1.367656	-0.575393
Br81	Br	-1.063036	1.529460	-0.779078
Br82	Br	-0.563036	2.029460	-0.279078
