data_functionalizedCrystal
_audit_creation_method	'MofGen! by Chris Wilmer'
_symmetry_space_group_name_H-M	'P1'
_symmetry_Int_Tables_number	1
_symmetry_cell_setting	triclinic
loop_
_symmetry_equiv_pos_as_xyz
  x,y,z
_cell_length_a	18.050590
_cell_length_b	18.050590
_cell_length_c	12.759393
_cell_angle_alpha	89.964247
_cell_angle_beta	89.993989
_cell_angle_gamma	90.007719
loop_
_atom_site_label
_atom_site_type_symbol
_atom_site_fract_x
_atom_site_fract_y
_atom_site_fract_z
Zn1	Zn	1.135392	-0.295830	-0.593601
Zn2	Zn	1.468725	0.037503	-0.260267
Zn3	Zn	1.802059	0.370836	0.073066
Zn4	Zn	1.135309	-0.420041	-0.417908
Zn5	Zn	1.468642	-0.086707	-0.084575
Zn6	Zn	1.801976	0.246626	0.248759
Zn7	Zn	1.011197	-0.295846	-0.417978
Zn8	Zn	1.344530	0.037488	-0.084645
Zn9	Zn	1.677863	0.370821	0.248688
Zn10	Zn	1.011180	-0.419960	-0.593588
Zn11	Zn	1.344513	-0.086626	-0.260254
Zn12	Zn	1.677847	0.246707	0.073079
O13	O	1.073269	-0.357919	-0.505769
O14	O	1.406603	-0.024586	-0.172435
O15	O	1.739936	0.308748	0.160898
O16	O	1.239306	-0.312335	-0.570270
O17	O	1.572639	0.020998	-0.236937
O18	O	1.905972	0.354332	0.096396
O19	O	1.118817	-0.403606	-0.270896
O20	O	1.452151	-0.070273	0.062437
O21	O	1.785484	0.263061	0.395771
O22	O	1.027713	-0.191919	-0.441310
O23	O	1.361046	0.141414	-0.107976
O24	O	1.694380	0.474748	0.225357
O25	O	1.239245	-0.403592	-0.441190
O26	O	1.572578	-0.070258	-0.107856
O27	O	1.905911	0.263075	0.225477
O28	O	1.118959	-0.191908	-0.570339
O29	O	1.452292	0.141425	-0.237005
O30	O	1.785625	0.474759	0.096328
O31	O	1.027632	-0.312360	-0.270948
O32	O	1.360966	0.020973	0.062386
O33	O	1.694299	0.354306	0.395719
O34	O	0.907270	-0.312282	-0.441297
O35	O	1.240603	0.021051	-0.107964
O36	O	1.573936	0.354385	0.225369
O37	O	1.027685	-0.403453	-0.740610
O38	O	1.361018	-0.070120	-0.407277
O39	O	1.694352	0.263213	-0.073944
O40	O	0.907258	-0.403468	-0.570317
O41	O	1.240591	-0.070135	-0.236983
O42	O	1.573924	0.263199	0.096350
O43	O	1.118943	-0.312256	-0.740620
O44	O	1.452276	0.021077	-0.407287
O45	O	1.785610	0.354410	-0.073953
O46	O	1.118801	-0.523955	-0.441177
O47	O	1.452135	-0.190621	-0.107844
O48	O	1.785468	0.142712	0.225489
O49	O	1.027605	-0.523895	-0.570248
O50	O	1.360938	-0.190562	-0.236915
O51	O	1.694271	0.142772	0.096418
C52	C	0.880317	-0.357868	-0.505814
C53	C	1.213651	-0.024535	-0.172480
C54	C	1.546984	0.308798	0.160853
C55	C	0.797772	-0.357865	-0.505858
C56	C	1.131105	-0.024531	-0.172525
C57	C	1.464438	0.308802	0.160809
C58	C	1.073212	-0.550871	-0.505727
C59	C	1.406546	-0.217538	-0.172393
C60	C	1.739879	0.115795	0.160940
C61	C	1.073256	-0.633417	-0.505744
C62	C	1.406589	-0.300084	-0.172411
C63	C	1.739923	0.033250	0.160923
C64	C	0.598336	-0.407594	-0.575852
C65	C	0.931669	-0.074260	-0.242519
C66	C	1.265003	0.259073	0.090814
C67	C	0.548933	-0.339875	-0.601707
C68	C	0.882267	-0.006541	-0.268374
C69	C	1.215600	0.326792	0.064959
C70	C	0.646641	-0.357906	-0.505807
C71	C	0.979974	-0.024573	-0.172473
C72	C	1.313308	0.308761	0.160860
C73	C	0.548962	-0.425664	-0.479951
C74	C	0.882295	-0.092330	-0.146617
C75	C	1.215628	0.241003	0.186716
C76	C	0.500656	-0.357952	-0.505759
C77	C	0.833989	-0.024619	-0.172426
C78	C	1.167323	0.308715	0.160907
C79	C	0.598326	-0.290151	-0.531712
C80	C	0.931659	0.043182	-0.198379
C81	C	1.264993	0.376516	0.134955
C82	C	0.598359	-0.375986	-0.409911
C83	C	0.931692	-0.042652	-0.076577
C84	C	1.265025	0.290681	0.256756
C85	C	0.548979	-0.308220	-0.435729
C86	C	0.882312	0.025113	-0.102396
C87	C	1.215645	0.358447	0.230937
C88	C	0.730739	-0.357880	-0.505837
C89	C	1.064073	-0.024547	-0.172504
C90	C	1.397406	0.308786	0.160830
C91	C	0.416560	-0.357970	-0.505729
C92	C	0.749893	-0.024637	-0.172396
C93	C	1.083226	0.308697	0.160938
C94	C	1.122952	-0.832873	-0.435653
C95	C	1.456285	-0.499540	-0.102320
C96	C	1.789619	-0.166206	0.231014
C97	C	1.141095	-0.882200	-0.531534
C98	C	1.474429	-0.548867	-0.198200
C99	C	1.807762	-0.215534	0.135133
C100	C	1.073298	-0.784547	-0.505786
C101	C	1.406631	-0.451214	-0.172452
C102	C	1.739965	-0.117881	0.160881
C103	C	1.055230	-0.882302	-0.409948
C104	C	1.388563	-0.548968	-0.076615
C105	C	1.721897	-0.215635	0.256719
C106	C	1.073340	-0.930532	-0.505818
C107	C	1.406673	-0.597199	-0.172484
C108	C	1.740007	-0.263866	0.160849
C109	C	1.091476	-0.832787	-0.601717
C110	C	1.424810	-0.499454	-0.268384
C111	C	1.758143	-0.166121	0.064950
C112	C	1.005579	-0.832884	-0.480067
C113	C	1.338913	-0.499551	-0.146733
C114	C	1.672246	-0.166218	0.186600
C115	C	1.023697	-0.882189	-0.576014
C116	C	1.357031	-0.548856	-0.242680
C117	C	1.690364	-0.215523	0.090653
C118	C	1.073276	-0.700449	-0.505766
C119	C	1.406609	-0.367116	-0.172433
C120	C	1.739942	-0.033782	0.160901
C121	C	1.073362	-1.014629	-0.505848
C122	C	1.406696	-0.681296	-0.172515
C123	C	1.740029	-0.347962	0.160818
C124	C	1.266975	-0.357971	-0.505724
C125	C	1.600308	-0.024637	-0.172390
C126	C	1.933642	0.308696	0.160943
C127	C	1.349521	-0.357992	-0.505705
C128	C	1.682854	-0.024659	-0.172371
C129	C	2.016187	0.308674	0.160962
C130	C	1.073321	-0.357844	-0.779802
C131	C	1.406655	-0.024511	-0.446469
C132	C	1.739988	0.308823	-0.113135
C133	C	1.073344	-0.357812	-0.896579
C134	C	1.406677	-0.024479	-0.563245
C135	C	1.740010	0.308854	-0.229912
C136	C	1.073347	-0.164213	-0.505834
C137	C	1.406680	0.169120	-0.172500
C138	C	1.740014	0.502453	0.160833
C139	C	1.073380	-0.081668	-0.505861
C140	C	1.406713	0.251666	-0.172528
C141	C	1.740047	0.584999	0.160805
C142	C	1.120868	-0.310321	-0.951447
C143	C	1.454201	0.023012	-0.618114
C144	C	1.787535	0.356345	-0.284781
C145	C	1.120886	-0.310295	-1.061172
C146	C	1.454219	0.023039	-0.727838
C147	C	1.787552	0.356372	-0.394505
C148	C	1.025852	-0.405256	-1.061149
C149	C	1.359186	-0.071923	-0.727815
C150	C	1.692519	0.261411	-0.394482
C151	C	1.025831	-0.405278	-0.951427
C152	C	1.359165	-0.071945	-0.618093
C153	C	1.692498	0.261388	-0.284760
C154	C	1.168380	-0.262855	-0.896600
C155	C	1.501714	0.070478	-0.563266
C156	C	1.835047	0.403811	-0.229933
C157	C	1.215909	-0.215361	-0.951468
C158	C	1.549243	0.117972	-0.618135
C159	C	1.882576	0.451306	-0.284802
C160	C	1.215927	-0.215334	-1.061193
C161	C	1.549260	0.117999	-0.727859
C162	C	1.882594	0.451332	-0.394526
C163	C	1.168416	-0.262802	-1.116048
C164	C	1.501749	0.070532	-0.782715
C165	C	1.835082	0.403865	-0.449381
C166	C	1.073260	-0.357940	-0.232801
C167	C	1.406594	-0.024607	0.100532
C168	C	1.739927	0.308727	0.433865
C169	C	1.073382	-0.357763	-0.116025
C170	C	1.406715	-0.024430	0.217308
C171	C	1.740049	0.308904	0.550642
H172	H	0.620010	-0.449539	-0.635154
H173	H	0.953343	-0.116206	-0.301820
H174	H	1.286676	0.217128	0.031513
F175	F	0.930721	-0.804550	-0.451573
F176	F	1.264054	-0.471217	-0.118240
F177	F	1.597387	-0.137883	0.215094
H178	H	0.619919	-0.232852	-0.553652
H179	H	0.953253	0.100482	-0.220319
H180	H	1.286586	0.433815	0.113014
F181	F	0.626737	-0.395970	-0.303951
F182	F	0.960070	-0.062636	0.029382
F183	F	1.293403	0.270697	0.362715
F184	F	1.177853	-0.804567	-0.358210
F185	F	1.511186	-0.471233	-0.024877
F186	F	1.844519	-0.137900	0.308456
H187	H	1.106719	-0.811131	-0.682849
H188	H	1.440052	-0.477798	-0.349516
H189	H	1.773385	-0.144464	-0.016182
F190	F	1.035232	-0.910730	-0.303996
F191	F	1.368566	-0.577396	0.029338
F192	F	1.701899	-0.244063	0.362671
H193	H	0.527223	-0.324597	-0.682784
H194	H	0.860557	0.008736	-0.349451
H195	H	1.193890	0.342069	-0.016117
H196	H	1.168425	-0.262767	-1.205393
H197	H	1.501758	0.070566	-0.872059
H198	H	1.835092	0.403899	-0.538726
H199	H	1.168373	-0.262873	-0.807257
H200	H	1.501706	0.070460	-0.473923
H201	H	1.835039	0.403793	-0.140590
H202	H	1.198382	-0.903864	-0.553308
H203	H	1.531715	-0.570531	-0.219975
H204	H	1.865048	-0.237198	0.113359
H205	H	0.987171	-0.443901	-1.105821
H206	H	1.320504	-0.110568	-0.772487
H207	H	1.653837	0.222766	-0.439154
H208	H	0.527444	-0.266172	-0.376474
H209	H	0.860777	0.067161	-0.043141
H210	H	1.194110	0.400494	0.290192
H211	H	1.254587	-0.176710	-0.906798
H212	H	1.587920	0.156623	-0.573465
H213	H	1.921253	0.489956	-0.240131
H214	H	0.527274	-0.482946	-0.458104
H215	H	0.860608	-0.149612	-0.124771
H216	H	1.193941	0.183721	0.208562
F217	F	1.266511	-0.164788	-1.119585
F218	F	1.599844	0.168545	-0.786252
F219	F	1.933177	0.501878	-0.452918
H220	H	0.981725	-0.903707	-0.635405
H221	H	1.315058	-0.570374	-0.302072
H222	H	1.648391	-0.237041	0.031262
H223	H	0.987121	-0.443938	-0.906751
H224	H	1.320455	-0.110605	-0.573418
H225	H	1.653788	0.222728	-0.240085
