data_functionalizedCrystal
_audit_creation_method	'MofGen! by Chris Wilmer'
_symmetry_space_group_name_H-M	'P1'
_symmetry_Int_Tables_number	1
_symmetry_cell_setting	triclinic
loop_
_symmetry_equiv_pos_as_xyz
  x,y,z
_cell_length_a	19.077399
_cell_length_b	12.645330
_cell_length_c	19.076919
_cell_angle_alpha	87.723750
_cell_angle_beta	85.520477
_cell_angle_gamma	92.317012
loop_
_atom_site_label
_atom_site_type_symbol
_atom_site_fract_x
_atom_site_fract_y
_atom_site_fract_z
Zn1	Zn	1.061705	-0.379331	0.355413
Zn2	Zn	1.561705	0.120669	0.855413
Zn3	Zn	1.066373	-0.549195	0.237541
Zn4	Zn	1.566373	-0.049195	0.737541
Zn5	Zn	0.948560	-0.379360	0.242267
Zn6	Zn	1.448560	0.120640	0.742267
Zn7	Zn	0.943803	-0.563971	0.360110
Zn8	Zn	1.443803	-0.063971	0.860110
O9	O	1.005110	-0.467964	0.298833
O10	O	1.505110	0.032036	0.798833
O11	O	1.160972	-0.395668	0.335833
O12	O	1.660972	0.104332	0.835833
O13	O	1.054690	-0.520494	0.139520
O14	O	1.554690	-0.020494	0.639520
O15	O	0.963607	-0.231008	0.257288
O16	O	1.463607	0.268992	0.757288
O17	O	1.164402	-0.520466	0.249233
O18	O	1.664402	-0.020466	0.749233
O19	O	1.046734	-0.230986	0.340416
O20	O	1.546734	0.269014	0.840416
O21	O	0.968133	-0.395717	0.142993
O22	O	1.468133	0.104283	0.642993
O23	O	0.849281	-0.410045	0.261843
O24	O	1.349281	0.089955	0.761843
O25	O	0.955498	-0.545650	0.458134
O26	O	1.455498	-0.045650	0.958134
O27	O	0.845786	-0.545678	0.348422
O28	O	1.345786	-0.045678	0.848422
O29	O	1.042121	-0.409996	0.454683
O30	O	1.542121	0.090004	0.954683
O31	O	1.050076	-0.699504	0.253788
O32	O	1.550076	-0.199504	0.753788
O33	O	0.960025	-0.710360	0.343839
O34	O	1.460025	-0.210360	0.843839
C35	C	0.821955	-0.479469	0.306155
C36	C	1.321955	0.020531	0.806155
C37	C	0.743600	-0.484417	0.309305
C38	C	1.243600	0.015583	0.809305
C39	C	0.708585	-0.416027	0.265781
C40	C	1.208585	0.083973	0.765781
C41	C	0.634962	-0.420686	0.268740
C42	C	1.134962	0.079314	0.768740
C43	C	0.596355	-0.493730	0.315227
C44	C	1.096355	0.006270	0.815227
C45	C	0.631376	-0.562127	0.358752
C46	C	1.131376	-0.062127	0.858752
C47	C	0.704998	-0.557473	0.355789
C48	C	1.204998	-0.057473	0.855789
C49	C	0.375977	-0.515237	0.328911
C50	C	0.875977	-0.015237	0.828911
C51	C	0.302350	-0.519884	0.331872
C52	C	0.802350	-0.019884	0.831872
C53	C	0.305942	-0.378444	0.241860
C54	C	0.805942	0.121556	0.741860
C55	C	0.379564	-0.373792	0.238904
C56	C	0.879564	0.126208	0.738904
C57	C	0.414579	-0.442193	0.282426
C58	C	0.914579	0.057807	0.782426
N59	N	0.521101	-0.498491	0.318254
N60	N	1.021101	0.001509	0.818254
N61	N	0.489832	-0.437436	0.279395
N62	N	0.989832	0.062564	0.779395
C63	C	1.005059	-0.743397	0.298825
C64	C	1.505059	-0.243397	0.798825
C65	C	1.005101	-0.861225	0.298842
C66	C	1.505101	-0.361225	0.798842
C67	C	0.948667	-1.035659	0.355653
C68	C	1.448667	-0.535659	0.855653
C69	C	0.948397	-0.913106	0.355488
C70	C	1.448397	-0.413106	0.855488
C71	C	0.987980	-0.902403	0.225355
C72	C	1.487980	-0.402403	0.725355
C73	C	0.987636	-1.025043	0.225700
C74	C	1.487636	-0.525043	0.725700
C75	C	1.079012	-1.024816	0.314904
C76	C	1.579012	-0.524816	0.814904
C77	C	1.078489	-0.902340	0.316546
C78	C	1.578489	-0.402340	0.816546
C79	C	1.188980	-0.456416	0.291482
C80	C	1.688980	0.043584	0.791482
C81	C	1.267335	-0.451494	0.288349
C82	C	1.767335	0.048506	0.788349
C83	C	0.997758	-0.479468	0.482702
C84	C	1.497758	0.020532	0.982702
C85	C	0.994625	-0.484370	0.561056
C86	C	1.494625	0.015630	1.061056
C87	C	1.005180	-0.191456	0.298855
C88	C	1.505180	0.308544	0.798855
C89	C	1.005210	-0.073625	0.298865
C90	C	1.505210	0.426375	0.798865
C91	C	1.012474	-0.456426	0.115677
C92	C	1.512474	0.043574	0.615677
C93	C	1.015744	-0.451217	0.037317
C94	C	1.515744	0.048783	0.537317
C95	C	1.038251	-0.416049	0.596072
C96	C	1.538251	0.083951	1.096072
C97	C	1.035298	-0.420651	0.669694
C98	C	1.535298	0.079349	1.169694
C99	C	0.988723	-0.493581	0.708300
C100	C	1.488723	0.006419	1.208300
C101	C	0.945093	-0.561906	0.673280
C102	C	1.445093	-0.061906	1.173280
C103	C	0.948042	-0.557297	0.599659
C104	C	1.448042	-0.057297	1.099659
C105	C	0.975063	-0.514933	0.928676
C106	C	1.475063	-0.014933	1.428676
C107	C	0.972119	-0.519539	1.002302
C108	C	1.472119	-0.019539	1.502302
C109	C	1.062323	-0.378282	0.998712
C110	C	1.562323	0.121718	1.498712
C111	C	1.065271	-0.373684	0.925089
C112	C	1.565271	0.126316	1.425089
C113	C	1.021639	-0.442005	0.890075
C114	C	1.521639	0.057995	1.390075
N115	N	0.985706	-0.498290	0.783554
N116	N	1.485706	0.001710	1.283554
N117	N	1.024653	-0.437290	0.814823
N118	N	1.524653	0.062710	1.314823
H119	H	0.270918	-0.579365	0.369732
H120	H	0.770918	-0.079365	0.869732
Br121	Br	0.578983	-0.661278	0.421828
Br122	Br	1.078983	-0.161278	0.921828
H123	H	0.958762	-0.885632	0.410071
H124	H	1.458762	-0.385632	0.910071
Br125	Br	0.881879	-0.660878	0.725672
Br126	Br	1.381879	-0.160878	1.225672
Br127	Br	1.121534	-0.285565	1.046234
Br128	Br	1.621534	0.214435	1.546234
H129	H	0.934190	-0.578930	1.033733
H130	H	1.434190	-0.078930	1.533733
Br131	Br	0.752520	-0.650298	0.414854
Br132	Br	1.252520	-0.150298	0.914854
H133	H	0.939545	-0.570579	0.900176
H134	H	1.439545	-0.070579	1.400176
H135	H	0.606456	-0.365002	0.233295
H136	H	1.106456	0.134998	0.733295
Br137	Br	1.053560	-1.066089	0.153038
Br138	Br	1.553560	-0.566089	0.653038
Br139	Br	1.094540	-0.327972	0.717211
Br140	Br	1.594540	0.172028	1.217211
Br141	Br	1.128485	-0.274708	0.872701
Br142	Br	1.628485	0.225292	1.372701
H143	H	1.121101	-1.048749	0.273506
H144	H	1.621101	-0.548749	0.773506
Br145	Br	1.054664	-0.845399	0.153121
Br146	Br	1.554664	-0.345399	0.653121
Br147	Br	0.965733	-1.089181	0.446942
Br148	Br	1.465733	-0.589181	0.946942
H149	H	0.912511	-0.612922	0.571150
H150	H	1.412511	-0.112922	1.071150
Br151	Br	1.152007	-0.842901	0.252239
Br152	Br	1.652007	-0.342901	0.752239
Br153	Br	0.857102	-0.868844	0.338176
Br154	Br	1.357102	-0.368844	0.838176
Br155	Br	0.431954	-0.274644	0.175822
Br156	Br	0.931954	0.225356	0.675822
Br157	Br	0.760972	-0.316885	0.202694
Br158	Br	1.260972	0.183115	0.702694
Br159	Br	0.258419	-0.285621	0.182796
Br160	Br	0.758419	0.214379	0.682796
H161	H	0.894232	-1.069233	0.345410
H162	H	1.394232	-0.569233	0.845410
H163	H	0.934699	-0.874152	0.211107
H164	H	1.434699	-0.374152	0.711107
Br165	Br	1.101468	-0.317075	0.543685
Br166	Br	1.601468	0.182925	1.043685
H167	H	1.095214	-1.057862	0.367422
H168	H	1.595214	-0.557862	0.867422
Br169	Br	0.897865	-1.076894	0.202475
Br170	Br	1.397865	-0.576894	0.702475
Br171	Br	0.423487	-0.608067	0.387978
Br172	Br	0.923487	-0.108067	0.887978
H173	H	1.091455	-0.875681	0.370614
H174	H	1.591455	-0.375681	0.870614
