data_functionalizedCrystal
_audit_creation_method	'MofGen! by Chris Wilmer'
_symmetry_space_group_name_H-M	'P1'
_symmetry_Int_Tables_number	1
_symmetry_cell_setting	triclinic
loop_
_symmetry_equiv_pos_as_xyz
  x,y,z
_cell_length_a	16.109301
_cell_length_b	11.295483
_cell_length_c	16.109301
_cell_angle_alpha	85.907540
_cell_angle_beta	83.461481
_cell_angle_gamma	94.101431
loop_
_atom_site_label
_atom_site_type_symbol
_atom_site_fract_x
_atom_site_fract_y
_atom_site_fract_z
O1	O	1.108729	0.098953	0.101271
O2	O	1.608729	0.598953	0.601271
O3	O	0.866669	0.098972	0.114569
O4	O	1.366669	0.598972	0.614569
O5	O	0.994348	0.098950	-0.013111
O6	O	1.494348	0.598950	0.486889
O7	O	0.981050	0.098975	0.228950
O8	O	1.481050	0.598975	0.728950
O9	O	0.983134	-0.099099	-0.001913
O10	O	1.483134	0.400901	0.498087
O11	O	0.855454	-0.099077	0.125766
O12	O	1.355454	0.400923	0.625766
O13	O	1.097515	-0.099096	0.112468
O14	O	1.597515	0.400904	0.612468
Cu15	Cu	0.975461	-0.117170	0.120139
Cu16	Cu	1.475461	0.382830	0.620139
Cu17	Cu	0.988723	0.117046	0.106897
Cu18	Cu	1.488723	0.617046	0.606897
O19	O	0.969836	-0.099074	0.240147
O20	O	1.469836	0.400926	0.740147
C21	C	0.830087	-0.000050	0.119629
C22	C	1.330087	0.499950	0.619629
C23	C	0.737792	-0.000043	0.118013
C24	C	1.237792	0.499957	0.618013
N25	N	0.966139	-0.281904	0.129452
N26	N	1.466139	0.218096	0.629452
C27	C	0.515519	-0.000049	0.190021
C28	C	1.015519	0.499951	0.690021
C29	C	0.428798	-0.000057	0.188497
C30	C	0.928798	0.499943	0.688497
C31	C	0.448672	-0.000068	0.037009
C32	C	0.948672	0.499932	0.537009
C33	C	0.535391	-0.000068	0.038534
C34	C	1.035391	0.499932	0.538534
C35	C	0.568812	-0.000053	0.115042
C36	C	1.068812	0.499947	0.615042
C37	C	0.395372	-0.000060	0.111994
C38	C	0.895372	0.499940	0.611994
C39	C	0.301346	-0.000069	0.110341
C40	C	0.801346	0.499931	0.610341
C41	C	0.662844	-0.000047	0.116695
C42	C	1.162844	0.499953	0.616695
C43	C	1.065156	-0.531211	0.030490
C44	C	1.565156	-0.031211	0.530490
C45	C	1.058117	-0.655874	0.037534
C46	C	1.558117	-0.155874	0.537534
C47	C	0.945019	-0.655894	0.150579
C48	C	1.445019	-0.155894	0.650579
C49	C	0.952058	-0.531232	0.143536
C50	C	1.452058	-0.031232	0.643536
C51	C	1.012129	-0.468895	0.083490
C52	C	1.512129	0.031105	0.583490
C53	C	1.019171	-0.344230	0.076451
C54	C	1.519171	0.155770	0.576451
C55	C	0.906070	-0.344252	0.189491
C56	C	1.406070	0.155748	0.689491
C57	C	0.899031	-0.468915	0.196535
C58	C	1.399031	0.031085	0.696535
C59	C	1.134097	-0.000071	0.107408
C60	C	1.634097	0.499929	0.607408
C61	C	1.226393	-0.000070	0.109023
C62	C	1.726393	0.499930	0.609023
C63	C	0.988202	-0.000075	-0.038487
C64	C	1.488202	0.499925	0.461513
C65	C	0.986587	-0.000077	-0.130782
C66	C	1.486587	0.499923	0.369218
N67	N	0.998051	0.281781	0.097578
N68	N	1.498051	0.781781	0.597578
C69	C	1.058595	-0.000064	-0.353055
C70	C	1.558595	0.499936	0.146945
C71	C	1.057072	-0.000054	-0.439776
C72	C	1.557072	0.499946	0.060224
C73	C	0.905583	-0.000046	-0.419902
C74	C	1.405583	0.499954	0.080098
C75	C	0.907108	-0.000048	-0.333183
C76	C	1.407108	0.499952	0.166817
C77	C	0.983616	-0.000062	-0.299762
C78	C	1.483616	0.499938	0.200238
C79	C	0.980568	-0.000051	-0.473202
C80	C	1.480568	0.499949	0.026798
C81	C	0.978916	-0.000040	-0.567228
C82	C	1.478916	0.499960	-0.067228
C83	C	0.985269	-0.000071	-0.205730
C84	C	1.485269	0.499929	0.294270
C85	C	0.975982	-0.000046	0.265523
C86	C	1.475982	0.499954	0.765523
C87	C	0.977597	-0.000037	0.357818
C88	C	1.477597	0.499963	0.857818
H89	H	0.542727	-0.000046	0.252319
H90	H	1.042727	0.499954	0.752319
O91	O	1.123424	-0.470689	-0.027935
O92	O	1.623424	0.029311	0.472065
C93	C	1.108244	-0.501161	-0.108529
C94	C	1.608244	-0.001161	0.391471
H95	H	1.039751	-0.535458	-0.107033
H96	H	1.539751	-0.035458	0.392967
H97	H	1.122448	-0.419164	-0.154871
H98	H	1.622448	0.080836	0.345129
H99	H	1.150258	-0.573498	-0.128852
H100	H	1.650258	-0.073498	0.371148
O101	O	0.840610	-0.529289	0.254879
O102	O	1.340610	-0.029289	0.754879
C103	C	0.795331	-0.447550	0.300163
C104	C	1.295331	0.052450	0.800163
H105	H	0.799422	-0.358686	0.261056
H106	H	1.299422	0.141314	0.761056
H107	H	0.726899	-0.483580	0.314864
H108	H	1.226899	0.016420	0.814864
H109	H	0.823058	-0.434287	0.361184
H110	H	1.323058	0.065713	0.861184
H111	H	0.896105	-0.706665	0.199462
H112	H	1.396105	-0.206665	0.699462
H113	H	1.118128	-0.000052	-0.483165
H114	H	1.618128	0.499948	0.016835
O115	O	0.376983	-0.000256	0.261321
O116	O	0.876983	0.499744	0.761321
C117	C	0.320410	-0.102812	0.270764
C118	C	0.820410	0.397188	0.770764
H119	H	0.348125	-0.174511	0.232297
H120	H	0.848125	0.325489	0.732297
H121	H	0.308690	-0.137230	0.339684
H122	H	0.808690	0.362770	0.839684
H123	H	0.258669	-0.079627	0.247948
H124	H	0.758669	0.420373	0.747948
O125	O	0.834303	0.000164	-0.281387
O126	O	1.334303	0.500164	0.218613
C127	C	0.836471	0.102722	-0.236411
C128	C	1.336471	0.602722	0.263589
H129	H	0.883051	0.174410	-0.272236
H130	H	1.383051	0.674410	0.227764
H131	H	0.771448	0.137157	-0.228581
H132	H	1.271448	0.637157	0.271419
H133	H	0.856666	0.079533	-0.172049
H134	H	1.356666	0.579533	0.327951
H135	H	1.120893	-0.000073	-0.325847
H136	H	1.620893	0.499927	0.174153
O137	O	0.831336	-0.000096	-0.452504
O138	O	1.331336	0.499904	0.047496
C139	C	0.846068	-0.000069	-0.540474
C140	C	1.346068	0.499931	-0.040474
H141	H	0.908833	-0.037564	-0.558740
H142	H	1.408833	0.462436	-0.058740
H143	H	0.793861	-0.057569	-0.563837
H144	H	1.293861	0.442431	-0.063837
H145	H	0.847420	0.094944	-0.569980
H146	H	1.347420	0.594944	-0.069980
H147	H	0.862894	-0.293500	0.232649
H148	H	1.362894	0.206500	0.732649
H149	H	0.421449	-0.000087	-0.025280
H150	H	0.921449	0.499913	0.474720
H151	H	0.578784	-0.000075	-0.022526
H152	H	1.078784	0.499925	0.477474
O153	O	1.077433	-0.283753	0.017997
O154	O	1.577433	0.216247	0.517997
C155	C	1.062203	-0.314286	-0.062569
C156	C	1.562203	0.185714	0.437431
H157	H	0.993699	-0.348553	-0.061030
H158	H	1.493699	0.151447	0.438970
H159	H	1.076408	-0.232329	-0.108948
H160	H	1.576408	0.267671	0.391052
H161	H	1.104186	-0.386664	-0.082879
H162	H	1.604186	0.113336	0.417121
O163	O	1.109656	-0.716538	-0.013827
O164	O	1.609656	-0.216538	0.486173
C165	C	1.156881	-0.788609	0.034782
C166	C	1.656881	-0.288609	0.534782
H167	H	1.122698	-0.807292	0.100888
H168	H	1.622698	-0.307292	0.600888
H169	H	1.165093	-0.876270	0.005033
H170	H	1.665093	-0.376270	0.505033
H171	H	1.221036	-0.740548	0.037730
H172	H	1.721036	-0.240548	0.537730
