data_functionalizedCrystal
_audit_creation_method	'MofGen! by Chris Wilmer'
_symmetry_space_group_name_H-M	'P1'
_symmetry_Int_Tables_number	1
_symmetry_cell_setting	triclinic
loop_
_symmetry_equiv_pos_as_xyz
  x,y,z
_cell_length_a	13.032831
_cell_length_b	18.101395
_cell_length_c	13.033352
_cell_angle_alpha	82.831707
_cell_angle_beta	89.095163
_cell_angle_gamma	82.835691
loop_
_atom_site_label
_atom_site_type_symbol
_atom_site_fract_x
_atom_site_fract_y
_atom_site_fract_z
Zn1	Zn	1.498111	-0.500316	0.780769
Zn2	Zn	1.998111	-0.000316	1.280769
Zn3	Zn	1.519864	-0.610606	0.608787
Zn4	Zn	2.019864	-0.110606	1.108787
Zn5	Zn	1.348031	-0.469331	0.587019
Zn6	Zn	1.848031	0.030669	1.087019
Zn7	Zn	1.326073	-0.606641	0.758907
Zn8	Zn	1.826073	-0.106641	1.258907
O9	O	1.423020	-0.546723	0.683871
O10	O	1.923020	-0.046723	1.183871
O11	O	1.644908	-0.529573	0.776215
O12	O	2.144908	-0.029573	1.276215
O13	O	1.515363	-0.580558	0.461988
O14	O	2.015363	-0.080558	0.961988
O15	O	1.368025	-0.369819	0.612760
O16	O	1.868025	0.130181	1.112760
O17	O	1.660890	-0.610603	0.649860
O18	O	2.160890	-0.110603	1.149860
O19	O	1.478288	-0.392584	0.755108
O20	O	1.978288	0.107416	1.255108
O21	O	1.389118	-0.476763	0.445996
O22	O	1.889118	0.023237	0.945996
O23	O	1.201207	-0.472918	0.591562
O24	O	1.701207	0.027082	1.091562
O25	O	1.330601	-0.603844	0.905718
O26	O	1.830601	-0.103844	1.405718
O27	O	1.185075	-0.573799	0.717847
O28	O	1.685075	-0.073799	1.217847
O29	O	1.456996	-0.525728	0.921780
O30	O	1.956996	-0.025728	1.421780
O31	O	1.494072	-0.713702	0.628661
O32	O	1.994072	-0.213702	1.128661
O33	O	1.351695	-0.710788	0.738954
O34	O	1.851695	-0.210788	1.238954
C35	C	1.155827	-0.519566	0.649970
C36	C	1.655827	-0.019566	1.149970
C37	C	1.041517	-0.507968	0.635492
C38	C	1.541517	-0.007968	1.135492
C39	C	0.982612	-0.552776	0.691427
C40	C	1.482612	-0.052776	1.191427
C41	C	0.864467	-0.540790	0.676464
C42	C	1.364467	-0.040790	1.176464
C43	C	1.422886	-0.739117	0.683823
C44	C	1.922886	-0.239117	1.183823
C45	C	1.422919	-0.821437	0.683849
C46	C	1.922919	-0.321437	1.183849
C47	C	1.423137	-1.120555	0.683933
C48	C	1.923137	-0.620555	1.183933
C49	C	1.333716	-1.087462	0.753547
C50	C	1.833716	-0.587462	1.253547
C51	C	1.333371	-1.001786	0.753250
C52	C	1.833371	-0.501786	1.253250
C53	C	1.423029	-0.972159	0.683892
C54	C	1.923029	-0.472159	1.183892
C55	C	1.407488	-0.991794	0.571791
C56	C	1.907488	-0.491794	1.071791
C57	C	1.406916	-1.077425	0.572203
C58	C	1.906916	-0.577425	1.072203
C59	C	1.528393	-1.102136	0.725488
C60	C	2.028393	-0.602136	1.225488
C61	C	1.527451	-1.016607	0.727783
C62	C	2.027451	-0.516607	1.227783
C63	C	1.422970	-0.888292	0.683863
C64	C	1.922970	-0.388292	1.183863
C65	C	1.423194	-1.204422	0.683955
C66	C	1.923194	-0.704422	1.183955
C67	C	1.691257	-0.573987	0.717904
C68	C	2.191257	-0.073987	1.217904
C69	C	1.805563	-0.585605	0.732407
C70	C	2.305563	-0.085605	1.232407
C71	C	1.388923	-0.567800	0.952107
C72	C	1.888923	-0.067800	1.452107
C73	C	1.374393	-0.576781	1.066413
C74	C	1.874393	-0.076781	1.566413
C75	C	1.423179	-0.353582	0.683945
C76	C	1.923179	0.146418	1.183945
C77	C	1.423247	-0.271277	0.683976
C78	C	1.923247	0.228723	1.183976
C79	C	1.430453	-0.542135	1.125322
C80	C	1.930453	-0.042135	1.625322
C81	C	1.415437	-0.551417	1.243463
C82	C	1.915437	-0.051417	1.743463
C83	C	1.456976	-0.525745	1.416677
C84	C	1.956976	-0.025745	1.916677
C85	C	1.471504	-0.516766	1.302370
C86	C	1.971504	-0.016766	1.802370
H87	H	1.341625	-1.116205	0.836474
H88	H	1.841625	-0.616205	1.336474
H89	H	1.356314	-0.587948	1.280488
H90	H	1.856314	-0.087948	1.780488
H91	H	0.827435	-0.493549	0.617499
H92	H	1.327435	0.006451	1.117499
H93	H	1.004481	-0.460730	0.576531
H94	H	1.504481	0.039270	1.076531
N95	N	1.031660	-0.615351	0.769529
N96	N	1.531660	-0.115351	1.269529
H97	H	0.976118	-0.643608	0.804800
H98	H	1.476118	-0.143608	1.304800
H99	H	1.070201	-0.593498	0.822803
H100	H	1.570201	-0.093498	1.322803
N101	N	1.307295	-0.950391	0.526874
N102	N	1.807295	-0.450391	1.026874
H103	H	1.260724	-0.987737	0.509674
H104	H	1.760724	-0.487737	1.009674
H105	H	1.322268	-0.916801	0.461937
H106	H	1.822268	-0.416801	0.961937
N107	N	1.230609	-1.103366	0.716033
N108	N	1.730609	-0.603366	1.216033
H109	H	1.173594	-1.081920	0.761165
H110	H	1.673594	-0.581920	1.261165
H111	H	1.230096	-1.159375	0.719600
H112	H	1.730096	-0.659375	1.219600
N113	N	0.854592	-0.648180	0.810525
N114	N	1.354592	-0.148180	1.310525
H115	H	0.893123	-0.626381	0.863865
H116	H	1.393123	-0.126381	1.363865
H117	H	0.904409	-0.683629	0.774172
H118	H	1.404409	-0.183629	1.274172
N119	N	1.305544	-1.090823	0.527696
N120	N	1.805544	-0.590823	1.027696
H121	H	1.246537	-1.070185	0.571213
H122	H	1.746537	-0.570185	1.071213
H123	H	1.304251	-1.146477	0.527516
H124	H	1.804251	-0.646477	1.027516
N125	N	1.296074	-0.625164	1.115447
N126	N	1.796074	-0.125164	1.615447
H127	H	1.296443	-0.624932	1.192893
H128	H	1.796443	-0.124932	1.692893
H129	H	1.314389	-0.678218	1.098741
H130	H	1.814389	-0.178218	1.598741
H131	H	1.596491	-0.997275	0.681874
H132	H	2.096491	-0.497275	1.181874
N133	N	1.344124	-0.984729	0.862779
N134	N	1.844124	-0.484729	1.362779
H135	H	1.349132	-1.032926	0.911690
H136	H	1.849132	-0.532926	1.411690
H137	H	1.281756	-0.949888	0.881222
H138	H	1.781756	-0.449888	1.381222
N139	N	1.229664	-0.961956	0.715342
N140	N	1.729664	-0.461956	1.215342
H141	H	1.183997	-1.000050	0.698754
H142	H	1.683997	-0.500050	1.198754
H143	H	1.239727	-0.926209	0.651071
H144	H	1.739727	-0.426209	1.151071
H145	H	1.594846	-1.123815	0.674953
H146	H	2.094846	-0.623815	1.174953
H147	H	1.469969	-1.098919	0.517826
H148	H	1.969969	-0.598919	1.017826
H149	H	1.471177	-0.972303	0.517907
H150	H	1.971177	-0.472303	1.017907
H151	H	1.545252	-1.132519	0.806563
H152	H	2.045252	-0.632519	1.306563
H153	H	1.539421	-1.004773	0.810351
H154	H	2.039421	-0.504773	1.310351
N155	N	1.508765	-0.493752	1.076275
N156	N	2.008765	0.006248	1.576275
H157	H	1.490498	-0.440671	1.092897
H158	H	1.990498	0.059329	1.592897
H159	H	1.508350	-0.494051	0.998845
H160	H	2.008350	0.005949	1.498845
H161	H	1.530615	-0.480225	1.265345
H162	H	2.030615	0.019775	1.765345
