data_functionalizedCrystal
_audit_creation_method	'MofGen! by Chris Wilmer'
_symmetry_space_group_name_H-M	'P1'
_symmetry_Int_Tables_number	1
_symmetry_cell_setting	triclinic
loop_
_symmetry_equiv_pos_as_xyz
  x,y,z
_cell_length_a	16.120847
_cell_length_b	15.297475
_cell_length_c	15.296720
_cell_angle_alpha	88.382886
_cell_angle_beta	96.296261
_cell_angle_gamma	97.315702
loop_
_atom_site_label
_atom_site_type_symbol
_atom_site_fract_x
_atom_site_fract_y
_atom_site_fract_z
Zn1	Zn	0.638027	1.225522	0.686853
Zn2	Zn	1.138027	1.725522	1.186853
Zn3	Zn	0.756073	1.245626	0.533015
Zn4	Zn	1.256073	1.745626	1.033015
Zn5	Zn	0.591973	1.106412	0.517962
Zn6	Zn	1.091973	1.606412	1.017962
Zn7	Zn	0.748015	1.074204	0.654645
Zn8	Zn	1.248015	1.574204	1.154645
O9	O	0.683522	1.162941	0.598119
O10	O	1.183522	1.662941	1.098119
O11	O	0.676333	1.349777	0.686224
O12	O	1.176333	1.849777	1.186224
O13	O	0.718403	1.249052	0.409434
O14	O	1.218403	1.749052	0.909434
O15	O	0.483376	1.127277	0.547546
O16	O	0.983376	1.627277	1.047546
O17	O	0.763061	1.364548	0.573200
O18	O	1.263061	1.864548	1.073200
O19	O	0.517212	1.214787	0.671629
O20	O	1.017212	1.714787	1.171629
O21	O	0.597840	1.146772	0.398375
O22	O	1.097840	1.646772	0.898375
O23	O	0.590026	0.980551	0.516315
O24	O	1.090026	1.480551	1.016315
O25	O	0.749326	1.072384	0.780502
O26	O	1.249326	1.572384	1.280502
O27	O	0.704669	0.956888	0.616736
O28	O	1.204669	1.456888	1.116736
O29	O	0.668519	1.183556	0.804164
O30	O	1.168519	1.683556	1.304164
O31	O	0.869711	1.217822	0.541970
O32	O	1.369711	1.717822	1.041970
O33	O	0.863790	1.091879	0.631331
O34	O	1.363790	1.591879	1.131331
C35	C	0.641476	0.937193	0.561398
C36	C	1.141476	1.437193	1.061398
C37	C	0.623511	0.840613	0.545707
C38	C	1.123511	1.340613	1.045707
C39	C	0.811927	0.519233	0.710260
C40	C	1.311927	1.019233	1.210260
C41	C	0.828812	0.609976	0.724999
C42	C	1.328812	1.109976	1.224999
C43	C	0.777488	0.667639	0.680178
C44	C	1.277488	1.167639	1.180178
C45	C	0.709277	0.634552	0.620614
C46	C	1.209277	1.134552	1.120614
C47	C	0.692394	0.543801	0.605869
C48	C	1.192394	1.043801	1.105869
C49	C	0.657955	0.692207	0.575787
C50	C	1.157955	1.192207	1.075787
C51	C	0.589744	0.659120	0.516223
C52	C	1.089744	1.159120	1.016223
C53	C	0.572864	0.568377	0.501481
C54	C	1.072864	1.068377	1.001481
C55	C	0.624188	0.510714	0.546302
C56	C	1.124188	1.010714	1.046302
C57	C	0.674838	0.782958	0.590532
C58	C	1.174838	1.282958	1.090532
C59	C	0.555305	0.807525	0.486141
C60	C	1.055305	1.307525	0.986141
C61	C	0.538420	0.716783	0.471402
C62	C	1.038420	1.216783	0.971402
C63	C	0.469720	1.172382	0.611501
C64	C	0.969720	1.672382	1.111501
C65	C	0.378610	1.176405	0.617203
C66	C	0.878610	1.676405	1.117203
C67	C	0.211792	1.183766	0.627615
C68	C	0.711792	1.683766	1.127615
C69	C	0.154445	1.142258	0.568753
C70	C	0.654445	1.642258	1.068753
C71	C	0.061621	1.146354	0.574545
C72	C	0.561621	1.646354	1.074545
C73	C	0.304624	1.179671	0.621823
C74	C	0.804624	1.679671	1.121823
C75	C	0.896500	1.153557	0.584812
C76	C	1.396500	1.653557	1.084812
C77	C	0.987631	1.149617	0.579161
C78	C	1.487631	1.649617	1.079161
C79	C	0.713161	1.122135	0.824740
C80	C	1.213161	1.622135	1.324740
C81	C	0.725791	1.104746	0.921312
C82	C	1.225791	1.604746	1.421312
C83	C	0.725733	1.389570	0.634984
C84	C	1.225733	1.889570	1.134984
C85	C	0.743721	1.486146	0.650694
C86	C	1.243721	1.986146	1.150694
C87	C	0.653949	1.203641	0.372391
C88	C	1.153949	1.703641	0.872391
C89	C	0.641119	1.221208	0.275861
C90	C	1.141119	1.721208	0.775861
C91	C	0.593114	1.287262	1.242814
C92	C	1.093114	1.787262	1.742814
C93	C	0.581249	1.303605	1.152081
C94	C	1.081249	1.803605	1.652081
C95	C	0.617383	1.253892	1.094384
C96	C	1.117383	1.753892	1.594384
C97	C	0.665385	1.187832	1.127430
C98	C	1.165385	1.687832	1.627430
C99	C	0.677256	1.171492	1.218173
C100	C	1.177256	1.671492	1.718173
C101	C	0.701525	1.138122	1.069743
C102	C	1.201525	1.638122	1.569743
C103	C	0.749527	1.072063	1.102789
C104	C	1.249527	1.572063	1.602789
C105	C	0.761395	1.055725	1.193524
C106	C	1.261395	1.555725	1.693524
C107	C	0.725261	1.105438	1.251220
C108	C	1.225261	1.605438	1.751220
C109	C	0.689654	1.154462	0.979000
C110	C	1.189654	1.654462	1.479000
C111	C	0.773797	1.038692	0.954359
C112	C	1.273797	1.538692	1.454359
C113	C	0.785661	1.022349	1.045093
C114	C	1.285661	1.522349	1.545093
H115	H	0.884351	0.636909	0.773494
H116	H	1.384351	1.136909	1.273494
H117	H	0.607720	1.267202	1.020505
H118	H	1.107720	1.767202	1.520505
N119	N	0.529464	1.374830	1.116425
N120	N	1.029464	1.874830	1.616425
H121	H	0.565345	1.420404	1.083238
H122	H	1.065345	1.920404	1.583238
H123	H	0.508370	1.403777	1.166778
H124	H	1.008370	1.903777	1.666778
N125	N	0.554152	1.340882	1.305041
N126	N	1.054152	1.840882	1.805041
H127	H	0.568959	1.320507	1.367536
H128	H	1.068959	1.820507	1.867536
H129	H	0.491016	1.332804	1.290653
H130	H	0.991016	1.832804	1.790653
N131	N	0.181739	1.091122	0.496224
N132	N	0.681739	1.591122	0.996224
H133	H	0.157086	1.027252	0.500520
H134	H	0.657086	1.527252	1.000520
H135	H	0.245145	1.095479	0.502347
H136	H	0.745145	1.595479	1.002347
N137	N	0.184498	1.234923	0.700121
N138	N	0.684498	1.734923	1.200121
H139	H	0.204950	1.209615	0.759101
H140	H	0.704950	1.709615	1.259101
H141	H	0.121095	1.230623	0.693952
H142	H	0.621095	1.730623	1.193952
N143	N	0.637889	1.225709	0.943362
N144	N	1.137889	1.725709	1.443362
H145	H	0.578873	1.211963	0.960623
H146	H	1.078873	1.711963	1.460623
H147	H	0.635921	1.228485	0.877133
H148	H	1.135921	1.728485	1.377133
H149	H	0.734919	1.092135	1.325104
H150	H	1.234919	1.592135	1.825104
N151	N	0.812751	0.985050	0.892136
N152	N	1.312751	1.485050	1.392136
H153	H	0.844961	0.940723	0.926838
H154	H	1.344961	1.440723	1.426838
H155	H	0.852348	1.025510	0.857854
H156	H	1.352348	1.525510	1.357854
H157	H	0.853711	0.472278	0.746742
H158	H	1.353711	0.972278	1.246742
H159	H	0.513514	0.854476	0.449642
H160	H	1.013514	1.354476	0.949642
H161	H	0.730375	0.809888	0.639030
H162	H	1.230375	1.309888	1.139030
N163	N	0.813177	0.984487	1.229170
N164	N	1.313177	1.484487	1.729170
H165	H	0.834267	0.955471	1.178855
H166	H	1.334267	1.455471	1.678855
H167	H	0.777246	0.938972	1.262368
H168	H	1.277246	1.438972	1.762368
N169	N	0.464860	0.681094	0.407149
N170	N	0.964860	1.181094	0.907149
H171	H	0.472319	0.707505	0.346825
H172	H	0.972319	1.207505	0.846825
H173	H	0.411060	0.697019	0.427040
H174	H	0.911060	1.197019	0.927040
H175	H	0.824744	0.968563	1.072012
H176	H	1.324744	1.468563	1.572012
H177	H	0.610443	0.436823	0.534307
H178	H	1.110443	0.936823	1.034307
N179	N	0.795698	0.765509	0.696085
N180	N	1.295698	1.265509	1.196085
H181	H	0.745658	0.786946	0.719222
H182	H	1.245658	1.286946	1.219222
H183	H	0.806961	0.797371	0.639045
H184	H	1.306961	1.297371	1.139045
N185	N	0.499304	0.532688	0.437228
N186	N	0.999304	1.032688	0.937228
H187	H	0.469352	0.582984	0.411071
H188	H	0.969352	1.082984	0.911071
H189	H	0.459052	0.490328	0.468910
H190	H	0.959052	0.990328	0.968910
