data_functionalizedCrystal
_audit_creation_method	'MofGen! by Chris Wilmer'
_symmetry_space_group_name_H-M	'P1'
_symmetry_Int_Tables_number	1
_symmetry_cell_setting	triclinic
loop_
_symmetry_equiv_pos_as_xyz
  x,y,z
_cell_length_a	14.519709
_cell_length_b	16.974800
_cell_length_c	16.053810
_cell_angle_alpha	88.912688
_cell_angle_beta	87.418242
_cell_angle_gamma	83.534829
loop_
_atom_site_label
_atom_site_type_symbol
_atom_site_fract_x
_atom_site_fract_y
_atom_site_fract_z
O1	O	0.117559	1.049243	-0.001491
O2	O	0.131673	0.819799	0.014020
O3	O	-0.009619	0.940604	0.005846
O4	O	0.258851	0.928438	0.006683
O5	O	-0.001844	0.933982	-0.132565
O6	O	0.139448	0.813176	-0.124391
O7	O	0.125334	1.042621	-0.139901
Zn8	Zn	0.133625	0.926847	-0.154122
Zn9	Zn	0.123382	0.935572	0.028240
O10	O	0.266626	0.921816	-0.131727
C11	C	0.134881	0.787123	-0.053200
C12	C	0.132847	0.699626	-0.047286
C13	C	0.136126	0.654915	-0.119956
C14	C	0.134200	0.572704	-0.114401
C15	C	0.129000	0.535205	-0.036175
C16	C	0.125717	0.579923	0.036502
C17	C	0.127637	0.662133	0.030946
C18	C	0.122797	0.289721	-0.011468
C19	C	0.120880	0.207505	-0.005918
C20	C	0.129361	0.200292	-0.156821
C21	C	0.131286	0.282503	-0.162370
C22	C	0.127999	0.327214	-0.089694
N23	N	0.127034	0.451172	-0.030495
N24	N	0.129958	0.411247	-0.095375
C25	C	-0.040091	0.936726	-0.063321
C26	C	-0.142474	0.935027	-0.063207
C27	C	-0.517374	0.928772	-0.062762
C28	C	-0.413065	0.930509	-0.062886
C29	C	-0.329927	0.931899	-0.062985
C30	C	-0.225611	0.933637	-0.063108
C31	C	0.297098	0.925694	-0.062558
C32	C	0.399480	0.927393	-0.062667
C33	C	0.122125	1.075297	-0.072679
C34	C	0.124160	1.162794	-0.078588
N35	N	0.140616	0.920898	-0.278579
C36	C	0.176489	0.890112	-0.800128
C37	C	0.171617	0.894291	-0.713004
C38	C	0.106643	0.949889	-0.673056
C39	C	0.046532	1.001306	-0.720237
C40	C	0.051400	0.997124	-0.807359
C41	C	0.085372	0.968133	-0.412882
C42	C	0.080510	0.972314	-0.325753
C43	C	0.205595	0.865297	-0.318527
C44	C	0.210462	0.861122	-0.405651
C45	C	0.150347	0.912536	-0.452824
N46	N	0.101663	0.954163	-0.584002
N47	N	0.155323	0.908258	-0.541876
N48	N	0.116384	0.941528	0.152698
H49	H	0.120117	0.326116	0.047710
H50	H	0.263368	0.815849	-0.438175
H51	H	0.036426	1.009998	-0.451283
N52	N	0.115271	0.167049	0.078455
H53	H	0.170866	0.176622	0.110909
H54	H	0.056598	0.189255	0.109977
H55	H	0.254537	0.823436	-0.280111
H56	H	0.140368	0.685440	-0.183657
N57	N	0.132893	0.152076	-0.235207
H58	H	0.191597	0.159347	-0.269281
H59	H	0.132121	0.094194	-0.219755
N60	N	0.136881	0.322956	-0.246739
H61	H	0.194983	0.350593	-0.251976
H62	H	0.138625	0.282119	-0.291890
H63	H	0.121477	0.549386	0.100195
H64	H	0.124968	0.698536	0.090122
H65	H	0.229402	0.844842	-0.832648
N66	N	0.010431	1.032285	-0.282664
H67	H	-0.026914	1.064222	-0.325767
H68	H	-0.032452	1.003795	-0.244454
N69	N	-0.023571	1.061255	-0.677154
H70	H	-0.017540	1.056101	-0.614803
H71	H	-0.011907	1.116453	-0.696169
H72	H	0.002455	1.038990	-0.845768
N73	N	0.137734	0.524477	-0.192780
H74	H	0.140670	0.560775	-0.243184
H75	H	0.194587	0.484265	-0.193609
N76	N	0.236436	0.838829	-0.662122
H77	H	0.278337	0.802975	-0.700649
H78	H	0.275286	0.870784	-0.628026
