data_functionalizedCrystal
_audit_creation_method	'MofGen! by Chris Wilmer'
_symmetry_space_group_name_H-M	'P1'
_symmetry_Int_Tables_number	1
_symmetry_cell_setting	triclinic
loop_
_symmetry_equiv_pos_as_xyz
  x,y,z
_cell_length_a	11.792254
_cell_length_b	12.996460
_cell_length_c	11.792241
_cell_angle_alpha	90.006284
_cell_angle_beta	84.196007
_cell_angle_gamma	90.005520
loop_
_atom_site_label
_atom_site_type_symbol
_atom_site_fract_x
_atom_site_fract_y
_atom_site_fract_z
O1	O	1.506902	0.085566	0.155638
O2	O	1.840235	0.418900	0.488972
O3	O	2.173568	0.752233	0.822305
O4	O	1.176563	0.085569	0.171656
O5	O	1.509896	0.418902	0.504990
O6	O	1.843229	0.752235	0.838323
O7	O	1.349749	0.085560	-0.001523
O8	O	1.683082	0.418894	0.331811
O9	O	2.016415	0.752227	0.665144
O10	O	1.333716	0.085575	0.328818
O11	O	1.667049	0.418908	0.662151
O12	O	2.000382	0.752242	0.995484
O13	O	1.349730	-0.085574	-0.001533
O14	O	1.683064	0.247760	0.331801
O15	O	2.016397	0.581093	0.665134
O16	O	1.176544	-0.085565	0.171647
O17	O	1.509878	0.247768	0.504980
O18	O	1.843211	0.581102	0.838313
O19	O	1.506884	-0.085567	0.155629
O20	O	1.840217	0.247766	0.488962
O21	O	2.173550	0.581099	0.822295
Cu22	Cu	1.341712	-0.101192	0.163637
Cu23	Cu	1.675046	0.232141	0.496970
Cu24	Cu	2.008379	0.565475	0.830303
Cu25	Cu	1.341734	0.101193	0.163648
Cu26	Cu	1.675067	0.434527	0.496982
Cu27	Cu	2.008400	0.767860	0.830315
O28	O	1.333698	-0.085559	0.328808
O29	O	1.667031	0.247774	0.662141
O30	O	2.000364	0.581108	0.995474
C31	C	1.134263	0.000002	0.170642
C32	C	1.467596	0.333335	0.503976
C33	C	1.800929	0.666669	0.837309
C34	C	1.008250	0.000003	0.167622
C35	C	1.341583	0.333336	0.500956
C36	C	1.674916	0.666669	0.834289
C37	C	0.905913	0.000007	0.165168
C38	C	1.239247	0.333340	0.498502
C39	C	1.572580	0.666674	0.831835
C40	C	0.777527	0.000008	0.162100
C41	C	1.110860	0.333341	0.495433
C42	C	1.444193	0.666674	0.828767
N43	N	1.341705	-0.243539	0.163628
N44	N	1.675039	0.089794	0.496961
N45	N	2.008372	0.423127	0.830295
C46	C	1.341732	-0.663354	0.163649
C47	C	1.675066	-0.330020	0.496983
C48	C	2.008399	0.003313	0.830316
C49	C	1.341721	-0.546548	0.163647
C50	C	1.675055	-0.213215	0.496981
C51	C	2.008388	0.120118	0.830314
C52	C	1.341719	-0.453450	0.163640
C53	C	1.675053	-0.120117	0.496973
C54	C	2.008386	0.213217	0.830306
C55	C	1.341707	-0.336638	0.163636
C56	C	1.675041	-0.003304	0.496969
C57	C	2.008374	0.330029	0.830302
C58	C	1.549183	0.000002	0.156643
C59	C	1.882517	0.333335	0.489976
C60	C	2.215850	0.666668	0.823309
C61	C	1.675196	0.000008	0.159663
C62	C	2.008530	0.333341	0.492996
C63	C	2.341863	0.666674	0.826329
C64	C	1.348732	-0.000006	-0.043819
C65	C	1.682066	0.333327	0.289515
C66	C	2.015399	0.666660	0.622848
C67	C	1.345718	-0.000005	-0.169832
C68	C	1.679051	0.333328	0.163501
C69	C	2.012385	0.666661	0.496834
N70	N	1.341750	0.243541	0.163648
N71	N	1.675083	0.576874	0.496981
N72	N	2.008416	0.910207	0.830315
C73	C	1.340175	0.000012	-0.400545
C74	C	1.673508	0.333345	-0.067212
C75	C	2.006842	0.666679	0.266122
C76	C	1.343255	0.000003	-0.272160
C77	C	1.676588	0.333336	0.061174
C78	C	2.009921	0.666669	0.394507
C79	C	1.334714	0.000010	0.371104
C80	C	1.668047	0.333343	0.704437
C81	C	2.001380	0.666677	1.037770
C82	C	1.337728	0.000016	0.497118
C83	C	1.671061	0.333349	0.830451
C84	C	2.004395	0.666682	1.163784
