data_functionalizedCrystal
_audit_creation_method	'MofGen! by Chris Wilmer'
_symmetry_space_group_name_H-M	'P1'
_symmetry_Int_Tables_number	1
_symmetry_cell_setting	triclinic
loop_
_symmetry_equiv_pos_as_xyz
  x,y,z
_cell_length_a	14.853567
_cell_length_b	17.699083
_cell_length_c	13.330367
_cell_angle_alpha	89.998993
_cell_angle_beta	90.002150
_cell_angle_gamma	96.541028
loop_
_atom_site_label
_atom_site_type_symbol
_atom_site_fract_x
_atom_site_fract_y
_atom_site_fract_z
O1	O	0.114002	-1.004373	-0.083274
O2	O	0.128835	-0.784033	-0.083306
O3	O	-0.009833	-0.900088	-0.083293
O4	O	0.252670	-0.888317	-0.083288
O5	O	-0.009829	-0.900076	0.083555
O6	O	0.128839	-0.784021	0.083541
O7	O	0.114006	-1.004361	0.083573
Cu8	Cu	0.121423	-0.894190	0.098791
Cu9	Cu	0.121418	-0.894204	-0.098525
O10	O	0.252674	-0.888305	0.083559
C11	C	0.128305	-0.755828	0.000113
C12	C	0.126711	-0.671806	0.000101
C13	C	-0.043418	-0.899549	0.000128
C14	C	-0.143496	-0.897951	0.000119
C15	C	0.114535	-1.032565	0.000151
C16	C	0.116130	-1.116587	0.000157
C17	C	-0.555751	-0.822255	0.000127
C18	C	-0.577539	-0.960131	0.000147
C19	C	-0.483511	-0.961634	0.000141
C20	C	-0.425598	-0.893446	0.000130
C21	C	-0.461714	-0.823756	0.000125
C22	C	-0.447389	-1.031324	0.000157
C23	C	-0.353355	-1.032829	0.000153
C24	C	-0.295441	-0.964641	0.000134
C25	C	-0.331561	-0.894947	0.000127
C26	C	-0.273648	-0.826759	0.000116
C27	C	-0.309767	-0.757065	0.000102
C28	C	-0.403799	-0.755567	0.000106
C29	C	-0.201409	-0.966139	0.000130
C30	C	-0.179611	-0.828260	0.000114
C31	C	0.286258	-0.888844	0.000136
C32	C	0.386336	-0.890443	0.000139
N33	N	0.121426	-0.894185	0.237573
C34	C	0.208106	-0.623396	0.000102
C35	C	0.206602	-0.544449	0.000115
C36	C	0.123703	-0.513913	0.000119
C37	C	0.042301	-0.562329	0.000121
C38	C	0.043806	-0.641275	0.000115
C39	C	0.036232	-0.243950	0.000145
C40	C	0.034734	-0.164999	0.000148
C41	C	0.199028	-0.147125	0.000146
C42	C	0.200533	-0.226070	0.000140
C43	C	0.119132	-0.274479	0.000147
C44	C	0.120763	-0.360083	0.000134
C45	C	0.122070	-0.428311	0.000124
N46	N	0.121408	-0.894214	-0.237306
C47	C	0.182809	-0.842789	0.290092
C48	C	0.060039	-0.945586	0.290082
C49	C	0.060035	-0.945594	0.395100
C50	C	0.121418	-0.894197	0.447619
C51	C	0.182805	-0.842793	0.395120
C52	C	-0.001357	-0.996992	0.447607
C53	C	-0.001364	-0.997001	0.552632
C54	C	0.060025	-0.945608	0.605153
C55	C	0.121415	-0.894202	0.552647
C56	C	0.182798	-0.842805	0.605166
C57	C	0.244194	-0.791403	0.552663
C58	C	0.244194	-0.791400	0.447641
C59	C	0.060024	-0.945611	0.710174
C60	C	0.182795	-0.842810	0.710195
H61	H	-0.262602	-0.701546	0.000100
H62	H	0.275612	-0.648252	0.000098
O63	O	0.281003	-0.255826	0.000260
C64	C	0.286803	-0.300950	0.086676
H65	H	0.215706	-0.320534	0.115492
H66	H	0.322618	-0.352684	0.067229
H67	H	0.326775	-0.266122	0.147185
H68	H	-0.494548	-1.086839	0.000176
H69	H	0.232799	-0.800939	0.247341
O70	O	0.303728	-0.741371	0.603641
C71	C	0.289208	-0.666435	0.577961
H72	H	0.217034	-0.665987	0.549070
H73	H	0.299623	-0.628469	0.647034
H74	H	0.339226	-0.644253	0.517016
O75	O	-0.438776	-0.687824	0.000232
C76	C	-0.409180	-0.646253	0.086648
H77	H	-0.344000	-0.666941	0.115455
H78	H	-0.395998	-0.583239	0.067204
H79	H	-0.463606	-0.654961	0.147162
H80	H	-0.022475	-0.680690	0.000113
H81	H	-0.025197	-0.537461	0.000138
H82	H	-0.051354	-1.038856	0.595374
O83	O	-0.123449	-0.761970	-0.000032
C84	C	-0.139785	-0.719683	-0.086466
H85	H	-0.211157	-0.738199	-0.115273
H86	H	-0.133035	-0.656563	-0.067044
H87	H	-0.088374	-0.730090	-0.146971
O88	O	0.000453	-0.995438	0.238910
C89	C	-0.055127	-0.954905	0.178112
H90	H	-0.019200	-0.895686	0.162435
H91	H	-0.069312	-0.986476	0.104236
H92	H	-0.121811	-0.949777	0.218499
H93	H	0.010033	-0.987459	0.752918
H94	H	0.265309	-0.107700	0.000146
H95	H	0.232784	-0.800959	0.752949
H96	H	-0.032777	-0.140140	0.000153
O97	O	-0.042921	-0.290860	0.000103
C98	C	-0.116408	-0.246976	0.000130
H99	H	-0.093394	-0.188081	-0.031459
H100	H	-0.173433	-0.276034	-0.048307
H101	H	-0.141821	-0.241327	0.080176
O102	O	-0.590981	-0.754622	0.000160
C103	C	-0.686394	-0.767913	0.000134
H104	H	-0.708605	-0.826952	0.031730
H105	H	-0.715169	-0.723310	0.048566
H106	H	-0.712563	-0.764225	-0.079913
O107	O	-0.318423	-1.100593	0.000115
C108	C	-0.389704	-1.160453	0.000153
H109	H	-0.453542	-1.139174	-0.031430
H110	H	-0.370163	-1.209105	-0.048284
H111	H	-0.403045	-1.181486	0.080202
O112	O	0.285612	-0.497350	-0.000027
C113	C	0.289660	-0.451160	-0.086448
H114	H	0.218107	-0.447087	-0.115245
H115	H	0.323380	-0.391864	-0.067015
H116	H	0.330766	-0.477175	-0.146965
H117	H	-0.624697	-1.015647	0.000164
O118	O	-0.166363	-1.033849	-0.000036
C119	C	-0.195998	-1.075438	-0.086425
H120	H	-0.215482	-1.034696	-0.146827
H121	H	-0.139103	-1.107696	-0.115431
H122	H	-0.257369	-1.117552	-0.066875
H123	H	0.294179	-0.749549	0.404886
O124	O	-0.060839	-1.046888	0.396369
C125	C	-0.116421	-1.006434	0.335468
H126	H	-0.080583	-0.947174	0.319853
H127	H	-0.130436	-1.038010	0.261569
H128	H	-0.183187	-1.001405	0.375735
