data_functionalizedCrystal
_audit_creation_method	'MofGen! by Chris Wilmer'
_symmetry_space_group_name_H-M	'P1'
_symmetry_Int_Tables_number	1
_symmetry_cell_setting	triclinic
loop_
_symmetry_equiv_pos_as_xyz
  x,y,z
_cell_length_a	16.959454
_cell_length_b	16.959455
_cell_length_c	16.959447
_cell_angle_alpha	89.985678
_cell_angle_beta	90.021714
_cell_angle_gamma	90.002063
loop_
_atom_site_label
_atom_site_type_symbol
_atom_site_fract_x
_atom_site_fract_y
_atom_site_fract_z
Zn1	Zn	0.314730	1.208489	-0.446956
Zn2	Zn	0.446923	1.208455	-0.314797
Zn3	Zn	0.314755	1.076317	-0.314793
Zn4	Zn	0.446864	1.076326	-0.446936
O5	O	0.380818	1.142397	-0.380871
O6	O	0.332280	1.319095	-0.429435
O7	O	0.429425	1.190909	-0.204186
O8	O	0.204141	1.093860	-0.332332
O9	O	0.429401	1.319070	-0.332338
O10	O	0.204123	1.190966	-0.429431
O11	O	0.332323	1.093828	-0.204183
O12	O	0.332265	0.965707	-0.332312
O13	O	0.429301	1.093875	-0.557549
O14	O	0.429325	0.965714	-0.429397
O15	O	0.332223	1.190975	-0.557564
O16	O	0.557526	1.190918	-0.332319
O17	O	0.557482	1.093843	-0.429401
C18	C	0.380792	0.937030	-0.380853
C19	C	0.380800	0.849174	-0.380864
C20	C	0.174650	1.142416	-0.380883
C21	C	0.086793	1.142424	-0.380889
C22	C	0.330238	0.477670	-0.330424
C23	C	0.431463	0.477726	-0.431362
C24	C	0.431452	0.560272	-0.431357
C25	C	0.380834	0.601521	-0.380884
C26	C	0.330226	0.560224	-0.330416
C27	C	0.482064	0.601575	-0.481819
C28	C	0.482055	0.684126	-0.481816
C29	C	0.431432	0.725376	-0.431346
C30	C	0.380822	0.684074	-0.380876
C31	C	0.330204	0.725323	-0.330403
C32	C	0.279589	0.684023	-0.279937
C33	C	0.279603	0.601474	-0.279947
C34	C	0.431418	0.807925	-0.431336
C35	C	0.330193	0.807877	-0.330395
C36	C	-0.284694	1.193026	-0.431457
C37	C	-0.284671	1.091909	-0.330347
C38	C	-0.202125	1.091898	-0.330344
C39	C	-0.160860	1.142452	-0.380898
C40	C	-0.202141	1.193018	-0.431454
C41	C	-0.160837	1.041339	-0.279783
C42	C	-0.078286	1.041326	-0.279777
C43	C	-0.037020	1.091877	-0.330335
C44	C	-0.078306	1.142444	-0.380895
C45	C	-0.037041	1.192998	-0.431448
C46	C	-0.078326	1.243562	-0.482012
C47	C	-0.160875	1.243569	-0.482013
C48	C	0.045528	1.091870	-0.330335
C49	C	0.045512	1.192990	-0.431445
C50	C	0.586184	1.142399	-0.380875
C51	C	0.674041	1.142472	-0.380904
C52	C	0.380753	1.142430	-0.587039
C53	C	0.380725	1.142444	-0.674896
C54	C	0.380845	1.348565	-0.380889
C55	C	0.380856	1.436421	-0.380897
C56	C	0.431185	1.091983	-1.046366
C57	C	0.330097	1.193093	-1.046377
C58	C	0.330114	1.193072	-0.963831
C59	C	0.380668	1.142506	-0.922549
C60	C	0.431205	1.091962	-0.963813
C61	C	0.279584	1.243622	-0.922561
C62	C	0.279599	1.243603	-0.840010
C63	C	0.330149	1.193033	-0.798726
C64	C	0.380688	1.142486	-0.839995
C65	C	0.431242	1.091920	-0.798713
C66	C	0.481777	1.041368	-0.839981
C67	C	0.481756	1.041391	-0.922529
C68	C	0.330171	1.193009	-0.716178
C69	C	0.431262	1.091899	-0.716160
C70	C	0.380826	1.142409	-0.175504
C71	C	0.380631	1.142548	-0.087648
H72	H	0.288968	0.841456	-0.289298
H73	H	-0.194494	1.284737	-0.523179
H74	H	0.079104	1.234152	-0.472619
H75	H	-0.044679	1.000153	-0.238606
C76	C	0.486266	0.852725	-0.486254
C77	C	0.469146	0.832682	-0.564491
C78	C	0.519649	0.873943	-0.615107
H79	H	0.539391	0.839238	-0.474703
H80	H	0.479001	0.907803	-0.479076
H81	H	0.476417	0.777616	-0.571666
H82	H	0.416030	0.846170	-0.576067
H83	H	0.512384	0.929021	-0.607929
H84	H	0.572771	0.860454	-0.603549
H85	H	0.508035	0.860356	-0.668197
C86	C	0.224669	1.298604	-0.967237
C87	C	0.180433	1.342884	-0.913432
C88	C	0.129842	1.393550	-0.954563
H89	H	0.190147	1.268464	-0.999445
H90	H	0.254885	1.333089	-0.999422
H91	H	0.150220	1.308404	-0.881261
H92	H	0.214935	1.373040	-0.881223
H93	H	0.160058	1.428035	-0.986748
H94	H	0.095325	1.363404	-0.986769
H95	H	0.099828	1.423605	-0.918063
C96	C	0.224664	0.728955	-0.225224
C97	C	0.235483	0.810086	-0.236034
C98	C	0.184895	0.851504	-0.185655
H99	H	0.236115	0.715505	-0.172065
H100	H	0.171553	0.715475	-0.236888
H101	H	0.288582	0.823560	-0.224364
H102	H	0.224027	0.823559	-0.289182
H103	H	0.131783	0.838024	-0.197319
H104	H	0.196349	0.838048	-0.132499
H105	H	0.192223	0.906556	-0.192987
H106	H	0.079139	1.050704	-0.289164
C107	C	0.224736	0.556491	-0.225194
C108	C	0.235595	0.475371	-0.235993
C109	C	0.185071	0.433905	-0.185565
H110	H	0.171609	0.569920	-0.236804
H111	H	0.236236	0.569954	-0.172045
H112	H	0.224090	0.461914	-0.289130
H113	H	0.288711	0.461918	-0.224377
H114	H	0.196570	0.447367	-0.132416
H115	H	0.131947	0.447340	-0.197179
H116	H	0.192437	0.378860	-0.192879
C117	C	0.486333	0.432802	-0.486128
C118	C	0.475500	0.351669	-0.475344
C119	C	0.526026	0.310258	-0.525791
H120	H	0.539458	0.446241	-0.474525
H121	H	0.474819	0.446298	-0.539271
H122	H	0.487019	0.338179	-0.422213
H123	H	0.422385	0.338206	-0.486952
H124	H	0.514512	0.323754	-0.578935
H125	H	0.579148	0.323704	-0.514185
H126	H	0.518677	0.255206	-0.518487
H127	H	-0.044718	1.284727	-0.523169
H128	H	0.523280	0.567984	-0.522906
C129	C	0.536902	0.728919	-0.536744
C130	C	0.519773	0.708871	-0.614978
C131	C	0.570272	0.750127	-0.665602
H132	H	0.590028	0.715432	-0.525198
H133	H	0.529640	0.783998	-0.529569
H134	H	0.527042	0.653804	-0.622149
H135	H	0.466656	0.722360	-0.626548
H136	H	0.563010	0.805206	-0.658428
H137	H	0.623395	0.736637	-0.654049
H138	H	0.558652	0.736536	-0.718690
H139	H	-0.318271	1.050753	-0.289184
H140	H	0.288943	1.234266	-1.079993
C141	C	0.486243	1.036972	-0.671484
C142	C	0.530507	0.992726	-0.725295
C143	C	0.581173	0.942131	-0.684170
H144	H	0.456104	1.002457	-0.639277
H145	H	0.520738	1.067186	-0.639300
H146	H	0.496016	0.962515	-0.757466
H147	H	0.560662	1.027221	-0.757504
H148	H	0.615668	0.972344	-0.651986
H149	H	0.551028	0.907621	-0.651964
H150	H	0.611217	0.912109	-0.720674
C151	C	0.536751	0.986562	-0.967235
C152	C	0.614963	1.003748	-0.947129
C153	C	0.665646	0.953253	-0.988293
H154	H	0.529606	0.993772	-1.022322
H155	H	0.525228	0.933436	-0.953698
H156	H	0.626481	1.056862	-0.960672
H157	H	0.622133	0.996534	-0.892050
H158	H	0.654124	0.900126	-0.974755
H159	H	0.658494	0.960467	-1.043378
H160	H	0.718718	0.964901	-0.974651
H161	H	-0.194438	1.000183	-0.238619
C162	C	0.486179	1.037147	-1.091065
C163	C	0.564392	1.054333	-1.070960
C164	C	0.615074	1.003828	-1.112113
H165	H	0.479036	1.044346	-1.146153
H166	H	0.474654	0.984023	-1.077517
H167	H	0.575913	1.107444	-1.084513
H168	H	0.571560	1.047129	-1.015879
H169	H	0.603549	0.950704	-1.098565
H170	H	0.607923	1.011031	-1.167199
H171	H	0.668146	1.015477	-1.098473
C172	C	-0.329473	1.247822	-0.486486
C173	C	-0.309431	1.230603	-0.564689
C174	C	-0.350674	1.281055	-0.615404
H175	H	-0.315971	1.300957	-0.475030
H176	H	-0.384554	1.240578	-0.479305
H177	H	-0.254363	1.237853	-0.571866
H178	H	-0.322935	1.177477	-0.576169
H179	H	-0.405755	1.273812	-0.608223
H180	H	-0.337169	1.334188	-0.603941
H181	H	-0.337087	1.269375	-0.668470
H182	H	0.522941	1.000201	-0.806358
C183	C	0.224668	1.298343	-0.795117
C184	C	0.174023	1.253566	-0.747733
C185	C	0.123408	1.303959	-0.706361
H186	H	0.194483	1.328471	-0.831443
H187	H	0.254876	1.332768	-0.762855
H188	H	0.143818	1.219155	-0.779992
H189	H	0.204186	1.223440	-0.711392
H190	H	0.153616	1.338384	-0.674099
H191	H	0.093229	1.334084	-0.742693
H192	H	0.089045	1.273585	-0.674201
H193	H	0.289026	0.444040	-0.289338
C194	C	0.275268	1.247761	-0.671271
C195	C	0.224619	1.203004	-0.623873
C196	C	0.174036	1.253417	-0.582486
H197	H	0.245084	1.277901	-0.707588
H198	H	0.305499	1.282173	-0.639017
H199	H	0.194391	1.168605	-0.656123
H200	H	0.254781	1.172865	-0.587541
H201	H	0.204267	1.287829	-0.550233
H202	H	0.143858	1.283554	-0.618809
H203	H	0.139670	1.223057	-0.550316
