data_functionalizedCrystal
_audit_creation_method	'MofGen! by Chris Wilmer'
_symmetry_space_group_name_H-M	'P1'
_symmetry_Int_Tables_number	1
_symmetry_cell_setting	triclinic
loop_
_symmetry_equiv_pos_as_xyz
  x,y,z
_cell_length_a	25.639242
_cell_length_b	16.959453
_cell_length_c	16.959447
_cell_angle_alpha	89.968429
_cell_angle_beta	89.975785
_cell_angle_gamma	90.018253
loop_
_atom_site_label
_atom_site_type_symbol
_atom_site_fract_x
_atom_site_fract_y
_atom_site_fract_z
Zn1	Zn	0.799294	-0.314760	-0.447110
Zn2	Zn	1.299294	0.185240	0.052890
Zn3	Zn	0.799238	-0.446953	-0.314929
Zn4	Zn	1.299238	0.053047	0.185071
Zn5	Zn	0.711867	-0.314782	-0.314925
Zn6	Zn	1.211867	0.185218	0.185075
Zn7	Zn	0.711839	-0.446890	-0.447045
Zn8	Zn	1.211839	0.053110	0.052955
O9	O	0.755560	-0.380846	-0.381002
O10	O	1.255560	0.119154	0.118998
O11	O	0.872452	-0.332313	-0.429605
O12	O	1.372452	0.167687	0.070395
O13	O	0.787637	-0.429455	-0.204318
O14	O	1.287637	0.070545	0.295682
O15	O	0.723499	-0.204168	-0.332486
O16	O	1.223499	0.295832	0.167514
O17	O	0.872411	-0.429434	-0.332492
O18	O	1.372411	0.070566	0.167508
O19	O	0.787731	-0.204152	-0.429602
O20	O	1.287731	0.295848	0.070398
O21	O	0.723445	-0.332350	-0.204315
O22	O	1.223445	0.167650	0.295685
O23	O	0.638698	-0.332289	-0.332422
O24	O	1.138698	0.167711	0.167578
O25	O	0.723452	-0.429328	-0.557664
O26	O	1.223452	0.070672	-0.057664
O27	O	0.638678	-0.429349	-0.429490
O28	O	1.138678	0.070651	0.070510
O29	O	0.787704	-0.332252	-0.557713
O30	O	1.287704	0.167748	-0.057713
O31	O	0.787610	-0.557555	-0.332429
O32	O	1.287610	-0.057555	0.167571
O33	O	0.723398	-0.557509	-0.429493
O34	O	1.223398	-0.057509	0.070507
C35	C	0.619717	-0.380815	-0.380949
C36	C	1.119717	0.119185	0.119051
C37	C	0.561603	-0.380821	-0.380945
C38	C	1.061603	0.119179	0.119055
C39	C	0.755509	-0.586213	-0.380972
C40	C	1.255509	-0.086213	0.119028
C41	C	0.755536	-0.674069	-0.380985
C42	C	1.255536	-0.174069	0.119015
C43	C	0.722134	-0.715420	-0.330385
C44	C	1.222134	-0.215420	0.169615
C45	C	0.788960	-0.715272	-0.431602
C46	C	1.288960	-0.215272	0.068398
C47	C	0.788985	-0.797818	-0.431619
C48	C	1.288985	-0.297818	0.068381
C49	C	0.755583	-0.839168	-0.381019
C50	C	1.255583	-0.339168	0.118981
C51	C	0.722156	-0.797973	-0.330402
C52	C	1.222156	-0.297973	0.169598
C53	C	0.822407	-0.839020	-0.482241
C54	C	1.322407	-0.339020	0.017759
C55	C	0.822432	-0.921571	-0.482260
C56	C	1.322432	-0.421571	0.017740
C57	C	0.789032	-0.962922	-0.431656
C58	C	1.289032	-0.462922	0.068344
C59	C	0.755605	-0.921722	-0.381037
C60	C	1.255605	-0.421722	0.118963
C61	C	0.722203	-0.963072	-0.330437
C62	C	1.222203	-0.463072	0.169563
C63	C	0.688778	-0.921873	-0.279813
C64	C	1.188778	-0.421873	0.220187
C65	C	0.688756	-0.839325	-0.279798
C66	C	1.188756	-0.339325	0.220202
C67	C	0.789054	-1.045471	-0.431671
C68	C	1.289054	-0.545471	0.068329
C69	C	0.722225	-1.045626	-0.330454
C70	C	1.222225	-0.545626	0.169546
C71	C	0.201238	-0.431470	-0.431498
C72	C	0.701238	0.068530	0.068502
C73	C	0.146634	-0.431474	-0.431510
C74	C	0.646634	0.068526	0.068490
O75	O	0.118396	-0.474499	-0.474447
O76	O	0.618396	0.025501	0.025553
N77	N	0.119321	-0.380868	-0.381054
N78	N	0.619321	0.119132	0.118946
C79	C	0.146614	-0.330248	-0.330588
C80	C	0.646614	0.169752	0.169412
O81	O	0.118368	-0.287203	-0.287672
O82	O	0.618368	0.212797	0.212328
C83	C	0.201217	-0.330239	-0.330580
C84	C	0.701217	0.169761	0.169420
C85	C	0.228528	-0.380855	-0.381034
C86	C	0.728528	0.119145	0.118966
C87	C	0.228549	-0.482080	-0.481948
C88	C	0.728549	0.017920	0.018052
C89	C	0.283150	-0.482076	-0.481934
C90	C	0.783150	0.017924	0.018066
C91	C	0.310439	-0.431462	-0.431470
C92	C	0.810439	0.068538	0.068530
C93	C	0.283129	-0.380851	-0.381020
C94	C	0.783129	0.119149	0.118980
C95	C	0.228510	-0.279616	-0.280118
C96	C	0.728510	0.220384	0.219882
C97	C	0.283117	-0.279611	-0.280115
C98	C	0.783117	0.220389	0.219885
C99	C	0.310428	-0.330227	-0.330569
C100	C	0.810428	0.169773	0.169431
C101	C	0.365019	-0.330232	-0.330542
C102	C	0.865019	0.169768	0.169458
N103	N	0.392333	-0.380839	-0.380998
N104	N	0.892333	0.119161	0.119002
C105	C	0.365043	-0.431453	-0.431462
C106	C	0.865043	0.068547	0.068538
C107	C	0.031944	-0.330268	-0.330609
C108	C	0.531944	0.169732	0.169391
C109	C	-0.022659	-0.330279	-0.330612
C110	C	0.477341	0.169721	0.169388
C111	C	-0.022635	-0.431505	-0.431536
C112	C	0.477365	0.068495	0.068464
C113	C	0.031968	-0.431497	-0.431528
C114	C	0.531968	0.068503	0.068472
C115	C	0.059257	-0.380874	-0.381065
C116	C	0.559257	0.119126	0.118935
C117	C	0.479708	-0.431442	-0.431429
C118	C	0.979708	0.068558	0.068571
C119	C	0.534313	-0.431436	-0.431409
C120	C	1.034313	0.068564	0.068591
C121	C	0.534285	-0.330207	-0.330488
C122	C	1.034285	0.169793	0.169512
C123	C	0.479684	-0.330216	-0.330505
C124	C	0.979684	0.169784	0.169495
C125	C	0.452397	-0.380836	-0.380982
C126	C	0.952397	0.119164	0.119018
O127	O	0.393292	-0.287227	-0.287630
O128	O	0.893292	0.212773	0.212370
O129	O	0.393296	-0.474484	-0.474378
O130	O	0.893296	0.025516	0.025622
C131	C	0.891933	-0.380878	-0.381057
C132	C	1.391933	0.119122	0.118943
C133	C	0.950047	-0.380892	-0.381080
C134	C	1.450047	0.119108	0.118920
C135	C	0.755581	-0.380781	-0.587171
C136	C	1.255581	0.119219	-0.087171
C137	C	0.755591	-0.380753	-0.675027
C138	C	1.255591	0.119247	-0.175027
C139	C	0.755624	-0.174678	-0.381051
C140	C	1.255624	0.325322	0.118949
C141	C	0.755652	-0.086821	-0.381071
C142	C	1.255652	0.413179	0.118929
C143	C	0.722200	-0.431212	-1.046480
C144	C	1.222200	0.068788	-0.546480
C145	C	0.789106	-0.330127	-1.046526
C146	C	1.289106	0.169873	-0.546526
C147	C	0.789092	-0.330144	-0.963980
C148	C	1.289092	0.169856	-0.463980
C149	C	0.755632	-0.380696	-0.922680
C150	C	1.255632	0.119304	-0.422680
C151	C	0.722186	-0.431232	-0.963927
C152	C	1.222186	0.068768	-0.463927
C153	C	0.822542	-0.279614	-0.922727
C154	C	1.322542	0.220386	-0.422727
C155	C	0.822530	-0.279630	-0.840176
C156	C	1.322530	0.220370	-0.340176
C157	C	0.789066	-0.330179	-0.798875
C158	C	1.289066	0.169821	-0.298875
C159	C	0.755618	-0.380716	-0.840127
C160	C	1.255618	0.119284	-0.340127
C161	C	0.722158	-0.431269	-0.798827
C162	C	1.222158	0.068731	-0.298827
C163	C	0.688707	-0.481803	-0.840077
C164	C	1.188707	0.018197	-0.340077
C165	C	0.688723	-0.481781	-0.922626
C166	C	1.188723	0.018219	-0.422626
C167	C	0.789051	-0.330200	-0.716327
C168	C	1.289051	0.169800	-0.216327
C169	C	0.722144	-0.431289	-0.716274
C170	C	1.222144	0.068711	-0.216274
C171	C	0.755568	-0.380854	-0.175636
C172	C	1.255568	0.119146	0.324364
C173	C	0.755660	-0.380660	-0.087780
C174	C	1.255660	0.119340	0.412220
H175	H	0.695026	-1.079288	-0.289247
H176	H	1.195026	-0.579288	0.210753
F177	F	0.199456	-0.225739	-0.226421
F178	F	0.699456	0.274261	0.273579
F179	F	0.686564	-0.671573	-0.276507
F180	F	1.186564	-0.171573	0.223493
H181	H	0.849786	-0.238462	-0.956359
H182	H	1.349786	0.261538	-0.456359
F183	F	0.450617	-0.276357	-0.276796
F184	F	0.950617	0.223643	0.223204
F185	F	0.824652	-0.276427	-0.672429
F186	F	1.324652	0.223573	-0.172429
H187	H	0.661542	-0.805776	-0.238583
H188	H	1.161542	-0.305776	0.261417
H189	H	-0.044864	-0.472716	-0.472629
H190	H	0.455136	0.027284	0.027371
F191	F	0.857944	-0.795008	-0.536101
F192	F	1.357944	-0.295008	-0.036101
F193	F	0.858129	-0.225846	-0.796282
F194	F	1.358129	0.274154	-0.296282
H195	H	0.849650	-0.955108	-0.523480
H196	H	1.349650	-0.455108	-0.023480
F197	F	0.824623	-1.089314	-0.485547
F198	F	1.324623	-0.589314	0.014453
H199	H	0.661579	-0.955552	-0.238618
H200	H	1.161579	-0.455552	0.261382
F201	F	0.563338	-0.276342	-0.276783
F202	F	1.063338	0.223658	0.223217
F203	F	0.563376	-0.485311	-0.485109
F204	F	1.063376	0.014689	0.014891
F205	F	0.824501	-0.671262	-0.485460
F206	F	1.324501	-0.171262	0.014540
H207	H	-0.044891	-0.289071	-0.289520
H208	H	0.455109	0.210929	0.210480
F209	F	0.060982	-0.276389	-0.276891
F210	F	0.560982	0.223611	0.223109
F211	F	0.686528	-0.485091	-0.672326
F212	F	1.186528	0.014909	-0.172326
F213	F	0.450674	-0.485317	-0.485152
F214	F	0.950674	0.014683	0.014848
H215	H	0.305381	-0.523291	-0.523021
H216	H	0.805381	-0.023291	-0.023021
H217	H	0.206335	-0.523297	-0.523046
H218	H	0.706335	-0.023297	-0.023046
F219	F	0.312157	-0.225729	-0.226405
F220	F	0.812157	0.274271	0.273595
F221	F	0.061029	-0.485367	-0.485228
F222	F	0.561029	0.014633	0.014772
H223	H	0.661466	-0.522966	-0.806441
H224	H	1.161466	-0.022966	-0.306441
H225	H	0.661490	-0.522926	-0.956219
H226	H	1.161490	-0.022926	-0.456219
F227	F	0.686599	-0.484989	-1.090381
F228	F	1.186599	0.015011	-0.590381
F229	F	0.824718	-0.276334	-1.090482
F230	F	1.324718	0.223666	-0.590482
