data_functionalizedCrystal
_audit_creation_method	'MofGen! by Chris Wilmer'
_symmetry_space_group_name_H-M	'P1'
_symmetry_Int_Tables_number	1
_symmetry_cell_setting	triclinic
loop_
_symmetry_equiv_pos_as_xyz
  x,y,z
_cell_length_a	21.295419
_cell_length_b	21.295417
_cell_length_c	12.759393
_cell_angle_alpha	90.039170
_cell_angle_beta	90.021680
_cell_angle_gamma	90.045308
loop_
_atom_site_label
_atom_site_type_symbol
_atom_site_fract_x
_atom_site_fract_y
_atom_site_fract_z
Zn1	Zn	0.962338	-0.250323	0.594015
Zn2	Zn	1.462338	0.249677	1.094015
Zn3	Zn	0.962245	-0.355608	0.418312
Zn4	Zn	1.462245	0.144392	0.918312
Zn5	Zn	0.857066	-0.250383	0.418345
Zn6	Zn	1.357066	0.249617	0.918345
Zn7	Zn	0.857030	-0.355586	0.593944
Zn8	Zn	1.357030	0.144414	1.093944
O9	O	0.909670	-0.302975	0.506154
O10	O	1.409670	0.197025	1.006154
O11	O	1.050415	-0.264274	0.570724
O12	O	1.550415	0.235726	1.070724
O13	O	0.948270	-0.341683	0.271295
O14	O	1.448270	0.158317	0.771295
O15	O	0.871084	-0.162286	0.441692
O16	O	1.371084	0.337714	0.941692
O17	O	1.050347	-0.341625	0.441636
O18	O	1.550347	0.158375	0.941636
O19	O	0.948427	-0.162242	0.570756
O20	O	1.448427	0.337758	1.070756
O21	O	0.870995	-0.264376	0.271319
O22	O	1.370995	0.235624	0.771319
O23	O	0.768972	-0.264355	0.441622
O24	O	1.268972	0.235645	0.941622
O25	O	0.871023	-0.341589	0.740974
O26	O	1.371023	0.158411	1.240974
O27	O	0.768946	-0.341647	0.570634
O28	O	1.268946	0.158353	1.070634
O29	O	0.948392	-0.264253	0.741027
O30	O	1.448392	0.235747	1.241027
O31	O	0.948235	-0.443694	0.441566
O32	O	1.448235	0.056306	0.941566
O33	O	0.870934	-0.443678	0.570602
O34	O	1.370934	0.056322	1.070602
C35	C	0.746118	-0.303005	0.506125
C36	C	1.246118	0.196995	1.006125
C37	C	0.676150	-0.303033	0.506137
C38	C	1.176150	0.196967	1.006137
C39	C	0.643341	-0.262822	0.573457
C40	C	1.143341	0.237178	1.073457
C41	C	0.577599	-0.262805	0.573461
C42	C	1.077599	0.237195	1.073461
C43	C	0.544668	-0.303011	0.506156
C44	C	1.044668	0.196989	1.006156
C45	C	0.577485	-0.343225	0.438823
C46	C	1.077485	0.156775	0.938823
C47	C	0.643226	-0.343236	0.438813
C48	C	1.143226	0.156764	0.938813
N49	N	0.441393	-0.358090	0.497945
N50	N	0.941393	0.141910	0.997945
N51	N	0.378941	-0.358077	0.497960
N52	N	0.878941	0.141923	0.997960
C53	C	0.346593	-0.302978	0.506179
C54	C	0.846593	0.197022	1.006179
N55	N	0.379056	-0.247891	0.514403
N56	N	0.879056	0.252109	1.014403
N57	N	0.441513	-0.247904	0.514393
N58	N	0.941513	0.252096	1.014393
C59	C	0.473382	-0.303003	0.506158
C60	C	0.973382	0.196997	1.006158
C61	C	0.242499	-0.262745	0.573507
C62	C	0.742499	0.237255	1.073507
C63	C	0.176755	-0.262727	0.573504
C64	C	0.676755	0.237273	1.073504
C65	C	0.176642	-0.343153	0.438871
C66	C	0.676642	0.156847	0.938871
C67	C	0.242384	-0.343165	0.438869
C68	C	0.742384	0.156835	0.938869
C69	C	0.275309	-0.302962	0.506193
C70	C	0.775309	0.197038	1.006193
C71	C	0.909587	-0.466527	0.506096
C72	C	1.409587	0.033473	1.006096
C73	C	0.909610	-0.536495	0.506106
C74	C	1.409610	-0.036495	1.006106
C75	C	0.949896	-0.569349	0.438986
C76	C	1.449896	-0.069349	0.938986
C77	C	0.949926	-0.635091	0.439010
C78	C	1.449926	-0.135091	0.939010
C79	C	0.909658	-0.667977	0.506142
C80	C	1.409658	-0.167977	1.006142
C81	C	0.869368	-0.635115	0.573276
C82	C	1.369368	-0.135115	1.073276
C83	C	0.869344	-0.569374	0.573257
C84	C	1.369344	-0.069374	1.073257
N85	N	0.854590	-0.771257	0.514142
N86	N	1.354590	-0.271257	1.014142
N87	N	0.854615	-0.833708	0.514153
N88	N	1.354615	-0.333708	1.014153
C89	C	0.909728	-0.866052	0.506203
C90	C	1.409728	-0.366052	1.006203
N91	N	0.964817	-0.833585	0.498220
N92	N	1.464817	-0.333585	0.998220
N93	N	0.964792	-0.771128	0.498204
N94	N	1.464792	-0.271128	0.998204
C95	C	0.909679	-0.739263	0.506170
C96	C	1.409679	-0.239263	1.006170
C97	C	0.950050	-0.970191	0.439104
C98	C	1.450050	-0.470191	0.939104
C99	C	0.950080	-1.035935	0.439136
C100	C	1.450080	-0.535935	0.939136
C101	C	0.869517	-1.035958	0.573396
C102	C	1.369517	-0.535958	1.073396
C103	C	0.869492	-0.970216	0.573370
C104	C	1.369492	-0.470216	1.073370
C105	C	0.909758	-0.937336	0.506219
C106	C	1.409758	-0.437336	1.006219
C107	C	1.073860	-0.302945	0.506184
C108	C	1.573860	0.197055	1.006184
C109	C	1.143828	-0.302932	0.506197
C110	C	1.643828	0.197068	1.006197
C111	C	0.909714	-0.302912	0.780188
C112	C	1.409714	0.197088	1.280188
C113	C	0.909733	-0.302884	0.896964
C114	C	1.409733	0.197116	1.396964
C115	C	0.909770	-0.138785	0.506235
C116	C	1.409770	0.361215	1.006235
C117	C	0.909813	-0.068817	0.506270
C118	C	1.409813	0.431183	1.006270
C119	C	0.909662	-0.302993	0.233187
C120	C	1.409662	0.197007	0.733187
C121	C	0.909766	-0.302843	0.116411
C122	C	1.409766	0.197157	0.616411
C123	C	0.950024	-0.262612	0.951855
C124	C	1.450024	0.237388	1.451855
C125	C	0.950039	-0.262589	1.061580
C126	C	1.450039	0.237411	1.561580
C127	C	0.869470	-0.343117	1.061512
C128	C	1.369470	0.156883	1.561512
C129	C	0.869452	-0.343136	0.951790
C130	C	1.369452	0.156864	1.451790
C131	C	0.990305	-0.222360	0.897030
C132	C	1.490305	0.277640	1.397030
C133	C	1.030601	-0.182085	0.951921
C134	C	1.530601	0.317915	1.451921
C135	C	1.030616	-0.182062	1.061645
C136	C	1.530616	0.317938	1.561645
C137	C	0.990335	-0.222315	1.116478
C138	C	1.490335	0.277685	1.616478
H139	H	0.669938	-0.375982	0.383991
H140	H	1.169938	0.124018	0.883991
H141	H	0.990344	-0.222286	1.205823
H142	H	1.490344	0.277714	1.705823
H143	H	0.836633	-0.375920	0.907096
H144	H	1.336633	0.124080	1.407096
C145	C	0.994242	-0.671238	0.365164
C146	C	1.494242	-0.171238	0.865164
N147	N	1.027620	-0.698462	0.309540
N148	N	1.527620	-0.198462	0.809540
H149	H	0.990299	-0.222376	0.807687
H150	H	1.490299	0.277624	1.307687
H151	H	0.836733	-1.062733	0.628061
H152	H	1.336733	-0.562733	1.128061
C153	C	0.825165	-0.387393	1.121832
C154	C	1.325165	0.112607	1.621832
N155	N	0.791795	-0.420743	1.167266
N156	N	1.291795	0.079257	1.667266
H157	H	0.836583	-0.661895	0.627937
H158	H	1.336583	-0.161895	1.127937
C159	C	0.679554	-0.218590	0.647502
C160	C	1.179554	0.281410	1.147502
N161	N	0.706831	-0.185271	0.703269
N162	N	1.206831	0.314729	1.203269
H163	H	0.269307	-0.230006	0.628320
H164	H	0.769307	0.269994	1.128320
H165	H	0.550881	-0.230057	0.628280
H166	H	1.050881	0.269943	1.128280
H167	H	0.836538	-0.542624	0.627916
H168	H	1.336538	-0.042624	1.127916
H169	H	0.550668	-0.375960	0.384022
H170	H	1.050668	0.124040	0.884022
H171	H	0.150043	-0.229979	0.628323
H172	H	0.650043	0.270021	1.128323
H173	H	0.149830	-0.375889	0.384070
H174	H	0.649830	0.124111	0.884070
C175	C	0.278476	-0.387406	0.364819
C176	C	0.778476	0.112594	0.864819
N177	N	0.305659	-0.420730	0.309040
N178	N	0.805659	0.079270	0.809040
C179	C	0.994183	-0.533185	0.365106
C180	C	1.494183	-0.033185	0.865106
N181	N	1.027537	-0.505946	0.309455
N182	N	1.527537	-0.005946	0.809455
H183	H	0.982838	-0.943420	0.384429
H184	H	1.482838	-0.443420	0.884429
C185	C	1.074938	-0.137757	1.122023
C186	C	1.574938	0.362243	1.622023
N187	N	1.108326	-0.104387	1.167497
N188	N	1.608326	0.395613	1.667497
H189	H	0.982890	-1.062684	0.384480
H190	H	1.482890	-0.562684	0.884480
H191	H	0.836685	-0.943464	0.628022
H192	H	1.336685	-0.443464	1.128022
H193	H	1.063392	-0.149309	0.907269
H194	H	1.563392	0.350691	1.407269
