data_functionalizedCrystal
_audit_creation_method	'MofGen! by Chris Wilmer'
_symmetry_space_group_name_H-M	'P1'
_symmetry_Int_Tables_number	1
_symmetry_cell_setting	triclinic
loop_
_symmetry_equiv_pos_as_xyz
  x,y,z
_cell_length_a	25.639239
_cell_length_b	18.050591
_cell_length_c	25.639234
_cell_angle_alpha	90.029669
_cell_angle_beta	89.975095
_cell_angle_gamma	89.968232
loop_
_atom_site_label
_atom_site_type_symbol
_atom_site_fract_x
_atom_site_fract_y
_atom_site_fract_z
Zn1	Zn	-0.208279	-1.135280	-0.295747
Zn2	Zn	0.041721	-0.885280	-0.045747
Zn3	Zn	0.291721	-0.635280	0.204253
Zn4	Zn	0.541721	-0.385280	0.454253
Zn5	Zn	-0.295707	-1.135156	-0.208311
Zn6	Zn	-0.045707	-0.885156	0.041689
Zn7	Zn	0.204293	-0.635156	0.291689
Zn8	Zn	0.454293	-0.385156	0.541689
Zn9	Zn	-0.208277	-1.011087	-0.208310
Zn10	Zn	0.041723	-0.761087	0.041690
Zn11	Zn	0.291723	-0.511087	0.291690
Zn12	Zn	0.541723	-0.261087	0.541690
Zn13	Zn	-0.295675	-1.011025	-0.295700
Zn14	Zn	-0.045675	-0.761025	-0.045700
Zn15	Zn	0.204325	-0.511025	0.204300
Zn16	Zn	0.454325	-0.261025	0.454300
O17	O	-0.251985	-1.073137	-0.252017
O18	O	-0.001985	-0.823137	-0.002017
O19	O	0.248015	-0.573137	0.247983
O20	O	0.498015	-0.323137	0.497983
O21	O	-0.219891	-1.239188	-0.284168
O22	O	0.030109	-0.989188	-0.034168
O23	O	0.280109	-0.739188	0.215832
O24	O	0.530109	-0.489188	0.465832
O25	O	-0.284122	-1.118672	-0.135146
O26	O	-0.034122	-0.868672	0.114854
O27	O	0.215878	-0.618672	0.364854
O28	O	0.465878	-0.368672	0.614854
O29	O	-0.135112	-1.027640	-0.219928
O30	O	0.114888	-0.777640	0.030072
O31	O	0.364888	-0.527640	0.280072
O32	O	0.614888	-0.277640	0.530072
O33	O	-0.284124	-1.239097	-0.219929
O34	O	-0.034124	-0.989097	0.030071
O35	O	0.215876	-0.739097	0.280071
O36	O	0.465876	-0.489097	0.530071
O37	O	-0.135114	-1.118884	-0.284167
O38	O	0.114886	-0.868884	-0.034167
O39	O	0.364886	-0.618884	0.215833
O40	O	0.614886	-0.368884	0.465833
O41	O	-0.219888	-1.027519	-0.135145
O42	O	0.030112	-0.777519	0.114855
O43	O	0.280112	-0.527519	0.364855
O44	O	0.530112	-0.277519	0.614855
O45	O	-0.219856	-0.907154	-0.219883
O46	O	0.030144	-0.657154	0.030117
O47	O	0.280144	-0.407154	0.280117
O48	O	0.530144	-0.157154	0.530117
O49	O	-0.284069	-1.027533	-0.368872
O50	O	-0.034069	-0.777533	-0.118872
O51	O	0.215931	-0.527533	0.131128
O52	O	0.465931	-0.277533	0.381128
O53	O	-0.284067	-0.907108	-0.284088
O54	O	-0.034067	-0.657108	-0.034088
O55	O	0.215933	-0.407108	0.215912
O56	O	0.465933	-0.157108	0.465912
O57	O	-0.219860	-1.118823	-0.368906
O58	O	0.030140	-0.868823	-0.118906
O59	O	0.280140	-0.618823	0.131094
O60	O	0.530140	-0.368823	0.381094
O61	O	-0.368868	-1.118611	-0.219884
O62	O	-0.118868	-0.868611	0.030116
O63	O	0.131132	-0.618611	0.280116
O64	O	0.381132	-0.368611	0.530116
O65	O	-0.368844	-1.027413	-0.284089
O66	O	-0.118844	-0.777413	-0.034089
O67	O	0.131156	-0.527413	0.215911
O68	O	0.381156	-0.277413	0.465911
C69	C	-0.251958	-0.880185	-0.251981
C70	C	-0.001958	-0.630185	-0.001981
C71	C	0.248042	-0.380185	0.248019
C72	C	0.498042	-0.130185	0.498019
C73	C	-0.251959	-0.797639	-0.251978
C74	C	-0.001959	-0.547639	-0.001978
C75	C	0.248041	-0.297639	0.248022
C76	C	0.498041	-0.047639	0.498022
C77	C	-0.387827	-1.073012	-0.251993
C78	C	-0.137827	-0.823012	-0.001993
C79	C	0.112173	-0.573012	0.248007
C80	C	0.362173	-0.323012	0.498007
C81	C	-0.445941	-1.073026	-0.252000
C82	C	-0.195941	-0.823026	-0.002000
C83	C	0.054059	-0.573026	0.248000
C84	C	0.304059	-0.323026	0.498000
C85	C	-0.216994	-0.598192	-0.217136
C86	C	0.033006	-0.348192	0.032864
C87	C	0.283006	-0.098192	0.282864
C88	C	0.533006	0.151808	0.532864
C89	C	-0.264680	-0.548758	-0.204266
C90	C	-0.014680	-0.298758	0.045734
C91	C	0.235320	-0.048758	0.295734
C92	C	0.485320	0.201242	0.545734
C93	C	-0.251970	-0.646509	-0.251996
C94	C	-0.001970	-0.396509	-0.001996
C95	C	0.248030	-0.146509	0.248004
C96	C	0.498030	0.103491	0.498004
C97	C	-0.204295	-0.548861	-0.264859
C98	C	0.045705	-0.298861	-0.014859
C99	C	0.295705	-0.048861	0.235141
C100	C	0.545705	0.201139	0.485141
C101	C	-0.251976	-0.500523	-0.252012
C102	C	-0.001976	-0.250523	-0.002012
C103	C	0.248024	-0.000523	0.247988
C104	C	0.498024	0.249477	0.497988
C105	C	-0.299681	-0.598162	-0.239101
C106	C	-0.049681	-0.348162	0.010899
C107	C	0.200319	-0.098162	0.260899
C108	C	0.450319	0.151838	0.510899
C109	C	-0.239264	-0.598269	-0.299716
C110	C	0.010736	-0.348269	-0.049716
C111	C	0.260736	-0.098269	0.200284
C112	C	0.510736	0.151731	0.450284
C113	C	-0.286983	-0.548858	-0.286864
C114	C	-0.036983	-0.298858	-0.036864
C115	C	0.213017	-0.048858	0.213136
C116	C	0.463017	0.201142	0.463136
C117	C	-0.251966	-0.730607	-0.251985
C118	C	-0.001966	-0.480607	-0.001985
C119	C	0.248034	-0.230607	0.248015
C120	C	0.498034	0.019393	0.498015
C121	C	-0.251985	-0.416427	-0.252023
C122	C	-0.001985	-0.166427	-0.002023
C123	C	0.248015	0.083573	0.247977
C124	C	0.498015	0.333573	0.497977
C125	C	-0.806304	-1.120748	-0.218643
C126	C	-0.556304	-0.870748	0.031357
C127	C	-0.306304	-0.620748	0.281357
C128	C	-0.056304	-0.370748	0.531357
C129	C	-0.860908	-1.120777	-0.218650
C130	C	-0.610908	-0.870777	0.031350
C131	C	-0.360908	-0.620777	0.281350
C132	C	-0.110908	-0.370777	0.531350
O133	O	-0.889145	-1.161222	-0.190262
O134	O	-0.639145	-0.911222	0.059738
O135	O	-0.389145	-0.661222	0.309738
O136	O	-0.139145	-0.411222	0.559738
N137	N	-0.888224	-1.073267	-0.252052
N138	N	-0.638224	-0.823267	-0.002052
N139	N	-0.388224	-0.573267	0.247948
N140	N	-0.138224	-0.323267	0.497948
C141	C	-0.860932	-1.025732	-0.285453
C142	C	-0.610932	-0.775732	-0.035453
C143	C	-0.360932	-0.525732	0.214547
C144	C	-0.110932	-0.275732	0.464547
O145	O	-0.889179	-0.985324	-0.313865
O146	O	-0.639179	-0.735324	-0.063865
O147	O	-0.389179	-0.485324	0.186135
O148	O	-0.139179	-0.235324	0.436135
C149	C	-0.806328	-1.025707	-0.285448
C150	C	-0.556328	-0.775707	-0.035448
C151	C	-0.306328	-0.525707	0.214552
C152	C	-0.056328	-0.275707	0.464552
C153	C	-0.779016	-1.073214	-0.252040
C154	C	-0.529016	-0.823214	-0.002040
C155	C	-0.279016	-0.573214	0.247960
C156	C	-0.029016	-0.323214	0.497960
C157	C	-0.778992	-1.168252	-0.185238
C158	C	-0.528992	-0.918252	0.064762
C159	C	-0.278992	-0.668252	0.314762
C160	C	-0.028992	-0.418252	0.564762
C161	C	-0.724391	-1.168222	-0.185230
C162	C	-0.474391	-0.918222	0.064770
C163	C	-0.224391	-0.668222	0.314770
C164	C	0.025609	-0.418222	0.564770
C165	C	-0.697103	-1.120688	-0.218628
C166	C	-0.447103	-0.870688	0.031372
C167	C	-0.197103	-0.620688	0.281372
C168	C	0.052897	-0.370688	0.531372
C169	C	-0.724415	-1.073184	-0.252032
C170	C	-0.474415	-0.823184	-0.002032
C171	C	-0.224415	-0.573184	0.247968
C172	C	0.025585	-0.323184	0.497968
C173	C	-0.779037	-0.978175	-0.318851
C174	C	-0.529037	-0.728175	-0.068851
C175	C	-0.279037	-0.478175	0.181149
C176	C	-0.029037	-0.228175	0.431149
C177	C	-0.724430	-0.978155	-0.318844
C178	C	-0.474430	-0.728155	-0.068844
C179	C	-0.224430	-0.478155	0.181156
C180	C	0.025570	-0.228155	0.431156
C181	C	-0.697118	-1.025663	-0.285436
C182	C	-0.447118	-0.775663	-0.035436
C183	C	-0.197118	-0.525663	0.214564
C184	C	0.052882	-0.275663	0.464564
C185	C	-0.642527	-1.025620	-0.285422
C186	C	-0.392527	-0.775620	-0.035422
C187	C	-0.142527	-0.525620	0.214578
C188	C	0.107473	-0.275620	0.464578
N189	N	-0.615212	-1.073130	-0.252020
N190	N	-0.365212	-0.823130	-0.002020
N191	N	-0.115212	-0.573130	0.247980
N192	N	0.134788	-0.323130	0.497980
C193	C	-0.642500	-1.120664	-0.218623
C194	C	-0.392500	-0.870664	0.031377
C195	C	-0.142500	-0.620664	0.281377
C196	C	0.107500	-0.370664	0.531377
C197	C	-0.975602	-1.025787	-0.285461
C198	C	-0.725602	-0.775787	-0.035461
C199	C	-0.475602	-0.525787	0.214539
C200	C	-0.225602	-0.275787	0.464539
C201	C	-1.030205	-1.025808	-0.285463
C202	C	-0.780205	-0.775808	-0.035463
C203	C	-0.530205	-0.525808	0.214537
C204	C	-0.280205	-0.275808	0.464537
C205	C	-1.030178	-1.120854	-0.218661
C206	C	-0.780178	-0.870854	0.031339
C207	C	-0.530178	-0.620854	0.281339
C208	C	-0.280178	-0.370854	0.531339
C209	C	-0.975574	-1.120830	-0.218656
C210	C	-0.725574	-0.870830	0.031344
C211	C	-0.475574	-0.620830	0.281344
C212	C	-0.225574	-0.370830	0.531344
C213	C	-0.948287	-1.073297	-0.252059
C214	C	-0.698287	-0.823297	-0.002059
C215	C	-0.448287	-0.573297	0.247941
C216	C	-0.198287	-0.323297	0.497941
C217	C	-0.527835	-1.120597	-0.218609
C218	C	-0.277835	-0.870597	0.031391
C219	C	-0.027835	-0.620597	0.281391
C220	C	0.222165	-0.370597	0.531391
C221	C	-0.473229	-1.120560	-0.218603
C222	C	-0.223229	-0.870560	0.031397
C223	C	0.026771	-0.620560	0.281397
C224	C	0.276771	-0.370560	0.531397
C225	C	-0.473261	-1.025517	-0.285407
C226	C	-0.223261	-0.775517	-0.035407
C227	C	0.026739	-0.525517	0.214593
C228	C	0.276739	-0.275517	0.464593
C229	C	-0.527862	-1.025550	-0.285412
C230	C	-0.277862	-0.775550	-0.035412
C231	C	-0.027862	-0.525550	0.214588
C232	C	0.222138	-0.275550	0.464588
C233	C	-0.555147	-1.073096	-0.252011
C234	C	-0.305147	-0.823096	-0.002011
C235	C	-0.055147	-0.573096	0.247989
C236	C	0.194853	-0.323096	0.497989
O237	O	-0.614256	-0.985198	-0.313797
O238	O	-0.364256	-0.735198	-0.063797
O239	O	-0.114256	-0.485198	0.186203
O240	O	0.135744	-0.235198	0.436203
O241	O	-0.614245	-1.161071	-0.190220
O242	O	-0.364245	-0.911071	0.059780
O243	O	-0.114245	-0.661071	0.309780
O244	O	0.135755	-0.411071	0.559780
C245	C	-0.115612	-1.073282	-0.252053
C246	C	0.134388	-0.823282	-0.002053
C247	C	0.384388	-0.573282	0.247947
C248	C	0.634388	-0.323282	0.497947
C249	C	-0.057497	-1.073345	-0.252068
C250	C	0.192503	-0.823345	-0.002068
C251	C	0.442503	-0.573345	0.247932
C252	C	0.692503	-0.323345	0.497932
C253	C	-0.251961	-1.073185	-0.388390
C254	C	-0.001961	-0.823185	-0.138390
C255	C	0.248039	-0.573185	0.111610
C256	C	0.498039	-0.323185	0.361610
C257	C	-0.251951	-1.073206	-0.446504
C258	C	-0.001951	-0.823206	-0.196504
C259	C	0.248049	-0.573206	0.053496
C260	C	0.498049	-0.323206	0.303496
C261	C	-0.252002	-0.266842	-0.252044
C262	C	-0.002002	-0.016842	-0.002044
C263	C	0.247998	0.233158	0.247956
C264	C	0.497998	0.483158	0.497956
C265	C	-0.251987	-0.349388	-0.252032
C266	C	-0.001987	-0.099388	-0.002032
C267	C	0.248013	0.150612	0.247968
C268	C	0.498013	0.400612	0.497968
C269	C	-0.218441	-1.025763	-0.806873
C270	C	0.031559	-0.775763	-0.556873
C271	C	0.281559	-0.525763	-0.306873
C272	C	0.531559	-0.275763	-0.056873
C273	C	-0.218432	-1.025767	-0.861477
C274	C	0.031568	-0.775767	-0.611477
C275	C	0.281568	-0.525767	-0.361477
C276	C	0.531568	-0.275767	-0.111477
O277	O	-0.189999	-0.985393	-0.889718
O278	O	0.060001	-0.735393	-0.639718
O279	O	0.310001	-0.485393	-0.389718
O280	O	0.560001	-0.235393	-0.139718
N281	N	-0.251869	-1.073230	-0.888787
N282	N	-0.001869	-0.823230	-0.638787
N283	N	0.248131	-0.573230	-0.388787
N284	N	0.498131	-0.323230	-0.138787
C285	C	-0.285321	-1.120687	-0.861490
C286	C	-0.035321	-0.870687	-0.611490
C287	C	0.214679	-0.620687	-0.361490
C288	C	0.464679	-0.370687	-0.111490
O289	O	-0.313761	-1.161058	-0.889733
O290	O	-0.063761	-0.911058	-0.639733
O291	O	0.186239	-0.661058	-0.389733
O292	O	0.436239	-0.411058	-0.139733
C293	C	-0.285332	-1.120679	-0.806886
C294	C	-0.035332	-0.870679	-0.556886
C295	C	0.214668	-0.620679	-0.306886
C296	C	0.464668	-0.370679	-0.056886
C297	C	-0.251890	-1.073218	-0.779579
C298	C	-0.001890	-0.823218	-0.529579
C299	C	0.248110	-0.573218	-0.279579
C300	C	0.498110	-0.323218	-0.029579
C301	C	-0.185002	-0.978306	-0.779565
C302	C	0.064998	-0.728306	-0.529565
C303	C	0.314998	-0.478306	-0.279565
C304	C	0.564998	-0.228306	-0.029565
C305	C	-0.185011	-0.978303	-0.724965
C306	C	0.064989	-0.728303	-0.474965
C307	C	0.314989	-0.478303	-0.224965
C308	C	0.564989	-0.228303	0.025035
C309	C	-0.218459	-1.025758	-0.697671
C310	C	0.031541	-0.775758	-0.447671
C311	C	0.281541	-0.525758	-0.197671
C312	C	0.531541	-0.275758	0.052329
C313	C	-0.251899	-1.073215	-0.724979
C314	C	-0.001899	-0.823215	-0.474979
C315	C	0.248101	-0.573215	-0.224979
C316	C	0.498101	-0.323215	0.025021
C317	C	-0.318787	-1.168131	-0.779590
C318	C	-0.068787	-0.918131	-0.529590
C319	C	0.181213	-0.668131	-0.279590
C320	C	0.431213	-0.418131	-0.029590
C321	C	-0.318796	-1.168119	-0.724983
C322	C	-0.068796	-0.918119	-0.474983
C323	C	0.181204	-0.668119	-0.224983
C324	C	0.431204	-0.418119	0.025017
C325	C	-0.285353	-1.120658	-0.697676
C326	C	-0.035353	-0.870658	-0.447676
C327	C	0.214647	-0.620658	-0.197676
C328	C	0.464647	-0.370658	0.052324
C329	C	-0.285356	-1.120667	-0.643085
C330	C	-0.035356	-0.870667	-0.393085
C331	C	0.214644	-0.620667	-0.143085
C332	C	0.464644	-0.370667	0.106915
N333	N	-0.251919	-1.073204	-0.615775
N334	N	-0.001919	-0.823204	-0.365775
N335	N	0.248081	-0.573204	-0.115775
N336	N	0.498081	-0.323204	0.134225
C337	C	-0.218471	-1.025749	-0.643068
C338	C	0.031529	-0.775749	-0.393068
C339	C	0.281529	-0.525749	-0.143068
C340	C	0.531529	-0.275749	0.106932
C341	C	-0.285294	-1.120700	-0.976160
C342	C	-0.035294	-0.870700	-0.726160
C343	C	0.214706	-0.620700	-0.476160
C344	C	0.464706	-0.370700	-0.226160
C345	C	-0.285280	-1.120713	-1.030763
C346	C	-0.035280	-0.870713	-0.780763
C347	C	0.214720	-0.620713	-0.530763
C348	C	0.464720	-0.370713	-0.280763
C349	C	-0.218392	-1.025792	-1.030746
C350	C	0.031608	-0.775792	-0.780746
C351	C	0.281608	-0.525792	-0.530746
C352	C	0.531608	-0.275792	-0.280746
C353	C	-0.218404	-1.025783	-0.976143
C354	C	0.031596	-0.775783	-0.726143
C355	C	0.281596	-0.525783	-0.476143
C356	C	0.531596	-0.275783	-0.226143
C357	C	-0.251857	-1.073237	-0.948850
C358	C	-0.001857	-0.823237	-0.698850
C359	C	0.248143	-0.573237	-0.448850
C360	C	0.498143	-0.323237	-0.198850
C361	C	-0.218492	-1.025747	-0.528403
C362	C	0.031508	-0.775747	-0.278403
C363	C	0.281508	-0.525747	-0.028403
C364	C	0.531508	-0.275747	0.221597
C365	C	-0.218502	-1.025751	-0.473798
C366	C	0.031498	-0.775751	-0.223798
C367	C	0.281498	-0.525751	0.026202
C368	C	0.531498	-0.275751	0.276202
C369	C	-0.285392	-1.120669	-0.473819
C370	C	-0.035392	-0.870669	-0.223819
C371	C	0.214608	-0.620669	0.026181
C372	C	0.464608	-0.370669	0.276181
C373	C	-0.285380	-1.120669	-0.528419
C374	C	-0.035380	-0.870669	-0.278419
C375	C	0.214620	-0.620669	-0.028419
C376	C	0.464620	-0.370669	0.221581
C377	C	-0.251928	-1.073202	-0.555710
C378	C	-0.001928	-0.823202	-0.305710
C379	C	0.248072	-0.573202	-0.055710
C380	C	0.498072	-0.323202	0.194290
O381	O	-0.313776	-1.161019	-0.614809
O382	O	-0.063776	-0.911019	-0.364809
O383	O	0.186224	-0.661019	-0.114809
O384	O	0.436224	-0.411019	0.135191
O385	O	-0.190041	-0.985378	-0.614818
O386	O	0.059959	-0.735378	-0.364818
O387	O	0.309959	-0.485378	-0.114818
O388	O	0.559959	-0.235378	0.135182
C389	C	-0.251971	-1.073132	-0.116175
C390	C	-0.001971	-0.823132	0.133825
C391	C	0.248029	-0.573132	0.383825
C392	C	0.498029	-0.323132	0.633825
C393	C	-0.251833	-1.073255	-0.058061
C394	C	-0.001833	-0.823255	0.191939
C395	C	0.248167	-0.573255	0.441939
C396	C	0.498167	-0.323255	0.691939
H397	H	-0.187450	-0.619853	-0.187627
H398	H	0.062550	-0.369853	0.062373
H399	H	0.312550	-0.119853	0.312373
H400	H	0.562550	0.130147	0.562373
H401	H	-0.163980	-0.527165	-0.275714
H402	H	0.086020	-0.277165	-0.025714
H403	H	0.336020	-0.027165	0.224286
H404	H	0.586020	0.222835	0.474286
H405	H	-0.312533	-1.159352	-0.953942
H406	H	-0.062533	-0.909352	-0.703942
H407	H	0.187467	-0.659352	-0.453942
H408	H	0.437467	-0.409352	-0.203942
H409	H	-0.275433	-0.527012	-0.163916
H410	H	-0.025433	-0.277012	0.086084
H411	H	0.224567	-0.027012	0.336084
H412	H	0.474567	0.222988	0.586084
H413	H	-0.228497	-0.620033	-0.340054
H414	H	0.021503	-0.370033	-0.090054
H415	H	0.271503	-0.120033	0.159946
H416	H	0.521503	0.129967	0.409946
H417	H	-0.191267	-0.987103	-0.451567
H418	H	0.058733	-0.737103	-0.201567
H419	H	0.308733	-0.487103	0.048433
H420	H	0.558733	-0.237103	0.298433
H421	H	-0.191252	-0.987096	-0.550617
H422	H	0.058748	-0.737096	-0.300617
H423	H	0.308748	-0.487096	-0.050617
H424	H	0.558748	-0.237096	0.199383
H425	H	-0.801204	-1.206963	-0.158042
H426	H	-0.551204	-0.956963	0.091958
H427	H	-0.301204	-0.706963	0.341958
H428	H	-0.051204	-0.456963	0.591958
H429	H	-0.340013	-0.619728	-0.228183
H430	H	-0.090013	-0.369728	0.021817
H431	H	0.159987	-0.119728	0.271817
H432	H	0.409987	0.130272	0.521817
H433	H	-0.316597	-0.527333	-0.316351
H434	H	-0.066597	-0.277333	-0.066351
H435	H	0.183403	-0.027333	0.183649
H436	H	0.433403	0.222667	0.433649
H437	H	-0.702156	-1.206908	-0.158028
H438	H	-0.452156	-0.956908	0.091972
H439	H	-0.202156	-0.706908	0.341972
H440	H	0.047844	-0.456908	0.591972
H441	H	-0.191157	-0.987151	-1.052978
H442	H	0.058843	-0.737151	-0.802978
H443	H	0.308843	-0.487151	-0.552978
H444	H	0.558843	-0.237151	-0.302978
H445	H	-0.157780	-0.939652	-0.702736
H446	H	0.092220	-0.689652	-0.452736
H447	H	0.342220	-0.439652	-0.202736
H448	H	0.592220	-0.189652	0.047264
H449	H	-0.450993	-1.159246	-0.191396
H450	H	-0.200993	-0.909246	0.058604
H451	H	0.049007	-0.659246	0.308604
H452	H	0.299007	-0.409246	0.558604
H453	H	-0.451035	-0.986813	-0.312597
H454	H	-0.201035	-0.736813	-0.062597
H455	H	0.048965	-0.486813	0.187403
H456	H	0.298965	-0.236813	0.437403
H457	H	-0.550044	-1.159315	-0.191412
H458	H	-0.300044	-0.909315	0.058588
H459	H	-0.050044	-0.659315	0.308588
H460	H	0.199956	-0.409315	0.558588
H461	H	-0.953340	-1.159514	-0.191453
H462	H	-0.703340	-0.909514	0.058547
H463	H	-0.453340	-0.659514	0.308547
H464	H	-0.203340	-0.409514	0.558547
H465	H	-1.052405	-1.159561	-0.191469
H466	H	-0.802405	-0.909561	0.058531
H467	H	-0.552405	-0.659561	0.308531
H468	H	-0.302405	-0.409561	0.558531
H469	H	-0.346020	-1.206779	-0.801814
H470	H	-0.096020	-0.956779	-0.551814
H471	H	0.153980	-0.706779	-0.301814
H472	H	0.403980	-0.456779	-0.051814
H473	H	-1.052438	-0.987116	-0.312662
H474	H	-0.802438	-0.737116	-0.062662
H475	H	-0.552438	-0.487116	0.187338
H476	H	-0.302438	-0.237116	0.437338
H477	H	-0.953388	-0.987074	-0.312660
H478	H	-0.703388	-0.737074	-0.062660
H479	H	-0.453388	-0.487074	0.187340
H480	H	-0.203388	-0.237074	0.437340
H481	H	-0.801266	-0.939486	-0.346053
H482	H	-0.551266	-0.689486	-0.096053
H483	H	-0.301266	-0.439486	0.153947
H484	H	-0.051266	-0.189486	0.403947
H485	H	-0.702216	-0.939449	-0.346046
H486	H	-0.452216	-0.689449	-0.096046
H487	H	-0.202216	-0.439449	0.153954
H488	H	0.047784	-0.189449	0.403954
H489	H	-0.550101	-0.986868	-0.312617
H490	H	-0.300101	-0.736868	-0.062617
H491	H	-0.050101	-0.486868	0.187383
H492	H	0.199899	-0.236868	0.437383
H493	H	-0.191171	-0.987137	-0.953913
H494	H	0.058829	-0.737137	-0.703913
H495	H	0.308829	-0.487137	-0.453913
H496	H	0.558829	-0.237137	-0.203913
H497	H	-0.157764	-0.939659	-0.801782
H498	H	0.092236	-0.689659	-0.551782
H499	H	0.342236	-0.439659	-0.301782
H500	H	0.592236	-0.189659	-0.051782
H501	H	-0.312507	-1.159368	-1.052991
H502	H	-0.062507	-0.909368	-0.802991
H503	H	0.187493	-0.659368	-0.552991
H504	H	0.437493	-0.409368	-0.302991
H505	H	-0.346035	-1.206767	-0.702764
H506	H	-0.096035	-0.956767	-0.452764
H507	H	0.153965	-0.706767	-0.202764
H508	H	0.403965	-0.456767	0.047236
H509	H	-0.312606	-1.159323	-0.550654
H510	H	-0.062606	-0.909323	-0.300654
H511	H	0.187394	-0.659323	-0.050654
H512	H	0.437394	-0.409323	0.199346
H513	H	-0.312623	-1.159308	-0.451587
H514	H	-0.062623	-0.909308	-0.201587
H515	H	0.187377	-0.659308	0.048413
H516	H	0.437377	-0.409308	0.298413
