data_functionalizedCrystal
_audit_creation_method	'MofGen! by Chris Wilmer'
_symmetry_space_group_name_H-M	'P1'
_symmetry_Int_Tables_number	1
_symmetry_cell_setting	triclinic
loop_
_symmetry_equiv_pos_as_xyz
  x,y,z
_cell_length_a	10.540539
_cell_length_b	15.021413
_cell_length_c	10.540539
_cell_angle_alpha	90.006194
_cell_angle_beta	95.474508
_cell_angle_gamma	90.005335
loop_
_atom_site_label
_atom_site_type_symbol
_atom_site_fract_x
_atom_site_fract_y
_atom_site_fract_z
O1	O	1.685894	0.073986	-0.178884
O2	O	1.316481	0.073996	-0.195739
O3	O	1.509616	0.073989	-0.002605
O4	O	1.492760	0.073992	-0.372018
O5	O	1.509585	-0.074075	-0.002633
O6	O	1.316450	-0.074068	-0.195767
O7	O	1.685863	-0.074079	-0.178911
Zn8	Zn	1.501152	-0.097582	-0.187343
Zn9	Zn	1.501193	0.097499	-0.187307
O10	O	1.492729	-0.074072	-0.372046
C11	C	1.269163	-0.000035	-0.194489
C12	C	1.128215	-0.000030	-0.190707
N13	N	1.501134	-0.230719	-0.187368
C14	C	0.944788	-0.000377	-0.045790
C15	C	1.091406	-0.000034	-0.049624
C16	C	1.066560	0.084519	-0.258587
C17	C	0.920015	0.084580	-0.253772
C18	C	0.919492	-0.083796	-0.256673
C19	C	1.066474	-0.084905	-0.257973
C20	C	1.411814	-0.470400	-0.276630
C21	C	1.526746	-0.529737	-0.302309
C22	C	1.501166	-0.412326	-0.187336
C23	C	1.386265	-0.529730	-0.161686
C24	C	1.501187	-0.587750	-0.187309
C25	C	1.616157	-0.470358	-0.213072
C26	C	1.475599	-0.470345	-0.072399
C27	C	1.590614	-0.529656	-0.098030
C28	C	1.501152	-0.311269	-0.187355
C29	C	1.501214	-0.688806	-0.187289
C30	C	1.733182	-0.000046	-0.180161
C31	C	1.874130	-0.000044	-0.183943
C32	C	1.508336	-0.000041	0.044684
C33	C	1.504554	-0.000036	0.185632
N34	N	1.501221	0.230637	-0.187273
C35	C	1.494008	-0.000040	-0.419335
C36	C	1.497790	-0.000039	-0.560283
C37	C	1.359637	0.000300	0.369059
C38	C	1.363471	-0.000033	0.222441
C39	C	1.572432	-0.084590	0.247274
C40	C	1.567617	-0.084661	0.393819
C41	C	1.570522	0.083716	0.394368
C42	C	1.571821	0.084833	0.247387
H43	H	1.134007	-0.060643	0.003788
H44	H	1.310060	0.060579	0.179849
H45	H	1.304120	-0.059992	0.399255
C46	C	1.555978	-0.564993	-0.433592
H47	H	1.492407	-0.544712	-0.496955
H48	H	1.636995	-0.543795	-0.452426
H49	H	1.556535	-0.628230	-0.432393
C50	C	1.692808	-0.564595	0.003998
H51	H	1.774352	-0.544155	-0.014426
H52	H	1.675333	-0.543360	0.085421
H53	H	1.691801	-0.627834	0.003919
C54	C	1.309844	-0.435238	-0.378714
H55	H	1.249526	-0.400441	-0.339089
H56	H	1.349363	-0.399574	-0.438117
H57	H	1.267721	-0.484014	-0.421902
H58	H	1.309660	-0.060743	0.180674
H59	H	1.713357	-0.444387	-0.234872
C60	C	0.855208	0.089789	-0.390832
H61	H	0.918476	0.091864	-0.449205
H62	H	0.803025	0.038807	-0.407893
H63	H	0.804158	0.141932	-0.399957
H64	H	1.524873	0.147802	0.425933
C65	C	0.904004	0.081071	0.029214
H66	H	0.947131	0.080357	0.112573
H67	H	0.925103	0.134020	-0.013343
H68	H	0.814610	0.079075	0.034703
H69	H	1.088913	0.087665	-0.362194
H70	H	1.453920	-0.444238	0.024758
H71	H	1.517426	-0.147864	0.422006
C72	C	1.254988	-0.564953	-0.132377
H73	H	1.191601	-0.544651	-0.195909
H74	H	1.256150	-0.628185	-0.131801
H75	H	1.236212	-0.543731	-0.051346
H76	H	0.891818	0.147781	-0.203579
H77	H	1.303919	0.060935	0.397671
C78	C	0.906149	-0.082287	0.029493
H79	H	0.846571	-0.117015	-0.022648
H80	H	0.979568	-0.117098	0.054340
H81	H	0.868437	-0.063277	0.103227
C82	C	1.704678	-0.089864	0.458626
H83	H	1.763052	-0.091933	0.395357
H84	H	1.721729	-0.038882	0.510811
H85	H	1.713814	-0.142007	0.509672
C86	C	1.712392	-0.088851	0.217071
H87	H	1.730715	-0.038984	0.166473
H88	H	1.766732	-0.088070	0.294330
H89	H	1.726068	-0.142126	0.171749
C90	C	1.147831	0.081989	0.023046
H91	H	1.237736	0.082476	0.020956
H92	H	1.112583	0.134578	-0.015995
H93	H	1.127998	0.079508	0.109022
H94	H	1.674683	0.089936	0.223166
C95	C	1.708178	0.084489	0.458174
H96	H	1.721315	0.034049	0.512195
H97	H	1.766102	0.082633	0.394489
H98	H	1.722028	0.137258	0.507232
C99	C	1.508693	-0.169591	0.189733
H100	H	1.440726	-0.153732	0.128160
H101	H	1.569663	-0.203804	0.150154
H102	H	1.476335	-0.203669	0.255397
C103	C	1.504829	0.169339	0.192099
H104	H	1.436155	0.152976	0.131627
H105	H	1.473053	0.202539	0.258947
H106	H	1.563953	0.204627	0.151584
C107	C	1.099179	-0.091804	-0.396933
H108	H	1.060665	-0.143652	-0.435181
H109	H	1.068046	-0.040676	-0.442929
H110	H	1.189011	-0.095351	-0.398418
H111	H	1.109161	0.147441	-0.211411
C112	C	0.876861	-0.170374	-0.195014
H113	H	0.830997	-0.156250	-0.124328
H114	H	0.823630	-0.203384	-0.255790
H115	H	0.949666	-0.204892	-0.166854
H116	H	0.872265	-0.084367	-0.358577
C117	C	1.121780	-0.169406	-0.190984
H118	H	1.182251	-0.153039	-0.122312
H119	H	1.054941	-0.202614	-0.159206
H120	H	1.162300	-0.204689	-0.250111
