data_functionalizedCrystal
_audit_creation_method	'MofGen! by Chris Wilmer'
_symmetry_space_group_name_H-M	'P1'
_symmetry_Int_Tables_number	1
_symmetry_cell_setting	triclinic
loop_
_symmetry_equiv_pos_as_xyz
  x,y,z
_cell_length_a	14.519731
_cell_length_b	14.519731
_cell_length_c	9.130313
_cell_angle_alpha	90.005202
_cell_angle_beta	90.002047
_cell_angle_gamma	83.688853
loop_
_atom_site_label
_atom_site_type_symbol
_atom_site_fract_x
_atom_site_fract_y
_atom_site_fract_z
O1	O	1.223861	0.120983	0.121806
O2	O	0.955388	0.135199	0.121808
O3	O	1.096733	-0.006145	0.121794
O4	O	1.082517	0.262328	0.121821
O5	O	1.096727	-0.006149	-0.121805
O6	O	0.955383	0.135195	-0.121790
O7	O	1.223856	0.120980	-0.121793
Cu8	Cu	1.089619	0.128087	-0.144034
Cu9	Cu	1.089625	0.128092	0.144050
O10	O	1.082511	0.262324	-0.121778
C11	C	0.921026	0.134531	0.000009
C12	C	0.818645	0.132535	0.000010
C13	C	0.735501	0.130913	0.000016
C14	C	0.631192	0.128887	0.000016
C15	C	0.548053	0.127278	0.000016
C16	C	0.443738	0.125252	0.000019
C17	C	1.096064	-0.040507	-0.000006
C18	C	1.094068	-0.142887	-0.000007
C19	C	1.092446	-0.226031	-0.000003
C20	C	1.090419	-0.330340	0.000008
C21	C	1.088811	-0.413479	0.000017
C22	C	1.086785	-0.517795	0.000026
C23	C	1.258218	0.121648	0.000009
C24	C	1.360598	0.123644	0.000018
C25	C	1.083180	0.296685	0.000025
C26	C	1.085176	0.399066	0.000035
N27	N	1.089621	0.128083	-0.346657
C28	C	1.033604	0.072018	-0.423338
C29	C	1.033606	0.072023	-0.576675
C30	C	1.145650	0.184159	-0.576636
C31	C	1.145642	0.184159	-0.423302
C32	C	0.968919	0.007274	-0.423361
C33	C	0.968921	0.007279	-0.576698
N34	N	1.089630	0.128088	0.346672
H35	H	1.191259	0.229815	-0.639059
H36	H	0.998433	-0.062369	-0.375807
O37	O	0.996467	-0.079685	-0.626455
C38	C	0.925374	-0.110940	-0.712246
H39	H	0.856087	-0.071313	-0.680560
H40	H	0.922765	-0.188138	-0.692537
H41	H	0.939781	-0.098642	-0.833012
O42	O	1.200137	0.238651	-0.349041
C43	C	1.249565	0.288159	-0.449575
H44	H	1.254893	0.249993	-0.558881
H45	H	1.322085	0.294058	-0.405258
H46	H	1.211686	0.360457	-0.465879
O47	O	0.881972	0.035085	-0.373793
C48	C	0.853377	0.125220	-0.425409
H49	H	0.916880	0.161680	-0.452636
H50	H	0.810781	0.165969	-0.337274
H51	H	0.809346	0.120899	-0.528052
O52	O	0.885752	0.042291	-0.633377
C53	C	0.816436	-0.011551	-0.585544
H54	H	0.849506	-0.083682	-0.554062
H55	H	0.764308	-0.017409	-0.677534
H56	H	0.779441	0.022900	-0.486361
