data_functionalizedCrystal
_audit_creation_method	'MofGen! by Chris Wilmer'
_symmetry_space_group_name_H-M	'P1'
_symmetry_Int_Tables_number	1
_symmetry_cell_setting	triclinic
loop_
_symmetry_equiv_pos_as_xyz
  x,y,z
_cell_length_a	21.295419
_cell_length_b	21.295412
_cell_length_c	21.295417
_cell_angle_alpha	89.969332
_cell_angle_beta	90.045308
_cell_angle_gamma	89.976510
loop_
_atom_site_label
_atom_site_type_symbol
_atom_site_fract_x
_atom_site_fract_y
_atom_site_fract_z
Zn1	Zn	0.962349	-0.355911	-0.250376
Zn2	Zn	1.295682	-0.022578	0.082957
Zn3	Zn	1.629016	0.310756	0.416290
Zn4	Zn	0.962253	-0.250637	-0.355645
Zn5	Zn	1.295587	0.082697	-0.022311
Zn6	Zn	1.628920	0.416030	0.311022
Zn7	Zn	0.857074	-0.250656	-0.250421
Zn8	Zn	1.190407	0.082677	0.082913
Zn9	Zn	1.523741	0.416010	0.416246
Zn10	Zn	0.857042	-0.355868	-0.355639
Zn11	Zn	1.190375	-0.022535	-0.022305
Zn12	Zn	1.523708	0.310798	0.311028
O13	O	0.909680	-0.303268	-0.303020
O14	O	1.243013	0.030065	0.030313
O15	O	1.576346	0.363399	0.363647
O16	O	1.050426	-0.341956	-0.264324
O17	O	1.383759	-0.008623	0.069009
O18	O	1.717092	0.324711	0.402342
O19	O	0.948275	-0.162550	-0.341708
O20	O	1.281608	0.170784	-0.008374
O21	O	1.614941	0.504117	0.324959
O22	O	0.871093	-0.264645	-0.162325
O23	O	1.204426	0.068689	0.171008
O24	O	1.537759	0.402022	0.504341
O25	O	1.050355	-0.264611	-0.341665
O26	O	1.383689	0.068722	-0.008331
O27	O	1.717022	0.402056	0.325002
O28	O	0.948438	-0.341975	-0.162293
O29	O	1.281771	-0.008642	0.171041
O30	O	1.615104	0.324692	0.504374
O31	O	0.871000	-0.162564	-0.264400
O32	O	1.204333	0.170769	0.068934
O33	O	1.537667	0.504102	0.402267
O34	O	0.768980	-0.264603	-0.264394
O35	O	1.102314	0.068730	0.068939
O36	O	1.435647	0.402064	0.402273
O37	O	0.871037	-0.443963	-0.341654
O38	O	1.204371	-0.110630	-0.008321
O39	O	1.537704	0.222703	0.325012
O40	O	0.768957	-0.341902	-0.341697
O41	O	1.102290	-0.008569	-0.008364
O42	O	1.435623	0.324765	0.324969
O43	O	0.948406	-0.443995	-0.264319
O44	O	1.281740	-0.110662	0.069015
O45	O	1.615073	0.222672	0.402348
O46	O	0.948243	-0.264570	-0.443733
O47	O	1.281576	0.068764	-0.110400
O48	O	1.614910	0.402097	0.222933
O49	O	0.870945	-0.341883	-0.443729
O50	O	1.204278	-0.008550	-0.110396
O51	O	1.537611	0.324784	0.222938
C52	C	0.746128	-0.303250	-0.303050
C53	C	1.079461	0.030083	0.030283
C54	C	1.412795	0.363416	0.363616
C55	C	0.676160	-0.303258	-0.303078
C56	C	1.009493	0.030076	0.030255
C57	C	1.342826	0.363409	0.363588
C58	C	0.643352	-0.343593	-0.262873
C59	C	0.976686	-0.010260	0.070460
C60	C	1.310019	0.323073	0.403794
C61	C	0.577610	-0.343596	-0.262856
C62	C	0.910943	-0.010263	0.070477
C63	C	1.244276	0.323071	0.403810
C64	C	0.544677	-0.303269	-0.303056
C65	C	0.878011	0.030064	0.030278
C66	C	1.211344	0.363397	0.363611
C67	C	0.577493	-0.262926	-0.343264
C68	C	0.910826	0.070408	-0.009931
C69	C	1.244160	0.403741	0.323403
C70	C	0.643234	-0.262920	-0.343275
C71	C	0.976567	0.070413	-0.009942
C72	C	1.309901	0.403747	0.323392
N73	N	0.441402	-0.298349	-0.358134
N74	N	0.774735	0.034984	-0.024800
N75	N	1.108069	0.368317	0.308533
N76	N	0.378951	-0.298359	-0.358121
N77	N	0.712284	0.034975	-0.024788
N78	N	1.045617	0.368308	0.308545
C79	C	0.346603	-0.303283	-0.303023
C80	C	0.679936	0.030050	0.030310
C81	C	1.013269	0.363384	0.363643
N82	N	0.379065	-0.308210	-0.247937
N83	N	0.712399	0.025123	0.085396
N84	N	1.045732	0.358456	0.418730
N85	N	0.441523	-0.308205	-0.247950
N86	N	0.774856	0.025129	0.085383
N87	N	1.108189	0.358462	0.418717
C88	C	0.473392	-0.303271	-0.303048
C89	C	0.806725	0.030063	0.030286
C90	C	1.140059	0.363396	0.363619
C91	C	0.242510	-0.343624	-0.262796
C92	C	0.575843	-0.010290	0.070537
C93	C	0.909176	0.323043	0.403870
C94	C	0.176766	-0.343622	-0.262778
C95	C	0.510099	-0.010288	0.070555
C96	C	0.843432	0.323045	0.403888
C97	C	0.176650	-0.262955	-0.343192
C98	C	0.509984	0.070379	-0.009858
C99	C	0.843317	0.403712	0.323475
C100	C	0.242393	-0.262953	-0.343204
C101	C	0.575726	0.070380	-0.009871
C102	C	0.909059	0.403713	0.323463
C103	C	0.275318	-0.303291	-0.303007
C104	C	0.608652	0.030042	0.030326
C105	C	0.941985	0.363375	0.363660
C106	C	0.909729	-0.467458	-0.302981
C107	C	1.243062	-0.134125	0.030352
C108	C	1.576395	0.199208	0.363686
C109	C	0.909750	-0.537427	-0.302964
C110	C	1.243083	-0.204093	0.030369
C111	C	1.576416	0.129240	0.363702
C112	C	0.869524	-0.570291	-0.262706
C113	C	1.202857	-0.236957	0.070628
C114	C	1.536190	0.096376	0.403961
C115	C	0.869521	-0.636033	-0.262694
C116	C	1.202855	-0.302700	0.070640
C117	C	1.536188	0.030633	0.403973
C118	C	0.909757	-0.668909	-0.302934
C119	C	1.243090	-0.335576	0.030399
C120	C	1.576423	-0.002242	0.363732
C121	C	0.949986	-0.636037	-0.343201
C122	C	1.283319	-0.302704	-0.009867
C123	C	1.616652	0.030630	0.323466
C124	C	0.949982	-0.570296	-0.343216
C125	C	1.283316	-0.236962	-0.009882
C126	C	1.616649	0.096371	0.323451
N127	N	0.964861	-0.772147	-0.307728
N128	N	1.298194	-0.438814	0.025606
N129	N	1.631528	-0.105481	0.358939
N130	N	0.964862	-0.834599	-0.307710
N131	N	1.298196	-0.501265	0.025624
N132	N	1.631529	-0.167932	0.358957
C133	C	0.909768	-0.866984	-0.302892
C134	C	1.243102	-0.533651	0.030441
C135	C	1.576435	-0.200317	0.363774
N136	N	0.854671	-0.834558	-0.298081
N137	N	1.188005	-0.501225	0.035252
N138	N	1.521338	-0.167892	0.368585
N139	N	0.854671	-0.772101	-0.298096
N140	N	1.188004	-0.438768	0.035237
N141	N	1.521337	-0.105434	0.368571
C142	C	0.909764	-0.740194	-0.302923
C143	C	1.243098	-0.406861	0.030411
C144	C	1.576431	-0.073528	0.363744
C145	C	0.869536	-0.971134	-0.262619
C146	C	1.202869	-0.637800	0.070715
C147	C	1.536203	-0.304467	0.404048
C148	C	0.869533	-1.036878	-0.262611
C149	C	1.202866	-0.703544	0.070722
C150	C	1.536200	-0.370211	0.404055
C151	C	0.950003	-1.036880	-0.343115
C152	C	1.283336	-0.703546	-0.009782
C153	C	1.616669	-0.370213	0.323552
C154	C	0.950000	-0.971137	-0.343126
C155	C	1.283334	-0.637804	-0.009792
C156	C	1.616667	-0.304471	0.323541
C157	C	0.909768	-0.938268	-0.302874
C158	C	1.243101	-0.604935	0.030459
C159	C	1.576435	-0.271602	0.363793
C160	C	1.073870	-0.303286	-0.302990
C161	C	1.407203	0.030047	0.030343
C162	C	1.740536	0.363381	0.363676
C163	C	1.143838	-0.303294	-0.302977
C164	C	1.477171	0.030039	0.030356
C165	C	1.810505	0.363373	0.363689
C166	C	0.909597	-0.303233	-0.466572
C167	C	1.242930	0.030100	-0.133238
C168	C	1.576264	0.363433	0.200095
C169	C	0.909619	-0.303239	-0.536540
C170	C	1.242953	0.030094	-0.203206
C171	C	1.576286	0.363427	0.130127
C172	C	0.909667	-0.139716	-0.303014
C173	C	1.243000	0.193617	0.030320
C174	C	1.576333	0.526950	0.363653
C175	C	0.909768	-0.069749	-0.302853
C176	C	1.243101	0.263585	0.030480
C177	C	1.576434	0.596918	0.363814
C178	C	0.949904	-0.263024	-0.569388
C179	C	1.283238	0.070310	-0.236054
C180	C	1.616571	0.403643	0.097279
C181	C	0.949934	-0.263038	-0.635130
C182	C	1.283267	0.070296	-0.301797
C183	C	1.616601	0.403629	0.031536
C184	C	0.909667	-0.303261	-0.668022
C185	C	1.243000	0.030072	-0.334689
C186	C	1.576334	0.363406	-0.001356
C187	C	0.869379	-0.343485	-0.635166
C188	C	1.202712	-0.010151	-0.301833
C189	C	1.536046	0.323182	0.031500
C190	C	0.869355	-0.343474	-0.569425
C191	C	1.202689	-0.010140	-0.236092
C192	C	1.536022	0.323193	0.097242
N193	N	0.854600	-0.308054	-0.771302
N194	N	1.187933	0.025279	-0.437969
N195	N	1.521267	0.358613	-0.104636
N196	N	0.854624	-0.308061	-0.833754
N197	N	1.187958	0.025273	-0.500420
N198	N	1.521291	0.358606	-0.167087
C199	C	0.909738	-0.303297	-0.866097
C200	C	1.243071	0.030036	-0.532764
C201	C	1.576404	0.363370	-0.199430
N202	N	0.964827	-0.298514	-0.833629
N203	N	1.298160	0.034819	-0.500296
N204	N	1.631493	0.368152	-0.166963
N205	N	0.964801	-0.298505	-0.771172
N206	N	1.298135	0.034829	-0.437839
N207	N	1.631468	0.368162	-0.104506
C208	C	0.909689	-0.303278	-0.739308
C209	C	1.243022	0.030056	-0.405974
C210	C	1.576355	0.363389	-0.072641
C211	C	0.950058	-0.263095	-0.970230
C212	C	1.283391	0.070239	-0.636897
C213	C	1.616725	0.403572	-0.303564
C214	C	0.950089	-0.263113	-1.035974
C215	C	1.283422	0.070220	-0.702641
C216	C	1.616755	0.403554	-0.369308
C217	C	0.869528	-0.343557	-1.036009
C218	C	1.202862	-0.010223	-0.702676
C219	C	1.536195	0.323110	-0.369342
C220	C	0.869503	-0.343541	-0.970267
C221	C	1.202837	-0.010208	-0.636933
C222	C	1.536170	0.323125	-0.303600
C223	C	0.909767	-0.303307	-0.937381
C224	C	1.243101	0.030026	-0.604048
C225	C	1.576434	0.363360	-0.270715
C226	C	0.909780	-0.303317	-0.138830
C227	C	1.243113	0.030017	0.194504
C228	C	1.576446	0.363350	0.527837
C229	C	0.909822	-0.303338	-0.068862
C230	C	1.243155	0.029996	0.264472
C231	C	1.576489	0.363329	0.597805
H232	H	0.669946	-0.230073	-0.376016
H233	H	1.003279	0.103261	-0.042683
H234	H	1.336612	0.436594	0.290650
H235	H	0.982759	-0.944379	-0.375907
H236	H	1.316092	-0.611046	-0.042574
H237	H	1.649425	-0.277712	0.290759
H238	H	0.982745	-0.662809	-0.375965
H239	H	1.316079	-0.329475	-0.042632
H240	H	1.649412	0.003858	0.290702
C241	C	0.278730	-0.387987	-0.218578
C242	C	0.612064	-0.054654	0.114756
C243	C	0.945397	0.278680	0.448089
H244	H	0.249773	-0.412004	-0.194623
H245	H	0.583106	-0.078671	0.138710
H246	H	0.916440	0.254662	0.472044
H247	H	0.304365	-0.415369	-0.242698
H248	H	0.637698	-0.082036	0.090635
H249	H	0.971031	0.251297	0.423969
H250	H	0.304392	-0.363952	-0.191122
H251	H	0.637725	-0.030619	0.142212
H252	H	0.971058	0.302715	0.475545
H253	H	0.269105	-0.230110	-0.375946
H254	H	0.602438	0.103223	-0.042613
H255	H	0.935772	0.436556	0.290721
C256	C	0.825039	-0.387710	-0.533288
C257	C	1.158372	-0.054376	-0.199955
C258	C	1.491706	0.278957	0.133379
H259	H	0.830794	-0.381944	-0.489425
H260	H	1.164127	-0.048611	-0.156091
H261	H	1.497461	0.284723	0.177242
H262	H	0.782752	-0.378463	-0.544118
H263	H	1.116085	-0.045130	-0.210785
H264	H	1.449419	0.288203	0.122549
H265	H	0.834240	-0.430018	-0.544019
H266	H	1.167573	-0.096684	-0.210686
H267	H	1.500907	0.236649	0.122647
C268	C	0.825267	-0.534138	-0.218434
C269	C	1.158600	-0.200805	0.114900
C270	C	1.491934	0.132528	0.448233
H271	H	0.801306	-0.563131	-0.194458
H272	H	1.134639	-0.229797	0.138875
H273	H	1.467973	0.103536	0.472208
H274	H	0.849363	-0.508509	-0.191009
H275	H	1.182696	-0.175176	0.142324
H276	H	1.516029	0.158158	0.475658
H277	H	0.797818	-0.508477	-0.242526
H278	H	1.131151	-0.175143	0.090807
H279	H	1.464485	0.158190	0.424140
C280	C	0.140677	-0.387993	-0.218550
C281	C	0.474011	-0.054660	0.114783
C282	C	0.807344	0.278673	0.448117
H283	H	0.169705	-0.412018	-0.194618
H284	H	0.503038	-0.078685	0.138715
H285	H	0.836371	0.254648	0.472049
H286	H	0.115047	-0.363969	-0.191083
H287	H	0.448380	-0.030636	0.142250
H288	H	0.781714	0.302697	0.475584
H289	H	0.115021	-0.415378	-0.242668
H290	H	0.448355	-0.082044	0.090665
H291	H	0.781688	0.251289	0.423998
H292	H	0.982742	-0.543538	-0.375999
H293	H	1.316075	-0.210205	-0.042665
H294	H	1.649409	0.123129	0.290668
H295	H	0.982691	-0.230264	-0.542615
H296	H	1.316025	0.103069	-0.209281
H297	H	1.649358	0.436403	0.124052
C298	C	0.825277	-0.672195	-0.218404
C299	C	1.158610	-0.338861	0.114929
C300	C	1.491943	-0.005528	0.448263
H301	H	0.831040	-0.716055	-0.224163
H302	H	1.164374	-0.382722	0.109171
H303	H	1.497707	-0.049389	0.442504
H304	H	0.834520	-0.661436	-0.176111
H305	H	1.167853	-0.328103	0.157222
H306	H	1.501186	0.005231	0.490555
H307	H	0.782970	-0.661407	-0.227624
H308	H	1.116304	-0.328073	0.105709
H309	H	1.449637	0.005260	0.439043
C310	C	0.140433	-0.218599	-0.387413
C311	C	0.473766	0.114734	-0.054080
C312	C	0.807099	0.448068	0.279253
H313	H	0.096580	-0.224382	-0.381652
H314	H	0.429913	0.108951	-0.048319
H315	H	0.763247	0.442285	0.285014
H316	H	0.151194	-0.176319	-0.378152
H317	H	0.484527	0.157014	-0.044818
H318	H	0.817861	0.490348	0.288515
H319	H	0.151171	-0.227741	-0.429724
H320	H	0.484505	0.105593	-0.096390
H321	H	0.817838	0.438926	0.236943
C322	C	0.825269	-0.934975	-0.218360
C323	C	1.158602	-0.601642	0.114974
C324	C	1.491936	-0.268308	0.448307
H325	H	0.801301	-0.963966	-0.194390
H326	H	1.134634	-0.630633	0.138944
H327	H	1.467968	-0.297300	0.472277
H328	H	0.849355	-0.909343	-0.190929
H329	H	1.182689	-0.576010	0.142404
H330	H	1.516022	-0.242677	0.475738
H331	H	0.797827	-0.909316	-0.242463
H332	H	1.131161	-0.575983	0.090870
H333	H	1.464494	-0.242649	0.424204
C334	C	0.994396	-0.218867	-1.072110
C335	C	1.327729	0.114466	-0.738777
C336	C	1.661063	0.447800	-0.405444
H337	H	0.988648	-0.224638	-1.115974
H338	H	1.321981	0.108696	-0.782640
H339	H	1.655314	0.442029	-0.449307
H340	H	0.985190	-0.176565	-1.061375
H341	H	1.318524	0.156769	-0.728041
H342	H	1.651857	0.490102	-0.394708
H343	H	1.036688	-0.228109	-1.061283
H344	H	1.370021	0.105224	-0.727950
H345	H	1.703355	0.438557	-0.394616
C346	C	0.541511	-0.387968	-0.218632
C347	C	0.874844	-0.054634	0.114701
C348	C	1.208177	0.278699	0.448035
H349	H	0.497642	-0.382190	-0.224381
H350	H	0.830975	-0.048857	0.108952
H351	H	1.164309	0.284476	0.442286
H352	H	0.552296	-0.430244	-0.227905
H353	H	0.885630	-0.096911	0.105429
H354	H	1.218963	0.236423	0.438762
H355	H	0.552318	-0.378833	-0.176323
H356	H	0.885652	-0.045499	0.157011
H357	H	1.218985	0.287834	0.490344
H358	H	0.836595	-0.376236	-0.661951
H359	H	1.169928	-0.042903	-0.328618
H360	H	1.503261	0.290431	0.004715
H361	H	0.836771	-1.063635	-0.229830
H362	H	1.170105	-0.730301	0.103503
H363	H	1.503438	-0.396968	0.436837
C364	C	0.994262	-1.073035	-0.387378
C365	C	1.327595	-0.739702	-0.054045
C366	C	1.660928	-0.406368	0.279289
H367	H	0.988506	-1.116896	-0.381601
H368	H	1.321839	-0.783562	-0.048268
H369	H	1.655172	-0.450229	0.285065
H370	H	0.985025	-1.062244	-0.429677
H371	H	1.318359	-0.728911	-0.096344
H372	H	1.651692	-0.395578	0.236989
H373	H	1.036564	-1.062279	-0.378154
H374	H	1.369897	-0.728946	-0.044821
H375	H	1.703231	-0.395613	0.288512
C376	C	0.994352	-0.218846	-0.934054
C377	C	1.327686	0.114487	-0.600721
C378	C	1.661019	0.447820	-0.267387
H379	H	1.018357	-0.194903	-0.963036
H380	H	1.351690	0.138430	-0.629702
H381	H	1.685024	0.471763	-0.296369
H382	H	0.970279	-0.191390	-0.908456
H383	H	1.303612	0.141943	-0.575123
H384	H	1.636945	0.475276	-0.241790
H385	H	1.021759	-0.242952	-0.908360
H386	H	1.355092	0.090381	-0.575026
H387	H	1.688425	0.423714	-0.241693
C388	C	0.825236	-0.387805	-1.072179
C389	C	1.158569	-0.054472	-0.738846
C390	C	1.491903	0.278862	-0.405513
H391	H	0.801241	-0.411757	-1.043197
H392	H	1.134574	-0.078424	-0.709864
H393	H	1.467908	0.254910	-0.376531
H394	H	0.797830	-0.363707	-1.097876
H395	H	1.131164	-0.030373	-0.764543
H396	H	1.464497	0.302960	-0.431209
H397	H	0.849317	-0.415262	-1.097775
H398	H	1.182651	-0.081929	-0.764441
H399	H	1.515984	0.251405	-0.431108
H400	H	0.836697	-0.376286	-0.943520
H401	H	1.170030	-0.042953	-0.610187
H402	H	1.503363	0.290380	-0.276853
H403	H	0.670156	-0.376439	-0.230141
H404	H	1.003490	-0.043106	0.103192
H405	H	1.336823	0.290228	0.436525
C406	C	0.541270	-0.218570	-0.387485
C407	C	0.874603	0.114763	-0.054151
C408	C	1.207937	0.448096	0.279182
H409	H	0.497418	-0.224355	-0.381725
H410	H	0.830751	0.108978	-0.048392
H411	H	1.164084	0.442311	0.284942
H412	H	0.552029	-0.176291	-0.378220
H413	H	0.885363	0.157043	-0.044887
H414	H	1.218696	0.490376	0.288446
H415	H	0.552010	-0.227709	-0.429795
H416	H	0.885344	0.105624	-0.096462
H417	H	1.218677	0.438958	0.236871
C418	C	0.994244	-0.218794	-0.671271
C419	C	1.327578	0.114540	-0.337938
C420	C	1.660911	0.447873	-0.004604
H421	H	1.018217	-0.194828	-0.642270
H422	H	1.351550	0.138506	-0.308936
H423	H	1.684884	0.471839	0.024397
H424	H	1.021670	-0.242898	-0.696872
H425	H	1.355004	0.090436	-0.363538
H426	H	1.688337	0.423769	-0.030205
H427	H	0.970176	-0.191350	-0.696960
H428	H	1.303509	0.141984	-0.363626
H429	H	1.636843	0.475317	-0.030293
