data_functionalizedCrystal
_audit_creation_method	'MofGen! by Chris Wilmer'
_symmetry_space_group_name_H-M	'P1'
_symmetry_Int_Tables_number	1
_symmetry_cell_setting	triclinic
loop_
_symmetry_equiv_pos_as_xyz
  x,y,z
_cell_length_a	16.959455
_cell_length_b	16.959454
_cell_length_c	11.169409
_cell_angle_alpha	89.967114
_cell_angle_beta	89.971161
_cell_angle_gamma	90.017095
loop_
_atom_site_label
_atom_site_type_symbol
_atom_site_fract_x
_atom_site_fract_y
_atom_site_fract_z
Zn1	Zn	1.208450	-0.314681	-0.678803
Zn2	Zn	1.208353	-0.446887	-0.478117
Zn3	Zn	1.076259	-0.314720	-0.478108
Zn4	Zn	1.076243	-0.446814	-0.678733
O5	O	1.142326	-0.380776	-0.578440
O6	O	1.319048	-0.332232	-0.652214
O7	O	1.190796	-0.429402	-0.310166
O8	O	1.093841	-0.204104	-0.504756
O9	O	1.318977	-0.429364	-0.504772
O10	O	1.190962	-0.204075	-0.652205
O11	O	1.093747	-0.332299	-0.310159
O12	O	0.965646	-0.332228	-0.504688
O13	O	1.093815	-0.429239	-0.846692
O14	O	0.965634	-0.429277	-0.652087
O15	O	1.190946	-0.332162	-0.846743
O16	O	1.190781	-0.557489	-0.504704
O17	O	1.093720	-0.557435	-0.652096
C18	C	0.936960	-0.380750	-0.578380
C19	C	0.849103	-0.380758	-0.578382
C20	C	0.477580	-0.431302	-0.501628
C21	C	0.477675	-0.330315	-0.655399
C22	C	0.560221	-0.330302	-0.655370
C23	C	0.601450	-0.380790	-0.578470
C24	C	0.560133	-0.431292	-0.501599
C25	C	0.601544	-0.279807	-0.732248
C26	C	0.684095	-0.279792	-0.732223
C27	C	0.725326	-0.330278	-0.655316
C28	C	0.684004	-0.380781	-0.578441
C29	C	0.725233	-0.431269	-0.501541
C30	C	0.683912	-0.481769	-0.424659
C31	C	0.601364	-0.481777	-0.424692
C32	C	0.807874	-0.330269	-0.655282
C33	C	0.807786	-0.431259	-0.501512
C34	C	1.142260	-0.586142	-0.578420
C35	C	1.142304	-0.673998	-0.578451
C36	C	1.091860	-1.045476	-0.655179
C37	C	1.193012	-1.045472	-0.501824
C38	C	1.192985	-0.962926	-0.501813
C39	C	1.142393	-0.921651	-0.578485
C40	C	1.091829	-0.962922	-0.655168
C41	C	1.243542	-0.921649	-0.425123
C42	C	1.243516	-0.839098	-0.425108
C43	C	1.192928	-0.797822	-0.501787
C44	C	1.142362	-0.839098	-0.578474
C45	C	1.091771	-0.797823	-0.655145
C46	C	1.041209	-0.839098	-0.731839
C47	C	1.041241	-0.921646	-0.731847
C48	C	1.192895	-0.715273	-0.501779
C49	C	1.091740	-0.715270	-0.655134
C50	C	1.348494	-0.380802	-0.578502
C51	C	1.436351	-0.380813	-0.578528
C52	C	1.142389	-0.380688	-0.891483
C53	C	1.142416	-0.380651	-1.024883
C54	C	1.142414	-0.174607	-0.578487
C55	C	1.142452	-0.086751	-0.578507
C56	C	1.142309	-0.380806	-0.266616
C57	C	1.142435	-0.380620	-0.133216
H58	H	0.717492	-0.522881	-0.362053
Br59	Br	1.261668	-1.101488	-0.397773
H60	H	1.050696	-1.079085	-0.717625
H61	H	0.443933	-0.472415	-0.439029
Br62	Br	0.545282	-0.550307	-0.320363
H63	H	0.444102	-0.289214	-0.718014
H64	H	0.841349	-0.472371	-0.438885
H65	H	1.000075	-0.955259	-0.794285
H66	H	1.284725	-0.955261	-0.362692
H67	H	1.000013	-0.805482	-0.794261
H68	H	0.567970	-0.238707	-0.794863
Br69	Br	1.312140	-0.783089	-0.321035
H70	H	1.234059	-0.681671	-0.439331
H71	H	0.717732	-0.238672	-0.794824
Br72	Br	0.863949	-0.261746	-0.759622
Br73	Br	1.023083	-0.659260	-0.759205
