data_functionalizedCrystal
_audit_creation_method	'MofGen! by Chris Wilmer'
_symmetry_space_group_name_H-M	'P1'
_symmetry_Int_Tables_number	1
_symmetry_cell_setting	triclinic
loop_
_symmetry_equiv_pos_as_xyz
  x,y,z
_cell_length_a	14.519709
_cell_length_b	10.654550
_cell_length_c	9.130313
_cell_angle_alpha	90.004369
_cell_angle_beta	89.997908
_cell_angle_gamma	84.082538
loop_
_atom_site_label
_atom_site_type_symbol
_atom_site_fract_x
_atom_site_fract_y
_atom_site_fract_z
O1	O	-1.224720	-0.164623	-0.121608
O2	O	-0.956343	-0.184009	-0.121653
O3	O	-1.096702	0.008483	-0.121620
O4	O	-1.084361	-0.357115	-0.121641
O5	O	-1.096692	0.008488	0.121979
O6	O	-0.956334	-0.184004	0.121946
O7	O	-1.224710	-0.164617	0.121991
Cu8	Cu	-1.090521	-0.174310	0.144211
Cu9	Cu	-1.090532	-0.174317	-0.143873
O10	O	-1.084351	-0.357109	0.121958
C11	C	-0.921974	-0.183103	0.000141
C12	C	-0.819579	-0.180396	0.000124
C13	C	-1.259079	-0.165524	0.000194
C14	C	-1.361475	-0.168231	0.000201
C15	C	-1.095791	0.055275	0.000178
C16	C	-1.093080	0.194692	0.000176
C17	C	-0.444631	-0.170428	0.000191
C18	C	-0.548954	-0.173196	0.000172
C19	C	-0.632102	-0.175412	0.000156
C20	C	-0.736431	-0.178180	0.000140
C21	C	-1.085262	-0.403901	0.000156
C22	C	-1.087973	-0.543318	0.000150
N23	N	-1.090520	-0.174305	0.346834
C24	C	-1.175721	0.274972	0.000189
C25	C	-1.173168	0.405968	0.000171
C26	C	-1.005326	0.376391	0.000132
C27	C	-1.007880	0.245397	0.000140
N28	N	-1.090541	-0.174312	-0.346496
C29	C	-1.152692	-0.089105	0.423500
C30	C	-1.152701	-0.089105	0.576837
C31	C	-1.028362	-0.259516	0.576827
C32	C	-1.028350	-0.259509	0.423493
H33	H	-1.245096	0.233692	0.000215
H34	H	-1.203325	-0.019726	0.639254
H35	H	-0.977746	-0.328889	0.639259
C36	C	-0.975571	-0.476759	0.376240
C37	C	-0.960008	-0.353172	0.339210
H38	H	-0.933383	-0.534575	0.324198
H39	H	-0.966677	-0.488953	0.478518
H40	H	-1.037205	-0.490569	0.351092
H41	H	-0.898375	-0.339359	0.364368
H42	H	-0.968894	-0.340973	0.236909
C43	C	-1.315453	0.471476	-0.125013
C44	C	-1.264012	0.494209	0.000191
H45	H	-1.371541	0.525948	-0.124995
H46	H	-1.280563	0.486867	-0.209958
H47	H	-1.329156	0.386199	-0.124984
H48	H	-1.250304	0.579484	0.000156
H49	H	-1.298910	0.478828	0.085157
C50	C	-0.926885	0.564064	0.000121
C51	C	-0.911677	0.432132	0.000114
H52	H	-0.869068	0.598470	0.000124
H53	H	-0.960943	0.591594	-0.084817
H54	H	-0.960947	0.591600	0.085080
H55	H	-0.877622	0.404596	-0.084851
H56	H	-0.877605	0.404591	0.085061
C57	C	-0.841712	0.229308	0.000116
C58	C	-0.917034	0.157142	0.000130
H59	H	-0.785631	0.174820	0.000115
H60	H	-0.844209	0.281004	-0.084829
H61	H	-0.844206	0.281026	0.085069
H62	H	-0.914543	0.105430	-0.084828
H63	H	-0.914535	0.105424	0.085084
C64	C	-1.275586	0.079348	0.438916
C65	C	-1.221019	0.004561	0.339234
H66	H	-1.317764	0.137181	0.386894
H67	H	-1.309095	0.026969	0.498703
H68	H	-1.236905	0.124630	0.498739
H69	H	-1.259700	-0.040728	0.279417
H70	H	-1.187508	0.056947	0.279422
