data_functionalizedCrystal
_audit_creation_method	'MofGen! by Chris Wilmer'
_symmetry_space_group_name_H-M	'P1'
_symmetry_Int_Tables_number	1
_symmetry_cell_setting	triclinic
loop_
_symmetry_equiv_pos_as_xyz
  x,y,z
_cell_length_a	12.594517
_cell_length_b	12.594516
_cell_length_c	18.215399
_cell_angle_alpha	89.973810
_cell_angle_beta	89.982121
_cell_angle_gamma	90.011248
loop_
_atom_site_label
_atom_site_type_symbol
_atom_site_fract_x
_atom_site_fract_y
_atom_site_fract_z
Zn1	Zn	1.627253	-0.423744	-0.416158
Zn2	Zn	1.627170	-0.601749	-0.293101
Zn3	Zn	1.449270	-0.423783	-0.293103
Zn4	Zn	1.449252	-0.601679	-0.416123
O5	O	1.538236	-0.512739	-0.354621
O6	O	1.776188	-0.447369	-0.399848
O7	O	1.603544	-0.578187	-0.190117
O8	O	1.472922	-0.274832	-0.309442
O9	O	1.776127	-0.578149	-0.309438
O10	O	1.603685	-0.274803	-0.399850
O11	O	1.472842	-0.447436	-0.190118
O12	O	1.300322	-0.447368	-0.309408
O13	O	1.472891	-0.578030	-0.519112
O14	O	1.300309	-0.578068	-0.399791
O15	O	1.603668	-0.447302	-0.519138
O16	O	1.603527	-0.750685	-0.309404
O17	O	1.472811	-0.750634	-0.399788
C18	C	1.261695	-0.512716	-0.354597
C19	C	1.143390	-0.512731	-0.354603
C20	C	1.538187	-0.789280	-0.354608
C21	C	1.538263	-0.907585	-0.354628
C22	C	1.003350	-0.441566	-0.305557
C23	C	1.074199	-0.415635	-0.372712
C24	C	1.074112	-0.538614	-0.287456
C25	C	1.003454	-0.486792	-0.421848
C26	C	1.003361	-0.609816	-0.336547
C27	C	1.074178	-0.583923	-0.403748
C28	C	1.609442	-0.976827	-0.305520
C29	C	1.635445	-1.047527	-0.372691
C30	C	1.512393	-1.047684	-0.287499
C31	C	1.564316	-0.976726	-0.421834
C32	C	1.441219	-0.976877	-0.336596
C33	C	1.467185	-1.047545	-0.403814
C34	C	1.815857	-0.512763	-0.354646
C35	C	1.934163	-0.512773	-0.354657
C36	C	1.538287	-0.512654	-0.546574
C37	C	1.538308	-0.512617	-0.628373
C38	C	1.538315	-0.235118	-0.354650
C39	C	1.538348	-0.116812	-0.354662
C40	C	1.470309	-0.444490	-0.816569
C41	C	1.470327	-0.444468	-0.893428
C42	C	1.606434	-0.580618	-0.893415
C43	C	1.606410	-0.580644	-0.816558
C44	C	1.538349	-0.512574	-0.778137
C45	C	1.538392	-0.512526	-0.931853
C46	C	1.538412	-0.512504	-1.015187
C47	C	1.538326	-0.512598	-0.694798
C48	C	1.538247	-0.512747	-0.163415
C49	C	1.538432	-0.512483	-0.081616
H50	H	1.105296	-0.333546	-0.388020
H51	H	1.717550	-1.078563	-0.387962
H52	H	1.414889	-0.389062	-0.785289
O53	O	1.404202	-0.378228	-0.930647
C54	C	1.344108	-0.318178	-0.880251
H55	H	1.387692	-0.314514	-0.825469
H56	H	1.332783	-0.234309	-0.902470
H57	H	1.263258	-0.357151	-0.872063
O58	O	1.672517	-0.646633	-0.930853
C59	C	1.657933	-0.632030	-1.006931
H60	H	1.623098	-0.549883	-1.017439
H61	H	1.737667	-0.639245	-1.036144
H62	H	1.601243	-0.695153	-1.028729
H63	H	1.661819	-0.636091	-0.785265
H64	H	1.407028	-1.078400	-0.445406
H65	H	0.972545	-0.464823	-0.478673
O66	O	1.590612	-0.939532	-0.489546
C67	C	1.590266	-0.827592	-0.488706
H68	H	1.602145	-0.798343	-0.430064
H69	H	1.657363	-0.796603	-0.524868
H70	H	1.511014	-0.797311	-0.510507
H71	H	1.359138	-0.945818	-0.321306
O72	O	1.486424	-1.084918	-0.219737
C73	C	1.570085	-1.148055	-0.192560
H74	H	1.647272	-1.124933	-0.221102
H75	H	1.578442	-1.134974	-0.130908
H76	H	1.552194	-1.235311	-0.203692
O77	O	0.966289	-0.369555	-0.256194
C78	C	1.002408	-0.267328	-0.275531
H79	H	1.022325	-0.265425	-0.336572
H80	H	0.937657	-0.206599	-0.263345
H81	H	1.076447	-0.247294	-0.242314
H82	H	0.972222	-0.691878	-0.321227
O83	O	1.111182	-0.655608	-0.453355
C84	C	1.174217	-0.603045	-0.506031
H85	H	1.205416	-0.525584	-0.481909
H86	H	1.243925	-0.655922	-0.522043
H87	H	1.124283	-0.585124	-0.556735
O88	O	1.111015	-0.564594	-0.219630
C89	C	1.074945	-0.489314	-0.168074
H90	H	1.000439	-0.448823	-0.189946
H91	H	1.055815	-0.530951	-0.114083
H92	H	1.139413	-0.427295	-0.158505
H93	H	1.669645	-0.945775	-0.264029
