data_functionalizedCrystal
_audit_creation_method	'MofGen! by Chris Wilmer'
_symmetry_space_group_name_H-M	'P1'
_symmetry_Int_Tables_number	1
_symmetry_cell_setting	triclinic
loop_
_symmetry_equiv_pos_as_xyz
  x,y,z
_cell_length_a	21.295419
_cell_length_b	21.295412
_cell_length_c	12.759399
_cell_angle_alpha	89.976521
_cell_angle_beta	90.029917
_cell_angle_gamma	89.976510
loop_
_atom_site_label
_atom_site_type_symbol
_atom_site_fract_x
_atom_site_fract_y
_atom_site_fract_z
Zn1	Zn	0.962416	-0.355943	-0.417877
Zn2	Zn	0.962349	-0.250681	-0.593570
Zn3	Zn	0.857141	-0.250688	-0.417951
Zn4	Zn	0.857137	-0.355913	-0.593560
O5	O	0.909761	-0.303306	-0.505740
O6	O	1.050497	-0.341989	-0.441157
O7	O	0.948366	-0.162593	-0.570309
O8	O	0.871136	-0.264665	-0.270920
O9	O	1.050447	-0.264654	-0.570238
O10	O	0.948481	-0.341995	-0.270866
O11	O	0.871071	-0.162597	-0.441283
O12	O	0.769052	-0.264636	-0.441273
O13	O	0.871129	-0.444006	-0.570221
O14	O	0.769048	-0.341945	-0.570292
O15	O	0.948477	-0.444028	-0.441147
O16	O	0.948362	-0.264625	-0.740590
O17	O	0.871064	-0.341939	-0.740583
C18	C	0.746209	-0.303288	-0.505790
C19	C	0.676241	-0.303296	-0.505837
C20	C	0.643423	-0.343626	-0.438735
C21	C	0.577680	-0.343629	-0.438706
C22	C	0.544759	-0.303307	-0.505799
C23	C	0.577585	-0.262969	-0.572907
C24	C	0.643326	-0.262963	-0.572925
N25	N	0.441498	-0.298394	-0.597725
N26	N	0.379047	-0.298404	-0.597704
C27	C	0.346684	-0.303321	-0.505745
N28	N	0.379132	-0.308242	-0.413806
N29	N	0.441589	-0.308236	-0.413828
C30	C	0.473473	-0.303309	-0.505786
C31	C	0.242580	-0.343657	-0.438606
C32	C	0.176836	-0.343655	-0.438576
C33	C	0.176742	-0.262998	-0.572786
C34	C	0.242485	-0.262997	-0.572807
C35	C	0.275400	-0.303329	-0.505718
C36	C	0.909810	-0.467496	-0.505675
C37	C	0.909831	-0.537465	-0.505647
C38	C	0.869594	-0.570324	-0.438455
C39	C	0.869592	-0.636066	-0.438435
C40	C	0.909838	-0.668947	-0.505597
C41	C	0.950078	-0.636080	-0.572801
C42	C	0.950074	-0.570339	-0.572826
N43	N	0.964944	-0.772186	-0.513597
N44	N	0.964945	-0.834637	-0.513567
C45	C	0.909850	-0.867022	-0.505527
N46	N	0.854751	-0.834596	-0.497497
N47	N	0.854751	-0.772139	-0.497522
C48	C	0.909846	-0.740233	-0.505577
C49	C	0.869607	-0.971167	-0.438310
C50	C	0.869603	-1.036910	-0.438298
C51	C	0.950095	-1.036923	-0.572658
C52	C	0.950093	-0.971180	-0.572676
C53	C	0.909849	-0.938306	-0.505496
C54	C	1.073951	-0.303324	-0.505690
C55	C	1.143919	-0.303332	-0.505669
C56	C	0.909722	-0.303292	-0.778707
C57	C	0.909763	-0.303307	-0.895484
C58	C	0.909748	-0.139755	-0.505729
C59	C	0.909849	-0.069787	-0.505461
C60	C	0.950059	-0.263095	-0.950315
C61	C	0.950099	-0.263117	-1.060039
C62	C	0.869544	-0.343562	-1.060091
C63	C	0.869507	-0.343544	-0.950369
C64	C	0.909817	-0.303334	-0.231707
C65	C	0.909841	-0.303346	-0.114930
H66	H	0.269381	-0.376494	-0.383972
C67	C	0.140538	-0.218641	-0.646589
C68	C	0.095339	-0.169269	-0.600941
C69	C	0.059131	-0.124909	-0.674743
C70	C	0.068124	-0.129919	-0.794193
C71	C	0.113325	-0.179293	-0.839848
C72	C	0.149532	-0.223654	-0.766045
H73	H	0.088680	-0.165559	-0.512512
H74	H	0.025670	-0.088359	-0.640946
H75	H	0.041321	-0.097080	-0.848826
H76	H	0.119983	-0.183004	-0.928277
H77	H	0.182993	-0.260203	-0.799842
C78	C	0.825321	-0.534163	-0.364571
C79	C	0.781055	-0.570313	-0.290666
C80	C	0.736779	-0.534151	-0.216786
C81	C	0.736769	-0.461838	-0.216810
C82	C	0.781037	-0.425684	-0.290717
C83	C	0.825312	-0.461846	-0.364598
H84	H	0.781061	-0.623847	-0.290646
H85	H	0.704010	-0.560915	-0.162075
H86	H	0.703994	-0.435069	-0.162119
H87	H	0.781031	-0.372150	-0.290738
H88	H	0.858082	-0.435082	-0.419309
H89	H	0.836827	-0.662826	-0.383715
H90	H	0.150117	-0.376496	-0.383927
H91	H	0.836767	-0.376320	-1.104793
C92	C	0.825179	-0.387780	-0.890048
C93	C	0.753624	-0.382583	-0.905261
C94	C	0.709301	-0.426820	-0.844940
C95	C	0.736533	-0.476253	-0.769407
C96	C	0.808092	-0.481451	-0.754191
C97	C	0.852415	-0.437215	-0.814512
H98	H	0.733462	-0.345988	-0.961178
H99	H	0.656329	-0.422971	-0.856204
H100	H	0.703723	-0.508999	-0.724753
H101	H	0.828254	-0.518047	-0.698273
H102	H	0.905387	-0.441063	-0.803247
C103	C	0.994350	-0.672246	-0.646678
C104	C	0.994359	-0.744558	-0.646649
C105	C	1.038631	-0.780723	-0.720533
C106	C	1.082894	-0.744575	-0.794446
C107	C	1.082886	-0.672258	-0.794477
C108	C	1.038615	-0.636094	-0.720594
H109	H	0.961592	-0.771321	-0.591932
H110	H	1.038636	-0.834257	-0.720509
H111	H	1.115666	-0.771347	-0.849139
H112	H	1.115654	-0.645496	-0.849195
H113	H	1.038609	-0.582560	-0.720618
C114	C	0.994343	-0.534191	-0.646736
C115	C	1.065906	-0.543261	-0.638135
C116	C	1.110177	-0.507113	-0.712042
C117	C	1.082885	-0.461896	-0.794551
C118	C	1.011319	-0.452824	-0.803156
C119	C	0.967047	-0.488972	-0.729248
H120	H	1.086113	-0.576735	-0.577053
H121	H	1.163156	-0.513829	-0.705672
H122	H	1.115658	-0.435137	-0.849262
H123	H	0.991112	-0.419350	-0.864237
H124	H	0.914069	-0.482256	-0.735618
H125	H	0.269206	-0.230157	-0.627453
C126	C	0.994423	-0.218881	-1.120353
C127	C	0.994470	-0.218901	-1.241043
C128	C	1.038796	-0.174664	-1.301356
C129	C	1.083075	-0.130407	-1.240980
C130	C	1.083029	-0.130386	-1.120283
C131	C	1.038703	-0.174623	-1.059970
H132	H	0.961691	-0.251663	-1.285743
H133	H	1.038830	-0.174680	-1.390704
H134	H	1.115888	-0.097661	-1.285627
H135	H	1.115809	-0.097623	-1.075583
H136	H	1.038670	-0.174607	-0.970622
C137	C	0.825338	-1.073057	-0.364382
C138	C	0.775903	-1.118225	-0.409897
C139	C	0.731637	-1.154372	-0.335979
C140	C	0.736806	-1.145351	-0.216545
C141	C	0.786244	-1.100181	-0.171024
C142	C	0.830510	-1.064034	-0.244942
H143	H	0.772075	-1.124905	-0.498315
H144	H	0.695040	-1.187810	-0.369678
H145	H	0.704038	-1.172109	-0.161827
H146	H	0.790072	-1.093501	-0.082606
H147	H	0.867106	-1.030596	-0.211243
C148	C	0.541570	-0.387999	-0.364896
C149	C	0.577774	-0.432362	-0.291103
C150	C	0.541666	-0.476733	-0.217295
C151	C	0.469353	-0.476740	-0.217279
C152	C	0.433145	-0.432374	-0.291074
C153	C	0.469253	-0.388004	-0.364883
H154	H	0.631308	-0.432359	-0.291113
H155	H	0.568470	-0.509575	-0.162667
H156	H	0.442624	-0.509585	-0.162642
H157	H	0.379611	-0.432378	-0.291065
H158	H	0.442449	-0.355162	-0.419511
H159	H	0.670047	-0.230120	-0.627570
H160	H	0.982839	-0.230333	-0.905629
H161	H	0.670218	-0.376468	-0.384105
H162	H	0.836838	-0.944399	-0.383609
C163	C	0.541375	-0.218616	-0.646712
C164	C	0.469062	-0.218623	-0.646701
C165	C	0.432852	-0.174266	-0.720506
C166	C	0.468955	-0.129901	-0.794322
C167	C	0.541272	-0.129892	-0.794336
C168	C	0.577482	-0.174249	-0.720532
H169	H	0.442332	-0.251466	-0.592055
H170	H	0.379318	-0.174273	-0.720495
H171	H	0.442151	-0.097065	-0.848957
H172	H	0.568001	-0.097049	-0.848982
H173	H	0.631016	-0.174242	-0.720543
H174	H	0.982865	-1.063694	-0.627340
H175	H	0.982860	-0.944426	-0.627388
