data_functionalizedCrystal
_audit_creation_method	'MofGen! by Chris Wilmer'
_symmetry_space_group_name_H-M	'P1'
_symmetry_Int_Tables_number	1
_symmetry_cell_setting	triclinic
loop_
_symmetry_equiv_pos_as_xyz
  x,y,z
_cell_length_a	14.044220
_cell_length_b	15.500227
_cell_length_c	17.038272
_cell_angle_alpha	86.966746
_cell_angle_beta	92.150217
_cell_angle_gamma	93.097991
loop_
_atom_site_label
_atom_site_type_symbol
_atom_site_fract_x
_atom_site_fract_y
_atom_site_fract_z
O1	O	1.277127	0.071853	0.186224
O2	O	1.777127	0.571853	0.686224
O3	O	1.000608	0.071875	0.179383
O4	O	1.500608	0.571875	0.679383
O5	O	1.137224	0.071857	0.068874
O6	O	1.637224	0.571857	0.568874
O7	O	1.140511	0.071870	0.296734
O8	O	1.640511	0.571870	0.796734
O9	O	1.128931	-0.072031	0.075551
O10	O	1.628931	0.427969	0.575551
O11	O	0.992315	-0.072013	0.186060
O12	O	1.492315	0.427987	0.686060
O13	O	1.268835	-0.072035	0.192902
O14	O	1.768835	0.427965	0.692902
Cu15	Cu	1.129818	-0.085162	0.190091
Cu16	Cu	1.629818	0.414838	0.690091
Cu17	Cu	1.139625	0.085002	0.182194
Cu18	Cu	1.639625	0.585002	0.682194
O19	O	1.132219	-0.072017	0.303411
O20	O	1.632219	0.427983	0.803411
C21	C	0.960906	-0.000067	0.179727
C22	C	1.460906	0.499933	0.679727
C23	C	0.854960	-0.000058	0.170795
C24	C	1.354960	0.499942	0.670795
N25	N	1.122927	-0.204846	0.195645
N26	N	1.622927	0.295154	0.695645
C27	C	0.660981	-0.000076	0.154468
C28	C	1.160981	0.499924	0.654468
C29	C	0.608456	-0.000076	0.217813
C30	C	1.108456	0.499924	0.717813
C31	C	0.500519	-0.000086	0.208728
C32	C	1.000519	0.499914	0.708728
C33	C	0.768928	-0.000066	0.163552
C34	C	1.268928	0.499934	0.663552
C35	C	1.180839	-0.250130	0.148838
C36	C	1.680839	0.249870	0.648838
C37	C	1.175637	-0.340702	0.153047
C38	C	1.675637	0.159298	0.653047
C39	C	1.112527	-0.385989	0.204066
C40	C	1.612527	0.114011	0.704066
C41	C	1.054609	-0.340698	0.250874
C42	C	1.554609	0.159302	0.750874
C43	C	1.059807	-0.250128	0.246661
C44	C	1.559807	0.249872	0.746661
C45	C	1.093802	-0.659453	0.219229
C46	C	1.593802	-0.159453	0.719229
C47	C	1.088610	-0.750030	0.223441
C48	C	1.588610	-0.250030	0.723441
C49	C	1.209638	-0.750028	0.125612
C50	C	1.709638	-0.250028	0.625612
C51	C	1.214834	-0.659456	0.121407
C52	C	1.714834	-0.159456	0.621407
C53	C	1.156912	-0.614173	0.168212
C54	C	1.656912	-0.114173	0.668212
C55	C	1.107211	-0.478568	0.208370
C56	C	1.607211	0.021432	0.708370
C57	C	1.162225	-0.521596	0.163903
C58	C	1.662225	-0.021596	0.663903
C59	C	1.308537	-0.000092	0.192557
C60	C	1.808537	0.499908	0.692557
C61	C	1.414483	-0.000094	0.201489
C62	C	1.914483	0.499906	0.701489
C63	C	1.130088	-0.000087	0.042875
C64	C	1.630088	0.499913	0.542875
C65	C	1.121169	-0.000086	-0.044542
C66	C	1.621169	0.499914	0.455458
N67	N	1.146522	0.204686	0.176634
N68	N	1.646522	0.704686	0.676634
C69	C	1.203057	-0.000093	-0.088927
C70	C	1.703057	0.499907	0.411073
C71	C	1.194671	-0.000084	-0.171065
C72	C	1.694671	0.499916	0.328935
C73	C	1.104396	-0.000074	-0.208816
C74	C	1.604396	0.499926	0.291184
C75	C	1.022503	-0.000064	-0.164425
C76	C	1.522503	0.499936	0.335575
C77	C	1.030889	-0.000067	-0.082289
C78	C	1.530889	0.499933	0.417711
C79	C	1.074767	-0.000060	-0.456647
C80	C	1.574767	0.499940	0.043353
C81	C	1.066386	-0.000060	-0.538789
C82	C	1.566386	0.499940	-0.038789
C83	C	1.238556	-0.000078	-0.545423
C84	C	1.738556	0.499922	-0.045423
C85	C	1.246935	-0.000086	-0.463285
C86	C	1.746935	0.499914	0.036715
C87	C	1.165041	-0.000072	-0.418902
C88	C	1.665041	0.499928	0.081098
C89	C	1.095823	-0.000068	-0.292773
C90	C	1.595823	0.499932	0.207227
C91	C	1.173616	-0.000072	-0.334946
C92	C	1.673616	0.499928	0.165054
C93	C	1.139355	-0.000072	0.329410
C94	C	1.639355	0.499928	0.829410
C95	C	1.148274	-0.000067	0.416826
C96	C	1.648274	0.499933	0.916826
H97	H	0.644551	-0.000069	0.278867
H98	H	1.144551	0.499931	0.778867
H99	H	1.213605	-0.484721	0.122359
H100	H	1.713605	0.015279	0.622359
H101	H	1.055827	-0.515448	0.249913
H102	H	1.555827	-0.015448	0.749913
C103	C	0.967073	-0.000042	-0.580313
C104	C	1.467073	0.499958	-0.080313
N105	N	0.892274	-0.000029	-0.611589
N106	N	1.392274	0.499971	-0.111589
C107	C	1.302367	-0.000104	-0.047409
C108	C	1.802367	0.499896	0.452591
N109	N	1.377170	-0.000109	-0.016141
N110	N	1.877170	0.499891	0.483859
C111	C	0.612221	-0.000079	0.071991
C112	C	1.112221	0.499921	0.571991
N113	N	0.575484	-0.000077	0.009870
N114	N	1.075484	0.499923	0.509870
H115	H	1.261353	-0.000092	-0.207200
H116	H	1.761353	0.499908	0.292800
C117	C	0.984681	-0.000039	-0.407836
C118	C	1.484681	0.499961	0.092164
N119	N	0.916823	-0.000021	-0.371068
N120	N	1.416823	0.499979	0.128932
H121	H	0.948999	-0.000050	-0.195168
H122	H	1.448999	0.499950	0.304832
C123	C	1.250265	-0.200324	0.092712
C124	C	1.750265	0.299676	0.592712
N125	N	1.302555	-0.162812	0.050434
N126	N	1.802555	0.337188	0.550434
H127	H	1.222793	-0.377572	0.114933
H128	H	1.722793	0.122428	0.614933
H129	H	1.266223	-0.622585	0.079863
H130	H	1.766223	-0.122585	0.579863
H131	H	0.964207	-0.000061	-0.046151
H132	H	1.464207	0.499939	0.453849
H133	H	1.256794	-0.786905	0.087504
H134	H	1.756794	-0.286905	0.587504
H135	H	1.037216	-0.786898	0.264990
H136	H	1.537216	-0.286898	0.764990
C137	C	1.272915	-0.000087	-0.293417
C138	C	1.772915	0.499913	0.206583
N139	N	1.347708	-0.000105	-0.262131
N140	N	1.847708	0.499895	0.237869
H141	H	1.046641	-0.622591	0.257342
H142	H	1.546641	-0.122591	0.757342
H143	H	1.320446	-0.000094	-0.432555
H144	H	1.820446	0.499906	0.067445
H145	H	1.003219	-0.377576	0.292412
H146	H	1.503219	0.122424	0.792412
H147	H	1.012647	-0.213258	0.284775
H148	H	1.512647	0.286742	0.784775
H149	H	1.305229	-0.000088	-0.581569
H150	H	1.805229	0.499912	-0.081569
H151	H	1.022320	-0.000061	-0.323519
H152	H	1.522320	0.499939	0.176481
