data_functionalizedCrystal
_audit_creation_method	'MofGen! by Chris Wilmer'
_symmetry_space_group_name_H-M	'P1'
_symmetry_Int_Tables_number	1
_symmetry_cell_setting	triclinic
loop_
_symmetry_equiv_pos_as_xyz
  x,y,z
_cell_length_a	6.817900
_cell_length_b	17.078472
_cell_length_c	23.752930
_cell_angle_alpha	97.003754
_cell_angle_beta	100.066047
_cell_angle_gamma	99.306020
loop_
_atom_site_label
_atom_site_type_symbol
_atom_site_fract_x
_atom_site_fract_y
_atom_site_fract_z
V1	V	-3.967778	-0.110813	-0.178335
O2	O	-3.977837	0.004249	-0.174999
O3	O	-3.899094	-0.218688	-0.177058
O4	O	-3.903052	-0.109581	-0.256139
O5	O	-3.973851	-0.105614	-0.095371
V6	V	-4.456149	-0.096994	-0.168419
O7	O	-4.218400	-0.141125	-0.200087
O8	O	-4.655724	-0.066682	-0.146667
O9	O	-4.301627	0.010881	-0.169695
O10	O	-4.563487	-0.212056	-0.171754
O11	O	-4.567473	-0.102193	-0.251382
O12	O	-4.297668	-0.098227	-0.090615
C13	C	-3.739689	-0.244971	-0.174230
C14	C	-3.764710	-0.333164	-0.173705
C15	C	-3.957195	-0.378654	-0.176310
C16	C	-3.980695	-0.461521	-0.175820
C17	C	-3.811705	-0.498895	-0.172721
C18	C	-3.619205	-0.453398	-0.170118
C19	C	-3.595709	-0.370534	-0.170612
C20	C	-3.862595	-0.746288	-0.170941
C21	C	-3.886104	-0.829158	-0.170445
C22	C	-4.247594	-0.837275	-0.176149
C23	C	-4.224080	-0.754408	-0.176640
C24	C	-4.031585	-0.708920	-0.174039
N25	N	-3.835720	-0.583597	-0.172218
N26	N	-4.007575	-0.624220	-0.174546
C27	C	-3.744737	-0.105793	-0.275105
C28	C	-3.772967	-0.105499	-0.338710
C29	C	-4.128949	-0.107581	-0.736033
C30	C	-4.155498	-0.107295	-0.795796
O31	O	-4.322925	-0.110501	-0.829178
N32	N	-3.988036	-0.103180	-0.822774
C33	C	-3.794009	-0.099342	-0.789986
O34	O	-3.654007	-0.095815	-0.818420
C35	C	-3.767461	-0.099623	-0.730223
C36	C	-3.934939	-0.103747	-0.703249
C37	C	-4.296412	-0.111704	-0.709058
C38	C	-4.269865	-0.111992	-0.649300
C39	C	-4.075855	-0.108157	-0.616516
C40	C	-3.908391	-0.104034	-0.643491
C41	C	-3.573434	-0.095780	-0.697436
C42	C	-3.546899	-0.096060	-0.637669
C43	C	-3.714378	-0.100184	-0.610695
C44	C	-3.687834	-0.100488	-0.550949
N45	N	-3.855296	-0.104603	-0.523970
C46	C	-4.049306	-0.108438	-0.556754
C47	C	-3.849775	-0.098752	-0.915490
C48	C	-3.876323	-0.098477	-0.975252
C49	C	-4.237811	-0.106428	-0.981058
C50	C	-4.211263	-0.106709	-0.921296
C51	C	-4.017238	-0.102867	-0.888512
C52	C	-3.993542	-0.109043	-0.431257
C53	C	-3.966977	-0.109334	-0.371493
C54	C	-3.605491	-0.101378	-0.365692
C55	C	-3.632054	-0.101091	-0.425451
C56	C	-3.826094	-0.104921	-0.458232
O57	O	-3.520467	-0.097280	-0.517529
O58	O	-4.189276	-0.111954	-0.528310
C59	C	-4.124374	0.037160	-0.172522
C60	C	-4.078590	0.125351	-0.173051
C61	C	-4.119326	-0.102017	-0.071646
C62	C	-4.070336	-0.102307	-0.008041
H63	H	-4.094807	-0.348230	-0.178829
H64	H	-3.705855	-0.709261	-0.168820
Br65	Br	-4.256878	-0.114238	-0.475736
Br66	Br	-4.559742	-0.116911	-0.753540
H67	H	-3.748488	-0.859588	-0.167935
Br68	Br	-4.194289	-0.114935	-0.334890
Br69	Br	-4.508826	-0.899013	-0.179678
H70	H	-4.406246	-0.115346	-0.627343
Br71	Br	-4.438565	-0.112305	-0.884694
H72	H	-3.437049	-0.092422	-0.719387
Br73	Br	-3.283564	-0.090838	-0.593180
H74	H	-3.481613	-0.483835	-0.167598
H75	H	-3.495682	-0.097742	-0.447416
H76	H	-3.438971	-0.333497	-0.168493
H77	H	-4.395789	-0.109550	-1.007761
Br78	Br	-3.649025	-0.092900	-1.011855
H79	H	-4.137434	-0.498556	-0.177943
Br80	Br	-4.453422	-0.703687	-0.180819
Br81	Br	-3.586438	-0.093547	-0.871005
Br82	Br	-3.342199	-0.096178	-0.321189
