data_functionalizedCrystal
_audit_creation_method	'MofGen! by Chris Wilmer'
_symmetry_space_group_name_H-M	'P1'
_symmetry_Int_Tables_number	1
_symmetry_cell_setting	triclinic
loop_
_symmetry_equiv_pos_as_xyz
  x,y,z
_cell_length_a	17.699083
_cell_length_b	19.288864
_cell_length_c	18.366186
_cell_angle_alpha	90.022894
_cell_angle_beta	89.992864
_cell_angle_gamma	96.790370
loop_
_atom_site_label
_atom_site_type_symbol
_atom_site_fract_x
_atom_site_fract_y
_atom_site_fract_z
O1	O	0.094417	-0.921465	-0.060785
O2	O	0.107154	-0.719219	-0.060735
O3	O	-0.009412	-0.826056	-0.060755
O4	O	0.210983	-0.814628	-0.060765
O5	O	-0.009417	-0.826038	0.060345
O6	O	0.107148	-0.719201	0.060364
O7	O	0.094412	-0.921446	0.060315
Zn8	Zn	0.100779	-0.820321	0.079567
Zn9	Zn	0.100786	-0.820345	-0.079987
O10	O	0.210977	-0.814610	0.060335
C11	C	0.106741	-0.693333	-0.000179
C12	C	0.105511	-0.616228	-0.000160
C13	C	-0.037611	-0.825637	-0.000205
C14	C	-0.121627	-0.824409	-0.000204
N15	N	0.100773	-0.820310	0.188458
C16	C	-0.170336	-0.887120	-0.000219
C17	C	-0.249278	-0.885961	-0.000225
C18	C	-0.279509	-0.822091	-0.000211
C19	C	-0.230794	-0.759375	-0.000199
C20	C	-0.151854	-0.760535	-0.000198
C21	C	-0.549150	-0.754699	-0.000204
C22	C	-0.628097	-0.753545	-0.000203
C23	C	-0.646575	-0.880126	-0.000230
C24	C	-0.567635	-0.881285	-0.000230
C25	C	-0.518926	-0.818570	-0.000221
C26	C	-0.433329	-0.819827	-0.000216
C27	C	-0.365105	-0.820834	-0.000211
C28	C	0.239176	-0.815028	-0.000217
C29	C	0.323193	-0.816257	-0.000222
C30	C	0.094824	-0.947332	-0.000243
C31	C	0.096054	-1.024437	-0.000267
C32	C	0.173906	-0.571613	-0.000174
C33	C	0.172751	-0.499164	-0.000182
C34	C	0.103196	-0.471334	-0.000190
C35	C	0.034791	-0.515959	-0.000172
C36	C	0.035949	-0.588406	-0.000156
C37	C	0.048520	-0.363014	-0.042639
C38	C	0.047365	-0.290568	-0.042659
C39	C	0.099622	-0.247884	-0.000234
C40	C	0.153047	-0.277654	0.042200
C41	C	0.154205	-0.350101	0.042216
C42	C	0.101932	-0.392779	-0.000206
C43	C	0.166769	-0.124712	-0.000256
C44	C	0.165610	-0.052262	-0.000260
C45	C	0.027649	-0.069059	-0.000257
C46	C	0.028809	-0.141507	-0.000246
C47	C	0.098371	-0.169329	-0.000249
N48	N	0.100786	-0.820361	-0.188878
C49	C	0.049183	-0.867632	0.226550
C50	C	0.049180	-0.867637	0.302777
C51	C	0.100780	-0.820325	0.340911
C52	C	0.152373	-0.772993	0.302810
C53	C	0.152370	-0.772986	0.226583
C54	C	0.169742	-0.811108	0.461669
C55	C	0.169746	-0.811121	0.537894
C56	C	0.100789	-0.820345	0.576018
C57	C	0.031825	-0.829571	0.537908
C58	C	0.031822	-0.829563	0.461681
C59	C	0.100788	-0.820328	0.423565
C60	C	0.049191	-0.867675	0.696765
C61	C	0.049187	-0.867674	0.772994
C62	C	0.152387	-0.773034	0.773025
C63	C	0.152385	-0.773031	0.696797
C64	C	0.100788	-0.820355	0.658672
H65	H	-0.145729	-0.939130	-0.000225
N66	N	-0.263403	-0.690489	-0.000182
H67	H	-0.245627	-0.663014	0.044716
H68	H	-0.245613	-0.663082	-0.045097
H69	H	0.225898	-0.803585	0.430635
H70	H	-0.112195	-0.709469	-0.000187
H71	H	-0.288934	-0.937027	-0.000235
H72	H	0.197703	-0.374336	0.076770
H73	H	-0.686243	-0.931192	-0.000241
N74	N	-0.007851	-0.409046	-0.088398
H75	H	-0.000998	-0.395611	-0.141341
H76	H	0.001017	-0.459441	-0.081889
N77	N	0.208036	-0.722000	0.814146
H78	H	0.240719	-0.692019	0.778444
H79	H	0.179137	-0.691351	0.845788
H80	H	0.194397	-0.734500	0.665781
H81	H	-0.021841	-0.493296	-0.000188
H82	H	0.230549	-0.594260	-0.000178
H83	H	0.195599	-0.242902	0.076747
N84	N	-0.535028	-0.950173	-0.000238
H85	H	-0.577865	-0.989725	-0.000249
H86	H	-0.502672	-0.953417	-0.045131
N87	N	-0.660705	-0.684654	-0.000184
H88	H	-0.617871	-0.645099	-0.000179
H89	H	-0.693055	-0.681426	-0.045074
N90	N	0.208024	-0.721960	0.343934
H91	H	0.200200	-0.729146	0.398004
H92	H	0.261696	-0.729885	0.330596
H93	H	-0.024326	-0.837081	0.568947
H94	H	-0.509501	-0.703632	-0.000197
N95	N	0.244123	-0.801167	0.578996
H96	H	0.287806	-0.795310	0.543280
H97	H	0.245816	-0.758179	0.610643
H98	H	0.223410	-0.147365	-0.000249
N99	N	0.208013	-0.721940	0.185493
H100	H	0.240700	-0.691965	0.221214
H101	H	0.241401	-0.748468	0.153847
N102	N	0.246522	-0.451031	-0.000200
H103	H	0.290764	-0.479649	-0.000199
H104	H	0.249039	-0.420635	-0.045101
H105	H	0.007168	-0.906165	0.195510
H106	H	0.221308	-0.015936	-0.000268
N107	N	-0.006483	-0.918702	0.655652
H108	H	-0.039919	-0.892207	0.624050
H109	H	0.022389	-0.949402	0.624043
H110	H	-0.028984	-0.046401	-0.000308
N111	N	-0.037823	-0.636533	-0.000137
H112	H	-0.082064	-0.607912	-0.000140
H113	H	-0.040348	-0.666982	-0.045024
N114	N	-0.044960	-0.189633	-0.000230
H115	H	-0.089200	-0.161012	-0.000235
H116	H	-0.047485	-0.220085	-0.045115
H117	H	0.003866	-0.266335	-0.077214
N118	N	-0.006461	-0.918679	0.343880
H119	H	-0.060161	-0.910779	0.330632
H120	H	0.002190	-0.967934	0.330573
N121	N	-0.042553	-0.839511	0.420575
H122	H	-0.086239	-0.845356	0.456288
H123	H	-0.046854	-0.797320	0.388972
N124	N	-0.006447	-0.918729	0.814083
H125	H	-0.039125	-0.948711	0.778360
H126	H	0.022467	-0.949376	0.845681
