data_functionalizedCrystal
_audit_creation_method	'MofGen! by Chris Wilmer'
_symmetry_space_group_name_H-M	'P1'
_symmetry_Int_Tables_number	1
_symmetry_cell_setting	triclinic
loop_
_symmetry_equiv_pos_as_xyz
  x,y,z
_cell_length_a	9.065215
_cell_length_b	11.792240
_cell_length_c	7.540329
_cell_angle_alpha	89.987054
_cell_angle_beta	90.002426
_cell_angle_gamma	95.395943
loop_
_atom_site_label
_atom_site_type_symbol
_atom_site_fract_x
_atom_site_fract_y
_atom_site_fract_z
O1	O	1.958841	-0.166414	0.147505
O2	O	2.292175	0.166919	0.480838
O3	O	2.625508	0.500252	0.814171
O4	O	1.529428	-0.180069	0.147516
O5	O	1.862761	0.153264	0.480850
O6	O	2.196095	0.486598	0.814183
O7	O	1.754555	-0.008129	0.147456
O8	O	2.087889	0.325205	0.480790
O9	O	2.421222	0.658538	0.814123
O10	O	1.733714	-0.338354	0.147565
O11	O	2.067047	-0.005021	0.480898
O12	O	2.400381	0.328312	0.814231
O13	O	1.754542	-0.008127	-0.147509
O14	O	2.087875	0.325207	0.185825
O15	O	2.421208	0.658540	0.519158
O16	O	1.529414	-0.180067	-0.147449
O17	O	1.862748	0.153267	0.185884
O18	O	2.196081	0.486600	0.519218
O19	O	1.958828	-0.166412	-0.147460
O20	O	2.292161	0.166921	0.185873
O21	O	2.625494	0.500255	0.519206
Cu22	Cu	1.744120	-0.173239	-0.174387
Cu23	Cu	2.077453	0.160094	0.158946
Cu24	Cu	2.410787	0.493427	0.492279
Cu25	Cu	1.744136	-0.173242	0.174443
Cu26	Cu	2.077469	0.160092	0.507776
Cu27	Cu	2.410802	0.493425	0.841110
O28	O	1.733700	-0.338352	-0.147401
O29	O	2.067034	-0.005019	0.185933
O30	O	2.400367	0.328314	0.519266
C31	C	1.474447	-0.178756	0.000034
C32	C	1.807780	0.154577	0.333368
C33	C	2.141113	0.487910	0.666701
C34	C	1.310640	-0.174835	0.000036
C35	C	1.643974	0.158499	0.333369
C36	C	1.977307	0.491832	0.666703
C37	C	1.753239	0.034171	-0.000036
C38	C	2.086573	0.367504	0.333297
C39	C	2.419906	0.700837	0.666630
C40	C	1.749321	0.160206	-0.000066
C41	C	2.082654	0.493539	0.333267
C42	C	2.415988	0.826873	0.666601
C43	C	1.742116	0.390958	-0.000094
C44	C	2.075449	0.724291	0.333239
C45	C	2.408782	1.057625	0.666572
C46	C	1.746119	0.262551	-0.000078
C47	C	2.079452	0.595884	0.333255
C48	C	2.412786	0.929217	0.666588
C49	C	2.013809	-0.167725	0.000025
C50	C	2.347142	0.165609	0.333359
C51	C	2.680476	0.498942	0.666692
C52	C	2.177615	-0.171646	0.000035
C53	C	2.510949	0.161687	0.333369
C54	C	2.844282	0.495020	0.666702
N55	N	1.744119	-0.173237	-0.419736
N56	N	2.077453	0.160097	-0.086402
N57	N	2.410786	0.493430	0.246931
C58	C	1.735016	0.619348	0.000033
C59	C	2.068350	0.952682	0.333366
C60	C	2.401683	1.286015	0.666699
C61	C	1.738935	0.493313	-0.000114
C62	C	2.072268	0.826646	0.333220
C63	C	2.405601	1.159980	0.666553
N64	N	1.744148	-0.173235	0.419792
N65	N	2.077481	0.160098	0.753125
N66	N	2.410815	0.493431	1.086458
