data_functionalizedCrystal
_audit_creation_method	'MofGen! by Chris Wilmer'
_symmetry_space_group_name_H-M	'P1'
_symmetry_Int_Tables_number	1
_symmetry_cell_setting	triclinic
loop_
_symmetry_equiv_pos_as_xyz
  x,y,z
_cell_length_a	18.101398
_cell_length_b	18.101397
_cell_length_c	15.296720
_cell_angle_alpha	99.641375
_cell_angle_beta	99.671158
_cell_angle_gamma	90.016023
loop_
_atom_site_label
_atom_site_type_symbol
_atom_site_fract_x
_atom_site_fract_y
_atom_site_fract_z
Zn1	Zn	1.059706	-0.367326	-0.509833
Zn2	Zn	1.081069	-0.469749	-0.358971
Zn3	Zn	0.957302	-0.345923	-0.359019
Zn4	Zn	0.935844	-0.491116	-0.509800
O5	O	1.008481	-0.418528	-0.434405
O6	O	1.166174	-0.380928	-0.489814
O7	O	1.082572	-0.435423	-0.232739
O8	O	0.970927	-0.245134	-0.379059
O9	O	1.181869	-0.456177	-0.378976
O10	O	1.046162	-0.260859	-0.489861
O11	O	0.991641	-0.344449	-0.232774
O12	O	0.850822	-0.365168	-0.379027
O13	O	0.934353	-0.492595	-0.636042
O14	O	0.835057	-0.471841	-0.489805
O15	O	1.025355	-0.401647	-0.636067
O16	O	1.061765	-0.576211	-0.378944
O17	O	0.955068	-0.591910	-0.489758
C18	C	0.816068	-0.418501	-0.434418
C19	C	0.733750	-0.418510	-0.434445
C20	C	0.434665	-0.418549	-0.434407
C21	C	0.456144	-0.485892	-0.503761
C22	C	0.541722	-0.485752	-0.504046
C23	C	0.583045	-0.418530	-0.434426
C24	C	0.548282	-0.344218	-0.460410
C25	C	0.462567	-0.344633	-0.460903
C26	C	0.479791	-0.424806	-0.338901
C27	C	0.565369	-0.426590	-0.339412
C28	C	0.666903	-0.418515	-0.434435
C29	C	0.350806	-0.418559	-0.434400
C30	C	1.008423	-0.610933	-0.434362
C31	C	1.008462	-0.693248	-0.434373
C32	C	1.008545	-0.992351	-0.434455
C33	C	1.075543	-0.951091	-0.364548
C34	C	1.075715	-0.865499	-0.364729
C35	C	1.008504	-0.843963	-0.434414
C36	C	1.016145	-0.888474	-0.529498
C37	C	1.016640	-0.974065	-0.529117
C38	C	0.933638	-0.957396	-0.410102
C39	C	0.934327	-0.871445	-0.407979
C40	C	1.008479	-0.760101	-0.434396
C41	C	1.008571	-1.076214	-0.434480
C42	C	1.201644	-0.418556	-0.434393
C43	C	1.283959	-0.418568	-0.434388
C44	C	0.975078	-0.451892	-0.669702
C45	C	0.960843	-0.466109	-0.769971
C46	C	1.008555	-0.225376	-0.434469
C47	C	1.008587	-0.143065	-0.434496
C48	C	1.110243	-0.316784	-1.052664
C49	C	1.123622	-0.303428	-0.958456
C50	C	1.082928	-0.344097	-0.911330
C51	C	1.028854	-0.398125	-0.958422
C52	C	1.015478	-0.411487	-1.052639
C53	C	0.988163	-0.438800	-0.911305
C54	C	0.934089	-0.492828	-0.958396
C55	C	0.920715	-0.506187	-1.052604
C56	C	0.961409	-0.465518	-1.099730
C57	C	1.001539	-0.425437	-0.817088
C58	C	0.906774	-0.520140	-0.817062
C59	C	0.893395	-0.533497	-0.911270
C60	C	1.041796	-0.385242	-0.200024
C61	C	1.056174	-0.370816	-0.099756
H62	H	0.432678	-0.337737	-0.530722
H63	H	0.969242	-1.002440	-0.582998
F64	F	0.926472	-0.831973	-0.316521
H65	H	1.093824	-0.333218	-0.834622
F66	F	0.953542	-0.871796	-0.599410
F67	F	0.835848	-0.590997	-0.961399
F68	F	0.947176	-0.479734	-1.199999
H69	H	1.143374	-0.283682	-1.091043
H70	H	1.069805	-0.869951	-0.550478
H71	H	1.167651	-0.259439	-0.920121
H72	H	0.924076	-0.969379	-0.341970
F73	F	0.863465	-0.563430	-0.766912
F74	F	1.059087	-0.367938	-0.766980
H75	H	0.882818	-0.856757	-0.455169
H76	H	1.072519	-0.961691	-0.293833
F77	F	0.572202	-0.558344	-0.482789
H78	H	0.461545	-0.477359	-0.315288
H79	H	0.466870	-0.375589	-0.287226
F80	F	0.863175	-0.563700	-1.102720
H81	H	0.437829	-0.541637	-0.487657
F82	F	0.868608	-0.993332	-0.476651
H83	H	0.424631	-0.482936	-0.574116
H84	H	0.552164	-0.482687	-0.574810
H85	H	0.448688	-0.293416	-0.412705
H86	H	0.559927	-0.336911	-0.529470
F87	F	0.583982	-0.277622	-0.396448
H88	H	1.131476	-0.847248	-0.380841
H89	H	1.131013	-0.974826	-0.380475
F90	F	0.595551	-0.497982	-0.313801
H91	H	0.594502	-0.380022	-0.284962
H92	H	1.072501	-0.834524	-0.294225
H93	H	1.070992	-0.996918	-0.549748
