data_functionalizedCrystal
_audit_creation_method	'MofGen! by Chris Wilmer'
_symmetry_space_group_name_H-M	'P1'
_symmetry_Int_Tables_number	1
_symmetry_cell_setting	triclinic
loop_
_symmetry_equiv_pos_as_xyz
  x,y,z
_cell_length_a	13.262390
_cell_length_b	23.532407
_cell_length_c	12.376457
_cell_angle_alpha	101.199798
_cell_angle_beta	63.168449
_cell_angle_gamma	83.670349
loop_
_atom_site_label
_atom_site_type_symbol
_atom_site_fract_x
_atom_site_fract_y
_atom_site_fract_z
O1	O	1.512267	0.012087	-0.558968
O2	O	1.184918	0.032062	-0.458327
O3	O	1.358459	-0.061156	-0.511660
O4	O	1.338726	0.105304	-0.505635
O5	O	1.315090	-0.037882	-0.310319
O6	O	1.141549	0.055336	-0.256986
O7	O	1.468898	0.035361	-0.357627
Zn8	Zn	1.298337	0.049043	-0.275339
Zn9	Zn	1.355479	0.018379	-0.540614
O10	O	1.295357	0.128578	-0.304294
C11	C	1.121362	0.044719	-0.344783
C12	C	0.996596	0.047754	-0.306424
C13	C	0.739478	0.005552	-0.637317
C14	C	0.856703	0.002698	-0.673360
C15	C	0.891682	0.013962	-0.581629
C16	C	0.809425	0.028081	-0.453849
C17	C	0.692190	0.030931	-0.417804
C18	C	0.844394	0.039340	-0.362115
C19	C	0.762136	0.053459	-0.234335
C20	C	0.644914	0.056309	-0.198296
C21	C	0.609934	0.045045	-0.290027
C22	C	0.961629	0.036490	-0.398161
C23	C	0.914340	0.061868	-0.178647
C24	C	0.797116	0.064723	-0.142605
C25	C	1.336271	-0.070719	-0.410832
C26	C	1.334758	-0.133889	-0.410358
C27	C	1.427992	-0.535839	-0.439084
C28	C	1.426590	-0.595198	-0.438662
O29	O	1.513015	-0.634580	-0.465274
N30	N	1.323417	-0.614681	-0.406941
C31	C	1.221642	-0.574804	-0.375653
O32	O	1.133757	-0.596826	-0.348635
C33	C	1.223047	-0.515447	-0.376085
C34	C	1.326224	-0.495966	-0.407795
C35	C	1.531161	-0.516358	-0.470793
C36	C	1.532562	-0.457003	-0.471213
C37	C	1.430794	-0.417130	-0.439924
C38	C	1.327625	-0.436612	-0.408215
C39	C	1.121276	-0.475572	-0.344806
C40	C	1.122690	-0.416212	-0.345241
C41	C	1.225867	-0.396732	-0.376951
C42	C	1.227259	-0.337384	-0.377346
N43	N	1.330432	-0.317901	-0.409067
C44	C	1.432200	-0.357774	-0.440356
C45	C	1.218699	-0.699457	-0.374751
C46	C	1.217291	-0.758811	-0.374311
C47	C	1.422240	-0.779202	-0.437322
C48	C	1.423645	-0.719845	-0.437753
C49	C	1.321872	-0.679974	-0.406472
C50	C	1.435134	-0.233124	-0.441235
C51	C	1.436525	-0.173762	-0.441647
C52	C	1.231579	-0.153377	-0.378643
C53	C	1.230185	-0.212733	-0.378224
C54	C	1.331973	-0.252606	-0.409527
O55	O	1.140880	-0.297969	-0.350752
O56	O	1.520074	-0.335744	-0.467386
C57	C	1.532455	0.022702	-0.471174
C58	C	1.657222	0.019667	-0.509541
C59	C	1.317546	0.138141	-0.405125
C60	C	1.319061	0.201310	-0.405607
N61	N	1.259348	0.069970	-0.094299
N62	N	1.394477	-0.002553	-0.721658
C63	C	1.484983	-0.051143	0.191343
C64	C	1.512265	-0.065790	0.064619
C65	C	1.449038	-0.031851	0.024883
C66	C	1.358525	0.016737	0.111884
C67	C	1.331245	0.031388	0.238619
C68	C	1.295300	0.050680	0.072159
C69	C	1.204787	0.099268	0.159160
C70	C	1.177512	0.113917	0.285882
C71	C	1.240739	0.079978	0.325618
C72	C	1.322580	0.036029	-0.054576
C73	C	1.168842	0.118560	-0.007300
C74	C	1.141560	0.133207	0.119424
H75	H	0.577944	0.067795	-0.094250
C76	C	0.480979	0.048192	-0.250385
N77	N	0.383848	0.050564	-0.220531
H78	H	1.218523	0.091902	0.428808
H79	H	1.103819	0.153484	0.356718
C80	C	1.099285	0.155895	-0.051002
N81	N	1.046900	0.184013	-0.083928
H82	H	1.518021	-0.265583	-0.466729
C83	C	1.550033	-0.152338	-0.476536
N84	N	1.635526	-0.136204	-0.502817
C85	C	0.706620	0.080249	-0.002049
N86	N	0.638458	0.091942	0.103816
C87	C	1.103785	-0.780231	-0.339412
N88	N	1.018290	-0.796362	-0.313133
C89	C	1.106730	-0.655600	-0.340322
N90	N	1.022395	-0.622570	-0.314390
H91	H	1.616580	-0.441149	-0.497040
C92	C	1.041994	0.186652	0.215141
N93	N	0.967000	0.226907	0.287237
H94	H	1.614038	-0.548819	-0.496278
H95	H	1.028592	0.024996	-0.502200
H96	H	0.710986	-0.003623	-0.711991
C97	C	1.534190	-0.823075	-0.471753
N98	N	1.618505	-0.856122	-0.497687
H99	H	0.942819	0.071040	-0.103952
C100	C	1.422136	-0.017420	-0.150261
N101	N	1.497125	-0.057682	-0.222331
H102	H	0.923669	-0.008800	-0.777398
C103	C	1.020635	0.010816	-0.621282
N104	N	1.117769	0.008445	-0.651154
H105	H	1.507661	-0.703989	-0.463576
H106	H	1.148721	-0.120902	-0.353164
C107	C	1.007773	-0.496987	-0.309930
N108	N	0.922276	-0.513116	-0.283663
C109	C	1.010728	-0.372356	-0.310824
N110	N	0.926397	-0.339323	-0.284897
C111	C	1.116685	-0.234161	-0.343333
N112	N	1.031196	-0.250299	-0.317066
H113	H	1.471255	-0.043779	-0.078303
C114	C	1.611821	-0.119238	-0.031071
N115	N	1.686809	-0.159499	-0.103146
C116	C	1.554524	-0.088468	0.235063
N117	N	1.606906	-0.116585	0.267993
