data_functionalizedCrystal
_audit_creation_method	'MofGen! by Chris Wilmer'
_symmetry_space_group_name_H-M	'P1'
_symmetry_Int_Tables_number	1
_symmetry_cell_setting	triclinic
loop_
_symmetry_equiv_pos_as_xyz
  x,y,z
_cell_length_a	14.971491
_cell_length_b	16.109301
_cell_length_c	14.048226
_cell_angle_alpha	89.992144
_cell_angle_beta	89.991693
_cell_angle_gamma	83.538858
loop_
_atom_site_label
_atom_site_type_symbol
_atom_site_fract_x
_atom_site_fract_y
_atom_site_fract_z
O1	O	1.186788	0.108368	-0.079204
O2	O	1.686788	0.608368	0.420796
O3	O	0.926370	0.121339	-0.079198
O4	O	1.426370	0.621339	0.420802
O5	O	1.063733	-0.006169	-0.079192
O6	O	1.563733	0.493831	0.420808
O7	O	1.049425	0.235875	-0.079211
O8	O	1.549425	0.735875	0.420789
O9	O	1.063716	-0.006176	0.079130
O10	O	1.563716	0.493824	0.579130
O11	O	0.926353	0.121331	0.079124
O12	O	1.426353	0.621331	0.579124
O13	O	1.186771	0.108361	0.079117
O14	O	1.686771	0.608361	0.579117
Zn15	Zn	1.056560	0.114845	0.104257
Zn16	Zn	1.556560	0.614845	0.604257
Zn17	Zn	1.056581	0.114855	-0.104338
Zn18	Zn	1.556581	0.614855	0.395662
O19	O	1.049408	0.235868	0.079111
O20	O	1.549408	0.735868	0.579111
C21	C	0.893038	0.120754	-0.000036
C22	C	1.393038	0.620754	0.499964
C23	C	0.793743	0.119013	-0.000033
C24	C	1.293743	0.619013	0.499967
C25	C	0.366058	0.111507	-0.086356
C26	C	0.866058	0.611507	0.413644
C27	C	0.459355	0.113140	-0.086352
C28	C	0.959355	0.613140	0.413648
C29	C	0.505991	0.113958	-0.000048
C30	C	1.005991	0.613958	0.499952
C31	C	0.459325	0.113134	0.086258
C32	C	0.959325	0.613134	0.586258
C33	C	0.366030	0.111495	0.086254
C34	C	0.866030	0.611495	0.586254
C35	C	0.653782	0.116552	0.086262
C36	C	1.153782	0.616552	0.586262
C37	C	0.747083	0.118192	0.086266
C38	C	1.247083	0.618192	0.586266
C39	C	0.747108	0.118197	-0.086345
C40	C	1.247108	0.618197	0.413655
C41	C	0.653812	0.116558	-0.086349
C42	C	1.153812	0.616558	0.413651
C43	C	0.607152	0.115736	-0.000042
C44	C	1.107152	0.615736	0.499958
C45	C	1.063145	-0.037148	-0.000030
C46	C	1.563145	0.462852	0.499970
C47	C	1.061407	-0.129445	-0.000029
C48	C	1.561407	0.370555	0.499971
C49	C	1.138876	-0.351620	-0.000046
C50	C	1.638876	0.148380	0.499954
C51	C	1.137236	-0.438342	-0.000054
C52	C	1.637236	0.061658	0.499946
C53	C	0.974259	-0.418674	-0.000046
C54	C	1.474259	0.081326	0.499954
C55	C	0.975900	-0.331953	-0.000045
C56	C	1.475900	0.168047	0.499955
C57	C	1.058211	-0.298429	-0.000040
C58	C	1.558211	0.201571	0.499960
C59	C	1.054930	-0.471872	-0.000049
C60	C	1.554930	0.028128	0.499951
C61	C	1.053152	-0.565900	-0.000057
C62	C	1.553152	-0.065900	0.499943
C63	C	1.059989	-0.204395	-0.000034
C64	C	1.559989	0.295605	0.499966
C65	C	1.220103	0.108945	-0.000047
C66	C	1.720103	0.608945	0.499953
C67	C	1.319398	0.110686	-0.000056
C68	C	1.819398	0.610686	0.499944
C69	C	1.049996	0.266847	-0.000053
C70	C	1.549996	0.766847	0.499947
C71	C	1.051734	0.359145	-0.000060
C72	C	1.551734	0.859145	0.499940
N73	N	1.056551	0.114837	0.246618
N74	N	1.556551	0.614837	0.746618
N75	N	1.056597	0.114855	-0.246699
N76	N	1.556597	0.614855	0.253301
C77	C	1.117395	0.058401	0.296439
C78	C	1.617395	0.558401	0.796439
C79	C	1.117401	0.058400	0.396096
C80	C	1.617401	0.558400	0.896096
C81	C	1.056567	0.114841	0.445931
C82	C	1.556567	0.614841	0.945931
C83	C	0.995717	0.171281	0.396104
C84	C	1.495717	0.671281	0.896104
C85	C	0.995707	0.171276	0.296448
C86	C	1.495707	0.671276	0.796448
C87	C	0.995743	0.171287	0.603818
C88	C	1.495743	0.671287	1.103818
C89	C	0.995753	0.171292	0.703480
C90	C	1.495753	0.671292	1.203480
C91	C	1.117436	0.058410	0.703466
C92	C	1.617436	0.558410	1.203466
C93	C	1.117427	0.058406	0.603810
C94	C	1.617427	0.558406	1.103810
C95	C	1.056578	0.114847	0.553990
C96	C	1.556578	0.614847	1.053990
H97	H	1.205898	-0.324328	-0.000044
H98	H	1.705898	0.175672	0.499956
H99	H	0.615843	0.115898	-0.156626
H100	H	1.115843	0.615898	0.343374
C101	C	0.877876	-0.504788	-0.081423
C102	C	1.377876	-0.004788	0.418577
C103	C	0.883788	-0.455531	-0.000040
C104	C	1.383788	0.044469	0.499960
H105	H	0.822024	-0.527544	-0.081413
H106	H	1.322024	-0.027544	0.418587
H107	H	0.881900	-0.471360	-0.136624
H108	H	1.381900	0.028640	0.363376
H109	H	0.925688	-0.548875	-0.081416
H110	H	1.425688	-0.048875	0.418584
H111	H	0.835979	-0.411440	-0.000052
H112	H	1.335979	0.088560	0.499948
H113	H	0.879755	-0.488961	0.055175
H114	H	1.379755	0.011039	0.555175
C115	C	0.873965	0.189124	0.184411
C116	C	1.373965	0.689124	0.684411
C117	C	0.928827	0.233315	0.241682
C118	C	1.428827	0.733315	0.741682
H119	H	0.832670	0.227425	0.150608
H120	H	1.332670	0.727425	0.650608
H121	H	0.910193	0.155518	0.140475
H122	H	1.410193	0.655518	0.640475
H123	H	0.841813	0.154469	0.223317
H124	H	1.341813	0.654469	0.723317
H125	H	0.960984	0.267965	0.202776
H126	H	1.460984	0.767965	0.702776
H127	H	0.892594	0.266936	0.285624
H128	H	1.392594	0.766936	0.785624
H129	H	0.910209	-0.288642	-0.000043
H130	H	1.410209	0.211358	0.499957
C131	C	0.375463	0.111671	-0.256972
C132	C	0.875463	0.611671	0.243028
C133	C	0.314800	0.110609	-0.181226
C134	C	0.814800	0.610609	0.318774
H135	H	0.343819	0.111111	-0.315541
H136	H	0.843819	0.611111	0.184459
H137	H	0.405013	0.160752	-0.253386
H138	H	0.905013	0.660752	0.246614
H139	H	0.418689	0.063861	-0.253366
H140	H	0.918689	0.563861	0.246634
H141	H	0.271578	0.158423	-0.184828
H142	H	0.771578	0.658423	0.315172
H143	H	0.285235	0.061523	-0.184814
H144	H	0.785235	0.561523	0.315186
C145	C	0.663123	0.116722	0.256885
C146	C	1.163123	0.616722	0.756885
C147	C	0.602491	0.115652	0.181131
C148	C	1.102491	0.615652	0.681131
H149	H	0.631455	0.116174	0.315450
H150	H	1.131455	0.616174	0.815450
H151	H	0.706345	0.068918	0.253307
H152	H	1.206345	0.568918	0.753307
H153	H	0.692678	0.165809	0.253281
H154	H	1.192678	0.665809	0.753281
H155	H	0.572941	0.066561	0.184732
H156	H	1.072941	0.566561	0.684732
H157	H	0.559253	0.163461	0.184711
H158	H	1.059253	0.663461	0.684711
H159	H	1.166936	0.012443	0.255869
H160	H	1.666936	0.512443	0.755869
C161	C	0.375370	0.111664	0.256872
C162	C	0.875370	0.611664	0.756872
C163	C	0.314737	0.110596	0.181117
C164	C	0.814737	0.610596	0.681117
H165	H	0.343702	0.111111	0.315437
H166	H	0.843702	0.611111	0.815437
H167	H	0.418594	0.063861	0.253289
H168	H	0.918594	0.563861	0.753289
H169	H	0.404922	0.160753	0.253271
H170	H	0.904922	0.660753	0.753271
H171	H	0.285189	0.061504	0.184714
H172	H	0.785189	0.561504	0.684714
H173	H	0.271497	0.158404	0.184701
H174	H	0.771497	0.658404	0.684701
C175	C	1.298493	-0.449067	-0.000047
C176	C	1.798493	0.050933	0.499953
C177	C	1.225906	-0.496810	-0.000054
C178	C	1.725906	0.003190	0.499946
H179	H	1.353236	-0.485165	-0.000042
H180	H	1.853236	0.014835	0.499958
H181	H	1.295750	-0.414828	-0.055252
H182	H	1.795750	0.085172	0.444748
H183	H	1.295729	-0.414839	0.055168
H184	H	1.795729	0.085161	0.555168
H185	H	1.228667	-0.531034	-0.055273
H186	H	1.728667	-0.031034	0.444727
H187	H	1.228650	-0.531064	0.055157
H188	H	1.728650	-0.031064	0.555157
H189	H	0.946181	0.217233	0.436685
H190	H	1.446181	0.717233	0.936685
C191	C	0.976295	0.284423	0.815526
C192	C	1.476295	0.784423	1.315526
C193	C	0.928876	0.233330	0.758254
C194	C	1.428876	0.733330	1.258254
H195	H	0.935004	0.322726	0.849334
H196	H	1.435004	0.822726	1.349334
H197	H	1.012527	0.250818	0.859459
H198	H	1.512527	0.750818	1.359459
H199	H	1.013502	0.314389	0.776621
H200	H	1.513502	0.814389	1.276621
H201	H	0.891673	0.203359	0.797160
H202	H	1.391673	0.703359	1.297160
H203	H	0.892628	0.266940	0.714316
H204	H	1.392628	0.766940	1.214316
H205	H	1.166943	0.012445	0.436660
H206	H	1.666943	0.512445	0.936660
C207	C	1.170036	-0.085445	0.734146
C208	C	1.670036	0.414555	1.234146
C209	C	1.184327	-0.003633	0.758219
C210	C	1.684327	0.496367	1.258219
H211	H	1.211338	-0.123742	0.767946
H212	H	1.711338	0.376258	1.267946
H213	H	1.110359	-0.094569	0.750504
H214	H	1.610359	0.405431	1.250504
H215	H	1.178735	-0.093508	0.667660
H216	H	1.678735	0.406492	1.167660
H217	H	1.175621	0.004432	0.824704
H218	H	1.675621	0.504432	1.324704
H219	H	1.244018	0.005495	0.741867
H220	H	1.744018	0.505495	1.241867
H221	H	1.166966	0.012452	0.563235
H222	H	1.666966	0.512452	1.063235
H223	H	0.946190	0.217244	0.563257
H224	H	1.446190	0.717244	1.063257
H225	H	0.785102	0.118867	-0.156619
H226	H	1.285102	0.618867	0.343381
H227	H	0.785051	0.118863	0.156543
H228	H	1.285051	0.618863	0.656543
C229	C	0.554212	0.186401	-0.186491
C230	C	1.054212	0.686401	0.313509
C231	C	0.510642	0.114047	-0.181217
C232	C	1.010642	0.614047	0.318783
H233	H	0.585877	0.186957	-0.245057
H234	H	1.085877	0.686957	0.254943
H235	H	0.510982	0.234199	-0.182908
H236	H	1.010982	0.734199	0.317092
H237	H	0.595339	0.187109	-0.135089
H238	H	1.095339	0.687109	0.364911
H239	H	0.469510	0.113342	-0.232615
H240	H	0.969510	0.613342	0.267385
H241	H	0.553877	0.066237	-0.184809
H242	H	1.053877	0.566237	0.315191
H243	H	0.497304	0.113795	0.156529
H244	H	0.997304	0.613795	0.656529
