data_functionalizedCrystal
_audit_creation_method	'MofGen! by Chris Wilmer'
_symmetry_space_group_name_H-M	'P1'
_symmetry_Int_Tables_number	1
_symmetry_cell_setting	triclinic
loop_
_symmetry_equiv_pos_as_xyz
  x,y,z
_cell_length_a	16.704494
_cell_length_b	23.196402
_cell_length_c	23.196401
_cell_angle_alpha	59.997914
_cell_angle_beta	90.005633
_cell_angle_gamma	63.427293
loop_
_atom_site_label
_atom_site_type_symbol
_atom_site_fract_x
_atom_site_fract_y
_atom_site_fract_z
Zr1	Zr	0.735388	0.685394	-0.102843
O2	O	0.613481	0.796663	-0.190392
O3	O	0.772756	0.567886	-0.076005
O4	O	0.772731	0.688171	-0.196282
O5	O	0.613530	0.676363	0.024763
O6	O	0.898353	0.697460	-0.200927
O7	O	0.613507	0.676378	-0.070115
O8	O	0.898398	0.482291	0.014226
O9	O	0.613485	0.891532	-0.190391
O10	O	0.882447	0.625462	-0.068025
O11	O	0.788714	0.618519	0.006248
O12	O	0.788685	0.760140	-0.135362
O13	O	0.694951	0.753197	-0.061089
Zr14	Zr	0.935778	0.700185	0.041068
Zr15	Zr	0.935741	0.700209	-0.110251
Zr16	Zr	0.735425	0.685371	0.048477
Zr17	Zr	0.735394	0.836699	-0.102840
Zr18	Zr	0.935773	0.548880	0.041066
O19	O	0.898410	0.817694	0.014231
O20	O	0.898358	0.817727	-0.200926
O21	O	0.613534	0.796630	0.024765
O22	O	1.057685	0.588917	0.128618
O23	O	1.057633	0.588950	-0.086539
O24	O	0.772809	0.567853	0.139151
O25	O	1.057637	0.709217	-0.086537
O26	O	0.898436	0.697408	0.134508
O27	O	0.772813	0.688120	0.139153
O28	O	1.057660	0.709202	0.008341
O29	O	0.772739	0.903308	-0.196279
O30	O	0.898428	0.482272	0.134505
O31	O	1.057682	0.494048	0.128616
O32	O	1.057652	0.494066	0.008338
O33	O	0.613514	0.891514	-0.070112
O34	O	0.772768	0.903289	-0.076000
O35	O	0.882482	0.625440	0.073588
O36	O	0.976215	0.632383	-0.000685
O37	O	0.882452	0.767061	-0.068023
O38	O	0.788719	0.760118	0.006250
C39	C	0.835577	0.503531	-0.030890
C40	C	0.835574	0.439298	-0.030891
C41	C	0.766381	0.023608	-0.080598
C42	C	0.766373	0.083965	-0.080597
C43	C	0.835591	0.066992	-0.030888
C44	C	0.904808	-0.010348	0.018835
C45	C	0.904809	-0.070703	0.018838
C46	C	0.920067	0.128814	-0.017722
C47	C	0.920066	0.189170	-0.017729
C48	C	0.835590	0.253145	-0.030890
C49	C	0.751108	0.256764	-0.044060
C50	C	0.751109	0.196410	-0.044057
C51	C	0.835598	0.132431	-0.030884
C52	C	0.766365	0.395920	-0.080607
C53	C	0.766357	0.456276	-0.080601
C54	C	0.904799	0.361960	0.018828
C55	C	0.904800	0.301607	0.018826
C56	C	0.835583	0.318592	-0.030895
C57	C	0.584972	0.674260	-0.021620
C58	C	0.499917	0.667971	-0.018475
C59	C	0.242191	0.796769	-0.082883
C60	C	0.162271	0.790864	-0.079930
C61	C	0.260157	0.650255	-0.009620
C62	C	0.340076	0.656160	-0.012574
C63	C	0.331088	0.729420	-0.049205
C64	C	0.411010	0.735325	-0.052154
C65	C	0.508893	0.594717	0.018151
C66	C	0.428974	0.588811	0.021104
C67	C	1.086195	0.711320	-0.040154
C68	C	1.171250	0.717609	-0.043299
C69	C	0.835537	0.692819	-0.220165
C70	C	0.835521	0.692829	-0.284404
C71	C	0.835590	0.882049	-0.030884
C72	C	0.835592	0.946282	-0.030884
C73	C	0.904730	0.697948	-0.317126
C74	C	0.904751	0.697933	-0.377473
C75	C	0.835548	0.692815	-0.405104
C76	C	0.766334	0.687691	-0.372372
C77	C	0.766320	0.687698	-0.312022
C78	C	0.751092	0.734065	-0.521362
C79	C	0.751105	0.734063	-0.581713
C80	C	0.835590	0.692789	-0.591242
C81	C	0.920066	0.651527	-0.540416
C82	C	0.920053	0.651535	-0.480066
C83	C	0.835556	0.692806	-0.470543
C84	C	0.904826	0.697890	-0.689399
C85	C	0.904848	0.697871	-0.749745
C86	C	0.766423	0.687636	-0.744646
C87	C	0.766409	0.687648	-0.684297
C88	C	0.835610	0.692779	-0.656679
C89	C	0.835630	0.692761	0.158390
C90	C	0.835645	0.692751	0.222629
C91	C	1.086188	0.522061	-0.040157
C92	C	1.171241	0.464117	-0.043303
C93	C	0.835623	0.503501	0.158388
C94	C	0.835636	0.439259	0.222626
C95	C	1.086234	0.522032	0.149121
C96	C	1.171303	0.464078	0.210214
C97	C	0.584933	0.863548	-0.210895
C98	C	0.499864	0.921502	-0.271988
C99	C	0.584979	0.863519	-0.021618
C100	C	0.499926	0.921463	-0.018472
C101	C	0.835544	0.882078	-0.220162
C102	C	0.835530	0.946321	-0.284400
C103	C	1.162236	0.433293	-0.079937
C104	C	1.242145	0.378857	-0.082907
C105	C	1.331057	0.355241	-0.049238
C106	C	1.340059	0.386070	-0.012602
C107	C	1.260151	0.440510	-0.009637
C108	C	0.884588	0.412702	0.287950
C109	C	0.884598	0.352348	0.348314
C110	C	0.835659	0.318547	0.343353
C111	C	0.786701	0.345108	0.278022
C112	C	0.786687	0.405466	0.217659
C113	C	1.260188	0.440487	0.200134
C114	C	1.340127	0.386042	0.257531
C115	C	1.331178	0.355185	0.325008
C116	C	1.242283	0.378782	0.335087
C117	C	1.162347	0.433229	0.277690
C118	C	0.410979	0.945100	-0.261908
C119	C	0.331040	0.999564	-0.319306
C120	C	0.339989	1.030424	-0.386782
C121	C	0.428883	1.006824	-0.396861
C122	C	0.508820	0.952365	-0.339465
C123	C	0.508930	0.952293	0.018156
C124	C	0.429022	1.006746	0.021109
C125	C	0.340110	1.030364	-0.012562
C126	C	0.331108	0.999532	-0.049195
C127	C	0.411015	0.945084	-0.052151
C128	C	0.884478	0.980104	-0.279417
C129	C	0.884484	1.040460	-0.339770
C130	C	0.835536	1.067036	-0.405106
C131	C	0.786586	1.033248	-0.410088
C132	C	0.786587	0.972889	-0.349735
H133	H	0.710017	0.037445	-0.121083
F134	F	0.692778	0.682182	-0.774046
H135	H	1.089847	0.452521	-0.107363
F136	F	0.438393	1.039673	-0.468681
F137	F	0.236473	1.024674	-0.085025
F138	F	1.434726	0.360937	0.246790
H139	H	0.835543	1.116185	-0.454243
F140	F	0.692656	0.682250	-0.277195
F141	F	0.254904	1.088383	-0.447864
H142	H	0.403671	0.919983	-0.081976
F143	F	0.236441	1.024668	-0.308564
H144	H	0.746857	0.317579	0.273993
F145	F	0.603514	0.523034	0.053989
H146	H	0.710001	0.146935	-0.121073
H147	H	0.710050	0.683485	-0.657655
H148	H	0.581192	0.933152	-0.347680
H149	H	0.581319	0.933068	0.045581
F150	F	1.416094	0.297299	-0.052399
F151	F	1.232544	0.346052	-0.121898
F152	F	0.438622	1.039549	0.060102
F153	F	0.936580	1.076413	-0.334453
F154	F	0.734587	0.433719	0.148138
H155	H	1.396275	0.310851	0.371738
H156	H	0.275052	1.074700	-0.010149
F157	F	0.936579	0.951831	-0.209887
F158	F	1.009989	0.607600	-0.550552
F159	F	0.734489	1.061545	-0.479629
H160	H	1.089975	0.452429	0.285908
F161	F	0.978416	0.703381	-0.412304
F162	F	1.009978	0.185316	-0.003720
H163	H	1.267492	0.465603	0.145196
H164	H	0.924440	0.440217	0.292003
F165	F	0.734479	0.936946	-0.355050
F166	F	0.978463	0.343891	0.071736
H167	H	0.403688	0.794977	-0.081973
H168	H	0.682319	0.308855	-0.054778
F169	F	0.661200	0.200261	-0.058069
F170	F	1.232774	0.345934	0.406906
H171	H	0.403675	0.919976	-0.206970
H172	H	0.710003	0.409750	-0.121091
H173	H	0.267457	0.590611	0.020202
F174	F	1.269749	0.473305	0.029361
H175	H	0.234872	0.856420	-0.112694
F176	F	0.936710	0.324088	0.417837
H177	H	0.709993	0.519241	-0.121085
H178	H	0.682320	0.767664	-0.623094
H179	H	1.412462	0.366834	0.014810
H180	H	0.961162	0.238643	0.059306
F181	F	1.009983	0.060734	-0.003722
H182	H	0.961165	-0.024164	0.059310
H183	H	0.089889	0.845707	-0.107355
F184	F	0.438527	0.510848	0.060087
F185	F	0.978381	0.703404	-0.287732
F186	F	0.978476	-0.153005	0.071753
H187	H	0.961177	0.702065	-0.666910
F188	F	1.009956	0.607618	-0.425975
H189	H	0.961210	0.702034	-0.776386
H190	H	0.682289	0.767668	-0.513607
F191	F	0.835683	0.254308	0.407603
H192	H	0.709989	0.683521	-0.394870
