data_functionalizedCrystal
_audit_creation_method	'MofGen! by Chris Wilmer'
_symmetry_space_group_name_H-M	'P1'
_symmetry_Int_Tables_number	1
_symmetry_cell_setting	triclinic
loop_
_symmetry_equiv_pos_as_xyz
  x,y,z
_cell_length_a	14.628931
_cell_length_b	14.628931
_cell_length_c	27.440280
_cell_angle_alpha	89.996247
_cell_angle_beta	120.001028
_cell_angle_gamma	60.000164
loop_
_atom_site_label
_atom_site_type_symbol
_atom_site_fract_x
_atom_site_fract_y
_atom_site_fract_z
Zr1	Zr	1.000589	0.880606	0.063956
O2	O	1.191308	0.734630	0.141774
O3	O	0.809880	0.925355	0.040100
O4	O	1.000603	0.925335	0.141774
O5	O	1.000572	0.734667	-0.040101
O6	O	1.000603	1.075767	0.141774
O7	O	1.000585	0.734650	0.040101
O8	O	0.659434	1.075804	-0.040102
O9	O	1.341740	0.734630	0.141775
O10	O	0.888318	1.056706	0.029926
O11	O	0.888308	0.944453	-0.029927
O12	O	1.112860	0.944429	0.089780
O13	O	1.112849	0.832176	0.029927
Zr14	Zr	1.000567	1.120554	-0.063957
Zr15	Zr	1.000589	1.120528	0.063956
Zr16	Zr	1.000567	0.880632	-0.063956
Zr17	Zr	1.240511	0.880606	0.063956
Zr18	Zr	0.760646	1.120553	-0.063957
O19	O	1.191277	1.075804	-0.040101
O20	O	1.191308	1.075767	0.141774
O21	O	1.191277	0.734667	-0.040101
O22	O	0.809849	1.266530	-0.141775
O23	O	0.809880	1.266493	0.040100
O24	O	0.809849	0.925393	-0.141775
O25	O	1.000585	1.266493	0.040100
O26	O	1.000554	1.075825	-0.141775
O27	O	1.000554	0.925393	-0.141775
O28	O	1.000572	1.266510	-0.040101
O29	O	1.341740	0.925335	0.141774
O30	O	0.659417	1.075824	-0.141775
O31	O	0.659417	1.266530	-0.141775
O32	O	0.659434	1.266509	-0.040102
O33	O	1.341723	0.734651	0.040101
O34	O	1.341723	0.925356	0.040101
O35	O	0.888297	1.056731	-0.089781
O36	O	0.888308	1.168984	-0.029927
O37	O	1.112849	1.056707	0.029927
O38	O	1.112839	0.944453	-0.029927
C39	C	0.700473	1.000579	-0.000001
C40	C	0.598620	1.000579	-0.000001
C41	C	1.000578	0.700475	0.000000
C42	C	1.000578	0.598622	0.000000
C43	C	0.447941	0.944895	-0.029691
C44	C	0.553211	0.944894	-0.029692
C45	C	1.000571	0.553221	-0.041990
C46	C	1.000571	0.447951	-0.041991
C47	C	1.300684	1.000580	-0.000000
C48	C	1.402537	1.000581	-0.000000
C49	C	1.000606	1.000547	0.159999
C50	C	1.000615	1.000536	0.214301
C51	C	1.000578	1.300685	-0.000001
C52	C	1.000578	1.402538	-0.000001
C53	C	1.000579	0.917693	0.448991
C54	C	1.000579	0.917688	0.397971
O55	O	1.000535	0.847229	0.371570
N56	N	1.000588	1.000559	0.372457
C57	C	1.000583	1.083445	0.397963
O58	O	1.000589	1.153933	0.371577
C59	C	1.000573	1.083453	0.448980
C60	C	1.000577	1.000571	0.474494
C61	C	1.000582	0.834818	0.474505
C62	C	1.000583	0.834821	0.525522
C63	C	1.000582	0.917700	0.551026
C64	C	1.000579	1.000575	0.525512
C65	C	1.000558	1.166344	0.474482
C66	C	1.000547	1.166345	0.525502
C67	C	1.000552	1.083463	0.551017
C68	C	1.000579	1.083457	0.602032
N69	N	1.000570	1.000586	0.627546
C70	C	1.000572	0.917708	0.602042
C71	C	1.000601	1.083423	0.290824
C72	C	1.000621	1.083412	0.239811
C73	C	1.000615	0.917655	0.239821
C74	C	1.000605	0.917663	0.290838
C75	C	1.000593	1.000553	0.316337
C76	C	1.000577	0.917721	0.709183
C77	C	1.000584	0.917729	0.760206
C78	C	1.000582	1.083488	0.760189
C79	C	1.000582	1.083477	0.709172
C80	C	1.000575	1.000588	0.683669
O81	O	1.000618	1.153883	0.628464
O82	O	1.000549	0.847240	0.628430
C83	C	1.000561	1.000609	0.840003
C84	C	1.000582	1.000607	0.785709
C85	C	0.700473	1.300685	-0.000001
C86	C	0.598620	1.402538	-0.000001
C87	C	0.700446	1.000612	-0.160000
C88	C	0.598583	1.000623	-0.214302
C89	C	0.700446	1.300718	-0.160000
C90	C	0.598583	1.402581	-0.214302
C91	C	1.300711	0.700442	0.159999
C92	C	1.402574	0.598578	0.214302
C93	C	1.300684	0.700475	0.000000
C94	C	1.402537	0.598622	0.000000
C95	C	1.300711	1.000548	0.159999
C96	C	1.402574	1.000537	0.214301
C97	C	0.550743	1.059236	-0.271051
C98	C	0.455045	1.059242	-0.322079
C99	C	0.407185	1.000641	-0.316356
C100	C	0.455035	0.942021	-0.259601
C101	C	0.550737	0.942009	-0.208574
C102	C	0.550753	1.509023	-0.208560
C103	C	0.455056	1.604744	-0.259578
C104	C	0.407184	1.594021	-0.316338
C105	C	0.455024	1.487569	-0.322079
C106	C	0.550726	1.391850	-0.271061
C107	C	1.450415	0.492137	0.208560
C108	C	1.546142	0.396416	0.259578
C109	C	1.594019	0.407138	0.316337
C110	C	1.546173	0.513591	0.322078
C111	C	1.450455	0.609310	0.271061
C112	C	1.450404	1.059149	0.208559
C113	C	1.546102	1.059161	0.259577
C114	C	1.593974	1.000553	0.316337
C115	C	1.546134	0.941938	0.322077
C116	C	1.450431	0.941934	0.271060
C117	C	0.553216	1.392249	0.029690
C118	C	0.447946	1.497518	0.029691
H119	H	0.408873	0.897228	-0.055114
O120	O	0.546901	1.517434	-0.033664
H121	H	0.596186	1.508957	-0.055408
H122	H	1.411498	0.894200	0.275744
O123	O	1.000577	1.172874	0.787704
H124	H	1.088219	1.168795	0.801281
O125	O	1.597694	1.122376	0.253375
H126	H	1.579308	1.187166	0.275110
O127	O	1.000567	0.396244	-0.089613
H128	H	1.000577	0.321670	-0.082138
O129	O	1.000562	0.828317	0.681685
H130	H	0.912911	0.868166	0.635081
H131	H	0.592284	1.305508	0.055113
H132	H	1.000578	0.441578	0.035949
H133	H	0.559586	1.048251	0.025423
H134	H	1.671901	1.000565	0.357873
O135	O	0.303957	1.000668	-0.371397
H136	H	0.278711	0.950068	-0.357889
O137	O	0.396245	1.486064	0.063370
H138	H	0.321685	1.570543	0.058091
H139	H	1.000592	0.559554	0.035951
O140	O	0.454280	1.063723	0.033678
H141	H	0.435925	1.128457	0.002117
H142	H	1.000572	0.592281	-0.077937
O143	O	0.303948	1.697265	-0.371363
H144	H	0.278727	1.773078	-0.357828
H145	H	1.000591	0.850232	0.780979
O146	O	1.000647	0.745397	0.553055
H147	H	1.000663	0.687767	0.526746
O148	O	1.000595	0.745414	0.447005
H149	H	1.000606	0.687792	0.473328
O150	O	1.597784	0.878713	0.383298
H151	H	1.672380	0.888558	0.417803
H152	H	1.000608	0.850174	0.311608
O153	O	0.604880	0.881779	-0.063388
H154	H	0.679428	0.891709	-0.058115
H155	H	0.589716	1.517775	-0.162349
O156	O	0.602351	1.122444	-0.277237
H157	H	0.583972	1.187226	-0.255497
O158	O	1.000586	0.828275	0.212302
H159	H	1.000570	0.842212	0.172535
O160	O	0.403453	1.719553	-0.253381
H161	H	0.452805	1.710919	-0.205340
O162	O	0.454236	1.610073	-0.033681
H163	H	0.497884	1.656511	-0.015640
O164	O	1.000623	1.172801	0.212295
H165	H	1.000611	1.230433	0.238602
O166	O	1.000628	1.172811	0.318337
H167	H	1.000653	1.230418	0.292026
O168	O	0.403364	1.476023	-0.383302
H169	H	0.483674	1.429568	-0.388509
O170	O	1.398786	0.480560	0.147343
H171	H	1.479120	0.434111	0.142152
O172	O	1.000533	1.255749	0.446965
H173	H	1.000508	1.313382	0.473272
O174	O	1.000553	1.255740	0.553012
H175	H	1.000565	1.313358	0.526699
H176	H	1.000597	1.150958	0.688403
H177	H	0.416097	1.106982	-0.368287
O178	O	0.403373	0.878853	-0.253431
H179	H	0.328768	0.888739	-0.298450
O180	O	0.602127	0.878902	-0.147387
H181	H	0.645681	0.788825	-0.142163
O182	O	0.602285	1.277044	-0.277257
H183	H	0.552897	1.285681	-0.325298
H184	H	1.671959	0.329189	0.357874
O185	O	1.597715	0.281607	0.253380
H186	H	1.548313	0.290241	0.205340
H187	H	1.585167	0.522309	0.368297
O188	O	1.398838	0.724116	0.277256
H189	H	1.448207	0.715479	0.325297
H190	H	1.411441	1.106875	0.162347
