data_functionalizedCrystal
_audit_creation_method	'MofGen! by Chris Wilmer'
_symmetry_space_group_name_H-M	'P1'
_symmetry_Int_Tables_number	1
_symmetry_cell_setting	triclinic
loop_
_symmetry_equiv_pos_as_xyz
  x,y,z
_cell_length_a	12.759395
_cell_length_b	19.805405
_cell_length_c	19.805399
_cell_angle_alpha	90.030709
_cell_angle_beta	89.986447
_cell_angle_gamma	89.972053
loop_
_atom_site_label
_atom_site_type_symbol
_atom_site_fract_x
_atom_site_fract_y
_atom_site_fract_z
Zn1	Zn	1.606111	0.269442	-0.382651
Zn2	Zn	2.106111	0.769442	0.117349
Zn3	Zn	1.605987	0.382633	-0.269460
Zn4	Zn	2.105987	0.882633	0.230540
Zn5	Zn	1.430431	0.269466	-0.269483
Zn6	Zn	1.930431	0.769466	0.230517
Zn7	Zn	1.430366	0.382597	-0.382613
Zn8	Zn	1.930366	0.882597	0.117387
O9	O	1.518224	0.326035	-0.326052
O10	O	2.018224	0.826035	0.173948
O11	O	1.753116	0.284461	-0.367643
O12	O	2.253116	0.784461	0.132357
O13	O	1.582674	0.367646	-0.174746
O14	O	2.082674	0.867646	0.325254
O15	O	1.453814	0.174746	-0.284520
O16	O	1.953814	0.674746	0.215480
O17	O	1.753025	0.367623	-0.284481
O18	O	2.253025	0.867623	0.215519
O19	O	1.582886	0.174728	-0.367665
O20	O	2.082886	0.674728	0.132335
O21	O	1.453694	0.284503	-0.174763
O22	O	1.953694	0.784503	0.325237
O23	O	1.283401	0.284469	-0.284483
O24	O	1.783401	0.784469	0.215517
O25	O	1.453703	0.367562	-0.477335
O26	O	1.953703	0.867562	0.022665
O27	O	1.283353	0.367585	-0.367600
O28	O	1.783353	0.867585	0.132400
O29	O	1.582823	0.284427	-0.477363
O30	O	2.082823	0.784427	0.022637
O31	O	1.582612	0.477345	-0.284444
O32	O	2.082612	0.977345	0.215556
O33	O	1.453583	0.477319	-0.367577
O34	O	1.953583	0.977319	0.132423
C35	C	1.245256	0.326026	-0.326040
C36	C	1.745256	0.826026	0.173960
C37	C	1.128479	0.326039	-0.326051
C38	C	1.628479	0.826039	0.173949
C39	C	1.128468	0.412729	-0.412460
C40	C	1.628468	0.912729	0.087540
C41	C	1.073602	0.456079	-0.455667
C42	C	1.573602	0.956079	0.044333
C43	C	0.963880	0.456087	-0.455675
C44	C	1.463880	0.956087	0.044325
C45	C	0.909023	0.412739	-0.412474
C46	C	1.409023	0.912739	0.087526
C47	C	0.963889	0.369389	-0.369267
C48	C	1.463889	0.869389	0.130733
C49	C	1.073613	0.369387	-0.369262
C50	C	1.573613	0.869387	0.130738
C51	C	0.963900	0.282697	-0.282862
C52	C	1.463900	0.782697	0.217138
C53	C	1.073622	0.282691	-0.282850
C54	C	1.573622	0.782691	0.217150
C55	C	0.909042	0.239349	-0.239661
C56	C	1.409042	0.739349	0.260339
C57	C	0.963909	0.196001	-0.196450
C58	C	1.463909	0.696001	0.303550
C59	C	1.073637	0.195995	-0.196443
C60	C	1.573637	0.695995	0.303557
C61	C	1.128488	0.239341	-0.239643
C62	C	1.628488	0.739341	0.260357
C63	C	1.518105	0.501891	-0.326019
C64	C	2.018105	1.001891	0.173981
C65	C	1.518151	0.577123	-0.326028
C66	C	2.018151	1.077123	0.173972
C67	C	1.518270	0.325988	-0.502594
C68	C	2.018270	0.825988	-0.002594
C69	C	1.518289	0.325968	-0.577826
C70	C	2.018289	0.825968	-0.077826
C71	C	1.792257	0.326043	-0.326064
C72	C	2.292257	0.826043	0.173936
C73	C	1.909034	0.326047	-0.326069
C74	C	2.409034	0.826047	0.173931
C75	C	1.518371	0.149492	-0.326099
C76	C	2.018371	0.649492	0.173901
C77	C	1.518434	0.074260	-0.326120
C78	C	2.018434	0.574260	0.173880
C79	C	1.585401	0.612458	-0.282785
C80	C	2.085401	1.112458	0.217215
C81	C	1.585446	0.683146	-0.282800
C82	C	2.085446	1.183146	0.217200
C83	C	1.518234	0.718498	-0.326055
C84	C	2.018234	1.218498	0.173945
C85	C	1.450981	0.683158	-0.369302
C86	C	1.950981	1.183158	0.130698
C87	C	1.450942	0.612471	-0.369289
C88	C	1.950942	1.112471	0.130711
C89	C	1.451136	0.968231	-0.369352
C90	C	1.951136	1.468231	0.130648
C91	C	1.451177	1.038923	-0.369359
C92	C	1.951177	1.538923	0.130641
C93	C	1.585639	1.038907	-0.282863
C94	C	2.085639	1.538907	0.217137
C95	C	1.585601	0.968220	-0.282851
C96	C	2.085601	1.468220	0.217149
C97	C	1.518352	0.932885	-0.326100
C98	C	2.018352	1.432885	0.173900
C99	C	1.518306	0.856237	-0.326084
C100	C	2.018306	1.356237	0.173916
C101	C	1.518274	0.795145	-0.326067
C102	C	2.018274	1.295145	0.173933
C103	C	1.451148	0.282671	-0.613179
C104	C	1.951148	0.782671	-0.113179
C105	C	1.451163	0.282658	-0.683867
C106	C	1.951163	0.782658	-0.183867
C107	C	1.518324	0.325938	-0.719202
C108	C	2.018324	0.825938	-0.219202
C109	C	1.585468	0.369240	-0.683845
C110	C	2.085468	0.869240	-0.183845
C111	C	1.585448	0.369256	-0.613158
C112	C	2.085448	0.869256	-0.113158
C113	C	1.585552	0.369176	-0.968918
C114	C	2.085552	0.869176	-0.468918
C115	C	1.585569	0.369156	-1.039610
C116	C	2.085569	0.869156	-0.539610
C117	C	1.451267	0.282578	-1.039628
C118	C	1.951267	0.782578	-0.539628
C119	C	1.451246	0.282594	-0.968941
C120	C	1.951246	0.782594	-0.468941
C121	C	1.518386	0.325898	-0.933590
C122	C	2.018386	0.825898	-0.433590
C123	C	1.518368	0.325913	-0.856941
C124	C	2.018368	0.825913	-0.356941
C125	C	1.518348	0.325921	-0.795849
C126	C	2.018348	0.825921	-0.295849
C127	C	1.518238	0.326032	-0.150196
C128	C	2.018238	0.826032	0.349804
C129	C	1.518422	0.325862	-0.074964
C130	C	2.018422	0.825862	0.425036
H131	H	0.819701	0.239356	-0.239674
H132	H	1.319701	0.739356	0.260326
C133	C	1.659418	0.416798	-0.930041
C134	C	2.159418	0.916798	-0.430041
H135	H	1.699429	0.442563	-0.961211
H136	H	2.199429	0.942563	-0.461211
H137	H	1.619208	0.446298	-0.902453
H138	H	2.119208	0.946298	-0.402453
H139	H	1.705211	0.390906	-0.902479
H140	H	2.205211	0.890906	-0.402479
C141	C	1.659346	0.416846	-0.722711
C142	C	2.159346	0.916846	-0.222711
H143	H	1.649752	0.410631	-0.769873
H144	H	2.149752	0.910631	-0.269873
H145	H	1.643932	0.462326	-0.711114
H146	H	2.143932	0.962326	-0.211114
H147	H	1.729945	0.406940	-0.711130
H148	H	2.229945	0.906940	-0.211130
H149	H	1.396560	0.247348	-0.940175
H150	H	1.896560	0.747348	-0.440175
C151	C	1.659303	0.416882	-0.574270
C152	C	2.159303	0.916882	-0.074270
H153	H	1.699311	0.442653	-0.605437
H154	H	2.199311	0.942653	-0.105437
H155	H	1.619077	0.446377	-0.546686
H156	H	2.119077	0.946377	-0.046686
H157	H	1.705099	0.390997	-0.546704
H158	H	2.205099	0.890997	-0.046704
H159	H	1.396595	0.247320	-1.068419
H160	H	1.896595	0.747320	-0.568419
C161	C	1.249159	0.412719	-0.412456
C162	C	1.749159	0.912719	0.087544
H163	H	1.273972	0.444738	-0.444376
H164	H	1.773972	0.944738	0.055624
H165	H	1.273959	0.424357	-0.368755
H166	H	1.773959	0.924357	0.131245
H167	H	1.274004	0.369052	-0.424251
H168	H	1.774004	0.869052	0.075749
H169	H	0.919235	0.160708	-0.161282
H170	H	1.419235	0.660708	0.338718
C171	C	1.133982	0.148307	-0.148917
C172	C	1.633982	0.648307	0.351083
H173	H	1.085593	0.122498	-0.123190
H174	H	1.585593	0.622498	0.376810
H175	H	1.176818	0.118851	-0.174862
H176	H	1.676818	0.618851	0.325138
H177	H	1.176749	0.174157	-0.119367
H178	H	1.676749	0.674157	0.380633
H179	H	1.118279	0.491371	-0.490842
H180	H	1.618279	0.991371	0.009158
H181	H	1.396378	0.939468	-0.404565
H182	H	1.896378	1.439468	0.095435
C183	C	1.659392	0.722016	-0.235218
C184	C	2.159392	1.222016	0.264782
H185	H	1.649793	0.769177	-0.241419
H186	H	2.149793	1.269177	0.258581
H187	H	1.644029	0.710464	-0.189736
H188	H	2.144029	1.210464	0.310264
H189	H	1.729979	0.710391	-0.245149
H190	H	2.229979	1.210391	0.254851
C191	C	0.903525	0.503741	-0.503230
C192	C	1.403525	1.003741	-0.003230
H193	H	0.951906	0.529549	-0.528965
H194	H	1.451906	1.029549	-0.028965
H195	H	0.860775	0.477864	-0.532761
H196	H	1.360775	0.977864	-0.032761
H197	H	0.860670	0.533210	-0.477306
H198	H	1.360670	1.033210	0.022694
C199	C	0.788332	0.412746	-0.412486
C200	C	1.288332	0.912746	0.087514
H201	H	0.763513	0.444772	-0.444404
H202	H	1.263513	0.944772	0.055596
H203	H	0.763545	0.369084	-0.424274
H204	H	1.263545	0.869084	0.075726
H205	H	0.763480	0.424397	-0.368785
H206	H	1.263480	0.924397	0.131215
C207	C	1.249178	0.239334	-0.239635
C208	C	1.749178	0.739334	0.260365
H209	H	1.274002	0.207312	-0.207714
H210	H	1.774002	0.707312	0.292286
H211	H	1.274029	0.227692	-0.283335
H212	H	1.774029	0.727692	0.216665
H213	H	1.273964	0.282998	-0.227839
H214	H	1.773964	0.782998	0.272161
H215	H	1.640128	0.583679	-0.247560
H216	H	2.140128	1.083679	0.252440
C217	C	1.659537	0.929336	-0.235273
C218	C	2.159537	1.429336	0.264727
H219	H	1.699603	0.960505	-0.209526
H220	H	2.199603	1.460505	0.290474
H221	H	1.619366	0.901801	-0.205755
H222	H	2.119366	1.401801	0.294245
H223	H	1.705274	0.901721	-0.261194
H224	H	2.205274	1.401721	0.238806
C225	C	1.659620	1.077776	-0.235293
C226	C	2.159620	1.577776	0.264707
H227	H	1.650028	1.124938	-0.241498
H228	H	2.150028	1.624938	0.258502
H229	H	1.644279	1.066231	-0.189806
H230	H	2.144279	1.566231	0.310194
H231	H	1.730198	1.066144	-0.245239
H232	H	2.230198	1.566144	0.254761
H233	H	1.396447	1.067705	-0.404587
H234	H	1.896447	1.567705	0.095413
C235	C	1.377047	0.722043	-0.416879
C236	C	1.877047	1.222043	0.083121
H237	H	1.386692	0.769203	-0.410688
H238	H	1.886692	1.269203	0.089312
H239	H	1.392367	0.710420	-0.462363
H240	H	1.892367	1.210420	0.037637
H241	H	1.306458	0.710501	-0.406925
H242	H	1.806458	1.210501	0.093075
H243	H	1.640263	0.404402	-1.068378
H244	H	2.140263	0.904402	-0.568378
C245	C	1.376969	0.573602	-0.416857
C246	C	1.876969	1.073602	0.083143
H247	H	1.336940	0.604779	-0.442616
H248	H	1.836940	1.104779	0.057384
H249	H	1.417119	0.545986	-0.446365
H250	H	1.917119	1.045986	0.053635
H251	H	1.331197	0.546069	-0.390934
H252	H	1.831197	1.046069	0.109066
H253	H	1.396463	0.247423	-0.584414
H254	H	1.896463	0.747423	-0.084414
C255	C	1.377314	0.235027	-0.722752
C256	C	1.877314	0.735027	-0.222752
H257	H	1.337323	0.209247	-0.691584
H258	H	1.837323	0.709247	-0.191584
H259	H	1.331518	0.260907	-0.750318
H260	H	1.831518	0.760907	-0.250318
H261	H	1.417547	0.205531	-0.750337
H262	H	1.917547	0.705531	-0.250337
