data_functionalizedCrystal
_audit_creation_method	'MofGen! by Chris Wilmer'
_symmetry_space_group_name_H-M	'P1'
_symmetry_Int_Tables_number	1
_symmetry_cell_setting	triclinic
loop_
_symmetry_equiv_pos_as_xyz
  x,y,z
_cell_length_a	12.759395
_cell_length_b	16.625545
_cell_length_c	12.759387
_cell_angle_alpha	90.033270
_cell_angle_beta	90.020509
_cell_angle_gamma	90.027095
loop_
_atom_site_label
_atom_site_type_symbol
_atom_site_fract_x
_atom_site_fract_y
_atom_site_fract_z
Zn1	Zn	1.606189	-0.320926	0.593987
Zn2	Zn	2.106189	0.179074	1.093987
Zn3	Zn	1.606047	-0.455781	0.418300
Zn4	Zn	2.106047	0.044219	0.918300
Zn5	Zn	1.430488	-0.320970	0.418324
Zn6	Zn	1.930488	0.179030	0.918324
Zn7	Zn	1.430447	-0.455724	0.593939
Zn8	Zn	1.930447	0.044276	1.093939
O9	O	1.518293	-0.388350	0.506137
O10	O	2.018293	0.111650	1.006137
O11	O	1.753192	-0.338821	0.570692
O12	O	2.253192	0.161179	1.070692
O13	O	1.582716	-0.437941	0.271282
O14	O	2.082716	0.062059	0.771282
O15	O	1.453872	-0.208132	0.441656
O16	O	1.953872	0.291868	0.941656
O17	O	1.753087	-0.437898	0.441615
O18	O	2.253087	0.062102	0.941615
O19	O	1.582959	-0.208099	0.570715
O20	O	2.082959	0.291901	1.070715
O21	O	1.453733	-0.338895	0.271300
O22	O	1.953733	0.161105	0.771300
O23	O	1.283461	-0.338840	0.441610
O24	O	1.783461	0.161160	0.941610
O25	O	1.453802	-0.437800	0.740967
O26	O	1.953802	0.062200	1.240967
O27	O	1.283431	-0.437843	0.570633
O28	O	1.783431	0.062157	1.070633
O29	O	1.582919	-0.338765	0.741002
O30	O	2.082919	0.161235	1.241002
O31	O	1.582676	-0.568606	0.441569
O32	O	2.082676	-0.068606	0.941569
O33	O	1.453664	-0.568564	0.570610
O34	O	1.953664	-0.068564	1.070610
C35	C	1.245325	-0.388341	0.506119
C36	C	1.745325	0.111659	1.006119
C37	C	1.128548	-0.388356	0.506137
C38	C	1.628548	0.111644	1.006137
C39	C	1.128556	-0.491615	0.640272
C40	C	1.628556	0.008385	1.140272
C41	C	1.073698	-0.543250	0.707342
C42	C	1.573698	-0.043250	1.207342
C43	C	0.963977	-0.543260	0.707355
C44	C	1.463977	-0.043260	1.207355
C45	C	0.909110	-0.491627	0.640292
C46	C	1.409110	0.008373	1.140292
C47	C	0.963967	-0.439991	0.573222
C48	C	1.463967	0.060009	1.073222
C49	C	1.073691	-0.439989	0.573214
C50	C	1.573691	0.060011	1.073214
C51	C	0.963960	-0.336730	0.439094
C52	C	1.463960	0.163270	0.939094
C53	C	1.073681	-0.336723	0.439074
C54	C	1.573681	0.163277	0.939074
C55	C	0.909093	-0.285096	0.372031
C56	C	1.409093	0.214904	0.872031
C57	C	0.963950	-0.233463	0.304954
C58	C	1.463950	0.266537	0.804954
C59	C	1.073678	-0.233456	0.304943
C60	C	1.573678	0.266544	0.804943
C61	C	1.128539	-0.285087	0.372003
C62	C	1.628539	0.214913	0.872003
C63	C	1.518178	-0.597841	0.506104
C64	C	2.018178	-0.097841	1.006104
C65	C	1.518226	-0.687462	0.506125
C66	C	2.018226	-0.187462	1.006125
C67	C	1.518267	-0.760245	0.506146
C68	C	2.018267	-0.260245	1.006146
C69	C	1.518328	-0.851553	0.506169
C70	C	2.018328	-0.351553	1.006169
C71	C	1.518382	-0.924330	0.506183
C72	C	2.018382	-0.424330	1.006183
C73	C	1.518442	-1.015644	0.506204
C74	C	2.018442	-0.515644	1.006204
C75	C	1.792326	-0.388361	0.506156
C76	C	2.292326	0.111639	1.006156
C77	C	1.909103	-0.388365	0.506164
C78	C	2.409103	0.111635	1.006164
C79	C	1.518372	-0.388271	0.780171
C80	C	2.018372	0.111729	1.280171
C81	C	1.518406	-0.388238	0.896948
C82	C	2.018406	0.111762	1.396948
C83	C	1.518436	-0.178041	0.506194
C84	C	2.018436	0.321959	1.006194
C85	C	1.518497	-0.088420	0.506218
C86	C	2.018497	0.411580	1.006218
C87	C	1.518274	-0.388371	0.233170
C88	C	2.018274	0.111629	0.733170
C89	C	1.518444	-0.388177	0.116394
C90	C	2.018444	0.111823	0.616394
C91	C	1.652865	-0.285119	0.897004
C92	C	2.152865	0.214881	1.397004
C93	C	1.720109	-0.233547	0.951893
C94	C	2.220109	0.266453	1.451893
C95	C	1.720135	-0.233518	1.061615
C96	C	2.220135	0.266482	1.561615
C97	C	1.652907	-0.285064	1.116450
C98	C	2.152907	0.214936	1.616450
C99	C	1.585662	-0.336635	1.061561
C100	C	2.085662	0.163365	1.561561
C101	C	1.585646	-0.336661	0.951837
C102	C	2.085646	0.163339	1.451837
C103	C	1.451200	-0.439749	1.061505
C104	C	1.951200	0.060251	1.561505
C105	C	1.451178	-0.439784	0.951783
C106	C	1.951178	0.060216	1.451783
C107	C	1.383971	-0.491295	1.116340
C108	C	1.883971	0.008705	1.616340
C109	C	1.316731	-0.542872	1.061451
C110	C	1.816731	-0.042872	1.561451
C111	C	1.316709	-0.542900	0.951722
C112	C	1.816709	-0.042900	1.451722
C113	C	1.383934	-0.491355	0.896894
C114	C	1.883934	0.008645	1.396894
H115	H	1.118337	-0.191402	0.250333
H116	H	1.618337	0.308598	0.750333
N117	N	1.383887	-0.491364	0.778552
N118	N	1.883887	0.008636	1.278552
H119	H	1.331081	-0.531848	0.752097
H120	H	1.831081	-0.031848	1.252097
H121	H	1.455971	-0.506170	0.752189
H122	H	1.955971	-0.006170	1.252189
N123	N	1.246897	-0.491614	0.640243
N124	N	1.746897	0.008386	1.140243
H125	H	1.273331	-0.532159	0.692898
H126	H	1.773331	-0.032159	1.192898
H127	H	1.273288	-0.436294	0.659654
H128	H	1.773288	0.063706	1.159654
N129	N	0.790768	-0.491638	0.640305
N130	N	1.290768	0.008362	1.140305
H131	H	0.764373	-0.436347	0.659751
H132	H	1.264373	0.063653	1.159751
H133	H	0.764431	-0.532218	0.692963
H134	H	1.264431	-0.032218	1.192963
N135	N	1.132874	-0.598941	0.779668
N136	N	1.632874	-0.098941	1.279668
H137	H	1.210707	-0.591106	0.769483
H138	H	1.710707	-0.091106	1.269483
H139	H	1.113653	-0.656509	0.763170
H140	H	1.613653	-0.156509	1.263170
H141	H	0.919269	-0.191424	0.250362
H142	H	1.419269	0.308576	0.750362
N143	N	1.652851	-0.285162	0.778663
N144	N	2.152851	0.214838	1.278663
H145	H	1.705643	-0.244686	0.752254
H146	H	2.205643	0.255314	1.252254
H147	H	1.580752	-0.270363	0.752302
H148	H	2.080752	0.229637	1.252302
H149	H	0.919312	-0.585302	0.761975
H150	H	1.419312	-0.085302	1.261975
N151	N	0.790751	-0.285109	0.372033
N152	N	1.290751	0.214891	0.872033
H153	H	0.764322	-0.325658	0.424691
H154	H	1.264322	0.174342	0.924691
H155	H	0.764382	-0.299837	0.299886
H156	H	1.264382	0.200163	0.799886
H157	H	1.217880	-0.285088	0.371998
H158	H	1.717880	0.214912	0.871998
N159	N	1.792643	-0.177973	0.892752
N160	N	2.292643	0.322027	1.392752
H161	H	1.782439	-0.185823	0.814915
H162	H	2.282439	0.314177	1.314915
H163	H	1.867659	-0.190551	0.911957
H164	H	2.367659	0.309449	1.411957
N165	N	1.792650	-0.177890	1.120825
N166	N	2.292650	0.322110	1.620825
H167	H	1.835232	-0.145237	1.069443
H168	H	2.335232	0.354763	1.569443
H169	H	1.841253	-0.210704	1.166347
H170	H	2.341253	0.289296	1.666347
H171	H	1.261994	-0.584832	1.106106
H172	H	1.761994	-0.084832	1.606106
N173	N	1.652904	-0.285013	1.234792
N174	N	2.152904	0.214987	1.734792
H175	H	1.705694	-0.244514	1.261243
H176	H	2.205694	0.255486	1.761243
H177	H	1.672140	-0.340343	1.261147
H178	H	2.172140	0.159657	1.761147
N179	N	1.383992	-0.491245	1.234682
N180	N	1.883992	0.008755	1.734682
H181	H	1.456055	-0.506065	1.261125
H182	H	1.956055	-0.006065	1.761125
H183	H	1.331153	-0.531710	1.261015
H184	H	1.831153	-0.031710	1.761015
N185	N	1.244165	-0.598512	0.892523
N186	N	1.744165	-0.098512	1.392523
H187	H	1.201581	-0.631155	0.943913
H188	H	1.701581	-0.131155	1.443913
H189	H	1.286879	-0.635849	0.846990
H190	H	1.786879	-0.135849	1.346990
