data_functionalizedCrystal
_audit_creation_method	'MofGen! by Chris Wilmer'
_symmetry_space_group_name_H-M	'P1'
_symmetry_Int_Tables_number	1
_symmetry_cell_setting	triclinic
loop_
_symmetry_equiv_pos_as_xyz
  x,y,z
_cell_length_a	10.686220
_cell_length_b	25.639239
_cell_length_c	10.686551
_cell_angle_alpha	85.590528
_cell_angle_beta	90.308082
_cell_angle_gamma	94.420676
loop_
_atom_site_label
_atom_site_type_symbol
_atom_site_fract_x
_atom_site_fract_y
_atom_site_fract_z
Zn1	Zn	1.972159	-0.127472	-0.562366
Zn2	Zn	1.955834	-0.222109	-0.352592
Zn3	Zn	1.746264	-0.140848	-0.368681
Zn4	Zn	1.762265	-0.221050	-0.578370
O5	O	1.859130	-0.177870	-0.465502
O6	O	2.145540	-0.134872	-0.521108
O7	O	1.914505	-0.217371	-0.179180
O8	O	1.776365	-0.065903	-0.394409
O9	O	2.133546	-0.204401	-0.366988
O10	O	1.942329	-0.056076	-0.536709
O11	O	1.760535	-0.157668	-0.191000
O12	O	1.572839	-0.156641	-0.409928
O13	O	1.803636	-0.202595	-0.751793
O14	O	1.584595	-0.215565	-0.563985
O15	O	1.957844	-0.133844	-0.740035
O16	O	1.930021	-0.295139	-0.382506
O17	O	1.787807	-0.294361	-0.548384
C18	C	1.533200	-0.187440	-0.490440
C19	C	1.393768	-0.191545	-0.501138
C20	C	1.858915	-0.313720	-0.465461
C21	C	1.858941	-0.371833	-0.465476
C22	C	1.933401	-0.732571	-0.379250
C23	C	1.933451	-0.787174	-0.379263
O24	O	1.996536	-0.815738	-0.305904
N25	N	1.859357	-0.814099	-0.465568
C26	C	1.785218	-0.786419	-0.551874
O27	O	1.722201	-0.814336	-0.625286
C28	C	1.785176	-0.731818	-0.551866
C29	C	1.859265	-0.704895	-0.465547
C30	C	2.007485	-0.705649	-0.292939
C31	C	2.007433	-0.651050	-0.292925
C32	C	1.933297	-0.623374	-0.379222
C33	C	1.859213	-0.650297	-0.465533
C34	C	1.711045	-0.704138	-0.638177
C35	C	1.711010	-0.649533	-0.638162
C36	C	1.785099	-0.622611	-0.551843
C37	C	1.785025	-0.568023	-0.551816
N38	N	1.859119	-0.541097	-0.465510
C39	C	1.933255	-0.568773	-0.379213
C40	C	1.785314	-0.901087	-0.551887
C41	C	1.785349	-0.955688	-0.551890
C42	C	1.933583	-0.956438	-0.379280
C43	C	1.933541	-0.901836	-0.379272
C44	C	1.859408	-0.874161	-0.465581
C45	C	1.933139	-0.454112	-0.379189
C46	C	1.933077	-0.399509	-0.379179
C47	C	1.784847	-0.398763	-0.551793
C48	C	1.784904	-0.453362	-0.551799
C49	C	1.859060	-0.481035	-0.465493
O50	O	1.721976	-0.539424	-0.625140
O51	O	1.996274	-0.540849	-0.305825
C52	C	2.186333	-0.168263	-0.440468
C53	C	2.325768	-0.164169	-0.429800
C54	C	1.884346	-0.166610	-0.792704
C55	C	1.895092	-0.161811	-0.932138
C56	C	1.859383	-0.041486	-0.465568
C57	C	1.859490	0.016632	-0.465597
C58	C	1.834084	-0.189046	-0.139567
C59	C	1.823582	-0.193690	-0.000116
H60	H	1.993527	-0.476637	-0.308913
O61	O	1.740714	-0.230677	-0.942494
C62	C	1.582434	-0.301211	-0.968186
C63	C	1.676246	-0.259352	-1.033610
H64	H	1.530268	-0.324399	-1.041825
H65	H	1.635258	-0.328981	-0.902463
H66	H	1.512260	-0.281213	-0.911824
H67	H	1.746443	-0.279306	-1.090039
H68	H	1.623338	-0.231586	-1.099260
O69	O	1.712654	-0.371908	-0.635510
C70	C	1.503913	-0.359478	-0.712658
C71	C	1.585506	-0.389923	-0.617748
H72	H	1.401100	-0.374038	-0.698348
H73	H	1.516504	-0.315825	-0.697829
H74	H	1.533751	-0.366056	-0.812131
H75	H	1.555720	-0.383388	-0.518237
H76	H	1.572907	-0.433565	-0.632687
H77	H	1.964545	-0.130848	-0.980617
H78	H	1.345309	-0.218129	-0.570396
H79	H	1.374220	-0.137590	-0.360538
H80	H	2.067766	-0.629133	-0.222640
O81	O	2.004978	-0.373423	-0.295157
C82	C	2.049544	-0.362255	-0.077142
C83	C	1.968049	-0.391843	-0.172154
H84	H	2.019699	-0.377129	0.022327
H85	H	2.152405	-0.369223	-0.091417
H86	H	2.036803	-0.318475	-0.092010
H87	H	1.980681	-0.435631	-0.157344
H88	H	1.865218	-0.384831	-0.157855
O89	O	2.079534	-0.732450	-0.208979
C90	C	2.226594	-0.727411	-0.037808
C91	C	2.145040	-0.697000	-0.132821
H92	H	2.279597	-0.698761	0.023773
H93	H	2.164069	-0.756942	0.023522
H94	H	2.296564	-0.749045	-0.090450
H95	H	2.075061	-0.675334	-0.080282
H96	H	2.207643	-0.667499	-0.194149
O97	O	2.005630	-0.875764	-0.295377
C98	C	2.152595	-0.882291	-0.124117
C99	C	2.071031	-0.911877	-0.219081
H100	H	2.205472	-0.911475	-0.062389
H101	H	2.222653	-0.852797	-0.176671
H102	H	2.089962	-0.860695	-0.062928
H103	H	2.133564	-0.933503	-0.280295
H104	H	2.000964	-0.941340	-0.166448
H105	H	1.993954	-0.978981	-0.309016
H106	H	1.725005	-0.977604	-0.622169
H107	H	1.650707	-0.726050	-0.708462
O108	O	1.713168	-0.874288	-0.635772
C109	C	1.566200	-0.879315	-0.807023
C110	C	1.647819	-0.909726	-0.712072
H111	H	1.513365	-0.907952	-0.868754
H112	H	1.496106	-0.857714	-0.754458
H113	H	1.628788	-0.849755	-0.868211
H114	H	1.585332	-0.939312	-0.650859
H115	H	1.717923	-0.931292	-0.764716
O116	O	1.638882	-0.622733	-0.722058
C117	C	1.491943	-0.627751	-0.893335
C118	C	1.573542	-0.658167	-0.798374
H119	H	1.439115	-0.656385	-0.955079
H120	H	1.421842	-0.606150	-0.840778
H121	H	1.554543	-0.598191	-0.954509
H122	H	1.511042	-0.687753	-0.737176
H123	H	1.643653	-0.679732	-0.851009
O124	O	1.713079	-0.479486	-0.635810
C125	C	1.668431	-0.490610	-0.853829
C126	C	1.749867	-0.460999	-0.758812
H127	H	1.698126	-0.475667	-0.953297
H128	H	1.681223	-0.534391	-0.839132
H129	H	1.565582	-0.483668	-0.839390
H130	H	1.852746	-0.467898	-0.773194
H131	H	1.736969	-0.417228	-0.773534
