data_functionalizedCrystal
_audit_creation_method	'MofGen! by Chris Wilmer'
_symmetry_space_group_name_H-M	'P1'
_symmetry_Int_Tables_number	1
_symmetry_cell_setting	triclinic
loop_
_symmetry_equiv_pos_as_xyz
  x,y,z
_cell_length_a	6.817900
_cell_length_b	17.110486
_cell_length_c	14.858329
_cell_angle_alpha	96.088146
_cell_angle_beta	104.519616
_cell_angle_gamma	99.060439
loop_
_atom_site_label
_atom_site_type_symbol
_atom_site_fract_x
_atom_site_fract_y
_atom_site_fract_z
V1	V	-3.982044	-0.246945	-0.128393
O2	O	-3.965115	-0.242012	0.006455
O3	O	-3.938958	-0.245479	-0.254856
O4	O	-3.911817	-0.354545	-0.126293
O5	O	-3.992443	-0.132192	-0.122998
V6	V	-4.467811	-0.233193	-0.112279
O7	O	-4.238379	-0.277112	-0.163742
O8	O	-4.661674	-0.203025	-0.076930
O9	O	-4.287691	-0.234658	0.014184
O10	O	-4.602137	-0.238126	-0.247127
O11	O	-4.574809	-0.347946	-0.117674
O12	O	-4.314831	-0.125593	-0.114379
C13	C	-3.785958	-0.241641	-0.285689
C14	C	-3.831871	-0.241160	-0.389073
C15	C	-3.869154	-0.240762	-0.473032
C16	C	-3.915945	-0.240266	-0.578362
C17	C	-3.953254	-0.239872	-0.662315
C18	C	-4.000048	-0.239375	-0.767651
C19	C	-3.751337	-0.380764	-0.121693
C20	C	-3.775237	-0.468729	-0.120813
C21	C	-3.967948	-0.514094	-0.125041
C22	C	-3.990393	-0.596746	-0.124213
C23	C	-3.820129	-0.634031	-0.119164
C24	C	-3.627401	-0.588660	-0.114933
C25	C	-3.604955	-0.506009	-0.115754
C26	C	-3.878819	-0.883382	-0.116447
C27	C	-3.901282	-0.966039	-0.115629
C28	C	-4.264273	-0.974119	-0.124908
C29	C	-4.241812	-0.891467	-0.125734
C30	C	-4.049085	-0.846102	-0.121498
C31	C	-3.843069	-0.718515	-0.118321
C32	C	-4.026145	-0.761619	-0.122334
C33	C	-4.104034	-0.238494	0.045012
C34	C	-4.037357	-0.238981	0.148396
C35	C	-4.138655	-0.099370	-0.118982
C36	C	-4.093993	-0.011404	-0.119857
H37	H	-4.106603	-0.483743	-0.129158
N38	N	-4.461102	-1.020469	-0.129215
N39	N	-4.482159	-1.058638	-0.063940
H40	H	-4.621175	-1.091373	-0.066978
N41	N	-3.408116	-0.459670	-0.111459
N42	N	-3.387050	-0.421501	-0.176733
H43	H	-3.248025	-0.388775	-0.173698
N44	N	-3.727064	-1.003973	-0.110356
N45	N	-3.730437	-1.058019	-0.174620
H46	H	-3.607288	-1.084748	-0.170853
H47	H	-3.721909	-0.846459	-0.113031
N48	N	-3.453493	-0.626755	-0.109765
N49	N	-3.473555	-0.700550	-0.109033
H50	H	-3.350730	-0.727455	-0.105384
H51	H	-4.164770	-0.731256	-0.126442
H52	H	-4.147313	-0.633678	-0.127651
N53	N	-3.669298	-0.756705	-0.113067
N54	N	-3.609791	-0.793071	-0.045674
H55	H	-3.487122	-0.820084	-0.041927
N56	N	-4.415707	-0.853365	-0.130895
N57	N	-4.475608	-0.816996	-0.198236
H58	H	-4.598421	-0.790083	-0.201885
