data_functionalizedCrystal
_audit_creation_method	'MofGen! by Chris Wilmer'
_symmetry_space_group_name_H-M	'P1'
_symmetry_Int_Tables_number	1
_symmetry_cell_setting	triclinic
loop_
_symmetry_equiv_pos_as_xyz
  x,y,z
_cell_length_a	16.109302
_cell_length_b	16.109301
_cell_length_c	15.186229
_cell_angle_alpha	89.996245
_cell_angle_beta	89.994701
_cell_angle_gamma	83.461682
loop_
_atom_site_label
_atom_site_type_symbol
_atom_site_fract_x
_atom_site_fract_y
_atom_site_fract_z
O1	O	1.103130	0.106869	-0.073268
O2	O	1.353130	0.356869	0.176732
O3	O	1.603130	0.606869	0.426732
O4	O	1.853130	0.856869	0.676732
O5	O	0.861068	0.120168	-0.073261
O6	O	1.111068	0.370168	0.176739
O7	O	1.361068	0.620168	0.426739
O8	O	1.611068	0.870168	0.676739
O9	O	0.988749	-0.007513	-0.073259
O10	O	1.238749	0.242487	0.176741
O11	O	1.488749	0.492487	0.426741
O12	O	1.738749	0.742487	0.676741
O13	O	0.975450	0.234549	-0.073270
O14	O	1.225450	0.484549	0.176730
O15	O	1.475450	0.734549	0.426730
O16	O	1.725450	0.984549	0.676730
O17	O	0.988740	-0.007514	0.073198
O18	O	1.238740	0.242486	0.323198
O19	O	1.488740	0.492486	0.573198
O20	O	1.738740	0.742486	0.823198
O21	O	0.861060	0.120166	0.073196
O22	O	1.111060	0.370166	0.323196
O23	O	1.361060	0.620166	0.573196
O24	O	1.611060	0.870166	0.823196
O25	O	1.103122	0.106867	0.073189
O26	O	1.353122	0.356867	0.323189
O27	O	1.603122	0.606867	0.573189
O28	O	1.853122	0.856867	0.823189
Zn29	Zn	0.982090	0.113516	0.096446
Zn30	Zn	1.232090	0.363516	0.346446
Zn31	Zn	1.482090	0.613516	0.596446
Zn32	Zn	1.732090	0.863516	0.846446
Zn33	Zn	0.982101	0.113519	-0.096518
Zn34	Zn	1.232101	0.363519	0.153482
Zn35	Zn	1.482101	0.613519	0.403482
Zn36	Zn	1.732101	0.863519	0.653482
O37	O	0.975441	0.234547	0.073187
O38	O	1.225441	0.484547	0.323187
O39	O	1.475441	0.734547	0.573187
O40	O	1.725441	0.984547	0.823187
C41	C	0.988206	-0.038488	-0.000031
C42	C	1.238206	0.211512	0.249969
C43	C	1.488206	0.461512	0.499969
C44	C	1.738206	0.711512	0.749969
C45	C	0.986591	-0.130784	-0.000032
C46	C	1.236591	0.119216	0.249968
C47	C	1.486591	0.369216	0.499968
C48	C	1.736591	0.619216	0.749968
C49	C	0.830089	0.119628	-0.000032
C50	C	1.080089	0.369628	0.249968
C51	C	1.330089	0.619628	0.499968
C52	C	1.580089	0.869628	0.749968
C53	C	0.737794	0.118013	-0.000029
C54	C	0.987794	0.368013	0.249971
C55	C	1.237794	0.618013	0.499971
C56	C	1.487794	0.868013	0.749971
C57	C	1.057074	-0.439782	-0.000049
C58	C	1.307074	-0.189782	0.249951
C59	C	1.557074	0.060218	0.499951
C60	C	1.807074	0.310218	0.749951
C61	C	1.058599	-0.353062	-0.000044
C62	C	1.308599	-0.103062	0.249956
C63	C	1.558599	0.146938	0.499956
C64	C	1.808599	0.396938	0.749956
C65	C	0.907111	-0.333189	-0.000028
C66	C	1.157111	-0.083189	0.249972
C67	C	1.407111	0.166811	0.499972
C68	C	1.657111	0.416811	0.749972
C69	C	0.905586	-0.419907	-0.000027
C70	C	1.155586	-0.169907	0.249973
C71	C	1.405586	0.080093	0.499973
C72	C	1.655586	0.330093	0.749973
C73	C	0.980570	-0.473202	-0.000042
C74	C	1.230570	-0.223202	0.249958
C75	C	1.480570	0.026798	0.499958
C76	C	1.730570	0.276798	0.749958
C77	C	0.983620	-0.299763	-0.000038
C78	C	1.233620	-0.049763	0.249962
C79	C	1.483620	0.200237	0.499962
C80	C	1.733620	0.450237	0.749962
C81	C	0.985273	-0.205737	-0.000033
C82	C	1.235273	0.044263	0.249967
C83	C	1.485273	0.294263	0.499967
C84	C	1.735273	0.544263	0.749967
C85	C	0.978917	-0.567234	-0.000046
C86	C	1.228917	-0.317234	0.249954
C87	C	1.478917	-0.067234	0.499954
C88	C	1.728917	0.182766	0.749954
C89	C	0.525448	0.114276	0.079796
C90	C	0.775448	0.364276	0.329796
C91	C	1.025448	0.614276	0.579796
C92	C	1.275448	0.864276	0.829796
C93	C	0.438728	0.112750	0.079793
C94	C	0.688728	0.362750	0.329793
C95	C	0.938728	0.612750	0.579793
C96	C	1.188728	0.862750	0.829793
C97	C	0.438748	0.112756	-0.079882
C98	C	0.688748	0.362756	0.170118
C99	C	0.938748	0.612756	0.420118
C100	C	1.188748	0.862756	0.670118
C101	C	0.525467	0.114277	-0.079878
C102	C	0.775467	0.364277	0.170122
C103	C	1.025467	0.614277	0.420122
C104	C	1.275467	0.864277	0.670122
C105	C	0.568815	0.115041	-0.000036
C106	C	0.818815	0.365041	0.249964
C107	C	1.068815	0.615041	0.499964
C108	C	1.318815	0.865041	0.749964
C109	C	0.395375	0.111994	-0.000043
C110	C	0.645375	0.361994	0.249957
C111	C	0.895375	0.611994	0.499957
C112	C	1.145375	0.861994	0.749957
C113	C	0.301350	0.110338	-0.000047
C114	C	0.551350	0.360338	0.249953
C115	C	0.801350	0.610338	0.499953
C116	C	1.051350	0.860338	0.749953
C117	C	0.662847	0.116695	-0.000032
C118	C	0.912847	0.366695	0.249968
C119	C	1.162847	0.616695	0.499968
C120	C	1.412847	0.866695	0.749968
C121	C	1.134101	0.107407	-0.000042
C122	C	1.384101	0.357407	0.249958
C123	C	1.634101	0.607407	0.499958
C124	C	1.884101	0.857407	0.749958
C125	C	1.226396	0.109022	-0.000051
C126	C	1.476396	0.359022	0.249949
C127	C	1.726396	0.609022	0.499949
C128	C	1.976396	0.859022	0.749949
C129	C	0.975984	0.265523	-0.000043
C130	C	1.225984	0.515523	0.249957
C131	C	1.475984	0.765523	0.499957
C132	C	1.725984	1.015523	0.749957
C133	C	0.977600	0.357819	-0.000048
C134	C	1.227600	0.607819	0.249952
C135	C	1.477600	0.857819	0.499952
C136	C	1.727600	1.107819	0.749952
N137	N	0.982088	0.113514	0.228139
N138	N	1.232088	0.363514	0.478139
N139	N	1.482088	0.613514	0.728139
N140	N	1.732088	0.863514	0.978139
N141	N	0.982109	0.113514	-0.228211
N142	N	1.232109	0.363514	0.021789
N143	N	1.482109	0.613514	0.271789
N144	N	1.732109	0.863514	0.521789
C145	C	1.038644	0.056996	0.453862
C146	C	1.288644	0.306996	0.703862
C147	C	1.538644	0.556996	0.953862
C148	C	1.788644	0.806996	1.203862
C149	C	1.038647	0.056994	0.546052
C150	C	1.288647	0.306994	0.796052
C151	C	1.538647	0.556994	1.046052
C152	C	1.788647	0.806994	1.296052
C153	C	0.925547	0.170035	0.546059
C154	C	1.175547	0.420035	0.796059
C155	C	1.425547	0.670035	1.046059
C156	C	1.675547	0.920035	1.296059
C157	C	0.925541	0.170032	0.453871
C158	C	1.175541	0.420032	0.703871
C159	C	1.425541	0.670032	0.953871
C160	C	1.675541	0.920032	1.203871
C161	C	0.982094	0.113514	0.407775
C162	C	1.232094	0.363514	0.657775
C163	C	1.482094	0.613514	0.907775
C164	C	1.732094	0.863514	1.157775
C165	C	0.982103	0.113514	0.592153
C166	C	1.232103	0.363514	0.842153
C167	C	1.482103	0.613514	1.092153
C168	C	1.732103	0.863514	1.342153
C169	C	0.982105	0.113513	0.692109
C170	C	1.232105	0.363513	0.942109
C171	C	1.482105	0.613513	1.192109
C172	C	1.732105	0.863513	1.442109
C173	C	0.982091	0.113514	0.307813
C174	C	1.232091	0.363514	0.557813
C175	C	1.482091	0.613514	0.807813
C176	C	1.732091	0.863514	1.057813
H177	H	1.118131	-0.483172	-0.000061
H178	H	1.368131	-0.233172	0.249939
H179	H	1.618131	0.016828	0.499939
H180	H	1.868131	0.266828	0.749939
Cl181	Cl	0.579990	0.115232	-0.180248
Cl182	Cl	0.829990	0.365232	0.069752
Cl183	Cl	1.079990	0.615232	0.319752
Cl184	Cl	1.329990	0.865232	0.569752
Cl185	Cl	0.579940	0.115232	0.180169
Cl186	Cl	0.829940	0.365232	0.430169
Cl187	Cl	1.079940	0.615232	0.680169
Cl188	Cl	1.329940	0.865232	0.930169
H189	H	1.084692	0.010975	0.416333
H190	H	1.334692	0.260975	0.666333
H191	H	1.584692	0.510975	0.916333
H192	H	1.834692	0.760975	1.166333
Cl193	Cl	1.109739	-0.014061	0.603988
Cl194	Cl	1.359739	0.235939	0.853988
Cl195	Cl	1.609739	0.485939	1.103988
Cl196	Cl	1.859739	0.735939	1.353988
H197	H	0.879503	0.216052	0.583600
H198	H	1.129503	0.466052	0.833600
H199	H	1.379503	0.716052	1.083600
H200	H	1.629503	0.966052	1.333600
H201	H	0.879487	0.216056	0.416344
H202	H	1.129487	0.466056	0.666344
H203	H	1.379487	0.716056	0.916344
H204	H	1.629487	0.966056	1.166344
H205	H	0.843284	-0.447118	-0.000017
H206	H	1.093284	-0.197118	0.249983
H207	H	1.343284	0.052882	0.499983
H208	H	1.593284	0.302882	0.749983
H209	H	1.120896	-0.325856	-0.000049
H210	H	1.370896	-0.075856	0.249951
H211	H	1.620896	0.174144	0.499951
H212	H	1.870896	0.424144	0.749951
Cl213	Cl	0.384214	0.111790	0.180160
Cl214	Cl	0.634214	0.361790	0.430160
Cl215	Cl	0.884214	0.611790	0.680160
Cl216	Cl	1.134214	0.861790	0.930160
Cl217	Cl	0.384251	0.111775	-0.180249
Cl218	Cl	0.634251	0.361775	0.069751
Cl219	Cl	0.884251	0.611775	0.319751
Cl220	Cl	1.134251	0.861775	0.569751
Cl221	Cl	0.812850	-0.266185	-0.000017
Cl222	Cl	1.062850	-0.016185	0.249983
Cl223	Cl	1.312850	0.233815	0.499983
Cl224	Cl	1.562850	0.483815	0.749983
