data_functionalizedCrystal
_audit_creation_method	'MofGen! by Chris Wilmer'
_symmetry_space_group_name_H-M	'P1'
_symmetry_Int_Tables_number	1
_symmetry_cell_setting	triclinic
loop_
_symmetry_equiv_pos_as_xyz
  x,y,z
_cell_length_a	10.967926
_cell_length_b	19.188924
_cell_length_c	18.266242
_cell_angle_alpha	90.007204
_cell_angle_beta	77.879694
_cell_angle_gamma	83.944562
loop_
_atom_site_label
_atom_site_type_symbol
_atom_site_fract_x
_atom_site_fract_y
_atom_site_fract_z
O1	O	1.655097	0.097916	-0.147930
O2	O	1.291763	0.107290	-0.102088
O3	O	1.483920	0.001015	-0.126341
O4	O	1.462941	0.204191	-0.123677
O5	O	1.483887	0.001012	-0.248099
O6	O	1.291731	0.107287	-0.223846
O7	O	1.655064	0.097912	-0.269688
Zn8	Zn	1.473392	0.102599	-0.266098
Zn9	Zn	1.473435	0.102603	-0.105677
O10	O	1.462908	0.204188	-0.245435
C11	C	1.245263	0.106607	-0.157102
C12	C	1.106757	0.104567	-0.139627
C13	C	1.044989	0.103656	-0.194911
C14	C	0.901835	0.101547	-0.176851
C15	C	1.483225	-0.025002	-0.187135
C16	C	1.481190	-0.102520	-0.186880
C17	C	1.480258	-0.138923	-0.120390
C18	C	1.478328	-0.211759	-0.120141
C19	C	1.477356	-0.248189	-0.186389
C20	C	1.478281	-0.211777	-0.252887
C21	C	1.480198	-0.138942	-0.253133
N22	N	1.545337	-0.367412	-0.244364
N23	N	1.543518	-0.436602	-0.244127
C24	C	1.471576	-0.467636	-0.185653
N25	N	1.401537	-0.426867	-0.127416
N26	N	1.403362	-0.357671	-0.127652
C27	C	1.475276	-0.327166	-0.186130
C28	C	1.468550	-0.583016	-0.118888
C29	C	1.466612	-0.655852	-0.118640
C30	C	1.466577	-0.655869	-0.251390
C31	C	1.468502	-0.583034	-0.251634
C32	C	1.469494	-0.546612	-0.185381
C33	C	1.701564	0.098596	-0.214672
C34	C	1.840071	0.100636	-0.232142
C35	C	1.463602	0.230205	-0.184639
C36	C	1.465637	0.307723	-0.184889
N37	N	1.473372	0.102596	-0.375583
C38	C	1.548801	0.145331	-0.423399
C39	C	1.548822	0.145330	-0.500046
C40	C	1.473390	0.102600	-0.528872
C41	C	1.397956	0.059856	-0.481046
C42	C	1.397947	0.059854	-0.404402
N43	N	1.364115	0.100171	-0.635438
N44	N	1.364126	0.100177	-0.708247
C45	C	1.473415	0.102603	-0.759798
N46	N	1.582693	0.105037	-0.735788
N47	N	1.582679	0.105034	-0.662971
C48	C	1.473392	0.102598	-0.611979
C49	C	1.548873	0.145339	-0.890724
C50	C	1.548896	0.145332	-0.967373
C51	C	1.398019	0.059863	-0.948371
C52	C	1.398008	0.059865	-0.871724
C53	C	1.473432	0.102607	-0.842905
N54	N	1.473466	0.102601	0.003806
H55	H	1.098089	0.104433	-0.255611
H56	H	0.848741	0.100764	-0.116147
F57	F	1.477335	-0.250509	-0.049370
H58	H	0.893164	0.101414	-0.292847
F59	F	1.037360	0.103541	-0.060286
H60	H	1.481063	-0.109273	-0.066442
H61	H	1.477485	-0.241443	-0.306826
F62	F	1.317750	0.014380	-0.979046
H63	H	1.480952	-0.109303	-0.307278
H64	H	1.465775	-0.685530	-0.305330
F65	F	1.465612	-0.694594	-0.047867
H66	H	1.469350	-0.553359	-0.064940
F67	F	1.629189	0.190816	-1.018264
H68	H	1.610289	0.180141	-0.867259
F69	F	1.317704	0.014391	-0.820830
H70	H	1.469272	-0.553395	-0.305779
H71	H	1.610223	0.180132	-0.399940
H72	H	1.610246	0.180132	-0.538985
F73	F	1.317680	0.014379	-0.511726
H74	H	1.336521	0.025053	-0.365469
