data_functionalizedCrystal
_audit_creation_method	'MofGen! by Chris Wilmer'
_symmetry_space_group_name_H-M	'P1'
_symmetry_Int_Tables_number	1
_symmetry_cell_setting	triclinic
loop_
_symmetry_equiv_pos_as_xyz
  x,y,z
_cell_length_a	10.654550
_cell_length_b	8.597304
_cell_length_c	9.730223
_cell_angle_alpha	82.295717
_cell_angle_beta	89.999957
_cell_angle_gamma	84.910193
loop_
_atom_site_label
_atom_site_type_symbol
_atom_site_fract_x
_atom_site_fract_y
_atom_site_fract_z
O1	O	1.669010	0.220464	-0.140287
O2	O	1.303643	0.241469	-0.142799
O3	O	1.493517	0.002578	-0.114495
O4	O	1.479136	0.459356	-0.168590
O5	O	1.493504	0.002571	0.114085
O6	O	1.303631	0.241462	0.085782
O7	O	1.668997	0.220458	0.088294
Zn8	Zn	1.486312	0.230959	0.123330
Zn9	Zn	1.486328	0.230968	-0.177835
O10	O	1.479124	0.459349	0.059991
C11	C	1.256831	0.239923	-0.028329
C12	C	1.117363	0.235309	-0.027792
C13	C	1.491966	-0.055914	0.006718
C14	C	1.487348	-0.230191	0.027348
C15	C	1.038624	0.375964	-0.044445
C16	C	0.907580	0.371619	-0.043907
C17	C	0.934026	0.085952	-0.010066
C18	C	1.065068	0.090298	-0.010595
C19	C	1.715810	0.222003	-0.026179
C20	C	1.855278	0.226618	-0.026725
C21	C	1.480675	0.517841	-0.061226
C22	C	1.485292	0.692118	-0.081865
N23	N	1.486310	0.230952	0.328867
N24	N	1.486340	0.230962	-0.383371
C25	C	1.570415	0.125216	0.413321
C26	C	1.570428	0.125217	0.557203
C27	C	1.402226	0.336703	0.532165
C28	C	1.402208	0.336694	0.388286
H29	H	0.843476	0.486155	-0.057465
H30	H	1.487061	-0.241068	-0.191157
O31	O	1.320416	0.439476	0.589668
C32	C	1.153626	0.649296	0.549640
C33	C	1.246190	0.532963	0.484345
H34	H	1.093608	0.724933	0.464515
H35	H	1.089981	0.580875	0.625081
H36	H	1.208835	0.728282	0.607671
H37	H	1.191083	0.453949	0.426243
H38	H	1.309834	0.601482	0.408980
H39	H	0.891431	-0.032112	0.003944
H40	H	1.129180	-0.024248	0.002971
H41	H	1.638894	0.039113	0.364946
O42	O	1.485177	-0.309642	0.157839
C43	C	1.485693	-0.292721	0.403036
C44	C	1.488128	-0.202546	0.255336
H45	H	1.488104	-0.206178	0.481903
H46	H	1.395972	-0.355930	0.416760
H47	H	1.571301	-0.382849	0.419786
H48	H	1.402581	-0.112343	0.238486
H49	H	1.577905	-0.139445	0.241683
H50	H	1.333713	0.422797	0.319519
O51	O	1.089218	0.516956	-0.061093
C52	C	1.049150	0.799840	-0.094675
C53	C	0.991692	0.640272	-0.075806
H54	H	0.970328	0.899583	-0.106604
H55	H	1.109804	0.809123	-0.000098
H56	H	1.109872	0.808936	-0.191397
H57	H	0.930912	0.631068	0.020864
H58	H	0.931111	0.631058	-0.170454
O59	O	1.652251	0.022450	0.639034
C60	C	1.819034	-0.187375	0.648682
C61	C	1.726455	-0.071044	0.555845
H62	H	1.879034	-0.263019	0.581464
H63	H	1.882695	-0.118952	0.707891
H64	H	1.763839	-0.266355	0.725444
H65	H	1.781548	0.007963	0.479005
H66	H	1.662794	-0.139566	0.496735
