data_functionalizedCrystal
_audit_creation_method	'MofGen! by Chris Wilmer'
_symmetry_space_group_name_H-M	'P1'
_symmetry_Int_Tables_number	1
_symmetry_cell_setting	triclinic
loop_
_symmetry_equiv_pos_as_xyz
  x,y,z
_cell_length_a	19.188933
_cell_length_b	10.540539
_cell_length_c	9.616153
_cell_angle_alpha	90.002114
_cell_angle_beta	90.001848
_cell_angle_gamma	96.164470
loop_
_atom_site_label
_atom_site_type_symbol
_atom_site_fract_x
_atom_site_fract_y
_atom_site_fract_z
O1	O	0.927200	-0.158473	0.115593
O2	O	0.724031	-0.179803	0.115605
O3	O	0.830250	0.015671	0.115597
O4	O	0.820980	-0.353946	0.115601
O5	O	0.830243	0.015660	-0.115694
O6	O	0.724023	-0.179814	-0.115686
O7	O	0.927192	-0.158484	-0.115699
Zn8	Zn	0.825606	-0.169151	-0.152415
Zn9	Zn	0.825616	-0.169136	0.152321
O10	O	0.820972	-0.353958	-0.115690
C11	C	0.698011	-0.179117	-0.000039
C12	C	0.620493	-0.177043	-0.000034
C13	C	0.067143	-0.162229	0.126028
C14	C	0.139980	-0.164170	0.126033
C15	C	0.176400	-0.165153	-0.000044
C16	C	0.139978	-0.164162	-0.126135
C17	C	0.067143	-0.162207	-0.126137
N18	N	0.285918	-0.240456	-0.093887
N19	N	0.355108	-0.242316	-0.093877
C20	C	0.395847	-0.171040	-0.000046
N21	N	0.364782	-0.097850	0.093796
N22	N	0.295585	-0.095996	0.093790
C23	C	0.255377	-0.167272	-0.000056
C24	C	0.511239	-0.174128	0.126043
C25	C	0.584079	-0.176062	0.126043
C26	C	0.584074	-0.176066	-0.126128
C27	C	0.511237	-0.174119	-0.126124
C28	C	0.474824	-0.173156	-0.000035
C29	C	0.829551	0.062953	-0.000046
C30	C	0.827471	0.203855	-0.000039
C31	C	0.953211	-0.159169	-0.000051
C32	C	1.030730	-0.161244	-0.000047
C33	C	0.821671	-0.401240	-0.000044
C34	C	0.823751	-0.542142	-0.000043
N35	N	0.825604	-0.169160	-0.360389
C36	C	0.747770	0.385527	0.000485
C37	C	0.749879	0.238955	-0.000035
C38	C	0.864808	0.266329	-0.132120
C39	C	0.862160	0.412815	-0.132231
C40	C	0.863747	0.413381	0.130791
C41	C	0.864461	0.266415	0.132537
C42	C	0.768759	-0.273710	-0.419427
C43	C	0.768565	-0.273417	-0.580594
C44	C	0.809350	-0.036602	-0.581174
C45	C	0.808929	-0.037241	-0.419957
C46	C	0.898896	-0.195924	-0.419779
C47	C	0.898431	-0.198910	-0.581008
N48	N	0.825624	-0.169117	0.360296
H49	H	0.037500	-0.161439	0.228700
H50	H	0.921790	0.245229	-0.137034
Br51	Br	0.875279	0.096334	-0.354848
H52	H	0.917963	0.462012	-0.138226
H53	H	0.169633	-0.164979	0.228701
Br54	Br	0.719822	0.002033	-0.357311
H55	H	0.838865	0.223153	-0.230407
H56	H	0.037495	-0.161410	-0.228805
Br57	Br	0.461814	-0.172801	-0.297236
Br58	Br	0.876508	0.096227	-0.644974
Br59	Br	0.700913	0.166869	0.157773
H60	H	0.169635	-0.164960	-0.228787
H61	H	0.834560	0.440402	-0.230961
H62	H	0.481591	-0.173340	0.228713
H63	H	0.613726	-0.176861	-0.228782
H64	H	0.914435	-0.290507	-0.379131
Br65	Br	0.784807	-0.437590	-0.646565
H66	H	0.717122	0.413456	0.095203
Br67	Br	0.721269	0.003664	-0.648501
Br68	Br	0.678630	-0.245609	-0.351942
H69	H	0.613726	-0.176854	0.228713
Br70	Br	0.821890	0.465037	0.297648
Br71	Br	0.677938	-0.244876	-0.644929
Br72	Br	0.696735	0.435349	-0.156013
H73	H	0.720287	0.196543	-0.094871
Br74	Br	0.819318	0.196504	0.295422
Br75	Br	0.958751	0.228114	0.145840
Br76	Br	0.957158	0.494149	0.132269
Br77	Br	0.784731	-0.438459	-0.354832
H78	H	0.910765	-0.296405	-0.619241
Br79	Br	0.972306	-0.080217	-0.648067
Br80	Br	0.969412	-0.068854	-0.356132
