data_functionalizedCrystal
_audit_creation_method	'MofGen! by Chris Wilmer'
_symmetry_space_group_name_H-M	'P1'
_symmetry_Int_Tables_number	1
_symmetry_cell_setting	triclinic
loop_
_symmetry_equiv_pos_as_xyz
  x,y,z
_cell_length_a	42.784839
_cell_length_b	42.784841
_cell_length_c	42.784893
_cell_angle_alpha	90.002418
_cell_angle_beta	59.997780
_cell_angle_gamma	119.999863
loop_
_atom_site_label
_atom_site_type_symbol
_atom_site_fract_x
_atom_site_fract_y
_atom_site_fract_z
O1	O	0.275695	-0.214412	-0.009300
O2	O	0.211692	-0.168961	0.009253
O3	O	0.275692	-0.168961	-0.054750
O4	O	0.211694	-0.214412	0.054702
O5	O	0.223708	-0.220945	-0.054749
O6	O	0.159708	-0.220945	0.009253
O7	O	0.223710	-0.266397	-0.009300
Zn8	Zn	0.183455	-0.251924	-0.000023
Zn9	Zn	0.251947	-0.183433	-0.000024
O10	O	0.159710	-0.266396	0.054703
C11	C	0.051021	-0.022778	0.028112
C12	C	0.013142	-0.041761	0.028375
C13	C	0.051018	-0.079378	0.028116
C14	C	0.013139	-0.098275	0.028379
C15	C	-0.005578	-0.079377	0.028112
C16	C	0.069652	-0.041762	0.028379
C17	C	0.152948	0.113708	0.017863
C18	C	0.173786	0.152360	0.014965
C19	C	0.155902	0.171750	0.013509
C20	C	0.178499	0.213661	0.010359
C21	C	0.117177	0.152485	0.014953
C22	C	0.096339	0.113835	0.017857
C23	C	0.114226	0.094447	0.019312
C24	C	-0.131813	-0.113936	0.017859
C25	C	-0.167567	-0.131750	0.014961
C26	C	-0.185502	-0.169024	0.013506
C27	C	-0.224264	-0.188340	0.010358
C28	C	-0.167685	-0.188485	0.014954
C29	C	-0.131938	-0.170675	0.017859
C30	C	-0.114002	-0.133396	0.019309
C31	C	0.152939	-0.113943	0.017877
C32	C	0.173778	-0.131757	0.014977
C33	C	0.155892	-0.169032	0.013523
C34	C	0.178486	-0.188349	0.010377
C35	C	0.117170	-0.188491	0.014967
C36	C	0.096334	-0.170675	0.017865
C37	C	0.114220	-0.133401	0.019323
C38	C	0.091629	0.052537	0.022456
C39	C	0.073617	0.019131	0.024964
C40	C	0.073613	-0.098693	0.024971
C41	C	0.091623	-0.114089	0.022466
C42	C	-0.044339	-0.098690	0.024964
C43	C	-0.075237	-0.114084	0.022456
O44	O	-0.327856	-0.266388	-0.009322
O45	O	-0.236954	-0.220935	0.009228
O46	O	-0.236950	-0.220939	-0.054773
O47	O	-0.327860	-0.266385	0.054680
O48	O	-0.236948	-0.168954	-0.054776
O49	O	-0.236952	-0.168950	0.009225
O50	O	-0.327854	-0.214403	-0.009325
Zn51	Zn	-0.282403	-0.183423	-0.000050
Zn52	Zn	-0.282405	-0.251916	-0.000046
O53	O	-0.327858	-0.214400	0.054676
C54	C	0.384390	-0.079141	-0.361606
C55	C	0.422270	-0.041526	-0.380503
C56	C	0.384390	-0.079141	-0.305008
C57	C	0.422270	-0.041526	-0.323990
C58	C	0.440988	-0.022543	-0.361606
C59	C	0.365758	-0.098038	-0.323991
C60	C	0.282465	-0.170819	-0.396168
C61	C	0.261627	-0.188759	-0.413983
C62	C	0.279513	-0.169420	-0.451257
C63	C	0.256917	-0.188867	-0.470572
C64	C	0.318239	-0.132140	-0.470717
C65	C	0.339076	-0.114205	-0.452905
C66	C	0.321187	-0.133546	-0.415628
C67	C	0.567227	0.113942	-0.453282
C68	C	0.602981	0.152594	-0.471222
C69	C	0.620916	0.171985	-0.451883
C70	C	0.659678	0.213894	-0.471328
C71	C	0.603097	0.152719	-0.414603
C72	C	0.567349	0.114068	-0.396667
C73	C	0.549414	0.094682	-0.416011
C74	C	0.282465	-0.170819	-0.168522
C75	C	0.261624	-0.188757	-0.129868
C76	C	0.279510	-0.169418	-0.110479
C77	C	0.256914	-0.188865	-0.068568
C78	C	0.318233	-0.132140	-0.129742
C79	C	0.339070	-0.114203	-0.168394
C80	C	0.321184	-0.133548	-0.187782
C81	C	0.343783	-0.114094	-0.396315
C82	C	0.361794	-0.098590	-0.380920
C83	C	0.361794	-0.098590	-0.263099
C84	C	0.343783	-0.114094	-0.229693
C85	C	0.479750	0.019366	-0.381054
C86	C	0.510649	0.052771	-0.396557
C87	C	0.440758	-0.356212	-0.028193
C88	C	0.422041	-0.393827	-0.028459
C89	C	0.384158	-0.356213	-0.028190
C90	C	0.365526	-0.393828	-0.028456
C91	C	0.384160	-0.412810	-0.028193
C92	C	0.422038	-0.337315	-0.028456
C93	C	0.567000	-0.264532	-0.017949
C94	C	0.602755	-0.246591	-0.015053
C95	C	0.620692	-0.265931	-0.013601
C96	C	0.659455	-0.246483	-0.010453
C97	C	0.602873	-0.303210	-0.015048
C98	C	0.567125	-0.321146	-0.017949
C99	C	0.549188	-0.301805	-0.019399
C100	C	0.339356	-0.549295	-0.017951
C101	C	0.318645	-0.587947	-0.015055
C102	C	0.279915	-0.607338	-0.013597
C103	C	0.257452	-0.649247	-0.010452
C104	C	0.261899	-0.588073	-0.015042
C105	C	0.282613	-0.549422	-0.017945
C106	C	0.321343	-0.530035	-0.019397
C107	C	0.339344	-0.264537	-0.017936
C108	C	0.318628	-0.246599	-0.015032
C109	C	0.279898	-0.265939	-0.013577
C110	C	0.257433	-0.246493	-0.010426
C111	C	0.261884	-0.303217	-0.015022
C112	C	0.282601	-0.321153	-0.017924
C113	C	0.321334	-0.301808	-0.019385
C114	C	0.510421	-0.321258	-0.022542
C115	C	0.479522	-0.336762	-0.025048
C116	C	0.361696	-0.336765	-0.025041
C117	C	0.343793	-0.321261	-0.022532
C118	C	0.361701	-0.454719	-0.025047
C119	C	0.343799	-0.488125	-0.022541
O120	O	0.223728	0.336934	-0.009323
O121	O	0.159726	0.227482	0.009227
O122	O	0.223729	0.291478	-0.054775
O123	O	0.159725	0.272938	0.054678
O124	O	0.275711	0.291477	-0.054771
O125	O	0.211707	0.227481	0.009230
O126	O	0.275710	0.336932	-0.009320
Zn127	Zn	0.251962	0.282206	-0.000045
Zn128	Zn	0.183474	0.282208	-0.000049
O129	O	0.211707	0.272936	0.054681
O130	O	0.763271	0.337164	-0.496871
O131	O	0.672367	0.227713	-0.451422
O132	O	0.672365	0.291711	-0.451418
O133	O	0.763273	0.273165	-0.496876
O134	O	0.672366	0.291712	-0.503402
O135	O	0.672368	0.227714	-0.503407
O136	O	0.763272	0.337165	-0.548856
Zn137	Zn	0.717820	0.282440	-0.534385
Zn138	Zn	0.717819	0.282438	-0.465893
O139	O	0.763275	0.273167	-0.548860
O140	O	0.211690	-0.214417	-0.548617
O141	O	0.275691	-0.168962	-0.503167
O142	O	0.211689	-0.168964	-0.503163
O143	O	0.275692	-0.214415	-0.548621
O144	O	0.159706	-0.220947	-0.451179
O145	O	0.223708	-0.220945	-0.451183
O146	O	0.159707	-0.266400	-0.496633
Zn147	Zn	0.183454	-0.251926	-0.465654
Zn148	Zn	0.251944	-0.183436	-0.534146
O149	O	0.223709	-0.266398	-0.496637
C150	C	-0.005343	-0.412572	0.361558
C151	C	0.013375	-0.393590	0.380456
C152	C	0.051255	-0.355974	0.304961
C153	C	0.069887	-0.337077	0.323944
C154	C	0.051254	-0.355974	0.361560
C155	C	0.013375	-0.393589	0.323943
C156	C	-0.131582	-0.549057	0.396116
C157	C	-0.167336	-0.587709	0.413930
C158	C	-0.185271	-0.607098	0.451205
C159	C	-0.224034	-0.649009	0.470519
C160	C	-0.167452	-0.587833	0.470666
C161	C	-0.131705	-0.549184	0.452854
C162	C	-0.113770	-0.529796	0.415578
C163	C	0.096061	-0.321414	0.453239
C164	C	0.116773	-0.303600	0.471179
C165	C	0.155502	-0.266327	0.451842
C166	C	0.177965	-0.247011	0.471288
C167	C	0.173517	-0.246866	0.414562
C168	C	0.152802	-0.264677	0.396625
C169	C	0.114073	-0.301955	0.415968
C170	C	0.096064	-0.321412	0.168474
C171	C	0.116779	-0.303599	0.129820
C172	C	0.155508	-0.266324	0.110432
C173	C	0.177972	-0.247009	0.068521
C174	C	0.173522	-0.246865	0.129696
C175	C	0.152807	-0.264680	0.168348
C176	C	0.114075	-0.301953	0.187735
C177	C	-0.075004	-0.487887	0.396265
C178	C	-0.044106	-0.454481	0.380871
C179	C	0.073715	-0.336660	0.263052
C180	C	0.091618	-0.321265	0.229646
C181	C	0.073714	-0.336661	0.381009
C182	C	0.091616	-0.321267	0.396513
C183	C	0.051046	-0.022794	-0.361634
C184	C	0.069679	-0.041778	-0.380530
C185	C	-0.005555	-0.079390	-0.305034
C186	C	0.013163	-0.098288	-0.324016
C187	C	0.051045	-0.079393	-0.361631
C188	C	0.013164	-0.041775	-0.324018
C189	C	0.095858	0.113693	-0.396200
C190	C	0.116571	0.152344	-0.414015
C191	C	0.155302	0.171732	-0.451290
C192	C	0.177767	0.213642	-0.470607
C193	C	0.173317	0.152465	-0.470750
C194	C	0.152600	0.113815	-0.452936
C195	C	0.113869	0.094429	-0.415659
C196	C	0.152973	-0.113959	-0.453306
C197	C	0.173810	-0.131775	-0.471245
C198	C	0.155926	-0.169048	-0.451906
C199	C	0.178519	-0.188366	-0.471350
C200	C	0.117198	-0.188507	-0.414626
C201	C	0.096358	-0.170694	-0.396690
C202	C	0.114251	-0.133416	-0.416035
C203	C	-0.131801	-0.113944	-0.168548
C204	C	-0.167554	-0.131755	-0.129895
C205	C	-0.185491	-0.169029	-0.110504
C206	C	-0.224255	-0.188343	-0.068593
C207	C	-0.167671	-0.188490	-0.129767
C208	C	-0.131918	-0.170677	-0.168418
C209	C	-0.113988	-0.133404	-0.187808
C210	C	0.091411	0.052521	-0.396344
C211	C	0.073508	0.019115	-0.380949
C212	C	-0.044320	-0.098701	-0.263125
C213	C	-0.075220	-0.114094	-0.229719
C214	C	0.073641	-0.098707	-0.381079
C215	C	0.091652	-0.114103	-0.396582
C216	C	-0.615853	-0.356193	0.361535
C217	C	-0.634487	-0.393808	0.380433
C218	C	-0.559253	-0.356195	0.304938
C219	C	-0.577972	-0.393810	0.323921
C220	C	-0.615854	-0.412792	0.361537
C221	C	-0.577972	-0.337297	0.323920
C222	C	-0.660661	-0.264512	0.396093
C223	C	-0.681373	-0.246571	0.413906
C224	C	-0.720104	-0.265909	0.451181
C225	C	-0.742568	-0.246461	0.470495
C226	C	-0.738120	-0.303189	0.470643
C227	C	-0.717405	-0.321125	0.452831
C228	C	-0.678674	-0.301785	0.415554
C229	C	-0.717784	-0.549275	0.453218
C230	C	-0.738622	-0.587926	0.471159
C231	C	-0.720740	-0.607319	0.451822
C232	C	-0.743333	-0.649227	0.471268
C233	C	-0.682012	-0.588055	0.414542
C234	C	-0.661170	-0.549403	0.396604
C235	C	-0.679063	-0.530016	0.415946
C236	C	-0.433006	-0.264522	0.168449
C237	C	-0.397253	-0.246585	0.129796
C238	C	-0.379317	-0.265926	0.110407
C239	C	-0.340553	-0.246480	0.068496
C240	C	-0.397138	-0.303204	0.129672
C241	C	-0.432891	-0.321139	0.168324
C242	C	-0.450820	-0.301793	0.187711
C243	C	-0.656216	-0.321238	0.396242
C244	C	-0.638314	-0.336743	0.380848
C245	C	-0.520488	-0.336748	0.263028
C246	C	-0.489588	-0.321245	0.229622
C247	C	-0.638451	-0.454700	0.380987
C248	C	-0.656463	-0.488106	0.396492
C249	C	0.440756	0.310302	-0.361620
C250	C	0.422038	0.310564	-0.380518
C251	C	0.384160	0.310312	-0.305026
C252	C	0.365528	0.310574	-0.324010
C253	C	0.384159	0.310303	-0.361624
C254	C	0.422038	0.310573	-0.324006
C255	C	0.566989	0.300046	-0.396172
C256	C	0.602741	0.297145	-0.413984
C257	C	0.620675	0.295684	-0.451257
C258	C	0.659436	0.292531	-0.470569
C259	C	0.602857	0.297127	-0.470719
C260	C	0.567111	0.300033	-0.452909
C261	C	0.549177	0.301493	-0.415634
C262	C	0.339351	0.300042	-0.453303
C263	C	0.318640	0.297142	-0.471244
C264	C	0.279912	0.295690	-0.451908
C265	C	0.257449	0.292541	-0.471354
C266	C	0.261899	0.297143	-0.414629
C267	C	0.282613	0.300049	-0.396692
C268	C	0.321341	0.301496	-0.416033
C269	C	0.339354	0.300088	-0.168540
C270	C	0.318640	0.297192	-0.129888
C271	C	0.279912	0.295742	-0.110501
C272	C	0.257450	0.292601	-0.068591
C273	C	0.261898	0.297184	-0.129766
C274	C	0.282612	0.300078	-0.168417
C275	C	0.321344	0.301533	-0.187802
C276	C	0.510413	0.304640	-0.396323
C277	C	0.479516	0.307151	-0.380931
C278	C	0.361701	0.307173	-0.263117
C279	C	0.343799	0.304671	-0.229712
C280	C	0.361700	0.307154	-0.381073
C281	C	0.343798	0.304644	-0.396578
O282	O	0.275503	0.336913	-0.548651
O283	O	0.211494	0.227461	-0.503201
O284	O	0.275490	0.291455	-0.503192
O285	O	0.211507	0.272919	-0.548659
O286	O	0.223502	0.291457	-0.451211
O287	O	0.159506	0.227463	-0.451219
O288	O	0.223515	0.336915	-0.496669
Zn289	Zn	0.183256	0.282189	-0.465691
Zn290	Zn	0.251753	0.282187	-0.534179
O291	O	0.159519	0.272921	-0.496677
C292	C	0.051032	0.254111	0.361530
C293	C	0.013154	0.253851	0.380425
C294	C	0.051031	0.254102	0.304932
C295	C	0.013153	0.253842	0.323913
C296	C	-0.005564	0.254113	0.361527
C297	C	0.069663	0.253840	0.323916
C298	C	0.152954	0.264360	0.396096
C299	C	0.173791	0.267260	0.413911
C300	C	0.155906	0.268721	0.451185
C301	C	0.178502	0.271871	0.470501
C302	C	0.117182	0.267279	0.470643
C303	C	0.096345	0.264374	0.452830
C304	C	0.114233	0.262915	0.415555
C305	C	-0.131796	0.264379	0.453195
C306	C	-0.167548	0.267281	0.471133
C307	C	-0.185483	0.268734	0.451793
C308	C	-0.224243	0.271886	0.471236
C309	C	-0.167664	0.267282	0.414515
C310	C	-0.131919	0.264374	0.396581
C311	C	-0.113984	0.262925	0.415925
C312	C	0.152952	0.264325	0.168451
C313	C	0.173792	0.267221	0.129798
C314	C	0.155907	0.268673	0.110407
C315	C	0.178502	0.271814	0.068498
C316	C	0.117186	0.267232	0.129669
C317	C	0.096350	0.264339	0.168320
C318	C	0.114234	0.262881	0.187709
C319	C	0.091638	0.259769	0.396240
C320	C	0.073627	0.257260	0.380845
C321	C	0.073626	0.257242	0.263024
C322	C	0.091636	0.259743	0.229619
C323	C	-0.044324	0.257264	0.380973
C324	C	-0.075221	0.259775	0.396474
H325	H	0.102606	-0.218843	0.013783
O326	O	-0.185072	-0.224668	0.013475
C327	C	-0.181587	-0.224586	-0.021087
H328	H	-0.153881	-0.194673	-0.043198
H329	H	-0.214131	-0.233197	-0.015851
C330	C	-0.205274	-0.290010	-0.008891
C331	C	-0.171243	-0.253271	-0.036048
H332	H	-0.198895	-0.307706	-0.018119
H333	H	-0.207624	-0.290067	0.014395
H334	H	-0.232391	-0.297181	-0.004530
H335	H	-0.144128	-0.246099	-0.040405
H336	H	-0.168888	-0.253214	-0.059336
H337	H	0.267943	-0.533739	-0.019121
H338	H	0.370607	-0.083853	-0.468752
H339	H	0.167516	0.097925	0.019049
O340	O	0.265057	-0.357357	-0.019345
C341	C	0.226427	-0.370585	-0.017430
H342	H	0.227579	-0.345082	-0.027383
H343	H	0.196232	-0.388581	0.013343
C344	C	0.222046	-0.426497	-0.031241
C345	C	0.223463	-0.395174	-0.043468
H346	H	0.220216	-0.441667	-0.047300
H347	H	0.248071	-0.417587	-0.032530
H348	H	0.196883	-0.441490	-0.005596
H349	H	0.248629	-0.380180	-0.069111
H350	H	0.197442	-0.404083	-0.042184
O351	O	0.549762	0.301457	-0.471764
C352	C	0.514356	0.304322	-0.448046
H353	H	0.518263	0.316749	-0.425655
H354	H	0.481819	0.274682	-0.433135
C355	C	0.509558	0.315444	-0.500027
C356	C	0.514359	0.330710	-0.472529
H357	H	0.509558	0.331720	-0.515129
H358	H	0.533411	0.313512	-0.516006
H359	H	0.482444	0.290744	-0.487597
H360	H	0.541475	0.355407	-0.484959
H361	H	0.490511	0.332647	-0.456552
H362	H	0.335269	-0.128941	-0.308748
H363	H	-0.117212	-0.083598	-0.184336
O364	O	0.099353	-0.322484	0.507368
C365	C	0.130440	-0.325968	0.507339
H366	H	0.165108	-0.302699	0.481417
H367	H	0.123024	-0.355295	0.505928
C368	C	0.085002	-0.350174	0.576071
C369	C	0.127583	-0.321592	0.544234
H370	H	0.083239	-0.347476	0.598830
H371	H	0.064057	-0.347828	0.576090
H372	H	0.078828	-0.374610	0.574889
H373	H	0.133754	-0.297157	0.545413
H374	H	0.148529	-0.323934	0.544216
H375	H	0.617704	0.168507	-0.398859
H376	H	0.332799	-0.116397	-0.501067
H377	H	0.230346	-0.318966	-0.013835
O378	O	0.211165	-0.210676	0.395719
C379	C	0.244168	-0.209859	0.362030
H380	H	0.227997	-0.234888	0.353024
H381	H	0.266460	-0.212230	0.367583
C382	C	0.291814	-0.141215	0.340954
C383	C	0.271952	-0.171954	0.329891
H384	H	0.308953	-0.117833	0.321130
H385	H	0.269580	-0.141765	0.363652
H386	H	0.310386	-0.143195	0.345582
H387	H	0.253375	-0.169976	0.325268
H388	H	0.294183	-0.171403	0.307192
H389	H	-0.447603	-0.248768	0.184232
H390	H	0.370885	0.301223	-0.469054
O391	O	0.440756	-0.412006	-0.029039
C392	C	0.453405	-0.422613	-0.062184
H393	H	0.458043	-0.403498	-0.084924
H394	H	0.426608	-0.453745	-0.054826
C395	C	0.491459	-0.441446	-0.049680
C396	C	0.497159	-0.417966	-0.077611
H397	H	0.518447	-0.438582	-0.059196
H398	H	0.482936	-0.434301	-0.027349
H399	H	0.469127	-0.467387	-0.043551
H400	H	0.519487	-0.392026	-0.083737
H401	H	0.505687	-0.425107	-0.099944
O402	O	0.106238	-0.300201	0.305715
C403	C	0.118757	-0.287522	0.268369
H404	H	0.089006	-0.305525	0.267195
H405	H	0.146138	-0.290592	0.247311
C406	C	0.172174	-0.223097	0.259047
C407	C	0.135632	-0.245206	0.257606
H408	H	0.182585	-0.196993	0.252407
H409	H	0.163741	-0.231639	0.284208
H410	H	0.194987	-0.225659	0.241499
H411	H	0.112818	-0.242647	0.275158
H412	H	0.144062	-0.236662	0.232448
O413	O	0.210981	0.171331	-0.506931
C414	C	0.245458	0.202410	-0.506846
H415	H	0.237651	0.196817	-0.476931
H416	H	0.248833	0.229717	-0.515460
C417	C	0.298691	0.213897	-0.572269
C418	C	0.289105	0.207026	-0.535528
H419	H	0.325615	0.216745	-0.589963
H420	H	0.275463	0.192959	-0.572327
H421	H	0.301501	0.236652	-0.579442
H422	H	0.286289	0.184269	-0.528354
H423	H	0.312333	0.227959	-0.535470
H424	H	0.617482	-0.318952	-0.013867
O425	O	0.550082	0.095417	-0.360450
C426	C	0.573583	0.120814	-0.347228
H427	H	0.590214	0.151533	-0.363893
H428	H	0.599796	0.116872	-0.351628
C429	C	0.520950	0.074656	-0.283860
C430	C	0.541374	0.112385	-0.304327
H431	H	0.501084	0.069456	-0.257397
H432	H	0.505118	0.057545	-0.292768
H433	H	0.542798	0.071375	-0.287532
H434	H	0.519527	0.115664	-0.300659
H435	H	0.557202	0.129496	-0.295417
H436	H	-0.117214	-0.083584	0.019042
H437	H	0.552391	0.301235	-0.365822
H438	H	0.333308	0.295959	-0.501595
H439	H	-0.664969	-0.409045	0.411340
O440	O	-0.005573	-0.023644	-0.305775
C441	C	-0.043100	-0.048485	-0.268440
H442	H	-0.040100	-0.071227	-0.259087
H443	H	-0.074053	-0.062901	-0.268123
C444	C	-0.050015	0.002505	-0.252208
C445	C	-0.046329	-0.025424	-0.240718
H446	H	-0.052008	0.016730	-0.235107
H447	H	-0.024733	0.019241	-0.277361
H448	H	-0.075809	-0.009513	-0.251943
H449	H	-0.020532	-0.013406	-0.240987
H450	H	-0.071607	-0.042157	-0.215564
H451	H	0.437930	-0.026285	-0.308746
H452	H	0.370892	0.301275	-0.184323
O453	O	0.058227	0.094915	-0.359996
C454	C	0.046775	0.120209	-0.346639
H455	H	0.062254	0.144592	-0.372073
H456	H	0.059522	0.132373	-0.328615
C457	C	-0.022877	0.068520	-0.290799
C458	C	-0.003868	0.098466	-0.322038
H459	H	-0.054115	0.055108	-0.275622
H460	H	-0.015161	0.051479	-0.299797
H461	H	-0.012249	0.078661	-0.275784
H462	H	-0.014491	0.088324	-0.337055
H463	H	-0.011586	0.115505	-0.313041
O464	O	0.440793	0.311100	-0.305884
C465	C	0.478298	0.311256	-0.330709
H466	H	0.491220	0.322999	-0.361636
H467	H	0.468901	0.280805	-0.324381
C468	C	0.498631	0.322272	-0.286616
C469	C	0.514505	0.336699	-0.324600
H470	H	0.520965	0.337965	-0.282847
H471	H	0.473362	0.322166	-0.269890
H472	H	0.490800	0.296897	-0.281346
H473	H	0.522330	0.362072	-0.329867
H474	H	0.539776	0.336810	-0.341327
O475	O	0.106070	0.253396	0.305695
C476	C	0.140956	0.286181	0.272693
H477	H	0.135035	0.309529	0.276151
H478	H	0.142528	0.278625	0.246625
C479	C	0.192212	0.271983	0.262939
C480	C	0.184942	0.300661	0.267188
H481	H	0.219345	0.280914	0.259542
H482	H	0.168708	0.249894	0.285172
H483	H	0.193519	0.265689	0.241216
H484	H	0.183629	0.306951	0.288914
H485	H	0.208446	0.322751	0.244959
H486	H	-0.182059	-0.115906	-0.114213
H487	H	0.064808	0.098152	0.019035
O488	O	-0.735135	-0.530441	0.472049
C489	C	-0.736655	-0.531142	0.505746
H490	H	-0.711284	-0.535714	0.502561
H491	H	-0.771101	-0.555507	0.531076
C492	C	-0.757219	-0.487202	0.516551
C493	C	-0.726055	-0.492814	0.512638
H494	H	-0.750682	-0.463561	0.520803
H495	H	-0.756196	-0.486731	0.493849
H496	H	-0.785921	-0.507509	0.537659
H497	H	-0.697354	-0.472510	0.491527
H498	H	-0.727073	-0.493281	0.535336
H499	H	-0.002512	0.253428	0.411332
O500	O	0.099149	0.171113	-0.395132
C501	C	0.130234	0.202172	-0.391646
H502	H	0.164903	0.210918	-0.414915
H503	H	0.122816	0.193347	-0.362318
C504	C	0.084795	0.225466	-0.367441
C505	C	0.127377	0.236209	-0.396023
H506	H	0.083032	0.246461	-0.370140
H507	H	0.063852	0.204540	-0.369789
H508	H	0.078618	0.218111	-0.343005
H509	H	0.133550	0.243559	-0.420459
H510	H	0.148321	0.257137	-0.393680
O511	O	-0.559292	-0.412020	0.305804
C512	C	-0.546623	-0.422609	0.326290
H513	H	-0.566994	-0.424627	0.357351
H514	H	-0.510046	-0.400180	0.312891
C515	C	-0.529658	-0.459267	0.286659
C516	C	-0.554681	-0.461749	0.324809
H517	H	-0.534626	-0.483409	0.285745
H518	H	-0.538192	-0.452132	0.272857
H519	H	-0.499179	-0.440575	0.275498
H520	H	-0.585159	-0.480436	0.335969
H521	H	-0.546152	-0.468887	0.338614
O522	O	0.336069	-0.606712	-0.013595
C523	C	0.304988	-0.637771	0.020975
H524	H	0.270317	-0.646521	0.032377
H525	H	0.312405	-0.628944	0.042885
C526	C	0.350434	-0.661057	-0.000265
C527	C	0.307851	-0.671806	0.013737
H528	H	0.352201	-0.682051	-0.004728
H529	H	0.371376	-0.640131	-0.023555
H530	H	0.356610	-0.653700	0.017996
H531	H	0.301678	-0.679157	-0.004525
H532	H	0.286908	-0.692733	0.037024
O533	O	0.376952	-0.245700	-0.019327
C534	C	0.388412	-0.208951	-0.017433
H535	H	0.357725	-0.208882	-0.003342
H536	H	0.414203	-0.187139	-0.047588
C537	C	0.445236	-0.198448	-0.010968
C538	C	0.407544	-0.198365	0.006341
H539	H	0.457039	-0.191916	0.003696
H540	H	0.437516	-0.223206	-0.012245
H541	H	0.466724	-0.180272	-0.036097
H542	H	0.386055	-0.216544	0.031468
H543	H	0.415261	-0.173609	0.007624
O544	O	-0.005510	0.253399	0.305727
C545	C	-0.005716	0.286190	0.303835
H546	H	0.021094	0.309537	0.306294
H547	H	-0.039336	0.278643	0.328331
C548	C	-0.029670	0.271987	0.262335
C549	C	0.003261	0.300665	0.265353
H550	H	-0.024135	0.280916	0.238599
H551	H	-0.029533	0.249895	0.263611
H552	H	-0.057684	0.265701	0.282751
H553	H	0.031273	0.306948	0.244940
H554	H	0.003129	0.322759	0.264073
H555	H	-0.182279	-0.218843	-0.113977
H556	H	0.167269	0.098131	-0.468782
O557	O	0.224312	0.295784	-0.395902
C558	C	0.231439	0.326997	-0.416672
H559	H	0.259903	0.337525	-0.447967
H560	H	0.239989	0.351145	-0.404258
C561	C	0.154264	0.301319	-0.375418
C562	C	0.189222	0.314247	-0.413856
H563	H	0.128223	0.293456	-0.373679
H564	H	0.149463	0.280291	-0.361424
H565	H	0.161396	0.321445	-0.365077
H566	H	0.182093	0.294120	-0.424194
H567	H	0.194021	0.335272	-0.427851
O568	O	0.058753	-0.189598	0.019216
C569	C	0.067427	-0.199116	-0.014385
H570	H	0.097538	-0.199957	-0.027454
H571	H	0.074189	-0.176695	-0.035783
C572	C	-0.009890	-0.237632	0.011519
C573	C	0.027090	-0.238668	-0.004531
H574	H	-0.034772	-0.262029	0.017597
H575	H	-0.015734	-0.231219	0.034156
H576	H	-0.004249	-0.218946	-0.006315
H577	H	0.021451	-0.257350	0.013305
H578	H	0.032933	-0.245085	-0.027165
O579	O	-0.775785	-0.321983	0.506823
C580	C	-0.810261	-0.325382	0.506736
H581	H	-0.802452	-0.323171	0.476820
H582	H	-0.813638	-0.301450	0.515349
C583	C	-0.863497	-0.367123	0.572159
C584	C	-0.853908	-0.364411	0.535417
H585	H	-0.890422	-0.391197	0.589852
H586	H	-0.840270	-0.364833	0.572219
H587	H	-0.866309	-0.347178	0.579331
H588	H	-0.851092	-0.384353	0.528243
H589	H	-0.877136	-0.366706	0.535357
O590	O	0.170397	-0.077757	-0.472158
C591	C	0.209049	-0.064401	-0.508903
H592	H	0.208001	-0.089834	-0.517808
H593	H	0.239236	-0.046376	-0.508319
C594	C	0.213195	-0.008565	-0.526865
C595	C	0.211906	-0.039803	-0.537803
H596	H	0.214959	0.006610	-0.544692
H597	H	0.187155	-0.017562	-0.502109
H598	H	0.238350	0.006452	-0.526378
H599	H	0.186748	-0.054821	-0.538285
H600	H	0.237941	-0.030808	-0.562560
H601	H	0.617463	0.295940	-0.501068
O602	O	0.224310	-0.606934	-0.013678
C603	C	0.231435	-0.620575	-0.044894
H604	H	0.259901	-0.623405	-0.055428
H605	H	0.239982	-0.599611	-0.069038
C606	C	0.154259	-0.656497	-0.019207
C607	C	0.189219	-0.659976	-0.032144
H608	H	0.128218	-0.680801	-0.011344
H609	H	0.149458	-0.647306	0.001822
H610	H	0.161387	-0.639026	-0.039330
H611	H	0.182093	-0.677444	-0.012020
H612	H	0.194017	-0.669171	-0.053170
O613	O	0.211464	-0.112893	-0.507434
C614	C	0.246007	-0.109408	-0.507406
H615	H	0.231482	-0.132677	-0.481483
H616	H	0.266507	-0.080081	-0.505996
C617	C	0.293510	-0.085205	-0.576138
C618	C	0.275670	-0.113786	-0.544300
H619	H	0.311808	-0.087904	-0.598896
H620	H	0.270238	-0.087552	-0.576157
H621	H	0.310590	-0.060769	-0.574957
H622	H	0.258585	-0.138221	-0.545478
H623	H	0.298939	-0.111444	-0.544282
H624	H	0.335043	-0.409068	-0.028878
H625	H	0.332793	-0.116391	-0.113952
H626	H	0.205322	0.268398	0.114116
O627	O	0.620218	0.171307	-0.507405
C628	C	0.587262	0.170525	-0.508148
H629	H	0.560574	0.166024	-0.478202
H630	H	0.571938	0.146081	-0.518120
C631	C	0.640795	0.214299	-0.572723
C632	C	0.608018	0.208774	-0.535943
H633	H	0.653598	0.237892	-0.589869
H634	H	0.662998	0.214825	-0.572223
H635	H	0.628020	0.193926	-0.581028
H636	H	0.620794	0.229144	-0.527637
H637	H	0.585817	0.208253	-0.536442
O638	O	-0.114671	-0.189625	0.019245
C639	C	-0.138173	-0.226348	0.017349
H640	H	-0.154804	-0.226314	0.003261
H641	H	-0.164386	-0.248160	0.047505
C642	C	-0.085542	-0.237085	0.010878
C643	C	-0.105965	-0.237043	-0.006428
H644	H	-0.065676	-0.243683	-0.003787
H645	H	-0.069709	-0.212345	0.012156
H646	H	-0.107391	-0.255261	0.036007
H647	H	-0.084117	-0.218863	-0.031554
H648	H	-0.121793	-0.261780	-0.007711
H649	H	0.205059	-0.216514	0.113907
O650	O	0.376688	-0.077996	-0.187051
C651	C	0.387999	-0.064767	-0.161648
H652	H	0.372459	-0.090269	-0.137303
H653	H	0.375208	-0.046781	-0.149441
C654	C	0.457709	-0.008842	-0.213174
C655	C	0.438626	-0.040165	-0.183275
H656	H	0.488938	0.006335	-0.226514
H657	H	0.450088	-0.017754	-0.230289
H658	H	0.447045	0.006142	-0.202997
H659	H	0.449285	-0.055151	-0.193452
H660	H	0.446249	-0.031255	-0.166162
H661	H	-0.002509	-0.129196	-0.308775
H662	H	0.552629	0.098160	-0.469035
O663	O	0.265020	-0.189656	-0.187293
C664	C	0.226378	-0.226406	-0.162005
H665	H	0.212219	-0.226475	-0.131249
H666	H	0.234725	-0.248216	-0.165985
C667	C	0.209412	-0.236911	-0.208327
C668	C	0.192019	-0.236994	-0.170552
H669	H	0.188218	-0.243444	-0.213600
H670	H	0.235447	-0.212153	-0.225365
H671	H	0.216368	-0.255086	-0.211639
H672	H	0.185069	-0.218816	-0.167242
H673	H	0.165983	-0.261750	-0.153515
H674	H	-0.117201	-0.533500	0.468702
O675	O	0.440727	-0.300462	-0.028908
C676	C	0.440902	-0.298370	0.003897
H677	H	0.439106	-0.323769	0.015189
H678	H	0.411147	-0.299054	0.026891
C679	C	0.485922	-0.229657	-0.020452
C680	C	0.483719	-0.260850	-0.006585
H681	H	0.512332	-0.206512	-0.026917
H682	H	0.485803	-0.231066	-0.042554
H683	H	0.461123	-0.230232	-0.001288
H684	H	0.508515	-0.260277	-0.025751
H685	H	0.483843	-0.259440	0.015512
O686	O	-0.450263	-0.357353	0.187091
C687	C	-0.485658	-0.369032	0.225365
H688	H	-0.499428	-0.351572	0.227511
H689	H	-0.473407	-0.364263	0.244402
C690	C	-0.505354	-0.433259	0.235924
C691	C	-0.522270	-0.411817	0.238559
H692	H	-0.527938	-0.459651	0.244064
H693	H	-0.481507	-0.425390	0.210139
H694	H	-0.495146	-0.429281	0.251788
H695	H	-0.532473	-0.415791	0.222692
H696	H	-0.546119	-0.419687	0.264343
H697	H	0.335046	0.310999	-0.308768
H698	H	-0.002293	-0.408830	0.308704
O699	O	0.099830	-0.224732	-0.395895
C700	C	0.089381	-0.248823	-0.416660
H701	H	0.110146	-0.230894	-0.447956
H702	H	0.052819	-0.264419	-0.404244
C703	C	0.073805	-0.300313	-0.375401
C704	C	0.099311	-0.278293	-0.413840
H705	H	0.079928	-0.318493	-0.373660
H706	H	0.080843	-0.284083	-0.361410
H707	H	0.043338	-0.313306	-0.365058
H708	H	0.129777	-0.265297	-0.424180
H709	H	0.092279	-0.294521	-0.427833
H710	H	0.064825	-0.186540	-0.366338
H711	H	0.167518	0.263140	0.184235
O712	O	-0.184785	0.268767	0.507314
C713	C	-0.151829	0.300943	0.508054
H714	H	-0.125137	0.323123	0.478105
H715	H	-0.136509	0.291824	0.518034
C716	C	-0.205362	0.291204	0.572622
C717	C	-0.172581	0.318447	0.535838
H718	H	-0.218163	0.302001	0.589761
H719	H	-0.227566	0.269526	0.572124
H720	H	-0.192591	0.283608	0.580933
H721	H	-0.185353	0.326040	0.527526
H722	H	-0.150379	0.340128	0.536335
H723	H	0.333296	-0.216247	-0.013853
O724	O	0.170230	-0.245824	0.360422
C725	C	0.143649	-0.269544	0.348735
H726	H	0.108834	-0.291936	0.375033
H727	H	0.158384	-0.284452	0.331106
C728	C	0.184499	-0.217565	0.291957
C729	C	0.141738	-0.245066	0.324257
H730	H	0.183322	-0.202466	0.276856
H731	H	0.202409	-0.201584	0.299830
H732	H	0.196774	-0.229993	0.277271
H733	H	0.129466	-0.232638	0.338945
H734	H	0.123826	-0.261044	0.316385
O735	O	-0.005378	-0.411821	0.417331
C736	C	-0.042909	-0.449154	0.430021
H737	H	-0.039896	-0.458525	0.404284
H738	H	-0.073856	-0.449459	0.446529
C739	C	-0.049872	-0.465355	0.487959
C740	C	-0.046169	-0.476866	0.456349
H741	H	-0.051885	-0.482449	0.504201
H742	H	-0.024588	-0.440202	0.479410
H743	H	-0.075661	-0.465609	0.501711
H744	H	-0.020377	-0.476607	0.442595
H745	H	-0.071449	-0.502019	0.464896
H746	H	0.064526	-0.351765	0.468991
H747	H	-0.182272	0.268459	0.398770
H748	H	-0.002524	-0.026519	0.028802
H749	H	0.167522	0.263171	0.365746
H750	H	0.333309	0.296016	-0.114204
H751	H	0.102110	-0.319446	0.114137
H752	H	0.167477	-0.248833	0.184031
O753	O	0.440893	-0.023393	-0.417368
C754	C	0.416240	-0.048228	-0.430054
H755	H	0.381144	-0.070968	-0.404313
H756	H	0.432455	-0.062646	-0.446595
C757	C	0.457918	0.002769	-0.487953
C758	C	0.414812	-0.025159	-0.456338
H759	H	0.457039	0.016999	-0.504168
H760	H	0.474529	0.019500	-0.479408
H761	H	0.471427	-0.009251	-0.501734
H762	H	0.401306	-0.013138	-0.442556
H763	H	0.398198	-0.041887	-0.464882
H764	H	-0.117412	-0.186525	-0.184100
O765	O	0.099883	0.268697	0.110782
C766	C	0.131039	0.303262	0.079710
H767	H	0.165670	0.314656	0.071067
H768	H	0.123610	0.325179	0.088471
C769	C	0.085793	0.282031	0.056224
C770	C	0.128328	0.296022	0.045606
H771	H	0.084120	0.277566	0.035188
H772	H	0.064802	0.258743	0.077158
H773	H	0.079607	0.300297	0.063525
H774	H	0.134512	0.277754	0.038310
H775	H	0.149320	0.319306	0.024670
H776	H	0.230091	-0.219108	-0.114185
H777	H	0.267896	-0.186572	-0.365817
O778	O	0.058450	-0.357624	0.187247
C779	C	0.046985	-0.370975	0.161960
H780	H	0.077673	-0.354387	0.131204
H781	H	0.021205	-0.366596	0.165934
C782	C	-0.009863	-0.434257	0.208289
C783	C	0.027830	-0.413886	0.170515
H784	H	-0.021680	-0.460727	0.213567
H785	H	-0.002140	-0.425262	0.225326
H786	H	-0.031341	-0.430603	0.211597
H787	H	0.049310	-0.417536	0.167209
H788	H	0.020111	-0.422883	0.153477
H789	H	0.552400	-0.248780	-0.019131
O790	O	-0.559322	-0.300421	0.305799
C791	C	-0.583989	-0.287740	0.330626
H792	H	-0.603171	-0.305744	0.361552
H793	H	-0.608112	-0.290806	0.324299
C794	C	-0.528878	-0.223314	0.286534
C795	C	-0.552435	-0.245425	0.324518
H796	H	-0.509415	-0.197211	0.282765
H797	H	-0.512260	-0.231857	0.269807
H798	H	-0.548985	-0.225873	0.281266
H799	H	-0.532329	-0.242869	0.329783
H800	H	-0.569049	-0.236880	0.341246
H801	H	-0.116983	-0.533275	0.365765
H802	H	0.617258	-0.216240	-0.013873
H803	H	0.552621	-0.351498	-0.019128
O804	O	-0.663829	-0.210368	0.394941
C805	C	-0.625198	-0.197142	0.358225
H806	H	-0.626351	-0.222646	0.349426
H807	H	-0.595003	-0.179146	0.358804
C808	C	-0.620815	-0.141230	0.340032
C809	C	-0.622233	-0.172555	0.329223
H810	H	-0.618984	-0.126062	0.322142
H811	H	-0.646840	-0.150139	0.364768
H812	H	-0.595653	-0.126238	0.340514
H813	H	-0.647398	-0.187550	0.328745
H814	H	-0.596212	-0.163648	0.304485
O815	O	0.265135	0.301420	-0.360468
C816	C	0.254608	0.270211	-0.336301
H817	H	0.275399	0.259673	-0.354158
H818	H	0.218056	0.246067	-0.320768
C819	C	0.238866	0.295910	-0.284831
C820	C	0.264404	0.282970	-0.306763
H821	H	0.244907	0.303780	-0.266609
H822	H	0.245957	0.316936	-0.301112
H823	H	0.208408	0.275788	-0.271891
H824	H	0.294862	0.303094	-0.319707
H825	H	0.257319	0.261948	-0.290484
H826	H	-0.181841	-0.603391	0.398082
H827	H	0.370892	-0.533512	-0.019136
O828	O	-0.184798	-0.606640	0.506854
C829	C	-0.151924	-0.605953	0.507667
H830	H	-0.117891	-0.580776	0.482637
H831	H	-0.155107	-0.633797	0.505295
C832	C	-0.199489	-0.632520	0.576313
C833	C	-0.157688	-0.601596	0.545573
H834	H	-0.203045	-0.629834	0.599695
H835	H	-0.221638	-0.632985	0.575765
H836	H	-0.202136	-0.655721	0.574331
H837	H	-0.155043	-0.578396	0.547552
H838	H	-0.135539	-0.601127	0.546121
O839	O	0.106059	-0.023536	-0.417393
C840	C	0.118567	0.013804	-0.430079
H841	H	0.105174	0.023157	-0.404338
H842	H	0.104481	0.014132	-0.446626
C843	C	0.185795	0.030026	-0.487973
C844	C	0.169350	0.041516	-0.456357
H845	H	0.217121	0.047120	-0.504183
H846	H	0.177368	0.004869	-0.479427
H847	H	0.174053	0.030300	-0.501757
H848	H	0.181087	0.041237	-0.442570
H849	H	0.177780	0.066673	-0.464901
O850	O	-0.379983	-0.210367	0.111145
C851	C	-0.403482	-0.197144	0.136543
H852	H	-0.420116	-0.213811	0.167262
H853	H	-0.429693	-0.201540	0.132601
C854	C	-0.350845	-0.133776	0.090386
C855	C	-0.371272	-0.154245	0.128116
H856	H	-0.330977	-0.107314	0.085187
H857	H	-0.335013	-0.142685	0.073274
H858	H	-0.372692	-0.137444	0.087106
H859	H	-0.349426	-0.150581	0.131395
H860	H	-0.387099	-0.145335	0.145229
O861	O	-0.734973	-0.357342	0.471782
C862	C	-0.773593	-0.370562	0.508504
H863	H	-0.787645	-0.353895	0.508469
H864	H	-0.765253	-0.366163	0.530318
C865	C	-0.790803	-0.433930	0.519240
C866	C	-0.808064	-0.413462	0.519196
H867	H	-0.812067	-0.460393	0.525837
H868	H	-0.764783	-0.425023	0.494500
H869	H	-0.783854	-0.430259	0.537419
H870	H	-0.815008	-0.417129	0.501015
H871	H	-0.834086	-0.422370	0.543934
H872	H	-0.629125	-0.248761	0.365741
H873	H	0.617241	0.295963	-0.398133
H874	H	-0.770155	-0.603608	0.501511
H875	H	0.230097	-0.219111	-0.398135
H876	H	0.267941	0.301250	-0.184099
O877	O	-0.664646	-0.606916	0.395815
C878	C	-0.654200	-0.620556	0.416584
H879	H	-0.674963	-0.623384	0.447878
H880	H	-0.617637	-0.599592	0.404167
C881	C	-0.638630	-0.656482	0.375333
C882	C	-0.664134	-0.659958	0.413770
H883	H	-0.644755	-0.680786	0.373596
H884	H	-0.645666	-0.647291	0.361340
H885	H	-0.608163	-0.639010	0.364990
H886	H	-0.694600	-0.677425	0.424111
H887	H	-0.657104	-0.669152	0.427765
O888	O	0.099800	0.268746	0.506830
C889	C	0.098303	0.300935	0.507637
H890	H	0.098159	0.309788	0.482604
H891	H	0.128520	0.325597	0.505265
C892	C	0.056223	0.279951	0.576283
C893	C	0.056042	0.290822	0.545539
H894	H	0.030156	0.273714	0.599663
H895	H	0.057233	0.258266	0.575740
H896	H	0.081406	0.300504	0.574301
H897	H	0.030863	0.270267	0.547519
H898	H	0.055027	0.312504	0.546084
H899	H	0.064821	0.263164	0.184001
O900	O	0.224321	0.295844	-0.110938
C901	C	0.231443	0.327053	-0.097288
H902	H	0.268325	0.350912	-0.115062
H903	H	0.218661	0.317426	-0.066040
C904	C	0.161369	0.312615	-0.078749
C905	C	0.206668	0.341920	-0.100581
H906	H	0.146085	0.321785	-0.080778
H907	H	0.156570	0.291588	-0.087943
H908	H	0.150723	0.304595	-0.052711
H909	H	0.217314	0.349936	-0.126618
H910	H	0.211468	0.362949	-0.091390
H911	H	0.102618	0.168275	0.013770
O912	O	0.211414	0.268677	0.394949
C913	C	0.222727	0.266758	0.358234
H914	H	0.207178	0.276711	0.349432
H915	H	0.209949	0.235984	0.358816
C916	C	0.292448	0.280566	0.340045
C917	C	0.273354	0.292792	0.329232
H918	H	0.323677	0.296623	0.322155
H919	H	0.284826	0.281857	0.364780
H920	H	0.281795	0.254921	0.340529
H921	H	0.284003	0.318435	0.328752
H922	H	0.280979	0.291506	0.304495
O923	O	-0.379650	-0.321954	0.110845
C924	C	-0.334791	-0.301179	0.097194
H925	H	-0.328705	-0.282068	0.114966
H926	H	-0.313172	-0.282717	0.065946
C927	C	-0.330687	-0.352715	0.078660
C928	C	-0.323214	-0.329245	0.100489
H929	H	-0.323545	-0.370027	0.080691
H930	H	-0.360910	-0.366711	0.087856
H931	H	-0.312671	-0.337326	0.052622
H932	H	-0.341234	-0.344634	0.126528
H933	H	-0.292994	-0.315252	0.091298
O934	O	0.058763	0.263023	0.471672
C935	C	0.065826	0.294238	0.450976
H936	H	0.094215	0.304758	0.419649
H937	H	0.074457	0.318390	0.463372
C938	C	-0.011331	0.268578	0.492416
C939	C	0.023533	0.281497	0.453940
H940	H	-0.037420	0.260720	0.494245
H941	H	-0.016090	0.247549	0.506360
H942	H	-0.004133	0.288707	0.502742
H943	H	0.016337	0.261367	0.443616
H944	H	0.028290	0.302523	0.439994
O945	O	0.440679	0.311081	-0.417393
C946	C	0.416013	0.311247	-0.430070
H947	H	0.396846	0.323005	-0.412070
H948	H	0.391877	0.280798	-0.426994
C949	C	0.471104	0.322236	-0.494496
C950	C	0.447566	0.336681	-0.472390
H951	H	0.490567	0.337923	-0.520601
H952	H	0.487721	0.322122	-0.485955
H953	H	0.450986	0.296862	-0.491928
H954	H	0.467683	0.362053	-0.474954
H955	H	0.430953	0.336799	-0.480932
H956	H	-0.629638	-0.533721	0.366252
H957	H	-0.117197	0.263199	0.468949
O958	O	0.105999	-0.023534	0.028909
C959	C	0.118518	0.013812	0.029070
H960	H	0.088768	0.014988	0.040813
H961	H	0.145904	0.034869	-0.001380
C962	C	0.171924	0.023130	0.040092
C963	C	0.135384	0.024574	0.054518
H964	H	0.182330	0.029769	0.055788
H965	H	0.163492	-0.002030	0.039983
H966	H	0.194741	0.040677	0.014718
H967	H	0.112566	0.007023	0.079890
H968	H	0.143813	0.049731	0.054633
H969	H	0.205307	-0.115910	0.013801
O970	O	0.170383	-0.077728	0.019271
C971	C	0.209023	-0.064375	0.017382
H972	H	0.223184	-0.080970	0.003290
H973	H	0.200673	-0.068745	0.047540
C974	C	0.225986	-0.001088	0.010927
C975	C	0.243382	-0.021468	-0.006385
H976	H	0.247180	0.025379	-0.003732
H977	H	0.199953	-0.010084	0.012200
H978	H	0.219029	-0.004734	0.036058
H979	H	0.250334	-0.017826	-0.031513
H980	H	0.269417	-0.012471	-0.007663
O981	O	0.211368	0.171019	0.013612
C982	C	0.202696	0.152833	0.047214
H983	H	0.172584	0.121883	0.060286
H984	H	0.195938	0.168497	0.068609
C985	C	0.280015	0.191630	0.021305
C986	C	0.243032	0.153616	0.037359
H987	H	0.304896	0.192114	0.015227
H988	H	0.285858	0.203883	-0.001333
H989	H	0.274377	0.204679	0.039137
H990	H	0.248669	0.140569	0.019526
H991	H	0.237192	0.141360	0.059994
O992	O	-0.184823	-0.112795	0.013563
C993	C	-0.161344	-0.076083	0.015489
H994	H	-0.127029	-0.067270	0.005513
H995	H	-0.179911	-0.076677	0.046271
C996	C	-0.199115	-0.057911	0.001742
C997	C	-0.156968	-0.047084	-0.010514
H998	H	-0.196417	-0.040023	-0.014297
H999	H	-0.214935	-0.082644	0.000445
H1000	H	-0.214583	-0.058406	0.027393
H1001	H	-0.141502	-0.046595	-0.036163
H1002	H	-0.141145	-0.022350	-0.009223
H1003	H	-0.002525	-0.129181	0.028805
H1004	H	-0.117415	0.263190	0.366230
