data_functionalizedCrystal
_audit_creation_method	'MofGen! by Chris Wilmer'
_symmetry_space_group_name_H-M	'P1'
_symmetry_Int_Tables_number	1
_symmetry_cell_setting	triclinic
loop_
_symmetry_equiv_pos_as_xyz
  x,y,z
_cell_length_a	21.295419
_cell_length_b	25.639240
_cell_length_c	21.295412
_cell_angle_alpha	89.964267
_cell_angle_beta	89.976510
_cell_angle_gamma	90.047559
loop_
_atom_site_label
_atom_site_type_symbol
_atom_site_fract_x
_atom_site_fract_y
_atom_site_fract_z
Zn1	Zn	0.962339	-0.207957	-0.355889
Zn2	Zn	0.962239	-0.295391	-0.250605
Zn3	Zn	0.857064	-0.207994	-0.250634
Zn4	Zn	0.857028	-0.295386	-0.355837
O5	O	0.909668	-0.251682	-0.303241
O6	O	1.050415	-0.219542	-0.341933
O7	O	0.948261	-0.283815	-0.162520
O8	O	0.871086	-0.134824	-0.264630
O9	O	1.050342	-0.283780	-0.264581
O10	O	0.948431	-0.134797	-0.341961
O11	O	0.870990	-0.219605	-0.162541
O12	O	0.768970	-0.219600	-0.264580
O13	O	0.871024	-0.283771	-0.443933
O14	O	0.768943	-0.283807	-0.341872
O15	O	0.948396	-0.219537	-0.443972
O16	O	0.948226	-0.368556	-0.264530
O17	O	0.870927	-0.368552	-0.341844
C18	C	0.746116	-0.251707	-0.303224
C19	C	0.676148	-0.251731	-0.303231
C20	C	0.643342	-0.218337	-0.343570
C21	C	0.577599	-0.218323	-0.343573
C22	C	0.544665	-0.251712	-0.303242
C23	C	0.577479	-0.285108	-0.262895
C24	C	0.643221	-0.285117	-0.262890
N25	N	0.441388	-0.297459	-0.298318
N26	N	0.378936	-0.297448	-0.298327
C27	C	0.346591	-0.251685	-0.303256
N28	N	0.379056	-0.205931	-0.308189
N29	N	0.441513	-0.205942	-0.308183
C30	C	0.473380	-0.251705	-0.303244
C31	C	0.242499	-0.218273	-0.343600
C32	C	0.176755	-0.218258	-0.343598
C33	C	0.176637	-0.285048	-0.262924
C34	C	0.242379	-0.285058	-0.262923
C35	C	0.275306	-0.251671	-0.303264
C36	C	0.909579	-0.387525	-0.303192
C37	C	0.909598	-0.445639	-0.303192
C38	C	0.949961	-0.805949	-0.343580
C39	C	0.949980	-0.860554	-0.343593
O40	O	0.984192	-0.888746	-0.377881
N41	N	0.909755	-0.887921	-0.303302
C42	C	0.869505	-0.860682	-0.263001
O43	O	0.835292	-0.888974	-0.228732
C44	C	0.869483	-0.806078	-0.262992
C45	C	0.909715	-0.778714	-0.303280
C46	C	0.990189	-0.778584	-0.383866
C47	C	0.990171	-0.723984	-0.383852
C48	C	0.949925	-0.696748	-0.343552
C49	C	0.909697	-0.724113	-0.303266
C50	C	0.829230	-0.778840	-0.222694
C51	C	0.829212	-0.724233	-0.222688
C52	C	0.869444	-0.696868	-0.262977
C53	C	0.869433	-0.642277	-0.262953
N54	N	0.909658	-0.614909	-0.303243
C55	C	0.949904	-0.642145	-0.343543
C56	C	0.869551	-0.975352	-0.263024
C57	C	0.869575	-1.029955	-0.263029
C58	C	0.950050	-1.029823	-0.343622
C59	C	0.950029	-0.975219	-0.343613
C60	C	0.909776	-0.947985	-0.303314
C61	C	0.949864	-0.527480	-0.343511
C62	C	0.949844	-0.472875	-0.343492
C63	C	0.869368	-0.473011	-0.262901
C64	C	0.869389	-0.527612	-0.262918
C65	C	0.909640	-0.554845	-0.303228
O66	O	0.835237	-0.614050	-0.228684
O67	O	0.984106	-0.613846	-0.377812
C68	C	1.073858	-0.251657	-0.303259
C69	C	1.143826	-0.251647	-0.303267
C70	C	0.909717	-0.251650	-0.467432
C71	C	0.909738	-0.251636	-0.537400
C72	C	0.909774	-0.115309	-0.303305
C73	C	0.909819	-0.057195	-0.303332
C74	C	0.869513	-0.218198	-0.570268
C75	C	0.869511	-0.218188	-0.636010
C76	C	0.909745	-0.251611	-0.668882
C77	C	0.949972	-0.285055	-0.636007
C78	C	0.949969	-0.285068	-0.570265
N79	N	0.964849	-0.255592	-0.772120
N80	N	0.964850	-0.255577	-0.834572
C81	C	0.909756	-0.251576	-0.866957
N82	N	0.854659	-0.247580	-0.834532
N83	N	0.854659	-0.247592	-0.772075
C84	C	0.909753	-0.251601	-0.740168
C85	C	0.869526	-0.218126	-0.971111
C86	C	0.869523	-0.218120	-1.036854
C87	C	0.949989	-0.284984	-1.036849
C88	C	0.949987	-0.284993	-0.971107
C89	C	0.909756	-0.251561	-0.938241
C90	C	0.909655	-0.251677	-0.139690
C91	C	0.909756	-0.251543	-0.069722
H92	H	0.550884	-0.191127	-0.376421
H93	H	0.982608	-0.450596	-0.376299
H94	H	0.550660	-0.312293	-0.230058
H95	H	0.836756	-0.190956	-0.662776
H96	H	0.269090	-0.312253	-0.230077
H97	H	0.836821	-1.052230	-0.230215
H98	H	0.269310	-0.191084	-0.376445
H99	H	0.982750	-0.312197	-1.063613
H100	H	0.982730	-0.312269	-0.662775
H101	H	0.982635	-0.549647	-0.376339
H102	H	0.982727	-0.312297	-0.543505
H103	H	0.982744	-0.312221	-0.944346
H104	H	0.836602	-0.450827	-0.230088
H105	H	0.836762	-0.190892	-1.063614
H106	H	0.670147	-0.191150	-0.376419
H107	H	0.669931	-0.312311	-0.230040
H108	H	1.022930	-0.701707	-0.416660
H109	H	0.836775	-0.953180	-0.230202
H110	H	0.836634	-0.549893	-0.230107
H111	H	0.836752	-0.190977	-0.543512
H112	H	0.796469	-0.801111	-0.189886
H113	H	0.150046	-0.191062	-0.376446
H114	H	0.982820	-1.052008	-0.376437
H115	H	0.796431	-0.702061	-0.189873
H116	H	0.149822	-0.312234	-0.230087
H117	H	0.836767	-0.190904	-0.944350
H118	H	1.022962	-0.800754	-0.416686
H119	H	0.982789	-0.952942	-0.376420
