data_functionalizedCrystal
_audit_creation_method	'MofGen! by Chris Wilmer'
_symmetry_space_group_name_H-M	'P1'
_symmetry_Int_Tables_number	1
_symmetry_cell_setting	triclinic
loop_
_symmetry_equiv_pos_as_xyz
  x,y,z
_cell_length_a	23.532355
_cell_length_b	27.732048
_cell_length_c	22.010155
_cell_angle_alpha	89.999275
_cell_angle_beta	89.997414
_cell_angle_gamma	82.735077
loop_
_atom_site_label
_atom_site_type_symbol
_atom_site_fract_x
_atom_site_fract_y
_atom_site_fract_z
O1	O	0.755158	0.058552	-0.050449
O2	O	1.255158	0.558552	0.449551
O3	O	0.589272	0.067069	-0.050469
O4	O	1.089272	0.567069	0.449531
O5	O	0.677367	-0.007579	-0.050447
O6	O	1.177367	0.492421	0.449553
O7	O	0.667063	0.133200	-0.050471
O8	O	1.167063	0.633200	0.449529
O9	O	0.677351	-0.007568	0.050603
O10	O	1.177351	0.492432	0.550603
O11	O	0.589256	0.067080	0.050581
O12	O	1.089256	0.567080	0.550581
O13	O	0.755142	0.058564	0.050601
O14	O	1.255142	0.558564	0.550601
Cu15	Cu	0.672198	0.062823	0.059818
Cu16	Cu	1.172198	0.562823	0.559818
Cu17	Cu	0.672216	0.062810	-0.059686
Cu18	Cu	1.172216	0.562810	0.440314
O19	O	0.667047	0.133212	0.050579
O20	O	1.167047	0.633212	0.550579
C21	C	0.568048	0.066862	0.000053
C22	C	1.068048	0.566862	0.500053
C23	C	0.504831	0.066222	0.000046
C24	C	1.004831	0.566222	0.500046
C25	C	0.112817	0.062206	0.055155
C26	C	0.612817	0.562206	0.555155
C27	C	0.053419	0.061597	0.055157
C28	C	0.553419	0.561597	0.555157
O29	O	0.022693	0.061271	0.102002
O30	O	0.522693	0.561271	0.602002
N31	N	0.023720	0.061289	0.000075
N32	N	0.523720	0.561289	0.500075
C33	C	0.053422	0.061585	-0.055013
C34	C	0.553422	0.561585	0.444987
O35	O	0.022707	0.061267	-0.101865
O36	O	0.522707	0.561267	0.398135
C37	C	0.112820	0.062191	-0.055015
C38	C	0.612820	0.562191	0.444985
C39	C	0.142515	0.062504	0.000071
C40	C	0.642515	0.562504	0.500071
C41	C	0.142512	0.062519	0.110236
C42	C	0.642512	0.562519	0.610236
C43	C	0.201906	0.063129	0.110234
C44	C	0.701906	0.563129	0.610234
C45	C	0.231604	0.063426	0.055150
C46	C	0.731604	0.563426	0.555150
C47	C	0.201909	0.063114	0.000068
C48	C	0.701909	0.563114	0.500068
C49	C	0.142522	0.062483	-0.110103
C50	C	0.642522	0.562483	0.389897
C51	C	0.201924	0.063088	-0.110100
C52	C	0.701924	0.563088	0.389900
C53	C	0.231619	0.063401	-0.055014
C54	C	0.731619	0.563401	0.444986
C55	C	0.291001	0.064021	-0.055019
C56	C	0.791001	0.564021	0.444981
N57	N	0.320701	0.064329	0.000064
N58	N	0.820701	0.564329	0.500064
C59	C	0.291002	0.064031	0.055148
C60	C	0.791002	0.564031	0.555148
C61	C	-0.071316	0.060313	-0.055005
C62	C	0.428684	0.560313	0.444995
C63	C	-0.130713	0.059711	-0.055004
C64	C	0.369287	0.559711	0.444996
C65	C	-0.130713	0.059722	0.055167
C66	C	0.369287	0.559722	0.555167
C67	C	-0.071315	0.060328	0.055165
C68	C	0.428685	0.560328	0.555165
C69	C	-0.041617	0.060621	0.000077
C70	C	0.458383	0.560621	0.500077
C71	C	0.415733	0.065312	0.055138
C72	C	0.915733	0.565312	0.555138
C73	C	0.475132	0.065924	0.055130
C74	C	0.975132	0.565924	0.555130
C75	C	0.475127	0.065911	-0.055040
C76	C	0.975127	0.565911	0.444960
C77	C	0.415733	0.065301	-0.055033
C78	C	0.915733	0.565301	0.444967
C79	C	0.386038	0.065001	0.000061
C80	C	0.886038	0.565001	0.500061
O81	O	0.321765	0.064345	-0.101840
O82	O	0.821765	0.564345	0.398160
O83	O	0.321726	0.064343	0.101991
O84	O	0.821726	0.564343	0.601991
C85	C	0.677143	-0.025580	0.000080
C86	C	1.177143	0.474420	0.500080
C87	C	0.676491	-0.079236	0.000085
C88	C	1.176491	0.420764	0.500085
C89	C	0.724449	-0.417985	0.000059
C90	C	1.224449	0.082015	0.500059
C91	C	0.722033	-0.619648	0.000051
C92	C	1.222033	-0.119648	0.500051
O93	O	0.765887	-0.650843	0.000029
O94	O	1.265887	-0.150843	0.500029
N95	N	0.669796	-0.638844	0.000045
N96	N	1.169796	-0.138844	0.500045
C97	C	0.618160	-0.607621	0.000037
C98	C	1.118160	-0.107621	0.500037
O99	O	0.573674	-0.628575	0.000026
O100	O	1.073674	-0.128575	0.500026
C101	C	0.620577	-0.405959	0.000042
C102	C	1.120577	0.094041	0.500042
C103	C	0.672817	-0.386766	0.000054
C104	C	1.172817	0.113234	0.500054
C105	C	0.776685	-0.398792	0.000071
C106	C	1.276685	0.101208	0.500071
C107	C	0.777289	-0.348379	0.000076
C108	C	1.277289	0.151621	0.500076
C109	C	0.725657	-0.317160	0.000070
C110	C	1.225657	0.182840	0.500070
C111	C	0.673421	-0.336353	0.000059
C112	C	1.173421	0.163647	0.500059
C113	C	0.568942	-0.374736	0.000030
C114	C	1.068942	0.125264	0.500030
C115	C	0.569551	-0.324318	0.000029
C116	C	1.069551	0.175682	0.500029
C117	C	0.621791	-0.305125	0.000041
C118	C	1.121791	0.194875	0.500041
C119	C	0.622392	-0.254721	0.000059
C120	C	1.122392	0.245279	0.500059
N121	N	0.674629	-0.235525	0.000065
N122	N	1.174629	0.264475	0.500065
C123	C	0.726261	-0.266744	0.000070
C124	C	1.226261	0.233256	0.500070
C125	C	0.616895	-0.713496	0.000036
C126	C	1.116895	-0.213496	0.500036
C127	C	0.616290	-0.763912	0.000036
C128	C	1.116290	-0.263912	0.500036
C129	C	0.720163	-0.775936	0.000048
C130	C	1.220163	-0.275936	0.500048
C131	C	0.720767	-0.725520	0.000053
C132	C	1.220767	-0.225520	0.500053
C133	C	0.669131	-0.694301	0.000042
C134	C	1.169131	-0.194301	0.500042
C135	C	0.727525	-0.160873	0.000083
C136	C	1.227525	0.339127	0.500083
C137	C	0.728124	-0.110456	0.000091
C138	C	1.228124	0.389544	0.500091
C139	C	0.624251	-0.098436	0.000075
C140	C	1.124251	0.401564	0.500075
C141	C	0.623652	-0.148849	0.000070
C142	C	1.123652	0.351151	0.500070
C143	C	0.675293	-0.180067	0.000072
C144	C	1.175293	0.319933	0.500072
O145	O	0.578561	-0.223497	0.000073
O146	O	1.078561	0.276503	0.500073
O147	O	0.770740	-0.245780	0.000068
O148	O	1.270740	0.254220	0.500068
C149	C	0.723846	-0.468398	0.000054
C150	C	1.223846	0.031602	0.500054
C151	C	0.671610	-0.487591	0.000043
C152	C	1.171610	0.012409	0.500043
C153	C	0.619978	-0.456372	0.000037
C154	C	1.119978	0.043628	0.500037
C155	C	0.671006	-0.538007	0.000043
C156	C	1.171006	-0.038007	0.500043
C157	C	0.722638	-0.569226	0.000048
C158	C	1.222638	-0.069226	0.500048
C159	C	0.774875	-0.550030	0.000054
C160	C	1.274875	-0.050030	0.500054
C161	C	0.775478	-0.499617	0.000060
C162	C	1.275478	0.000383	0.500060
C163	C	0.567741	-0.475568	0.000031
C164	C	1.067741	0.024432	0.500031
C165	C	0.567142	-0.525981	0.000026
C166	C	1.067142	-0.025981	0.500026
C167	C	0.618774	-0.557200	0.000032
C168	C	1.118774	-0.057200	0.500032
C169	C	0.776366	0.058771	0.000077
C170	C	1.276366	0.558771	0.500077
C171	C	0.839583	0.059411	0.000080
C172	C	1.339583	0.559411	0.500080
C173	C	0.667271	0.151213	0.000051
C174	C	1.167271	0.651213	0.500051
C175	C	0.667923	0.204869	0.000042
C176	C	1.167923	0.704869	0.500042
N177	N	0.672188	0.062832	0.143870
N178	N	1.172188	0.562832	0.643870
N179	N	0.672230	0.062797	-0.143738
N180	N	1.172230	0.562797	0.356262
C181	C	0.711227	0.029760	0.563660
C182	C	1.211227	0.529760	1.063660
C183	C	0.711230	0.029757	0.627267
C184	C	1.211230	0.529757	1.127267
O185	O	0.744399	0.001645	0.660167
O186	O	1.244399	0.501645	1.160167
N187	N	0.672216	0.062800	0.659078
N188	N	1.172216	0.562800	1.159078
C189	C	0.633194	0.095844	0.627277
C190	C	1.133194	0.595844	1.127277
O191	O	0.600009	0.123949	0.660175
O192	O	1.100009	0.623949	1.160175
C193	C	0.633189	0.095845	0.563670
C194	C	1.133189	0.595845	1.063670
C195	C	0.672209	0.062804	0.531863
C196	C	1.172209	0.562804	1.031863
C197	C	0.750243	-0.003279	0.531853
C198	C	1.250243	0.496721	1.031853
C199	C	0.750241	-0.003275	0.468249
C200	C	1.250241	0.496725	0.968249
C201	C	0.711223	0.029768	0.436453
C202	C	1.211223	0.529768	0.936453
C203	C	0.672206	0.062808	0.468260
C204	C	1.172206	0.562808	0.968260
C205	C	0.594164	0.128887	0.531871
C206	C	1.094164	0.628887	1.031871
C207	C	0.594162	0.128885	0.468260
C208	C	1.094162	0.628885	0.968260
C209	C	0.633182	0.095843	0.436453
C210	C	1.133182	0.595843	0.936453
C211	C	0.633186	0.095855	0.372861
C212	C	1.133186	0.595855	0.872861
N213	N	0.672199	0.062812	0.341051
N214	N	1.172199	0.562812	0.841051
C215	C	0.711218	0.029769	0.372847
C216	C	1.211218	0.529769	0.872847
C217	C	0.633206	0.095840	0.760855
C218	C	1.133206	0.595840	1.260855
C219	C	0.633213	0.095842	0.824460
C220	C	1.133213	0.595842	1.324460
C221	C	0.711249	0.029754	0.824446
C222	C	1.211249	0.529754	1.324446
C223	C	0.711244	0.029754	0.760840
C224	C	1.211244	0.529754	1.260840
C225	C	0.672220	0.062797	0.729044
C226	C	1.172220	0.562797	1.229044
C227	C	0.711211	0.029780	0.239275
C228	C	1.211211	0.529780	0.739275
C229	C	0.711207	0.029789	0.175667
C230	C	1.211207	0.529789	0.675667
C231	C	0.633170	0.095875	0.175686
C232	C	1.133170	0.595875	0.675686
C233	C	0.633175	0.095869	0.239289
C234	C	1.133175	0.595869	0.739289
C235	C	0.672198	0.062817	0.271083
C236	C	1.172198	0.562817	0.771083
O237	O	0.600032	0.123952	0.339921
O238	O	1.100032	0.623952	0.839921
O239	O	0.744392	0.001665	0.339941
O240	O	1.244392	0.501665	0.839941
H241	H	-0.154904	0.059479	0.100019
H242	H	0.345096	0.559479	0.600019
H243	H	0.818733	-0.424206	0.000073
H244	H	1.318733	0.075794	0.500073
Br245	Br	0.764203	-0.015091	0.867612
Br246	Br	1.264203	0.484909	1.367612
H247	H	0.816915	-0.575458	0.000062
H248	H	1.316915	-0.075458	0.500062
Br249	Br	0.242198	0.063551	0.184997
Br250	Br	0.742198	0.563551	0.684997
Br251	Br	0.580265	0.140694	0.867619
Br252	Br	1.080265	0.640694	1.367619
H253	H	0.525695	-0.450153	0.000025
H254	H	1.025695	0.049847	0.500025
Br255	Br	0.545390	-0.789952	0.000034
Br256	Br	1.045390	-0.289952	0.500034
H257	H	0.782017	-0.030189	0.557736
H258	H	1.282017	0.469811	1.057736
Br259	Br	0.552754	-0.174898	0.000068
Br260	Br	1.052754	0.325102	0.500068
H261	H	0.762204	-0.801363	0.000053
H262	H	1.262204	-0.301363	0.500053
H263	H	0.226101	0.063328	-0.154960
H264	H	0.726101	0.563328	0.345040
Br265	Br	0.580226	0.140718	0.282454
Br266	Br	1.080226	0.640718	0.782454
H267	H	0.742984	0.002882	0.149771
H268	H	1.242984	0.502882	0.649771
H269	H	0.499307	0.066181	0.099990
H270	H	0.999307	0.566181	0.599990
Br271	Br	0.375443	0.064903	0.129909
Br272	Br	0.875443	0.564903	0.629909
Br273	Br	0.764171	-0.015076	0.282413
Br274	Br	1.264171	0.484924	0.782413
Br275	Br	0.546810	-0.671134	0.000020
Br276	Br	1.046810	-0.171134	0.500020
H277	H	0.743017	0.002849	0.734946
H278	H	1.243017	0.502849	1.234946
H279	H	0.782013	-0.030181	0.442356
H280	H	1.282013	0.469819	0.942356
H281	H	-0.047141	0.060556	-0.099867
H282	H	0.452859	0.560556	0.400133
Br283	Br	0.580243	0.140691	0.717710
Br284	Br	1.080243	0.640691	1.217710
Br285	Br	0.102218	0.062117	0.185004
Br286	Br	0.602218	0.562117	0.685004
Br287	Br	-0.031021	0.060752	0.129927
Br288	Br	0.468979	0.560752	0.629927
Br289	Br	-0.171009	0.059298	-0.129766
Br290	Br	0.328991	0.559298	0.370234
H291	H	0.562382	0.155792	0.442376
H292	H	1.062382	0.655792	0.942376
Br293	Br	0.580219	0.140719	0.132524
Br294	Br	1.080219	0.640719	0.632524
Br295	Br	0.554182	-0.056058	0.000067
Br296	Br	1.054182	0.443942	0.500067
Br297	Br	0.799026	-0.084412	0.000107
Br298	Br	1.299026	0.415588	0.500107
H299	H	0.118355	0.062228	-0.154960
H300	H	0.618355	0.562228	0.345040
Br301	Br	0.375429	0.064886	-0.129793
Br302	Br	0.875429	0.564886	0.370207
H303	H	0.499318	0.066155	-0.099888
H304	H	0.999318	0.566155	0.400112
Br305	Br	0.797610	-0.203233	0.000084
Br306	Br	1.297610	0.296767	0.500084
H307	H	0.562390	0.155792	0.557759
H308	H	1.062390	0.655792	1.057759
Br309	Br	0.848190	-0.322340	0.000075
Br310	Br	1.348190	0.177660	0.500075
H311	H	0.763306	-0.709897	0.000062
H312	H	1.263306	-0.209897	0.500062
H313	H	0.526402	-0.390354	0.000016
H314	H	1.026402	0.109646	0.500016
H315	H	0.527501	-0.298901	0.000020
H316	H	1.027501	0.201099	0.500020
Br317	Br	0.846379	-0.473578	0.000072
Br318	Br	1.346379	0.026422	0.500072
H319	H	0.524599	-0.541602	0.000022
H320	H	1.024599	-0.041602	0.500022
