data_functionalizedCrystal
_audit_creation_method	'MofGen! by Chris Wilmer'
_symmetry_space_group_name_H-M	'P1'
_symmetry_Int_Tables_number	1
_symmetry_cell_setting	triclinic
loop_
_symmetry_equiv_pos_as_xyz
  x,y,z
_cell_length_a	19.805407
_cell_length_b	12.827892
_cell_length_c	19.805399
_cell_angle_alpha	89.976064
_cell_angle_beta	89.983114
_cell_angle_gamma	90.015392
loop_
_atom_site_label
_atom_site_type_symbol
_atom_site_fract_x
_atom_site_fract_y
_atom_site_fract_z
Zn1	Zn	1.034770	-0.416043	-0.382743
Zn2	Zn	1.034711	-0.590802	-0.269565
Zn3	Zn	0.921590	-0.416076	-0.269568
Zn4	Zn	0.921569	-0.590742	-0.382712
O5	O	0.978160	-0.503416	-0.326147
O6	O	1.129478	-0.439236	-0.367742
O7	O	1.019690	-0.567663	-0.174849
O8	O	0.936636	-0.269835	-0.284595
O9	O	1.129436	-0.567631	-0.284590
O10	O	1.019789	-0.269811	-0.367745
O11	O	0.936579	-0.439293	-0.174851
O12	O	0.826870	-0.439235	-0.284565
O13	O	0.936602	-0.567529	-0.477433
O14	O	0.826856	-0.567561	-0.367691
O15	O	1.019769	-0.439178	-0.477456
O16	O	1.019670	-0.737030	-0.284560
O17	O	0.936545	-0.736986	-0.367688
C18	C	0.802304	-0.503396	-0.326125
C19	C	0.727072	-0.503412	-0.326132
C20	C	0.691738	-0.570333	-0.369346
C21	C	0.621049	-0.570335	-0.369355
C22	C	0.585696	-0.503421	-0.326147
C23	C	0.621035	-0.436493	-0.282931
C24	C	0.691723	-0.436487	-0.282926
C25	C	0.335962	-0.436516	-0.282954
C26	C	0.265270	-0.436530	-0.282961
C27	C	0.265289	-0.570364	-0.369383
C28	C	0.335976	-0.570358	-0.369378
C29	C	0.371309	-0.503427	-0.326165
C30	C	0.447957	-0.503424	-0.326156
C31	C	0.509049	-0.503428	-0.326152
C32	C	0.978118	-0.774926	-0.326135
C33	C	0.978161	-0.891079	-0.326153
C34	C	1.019343	-0.942851	-0.285064
C35	C	1.019389	-1.062901	-0.285081
C36	C	1.154703	-0.503437	-0.326169
C37	C	1.229935	-0.503446	-0.326179
C38	C	0.978190	-0.503343	-0.502690
C39	C	0.978202	-0.503312	-0.577922
C40	C	0.978221	-0.230846	-0.326174
C41	C	0.978247	-0.114693	-0.326185
C42	C	0.934939	-0.436463	-0.613267
C43	C	0.934948	-0.436443	-0.683955
C44	C	0.978225	-0.503267	-0.719298
C45	C	1.021490	-0.570124	-0.683948
C46	C	1.021477	-0.570148	-0.613261
C47	C	1.021544	-0.570026	-0.969021
C48	C	1.021555	-0.569994	-1.039713
C49	C	0.935015	-0.436321	-1.039716
C50	C	0.935002	-0.436345	-0.969029
C51	C	0.978264	-0.503205	-0.933685
C52	C	0.978253	-0.503228	-0.857037
C53	C	0.978240	-0.503240	-0.795945
C54	C	0.978169	-0.503413	-0.150291
C55	C	0.978288	-0.503149	-0.075060
H56	H	0.592245	-0.382006	-0.247753
C57	C	0.582179	-0.643954	-0.416885
C58	C	0.533610	-0.598790	-0.470083
C59	C	0.494738	-0.672413	-0.517614
C60	C	0.504435	-0.791199	-0.511948
C61	C	0.553006	-0.836368	-0.458748
C62	C	0.591878	-0.762746	-0.411217
H63	H	0.526430	-0.510852	-0.474279
H64	H	0.458783	-0.638975	-0.556995
H65	H	0.475660	-0.845699	-0.547133
H66	H	0.560186	-0.924306	-0.454552
H67	H	0.627834	-0.796184	-0.371836
H68	H	1.054569	-0.898300	-0.249875
H69	H	0.899764	-0.381927	-0.940256
C70	C	1.067023	-1.123039	-0.237555
C71	C	1.037713	-1.198192	-0.184442
C72	C	1.085349	-1.258331	-0.136914
C73	C	1.162293	-1.243318	-0.142499
C74	C	1.191607	-1.168161	-0.195614
C75	C	1.143972	-1.108022	-0.243142
H76	H	0.980751	-1.209309	-0.180306
H77	H	1.063649	-1.313967	-0.097595
H78	H	1.197556	-1.287837	-0.107316
H79	H	1.248570	-1.157044	-0.199750
H80	H	1.165672	-1.052386	-0.282461
C81	C	0.887362	-0.362906	-0.722838
C82	C	0.916722	-0.280858	-0.771451
C83	C	0.869134	-0.207320	-0.810335
C84	C	0.792184	-0.215829	-0.800605
C85	C	0.762820	-0.297881	-0.751990
C86	C	0.810408	-0.371419	-0.713106
H87	H	0.973689	-0.274556	-0.778655
H88	H	0.890872	-0.146580	-0.846323
H89	H	0.756956	-0.161392	-0.829389
H90	H	0.705853	-0.304183	-0.744786
H91	H	0.788670	-0.432159	-0.677118
C92	C	0.930612	-1.054562	-0.373713
C93	C	0.877506	-0.979600	-0.344280
C94	C	0.829871	-0.919460	-0.391808
C95	C	0.835341	-0.934283	-0.468769
C96	C	0.888449	-1.009248	-0.498207
C97	C	0.936084	-1.069388	-0.450679
H98	H	0.873455	-0.968624	-0.287305
H99	H	0.790557	-0.863966	-0.370016
H100	H	0.800078	-0.889764	-0.503952
H101	H	0.892500	-1.020224	-0.555182
H102	H	0.975398	-1.124882	-0.472471
C103	C	0.374822	-0.362924	-0.235401
C104	C	0.335933	-0.289345	-0.187860
C105	C	0.374797	-0.215762	-0.140296
C106	C	0.452550	-0.215757	-0.140275
C107	C	0.491444	-0.289338	-0.187818
C108	C	0.452580	-0.362922	-0.235381
H109	H	0.278372	-0.289346	-0.187874
H110	H	0.346004	-0.161292	-0.105102
H111	H	0.481319	-0.161286	-0.105066
H112	H	0.549005	-0.289337	-0.187804
H113	H	0.481372	-0.417392	-0.270576
C114	C	0.887419	-0.362781	-1.078596
C115	C	0.834273	-0.408034	-1.127176
C116	C	0.786680	-0.334494	-1.166054
C117	C	0.792234	-0.215700	-1.156351
C118	C	0.845382	-0.170440	-1.107768
C119	C	0.892975	-0.243981	-1.068891
H120	H	0.830160	-0.495978	-1.134360
H121	H	0.747337	-0.367999	-1.202018
H122	H	0.757003	-0.161262	-1.185130
H123	H	0.849495	-0.082497	-1.100584
H124	H	0.932318	-0.210476	-1.032926
H125	H	0.942941	-0.935632	-0.361346
H126	H	1.056723	-0.624538	-0.712729
C127	C	0.887334	-0.362954	-0.574393
C128	C	0.839742	-0.289426	-0.613275
C129	C	0.792133	-0.215917	-0.574404
C130	C	0.792116	-0.215936	-0.496651
C131	C	0.839710	-0.289467	-0.457765
C132	C	0.887318	-0.362976	-0.496636
H133	H	0.839753	-0.289410	-0.670837
H134	H	0.756902	-0.161485	-0.603191
H135	H	0.756873	-0.161521	-0.467876
H136	H	0.839698	-0.289484	-0.400203
H137	H	0.922550	-0.417408	-0.467849
C138	C	1.069159	-0.643510	-1.078591
C139	C	1.063599	-0.762312	-1.068865
C140	C	1.111202	-0.835823	-1.107743
C141	C	1.164363	-0.790532	-1.156347
C142	C	1.169925	-0.671724	-1.166076
C143	C	1.122323	-0.598213	-1.127198
H144	H	1.024244	-0.795845	-1.032883
H145	H	1.107084	-0.923772	-1.100541
H146	H	1.199601	-0.844948	-1.185127
H147	H	1.209281	-0.638191	-1.202058
H148	H	1.126441	-0.510263	-1.134400
C149	C	0.226421	-0.643982	-0.416926
C150	C	0.148668	-0.643992	-0.416941
C151	C	0.109803	-0.717610	-0.464481
C152	C	0.148691	-0.791218	-0.512005
C153	C	0.226448	-0.791210	-0.511991
C154	C	0.265314	-0.717592	-0.464452
H155	H	0.119877	-0.589501	-0.381759
H156	H	0.052242	-0.717616	-0.464490
H157	H	0.119920	-0.845714	-0.547196
H158	H	0.255239	-0.845701	-0.547173
H159	H	0.322875	-0.717587	-0.464442
C160	C	0.730623	-0.643940	-0.416877
C161	C	0.779245	-0.598760	-0.470062
C162	C	0.818127	-0.672367	-0.517597
C163	C	0.808387	-0.791155	-0.511946
C164	C	0.759763	-0.836342	-0.458759
C165	C	0.720880	-0.762735	-0.411224
H166	H	0.786457	-0.510820	-0.474247
H167	H	0.854122	-0.638915	-0.556969
H168	H	0.837170	-0.845643	-0.547134
H169	H	0.752551	-0.924281	-0.454574
H170	H	0.684885	-0.796186	-0.371852
H171	H	0.236488	-0.382034	-0.247776
H172	H	1.056763	-0.624478	-0.940253
H173	H	0.364757	-0.624850	-0.404560
H174	H	1.056711	-0.624576	-0.584484
H175	H	0.720491	-0.381988	-0.247740
