data_functionalizedCrystal
_audit_creation_method	'MofGen! by Chris Wilmer'
_symmetry_space_group_name_H-M	'P1'
_symmetry_Int_Tables_number	1
_symmetry_cell_setting	triclinic
loop_
_symmetry_equiv_pos_as_xyz
  x,y,z
_cell_length_a	23.532407
_cell_length_b	16.109304
_cell_length_c	14.586319
_cell_angle_alpha	89.999019
_cell_angle_beta	90.001839
_cell_angle_gamma	83.155658
loop_
_atom_site_label
_atom_site_type_symbol
_atom_site_fract_x
_atom_site_fract_y
_atom_site_fract_z
O1	O	0.755632	0.100924	-0.076121
O2	O	0.589822	0.115527	-0.076147
O3	O	0.677281	-0.012841	-0.076133
O4	O	0.668173	0.229293	-0.076134
O5	O	0.677275	-0.012843	0.076347
O6	O	0.589816	0.115526	0.076334
O7	O	0.755626	0.100923	0.076360
Cu8	Cu	0.672721	0.108224	0.090270
Cu9	Cu	0.672728	0.108226	-0.090056
O10	O	0.668167	0.229291	0.076347
C11	C	0.676909	-0.043814	0.000105
C12	C	0.675802	-0.136100	0.000098
C13	C	0.568602	0.115155	0.000090
C14	C	0.505381	0.114037	0.000080
C15	C	0.673248	-0.348416	-0.083016
C16	C	0.672202	-0.435128	-0.083015
C17	C	0.672199	-0.435127	0.083228
C18	C	0.673240	-0.348416	0.083226
C19	C	0.673767	-0.305063	0.000102
C20	C	0.671681	-0.478487	0.000104
C21	C	0.670547	-0.572503	0.000105
C22	C	0.674900	-0.211040	0.000100
C23	C	0.106533	0.182990	0.000121
C24	C	0.047129	0.181951	0.000127
O25	O	0.010620	0.245871	0.000160
N26	N	0.024220	0.105636	0.000126
C27	C	0.060720	0.030355	0.000128
O28	O	0.035780	-0.034652	0.000128
C29	C	0.120123	0.031395	0.000129
C30	C	0.143027	0.107714	0.000121
C31	C	0.129438	0.259303	0.000115
C32	C	0.188838	0.260342	0.000107
C33	C	0.225333	0.185066	0.000107
C34	C	0.202427	0.108753	0.000114
C35	C	0.156621	-0.043886	0.000138
C36	C	0.216027	-0.042840	0.000139
C37	C	0.238932	0.033480	0.000132
C38	C	0.298322	0.034516	0.000106
N39	N	0.321230	0.110830	0.000107
C40	C	0.284736	0.186106	0.000108
C41	C	-0.064031	0.028178	0.000128
C42	C	-0.123433	0.027138	0.000120
C43	C	-0.137020	0.178734	0.000121
C44	C	-0.077617	0.179773	0.000122
C45	C	-0.041123	0.104493	0.000129
C46	C	0.409480	0.188280	0.000092
C47	C	0.468886	0.189312	0.000080
C48	C	0.482468	0.037716	0.000085
C49	C	0.423067	0.036684	0.000091
C50	C	0.386574	0.111973	0.000097
O51	O	0.334865	-0.029371	0.000077
O52	O	0.309684	0.251102	0.000120
C53	C	0.776846	0.101295	0.000121
C54	C	0.840067	0.102413	0.000125
C55	C	0.668539	0.260264	0.000107
C56	C	0.669646	0.352550	0.000107
N57	N	0.672720	0.108222	0.217102
N58	N	0.672733	0.108222	-0.216888
C59	C	0.711459	0.051399	0.452114
C60	C	0.711461	0.051397	0.548095
C61	C	0.633989	0.165047	0.548093
C62	C	0.633985	0.165044	0.452113
C63	C	0.672724	0.108221	0.404126
C64	C	0.672729	0.108222	0.596087
C65	C	0.672731	0.108220	0.700154
C66	C	0.672722	0.108222	0.300053
H67	H	0.673676	-0.313121	-0.150701
H68	H	0.602450	0.211312	0.587173
H69	H	0.404418	-0.025462	0.000084
H70	H	-0.142076	-0.035010	0.000112
H71	H	0.671770	-0.470436	0.150905
H72	H	0.602440	0.211316	0.413039
C73	C	0.099581	0.388188	-0.078284
C74	C	0.089328	0.342056	0.000107
H75	H	0.074819	0.439277	-0.078296
H76	H	0.138236	0.399713	-0.078274
H77	H	0.092632	0.356863	-0.131448
H78	H	0.096281	0.373378	0.053270
H79	H	0.050665	0.330533	0.000105
H80	H	0.743002	0.005127	0.587164
C81	C	0.744907	-0.092789	0.422621
C82	C	0.754033	-0.011086	0.399388
H83	H	0.771188	-0.131371	0.390074
H84	H	0.750444	-0.100893	0.486648
H85	H	0.706899	-0.101516	0.406881
H86	H	0.792040	-0.002357	0.415135
H87	H	0.748501	-0.002978	0.335347
H88	H	0.673660	-0.313117	0.150914
C89	C	0.622962	-0.452065	-0.224719
C90	C	0.671633	-0.482781	-0.174381
H91	H	0.622612	-0.481481	-0.281129
H92	H	0.589605	-0.459665	-0.190573
H93	H	0.623665	-0.394218	-0.236607
H94	H	0.670928	-0.540627	-0.162488
H95	H	0.704998	-0.475189	-0.208535
C96	C	0.449480	0.339058	0.000087
C97	C	0.494062	0.273209	0.000078
H98	H	0.465022	0.390849	0.000093
H99	H	0.426592	0.335500	-0.053081
H100	H	0.426596	0.335488	0.053267
H101	H	0.516943	0.276774	-0.053105
H102	H	0.516959	0.276768	0.053252
H103	H	0.379774	0.249588	0.000100
H104	H	-0.058972	0.241920	0.000121
C105	C	0.247731	0.349477	-0.078303
C106	C	0.214002	0.344241	0.000090
H107	H	0.263258	0.401280	-0.078318
H108	H	0.277976	0.304814	-0.078293
H109	H	0.224831	0.345901	-0.131465
H110	H	0.236903	0.347811	0.053252
H111	H	0.183753	0.388917	0.000088
H112	H	-0.166745	0.240027	0.000126
C113	C	0.010651	-0.058608	-0.078266
C114	C	-0.023917	-0.054577	0.000118
H115	H	0.035415	-0.109695	-0.078267
H116	H	-0.012808	-0.055857	-0.131428
H117	H	0.032797	-0.013010	-0.078254
H118	H	-0.046066	-0.100172	0.000103
H119	H	-0.000455	-0.057336	0.053294
C120	C	0.176043	-0.193621	0.000172
C121	C	0.131455	-0.127780	0.000160
H122	H	0.160506	-0.245416	0.000194
H123	H	0.198923	-0.190066	-0.053003
H124	H	0.198933	-0.190039	0.053344
H125	H	0.108567	-0.131358	-0.053016
H126	H	0.108565	-0.131337	0.053340
H127	H	0.245738	-0.104144	0.000146
C128	C	0.579565	-0.027986	0.000093
C129	C	0.522591	-0.045024	0.000092
H130	H	0.604335	-0.079068	0.000109
H131	H	0.586503	0.003317	-0.053082
H132	H	0.586499	0.003337	0.053265
H133	H	0.515656	-0.076342	-0.053084
H134	H	0.515651	-0.076340	0.053273
