data_functionalizedCrystal
_audit_creation_method	'MofGen! by Chris Wilmer'
_symmetry_space_group_name_H-M	'P1'
_symmetry_Int_Tables_number	1
_symmetry_cell_setting	triclinic
loop_
_symmetry_equiv_pos_as_xyz
  x,y,z
_cell_length_a	21.395361
_cell_length_b	16.120566
_cell_length_c	21.395355
_cell_angle_alpha	92.924055
_cell_angle_beta	89.978489
_cell_angle_gamma	92.873428
loop_
_atom_site_label
_atom_site_type_symbol
_atom_site_fract_x
_atom_site_fract_y
_atom_site_fract_z
Zn1	Zn	-0.298147	-1.274542	-0.402808
Zn2	Zn	-0.402902	-1.274412	-0.298020
Zn3	Zn	-0.292826	-1.135113	-0.292732
Zn4	Zn	-0.397568	-1.135072	-0.397451
O5	O	-0.347861	-1.204785	-0.347753
O6	O	-0.316501	-1.391190	-0.393362
O7	O	-0.388305	-1.255897	-0.209639
O8	O	-0.205857	-1.153680	-0.307363
O9	O	-0.393464	-1.391095	-0.316375
O10	O	-0.209766	-1.256118	-0.388235
O11	O	-0.307433	-1.153554	-0.205754
O12	O	-0.302262	-1.018442	-0.302169
O13	O	-0.384374	-1.153610	-0.485841
O14	O	-0.379216	-1.018412	-0.379105
O15	O	-0.311330	-1.256078	-0.489776
O16	O	-0.489869	-1.255857	-0.311181
O17	O	-0.485951	-1.153485	-0.384232
C18	C	-0.339583	-0.988177	-0.339482
C19	C	-0.336057	-0.895511	-0.335959
C20	C	-0.510644	-1.204675	-0.347714
C21	C	-0.580287	-1.204704	-0.347721
C22	C	-0.615021	-1.258056	-0.309725
C23	C	-0.680458	-1.258095	-0.309741
C24	C	-0.711157	-1.204767	-0.347745
C25	C	-0.676415	-1.151410	-0.385747
C26	C	-0.610979	-1.151379	-0.385736
C27	C	-0.812008	-1.129700	-0.349795
C28	C	-0.877442	-1.129730	-0.349802
C29	C	-0.912982	-1.204864	-0.347785
C30	C	-0.883079	-1.279970	-0.345747
C31	C	-0.817644	-1.279938	-0.345736
C32	C	-0.782111	-1.204795	-0.347762
C33	C	-1.018670	-1.258263	-0.309805
C34	C	-1.084108	-1.258303	-0.309825
C35	C	-1.080064	-1.151611	-0.385828
C36	C	-1.014627	-1.151578	-0.385811
C37	C	-0.983934	-1.204903	-0.347796
C38	C	-0.329605	-0.725850	-0.329532
C39	C	-0.366171	-0.684560	-0.365978
C40	C	-0.362581	-0.590155	-0.362402
C41	C	-0.333194	-0.820264	-0.333107
C42	C	-0.184443	-1.204918	-0.347806
C43	C	-0.114803	-1.204975	-0.347829
C44	C	-0.347851	-1.204854	-0.511179
C45	C	-0.347846	-1.204884	-0.580821
C46	C	-0.356173	-0.422238	-0.356045
C47	C	-0.359720	-0.514904	-0.359553
C48	C	-0.309810	-1.258236	-0.615584
C49	C	-0.309783	-1.258235	-0.681020
C50	C	-0.347804	-1.204890	-0.711690
C51	C	-0.385843	-1.151527	-0.676918
C52	C	-0.385864	-1.151524	-0.611484
C53	C	-0.403967	-1.198269	-0.815100
C54	C	-0.403947	-1.198278	-0.880533
C55	C	-0.347738	-1.204895	-0.913511
C56	C	-0.291548	-1.211521	-0.881047
C57	C	-0.291569	-1.211518	-0.815613
C58	C	-0.347785	-1.204887	-0.782642
C59	C	-0.309669	-1.258249	-1.019227
C60	C	-0.309641	-1.258242	-1.084663
C61	C	-0.385706	-1.151539	-1.080560
C62	C	-0.385729	-1.151541	-1.015125
C63	C	-0.347711	-1.204901	-0.984462
C64	C	-0.347827	-1.204764	-0.184964
C65	C	-0.347661	-1.204896	-0.115328
H66	H	-0.590033	-1.301479	-0.278773
H67	H	-0.245818	-1.216910	-0.789184
H68	H	-0.295606	-0.690301	-0.295647
H69	H	-0.416797	-1.108091	-0.701894
H70	H	-0.912014	-1.341150	-0.344105
C71	C	-1.122316	-1.316998	-0.268024
N72	N	-1.151095	-1.361206	-0.236537
C73	C	-0.267844	-1.316938	-0.985495
N74	N	-0.236340	-1.361142	-0.960090
H75	H	-0.400171	-0.720111	-0.399867
H76	H	-0.278853	-1.301685	-0.590623
H77	H	-0.708744	-1.301544	-0.278801
C78	C	-0.267943	-1.316934	-0.719267
N79	N	-0.236430	-1.361149	-0.748073
C80	C	-0.229713	-1.218798	-0.917317
N81	N	-0.183141	-1.224281	-0.944639
H82	H	-0.416836	-1.108074	-0.583180
H83	H	-0.278664	-1.301687	-1.112966
C84	C	-0.427530	-1.092859	-1.114294
N85	N	-0.459032	-1.048659	-1.139705
C86	C	-0.427575	-1.092852	-0.976884
N87	N	-0.459094	-1.048642	-0.948081
C88	C	-0.984906	-1.316933	-0.267998
N89	N	-0.959477	-1.361127	-0.236511
H90	H	-0.449700	-1.192888	-0.906960
C91	C	-0.784754	-1.362553	-0.343494
N92	N	-0.759981	-1.424779	-0.341807
H93	H	-1.105059	-1.108193	-0.416774
H94	H	-0.701415	-1.107991	-0.416691
C95	C	-0.465806	-1.191005	-0.778832
N96	N	-0.512383	-1.185540	-0.751516
H97	H	-0.986345	-1.108130	-0.416748
H98	H	-0.783077	-1.068513	-0.351439
C99	C	-0.910328	-1.047113	-0.352042
N100	N	-0.935097	-0.984883	-0.353729
C101	C	-0.572771	-1.092695	-0.427543
N102	N	-0.543991	-1.048496	-0.459036
