data_functionalizedCrystal
_audit_creation_method	'MofGen! by Chris Wilmer'
_symmetry_space_group_name_H-M	'P1'
_symmetry_Int_Tables_number	1
_symmetry_cell_setting	triclinic
loop_
_symmetry_equiv_pos_as_xyz
  x,y,z
_cell_length_a	11.169417
_cell_length_b	10.685194
_cell_length_c	11.169409
_cell_angle_alpha	85.594469
_cell_angle_beta	89.980176
_cell_angle_gamma	94.378129
loop_
_atom_site_label
_atom_site_type_symbol
_atom_site_fract_x
_atom_site_fract_y
_atom_site_fract_z
Zn1	Zn	1.798362	-0.502284	-0.641889
Zn2	Zn	2.298362	-0.002284	-0.141889
Zn3	Zn	1.782870	-0.713363	-0.425803
Zn4	Zn	2.282870	-0.213363	0.074197
Zn5	Zn	1.597642	-0.502361	-0.441218
Zn6	Zn	2.097642	-0.002361	0.058782
Zn7	Zn	1.582282	-0.713261	-0.626455
Zn8	Zn	2.082282	-0.213261	-0.126455
O9	O	1.690289	-0.607817	-0.533841
O10	O	2.190289	-0.107817	-0.033841
O11	O	1.964256	-0.530295	-0.613233
O12	O	2.464256	-0.030295	-0.113233
O13	O	1.758245	-0.685449	-0.259892
O14	O	2.258245	-0.185449	0.240108
O15	O	1.637180	-0.325751	-0.480748
O16	O	2.137180	0.174249	0.019252
O17	O	1.952874	-0.685374	-0.454475
O18	O	2.452874	-0.185374	0.045525
O19	O	1.784648	-0.325695	-0.628180
O20	O	2.284648	0.174305	-0.128180
O21	O	1.622158	-0.530426	-0.271218
O22	O	2.122158	-0.030426	0.228782
O23	O	1.427656	-0.530326	-0.465782
O24	O	1.927656	-0.030326	0.034218
O25	O	1.611000	-0.685199	-0.796458
O26	O	2.111000	-0.185199	-0.296458
O27	O	1.416371	-0.685274	-0.601875
O28	O	1.916371	-0.185274	-0.101875
O29	O	1.769753	-0.530195	-0.807797
O30	O	2.269753	-0.030195	-0.307797
O31	O	1.743350	-0.889949	-0.439509
O32	O	2.243350	-0.389949	0.060491
O33	O	1.595979	-0.889874	-0.586928
O34	O	2.095979	-0.389874	-0.086928
C35	C	1.378466	-0.607798	-0.533827
C36	C	1.878466	-0.107798	-0.033827
C37	C	1.245064	-0.607820	-0.533848
C38	C	1.745064	-0.107820	-0.033848
C39	C	1.666349	-0.935702	-0.509897
C40	C	2.166349	-0.435702	-0.009897
C41	C	1.656217	-1.075972	-0.499694
C42	C	2.156217	-0.575972	0.000306
C43	C	2.003330	-0.607837	-0.533856
C44	C	2.503330	-0.107837	-0.033856
C45	C	2.136729	-0.607846	-0.533862
C46	C	2.636729	-0.107846	-0.033862
C47	C	1.690391	-0.607677	-0.846894
C48	C	2.190391	-0.107677	-0.346894
C49	C	1.690435	-0.607617	-0.980299
C50	C	2.190435	-0.107617	-0.480299
C51	C	1.714355	-0.278652	-0.557905
C52	C	2.214355	0.221348	-0.057905
C53	C	1.724611	-0.138382	-0.568160
C54	C	2.224611	0.361618	-0.068160
C55	C	1.690263	-0.607866	-0.222013
C56	C	2.190263	-0.107866	0.277987
C57	C	1.690478	-0.607570	-0.088635
C58	C	2.190478	-0.107570	0.411365
H59	H	1.790918	-1.084503	-0.634588
H60	H	2.290918	-0.584503	-0.134588
H61	H	1.589896	-1.129859	-0.433272
H62	H	2.089896	-0.629859	0.066728
