data_functionalizedCrystal
_audit_creation_method	'MofGen! by Chris Wilmer'
_symmetry_space_group_name_H-M	'P1'
_symmetry_Int_Tables_number	1
_symmetry_cell_setting	triclinic
loop_
_symmetry_equiv_pos_as_xyz
  x,y,z
_cell_length_a	14.519709
_cell_length_b	8.597187
_cell_length_c	7.681481
_cell_angle_alpha	88.166928
_cell_angle_beta	84.246308
_cell_angle_gamma	84.511067
loop_
_atom_site_label
_atom_site_type_symbol
_atom_site_fract_x
_atom_site_fract_y
_atom_site_fract_z
O1	O	0.164404	2.036783	-0.455438
O2	O	0.170953	1.586777	-0.387171
O3	O	0.033643	1.823713	-0.423099
O4	O	0.301714	1.799847	-0.419510
O5	O	0.016703	1.852876	-0.134663
O6	O	0.154013	1.615940	-0.098735
O7	O	0.147463	2.065946	-0.167002
Zn8	Zn	0.148048	1.845573	-0.087073
Zn9	Zn	0.170368	1.807150	-0.467100
O10	O	0.284774	1.829010	-0.131074
C11	C	0.160835	1.543767	-0.234216
C12	C	0.155916	1.372161	-0.208182
C13	C	-0.009206	1.837182	-0.278712
C14	C	-0.111644	1.833850	-0.278205
C15	C	-0.486747	1.821577	-0.276389
C16	C	-0.382382	1.824985	-0.276893
C17	C	-0.299199	1.827713	-0.277296
C18	C	-0.194827	1.831122	-0.277803
C19	C	0.327623	1.815541	-0.275465
C20	C	0.430062	1.818872	-0.275983
C21	C	0.157581	2.108956	-0.319961
C22	C	0.162501	2.280560	-0.346006
N23	N	0.132816	1.871807	0.172283
N24	N	0.185593	1.780928	-0.726458
H25	H	0.171904	1.333428	-0.483918
O26	O	0.144743	1.309356	-0.043538
C27	C	0.139580	1.428977	0.079380
H28	H	0.174633	1.533012	0.016970
H29	H	0.063577	1.466962	0.122736
C30	C	0.146204	1.240024	0.316041
C31	C	0.189265	1.367796	0.239393
H32	H	0.176848	1.202285	0.414749
H33	H	0.149679	1.159432	0.233231
H34	H	0.082870	1.271695	0.352156
H35	H	0.252594	1.336119	0.203260
H36	H	0.185802	1.448382	0.322201
H37	H	0.239463	1.688159	0.212413
H38	H	0.078949	1.964594	0.233419
