data_functionalizedCrystal
_audit_creation_method	'MofGen! by Chris Wilmer'
_symmetry_space_group_name_H-M	'P1'
_symmetry_Int_Tables_number	1
_symmetry_cell_setting	triclinic
loop_
_symmetry_equiv_pos_as_xyz
  x,y,z
_cell_length_a	12.759399
_cell_length_b	17.077404
_cell_length_c	17.077396
_cell_angle_alpha	90.019200
_cell_angle_beta	89.973164
_cell_angle_gamma	89.985780
loop_
_atom_site_label
_atom_site_type_symbol
_atom_site_fract_x
_atom_site_fract_y
_atom_site_fract_z
Zn1	Zn	-0.418283	-1.200080	-0.443897
Zn2	Zn	-0.593986	-1.200010	-0.312637
Zn3	Zn	-0.418319	-1.068817	-0.312641
Zn4	Zn	-0.593917	-1.068797	-0.443856
O5	O	-0.506126	-1.134426	-0.378258
O6	O	-0.441604	-1.309917	-0.426501
O7	O	-0.570727	-1.182585	-0.202790
O8	O	-0.271293	-1.086266	-0.330071
O9	O	-0.570692	-1.309866	-0.330065
O10	O	-0.271266	-1.182705	-0.426505
O11	O	-0.441665	-1.086198	-0.202793
O12	O	-0.441599	-0.958967	-0.330031
O13	O	-0.570576	-1.086233	-0.553708
O14	O	-0.570610	-0.958953	-0.426434
O15	O	-0.441537	-1.182686	-0.553739
O16	O	-0.740998	-1.182567	-0.330025
O17	O	-0.740948	-1.086165	-0.426431
C18	C	-0.506102	-0.930478	-0.378229
C19	C	-0.506117	-0.843228	-0.378235
C20	C	-0.779094	-1.134378	-0.378240
C21	C	-0.895870	-1.134429	-0.378258
C22	C	-0.573393	-0.802251	-0.428351
C23	C	-0.573393	-0.720271	-0.428360
C24	C	-0.506121	-0.679269	-0.378250
C25	C	-0.438837	-0.720251	-0.328133
C26	C	-0.438833	-0.802230	-0.328128
C27	C	-0.438854	-0.549381	-0.328146
C28	C	-0.438859	-0.467397	-0.328150
C29	C	-0.573414	-0.467422	-0.428379
C30	C	-0.573410	-0.549401	-0.428374
C31	C	-0.506127	-0.590378	-0.378255
C32	C	-0.950723	-1.184682	-0.328117
C33	C	-1.060447	-1.184733	-0.328143
C34	C	-1.060455	-1.084269	-0.428455
C35	C	-0.950733	-1.084224	-0.428432
C36	C	-1.210325	-1.277388	-0.300215
C37	C	-1.265182	-1.327635	-0.250061
C38	C	-1.229635	-1.339718	-0.173471
C39	C	-1.139233	-1.301543	-0.147020
C40	C	-1.084382	-1.251291	-0.197169
C41	C	-1.119927	-1.239223	-0.273770
C42	C	-0.800853	-0.991567	-0.456352
C43	C	-0.746000	-0.941310	-0.506498
C44	C	-0.781545	-0.929219	-0.583089
C45	C	-0.871951	-0.967380	-0.609538
C46	C	-0.926804	-1.017636	-0.559392
C47	C	-0.891252	-1.029729	-0.482802
C48	C	-0.232093	-1.134495	-0.378293
C49	C	-0.115316	-1.134525	-0.378308
C50	C	-0.506045	-1.134465	-0.583002
C51	C	-0.506010	-1.134482	-0.670252
C52	C	-0.506145	-0.339170	-0.378278
C53	C	-0.506136	-0.426420	-0.378265
C54	C	-0.438800	-1.084309	-0.711243
C55	C	-0.438776	-1.084321	-0.793223
C56	C	-0.505958	-1.134512	-0.834211
C57	C	-0.573176	-1.184688	-0.793215
C58	C	-0.573204	-1.184670	-0.711236
C59	C	-0.573110	-1.184722	-0.964085
C60	C	-0.573081	-1.184740	-1.046069
C61	C	-0.438682	-1.084373	-1.046073
C62	C	-0.438710	-1.084355	-0.964094
C63	C	-0.505927	-1.134532	-0.923102
C64	C	-0.506131	-1.134432	-0.174310
C65	C	-0.505870	-1.134567	-0.087060
H66	H	-0.628178	-0.835629	-0.469154
H67	H	-0.384086	-1.043442	-0.677876
H68	H	-1.000415	-1.048712	-0.580934
H69	H	-0.736874	-0.888293	-0.623917
H70	H	-1.110304	-1.311380	-0.084649
H71	H	-0.384044	-0.835593	-0.287323
H72	H	-1.274307	-1.380631	-0.132636
O73	O	-0.638528	-1.233481	-0.671536
C74	C	-0.697840	-1.277770	-0.725290
H75	H	-0.654784	-1.280519	-0.783733
H76	H	-0.709074	-1.339608	-0.701606
H77	H	-0.777621	-1.249000	-0.733996
O78	O	-0.766505	-1.003298	-0.381898
C79	C	-0.844794	-0.979742	-0.328565
H80	H	-0.924466	-0.981311	-0.358705
H81	H	-0.845397	-1.021224	-0.276278
H82	H	-0.827827	-0.917646	-0.307584
H83	H	-1.338788	-1.358717	-0.271605
H84	H	-0.384055	-0.582742	-0.287341
O85	O	-0.638410	-1.233376	-1.085967
C86	C	-0.706250	-1.188660	-1.133351
H87	H	-0.669161	-1.129193	-1.145632
H88	H	-0.720333	-1.220638	-1.191001
H89	H	-0.784111	-1.179992	-1.101739
O90	O	-0.373384	-1.035561	-0.832920
C91	C	-0.314107	-0.991248	-0.779164
H92	H	-0.310497	-1.023392	-0.720733
H93	H	-0.231319	-0.982906	-0.802862
H94	H	-0.352569	-0.931617	-0.770430
O95	O	-0.373414	-1.035529	-0.924398
C96	C	-0.314062	-0.991259	-0.978154
H97	H	-0.357070	-0.988537	-1.036586
H98	H	-0.302854	-0.929411	-0.954457
H99	H	-0.234271	-1.020028	-0.986888
H100	H	-1.239270	-1.267563	-0.362583
H101	H	-0.628194	-0.582782	-0.469173
O102	O	-0.638858	-0.680587	-0.477058
C103	C	-0.698224	-0.734355	-0.521291
H104	H	-0.701789	-0.792781	-0.489131
H105	H	-0.781021	-0.710663	-0.529544
H106	H	-0.659868	-0.743101	-0.580964
O107	O	-0.373639	-0.427518	-0.279419
C108	C	-0.433338	-0.380036	-0.228653
H109	H	-0.516068	-0.404731	-0.223648
H110	H	-0.395190	-0.379058	-0.168309
H111	H	-0.437029	-0.317926	-0.252948
H112	H	-1.010776	-1.220211	-0.175634
O113	O	-0.638671	-0.427500	-0.477044
C114	C	-0.624267	-0.346351	-0.466296
H115	H	-0.543143	-0.335156	-0.440696
H116	H	-0.631497	-0.315220	-0.525088
H117	H	-0.686513	-0.323057	-0.424414
O118	O	-0.906316	-0.955579	-0.683974
C119	C	-0.838530	-0.903026	-0.722558
H120	H	-0.758517	-0.903907	-0.692895
H121	H	-0.829687	-0.921308	-0.786429
H122	H	-0.872570	-0.841369	-0.719548
H123	H	-0.383950	-1.043518	-1.079451
H124	H	-0.672382	-0.910242	-0.484959
H125	H	-0.627882	-1.225550	-0.826594
O126	O	-0.638551	-1.233422	-0.924349
C127	C	-0.743256	-1.216230	-0.944347
H128	H	-0.745410	-1.186070	-1.003867
H129	H	-0.790374	-1.272870	-0.947147
H130	H	-0.778650	-1.175851	-0.898199
O131	O	-0.373540	-0.680509	-0.279348
C132	C	-0.396382	-0.700491	-0.201080
H133	H	-0.436759	-0.760008	-0.199395
H134	H	-0.320497	-0.703290	-0.165981
H135	H	-0.450357	-0.654335	-0.174574
H136	H	-1.105138	-1.043393	-0.469303
O137	O	-0.897314	-1.233493	-0.279494
C138	C	-0.833765	-1.284152	-0.324219
H139	H	-0.817294	-1.256423	-0.383677
H140	H	-0.756631	-1.294661	-0.292237
H141	H	-0.875981	-1.342335	-0.332910
