data_functionalizedCrystal
_audit_creation_method	'MofGen! by Chris Wilmer'
_symmetry_space_group_name_H-M	'P1'
_symmetry_Int_Tables_number	1
_symmetry_cell_setting	triclinic
loop_
_symmetry_equiv_pos_as_xyz
  x,y,z
_cell_length_a	10.540539
_cell_length_b	10.723024
_cell_length_c	9.198806
_cell_angle_alpha	90.003648
_cell_angle_beta	89.998955
_cell_angle_gamma	95.503320
loop_
_atom_site_label
_atom_site_type_symbol
_atom_site_fract_x
_atom_site_fract_y
_atom_site_fract_z
O1	O	0.178046	-1.657276	-0.120876
O2	O	0.195088	-1.294132	-0.120880
O3	O	0.001856	-1.483989	-0.120876
O4	O	0.371278	-1.467419	-0.120880
O5	O	0.001856	-1.483974	0.120909
O6	O	0.195088	-1.294117	0.120905
O7	O	0.178045	-1.657261	0.120909
Cu8	Cu	0.186567	-1.475688	0.142984
Cu9	Cu	0.186567	-1.475706	-0.142955
O10	O	0.371277	-1.467404	0.120905
C11	C	-0.045446	-1.482739	0.000014
C12	C	-0.186392	-1.479021	0.000006
C13	C	0.193848	-1.247624	0.000012
C14	C	0.190137	-1.109068	0.000010
C15	C	0.179286	-1.703769	0.000014
C16	C	0.182997	-1.842325	0.000007
C17	C	-0.369746	-1.336563	-0.000538
C18	C	-0.223130	-1.340332	0.000006
C19	C	-0.248085	-1.545756	0.138078
C20	C	-0.394627	-1.541023	0.138194
C21	C	-0.395146	-1.543861	-0.136760
C22	C	-0.248164	-1.545138	-0.138586
C23	C	0.418580	-1.468654	0.000012
C24	C	0.559526	-1.472372	0.000011
C25	C	0.298260	-1.034139	0.000008
C26	C	0.294427	-0.890934	0.000006
N27	N	0.186565	-1.475684	0.344098
N28	N	0.186558	-1.475719	-0.344069
C29	C	0.105075	-1.555399	0.416297
C30	C	0.105071	-1.555419	0.583709
H31	H	-0.180499	-1.287821	-0.098969
H32	H	-0.398318	-1.281784	-0.099552
H33	H	-0.205461	-1.499386	0.240826
Cl34	Cl	0.437343	-0.791532	-0.000008
H35	H	0.393665	-1.076009	0.000015
Cl36	Cl	0.294274	-1.370326	0.440007
Cl37	Cl	-0.002927	-1.660467	0.320389
Cl38	Cl	0.040076	-0.941719	-0.000002
Cl39	Cl	-0.468771	-1.695012	0.147888
Cl40	Cl	-0.002643	-1.660800	0.679562
Cl41	Cl	-0.416884	-1.252074	0.151024
Cl42	Cl	-0.213656	-1.703004	0.146015
H43	H	-0.426675	-1.498980	-0.241410
Cl44	Cl	0.042832	-1.044437	0.000022
H45	H	-0.181347	-1.287441	0.099145
Cl46	Cl	-0.184295	-1.470381	-0.296312
Cl47	Cl	-0.438131	-1.464850	0.297538
Cl48	Cl	-0.210845	-1.701253	-0.151468
Cl49	Cl	-0.468140	-1.698520	-0.138197
Cl50	Cl	0.294289	-1.370348	0.560088
