data_functionalizedCrystal
_audit_creation_method	'MofGen! by Chris Wilmer'
_symmetry_space_group_name_H-M	'P1'
_symmetry_Int_Tables_number	1
_symmetry_cell_setting	triclinic
loop_
_symmetry_equiv_pos_as_xyz
  x,y,z
_cell_length_a	12.759401
_cell_length_b	18.215405
_cell_length_c	12.759393
_cell_angle_alpha	89.962431
_cell_angle_beta	89.981504
_cell_angle_gamma	90.025046
loop_
_atom_site_label
_atom_site_type_symbol
_atom_site_fract_x
_atom_site_fract_y
_atom_site_fract_z
Zn1	Zn	1.606181	-0.292938	-0.593937
Zn2	Zn	2.106181	0.207062	-0.093937
Zn3	Zn	1.606044	-0.416024	-0.418239
Zn4	Zn	2.106044	0.083976	0.081761
Zn5	Zn	1.430483	-0.292976	-0.418277
Zn6	Zn	1.930483	0.207024	0.081723
Zn7	Zn	1.430440	-0.415967	-0.593881
Zn8	Zn	1.930440	0.084033	-0.093881
O9	O	1.518287	-0.354476	-0.506084
O10	O	2.018287	0.145524	-0.006084
O11	O	1.753184	-0.309273	-0.570639
O12	O	2.253184	0.190727	-0.070639
O13	O	1.582716	-0.399741	-0.271223
O14	O	2.082716	0.100259	0.228777
O15	O	1.453865	-0.189987	-0.441618
O16	O	1.953865	0.310013	0.058382
O17	O	1.753083	-0.399704	-0.441554
O18	O	2.253083	0.100296	0.058446
O19	O	1.582949	-0.189959	-0.570675
O20	O	2.082949	0.310041	-0.070675
O21	O	1.453732	-0.309339	-0.271251
O22	O	1.953732	0.190661	0.228749
O23	O	1.283456	-0.309284	-0.441563
O24	O	1.783456	0.190716	0.058437
O25	O	1.453792	-0.399607	-0.740909
O26	O	1.953792	0.100393	-0.240909
O27	O	1.283425	-0.399645	-0.570578
O28	O	1.783425	0.100355	-0.070578
O29	O	1.582908	-0.309218	-0.740951
O30	O	2.082908	0.190782	-0.240951
O31	O	1.582675	-0.519001	-0.441499
O32	O	2.082675	-0.019001	0.058501
O33	O	1.453660	-0.518959	-0.570542
O34	O	1.953660	-0.018959	-0.070542
C35	C	1.245320	-0.354463	-0.506069
C36	C	1.745320	0.145537	-0.006069
C37	C	1.128543	-0.354475	-0.506088
C38	C	1.628543	0.145525	-0.006088
C39	C	1.073692	-0.401601	-0.573155
C40	C	1.573692	0.098399	-0.073155
C41	C	0.963968	-0.401610	-0.573167
C42	C	1.463968	0.098390	-0.073167
C43	C	0.963956	-0.307365	-0.439035
C44	C	1.463956	0.192635	0.060965
C45	C	1.073678	-0.307353	-0.439029
C46	C	1.573678	0.192647	0.060971
C47	C	1.073699	-0.456015	-0.650592
C48	C	1.573699	0.043985	-0.150592
C49	C	0.963975	-0.456025	-0.650604
C50	C	1.463975	0.043975	-0.150604
C51	C	1.518176	-0.545683	-0.506033
C52	C	2.018176	-0.045683	-0.006033
C53	C	1.518225	-0.627482	-0.506047
C54	C	2.018225	-0.127482	-0.006047
C55	C	1.585561	-0.815673	-0.438977
C56	C	2.085561	-0.315673	0.061023
C57	C	1.585608	-0.892531	-0.439003
C58	C	2.085608	-0.392531	0.060997
C59	C	1.451148	-0.892528	-0.573265
C60	C	1.951148	-0.392528	-0.073265
C61	C	1.451107	-0.815671	-0.573244
C62	C	1.951107	-0.315671	-0.073244
C63	C	1.518312	-0.777245	-0.506094
C64	C	2.018312	-0.277245	-0.006094
C65	C	1.518400	-0.930961	-0.506141
C66	C	2.018400	-0.430961	-0.006141
C67	C	1.518450	-1.014295	-0.506169
C68	C	2.018450	-0.514295	-0.006169
C69	C	1.518263	-0.693906	-0.506067
C70	C	2.018263	-0.193906	-0.006067
C71	C	1.792320	-0.354491	-0.506098
C72	C	2.292320	0.145509	-0.006098
C73	C	1.909097	-0.354497	-0.506105
C74	C	2.409097	0.145503	-0.006105
C75	C	1.518361	-0.354402	-0.780117
C76	C	2.018361	0.145598	-0.280117
C77	C	1.518392	-0.354370	-0.896894
C78	C	2.018392	0.145630	-0.396894
C79	C	1.518427	-0.162523	-0.506157
C80	C	2.018427	0.337477	-0.006157
C81	C	1.518487	-0.080724	-0.506189
C82	C	2.018487	0.419276	-0.006189
C83	C	1.585632	-0.307300	-0.951779
C84	C	2.085632	0.192700	-0.451779
C85	C	1.585657	-0.307274	-1.061503
C86	C	2.085657	0.192726	-0.561503
C87	C	1.451199	-0.401394	-1.061447
C88	C	1.951199	0.098606	-0.561447
C89	C	1.451170	-0.401416	-0.951725
C90	C	1.951170	0.098584	-0.451725
C91	C	1.663263	-0.252963	-0.951813
C92	C	2.163263	0.247037	-0.451813
C93	C	1.663288	-0.252936	-1.061537
C94	C	2.163288	0.247064	-0.561537
C95	C	1.518274	-0.354497	-0.233116
C96	C	2.018274	0.145503	0.266884
C97	C	1.518447	-0.354322	-0.116340
C98	C	2.018447	0.145678	0.383660
H99	H	1.107699	-0.510128	-0.621300
H100	H	1.607699	-0.010128	-0.121300
F101	F	1.379590	-0.451504	-0.893315
F102	F	1.879590	0.048496	-0.393315
F103	F	1.634829	-0.178470	-0.912926
F104	F	2.134829	0.321530	-0.412926
F105	F	1.764256	-0.279665	-0.907316
F106	F	2.264256	0.220335	-0.407316
F107	F	1.625135	-0.182188	-1.106056
F108	F	2.125135	0.317812	-0.606056
F109	F	1.379626	-0.933430	-0.644725
F110	F	1.879626	-0.433430	-0.144725
H111	H	1.744655	-0.268201	-1.091313
H112	H	2.244655	0.231799	-0.591313
F113	F	1.657186	-0.933426	-0.367570
F114	F	2.157186	-0.433426	0.132430
F115	F	0.919538	-0.429433	-0.751709
F116	F	1.419538	0.070567	-0.251709
F117	F	1.379532	-0.774771	-0.644688
F118	F	1.879532	-0.274771	-0.144688
F119	F	1.379660	-0.451460	-1.119811
F120	F	1.879660	0.048540	-0.619811
H121	H	1.118333	-0.268973	-0.384424
H122	H	1.618333	0.231027	0.115576
H123	H	0.919271	-0.268999	-0.384439
H124	H	1.419271	0.231001	0.115561
H125	H	1.103511	-0.440815	-0.732001
H126	H	1.603511	0.059185	-0.232001
H127	H	0.934165	-0.513008	-0.628663
H128	H	1.434165	-0.013008	-0.128663
F129	F	1.657088	-0.774780	-0.367512
F130	F	2.157088	-0.274780	0.132488
