data_functionalizedCrystal
_audit_creation_method	'MofGen! by Chris Wilmer'
_symmetry_space_group_name_H-M	'P1'
_symmetry_Int_Tables_number	1
_symmetry_cell_setting	triclinic
loop_
_symmetry_equiv_pos_as_xyz
  x,y,z
_cell_length_a	21.395362
_cell_length_b	13.897447
_cell_length_c	21.395355
_cell_angle_alpha	89.985644
_cell_angle_beta	89.956060
_cell_angle_gamma	90.035409
loop_
_atom_site_label
_atom_site_type_symbol
_atom_site_fract_x
_atom_site_fract_y
_atom_site_fract_z
Zn1	Zn	0.957908	-0.383718	-0.354604
Zn2	Zn	0.957831	-0.544997	-0.249834
Zn3	Zn	0.853123	-0.383763	-0.249805
Zn4	Zn	0.853113	-0.545017	-0.354539
O5	O	0.905494	-0.464374	-0.302195
O6	O	1.045576	-0.405085	-0.340745
O7	O	0.943913	-0.523620	-0.162152
O8	O	0.867060	-0.248775	-0.263722
O9	O	1.045519	-0.523576	-0.263771
O10	O	0.944045	-0.248742	-0.340717
O11	O	0.866985	-0.405161	-0.162131
O12	O	0.765444	-0.405181	-0.263659
O13	O	0.867042	-0.523610	-0.442225
O14	O	0.765436	-0.523654	-0.340606
O15	O	0.944035	-0.405104	-0.442273
O16	O	0.943903	-0.679982	-0.263708
O17	O	0.866967	-0.679996	-0.340634
C18	C	0.742706	-0.464425	-0.302123
C19	C	0.673065	-0.464470	-0.302106
C20	C	0.640364	-0.526240	-0.342113
C21	C	0.574929	-0.526217	-0.342141
C22	C	0.542197	-0.464433	-0.302151
C23	C	0.574905	-0.402650	-0.262142
C24	C	0.640339	-0.402669	-0.262119
C25	C	0.438471	-0.456662	-0.245745
C26	C	0.373038	-0.456650	-0.245767
C27	C	0.340376	-0.464370	-0.302220
C28	C	0.373155	-0.472121	-0.358654
C29	C	0.438589	-0.472140	-0.358632
C30	C	0.471244	-0.464405	-0.302171
C31	C	0.236723	-0.526118	-0.342260
C32	C	0.171286	-0.526088	-0.342289
C33	C	0.171264	-0.402526	-0.262285
C34	C	0.236699	-0.402551	-0.262261
C35	C	0.269425	-0.464352	-0.302248
C36	C	0.905443	-0.714988	-0.302181
C37	C	0.905478	-0.822202	-0.302196
C38	C	0.905509	-0.909272	-0.302210
C39	C	0.905553	-1.018504	-0.302226
C40	C	1.068917	-0.464323	-0.302269
C41	C	1.138558	-0.464302	-0.302300
C42	C	0.905546	-0.464354	-0.465619
C43	C	0.905568	-0.464346	-0.535260
C44	C	0.905562	-0.212781	-0.302224
C45	C	0.905591	-0.105567	-0.302236
C46	C	0.945656	-0.402637	-0.567999
C47	C	0.945655	-0.402596	-0.633434
C48	C	0.905573	-0.464280	-0.666128
C49	C	0.865477	-0.525993	-0.633381
C50	C	0.865474	-0.526026	-0.567947
C51	C	0.900608	-0.551135	-0.769796
C52	C	0.900615	-0.551103	-0.835229
C53	C	0.905577	-0.464178	-0.867949
C54	C	0.910545	-0.377282	-0.835228
C55	C	0.910543	-0.377315	-0.769794
C56	C	0.905571	-0.464251	-0.737081
C57	C	0.945666	-0.402419	-0.971641
C58	C	0.945661	-0.402376	-1.037077
C59	C	0.865485	-0.525782	-1.037023
C60	C	0.865487	-0.525817	-0.971588
C61	C	0.905581	-0.464137	-0.938901
C62	C	0.905478	-0.464324	-0.139408
C63	C	0.905577	-0.464060	-0.069767
H64	H	0.548250	-0.352343	-0.229583
H65	H	0.978299	-0.352340	-0.660096
C66	C	0.945380	-0.706414	-0.855398
C67	C	0.895157	-0.646624	-0.871186
H68	H	0.942008	-0.765389	-0.877591
H69	H	0.983526	-0.675559	-0.866153
H70	H	0.944658	-0.718854	-0.811743
H71	H	0.895881	-0.634178	-0.914840
H72	H	0.857001	-0.677485	-0.860435
H73	H	0.465275	-0.478449	-0.404582
H74	H	0.666964	-0.352365	-0.229541
C75	C	0.458476	-0.525457	-0.144774
C76	C	0.474374	-0.448189	-0.183688
H77	H	0.480645	-0.520229	-0.106466
H78	H	0.414821	-0.524327	-0.136708
H79	H	0.469190	-0.584217	-0.164753
H80	H	0.463656	-0.389428	-0.163710
H81	H	0.518038	-0.449310	-0.191752
C82	C	0.097796	-0.539671	-0.426586
C83	C	0.135341	-0.593991	-0.386270
H84	H	0.075608	-0.581594	-0.453740
H85	H	0.068940	-0.502876	-0.402777
H86	H	0.123380	-0.497713	-0.450589
H87	H	0.109756	-0.635943	-0.362264
H88	H	0.164200	-0.630802	-0.410081
H89	H	0.832839	-0.576214	-0.660005
C90	C	0.151150	-0.239124	-0.231947
C91	C	0.135281	-0.334622	-0.218328
H92	H	0.128927	-0.197205	-0.204812
H93	H	0.194794	-0.230290	-0.226197
H94	H	0.140482	-0.225109	-0.274066
H95	H	0.145954	-0.348639	-0.176210
H96	H	0.091628	-0.343460	-0.224072
H97	H	0.896400	-0.621902	-0.743161
H98	H	0.978303	-0.352411	-0.541389
H99	H	0.263324	-0.352256	-0.229680
C100	C	0.299349	-0.529615	-0.175544
C101	C	0.337016	-0.448144	-0.183733
H102	H	0.277117	-0.524368	-0.137243
H103	H	0.270533	-0.534208	-0.209161
H104	H	0.324857	-0.585522	-0.174664
H105	H	0.311507	-0.392237	-0.184617
H106	H	0.365835	-0.443541	-0.150107
H107	H	0.978310	-0.352190	-0.945025
C108	C	0.920348	-0.205493	-0.776357
C109	C	0.915994	-0.281803	-0.733826
H110	H	0.923707	-0.146528	-0.754151
H111	H	0.956254	-0.213941	-0.801902
H112	H	0.884029	-0.204249	-0.801856
H113	H	0.952315	-0.283051	-0.708331
H114	H	0.880084	-0.273352	-0.708271
H115	H	0.914586	-0.306499	-0.861867
H116	H	0.978305	-0.352120	-1.063733
C117	C	0.829902	-0.580545	-1.137301
C118	C	0.821432	-0.593599	-1.072953
H119	H	0.802707	-0.622419	-1.159483
H120	H	0.820741	-0.515743	-1.148014
H121	H	0.872000	-0.594634	-1.148047
H122	H	0.779335	-0.579502	-1.062206
H123	H	0.830588	-0.658415	-1.062236
C124	C	0.834914	-0.689382	-0.547785
C125	C	0.821413	-0.593869	-0.531954
H126	H	0.807716	-0.731265	-0.525560
H127	H	0.829172	-0.698182	-0.591428
H128	H	0.877011	-0.703476	-0.537095
H129	H	0.779318	-0.579773	-0.542649
H130	H	0.827150	-0.585064	-0.488301
C131	C	0.786242	-0.647794	-0.978109
C132	C	0.821425	-0.593657	-0.935597
H133	H	0.759041	-0.689679	-0.955888
H134	H	0.762290	-0.605762	-1.003610
H135	H	0.813538	-0.684669	-1.003653
H136	H	0.794130	-0.556777	-0.910055
H137	H	0.845379	-0.635695	-0.910085
H138	H	0.548299	-0.576517	-0.374721
C139	C	0.633808	-0.648373	-0.421195
C140	C	0.676335	-0.594162	-0.386072
H141	H	0.656018	-0.690299	-0.448336
H142	H	0.608240	-0.685199	-0.393863
H143	H	0.608333	-0.606384	-0.445215
H144	H	0.701808	-0.636152	-0.362049
H145	H	0.701914	-0.557334	-0.413408
H146	H	0.346563	-0.478406	-0.404624
H147	H	0.263369	-0.576435	-0.374823
