data_functionalizedCrystal
_audit_creation_method	'MofGen! by Chris Wilmer'
_symmetry_space_group_name_H-M	'P1'
_symmetry_Int_Tables_number	1
_symmetry_cell_setting	triclinic
loop_
_symmetry_equiv_pos_as_xyz
  x,y,z
_cell_length_a	21.295417
_cell_length_b	12.759401
_cell_length_c	12.759393
_cell_angle_alpha	90.020112
_cell_angle_beta	89.961905
_cell_angle_gamma	89.970959
loop_
_atom_site_label
_atom_site_type_symbol
_atom_site_fract_x
_atom_site_fract_y
_atom_site_fract_z
Zn1	Zn	-0.250603	-1.606151	-0.593941
Zn2	Zn	-0.355885	-1.605994	-0.418238
Zn3	Zn	-0.250631	-1.430450	-0.418279
Zn4	Zn	-0.355836	-1.430393	-0.593878
O5	O	-0.303239	-1.518247	-0.506084
O6	O	-0.264578	-1.753151	-0.570643
O7	O	-0.341956	-1.582665	-0.271222
O8	O	-0.162538	-1.453846	-0.441625
O9	O	-0.341929	-1.753035	-0.441555
O10	O	-0.162518	-1.582933	-0.570683
O11	O	-0.264626	-1.453694	-0.271253
O12	O	-0.264578	-1.283421	-0.441563
O13	O	-0.341844	-1.453750	-0.740908
O14	O	-0.341871	-1.283380	-0.570575
O15	O	-0.264530	-1.582878	-0.740954
O16	O	-0.443968	-1.582610	-0.441494
O17	O	-0.443932	-1.453597	-0.570535
C18	C	-0.303223	-1.245279	-0.506067
C19	C	-0.303231	-1.128503	-0.506085
C20	C	-0.343545	-0.963916	-0.573161
C21	C	-0.343540	-1.073640	-0.573151
C22	C	-0.262929	-1.073636	-0.439016
C23	C	-0.262937	-0.963914	-0.439022
C24	C	-0.466791	-1.518109	-0.506026
C25	C	-0.536759	-1.518146	-0.506036
C26	C	-0.569623	-1.585383	-0.438913
C27	C	-0.635366	-1.585432	-0.438937
C28	C	-0.668241	-1.518226	-0.506072
C29	C	-0.635369	-1.450985	-0.573209
C30	C	-0.569627	-1.450945	-0.573191
N31	N	-0.771505	-1.426319	-0.514076
N32	N	-0.833957	-1.426360	-0.514087
C33	C	-0.866316	-1.518344	-0.506133
N34	N	-0.833865	-1.610287	-0.498146
N35	N	-0.771407	-1.610245	-0.498130
C36	C	-0.739527	-1.518262	-0.506100
C37	C	-0.970466	-1.585639	-0.439032
C38	C	-1.036210	-1.585690	-0.439063
C39	C	-1.036211	-1.451233	-0.573329
C40	C	-0.970469	-1.451192	-0.573304
C41	C	-0.937600	-1.518393	-0.506149
C42	C	-0.139049	-1.518414	-0.506166
C43	C	-0.069081	-1.518485	-0.506200
C44	C	-0.303179	-1.518325	-0.780118
C45	C	-0.303153	-1.518359	-0.896894
C46	C	-0.303251	-0.792280	-0.506099
C47	C	-0.303245	-0.909057	-0.506100
C48	C	-0.262889	-1.585601	-0.951782
C49	C	-0.262862	-1.585619	-1.061506
C50	C	-0.343368	-1.451149	-1.061445
C51	C	-0.343391	-1.451127	-0.951723
C52	C	-0.303254	-1.518229	-0.233117
C53	C	-0.303102	-1.518399	-0.116341
H54	H	-0.230118	-0.919247	-0.384408
H55	H	-0.376178	-1.396363	-0.907032
O56	O	-0.382752	-1.126977	-0.638149
C57	C	-0.423356	-1.190413	-0.578211
H58	H	-0.427191	-1.157311	-0.495454
H59	H	-0.471825	-1.191642	-0.616066
H60	H	-0.403884	-1.273581	-0.574644
H61	H	-0.230074	-1.640373	-1.106191
O62	O	-1.068234	-1.651064	-0.374043
C63	C	-1.133308	-1.636725	-0.388490
H64	H	-1.142245	-1.602167	-0.469501
H65	H	-1.158225	-1.715479	-0.381588
H66	H	-1.152073	-1.580936	-0.326066
H67	H	-0.542864	-1.640105	-0.384235
O68	O	-0.223861	-1.127046	-0.373815
C69	C	-0.259648	-1.190447	-0.305830
H70	H	-0.307378	-1.206865	-0.342736
H71	H	-0.233992	-1.267616	-0.291830
H72	H	-0.266511	-1.148129	-0.227950
H73	H	-0.943703	-1.640363	-0.384354
O74	O	-1.068206	-1.386096	-0.638601
C75	C	-1.106154	-1.445904	-0.706541
H76	H	-1.115980	-1.525548	-0.669557
H77	H	-1.152398	-1.403132	-0.720602
H78	H	-1.080770	-1.457393	-0.784399
O79	O	-0.938638	-1.385767	-0.638531
C80	C	-0.981749	-1.326476	-0.697812
H81	H	-1.028636	-1.322892	-0.654791
H82	H	-0.962792	-1.243680	-0.708937
H83	H	-0.988679	-1.364909	-0.777642
O84	O	-0.223740	-1.650934	-0.898683
C85	C	-0.188207	-1.710304	-0.970663
H86	H	-0.186009	-1.667287	-1.048871
H87	H	-0.138617	-1.721554	-0.938990
H88	H	-0.211261	-1.790076	-0.982334
H89	H	-0.662130	-1.640188	-0.384277
H90	H	-0.662140	-1.396267	-0.627873
O91	O	-0.382436	-1.385948	-1.114870
C92	C	-0.373772	-1.400367	-1.223484
H93	H	-0.353160	-1.481472	-1.238493
H94	H	-0.420915	-1.393199	-1.265159
H95	H	-0.340238	-1.338092	-1.254630
H96	H	-0.376367	-0.919254	-0.627780
H97	H	-0.542868	-1.396192	-0.627852
