data_functionalizedCrystal
_audit_creation_method	'MofGen! by Chris Wilmer'
_symmetry_space_group_name_H-M	'P1'
_symmetry_Int_Tables_number	1
_symmetry_cell_setting	triclinic
loop_
_symmetry_equiv_pos_as_xyz
  x,y,z
_cell_length_a	16.109302
_cell_length_b	14.586319
_cell_length_c	16.109304
_cell_angle_alpha	89.997551
_cell_angle_beta	96.537798
_cell_angle_gamma	90.002485
loop_
_atom_site_label
_atom_site_type_symbol
_atom_site_fract_x
_atom_site_fract_y
_atom_site_fract_z
O1	O	1.103128	0.076274	-0.106872
O2	O	1.436461	0.409608	0.226461
O3	O	1.769794	0.742941	0.559795
O4	O	0.861066	0.076266	-0.120171
O5	O	1.194399	0.409600	0.213163
O6	O	1.527732	0.742933	0.546496
O7	O	0.988745	0.076273	0.007510
O8	O	1.322078	0.409606	0.340843
O9	O	1.655412	0.742939	0.674176
O10	O	0.975448	0.076268	-0.234552
O11	O	1.308782	0.409601	0.098781
O12	O	1.642115	0.742935	0.432115
O13	O	0.988744	-0.076208	0.007518
O14	O	1.322077	0.257125	0.340851
O15	O	1.655411	0.590458	0.674184
O16	O	0.861065	-0.076215	-0.120163
O17	O	1.194398	0.257119	0.213171
O18	O	1.527731	0.590452	0.546504
O19	O	1.103127	-0.076207	-0.106864
O20	O	1.436460	0.257127	0.226469
O21	O	1.769793	0.590460	0.559803
Cu22	Cu	0.982096	-0.090133	-0.113513
Cu23	Cu	1.315429	0.243200	0.219821
Cu24	Cu	1.648762	0.576533	0.553154
Cu25	Cu	0.982097	0.090193	-0.113522
Cu26	Cu	1.315430	0.423526	0.219811
Cu27	Cu	1.648763	0.756860	0.553145
O28	O	0.975447	-0.076213	-0.234544
O29	O	1.308781	0.257120	0.098789
O30	O	1.642114	0.590454	0.432123
C31	C	0.830090	0.000025	-0.119628
C32	C	1.163424	0.333358	0.213706
C33	C	1.496757	0.666692	0.547039
C34	C	0.737795	0.000022	-0.118012
C35	C	1.071128	0.333355	0.215321
C36	C	1.404462	0.666689	0.548654
C37	C	0.525454	-0.083086	-0.114273
C38	C	0.858787	0.250247	0.219060
C39	C	1.192120	0.583581	0.552394
C40	C	0.438734	-0.083083	-0.112746
C41	C	0.772067	0.250251	0.220587
C42	C	1.105400	0.583584	0.553920
C43	C	0.438745	0.083160	-0.112759
C44	C	0.772078	0.416493	0.220574
C45	C	1.105412	0.749827	0.553907
C46	C	0.525464	0.083156	-0.114280
C47	C	0.858798	0.416489	0.219053
C48	C	1.192131	0.749823	0.552387
C49	C	0.568816	0.000030	-0.115041
C50	C	0.902149	0.333363	0.218292
C51	C	1.235483	0.666697	0.551626
C52	C	0.395377	0.000038	-0.111994
C53	C	0.728710	0.333371	0.221340
C54	C	1.062043	0.666704	0.554673
C55	C	0.301351	0.000042	-0.110338
C56	C	0.634684	0.333375	0.222995
C57	C	0.968017	0.666708	0.556328
C58	C	0.662848	0.000026	-0.116695
C59	C	0.996181	0.333359	0.216638
C60	C	1.329514	0.666692	0.549972
N61	N	0.982101	-0.216965	-0.113505
N62	N	1.315434	0.116368	0.219828
N63	N	1.648767	0.449702	0.553161
C64	C	0.988206	0.000035	0.038488
C65	C	1.321539	0.333368	0.371822
C66	C	1.654872	0.666701	0.705155
C67	C	0.986590	0.000042	0.130784
C68	C	1.319923	0.333375	0.464117
C69	C	1.653256	0.666709	0.797450
C70	C	1.134102	0.000037	-0.107407
C71	C	1.467435	0.333370	0.225927
C72	C	1.800769	0.666703	0.559260
C73	C	1.226397	0.000046	-0.109022
C74	C	1.559731	0.333379	0.224311
C75	C	1.893064	0.666712	0.557645
N76	N	0.982098	0.217025	-0.113523
N77	N	1.315431	0.550358	0.219811
N78	N	1.648765	0.883691	0.553144
C79	C	1.038744	0.452034	-0.057095
C80	C	1.372077	0.785367	0.276238
C81	C	1.705410	1.118701	0.609571
C82	C	1.038746	0.548015	-0.057093
C83	C	1.372079	0.881349	0.276240
C84	C	1.705413	1.214682	0.609573
C85	C	0.925453	0.548019	-0.169938
C86	C	1.258786	0.881352	0.163395
C87	C	1.592119	1.214686	0.496728
C88	C	0.925455	0.452039	-0.169944
C89	C	1.258788	0.785373	0.163390
C90	C	1.592121	1.118706	0.496723
C91	C	0.982099	0.404049	-0.113518
C92	C	1.315433	0.737383	0.219816
C93	C	1.648766	1.070716	0.553149
C94	C	0.982100	0.596010	-0.113510
C95	C	1.315433	0.929344	0.219823
C96	C	1.648766	1.262677	0.553156
C97	C	0.982102	0.700077	-0.113509
C98	C	1.315435	1.033411	0.219825
C99	C	1.648768	1.366744	0.553158
C100	C	0.982098	0.299976	-0.113520
C101	C	1.315432	0.633309	0.219813
C102	C	1.648765	0.966642	0.553147
C103	C	0.982857	0.083159	0.343117
C104	C	1.316190	0.416492	0.676450
C105	C	1.649523	0.749825	1.009783
C106	C	0.981330	0.083159	0.429837
C107	C	1.314664	0.416492	0.763170
C108	C	1.647997	0.749826	1.096503
C109	C	0.981333	-0.083084	0.429842
C110	C	1.314667	0.250249	0.763176
C111	C	1.648000	0.583583	1.096509
C112	C	0.982854	-0.083083	0.343123
C113	C	1.316187	0.250250	0.676456
C114	C	1.649520	0.583583	1.009790
C115	C	0.983619	0.000041	0.299763
C116	C	1.316953	0.333374	0.633096
C117	C	1.650286	0.666707	0.966430
C118	C	0.980573	0.000040	0.473202
C119	C	1.313906	0.333374	0.806536
C120	C	1.647240	0.666707	1.139869
C121	C	0.978918	0.000040	0.567228
C122	C	1.312252	0.333373	0.900562
C123	C	1.645585	0.666707	1.233895
C124	C	0.985273	0.000041	0.205731
C125	C	1.318606	0.333375	0.539064
C126	C	1.651939	0.666708	0.872398
C127	C	0.975987	0.000030	0.734477
C128	C	1.309320	0.333364	1.067810
C129	C	1.642653	0.666697	1.401144
C130	C	0.977603	0.000039	0.642182
C131	C	1.310936	0.333372	0.975515
C132	C	1.644270	0.666706	1.308849
H133	H	0.560771	0.150843	-0.114903
H134	H	0.894104	0.484177	0.218430
H135	H	1.227438	0.817510	0.551764
H136	H	0.983478	0.150844	0.307815
H137	H	1.316811	0.484177	0.641148
H138	H	1.650144	0.817510	0.974482
H139	H	1.084868	0.412963	-0.011151
H140	H	1.418202	0.746296	0.322182
H141	H	1.751535	1.079629	0.655516
H142	H	0.980712	-0.150761	0.465157
H143	H	1.314045	0.182573	0.798490
H144	H	1.647378	0.515906	1.131824
H145	H	0.879333	0.587102	-0.215878
H146	H	1.212666	0.920435	0.117455
H147	H	1.545999	1.253769	0.450788
H148	H	0.879328	0.412968	-0.215893
H149	H	1.212661	0.746301	0.117440
H150	H	1.545994	1.079634	0.450773
H151	H	0.403432	-0.150764	-0.112121
H152	H	0.736765	0.182569	0.221212
H153	H	1.070099	0.515902	0.554546
H154	H	0.980708	0.150842	0.465131
H155	H	1.314041	0.484175	0.798464
H156	H	1.647374	0.817509	1.131798
H157	H	1.084872	0.587082	-0.011151
H158	H	1.418205	0.920415	0.322183
H159	H	1.751539	1.253748	0.655516
H160	H	0.560748	-0.150772	-0.114893
H161	H	0.894081	0.182561	0.218441
H162	H	1.227414	0.515894	0.551774
H163	H	0.983470	-0.150772	0.307823
H164	H	1.316803	0.182561	0.641156
H165	H	1.650137	0.515895	0.974490
H166	H	0.403438	0.150838	-0.112140
H167	H	0.736771	0.484172	0.221193
H168	H	1.070104	0.817505	0.554526
