data_functionalizedCrystal
_audit_creation_method	'MofGen! by Chris Wilmer'
_symmetry_space_group_name_H-M	'P1'
_symmetry_Int_Tables_number	1
_symmetry_cell_setting	triclinic
loop_
_symmetry_equiv_pos_as_xyz
  x,y,z
_cell_length_a	10.686220
_cell_length_b	10.685194
_cell_length_c	10.686551
_cell_angle_alpha	98.415440
_cell_angle_beta	89.692081
_cell_angle_gamma	99.069920
loop_
_atom_site_label
_atom_site_type_symbol
_atom_site_fract_x
_atom_site_fract_y
_atom_site_fract_z
Zn1	Zn	1.946782	-0.311304	0.540468
Zn2	Zn	2.446782	0.188696	1.040468
Zn3	Zn	1.911616	-0.542425	0.314432
Zn4	Zn	2.411616	-0.042425	0.814432
Zn5	Zn	1.718224	-0.343970	0.344484
Zn6	Zn	2.218224	0.156030	0.844484
Zn7	Zn	1.718258	-0.539838	0.540391
Zn8	Zn	2.218258	-0.039838	1.040391
O9	O	1.823720	-0.434384	0.434944
O10	O	2.323720	0.065616	0.934944
O11	O	2.118691	-0.329375	0.497939
O12	O	2.618691	0.170625	0.997939
O13	O	1.871231	-0.530853	0.141834
O14	O	2.371231	-0.030853	0.641834
O15	O	1.763245	-0.160940	0.383091
O16	O	2.263245	0.339060	0.883091
O17	O	2.092854	-0.499178	0.331871
O18	O	2.592854	0.000822	0.831871
O19	O	1.931166	-0.136941	0.527079
O20	O	2.431166	0.363059	1.027079
O21	O	1.729147	-0.385049	0.163913
O22	O	2.229147	0.114951	0.663913
O23	O	1.541655	-0.382540	0.383016
O24	O	2.041655	0.117460	0.883016
O25	O	1.763304	-0.494769	0.716986
O26	O	2.263304	0.005231	1.216986
O27	O	1.541681	-0.526443	0.526948
O28	O	2.041681	-0.026443	1.026948
O29	O	1.931199	-0.326866	0.717042
O30	O	2.431199	0.173134	1.217042
O31	O	1.871265	-0.720778	0.331797
O32	O	2.371265	-0.220778	0.831797
O33	O	1.729205	-0.718877	0.497808
O34	O	2.229205	-0.218877	0.997808
C35	C	1.495884	-0.457757	0.458236
C36	C	1.995884	0.042243	0.958236
C37	C	1.355635	-0.467784	0.468228
C38	C	1.855635	0.032216	0.968228
C39	C	1.796459	-0.766156	0.411558
C40	C	2.296459	-0.266156	0.911558
C41	C	1.784916	-0.908078	0.401588
C42	C	2.284916	-0.408078	0.901588
C43	C	2.152836	-0.410921	0.411561
C44	C	2.652836	0.089079	0.911561
C45	C	2.293086	-0.400922	0.401597
C46	C	2.793086	0.099078	0.901597
C47	C	1.851178	-0.406885	0.764081
C48	C	2.351178	0.093115	1.264081
C49	C	1.862879	-0.395166	0.904339
C50	C	2.362879	0.104834	1.404339
C51	C	1.851124	-0.101311	0.458446
C52	C	2.351124	0.398689	0.958446
C53	C	1.862802	0.040625	0.468461
C54	C	2.362802	0.540625	0.968461
C55	C	1.796449	-0.461679	0.107089
C56	C	2.296449	0.038321	0.607089
C57	C	1.785022	-0.473020	-0.033161
C58	C	2.285022	0.026980	0.466839
H59	H	1.301890	-0.532699	0.532916
H60	H	1.801890	-0.032699	1.032916
H61	H	1.709386	-0.972743	0.336709
H62	H	2.209386	-0.472743	0.836709
C63	C	1.964817	-0.872042	0.556126
C64	C	2.464817	-0.372042	1.056126
H65	H	2.012122	-0.923252	0.596753
H66	H	2.512122	-0.423252	1.096753
H67	H	2.020002	-0.820090	0.507619
H68	H	2.520002	-0.320090	1.007619
H69	H	1.925250	-0.818911	0.618115
H70	H	2.425250	-0.318911	1.118115
H71	H	1.709418	-0.548642	0.913044
H72	H	2.209418	-0.048642	1.413044
H73	H	1.346835	-0.336011	0.336896
H74	H	1.846835	0.163989	0.836896
C75	C	1.965032	-0.293010	0.977007
C76	C	2.465032	0.206990	1.477007
H77	H	1.959761	-0.298265	1.064906
H78	H	2.459761	0.201735	1.564906
H79	H	2.046495	-0.307435	0.948120
H80	H	2.546495	0.192565	1.448120
H81	H	1.951844	-0.210300	0.962839
H82	H	2.451844	0.289700	1.462839
