data_functionalizedCrystal
_audit_creation_method	'MofGen! by Chris Wilmer'
_symmetry_space_group_name_H-M	'P1'
_symmetry_Int_Tables_number	1
_symmetry_cell_setting	triclinic
loop_
_symmetry_equiv_pos_as_xyz
  x,y,z
_cell_length_a	12.594517
_cell_length_b	18.050589
_cell_length_c	12.594517
_cell_angle_alpha	89.983934
_cell_angle_beta	90.010336
_cell_angle_gamma	89.964653
loop_
_atom_site_label
_atom_site_type_symbol
_atom_site_fract_x
_atom_site_fract_y
_atom_site_fract_z
Zn1	Zn	1.626995	0.295753	0.601869
Zn2	Zn	2.126995	0.795753	1.101869
Zn3	Zn	1.626861	0.419926	0.423884
Zn4	Zn	2.126861	0.919926	0.923884
Zn5	Zn	1.449036	0.295753	0.423895
Zn6	Zn	1.949036	0.795753	0.923895
Zn7	Zn	1.448920	0.419904	0.601811
Zn8	Zn	1.948920	0.919904	1.101811
O9	O	1.537953	0.357834	0.512865
O10	O	2.037953	0.857834	1.012865
O11	O	1.775923	0.312234	0.578279
O12	O	2.275923	0.812234	1.078279
O13	O	1.603265	0.403463	0.274940
O14	O	2.103265	0.903463	0.774940
O15	O	1.472747	0.191828	0.447533
O16	O	1.972747	0.691828	0.947533
O17	O	1.775825	0.403463	0.447514
O18	O	2.275825	0.903463	0.947514
O19	O	1.603493	0.191828	0.578290
O20	O	2.103493	0.691828	1.078290
O21	O	1.472618	0.312234	0.274948
O22	O	1.972618	0.812234	0.774948
O23	O	1.300075	0.312213	0.447477
O24	O	1.800075	0.812213	0.947477
O25	O	1.472549	0.403426	0.750765
O26	O	1.972549	0.903426	1.250765
O27	O	1.299989	0.403426	0.578191
O28	O	1.799989	0.903426	1.078191
O29	O	1.603380	0.312213	0.750807
O30	O	2.103380	0.812213	1.250807
O31	O	1.603152	0.523848	0.447458
O32	O	2.103152	1.023848	0.947458
O33	O	1.472419	0.523832	0.578180
O34	O	1.972419	1.023832	1.078180
C35	C	1.261412	0.357818	0.512830
C36	C	1.761412	0.857818	1.012830
C37	C	1.143107	0.357829	0.512840
C38	C	1.643107	0.857829	1.012840
C39	C	1.003106	0.308163	0.441907
C40	C	1.503106	0.808163	0.941907
C41	C	1.073953	0.290086	0.539034
C42	C	1.573953	0.790086	1.039034
C43	C	1.073831	0.375873	0.415723
C44	C	1.573831	0.875873	0.915723
C45	C	1.003169	0.339745	0.610096
C46	C	1.503169	0.839745	1.110096
C47	C	1.003040	0.425564	0.486720
C48	C	1.503040	0.925564	0.986720
C49	C	1.073856	0.407512	0.583914
C50	C	1.573856	0.907512	1.083914
C51	C	1.537787	0.550786	0.512835
C52	C	2.037787	1.050786	1.012835
C53	C	1.537814	0.633332	0.512857
C54	C	2.037814	1.133332	1.012857
C55	C	1.466794	0.882176	0.583947
C56	C	1.966794	1.382176	1.083947
C57	C	1.563851	0.832709	0.610067
C58	C	2.063851	1.332709	1.110067
C59	C	1.537988	0.930452	0.512919
C60	C	2.037988	1.430452	1.012919
C61	C	1.440850	0.832837	0.486818
C62	C	1.940850	1.332837	0.986818
C63	C	1.537897	0.784467	0.512891
C64	C	2.037897	1.284467	1.012891
C65	C	1.635097	0.882073	0.539090
C66	C	2.135097	1.382073	1.039090
C67	C	1.512031	0.882205	0.415796
C68	C	2.012031	1.382205	0.915796
C69	C	1.609155	0.832761	0.441880
C70	C	2.109155	1.332761	0.941880
C71	C	1.538038	1.014551	0.512938
C72	C	2.038038	1.514551	1.012938
C73	C	1.537857	0.700371	0.512873
C74	C	2.037857	1.200371	1.012873
C75	C	1.815574	0.357851	0.512902
C76	C	2.315574	0.857851	1.012902
C77	C	1.933879	0.357858	0.512917
C78	C	2.433879	0.857858	1.012917
C79	C	1.537967	0.357817	0.790486
C80	C	2.037967	0.857817	1.290486
C81	C	1.537973	0.357810	0.908791
C82	C	2.037973	0.857810	1.408791
C83	C	1.538108	1.164128	0.512921
C84	C	2.038108	1.664128	1.012921
C85	C	1.538073	1.081583	0.512950
C86	C	2.038073	1.581583	1.012950
C87	C	1.609124	0.308218	1.048831
C88	C	2.109124	0.808218	1.548831
C89	C	1.635095	0.375966	0.978007
C90	C	2.135095	0.875966	1.478007
C91	C	1.512050	0.290070	0.978044
C92	C	2.012050	0.790070	1.478044
C93	C	1.563989	0.425622	1.048753
C94	C	2.063989	0.925622	1.548753
C95	C	1.440899	0.339680	1.048796
C96	C	1.940899	0.839680	1.548796
C97	C	1.466832	0.407475	0.978004
C98	C	1.966832	0.907475	1.478004
C99	C	1.537942	0.357858	1.236324
C100	C	2.037942	0.857858	1.736324
C101	C	1.537968	0.357838	1.118019
C102	C	2.037968	0.857838	1.618019
H103	H	1.104873	0.391122	0.333560
H104	H	1.604873	0.891122	0.833560
H105	H	1.585774	0.810970	0.692191
H106	H	2.085774	1.310970	1.192191
H107	H	1.490127	0.232771	0.946980
H108	H	1.990127	0.732771	1.446980
H109	H	1.717230	0.903612	0.561250
H110	H	2.217230	1.403612	1.061250
H111	H	1.669392	0.811202	0.381802
H112	H	2.169392	1.311202	0.881802
H113	H	0.972043	0.266119	0.381963
H114	H	1.472043	0.766119	0.881963
H115	H	1.717186	0.391315	0.946910
H116	H	2.217186	0.891315	1.446910
H117	H	0.971870	0.482818	0.464560
H118	H	1.471870	0.982818	0.964560
H119	H	1.406700	0.903870	0.644070
H120	H	1.906700	1.403870	1.144070
H121	H	1.490079	0.903961	0.333696
H122	H	1.990079	1.403961	0.833696
H123	H	0.972258	0.324429	0.692283
H124	H	1.472258	0.824429	1.192283
H125	H	1.358741	0.811206	0.464754
H126	H	1.858741	1.311206	0.964754
H127	H	1.105082	0.232813	0.561178
H128	H	1.605082	0.732813	1.061178
H129	H	1.669343	0.266320	1.079928
H130	H	2.169343	0.766320	1.579928
H131	H	1.586031	0.482933	1.079684
H132	H	2.086031	0.982933	1.579684
H133	H	1.406659	0.449473	0.947102
H134	H	1.906659	0.949473	1.447102
H135	H	1.104723	0.449525	0.644001
H136	H	1.604723	0.949525	1.144001
H137	H	1.358831	0.324309	1.079915
H138	H	1.858831	0.824309	1.579915
