data_functionalizedCrystal
_audit_creation_method	'MofGen! by Chris Wilmer'
_symmetry_space_group_name_H-M	'P1'
_symmetry_Int_Tables_number	1
_symmetry_cell_setting	triclinic
loop_
_symmetry_equiv_pos_as_xyz
  x,y,z
_cell_length_a	19.188930
_cell_length_b	19.188930
_cell_length_c	18.266242
_cell_angle_alpha	89.979776
_cell_angle_beta	90.006796
_cell_angle_gamma	96.855221
loop_
_atom_site_label
_atom_site_type_symbol
_atom_site_fract_x
_atom_site_fract_y
_atom_site_fract_z
O1	O	0.087164	-0.926147	0.061124
O2	O	0.587164	-0.426147	0.561124
O3	O	0.098898	-0.722836	0.061075
O4	O	0.598898	-0.222836	0.561075
O5	O	-0.008624	-0.830359	0.061087
O6	O	0.491376	-0.330359	0.561087
O7	O	0.194687	-0.818624	0.061113
O8	O	0.694687	-0.318624	0.561113
O9	O	-0.008621	-0.830345	-0.060675
O10	O	0.491379	-0.330345	0.439325
O11	O	0.098902	-0.722822	-0.060687
O12	O	0.598902	-0.222822	0.439313
O13	O	0.087168	-0.926133	-0.060638
O14	O	0.587168	-0.426133	0.439362
Zn15	Zn	0.093035	-0.824475	-0.079994
Zn16	Zn	0.593035	-0.324475	0.420006
Zn17	Zn	0.093031	-0.824494	0.080432
Zn18	Zn	0.593031	-0.324494	0.580432
O19	O	0.194690	-0.818611	-0.060649
O20	O	0.694690	-0.318611	0.439351
C21	C	-0.034634	-0.829972	0.000204
C22	C	0.465366	-0.329972	0.500204
C23	C	-0.112138	-0.828831	0.000197
C24	C	0.387862	-0.328831	0.500197
C25	C	0.098520	-0.696818	0.000188
C26	C	0.598520	-0.196818	0.500188
C27	C	0.097380	-0.619313	0.000169
C28	C	0.597380	-0.119313	0.500169
C29	C	0.087546	-0.952151	0.000252
C30	C	0.587546	-0.452151	0.500252
C31	C	0.088687	-1.029656	0.000276
C32	C	0.588687	-0.529656	0.500276
C33	C	-0.157062	-0.891922	0.000209
C34	C	0.342938	-0.391922	0.500209
C35	C	-0.229886	-0.890850	0.000220
C36	C	0.270114	-0.390850	0.500220
C37	C	-0.257782	-0.826684	0.000206
C38	C	0.242218	-0.326684	0.500206
C39	C	-0.212849	-0.763585	0.000198
C40	C	0.287151	-0.263585	0.500198
C41	C	-0.140026	-0.764658	0.000194
C42	C	0.359974	-0.264658	0.500194
N43	N	-0.365786	-0.777632	-0.041244
N44	N	0.134214	-0.277632	0.458756
N45	N	-0.434965	-0.776617	-0.041242
N46	N	0.065035	-0.276617	0.458758
C47	C	-0.477191	-0.823446	0.000220
C48	C	0.022809	-0.323446	0.500220
N49	N	-0.447627	-0.871340	0.041669
N50	N	0.052373	-0.371340	0.541669
N51	N	-0.378442	-0.872357	0.041664
N52	N	0.121558	-0.372357	0.541664
C53	C	-0.336745	-0.825513	0.000210
C54	C	0.163255	-0.325513	0.500210
C55	C	-0.601079	-0.885379	0.000245
C56	C	-0.101079	-0.385379	0.500245
C57	C	-0.673904	-0.884305	0.000261
C58	C	-0.173904	-0.384305	0.500261
C59	C	-0.656865	-0.757038	0.000231
C60	C	-0.156865	-0.257038	0.500231
C61	C	-0.584042	-0.758114	0.000222
C62	C	-0.084042	-0.258114	0.500222
C63	C	-0.556154	-0.822286	0.000226
C64	C	-0.056154	-0.322286	0.500226
C65	C	0.220700	-0.818997	0.000236
C66	C	0.720700	-0.318997	0.500236
C67	C	0.298204	-0.820138	0.000247
C68	C	0.798204	-0.320138	0.500247
N69	N	0.093038	-0.824468	-0.189481
N70	N	0.593038	-0.324468	0.310519
C71	C	0.160470	-0.574389	0.000188
C72	C	0.660470	-0.074389	0.500188
C73	C	0.159399	-0.501566	0.000196
C74	C	0.659399	-0.001566	0.500196
C75	C	0.095233	-0.473669	0.000199
C76	C	0.595233	0.026331	0.500199
C77	C	0.032133	-0.518603	0.000175
C78	C	0.532133	-0.018603	0.500175
C79	C	0.033207	-0.591425	0.000160
C80	C	0.533207	-0.091425	0.500160
N81	N	0.046184	-0.365694	0.041663
N82	N	0.546184	0.134306	0.541663
N83	N	0.045169	-0.296515	0.041679
N84	N	0.545169	0.203485	0.541679
C85	C	0.091994	-0.254260	0.000243
C86	C	0.591994	0.245740	0.500243
N87	N	0.139884	-0.283796	-0.041200
N88	N	0.639884	0.216204	0.458800
N89	N	0.140902	-0.352981	-0.041213
N90	N	0.640902	0.147019	0.458787
C91	C	0.094062	-0.394707	0.000215
C92	C	0.594062	0.105293	0.500215
C93	C	0.153928	-0.130372	0.000270
C94	C	0.653928	0.369628	0.500270
C95	C	0.152853	-0.057547	0.000274
C96	C	0.652853	0.442453	0.500274
C97	C	0.025586	-0.074586	0.000261
C98	C	0.525586	0.425414	0.500261
C99	C	0.026662	-0.147409	0.000250
C100	C	0.526662	0.352591	0.500250
C101	C	0.090835	-0.175298	0.000258
C102	C	0.590835	0.324702	0.500258
C103	C	0.135258	-0.866721	-0.771741
C104	C	0.635258	-0.366721	-0.271741
C105	C	0.135265	-0.866713	-0.695096
C106	C	0.635265	-0.366713	-0.195096
C107	C	0.093024	-0.824500	-0.656794
C108	C	0.593024	-0.324500	-0.156794
C109	C	0.050785	-0.782277	-0.695143
C110	C	0.550785	-0.282277	-0.195143
C111	C	0.050785	-0.782281	-0.771786
C112	C	0.550785	-0.282281	-0.271786
N113	N	0.031863	-0.822809	-0.536465
N114	N	0.531863	-0.322809	-0.036465
N115	N	0.031866	-0.822810	-0.463657
N116	N	0.531866	-0.322810	0.036343
C117	C	0.093024	-0.824487	-0.425872
C118	C	0.593024	-0.324487	0.074128
N119	N	0.154180	-0.826176	-0.463645
N120	N	0.654180	-0.326176	0.036355
N121	N	0.154177	-0.826179	-0.536460
N122	N	0.654177	-0.326179	-0.036460
C123	C	0.093020	-0.824492	-0.573687
C124	C	0.593020	-0.324492	-0.073687
C125	C	0.135271	-0.866695	-0.304425
C126	C	0.635271	-0.366695	0.195575
C127	C	0.135279	-0.866683	-0.227779
C128	C	0.635279	-0.366683	0.272221
C129	C	0.050793	-0.782251	-0.227826
C130	C	0.550793	-0.282251	0.272174
C131	C	0.050791	-0.782259	-0.304471
C132	C	0.550791	-0.282259	0.195529
C133	C	0.093029	-0.824485	-0.342766
C134	C	0.593029	-0.324485	0.157234
N135	N	0.093023	-0.824506	0.189919
N136	N	0.593023	-0.324506	0.689919
H137	H	-0.134360	-0.944176	0.000214
H138	H	0.365640	-0.444176	0.500214
H139	H	0.016395	-0.747887	-0.335687
H140	H	0.516395	-0.247887	0.164313
Cl141	Cl	-0.691928	-0.676371	0.000216
Cl142	Cl	-0.191928	-0.176371	0.500216
H143	H	-0.547464	-0.706738	0.000208
H144	H	-0.047464	-0.206738	0.500208
H145	H	-0.266470	-0.942228	0.000233
H146	H	0.233530	-0.442228	0.500233
H147	H	0.212725	-0.597091	0.000196
H148	H	0.712725	-0.097091	0.500196
H149	H	0.169653	-0.901103	-0.802916
H150	H	0.669653	-0.401103	-0.302916
Cl151	Cl	-0.730382	-0.963627	0.000280
Cl152	Cl	-0.230382	-0.463627	0.500280
Cl153	Cl	-0.247918	-0.682919	0.000185
Cl154	Cl	0.252082	-0.182919	0.500185
H155	H	0.169662	-0.901088	-0.663874
H156	H	0.669662	-0.401088	-0.163874
H157	H	-0.103449	-0.713281	0.000184
H158	H	0.396551	-0.213281	0.500184
H159	H	0.016394	-0.747906	-0.663952
H160	H	0.516394	-0.247906	-0.163952
H161	H	0.210776	-0.464982	0.000210
H162	H	0.710776	0.035018	0.500210
Cl163	Cl	-0.002316	-0.729207	-0.819987
Cl164	Cl	0.497684	-0.229207	-0.319987
Cl165	Cl	0.188371	-0.919775	-0.352570
Cl166	Cl	0.688371	-0.419775	0.147430
H167	H	-0.020111	-0.495885	0.000188
H168	H	0.479889	0.004115	0.500188
Cl169	Cl	-0.046114	-0.647904	0.000136
Cl170	Cl	0.453886	-0.147904	0.500136
H171	H	0.169677	-0.901057	-0.196564
H172	H	0.669677	-0.401057	0.303436
Cl173	Cl	-0.002306	-0.729176	-0.179682
Cl174	Cl	0.497694	-0.229176	0.320318
Cl175	Cl	-0.052657	-0.203888	0.000230
Cl176	Cl	0.447343	0.296112	0.500230
H177	H	0.206181	-0.153080	0.000267
H178	H	0.706181	0.346920	0.500267
H179	H	-0.026659	-0.051874	0.000309
H180	H	0.473341	0.448126	0.500309
Cl181	Cl	-0.566016	-0.966051	0.000245
Cl182	Cl	-0.066016	-0.466051	0.500245
H183	H	0.204232	-0.020970	0.000285
H184	H	0.704232	0.479030	0.500285
