data_functionalizedCrystal
_audit_creation_method	'MofGen! by Chris Wilmer'
_symmetry_space_group_name_H-M	'P1'
_symmetry_Int_Tables_number	1
_symmetry_cell_setting	triclinic
loop_
_symmetry_equiv_pos_as_xyz
  x,y,z
_cell_length_a	16.109301
_cell_length_b	15.944493
_cell_length_c	14.586319
_cell_angle_alpha	90.002083
_cell_angle_beta	89.998857
_cell_angle_gamma	83.468314
loop_
_atom_site_label
_atom_site_type_symbol
_atom_site_fract_x
_atom_site_fract_y
_atom_site_fract_z
O1	O	1.103143	0.107970	-0.076178
O2	O	1.436477	0.441304	0.257155
O3	O	1.769810	0.774637	0.590489
O4	O	0.861083	0.121407	-0.076189
O5	O	1.194416	0.454740	0.257144
O6	O	1.527750	0.788073	0.590477
O7	O	0.988748	-0.007592	-0.076191
O8	O	1.322082	0.325741	0.257142
O9	O	1.655415	0.659075	0.590476
O10	O	0.975478	0.236969	-0.076176
O11	O	1.308811	0.570302	0.257157
O12	O	1.642145	0.903635	0.590490
O13	O	0.988740	-0.007594	0.076290
O14	O	1.322073	0.325740	0.409623
O15	O	1.655406	0.659073	0.742957
O16	O	0.861074	0.121405	0.076292
O17	O	1.194408	0.454738	0.409625
O18	O	1.527741	0.788071	0.742958
O19	O	1.103135	0.107968	0.076303
O20	O	1.436468	0.441302	0.409636
O21	O	1.769801	0.774635	0.742970
Cu22	Cu	0.982104	0.114686	0.090220
Cu23	Cu	1.315437	0.448020	0.423553
Cu24	Cu	1.648770	0.781353	0.756887
Cu25	Cu	0.982114	0.114689	-0.090106
Cu26	Cu	1.315447	0.448022	0.243227
Cu27	Cu	1.648781	0.781355	0.576560
O28	O	0.975469	0.236967	0.076305
O29	O	1.308802	0.570300	0.409638
O30	O	1.642136	0.903634	0.742971
C31	C	0.830104	0.120861	0.000049
C32	C	1.163437	0.454195	0.333383
C33	C	1.496770	0.787528	0.666716
C34	C	0.737808	0.119229	0.000045
C35	C	1.071141	0.452563	0.333378
C36	C	1.404475	0.785896	0.666711
C37	C	0.428818	0.190440	0.000065
C38	C	0.762152	0.523773	0.333398
C39	C	1.095485	0.857107	0.666731
C40	C	0.515539	0.191981	0.000060
C41	C	0.848872	0.525315	0.333393
C42	C	1.182205	0.858648	0.666726
C43	C	0.535394	0.038929	0.000038
C44	C	0.868727	0.372262	0.333371
C45	C	1.202061	0.705595	0.666705
C46	C	0.448675	0.037389	0.000037
C47	C	0.782008	0.370722	0.333370
C48	C	1.115342	0.704055	0.666703
C49	C	0.395389	0.113147	0.000055
C50	C	0.728722	0.446480	0.333388
C51	C	1.062056	0.779813	0.666721
C52	C	0.568828	0.116228	0.000051
C53	C	0.902162	0.449561	0.333384
C54	C	1.235495	0.782895	0.666718
C55	C	0.662855	0.117899	0.000045
C56	C	0.996188	0.451232	0.333379
C57	C	1.329521	0.784565	0.666712
C58	C	0.301357	0.111477	0.000059
C59	C	0.634690	0.444810	0.333392
C60	C	0.968024	0.778143	0.666725
C61	C	0.988202	-0.038887	0.000046
C62	C	1.321535	0.294446	0.333379
C63	C	1.654868	0.627779	0.666712
C64	C	0.986576	-0.132136	0.000034
C65	C	1.319909	0.201198	0.333367
C66	C	1.653242	0.534531	0.666701
C67	C	1.061722	-0.367920	0.000055
C68	C	1.395056	-0.034587	0.333388
C69	C	1.728389	0.298746	0.666721
C70	C	1.021203	-0.418474	-0.075128
C71	C	1.354536	-0.085141	0.258206
C72	C	1.687869	0.248193	0.591539
C73	C	0.983562	-0.302856	0.000045
C74	C	1.316896	0.030478	0.333378
C75	C	1.650229	0.363811	0.666712
C76	C	1.021176	-0.418452	0.075206
C77	C	1.354509	-0.085119	0.408540
C78	C	1.687843	0.248215	0.741873
C79	C	0.980658	-0.467764	0.000060
C80	C	1.313991	-0.134431	0.333393
C81	C	1.647325	0.198902	0.666726
C82	C	0.943064	-0.352181	-0.075200
C83	C	1.276397	-0.018848	0.258134
C84	C	1.609731	0.314486	0.591467
C85	C	0.943049	-0.352156	0.075202
C86	C	1.276382	-0.018822	0.408535
C87	C	1.609715	0.314511	0.741869
C88	C	0.902472	-0.402677	0.000001
C89	C	1.235805	-0.069343	0.333335
C90	C	1.569138	0.263990	0.666668
C91	C	0.985238	-0.207856	0.000036
C92	C	1.318571	0.125477	0.333369
C93	C	1.651905	0.458810	0.666702
C94	C	0.978976	-0.562761	0.000062
C95	C	1.312310	-0.229427	0.333396
C96	C	1.645643	0.103906	0.666729
C97	C	1.134114	0.108514	0.000062
C98	C	1.467447	0.441847	0.333396
C99	C	1.800781	0.775180	0.666729
C100	C	1.226409	0.110145	0.000061
C101	C	1.559743	0.443479	0.333394
C102	C	1.893076	0.776812	0.666728
C103	C	0.976016	0.268262	0.000066
C104	C	1.309349	0.601596	0.333399
C105	C	1.642683	0.934929	0.666733
C106	C	0.977642	0.361510	0.000072
C107	C	1.310975	0.694844	0.333405
C108	C	1.644309	1.028177	0.666738
N109	N	0.982102	0.114684	0.217052
N110	N	1.315436	0.448018	0.550385
N111	N	1.648769	0.781351	0.883718
N112	N	0.982122	0.114684	-0.216938
N113	N	1.315455	0.448017	0.116395
N114	N	1.648789	0.781351	0.449729
C115	C	1.038651	0.057583	0.452057
C116	C	1.371984	0.390916	0.785391
C117	C	1.705318	0.724249	1.118724
C118	C	1.038654	0.057581	0.548039
C119	C	1.371987	0.390914	0.881372
C120	C	1.705320	0.724247	1.214705
C121	C	0.925567	0.171788	0.548050
C122	C	1.258900	0.505122	0.881383
C123	C	1.592234	0.838455	1.214716
C124	C	0.925561	0.171786	0.452070
C125	C	1.258895	0.505119	0.785403
C126	C	1.592228	0.838452	1.118737
C127	C	0.982108	0.114684	0.404076
C128	C	1.315441	0.448017	0.737410
C129	C	1.648775	0.781351	1.070743
C130	C	0.982116	0.114684	0.596037
C131	C	1.315449	0.448018	0.929371
C132	C	1.648783	0.781351	1.262704
C133	C	0.982118	0.114683	0.700104
C134	C	1.315452	0.448016	1.033438
C135	C	1.648785	0.781349	1.366771
C136	C	0.982105	0.114684	0.300003
C137	C	1.315438	0.448018	0.633336
C138	C	1.648772	0.781351	0.966669
H139	H	0.578790	-0.022751	0.000026
H140	H	0.912123	0.310583	0.333359
H141	H	1.245456	0.643916	0.666692
Cl142	Cl	0.854469	0.243571	0.391745
Cl143	Cl	1.187802	0.576905	0.725078
Cl144	Cl	1.521136	0.910238	1.058412
H145	H	0.385435	0.252128	0.000079
H146	H	0.718768	0.585461	0.333412
H147	H	1.052101	0.918794	0.666745
Cl148	Cl	0.557560	0.289155	0.000068
Cl149	Cl	0.890893	0.622488	0.333402
Cl150	Cl	1.224226	0.955821	0.666735
H151	H	0.421458	-0.025557	0.000026
H152	H	0.754791	0.307777	0.333359
H153	H	1.088124	0.641110	0.666692
H154	H	1.084695	0.011083	0.587102
H155	H	1.418028	0.344416	0.920435
H156	H	1.751362	0.677750	1.253769
H157	H	0.879529	0.218280	0.587136
H158	H	1.212862	0.551614	0.920469
H159	H	1.546196	0.884947	1.253802
H160	H	1.054214	-0.447430	-0.138687
H161	H	1.387548	-0.114096	0.194647
H162	H	1.720881	0.219237	0.527980
Cl163	Cl	0.892141	-0.307674	-0.173441
Cl164	Cl	1.225474	0.025660	0.159892
Cl165	Cl	1.558807	0.358993	0.493225
Cl166	Cl	0.798449	-0.426526	-0.000064
Cl167	Cl	1.131782	-0.093192	0.333270
Cl168	Cl	1.465115	0.240141	0.666603
Cl169	Cl	1.165664	-0.343821	-0.000053
Cl170	Cl	1.498997	-0.010488	0.333280
Cl171	Cl	1.832331	0.322846	0.666614
H172	H	0.910065	-0.323185	0.138763
H173	H	1.243399	0.010148	0.472097
H174	H	1.576732	0.343482	0.805430
Cl175	Cl	1.072154	-0.463135	0.173335
Cl176	Cl	1.405487	-0.129802	0.506668
Cl177	Cl	1.738821	0.203532	0.840002
Cl178	Cl	1.109735	-0.014205	0.391727
Cl179	Cl	1.443069	0.319128	0.725060
Cl180	Cl	1.776402	0.652461	1.058393
