data_functionalizedCrystal
_audit_creation_method	'MofGen! by Chris Wilmer'
_symmetry_space_group_name_H-M	'P1'
_symmetry_Int_Tables_number	1
_symmetry_cell_setting	triclinic
loop_
_symmetry_equiv_pos_as_xyz
  x,y,z
_cell_length_a	27.732048
_cell_length_b	19.288865
_cell_length_c	18.366186
_cell_angle_alpha	90.011479
_cell_angle_beta	90.003554
_cell_angle_gamma	82.889452
loop_
_atom_site_label
_atom_site_type_symbol
_atom_site_fract_x
_atom_site_fract_y
_atom_site_fract_z
O1	O	-0.641180	-0.082649	-0.060464
O2	O	-0.391180	0.167351	0.189536
O3	O	-0.141180	0.417351	0.439536
O4	O	0.108820	0.667351	0.689536
O5	O	-0.500424	-0.095216	-0.060487
O6	O	-0.250424	0.154784	0.189513
O7	O	-0.000424	0.404784	0.439513
O8	O	0.249576	0.654784	0.689513
O9	O	-0.574869	0.012223	-0.060461
O10	O	-0.324869	0.262223	0.189539
O11	O	-0.074869	0.512223	0.439539
O12	O	0.175131	0.762223	0.689539
O13	O	-0.566735	-0.190088	-0.060491
O14	O	-0.316735	0.059912	0.189509
O15	O	-0.066735	0.309912	0.439509
O16	O	0.183265	0.559912	0.689509
O17	O	-0.574857	0.012228	0.060639
O18	O	-0.324857	0.262228	0.310639
O19	O	-0.074857	0.512228	0.560639
O20	O	0.175143	0.762228	0.810639
O21	O	-0.500412	-0.095211	0.060612
O22	O	-0.250412	0.154789	0.310612
O23	O	-0.000412	0.404789	0.560612
O24	O	0.249588	0.654789	0.810612
O25	O	-0.641167	-0.082644	0.060635
O26	O	-0.391167	0.167356	0.310635
O27	O	-0.141167	0.417356	0.560635
O28	O	0.108833	0.667356	0.810635
Zn29	Zn	-0.570788	-0.088927	0.079851
Zn30	Zn	-0.320788	0.161073	0.329851
Zn31	Zn	-0.070788	0.411073	0.579851
Zn32	Zn	0.179212	0.661073	0.829851
Zn33	Zn	-0.570804	-0.088933	-0.079703
Zn34	Zn	-0.320804	0.161067	0.170297
Zn35	Zn	-0.070804	0.411067	0.420297
Zn36	Zn	0.179196	0.661067	0.670297
O37	O	-0.566722	-0.190083	0.060609
O38	O	-0.316722	0.059917	0.310609
O39	O	-0.066722	0.309917	0.560609
O40	O	0.183278	0.559917	0.810609
C41	C	-0.482410	-0.094950	0.000060
C42	C	-0.232410	0.155050	0.250060
C43	C	0.017590	0.405050	0.500060
C44	C	0.267590	0.655050	0.750060
C45	C	-0.428753	-0.094155	0.000052
C46	C	-0.178753	0.155845	0.250052
C47	C	0.071247	0.405845	0.500052
C48	C	0.321247	0.655845	0.750052
C49	C	-0.659181	-0.082910	0.000087
C50	C	-0.409181	0.167090	0.250087
C51	C	-0.159181	0.417090	0.500087
C52	C	0.090819	0.667090	0.750087
C53	C	-0.712839	-0.083705	0.000090
C54	C	-0.462839	0.166295	0.250090
C55	C	-0.212839	0.416295	0.500090
C56	C	0.037161	0.666295	0.750090
C57	C	-0.574601	0.038100	0.000091
C58	C	-0.324601	0.288100	0.250091
C59	C	-0.074601	0.538100	0.500091
C60	C	0.175399	0.788100	0.750091
C61	C	-0.573816	0.115199	0.000098
C62	C	-0.323816	0.365199	0.250098
C63	C	-0.073816	0.615199	0.500098
C64	C	0.176184	0.865199	0.750098
C65	C	-0.090115	-0.152644	0.000074
C66	C	0.159885	0.097356	0.250074
C67	C	0.409885	0.347356	0.500074
C68	C	0.659885	0.597356	0.750074
C69	C	0.111554	-0.149697	0.000081
C70	C	0.361554	0.100303	0.250081
C71	C	0.611554	0.350303	0.500081
C72	C	0.861554	0.600303	0.750081
O73	O	0.142648	-0.203181	0.000105
O74	O	0.392648	0.046819	0.250105
O75	O	0.642648	0.296819	0.500105
O76	O	0.892648	0.546819	0.750105
N77	N	0.130870	-0.085990	0.000089
N78	N	0.380870	0.164010	0.250089
N79	N	0.630870	0.414010	0.500089
N80	N	0.880870	0.664010	0.750089
C81	C	0.099766	-0.023015	0.000101
C82	C	0.349766	0.226985	0.250101
C83	C	0.599766	0.476985	0.500101
C84	C	0.849766	0.726985	0.750101
O85	O	0.120823	0.031239	0.000115
O86	O	0.370823	0.281239	0.250115
O87	O	0.620823	0.531239	0.500115
O88	O	0.870823	0.781239	0.750115
C89	C	-0.101902	-0.025963	0.000099
C90	C	0.148098	0.224037	0.250099
C91	C	0.398098	0.474037	0.500099
C92	C	0.648098	0.724037	0.750099
C93	C	-0.121215	-0.089674	0.000083
C94	C	0.128785	0.160326	0.250083
C95	C	0.378785	0.410326	0.500083
C96	C	0.628785	0.660326	0.750083
C97	C	-0.109428	-0.216350	0.000060
C98	C	0.140572	0.033650	0.250060
C99	C	0.390572	0.283650	0.500060
C100	C	0.640572	0.533650	0.750060
C101	C	-0.159843	-0.217086	0.000054
C102	C	0.090157	0.032914	0.250054
C103	C	0.340157	0.282914	0.500054
C104	C	0.590157	0.532914	0.750054
C105	C	-0.190943	-0.154116	0.000063
C106	C	0.059057	0.095884	0.250063
C107	C	0.309057	0.345884	0.500063
C108	C	0.559057	0.595884	0.750063
C109	C	-0.171629	-0.090410	0.000078
C110	C	0.078371	0.159590	0.250078
C111	C	0.328371	0.409590	0.500078
C112	C	0.578371	0.659590	0.750078
C113	C	-0.133005	0.037011	0.000115
C114	C	0.116995	0.287011	0.250115
C115	C	0.366995	0.537011	0.500115
C116	C	0.616995	0.787011	0.750115
C117	C	-0.183425	0.036268	0.000117
C118	C	0.066575	0.286268	0.250117
C119	C	0.316575	0.536268	0.500117
C120	C	0.566575	0.786268	0.750117
C121	C	-0.202738	-0.027443	0.000101
C122	C	0.047262	0.222557	0.250101
C123	C	0.297262	0.472557	0.500101
C124	C	0.547262	0.722557	0.750101
C125	C	-0.253144	-0.028177	0.000081
C126	C	-0.003144	0.221823	0.250081
C127	C	0.246856	0.471823	0.500081
C128	C	0.496856	0.721823	0.750081
N129	N	-0.272460	-0.091884	0.000073
N130	N	-0.022460	0.158116	0.250073
N131	N	0.227540	0.408116	0.500073
N132	N	0.477540	0.658116	0.750073
C133	C	-0.241360	-0.154853	0.000064
C134	C	0.008640	0.095147	0.250064
C135	C	0.258640	0.345147	0.500064
C136	C	0.508640	0.595147	0.750064
C137	C	0.205644	-0.021472	0.000100
C138	C	0.455644	0.228528	0.250100
C139	C	0.705644	0.478528	0.500100
C140	C	0.955644	0.728528	0.750100
C141	C	0.256061	-0.020735	0.000099
C142	C	0.506061	0.229265	0.250099
C143	C	0.756061	0.479265	0.500099
C144	C	1.006061	0.729265	0.750099
C145	C	0.267846	-0.147417	0.000081
C146	C	0.517846	0.102583	0.250081
C147	C	0.767846	0.352583	0.500081
C148	C	1.017846	0.602583	0.750081
C149	C	0.217428	-0.148153	0.000077
C150	C	0.467428	0.101847	0.250077
C151	C	0.717428	0.351847	0.500077
C152	C	0.967428	0.601847	0.750077
C153	C	0.186328	-0.085179	0.000092
C154	C	0.436328	0.164821	0.250092
C155	C	0.686328	0.414821	0.500092
C156	C	0.936328	0.664821	0.750092
C157	C	-0.347234	-0.156395	0.000051
C158	C	-0.097234	0.093605	0.250051
C159	C	0.152766	0.343605	0.500051
C160	C	0.402766	0.593605	0.750051
C161	C	-0.397653	-0.157125	0.000042
C162	C	-0.147653	0.092875	0.250042
C163	C	0.102347	0.342875	0.500042
C164	C	0.352347	0.592875	0.750042
C165	C	-0.409433	-0.030444	0.000064
C166	C	-0.159433	0.219556	0.250064
C167	C	0.090567	0.469556	0.500064
C168	C	0.340567	0.719556	0.750064
C169	C	-0.359018	-0.029713	0.000069
C170	C	-0.109018	0.220287	0.250069
C171	C	0.140982	0.470287	0.500069
C172	C	0.390982	0.720287	0.750069
C173	C	-0.327919	-0.092694	0.000065
C174	C	-0.077919	0.157306	0.250065
C175	C	0.172081	0.407306	0.500065
C176	C	0.422081	0.657306	0.750065
O177	O	-0.284266	0.025278	0.000066
O178	O	-0.034266	0.275278	0.250066
O179	O	0.215734	0.525278	0.500066
O180	O	0.465734	0.775278	0.750066
O181	O	-0.262426	-0.209100	0.000065
O182	O	-0.012426	0.040900	0.250065
O183	O	0.237574	0.290900	0.500065
O184	O	0.487574	0.540900	0.750065
C185	C	-0.039701	-0.151908	0.000080
C186	C	0.210299	0.098092	0.250080
C187	C	0.460299	0.348092	0.500080
C188	C	0.710299	0.598092	0.750080
C189	C	-0.020387	-0.088202	0.000095
C190	C	0.229613	0.161798	0.250095
C191	C	0.479613	0.411798	0.500095
C192	C	0.729613	0.661798	0.750095
C193	C	-0.051487	-0.025232	0.000104
C194	C	0.198513	0.224768	0.250104
C195	C	0.448513	0.474768	0.500104
C196	C	0.698513	0.724768	0.750104
C197	C	0.030030	-0.087465	0.000094
C198	C	0.280030	0.162535	0.250094
C199	C	0.530030	0.412535	0.500094
C200	C	0.780030	0.662535	0.750094
C201	C	0.061130	-0.150435	0.000085
C202	C	0.311130	0.099565	0.250085
C203	C	0.561130	0.349565	0.500085
C204	C	0.811130	0.599565	0.750085
C205	C	0.041814	-0.214142	0.000077
C206	C	0.291814	0.035858	0.250077
C207	C	0.541814	0.285858	0.500077
C208	C	0.791814	0.535858	0.750077
C209	C	-0.008600	-0.214878	0.000071
C210	C	0.241400	0.035122	0.250071
C211	C	0.491400	0.285122	0.500071
C212	C	0.741400	0.535122	0.750071
C213	C	-0.032171	0.038475	0.000112
C214	C	0.217829	0.288475	0.250112
C215	C	0.467829	0.538475	0.500112
C216	C	0.717829	0.788475	0.750112
C217	C	0.018244	0.039206	0.000117
C218	C	0.268244	0.289206	0.250117
C219	C	0.518244	0.539206	0.500117
C220	C	0.768244	0.789206	0.750117
C221	C	0.049344	-0.023764	0.000108
C222	C	0.299344	0.226236	0.250108
C223	C	0.549344	0.476236	0.500108
C224	C	0.799344	0.726236	0.750108
C225	C	-0.566990	-0.215961	0.000055
C226	C	-0.316990	0.034039	0.250055
C227	C	-0.066990	0.284039	0.500055
C228	C	0.183010	0.534039	0.750055
C229	C	-0.567776	-0.293059	0.000044
C230	C	-0.317776	-0.043059	0.250044
C231	C	-0.067776	0.206941	0.500044
C232	C	0.182224	0.456941	0.750044
N233	N	-0.570780	-0.088922	0.188742
N234	N	-0.320780	0.161078	0.438742
N235	N	-0.070780	0.411078	0.688742
N236	N	0.179220	0.661078	0.938742
C237	C	-0.617496	0.160168	0.000108
C238	C	-0.367496	0.410168	0.250108
C239	C	-0.117496	0.660168	0.500108
C240	C	0.132504	0.910168	0.750108
C241	C	-0.616758	0.232610	0.000097
C242	C	-0.366758	0.482610	0.250097
C243	C	-0.116758	0.732610	0.500097
C244	C	0.133242	0.982610	0.750097
C245	C	-0.572337	0.260081	0.000089
C246	C	-0.322337	0.510081	0.250089
C247	C	-0.072337	0.760081	0.500089
C248	C	0.177663	1.010081	0.750089
C249	C	-0.528650	0.215102	0.000074
C250	C	-0.278650	0.465102	0.250074
C251	C	-0.028650	0.715102	0.500074
C252	C	0.221350	0.965102	0.750074
C253	C	-0.529390	0.142661	0.000078
C254	C	-0.279390	0.392661	0.250078
C255	C	-0.029390	0.642661	0.500078
C256	C	0.220610	0.892661	0.750078
C257	C	-0.537412	0.368152	0.042502
C258	C	-0.287412	0.618152	0.292502
C259	C	-0.037412	0.868152	0.542502
C260	C	0.212588	1.118152	0.792502
C261	C	-0.536674	0.440592	0.042502
C262	C	-0.286674	0.690592	0.292502
C263	C	-0.036674	0.940592	0.542502
C264	C	0.213326	1.190592	0.792502
C265	C	-0.570054	0.483512	0.000072
C266	C	-0.320054	0.733512	0.250072
C267	C	-0.070054	0.983512	0.500072
C268	C	0.179946	1.233512	0.750072
C269	C	-0.604180	0.453985	-0.042348
C270	C	-0.354180	0.703985	0.207652
C271	C	-0.104180	0.953985	0.457652
C272	C	0.145820	1.203985	0.707652
C273	C	-0.604920	0.381544	-0.042344
C274	C	-0.354920	0.631544	0.207656
C275	C	-0.104920	0.881544	0.457656
C276	C	0.145080	1.131544	0.707656
C277	C	-0.571530	0.338630	0.000084
C278	C	-0.321530	0.588630	0.250084
C279	C	-0.071530	0.838630	0.500084
C280	C	0.178470	1.088630	0.750084
C281	C	-0.612938	0.607032	0.000069
C282	C	-0.362938	0.857032	0.250069
C283	C	-0.112938	1.107032	0.500069
C284	C	0.137062	1.357032	0.750069
C285	C	-0.612198	0.679475	0.000053
C286	C	-0.362198	0.929475	0.250053
C287	C	-0.112198	1.179475	0.500053
C288	C	0.137802	1.429475	0.750053
C289	C	-0.524089	0.661966	0.000038
C290	C	-0.274089	0.911966	0.250038
C291	C	-0.024089	1.161966	0.500038
C292	C	0.225911	1.411966	0.750038
C293	C	-0.524830	0.589524	0.000047
C294	C	-0.274830	0.839524	0.250047
C295	C	-0.024830	1.089524	0.500047
C296	C	0.225170	1.339524	0.750047
C297	C	-0.569256	0.562062	0.000066
C298	C	-0.319256	0.812062	0.250066
C299	C	-0.069256	1.062062	0.500066
C300	C	0.180744	1.312062	0.750066
N301	N	-0.570816	-0.088933	-0.188594
N302	N	-0.320816	0.161067	0.061406
N303	N	-0.070816	0.411067	0.311406
N304	N	0.179184	0.661067	0.561406
C305	C	-0.603755	-0.041371	0.226854
C306	C	-0.353755	0.208629	0.476854
C307	C	-0.103755	0.458629	0.726854
C308	C	0.146245	0.708629	0.976854
C309	C	-0.603758	-0.041368	0.303082
C310	C	-0.353758	0.208632	0.553082
C311	C	-0.103758	0.458632	0.803082
C312	C	0.146242	0.708632	1.053082
C313	C	-0.570790	-0.088927	0.341195
C314	C	-0.320790	0.161073	0.591195
C315	C	-0.070790	0.411073	0.841195
C316	C	0.179210	0.661073	1.091195
C317	C	-0.537809	-0.136482	0.303073
C318	C	-0.287809	0.113518	0.553073
C319	C	-0.037809	0.363518	0.803073
C320	C	0.212191	0.613518	1.053073
C321	C	-0.537804	-0.136479	0.226847
C322	C	-0.287804	0.113521	0.476847
C323	C	-0.037804	0.363521	0.726847
C324	C	0.212196	0.613521	0.976847
C325	C	-0.564320	-0.152255	0.461945
C326	C	-0.314320	0.097745	0.711945
C327	C	-0.064320	0.347745	0.961945
C328	C	0.185680	0.597745	1.211945
C329	C	-0.564328	-0.152259	0.538170
C330	C	-0.314328	0.097741	0.788170
C331	C	-0.064328	0.347741	1.038170
C332	C	0.185672	0.597741	1.288170
C333	C	-0.570804	-0.088936	0.576302
C334	C	-0.320804	0.161064	0.826302
C335	C	-0.070804	0.411064	1.076302
C336	C	0.179196	0.661064	1.326302
C337	C	-0.577281	-0.025606	0.538200
C338	C	-0.327281	0.224394	0.788200
C339	C	-0.077281	0.474394	1.038200
C340	C	0.172719	0.724394	1.288200
C341	C	-0.577276	-0.025603	0.461974
C342	C	-0.327276	0.224397	0.711974
C343	C	-0.077276	0.474397	0.961974
C344	C	0.172724	0.724397	1.211974
C345	C	-0.570792	-0.088935	0.423850
C346	C	-0.320792	0.161065	0.673850
C347	C	-0.070792	0.411065	0.923850
C348	C	0.179208	0.661065	1.173850
C349	C	-0.603784	-0.041378	0.697069
C350	C	-0.353784	0.208622	0.947069
C351	C	-0.103784	0.458622	1.197069
C352	C	0.146216	0.708622	1.447069
C353	C	-0.603784	-0.041374	0.773299
C354	C	-0.353784	0.208626	1.023299
C355	C	-0.103784	0.458626	1.273299
C356	C	0.146216	0.708626	1.523299
C357	C	-0.537838	-0.136494	0.773289
C358	C	-0.287838	0.113506	1.023289
C359	C	-0.037838	0.363506	1.273289
C360	C	0.212162	0.613506	1.523289
C361	C	-0.537836	-0.136492	0.697061
C362	C	-0.287836	0.113508	0.947061
C363	C	-0.037836	0.363508	1.197061
C364	C	0.212164	0.613508	1.447061
C365	C	-0.570812	-0.088934	0.658956
C366	C	-0.320812	0.161066	0.908956
C367	C	-0.070812	0.411066	1.158956
C368	C	0.179188	0.661066	1.408956
H369	H	-0.413374	-0.209008	0.000029
H370	H	-0.163374	0.040992	0.250029
H371	H	0.086626	0.290992	0.500029
H372	H	0.336626	0.540992	0.750029
H373	H	-0.489260	0.552909	0.000042
H374	H	-0.239260	0.802909	0.250042
H375	H	0.010740	1.052909	0.500042
H376	H	0.260740	1.302909	0.750042
H377	H	0.201707	-0.200032	0.000068
H378	H	0.451707	0.049968	0.250068
H379	H	0.701707	0.299968	0.500068
H380	H	0.951707	0.549968	0.750068
H381	H	-0.631362	0.488930	-0.076899
H382	H	-0.381362	0.738930	0.173101
H383	H	-0.131362	0.988930	0.423101
H384	H	0.118638	1.238930	0.673101
H385	H	0.033963	0.091091	0.000124
H386	H	0.283963	0.341091	0.250124
H387	H	0.533963	0.591091	0.500124
H388	H	0.783963	0.841091	0.750124
H389	H	-0.582549	0.025962	0.430954
H390	H	-0.332549	0.275962	0.680954
H391	H	-0.082549	0.525962	0.930954
H392	H	0.167451	0.775962	1.180954
H393	H	-0.582554	0.025958	0.569246
H394	H	-0.332554	0.275958	0.819246
H395	H	-0.082554	0.525958	1.069246
H396	H	0.167446	0.775958	1.319246
H397	H	-0.510228	0.333212	0.077057
H398	H	-0.260228	0.583212	0.327057
H399	H	-0.010228	0.833212	0.577057
H400	H	0.239772	1.083212	0.827057
H401	H	0.067145	-0.265414	0.000066
H402	H	0.317145	-0.015414	0.250066
H403	H	0.567145	0.234586	0.500066
H404	H	0.817145	0.484586	0.750066
H405	H	-0.492482	0.237473	0.000066
H406	H	-0.242482	0.487473	0.250066
H407	H	0.007518	0.737473	0.500066
H408	H	0.257518	0.987473	0.750066
H409	H	-0.652330	0.269231	0.000103
H410	H	-0.402330	0.519231	0.250103
H411	H	-0.152330	0.769231	0.500103
H412	H	0.097670	1.019231	0.750103
H413	H	-0.508885	0.464627	0.077039
H414	H	-0.258885	0.714627	0.327039
H415	H	-0.008885	0.964627	0.577039
H416	H	0.241115	1.214627	0.827039
H417	H	-0.487920	0.684331	0.000028
H418	H	-0.237920	0.934331	0.250028
H419	H	0.012080	1.184331	0.500028
H420	H	0.262080	1.434331	0.750028
H421	H	-0.493818	0.106047	0.000070
H422	H	-0.243818	0.356047	0.250070
H423	H	0.006182	0.606047	0.500070
H424	H	0.256182	0.856047	0.750070
H425	H	-0.630634	-0.002651	0.666043
H426	H	-0.380634	0.247349	0.916043
H427	H	-0.130634	0.497349	1.166043
H428	H	0.119366	0.747349	1.416043
H429	H	-0.175562	-0.268966	0.000041
H430	H	0.074438	-0.018966	0.250041
H431	H	0.324438	0.231034	0.500041
H432	H	0.574438	0.481034	0.750041
H433	H	-0.510951	-0.175201	0.195815
H434	H	-0.260951	0.074799	0.445815
H435	H	-0.010951	0.324799	0.695815
H436	H	0.239049	0.574799	0.945815
H437	H	-0.647770	0.716089	0.000058
H438	H	-0.397770	0.966089	0.250058
H439	H	-0.147770	1.216089	0.500058
H440	H	0.102230	1.466089	0.750058
H441	H	-0.630604	-0.002645	0.195831
H442	H	-0.380604	0.247355	0.445831
H443	H	-0.130604	0.497355	0.695831
H444	H	0.119396	0.747355	0.945831
H445	H	-0.649112	0.584671	0.000082
H446	H	-0.399112	0.834671	0.250082
H447	H	-0.149112	1.084671	0.500082
H448	H	0.100888	1.334671	0.750082
H449	H	-0.510966	-0.175205	0.334109
H450	H	-0.260966	0.074795	0.584109
H451	H	-0.010966	0.324795	0.834109
H452	H	0.239034	0.574795	1.084109
H453	H	-0.208745	0.087550	0.000130
H454	H	0.041255	0.337550	0.250130
H455	H	0.291255	0.587550	0.500130
H456	H	0.541255	0.837550	0.750130
H457	H	-0.630635	-0.002648	0.804330
H458	H	-0.380635	0.247352	1.054330
H459	H	-0.130635	0.497352	1.304330
H460	H	0.119365	0.747352	1.554330
H461	H	-0.630611	-0.002644	0.334119
H462	H	-0.380611	0.247356	0.584119
H463	H	-0.130611	0.497356	0.834119
H464	H	0.119389	0.747356	1.084119
H465	H	-0.510993	-0.175215	0.804319
H466	H	-0.260993	0.074785	1.054319
H467	H	-0.010993	0.324785	1.304319
H468	H	0.239007	0.574785	1.554319
H469	H	-0.559038	-0.203824	0.430904
H470	H	-0.309038	0.046176	0.680904
H471	H	-0.059038	0.296176	0.930904
H472	H	0.190962	0.546176	1.180904
H473	H	-0.510986	-0.175215	0.666028
H474	H	-0.260986	0.074785	0.916028
H475	H	-0.010986	0.324785	1.166028
H476	H	0.239014	0.574785	1.416028
H477	H	-0.559057	-0.203826	0.569187
H478	H	-0.309057	0.046174	0.819187
H479	H	-0.059057	0.296174	1.069187
H480	H	0.190943	0.546174	1.319187
H481	H	-0.321918	-0.207680	0.000050
H482	H	-0.071918	0.042320	0.250050
H483	H	0.178082	0.292320	0.500050
H484	H	0.428082	0.542320	0.750050
H485	H	-0.084111	-0.267630	0.000055
H486	H	0.165889	-0.017630	0.250055
H487	H	0.415889	0.232370	0.500055
H488	H	0.665889	0.482370	0.750055
H489	H	0.271781	0.031145	0.000101
H490	H	0.521781	0.281145	0.250101
H491	H	0.771781	0.531145	0.500101
H492	H	1.021781	0.781145	0.750101
H493	H	0.180326	0.029812	0.000113
H494	H	0.430326	0.279812	0.250113
H495	H	0.680326	0.529812	0.500113
H496	H	0.930326	0.779812	0.750113
H497	H	0.293177	-0.198689	0.000074
H498	H	0.543177	0.051311	0.250074
H499	H	0.793177	0.301311	0.500074
H500	H	1.043177	0.551311	0.750074
H501	H	-0.117290	0.088891	0.000129
H502	H	0.132710	0.338891	0.250129
H503	H	0.382710	0.588891	0.500129
H504	H	0.632710	0.838891	0.750129
H505	H	-0.343293	0.022166	0.000071
H506	H	-0.093293	0.272166	0.250071
H507	H	0.156707	0.522166	0.500071
H508	H	0.406707	0.772166	0.750071
H509	H	-0.024320	-0.266758	0.000059
H510	H	0.225680	-0.016758	0.250059
H511	H	0.475680	0.233242	0.500059
H512	H	0.725680	0.483242	0.750059
H513	H	-0.434764	0.020825	0.000069
H514	H	-0.184764	0.270825	0.250069
H515	H	0.065236	0.520825	0.500069
H516	H	0.315236	0.770825	0.750069
H517	H	-0.057489	0.089753	0.000121
H518	H	0.192511	0.339753	0.250121
H519	H	0.442511	0.589753	0.500121
H520	H	0.692511	0.839753	0.750121
H521	H	-0.653672	0.137813	0.000121
H522	H	-0.403672	0.387813	0.250121
H523	H	-0.153672	0.637813	0.500121
H524	H	0.096328	0.887813	0.750121
H525	H	-0.632705	0.357506	-0.076885
H526	H	-0.382705	0.607506	0.173115
H527	H	-0.132705	0.857506	0.423115
H528	H	0.117295	1.107506	0.673115
