data_functionalizedCrystal
_audit_creation_method	'MofGen! by Chris Wilmer'
_symmetry_space_group_name_H-M	'P1'
_symmetry_Int_Tables_number	1
_symmetry_cell_setting	triclinic
loop_
_symmetry_equiv_pos_as_xyz
  x,y,z
_cell_length_a	14.044220
_cell_length_b	10.489741
_cell_length_c	12.503572
_cell_angle_alpha	93.559494
_cell_angle_beta	86.164750
_cell_angle_gamma	88.864026
loop_
_atom_site_label
_atom_site_type_symbol
_atom_site_fract_x
_atom_site_fract_y
_atom_site_fract_z
O1	O	1.265220	0.300990	-0.089205
O2	O	1.598553	0.634324	0.244128
O3	O	1.931887	0.967657	0.577462
O4	O	0.989177	0.289883	-0.089232
O5	O	1.322510	0.623217	0.244101
O6	O	1.655843	0.956550	0.577435
O7	O	1.133479	0.110477	-0.089211
O8	O	1.466813	0.443810	0.244122
O9	O	1.800146	0.777143	0.577455
O10	O	1.120918	0.480397	-0.089225
O11	O	1.454251	0.813730	0.244108
O12	O	1.787584	1.147064	0.577441
O13	O	1.122627	0.123993	0.089429
O14	O	1.455960	0.457327	0.422762
O15	O	1.789294	0.790660	0.756096
O16	O	0.978325	0.303400	0.089408
O17	O	1.311658	0.636733	0.422742
O18	O	1.644991	0.970067	0.756075
O19	O	1.254368	0.314507	0.089436
O20	O	1.587701	0.647841	0.422769
O21	O	1.921035	0.981174	0.756102
Cu22	Cu	1.115355	0.310188	0.105733
Cu23	Cu	1.448689	0.643521	0.439067
Cu24	Cu	1.782022	0.976854	0.772400
Cu25	Cu	1.128189	0.294203	-0.105530
Cu26	Cu	1.461523	0.627536	0.227804
Cu27	Cu	1.794856	0.960869	0.561137
O28	O	1.110065	0.493914	0.089415
O29	O	1.443399	0.827247	0.422748
O30	O	1.776732	1.160581	0.756082
C31	C	0.948403	0.291780	0.000085
C32	C	1.281737	0.625114	0.333418
C33	C	1.615070	0.958447	0.666751
C34	C	0.843079	0.277280	0.000074
C35	C	1.176412	0.610613	0.333408
C36	C	1.509746	0.943947	0.666741
C37	C	0.650235	0.250773	0.000097
C38	C	0.983569	0.584106	0.333430
C39	C	1.316902	0.917440	0.666763
C40	C	0.593304	0.353611	0.000097
C41	C	0.926638	0.686944	0.333431
C42	C	1.259971	1.020278	0.666764
C43	C	0.485999	0.338862	0.000110
C44	C	0.819333	0.672195	0.333443
C45	C	1.152666	1.005529	0.666776
C46	C	0.757550	0.265520	0.000084
C47	C	1.090884	0.598853	0.333418
C48	C	1.424217	0.932187	0.666751
C49	C	1.127104	0.069607	0.000108
C50	C	1.460438	0.402940	0.333441
C51	C	1.793771	0.736274	0.666775
C52	C	1.124266	-0.072311	0.000106
C53	C	1.457599	0.261023	0.333439
C54	C	1.790933	0.594356	0.666772
C55	C	1.032451	-0.149764	0.000089
C56	C	1.365784	0.183569	0.333422
C57	C	1.699117	0.516902	0.666756
C58	C	1.070473	-0.230823	0.088172
C59	C	1.403806	0.102510	0.421505
C60	C	1.737139	0.435844	0.754839
C61	C	1.081194	-0.244122	-0.087953
C62	C	1.414527	0.089211	0.245380
C63	C	1.747861	0.422545	0.578713
C64	C	1.162321	-0.151494	0.088262
C65	C	1.495655	0.181839	0.421595
C66	C	1.828988	0.515172	0.754928
C67	C	1.173035	-0.164791	-0.087943
C68	C	1.506368	0.168542	0.245391
C69	C	1.839701	0.501876	0.578724
C70	C	1.211122	-0.245814	0.000162
C71	C	1.544456	0.087520	0.333495
C72	C	1.877789	0.420853	0.666829
C73	C	1.295142	0.312610	0.000116
C74	C	1.628475	0.645943	0.333450
C75	C	1.961808	0.979277	0.666783
C76	C	1.400466	0.327110	0.000120
C77	C	1.733799	0.660443	0.333453
C78	C	2.067133	0.993776	0.666786
C79	C	1.116440	0.534783	0.000093
C80	C	1.449774	0.868117	0.333426
C81	C	1.783107	1.201450	0.666760
C82	C	1.119279	0.676700	0.000088
C83	C	1.452613	1.010034	0.333422
C84	C	1.785946	1.343367	0.666755
N85	N	1.106335	0.321431	0.254324
N86	N	1.439669	0.654764	0.587658
N87	N	1.773002	0.988098	0.920991
N88	N	1.137217	0.282950	-0.254121
N89	N	1.470550	0.616284	0.079213
N90	N	1.803883	0.949617	0.412546
C91	C	1.093067	0.337981	0.473438
C92	C	1.426400	0.671314	0.806771
C93	C	1.759734	1.004648	1.140104
C94	C	1.150482	0.266404	0.526773
C95	C	1.483815	0.599737	0.860106
C96	C	1.817149	0.933071	1.193440
C97	C	1.143099	0.275613	0.648695
C98	C	1.476433	0.608946	0.982028
C99	C	1.809766	0.942279	1.315362
C100	C	1.100449	0.328774	0.351504
C101	C	1.433782	0.662107	0.684838
C102	C	1.767115	0.995440	1.018171
H103	H	0.625152	0.452730	0.000088
H104	H	0.958486	0.786063	0.333422
H105	H	1.291819	1.119397	0.666755
H106	H	1.216375	-0.135444	-0.162407
H107	H	1.549708	0.197889	0.170926
H108	H	1.883042	0.531223	0.504259
H109	H	0.956955	-0.107764	0.000170
H110	H	1.290288	0.225570	0.333504
H111	H	1.623622	0.558903	0.666837
H112	H	0.618389	0.151662	0.000106
H113	H	0.951722	0.484995	0.333440
H114	H	1.285056	0.818329	0.666773
H115	H	1.205182	0.198210	0.480868
H116	H	1.538515	0.531544	0.814201
H117	H	1.871849	0.864877	1.147534
H118	H	1.038372	0.406172	0.519337
H119	H	1.371705	0.739505	0.852670
H120	H	1.705038	1.072839	1.186004
H121	H	1.027100	-0.260141	0.162633
H122	H	1.360433	0.073193	0.495966
H123	H	1.693766	0.406526	0.829299
H124	H	1.196608	-0.111084	0.162813
H125	H	1.529942	0.222249	0.496146
H126	H	1.863275	0.555582	0.829480
H127	H	1.046857	-0.284662	-0.162428
H128	H	1.380190	0.048671	0.170905
H129	H	1.713524	0.382004	0.504239
O130	O	1.311197	-0.301148	0.000230
O131	O	1.644530	0.032185	0.333563
O132	O	1.977864	0.365519	0.666896
H133	H	1.344622	-0.263738	0.073418
H134	H	1.677956	0.069596	0.406751
H135	H	2.011289	0.402929	0.740085
