data_functionalizedCrystal
_audit_creation_method	'MofGen! by Chris Wilmer'
_symmetry_space_group_name_H-M	'P1'
_symmetry_Int_Tables_number	1
_symmetry_cell_setting	triclinic
loop_
_symmetry_equiv_pos_as_xyz
  x,y,z
_cell_length_a	18.050590
_cell_length_b	18.050589
_cell_length_c	18.050568
_cell_angle_alpha	89.906844
_cell_angle_beta	89.955174
_cell_angle_gamma	90.017386
loop_
_atom_site_label
_atom_site_type_symbol
_atom_site_fract_x
_atom_site_fract_y
_atom_site_fract_z
Zn1	Zn	1.135627	-0.295372	-0.419625
Zn2	Zn	1.635627	0.204628	0.080375
Zn3	Zn	1.135438	-0.419718	-0.295444
Zn4	Zn	1.635438	0.080282	0.204556
Zn5	Zn	1.011347	-0.295523	-0.295483
Zn6	Zn	1.511347	0.204477	0.204517
Zn7	Zn	1.011394	-0.419502	-0.419627
Zn8	Zn	1.511394	0.080498	0.080373
O9	O	1.073451	-0.357529	-0.357545
O10	O	1.573451	0.142471	0.142455
O11	O	1.239526	-0.311895	-0.403135
O12	O	1.739526	0.188105	0.096865
O13	O	1.118879	-0.403397	-0.191525
O14	O	1.618879	0.096603	0.308475
O15	O	1.027892	-0.191578	-0.311966
O16	O	1.527892	0.308422	0.188034
O17	O	1.239388	-0.403251	-0.311900
O18	O	1.739388	0.096749	0.188100
O19	O	1.119200	-0.191468	-0.403173
O20	O	1.619200	0.308532	0.096827
O21	O	1.027710	-0.312151	-0.191553
O22	O	1.527710	0.187849	0.308447
O23	O	0.907429	-0.311941	-0.311968
O24	O	1.407429	0.188059	0.188032
O25	O	1.027972	-0.402882	-0.523552
O26	O	1.527972	0.097118	-0.023552
O27	O	0.907463	-0.403028	-0.403176
O28	O	1.407463	0.096972	0.096824
O29	O	1.119245	-0.311685	-0.523550
O30	O	1.619245	0.188315	-0.023550
O31	O	1.118924	-0.523614	-0.311902
O32	O	1.618924	-0.023614	0.188098
O33	O	1.027789	-0.523455	-0.403139
O34	O	1.527789	-0.023455	0.096861
C35	C	0.880499	-0.357478	-0.357577
C36	C	1.380499	0.142522	0.142423
C37	C	0.797954	-0.357474	-0.357608
C38	C	1.297954	0.142526	0.142392
C39	C	0.598543	-0.407149	-0.407089
C40	C	1.098543	0.092851	0.092911
C41	C	0.549164	-0.339410	-0.425359
C42	C	1.049164	0.160590	0.074641
C43	C	0.646823	-0.357516	-0.357572
C44	C	1.146823	0.142484	0.142428
C45	C	0.549120	-0.425293	-0.339301
C46	C	1.049120	0.074707	0.160699
C47	C	0.500838	-0.357562	-0.357538
C48	C	1.000838	0.142438	0.142462
C49	C	0.598532	-0.289741	-0.375877
C50	C	1.098532	0.210259	0.124123
C51	C	0.598492	-0.375669	-0.289787
C52	C	1.098492	0.124331	0.210213
C53	C	0.549135	-0.307884	-0.308032
C54	C	1.049135	0.192116	0.191968
C55	C	0.730921	-0.357490	-0.357593
C56	C	1.230921	0.142510	0.142407
C57	C	0.416741	-0.357580	-0.357517
C58	C	0.916741	0.142420	0.142483
C59	C	1.073362	-0.550481	-0.357533
C60	C	1.573362	-0.050481	0.142467
C61	C	1.073391	-0.633027	-0.357552
C62	C	1.573391	-0.133027	0.142448
C63	C	1.023881	-0.832418	-0.407149
C64	C	1.523881	-0.332418	0.092851
C65	C	1.005729	-0.881937	-0.339387
C66	C	1.505729	-0.381937	0.160613
C67	C	1.073464	-0.784157	-0.357562
C68	C	1.573464	-0.284157	0.142438
C69	C	1.091653	-0.881719	-0.425332
C70	C	1.591653	-0.381719	0.074668
C71	C	1.073533	-0.930142	-0.357577
C72	C	1.573533	-0.430142	0.142423
C73	C	1.055277	-0.832589	-0.289763
C74	C	1.555277	-0.332589	0.210237
C75	C	1.141232	-0.832367	-0.375754
C76	C	1.641232	-0.332367	0.124246
C77	C	1.123106	-0.881864	-0.307945
C78	C	1.623106	-0.381864	0.192055
C79	C	1.073423	-0.700059	-0.357554
C80	C	1.573423	-0.200059	0.142446
C81	C	1.073575	-1.014239	-0.357577
C82	C	1.573575	-0.514239	0.142423
C83	C	1.267157	-0.357580	-0.357513
C84	C	1.767157	0.142420	0.142487
C85	C	1.349703	-0.357602	-0.357500
C86	C	1.849703	0.142398	0.142500
C87	C	1.073635	-0.357242	-0.551251
C88	C	1.573635	0.142758	-0.051251
C89	C	1.073713	-0.357120	-0.633797
C90	C	1.573713	0.142880	-0.133797
C91	C	1.073562	-0.163823	-0.357573
C92	C	1.573562	0.336177	0.142427
C93	C	1.073609	-0.081277	-0.357586
C94	C	1.573609	0.418723	0.142414
C95	C	1.073312	-0.357760	-0.164592
C96	C	1.573312	0.142240	0.335408
C97	C	1.073377	-0.357673	-0.082047
C98	C	1.573377	0.142327	0.417953
C99	C	1.123507	-0.406634	0.166832
C100	C	1.623507	0.093366	0.666832
C101	C	1.141185	-0.338815	0.117221
C102	C	1.641185	0.161185	0.617221
C103	C	1.073600	-0.357305	0.215073
C104	C	1.573600	0.142695	0.715073
C105	C	1.055847	-0.425302	0.117602
C106	C	1.555847	0.074698	0.617602
C107	C	1.073492	-0.357490	0.069088
C108	C	1.573492	0.142510	0.569088
C109	C	1.091313	-0.289449	0.166549
C110	C	1.591313	0.210551	0.666549
C111	C	1.005945	-0.375982	0.166935
C112	C	1.505945	0.124018	0.666935
C113	C	1.023596	-0.308117	0.117347
C114	C	1.523596	0.191883	0.617347
C115	C	1.073664	-0.357200	0.299171
C116	C	1.573664	0.142800	0.799171
C117	C	1.073428	-0.357587	-0.015008
C118	C	1.573428	0.142413	0.484992
H119	H	0.527496	-0.324071	-0.482669
H120	H	1.027496	0.175929	0.017331
H121	H	1.107009	-0.903303	-0.482639
H122	H	1.607009	-0.403303	0.017361
C123	C	1.218588	-0.802926	-0.396562
C124	C	1.718588	-0.302926	0.103438
H125	H	1.237573	-0.774031	-0.356936
H126	H	1.737573	-0.274031	0.143064
H127	H	1.215038	-0.773150	-0.439853
H128	H	1.715038	-0.273150	0.060147
H129	H	1.250883	-0.843441	-0.405725
H130	H	1.750883	-0.343441	0.094275
C131	C	1.180622	-0.462807	0.196189
C132	C	1.680622	0.037193	0.696189
H133	H	1.228632	-0.449477	0.179161
H134	H	1.728632	0.050523	0.679161
H135	H	1.168521	-0.510919	0.178709
H136	H	1.668521	-0.010919	0.678709
H137	H	1.179959	-0.462665	0.248815
H138	H	1.679959	0.037335	0.748815
H139	H	0.620145	-0.232424	-0.391381
H140	H	1.120145	0.267576	0.108619
H141	H	0.981341	-0.266433	0.095764
H142	H	1.481341	0.233567	0.595764
C143	C	0.520006	-0.251147	-0.251445
C144	C	1.020006	0.248853	0.248555
H145	H	0.537017	-0.203060	-0.264534
H146	H	1.037017	0.296940	0.235466
H147	H	0.537643	-0.263615	-0.203451
H148	H	1.037643	0.236385	0.296549
H149	H	0.467379	-0.251753	-0.251456
H150	H	0.967379	0.248247	0.248544
H151	H	0.948452	-0.903726	-0.324013
H152	H	1.448452	-0.403726	0.175987
H153	H	1.198353	-0.323093	0.095389
H154	H	1.698353	0.176907	0.595389
C155	C	0.519788	-0.502695	-0.318447
C156	C	1.019788	-0.002695	0.181553
H157	H	0.536712	-0.537879	-0.353694
H158	H	1.036712	-0.037879	0.146306
H159	H	0.467167	-0.502037	-0.318146
H160	H	0.967167	-0.002037	0.181854
H161	H	0.537403	-0.515925	-0.270643
H162	H	1.037403	-0.015925	0.229357
C163	C	1.111632	-0.211850	0.195475
C164	C	1.611632	0.288150	0.695475
H165	H	1.111573	-0.212263	0.248106
H166	H	1.611573	0.287737	0.748106
H167	H	1.076365	-0.176845	0.178136
H168	H	1.576365	0.323155	0.678136
H169	H	1.159508	-0.198574	0.178039
H170	H	1.659508	0.301426	0.678039
C171	C	0.928740	-0.397248	0.196458
C172	C	1.428740	0.102752	0.696458
H173	H	0.916237	-0.445534	0.179735
H174	H	1.416237	0.054466	0.679735
H175	H	0.893128	-0.362765	0.178780
H176	H	1.393128	0.137235	0.678780
H177	H	0.929231	-0.396583	0.249080
H178	H	1.429231	0.103417	0.749080
H179	H	1.040877	-0.482728	0.096093
H180	H	1.540877	0.017272	0.596093
H181	H	0.620238	-0.449049	-0.449012
H182	H	1.120238	0.050951	0.050988
C183	C	0.627794	-0.396419	-0.212393
C184	C	1.127794	0.103581	0.287607
H185	H	0.610906	-0.444600	-0.199495
H186	H	1.110906	0.055400	0.300505
H187	H	0.610142	-0.361670	-0.177079
H188	H	1.110142	0.138330	0.322921
H189	H	0.680418	-0.395807	-0.212862
H190	H	1.180418	0.104193	0.287138
C191	C	1.034440	-0.803562	-0.212325
C192	C	1.534440	-0.303562	0.287675
H193	H	1.025794	-0.844254	-0.180008
H194	H	1.525794	-0.344254	0.319992
H195	H	0.990843	-0.774294	-0.215718
H196	H	1.490843	-0.274294	0.284282
H197	H	1.073839	-0.774238	-0.193471
H198	H	1.573839	-0.274238	0.306529
C199	C	0.967157	-0.803082	-0.463716
C200	C	1.467157	-0.303082	0.036284
H201	H	0.919053	-0.820058	-0.450671
H202	H	1.419053	-0.320058	0.049329
H203	H	0.979580	-0.820626	-0.511731
H204	H	1.479580	-0.320626	-0.011731
H205	H	0.967833	-0.750457	-0.463631
H206	H	1.467833	-0.250457	0.036369
H207	H	1.165067	-0.903437	-0.265969
H208	H	1.665067	-0.403437	0.234031
