data_functionalizedCrystal
_audit_creation_method	'MofGen! by Chris Wilmer'
_symmetry_space_group_name_H-M	'P1'
_symmetry_Int_Tables_number	1
_symmetry_cell_setting	triclinic
loop_
_symmetry_equiv_pos_as_xyz
  x,y,z
_cell_length_a	27.732048
_cell_length_b	27.732064
_cell_length_c	10.065918
_cell_angle_alpha	99.877478
_cell_angle_beta	99.920305
_cell_angle_gamma	82.646039
loop_
_atom_site_label
_atom_site_type_symbol
_atom_site_fract_x
_atom_site_fract_y
_atom_site_fract_z
O1	O	0.647216	0.063766	0.113305
O2	O	1.147216	0.563766	0.613305
O3	O	0.506426	0.072514	0.113344
O4	O	1.006426	0.572514	0.613344
O5	O	0.581190	-0.002256	0.113329
O6	O	1.081190	0.497744	0.613329
O7	O	0.572452	0.138536	0.113320
O8	O	1.072452	0.638536	0.613320
O9	O	0.568591	-0.014778	-0.113655
O10	O	1.068591	0.485222	0.386345
O11	O	0.493827	0.059991	-0.113640
O12	O	0.993827	0.559991	0.386360
O13	O	0.634618	0.051244	-0.113679
O14	O	1.134618	0.551244	0.386321
Zn15	Zn	0.562222	0.053629	-0.149698
Zn16	Zn	1.062222	0.553629	0.350302
Zn17	Zn	0.578821	0.070128	0.149363
Zn18	Zn	1.078821	0.570128	0.649363
O19	O	0.559853	0.126014	-0.113663
O20	O	1.059853	0.626014	0.386337
C21	C	0.574706	-0.026524	-0.000159
C22	C	1.074706	0.473476	0.499841
C23	C	0.574151	-0.080177	-0.000146
C24	C	1.074151	0.419823	0.499854
C25	C	0.482120	0.066069	-0.000142
C26	C	0.982120	0.566069	0.499858
C27	C	0.428466	0.065517	-0.000127
C28	C	0.928466	0.565517	0.499873
C29	C	0.526185	-0.457249	-0.000127
C30	C	1.026185	0.042751	0.499873
C31	C	0.528231	-0.255589	-0.000126
C32	C	1.028231	0.244411	0.499874
O33	O	0.491013	-0.224333	-0.000061
O34	O	0.991013	0.275667	0.499939
N35	N	0.572565	-0.236462	-0.000138
N36	N	1.072565	0.263538	0.499862
C37	C	0.616390	-0.267753	-0.000142
C38	C	1.116390	0.232247	0.499858
O39	O	0.654146	-0.246857	-0.000138
O40	O	1.154146	0.253143	0.499862
C41	C	0.614344	-0.469412	-0.000133
C42	C	1.114344	0.030588	0.499867
C43	C	0.570007	-0.488537	-0.000135
C44	C	1.070007	0.011463	0.499865
C45	C	0.481851	-0.476374	-0.000127
C46	C	0.981851	0.023626	0.499873
C47	C	0.481340	-0.526787	-0.000135
C48	C	0.981340	-0.026787	0.499865
C49	C	0.525162	-0.558074	-0.000143
C50	C	1.025162	-0.058074	0.499857
C51	C	0.569495	-0.538949	-0.000143
C52	C	1.069495	-0.038949	0.499857
C53	C	0.658170	-0.500702	-0.000127
C54	C	1.158170	-0.000702	0.499873
C55	C	0.657654	-0.551119	-0.000122
C56	C	1.157654	-0.051119	0.499878
C57	C	0.613317	-0.570244	-0.000123
C58	C	1.113317	-0.070244	0.499877
C59	C	0.612806	-0.620649	-0.000158
C60	C	1.112806	-0.120649	0.499842
N61	N	0.568472	-0.639776	-0.000146
N62	N	1.068472	-0.139776	0.499854
C63	C	0.524650	-0.608488	-0.000138
C64	C	1.024650	-0.108488	0.499862
C65	C	0.617461	-0.161879	-0.000149
C66	C	1.117461	0.338121	0.499851
C67	C	0.617973	-0.111465	-0.000154
C68	C	1.117973	0.388535	0.499846
C69	C	0.529813	-0.099304	-0.000135
C70	C	1.029813	0.400696	0.499865
C71	C	0.529302	-0.149719	-0.000140
C72	C	1.029302	0.350281	0.499860
C73	C	0.573128	-0.181006	-0.000137
C74	C	1.073128	0.318994	0.499863
C75	C	0.523579	-0.714359	-0.000156
C76	C	1.023579	-0.214359	0.499844
C77	C	0.523071	-0.764777	-0.000169
C78	C	1.023071	-0.264777	0.499831
C79	C	0.611231	-0.776933	-0.000180
C80	C	1.111231	-0.276933	0.499820
C81	C	0.611738	-0.726520	-0.000174
C82	C	1.111738	-0.226520	0.499826
C83	C	0.567909	-0.695233	-0.000157
C84	C	1.067909	-0.195233	0.499843
O85	O	0.650004	-0.651933	-0.000208
O86	O	1.150004	-0.151933	0.499792
O87	O	0.486901	-0.629393	-0.000111
O88	O	0.986901	-0.129393	0.499889
C89	C	0.526696	-0.406837	-0.000120
C90	C	1.026696	0.093163	0.499880
C91	C	0.571030	-0.387712	-0.000119
C92	C	1.071030	0.112288	0.499881
C93	C	0.614852	-0.418999	-0.000127
C94	C	1.114852	0.081001	0.499873
C95	C	0.571541	-0.337297	-0.000124
C96	C	1.071541	0.162703	0.499876
C97	C	0.527719	-0.306010	-0.000116
C98	C	1.027719	0.193990	0.499884
C99	C	0.483386	-0.325136	-0.000104
C100	C	0.983386	0.174864	0.499896
C101	C	0.482874	-0.375549	-0.000112
C102	C	0.982874	0.124451	0.499888
C103	C	0.659185	-0.399872	-0.000139
C104	C	1.159185	0.100128	0.499861
C105	C	0.659693	-0.349459	-0.000133
C106	C	1.159693	0.150541	0.499867
C107	C	0.615871	-0.318172	-0.000126
C108	C	1.115871	0.181828	0.499874
C109	C	0.089649	0.106217	-0.000188
C110	C	0.589649	0.606217	0.499812
C111	C	-0.112011	0.104166	-0.000200
C112	C	0.387989	0.604166	0.499800
O113	O	-0.143268	0.141383	-0.000262
O114	O	0.356732	0.641383	0.499738
N115	N	-0.131137	0.059831	-0.000195
N116	N	0.368863	0.559831	0.499805
C117	C	-0.099845	0.016006	-0.000196
C118	C	0.400155	0.516006	0.499804
O119	O	-0.120741	-0.021751	-0.000206
O120	O	0.379259	0.478249	0.499794
C121	C	0.101814	0.018058	-0.000194
C122	C	0.601814	0.518058	0.499806
C123	C	0.120938	0.062396	-0.000185
C124	C	0.620938	0.562396	0.499815
C125	C	0.108774	0.150552	-0.000181
C126	C	0.608774	0.650552	0.499819
C127	C	0.159186	0.151065	-0.000170
C128	C	0.659186	0.651065	0.499830
C129	C	0.190475	0.107243	-0.000167
C130	C	0.690475	0.607243	0.499833
C131	C	0.171350	0.062909	-0.000175
C132	C	0.671350	0.562909	0.499825
C133	C	0.133104	-0.025768	-0.000205
C134	C	0.633104	0.474232	0.499795
C135	C	0.183522	-0.025251	-0.000207
C136	C	0.683522	0.474749	0.499793
C137	C	0.202645	0.019087	-0.000199
C138	C	0.702645	0.519087	0.499801
C139	C	0.253051	0.019600	-0.000161
C140	C	0.753051	0.519600	0.499839
N141	N	0.272177	0.063934	-0.000166
N142	N	0.772177	0.563934	0.499834
C143	C	0.240889	0.107756	-0.000169
C144	C	0.740889	0.607756	0.499831
C145	C	-0.205719	0.014932	-0.000195
C146	C	0.294281	0.514932	0.499805
C147	C	-0.256133	0.014419	-0.000193
C148	C	0.243867	0.514419	0.499807
C149	C	-0.268296	0.102579	-0.000199
C150	C	0.231704	0.602579	0.499801
C151	C	-0.217880	0.103092	-0.000192
C152	C	0.282120	0.603092	0.499808
C153	C	-0.186593	0.059267	-0.000200
C154	C	0.313407	0.559267	0.499800
C155	C	0.346759	0.108830	-0.000146
C156	C	0.846759	0.608830	0.499854
C157	C	0.397177	0.109339	-0.000130
C158	C	0.897177	0.609339	0.499870
C159	C	0.409335	0.021179	-0.000130
C160	C	0.909335	0.521179	0.499870
C161	C	0.358922	0.020670	-0.000139
C162	C	0.858922	0.520670	0.499861
C163	C	0.327635	0.064499	-0.000152
C164	C	0.827635	0.564499	0.499848
O165	O	0.284335	-0.017598	-0.000115
O166	O	0.784335	0.482402	0.499885
O167	O	0.261793	0.145506	-0.000189
O168	O	0.761793	0.645506	0.499811
C169	C	0.039237	0.105705	-0.000199
C170	C	0.539237	0.605705	0.499801
C171	C	0.020113	0.061370	-0.000206
C172	C	0.520113	0.561370	0.499794
C173	C	0.051401	0.017548	-0.000203
C174	C	0.551401	0.517548	0.499797
C175	C	-0.030302	0.060857	-0.000204
C176	C	0.469698	0.560857	0.499796
C177	C	-0.061590	0.104679	-0.000207
C178	C	0.438410	0.604679	0.499793
C179	C	-0.042464	0.149013	-0.000212
C180	C	0.457536	0.649013	0.499788
C181	C	0.007949	0.149526	-0.000202
C182	C	0.507949	0.649526	0.499798
C183	C	0.032275	-0.026786	-0.000198
C184	C	0.532275	0.473214	0.499802
C185	C	-0.018138	-0.027295	-0.000207
C186	C	0.481862	0.472705	0.499793
C187	C	-0.049427	0.016526	-0.000210
C188	C	0.450573	0.516526	0.499790
C189	C	0.658924	0.057689	-0.000189
C190	C	1.158924	0.557689	0.499811
C191	C	0.712578	0.058241	-0.000196
C192	C	1.212578	0.558241	0.499804
C193	C	0.566337	0.150281	-0.000173
C194	C	1.066337	0.650281	0.499827
C195	C	0.566893	0.203936	-0.000177
C196	C	1.066893	0.703936	0.499823
N197	N	0.550896	0.042369	-0.353799
N198	N	1.050896	0.542369	0.146201
C199	C	0.574878	0.066211	-0.421587
C200	C	1.074878	0.566211	0.078413
C201	C	0.566166	0.057540	-0.578751
C202	C	1.066166	0.557540	-0.078751
N203	N	0.590151	0.081385	0.353464
N204	N	1.090151	0.581385	0.853464
H205	H	0.486965	-0.780345	-0.000177
H206	H	0.986965	-0.280345	0.499823
H207	H	-0.271698	-0.021684	-0.000179
H208	H	0.228302	0.478316	0.499821
H209	H	0.601861	0.093040	-0.363270
H210	H	1.101861	0.593040	0.136730
H211	H	0.539184	0.030705	-0.637063
H212	H	1.039184	0.530705	-0.137063
O213	O	0.481025	-0.683934	-0.000327
O214	O	0.981025	-0.183934	0.499673
C215	C	0.423889	-0.626473	-0.117961
C216	C	0.923889	-0.126473	0.382039
C217	C	0.472095	-0.660901	-0.117909
C218	C	0.972095	-0.160901	0.382091
H219	H	0.416648	-0.607849	-0.213030
H220	H	0.916648	-0.107849	0.286970
H221	H	0.427178	-0.597296	-0.023032
H222	H	0.927178	-0.097296	0.476968
H223	H	0.392130	-0.648816	-0.117898
H224	H	0.892130	-0.148816	0.382102
H225	H	0.503878	-0.638598	-0.118020
H226	H	1.003878	-0.138598	0.381980
H227	H	0.468764	-0.690078	-0.212830
H228	H	0.968764	-0.190078	0.287170
H229	H	0.617135	0.108217	-0.588226
H230	H	1.117135	0.608217	-0.088226
H231	H	0.208994	-0.060940	-0.000215
H232	H	0.708994	0.439060	0.499785
H233	H	0.445236	-0.542352	-0.000124
H234	H	0.945236	-0.042352	0.499876
H235	H	0.653151	-0.187349	-0.000148
H236	H	1.153151	0.312651	0.499852
H237	H	-0.067947	0.184695	-0.000209
H238	H	0.432053	0.684695	0.499791
H239	H	0.446770	-0.391115	-0.000114
H240	H	0.946770	0.108885	0.499886
H241	H	0.523917	0.015536	-0.412116
H242	H	1.023917	0.515536	0.087884
O243	O	0.653839	-0.807265	-0.000239
O244	O	1.153839	-0.307265	0.499761
C245	C	0.741342	-0.814014	-0.000131
C246	C	1.241342	-0.314014	0.499869
C247	C	0.693122	-0.779610	-0.000113
C248	C	1.193122	-0.279610	0.499887
H249	H	0.773116	-0.791667	0.000000
H250	H	1.273116	-0.291667	0.500000
H251	H	0.738070	-0.843155	-0.095142
H252	H	1.238070	-0.343155	0.404858
H253	H	0.748541	-0.832689	0.094843
H254	H	1.248541	-0.332689	0.594843
H255	H	0.685894	-0.760900	-0.095023
H256	H	1.185894	-0.260900	0.404977
H257	H	0.696417	-0.750498	0.094961
H258	H	1.196417	-0.250498	0.594961
O259	O	0.439231	-0.446058	-0.000185
O260	O	0.939231	0.053942	0.499815
C261	C	0.351739	-0.439330	-0.000111
C262	C	0.851739	0.060670	0.499889
C263	C	0.399973	-0.473715	-0.000063
C264	C	0.899973	0.026285	0.499937
H265	H	0.319989	-0.461676	0.000017
H266	H	0.819989	0.038324	0.500017
H267	H	0.344466	-0.420677	-0.095131
H268	H	0.844466	0.079323	0.404869
H269	H	0.355063	-0.410172	0.094854
H270	H	0.855063	0.089828	0.594854
H271	H	0.396686	-0.502900	-0.094963
H272	H	0.896686	-0.002900	0.405037
H273	H	0.407230	-0.492332	0.095021
H274	H	0.907230	0.007668	0.595021
H275	H	0.493198	-0.165287	-0.000147
H276	H	0.993198	0.334713	0.499853
O277	O	0.487223	-0.068945	0.000063
O278	O	0.987223	0.431055	0.500063
C279	C	0.418582	-0.036603	0.117747
C280	C	0.918582	0.463397	0.617747
C281	C	0.466797	-0.071014	0.117662
C282	C	0.966797	0.428986	0.617662
H283	H	0.402060	-0.038256	0.212830
H284	H	0.902060	0.461744	0.712830
H285	H	0.391437	-0.048752	0.022832
H286	H	0.891437	0.451248	0.522832
H287	H	0.426577	0.002705	0.117679
H288	H	0.926577	0.502705	0.617679
H289	H	0.458850	-0.110332	0.117778
H290	H	0.958850	0.389668	0.617778
H291	H	0.493928	-0.058823	0.212568
H292	H	0.993928	0.441177	0.712568
H293	H	0.694274	-0.485140	-0.000125
H294	H	1.194274	0.014860	0.499875
O295	O	0.661087	-0.092968	-0.000107
O296	O	1.161087	0.407032	0.499893
C297	C	0.748470	-0.110369	-0.000196
C298	C	1.248470	0.389631	0.499804
C299	C	0.699677	-0.131377	-0.000228
C300	C	1.199677	0.368623	0.499772
H301	H	0.779682	-0.141414	-0.000323
H302	H	1.279682	0.358586	0.499677
H303	H	0.756221	-0.081848	0.094818
H304	H	1.256221	0.418152	0.594818
H305	H	0.745621	-0.092293	-0.095166
H306	H	1.245621	0.407707	0.404834
H307	H	0.702490	-0.149478	0.094678
H308	H	1.202490	0.350522	0.594678
H309	H	0.691943	-0.159875	-0.095305
H310	H	1.191943	0.340125	0.404695
H311	H	-0.293780	0.138260	-0.000202
H312	H	0.206220	0.638260	0.499798
H313	H	0.693344	-0.576590	-0.000111
H314	H	1.193344	-0.076590	0.499889
O315	O	-0.036644	-0.070390	-0.000031
O316	O	0.463356	0.429610	0.499969
C317	C	-0.035166	-0.139402	0.117578
C318	C	0.464834	0.360598	0.617578
C319	C	-0.014160	-0.090613	0.117549
C320	C	0.485840	0.409387	0.617549
H321	H	-0.017004	-0.155762	0.212646
H322	H	0.482996	0.344238	0.712646
H323	H	-0.027499	-0.166304	0.022648
H324	H	0.472501	0.333696	0.522648
H325	H	-0.076576	-0.132240	0.117500
H326	H	0.423424	0.367760	0.617500
H327	H	0.027254	-0.097728	0.117676
H328	H	0.527254	0.402272	0.617676
H329	H	-0.021865	-0.063727	0.212471
H330	H	0.478135	0.436273	0.712471
O331	O	0.654784	-0.707871	-0.000001
O332	O	1.154784	-0.207871	0.499999
C333	C	0.713065	-0.651548	0.117654
C334	C	1.213065	-0.151548	0.617654
C335	C	0.664301	-0.672616	0.117594
C336	C	1.164301	-0.172616	0.617594
H337	H	0.720780	-0.623048	0.212734
H338	H	1.220780	-0.123048	0.712734
H339	H	0.710249	-0.633449	0.022736
H340	H	1.210249	-0.133449	0.522736
H341	H	0.744287	-0.682583	0.117575
H342	H	1.244287	-0.182583	0.617575
H343	H	0.633054	-0.641610	0.117721
H344	H	1.133054	-0.141610	0.617721
H345	H	0.667159	-0.690729	0.212504
H346	H	1.167159	-0.190729	0.712504
O347	O	0.440843	-0.294705	0.000148
O348	O	0.940843	0.205295	0.500148
C349	C	0.396807	-0.224216	0.117729
C350	C	0.896807	0.275784	0.617729
C351	C	0.445005	-0.258652	0.117618
C352	C	0.945005	0.241348	0.617618
H353	H	0.400160	-0.195053	0.212679
H354	H	0.900160	0.304947	0.712679
H355	H	0.365013	-0.246511	0.117823
H356	H	0.865013	0.253489	0.617823
H357	H	0.389577	-0.205571	0.022699
H358	H	0.889577	0.294429	0.522699
H359	H	0.452281	-0.277305	0.212633
H360	H	0.952281	0.222695	0.712633
H361	H	0.476772	-0.236333	0.117453
H362	H	0.976772	0.263667	0.617453
O363	O	0.702812	-0.330963	-0.000073
O364	O	1.202812	0.169037	0.499927
C365	C	0.790196	-0.348363	-0.000145
C366	C	1.290196	0.151637	0.499855
C367	C	0.741402	-0.369372	-0.000197
C368	C	1.241402	0.130628	0.499803
H369	H	0.821407	-0.379408	-0.000274
H370	H	1.321407	0.120592	0.499726
H371	H	0.797945	-0.319844	0.094878
H372	H	1.297945	0.180156	0.594878
H373	H	0.787350	-0.330282	-0.095107
H374	H	1.287350	0.169718	0.404893
H375	H	0.744212	-0.387477	0.094700
H376	H	1.244212	0.112523	0.594700
H377	H	0.733670	-0.397866	-0.095283
H378	H	1.233670	0.102134	0.404717
H379	H	0.694871	-0.425342	-0.000144
H380	H	1.194871	0.074658	0.499856
O381	O	0.415669	0.152451	-0.000186
O382	O	0.915669	0.652451	0.499814
C383	C	0.398280	0.239843	-0.000111
C384	C	0.898280	0.739843	0.499889
C385	C	0.377274	0.191055	-0.000076
C386	C	0.877274	0.691055	0.499924
H387	H	0.367250	0.271069	0.000007
H388	H	0.867250	0.771069	0.500007
H389	H	0.416293	0.237080	-0.095121
H390	H	0.916293	0.737080	0.404879
H391	H	0.426861	0.247502	0.094864
H392	H	0.926861	0.747502	0.594864
H393	H	0.348675	0.183366	-0.094987
H394	H	0.848675	0.683366	0.405013
H395	H	0.359293	0.193842	0.094996
H396	H	0.859293	0.693842	0.594996
H397	H	0.321290	0.144519	-0.000160
H398	H	0.821290	0.644519	0.499840
O399	O	-0.175336	-0.027642	0.000050
O400	O	0.324664	0.472358	0.500050
C401	C	-0.143028	-0.096363	0.117619
C402	C	0.356972	0.403637	0.617619
C403	C	-0.177442	-0.048150	0.117520
C404	C	0.322558	0.451850	0.617520
H405	H	-0.144727	-0.112963	0.212569
H406	H	0.355273	0.387037	0.712569
H407	H	-0.103693	-0.088414	0.117705
H408	H	0.396307	0.411586	0.617705
H409	H	-0.155214	-0.123423	0.022588
H410	H	0.344786	0.376577	0.522588
H411	H	-0.165301	-0.021067	0.212534
H412	H	0.334699	0.478933	0.712534
H413	H	-0.216770	-0.056137	0.117363
H414	H	0.283230	0.443863	0.617363
H415	H	0.057745	-0.062472	-0.000199
H416	H	0.557745	0.437528	0.499801
O417	O	0.177707	0.194178	0.000011
O418	O	0.677707	0.694178	0.500011
C419	C	0.189256	0.276167	0.117639
C420	C	0.689256	0.776167	0.617639
C421	C	0.168257	0.227369	0.117590
C422	C	0.668257	0.727369	0.617590
H423	H	0.181633	0.303012	0.212706
H424	H	0.681633	0.803012	0.712706
H425	H	0.171058	0.292595	0.022708
H426	H	0.671058	0.792595	0.522708
H427	H	0.230660	0.269006	0.117576
H428	H	0.730660	0.769006	0.617576
H429	H	0.126856	0.234489	0.117701
H430	H	0.626856	0.734489	0.617701
H431	H	0.186493	0.210955	0.212513
H432	H	0.686493	0.710955	0.712513
O433	O	0.078347	0.193104	0.000007
O434	O	0.578347	0.693104	0.500007
C435	C	0.020930	0.250202	0.117673
C436	C	0.520930	0.750202	0.617673
C437	C	0.055355	0.201994	0.117598
C438	C	0.555355	0.701994	0.617598
H439	H	0.002340	0.257411	0.212750
H440	H	0.502340	0.757411	0.712750
H441	H	-0.008280	0.246947	0.022752
H442	H	0.491720	0.746947	0.522752
H443	H	0.043275	0.281960	0.117613
H444	H	0.543275	0.781960	0.617613
H445	H	0.033052	0.170212	0.117706
H446	H	0.533052	0.670212	0.617706
H447	H	0.084566	0.205291	0.212511
H448	H	0.584566	0.705291	0.712511
H449	H	-0.202314	0.139196	-0.000192
H450	H	0.297686	0.639196	0.499808
H451	H	0.343352	-0.015433	-0.000127
H452	H	0.843352	0.484567	0.499873
O453	O	0.114612	-0.068885	-0.000286
O454	O	0.614612	0.431115	0.499714
C455	C	0.132020	-0.156270	-0.000245
C456	C	0.632020	0.343730	0.499755
C457	C	0.153024	-0.107472	-0.000177
C458	C	0.653024	0.392528	0.499823
H459	H	0.163068	-0.187479	-0.000127
H460	H	0.663068	0.312521	0.499873
H461	H	0.103472	-0.163989	-0.095267
H462	H	0.603472	0.336011	0.404733
H463	H	0.113971	-0.153460	0.094718
H464	H	0.613971	0.346540	0.594718
H465	H	0.171099	-0.110246	-0.095076
H466	H	0.671099	0.389754	0.404924
H467	H	0.181548	-0.099771	0.094908
H468	H	0.681548	0.400229	0.594908
H469	H	0.434819	-0.014499	-0.000123
H470	H	0.934819	0.485501	0.499877
O471	O	0.026572	0.192555	-0.000372
O472	O	0.526572	0.692555	0.499628
C473	C	0.069881	0.237833	-0.117980
C474	C	0.569881	0.737833	0.382020
C475	C	0.048826	0.189070	-0.117947
C476	C	0.548826	0.689070	0.382053
H477	H	0.087869	0.235035	-0.213043
H478	H	0.587869	0.735035	0.286957
H479	H	0.098474	0.245520	-0.023045
H480	H	0.598474	0.745520	0.476955
H481	H	0.038850	0.269058	-0.117913
H482	H	0.538850	0.769058	0.382087
H483	H	0.079823	0.157814	-0.118061
H484	H	0.579823	0.657814	0.381939
H485	H	0.020220	0.181425	-0.212873
H486	H	0.520220	0.681425	0.287127
