data_functionalizedCrystal
_audit_creation_method	'MofGen! by Chris Wilmer'
_symmetry_space_group_name_H-M	'P1'
_symmetry_Int_Tables_number	1
_symmetry_cell_setting	triclinic
loop_
_symmetry_equiv_pos_as_xyz
  x,y,z
_cell_length_a	10.489763
_cell_length_b	19.188930
_cell_length_c	8.965430
_cell_angle_alpha	89.995304
_cell_angle_beta	90.001949
_cell_angle_gamma	96.153429
loop_
_atom_site_label
_atom_site_type_symbol
_atom_site_fract_x
_atom_site_fract_y
_atom_site_fract_z
O1	O	-1.691833	0.098572	-0.123993
O2	O	-1.320434	0.107801	-0.124012
O3	O	-1.516851	0.001603	-0.123973
O4	O	-1.495416	0.204770	-0.124033
O5	O	-1.516835	0.001610	0.124106
O6	O	-1.320418	0.107808	0.124066
O7	O	-1.691816	0.098579	0.124085
Cu8	Cu	-1.506115	0.103194	0.146728
Cu9	Cu	-1.506135	0.103186	-0.146654
O10	O	-1.495399	0.204777	0.124046
C11	C	-1.272910	0.107104	0.000025
C12	C	-1.131329	0.105009	0.000019
C13	C	-1.064701	0.037430	0.000054
C14	C	-0.971869	0.069345	-0.122266
C15	C	-0.971887	0.069368	0.122320
C16	C	-1.040363	0.136952	-0.122403
C17	C	-1.040390	0.136965	0.122294
C18	C	-0.947585	0.168929	-0.000057
C19	C	-1.516149	-0.024409	0.000070
C20	C	-1.514065	-0.101928	0.000083
C21	C	-1.629316	-0.146074	0.000096
C22	C	-1.627358	-0.218911	0.000072
C23	C	-1.510143	-0.247598	0.000065
C24	C	-1.394877	-0.203442	0.000044
C25	C	-1.396838	-0.130606	0.000053
N26	N	-1.420540	-0.356205	0.084487
N27	N	-1.418686	-0.425396	0.084481
C28	C	-1.504228	-0.467047	0.000035
N29	N	-1.591715	-0.436894	-0.084388
N30	N	-1.593574	-0.367697	-0.084375
C31	C	-1.508004	-0.326575	0.000054
C32	C	-1.617364	-0.590172	0.000020
C33	C	-1.615402	-0.663010	-0.000014
C34	C	-1.382917	-0.647539	-0.000027
C35	C	-1.384883	-0.574703	-0.000009
C36	C	-1.502110	-0.546024	0.000022
C37	C	-0.739343	0.099265	0.000049
C38	C	-0.880932	0.101327	0.000057
C39	C	-1.496102	0.230789	-0.000001
C40	C	-1.498185	0.308308	-0.000023
N41	N	-1.506111	0.103200	0.353077
N42	N	-1.506150	0.103175	-0.353004
C43	C	-1.415247	0.152297	0.450364
C44	C	-1.530427	0.166429	0.549779
C45	C	-1.390980	0.089074	0.549789
C46	C	-1.621348	0.117364	0.450303
C47	C	-1.481826	0.039981	0.450304
C48	C	-1.597089	0.054087	0.549674
H49	H	-0.896918	0.224538	-0.000139
C50	C	-1.255781	-0.678811	0.000032
C51	C	-1.278729	-0.752047	0.000056
C52	C	-1.161639	-0.780880	0.000121
H53	H	-1.208255	-0.663766	-0.086458
H54	H	-1.208321	-0.663743	0.086575
H55	H	-1.326168	-0.767108	-0.086478
H56	H	-1.326236	-0.767110	0.086539
H57	H	-1.114179	-0.765812	0.086664
H58	H	-1.114121	-0.765831	-0.086370
H59	H	-1.177193	-0.830573	0.000151
H60	H	-1.674030	0.012554	0.593004
H61	H	-1.724772	-0.122729	0.000116
C62	C	-1.751105	0.133550	0.392256
C63	C	-1.735274	0.194532	0.305481
C64	C	-1.854769	0.209490	0.252020
H65	H	-1.787980	0.095552	0.333083
H66	H	-1.806023	0.140341	0.474040
H67	H	-1.680376	0.187737	0.223709
H68	H	-1.698419	0.232542	0.364623
H69	H	-1.909688	0.216281	0.333804
H70	H	-1.891636	0.171489	0.192853
H71	H	-1.844046	0.250871	0.193149
C72	C	-1.454621	-0.031297	0.391893
C73	C	-1.558609	-0.060218	0.306053
C74	C	-1.533584	-0.125882	0.252232
H75	H	-1.379500	-0.026094	0.332012
H76	H	-1.442250	-0.061432	0.473507
H77	H	-1.570965	-0.030091	0.224451
H78	H	-1.633742	-0.065439	0.365902
H79	H	-1.521213	-0.156016	0.333846
H80	H	-1.458461	-0.120671	0.192357
H81	H	-1.604139	-0.145515	0.193995
C82	C	-1.267482	-0.234449	-0.000040
C83	C	-1.166965	-0.180194	-0.000088
C84	C	-1.049587	-0.208730	-0.000194
H85	H	-1.261693	-0.262536	0.086444
H86	H	-1.261826	-0.262517	-0.086588
H87	H	-1.172618	-0.152138	0.086452
H88	H	-1.172712	-0.152103	-0.086565
H89	H	-1.043931	-0.236797	-0.086743
H90	H	-1.043811	-0.236816	0.086291
H91	H	-0.981372	-0.171922	-0.000241
H92	H	-1.291033	-0.538757	-0.000011
C93	C	-1.752453	-0.266889	-0.000209
C94	C	-1.758153	-0.309139	-0.127858
C95	C	-1.873376	-0.353336	-0.128174
H96	H	-1.756622	-0.295691	0.086201
H97	H	-1.822587	-0.239402	-0.000271
H98	H	-1.688038	-0.336623	-0.127782
H99	H	-1.754006	-0.280356	-0.214289
H100	H	-1.943510	-0.325850	-0.128237
H101	H	-1.877534	-0.382134	-0.041759
H102	H	-1.877264	-0.382004	-0.214789
H103	H	-1.302984	-0.094661	0.000043
H104	H	-1.070790	0.165539	0.225698
C105	C	-1.744669	-0.559066	-0.000283
C106	C	-1.814305	-0.581423	-0.127940
C107	C	-1.931575	-0.552776	-0.128285
H108	H	-1.792265	-0.574166	0.086121
H109	H	-1.729381	-0.509362	-0.000353
H110	H	-1.829597	-0.631117	-0.127856
H111	H	-1.766748	-0.566324	-0.214365
H112	H	-1.916287	-0.503071	-0.128355
H113	H	-1.979159	-0.567878	-0.041875
H114	H	-1.978832	-0.567935	-0.214904
H115	H	-1.338476	0.193855	0.406760
C116	C	-1.261013	0.073247	0.607847
C117	C	-1.166244	0.124817	0.557493
C118	C	-1.046499	0.110261	0.610921
H119	H	-1.262017	0.072944	0.713789
H120	H	-1.243057	0.028696	0.572276
H121	H	-1.184195	0.169357	0.593071
H122	H	-1.165199	0.125128	0.451557
H123	H	-1.028542	0.065710	0.575351
H124	H	-1.047516	0.109958	0.716863
H125	H	-0.982182	0.145245	0.576753
C126	C	-1.557599	0.237755	0.607973
C127	C	-1.462155	0.288969	0.557699
C128	C	-1.487125	0.354682	0.611287
H129	H	-1.638723	0.248216	0.572481
H130	H	-1.558135	0.237132	0.713933
H131	H	-1.461633	0.289593	0.451761
H132	H	-1.381021	0.278531	0.593187
H133	H	-1.487660	0.354059	0.717246
H134	H	-1.568251	0.365136	0.575790
H135	H	-1.422365	0.389437	0.577195
C136	C	-0.931374	0.031116	0.260037
C137	C	-0.870325	-0.026994	0.216310
C138	C	-0.833007	-0.062257	0.343124
H139	H	-0.873941	0.061855	0.317734
H140	H	-1.004918	0.015863	0.318016
H141	H	-0.796791	-0.011740	0.158355
H142	H	-0.927734	-0.057748	0.158630
H143	H	-0.906550	-0.077510	0.401103
H144	H	-0.775578	-0.031513	0.400812
H145	H	-0.791591	-0.101692	0.313473
C146	C	-0.931466	0.031085	-0.260007
C147	C	-0.991306	-0.037736	-0.259413
C148	C	-0.954110	-0.073008	-0.386259
H149	H	-0.956051	0.054558	-0.346985
H150	H	-0.841049	0.030360	-0.259461
H151	H	-1.081704	-0.037008	-0.259974
H152	H	-0.966729	-0.061228	-0.172464
H153	H	-0.863693	-0.073733	-0.385713
H154	H	-0.978697	-0.049529	-0.473227
H155	H	-0.994696	-0.119709	-0.385866
H156	H	-1.115632	-0.018120	-0.000083
H157	H	-1.070558	0.165521	-0.225934
H158	H	-1.709257	-0.698954	-0.000011
