data_functionalizedCrystal
_audit_creation_method	'MofGen! by Chris Wilmer'
_symmetry_space_group_name_H-M	'P1'
_symmetry_Int_Tables_number	1
_symmetry_cell_setting	triclinic
loop_
_symmetry_equiv_pos_as_xyz
  x,y,z
_cell_length_a	15.995343
_cell_length_b	15.995292
_cell_length_c	10.868271
_cell_angle_alpha	89.998057
_cell_angle_beta	90.000003
_cell_angle_gamma	83.478900
loop_
_atom_site_label
_atom_site_type_symbol
_atom_site_fract_x
_atom_site_fract_y
_atom_site_fract_z
O1	O	1.110967	0.107899	-0.102190
O2	O	1.610967	0.607899	0.397810
O3	O	0.867188	0.121234	-0.102218
O4	O	1.367188	0.621234	0.397782
O5	O	0.995767	-0.007325	-0.102205
O6	O	1.495767	0.492675	0.397795
O7	O	0.982388	0.236457	-0.102203
O8	O	1.482388	0.736457	0.397797
O9	O	0.995756	-0.007330	0.102439
O10	O	1.495756	0.492670	0.602439
O11	O	0.867177	0.121229	0.102426
O12	O	1.367177	0.621229	0.602426
O13	O	1.110956	0.107894	0.102455
O14	O	1.610956	0.607894	0.602455
Zn15	Zn	0.989065	0.114560	0.134932
Zn16	Zn	1.489065	0.614560	0.634932
Zn17	Zn	0.989079	0.114567	-0.134696
Zn18	Zn	1.489079	0.614567	0.365304
O19	O	0.982378	0.236452	0.102442
O20	O	1.482378	0.736452	0.602442
C21	C	0.835988	0.120681	0.000100
C22	C	1.335988	0.620681	0.500100
C23	C	0.743037	0.119032	0.000089
C24	C	1.243037	0.619032	0.500089
C25	C	0.572852	0.116038	0.000105
C26	C	1.072852	0.616038	0.500105
C27	C	0.549525	0.023238	0.000104
C28	C	1.049525	0.523238	0.500104
C29	C	0.452848	0.021493	0.000576
C30	C	0.952848	0.521493	0.500576
C31	C	0.405292	0.113089	0.000120
C32	C	0.905292	0.613089	0.500120
C33	C	0.434368	0.159748	0.116750
C34	C	0.934368	0.659748	0.616750
C35	C	0.531161	0.160848	0.116841
C36	C	1.031161	0.660848	0.616841
C37	C	0.531083	0.162213	-0.115886
C38	C	1.031083	0.662213	0.384114
C39	C	0.434589	0.158787	-0.117412
C40	C	0.934589	0.658787	0.382588
C41	C	0.310595	0.111428	0.000133
C42	C	0.810595	0.611428	0.500133
C43	C	0.667549	0.117702	0.000101
C44	C	1.167549	0.617702	0.500101
C45	C	0.995217	-0.038523	0.000114
C46	C	1.495217	0.461477	0.500114
C47	C	0.993584	-0.131476	0.000104
C48	C	1.493584	0.368524	0.500104
C49	C	0.987583	-0.469214	0.000115
C50	C	1.487583	0.030786	0.500115
C51	C	1.080388	-0.445904	0.000583
C52	C	1.580388	0.054096	0.500583
C53	C	1.082152	-0.349229	0.000118
C54	C	1.582152	0.150771	0.500118
C55	C	0.990561	-0.301658	0.000110
C56	C	1.490561	0.198342	0.500110
C57	C	0.944169	-0.330755	-0.116753
C58	C	1.444169	0.169245	0.383247
C59	C	0.943052	-0.427546	-0.116847
C60	C	1.443052	0.072454	0.383153
C61	C	0.941145	-0.427408	0.115872
C62	C	1.441145	0.072592	0.615872
C63	C	0.944584	-0.330916	0.117413
C64	C	1.444584	0.169084	0.617413
C65	C	0.992239	-0.206962	0.000104
C66	C	1.492239	0.293038	0.500104
C67	C	0.985902	-0.563910	0.000113
C68	C	1.485902	-0.063910	0.500113
C69	C	1.142156	0.108447	0.000133
C70	C	1.642156	0.608447	0.500133
C71	C	1.235107	0.110096	0.000137
C72	C	1.735107	0.610096	0.500137
C73	C	0.982927	0.267650	0.000120
C74	C	1.482927	0.767650	0.500120
C75	C	0.984560	0.360603	0.000121
C76	C	1.484560	0.860603	0.500121
N77	N	0.989062	0.114555	0.318946
N78	N	1.489062	0.614555	0.818946
N79	N	0.989089	0.114565	-0.318710
N80	N	1.489089	0.614565	0.181290
C81	C	0.989075	0.114565	0.569952
C82	C	1.489075	0.614565	1.069952
C83	C	0.989065	0.114562	0.430275
C84	C	1.489065	0.614562	0.930275
H85	H	0.416043	0.124809	-0.203697
H86	H	0.916043	0.624809	0.296303
H87	H	0.545082	0.230519	-0.117010
H88	H	1.045082	0.730519	0.382990
H89	H	0.401618	0.225622	-0.124815
H90	H	0.901618	0.725622	0.375185
F91	F	0.851858	-0.445693	0.116897
F92	F	1.351858	0.054307	0.616897
F93	F	0.408113	0.117899	0.230632
F94	F	0.908113	0.617899	0.730632
F95	F	1.129625	-0.324361	0.109628
F96	F	1.629625	0.175639	0.609628
H97	H	0.402508	0.227160	0.120761
H98	H	0.902508	0.727160	0.620761
F99	F	0.857201	-0.287823	0.126633
F100	F	1.357201	0.212177	0.626633
F101	F	0.428001	-0.026246	-0.108681
F102	F	0.928001	0.473754	0.391319
H103	H	0.970366	-0.455500	0.204454
H104	H	1.470366	0.044500	0.704454
H105	H	0.559363	0.132937	-0.204316
H106	H	1.059363	0.632937	0.295684
H107	H	0.978364	-0.312354	0.203867
H108	H	1.478364	0.187646	0.703867
F109	F	0.985063	-0.462598	-0.231018
F110	F	1.485063	0.037402	0.268982
H111	H	1.118708	-0.330823	-0.083793
H112	H	1.618708	0.169177	0.416207
H113	H	0.577545	-0.012729	-0.083519
H114	H	1.077545	0.487271	0.416481
F115	F	0.566177	0.119102	0.231227
F116	F	1.066177	0.619102	0.731227
F117	F	0.986289	-0.304538	-0.230424
F118	F	1.486289	0.195462	0.269576
H119	H	1.116155	-0.473905	0.084391
H120	H	1.616155	0.026095	0.584391
F121	F	1.126892	-0.483829	-0.108334
F122	F	1.626892	0.016171	0.391666
H123	H	0.875007	-0.442094	-0.122147
H124	H	1.375007	0.057906	0.377853
F125	F	0.856075	-0.289097	-0.122447
F126	F	1.356075	0.210903	0.377553
F127	F	0.428748	-0.026015	0.110505
F128	F	0.928748	0.473985	0.610505
F129	F	0.550193	0.249796	0.123348
F130	F	1.050193	0.749796	0.623348
F131	F	0.587411	-0.023016	0.109260
F132	F	1.087411	0.476984	0.609260
