data_functionalizedCrystal
_audit_creation_method	'MofGen! by Chris Wilmer'
_symmetry_space_group_name_H-M	'P1'
_symmetry_Int_Tables_number	1
_symmetry_cell_setting	triclinic
loop_
_symmetry_equiv_pos_as_xyz
  x,y,z
_cell_length_a	23.532407
_cell_length_b	17.699083
_cell_length_c	16.776229
_cell_angle_alpha	90.007545
_cell_angle_beta	90.001810
_cell_angle_gamma	83.065846
loop_
_atom_site_label
_atom_site_type_symbol
_atom_site_fract_x
_atom_site_fract_y
_atom_site_fract_z
O1	O	-0.755525	-0.091879	-0.066190
O2	O	-0.589700	-0.105173	-0.066214
O3	O	-0.677298	0.011687	-0.066194
O4	O	-0.667928	-0.208739	-0.066210
O5	O	-0.677286	0.011694	0.066382
O6	O	-0.589689	-0.105166	0.066363
O7	O	-0.755514	-0.091872	0.066386
Zn8	Zn	-0.672599	-0.098518	0.087424
Zn9	Zn	-0.672615	-0.098527	-0.087252
O10	O	-0.667916	-0.208732	0.066367
C11	C	-0.568478	-0.104831	0.000071
C12	C	-0.505258	-0.103813	0.000063
C13	C	-0.676956	0.039886	0.000094
C14	C	-0.675949	0.123899	0.000094
C15	C	-0.776737	-0.092214	0.000099
C16	C	-0.839957	-0.093232	0.000103
C17	C	-0.106335	-0.166585	0.000094
C18	C	-0.046932	-0.165639	0.000099
O19	O	-0.010354	-0.223829	0.000124
N20	N	-0.024106	-0.096166	0.000103
C21	C	-0.060687	-0.027634	0.000109
O22	O	-0.035817	0.031545	0.000114
C23	C	-0.120089	-0.028580	0.000110
C24	C	-0.142911	-0.098058	0.000099
C25	C	-0.129158	-0.236057	0.000084
C26	C	-0.188557	-0.237002	0.000077
C27	C	-0.225133	-0.168475	0.000081
C28	C	-0.202310	-0.099003	0.000092
C29	C	-0.156668	0.039951	0.000123
C30	C	-0.216073	0.038999	0.000124
C31	C	-0.238896	-0.030479	0.000112
C32	C	-0.298285	-0.031421	0.000090
N33	N	-0.321110	-0.100894	0.000086
C34	C	-0.284534	-0.169421	0.000082
C35	C	0.064061	-0.025652	0.000109
C36	C	0.123462	-0.024705	0.000103
C37	C	0.137213	-0.162710	0.000094
C38	C	0.077811	-0.163657	0.000095
C39	C	0.041236	-0.095125	0.000106
C40	C	-0.409277	-0.171401	0.000068
C41	C	-0.468682	-0.172340	0.000058
C42	C	-0.482427	-0.034335	0.000071
C43	C	-0.423028	-0.033395	0.000077
C44	C	-0.386453	-0.101935	0.000078
O45	O	-0.334897	0.026738	0.000068
O46	O	-0.309412	-0.228591	0.000088
C47	C	-0.668258	-0.236931	0.000077
C48	C	-0.669265	-0.320944	0.000071
N49	N	-0.672593	-0.098511	0.206635
C50	C	-0.727367	0.172781	0.000102
C51	C	-0.726417	0.251719	0.000095
C52	C	-0.674049	0.281774	0.000085
C53	C	-0.622627	0.232886	0.000074
C54	C	-0.623577	0.153949	0.000076
C55	C	-0.618793	0.551230	0.000067
C56	C	-0.617847	0.630173	0.000068
C57	C	-0.721633	0.649000	0.000087
C58	C	-0.722583	0.570063	0.000088
C59	C	-0.671162	0.521181	0.000073
C60	C	-0.672192	0.435587	0.000079
C61	C	-0.673018	0.367366	0.000085
N62	N	-0.672626	-0.098528	-0.206463
C63	C	-0.711393	-0.046787	0.248361
C64	C	-0.711396	-0.046786	0.331813
C65	C	-0.672602	-0.098514	0.373538
C66	C	-0.633798	-0.150241	0.331806
C67	C	-0.633792	-0.150237	0.248356
C68	C	-0.633818	-0.150256	0.668353
C69	C	-0.633828	-0.150257	0.751810
C70	C	-0.711422	-0.046804	0.751811
C71	C	-0.711417	-0.046801	0.668360
C72	C	-0.672611	-0.098525	0.626636
C73	C	-0.672607	-0.098524	0.536147
C74	C	-0.672608	-0.098519	0.464025
H75	H	-0.379504	-0.227212	0.000071
O76	O	-0.093576	-0.302581	-0.000032
C77	C	-0.058819	-0.306178	-0.068709
H78	H	-0.055882	-0.246128	-0.091589
H79	H	-0.014140	-0.334731	-0.053278
H80	H	-0.078330	-0.340583	-0.116794
O81	O	-0.210627	-0.304560	0.000111
C82	C	-0.165597	-0.364832	0.000091
H83	H	-0.125272	-0.343915	0.025189
H84	H	-0.177942	-0.413363	0.038583
H85	H	-0.157164	-0.385955	-0.063512
H86	H	-0.487260	-0.228920	0.000048
O87	O	-0.596215	-0.200579	0.792378
C88	C	-0.626647	-0.247062	0.840649
H89	H	-0.671552	-0.248045	0.815488
H90	H	-0.603321	-0.307375	0.841592
H91	H	-0.629675	-0.223354	0.903897
O92	O	-0.748981	0.003589	0.627807
C93	C	-0.718466	0.050078	0.579662
H94	H	-0.673903	0.019531	0.567100
H95	H	-0.742244	0.062392	0.521001
H96	H	-0.714578	0.105903	0.611949
H97	H	-0.765227	0.545597	0.000100
H98	H	0.142038	0.031871	0.000100
O99	O	-0.776417	0.299095	0.000144
C100	C	-0.822842	0.255641	0.000141
H101	H	-0.808301	0.196615	0.025237
H102	H	-0.858856	0.285038	0.038641
H103	H	-0.838910	0.250132	-0.063458
O104	O	-0.568806	0.503833	-0.000044
C105	C	-0.537015	0.517378	-0.068719
H106	H	-0.551088	0.577364	-0.091610
H107	H	-0.489508	0.511476	-0.053279
H108	H	-0.544741	0.474248	-0.116798
H109	H	-0.575200	0.654640	0.000062
O110	O	-0.749168	0.003481	0.792220
C111	C	-0.783397	0.049148	0.737496
H112	H	-0.783994	0.018118	0.678006
H113	H	-0.828893	0.061006	0.761602
H114	H	-0.764984	0.105248	0.728628
H115	H	-0.138097	0.096527	0.000133
H116	H	0.034284	0.030159	0.000111
H117	H	-0.602222	-0.192373	0.634388
H118	H	-0.763503	0.688809	0.000095
H119	H	-0.602208	-0.192357	0.365784
O120	O	0.055739	-0.231213	0.000124
C121	C	0.100766	-0.291488	0.000096
H122	H	0.141093	-0.270577	0.025195
H123	H	0.088420	-0.340022	0.038584
H124	H	0.109197	-0.312606	-0.063510
H125	H	-0.579988	0.257363	0.000061
H126	H	0.167004	-0.218509	0.000094
H127	H	-0.245851	0.094807	0.000133
O128	O	-0.400949	0.034160	0.000112
C129	C	-0.445973	0.094440	0.000087
H130	H	-0.486302	0.073538	0.025179
H131	H	-0.433624	0.142977	0.038582
H132	H	-0.454401	0.115549	-0.063517
H133	H	-0.602197	-0.192356	0.214383
O134	O	-0.573645	0.106431	-0.000071
C135	C	-0.571105	0.060188	-0.068725
H136	H	-0.600272	0.089316	-0.116710
H137	H	-0.525220	0.050961	-0.091782
H138	H	-0.585766	0.002895	-0.053199
H139	H	-0.742990	-0.004667	0.365786
O140	O	-0.778189	0.143462	0.000147
C141	C	-0.768005	0.063308	0.000127
H142	H	-0.723534	0.044436	0.025222
H143	H	-0.801506	0.039328	0.038621
H144	H	-0.770739	0.041346	-0.063476
O145	O	-0.749101	0.003536	0.207956
C146	C	-0.783356	0.049177	0.262684
H147	H	-0.760012	0.049871	0.322174
H148	H	-0.792128	0.109682	0.238584
H149	H	-0.825626	0.024886	0.271547
H150	H	-0.512218	0.021458	0.000072
