data_functionalizedCrystal
_audit_creation_method	'MofGen! by Chris Wilmer'
_symmetry_space_group_name_H-M	'P1'
_symmetry_Int_Tables_number	1
_symmetry_cell_setting	triclinic
loop_
_symmetry_equiv_pos_as_xyz
  x,y,z
_cell_length_a	19.377372
_cell_length_b	17.052862
_cell_length_c	17.052862
_cell_angle_alpha	61.493325
_cell_angle_beta	86.939559
_cell_angle_gamma	81.137717
loop_
_atom_site_label
_atom_site_type_symbol
_atom_site_fract_x
_atom_site_fract_y
_atom_site_fract_z
Zr1	Zr	0.747535	1.072668	-0.367978
O2	O	0.676305	1.176171	-0.480144
O3	O	0.753688	0.924054	-0.315166
O4	O	0.788251	1.053692	-0.483724
O5	O	0.632319	1.077232	-0.199586
O6	O	0.894395	1.090040	-0.507509
O7	O	0.641743	1.046532	-0.311586
O8	O	0.832569	0.858140	-0.205990
O9	O	0.694145	1.309132	-0.501105
O10	O	0.854475	1.029015	-0.332656
O11	O	0.768227	1.024800	-0.231321
O12	O	0.808920	1.177433	-0.429777
O13	O	0.722673	1.173218	-0.328442
Zr14	Zr	0.901794	1.179601	-0.227287
Zr15	Zr	0.916824	1.130639	-0.405913
Zr16	Zr	0.732505	1.121631	-0.189352
Zr17	Zr	0.775988	1.284726	-0.401410
Zr18	Zr	0.873341	0.967544	-0.193855
O19	O	0.895641	1.328216	-0.280099
O20	O	0.917011	1.258597	-0.534083
O21	O	0.654935	1.245789	-0.226160
O22	O	0.973024	1.076099	-0.115121
O23	O	0.994394	1.006480	-0.369105
O24	O	0.732318	0.993672	-0.061182
O25	O	1.017010	1.175037	-0.395679
O26	O	0.861078	1.198577	-0.111541
O27	O	0.754934	1.162230	-0.087756
O28	O	1.007586	1.205737	-0.283679
O29	O	0.828706	1.355210	-0.531259
O30	O	0.820623	0.897059	-0.064006
O31	O	0.955184	0.943138	-0.094159
O32	O	0.967131	0.904219	-0.236144
O33	O	0.682198	1.348050	-0.359121
O34	O	0.816760	1.394129	-0.389275
O35	O	0.840409	1.074837	-0.165488
O36	O	0.926656	1.079052	-0.266823
O37	O	0.881102	1.227469	-0.363944
O38	O	0.794854	1.223254	-0.262609
C39	C	0.789075	0.860883	-0.255815
C40	C	0.776996	0.770859	-0.241622
C41	C	0.612911	1.053623	-0.250181
C42	C	0.541044	1.029013	-0.234076
C43	C	0.923029	0.525902	-0.413211
C44	C	0.934376	0.610487	-0.426551
C45	C	0.895032	0.650584	-0.380320
C46	C	0.844339	0.606089	-0.320746
C47	C	0.832986	0.521499	-0.307410
C48	C	0.804990	0.646181	-0.274519
C49	C	0.754297	0.601686	-0.214945
C50	C	0.742947	0.517104	-0.201610
C51	C	0.782291	0.477007	-0.247842
C52	C	0.816343	0.730770	-0.287855
C53	C	0.726301	0.726367	-0.182054
C54	C	0.714953	0.641783	-0.168714
C55	C	0.185790	1.335425	-0.434588
C56	C	0.118266	1.312280	-0.419441
C57	C	0.165831	1.157344	-0.318056
C58	C	0.233360	1.180477	-0.333191
C59	C	0.243333	1.269519	-0.391459
C60	C	0.290903	1.114570	-0.290061
C61	C	0.358427	1.137700	-0.305199
C62	C	0.368407	1.226738	-0.363466
C63	C	0.310857	1.292649	-0.406597
C64	C	0.280929	1.025527	-0.231798
C65	C	0.338472	0.959620	-0.188668
C66	C	0.405997	0.982752	-0.203801
C67	C	0.415977	1.071789	-0.262068
C68	C	0.463547	0.916840	-0.160670
C69	C	0.531070	0.939971	-0.175808
C70	C	0.483500	1.094919	-0.277206
C71	C	1.036418	1.198647	-0.345084
C72	C	1.108285	1.223257	-0.361189
C73	C	0.843465	1.064890	-0.521067
C74	C	0.849845	1.044104	-0.596898
C75	C	0.860254	1.391386	-0.339450
C76	C	0.872333	1.481410	-0.353643
C77	C	0.772705	1.295407	-1.013441
C78	C	0.766706	1.314938	-0.942195
C79	C	0.787490	1.247231	-0.855868
C80	C	0.814274	1.159990	-0.840793
C81	C	0.820269	1.140455	-0.912045
C82	C	0.835055	1.092280	-0.754472
C83	C	0.861839	1.005038	-0.739397
C84	C	0.867833	0.985508	-0.810644
C85	C	0.847048	1.053214	-0.896971
C86	C	0.829060	1.111814	-0.683220
C87	C	0.876624	0.956863	-0.581824
C88	C	0.882623	0.937332	-0.653070
C89	C	0.805864	1.187380	-0.074198
C90	C	0.799484	1.208165	0.001634
C91	C	1.000829	0.933396	-0.303266
C92	C	1.060617	0.867982	-0.305178
C93	C	0.770275	0.922128	-0.032380
C94	C	0.751816	0.852890	0.057644
C95	C	0.982029	0.994640	-0.079832
C96	C	1.035436	0.950012	-0.005912
C97	C	0.667300	1.257629	-0.515433
C98	C	0.613893	1.302257	-0.589353
C99	C	0.648500	1.318874	-0.291999
C100	C	0.588712	1.384288	-0.290087
C101	C	0.879054	1.330141	-0.562885
C102	C	0.897513	1.399379	-0.652909
C103	C	1.051017	0.811142	-0.340447
C104	C	1.107191	0.749683	-0.342261
C105	C	1.172964	0.745062	-0.308799
C106	C	1.182563	0.801910	-0.273529
C107	C	1.126391	0.863371	-0.271722
C108	C	0.780824	0.846496	0.134292
C109	C	0.763478	0.781452	0.218885
C110	C	0.717126	0.722799	0.226828
C111	C	0.688114	0.729198	0.150171
C112	C	0.705457	0.794245	0.065580
C113	C	1.105545	0.931257	-0.024096
C114	C	1.155736	0.889337	0.045349
C115	C	1.135816	0.866166	0.132979
C116	C	1.065701	0.884926	0.151161
C117	C	1.015513	0.926852	0.081716
C118	C	0.543786	1.321023	-0.571170
C119	C	0.493598	1.362969	-0.640620
C120	C	0.513518	1.386144	-0.728250
C121	C	0.583632	1.367379	-0.746432
C122	C	0.633819	1.325438	-0.676984
C123	C	0.598314	1.441134	-0.254826
C124	C	0.542144	1.502611	-0.253036
C125	C	0.476372	1.507235	-0.286501
C126	C	0.466772	1.450384	-0.321767
C127	C	0.522942	1.388913	-0.323563
C128	C	0.943867	1.458015	-0.660823
C129	C	0.961225	1.523068	-0.745405
C130	C	0.932225	1.529487	-0.822072
C131	C	0.885868	1.470842	-0.814155
C132	C	0.868515	1.405787	-0.729574
H133	H	0.904274	0.719456	-0.391185
C134	C	1.234745	0.677444	-0.310782
H135	H	1.219600	0.644250	-0.336573
H136	H	1.270984	0.709215	-0.345357
H137	H	1.251756	0.637135	-0.251630
C138	C	0.670658	1.436061	-0.218017
H139	H	0.702741	1.391307	-0.224125
H140	H	0.686540	1.492907	-0.250469
H141	H	0.667323	1.420826	-0.156737
C142	C	0.416479	1.383594	-0.620603
H143	H	0.411806	1.363768	-0.558465
H144	H	0.401312	1.446721	-0.652870
H145	H	0.388742	1.352997	-0.638112
H146	H	0.703011	0.669838	0.295713
H147	H	1.099362	0.703401	-0.370981
H148	H	0.997469	0.814900	-0.367708
C149	C	0.795402	0.774420	0.303193
H150	H	0.825500	0.818658	0.286340
H151	H	0.759089	0.784188	0.338618
H152	H	0.821328	0.716073	0.336624
H153	H	0.515114	1.342626	-0.352273
H154	H	1.236123	0.798137	-0.246286
C155	C	1.012209	1.587574	-0.754101
H156	H	1.018401	1.627235	-0.815452
H157	H	0.993718	1.621693	-0.725124
H158	H	1.055970	1.553585	-0.727102
C159	C	0.951313	1.601056	-0.915104
H160	H	0.983068	1.635061	-0.908829
H161	H	0.972445	1.572088	-0.947937
H162	H	0.910197	1.640187	-0.945935
H163	H	0.650373	0.681434	0.156652
C164	C	1.136956	0.925880	-0.232910
H165	H	1.184172	0.914312	-0.213233
H166	H	1.126220	0.986990	-0.277627
H167	H	1.107004	0.914885	-0.183906
H168	H	0.807251	1.182847	-0.695502
H169	H	0.472646	1.420294	-0.784791
C170	C	1.043796	0.859437	0.247553
H171	H	0.994853	0.876614	0.248446
H172	H	1.055222	0.796127	0.284229
H173	H	1.067792	0.889858	0.269449
C174	C	0.327499	0.861681	-0.124574
H175	H	0.371443	0.825742	-0.101059
H176	H	0.298824	0.860260	-0.077091
H177	H	0.305471	0.838611	-0.156038
C178	C	0.673552	0.801266	-0.018729
H179	H	0.690511	0.848407	-0.070251
H180	H	0.686351	0.745814	-0.019964
H181	H	0.624102	0.813926	-0.017988
H182	H	0.851932	1.037317	-0.954990
C183	C	1.127466	0.956743	-0.120482
H184	H	1.087539	0.984394	-0.159246
H185	H	1.160473	0.997640	-0.138220
H186	H	1.147904	0.903910	-0.123445
C187	C	0.831801	0.911015	0.125573
H188	H	0.846580	0.897891	0.183345
H189	H	0.871262	0.903438	0.093014
H190	H	0.808998	0.971529	0.094999
C191	C	0.853967	1.477918	-0.898493
H192	H	0.870938	1.525071	-0.949994
H193	H	0.866756	1.422482	-0.899763
H194	H	0.804517	1.490592	-0.897760
H195	H	0.071413	1.365956	-0.454569
H196	H	0.782604	1.263139	-0.797858
H197	H	0.755781	1.350522	-1.083729
C198	C	0.605534	1.392865	-0.842825
H199	H	0.565598	1.420520	-0.881572
H200	H	0.638546	1.433757	-0.860581
H201	H	0.625958	1.340029	-0.845791
C202	C	0.710933	1.304787	-0.696993
H203	H	0.715601	1.324590	-0.759128
H204	H	0.738683	1.335370	-0.679490
H205	H	0.726085	1.241652	-0.664719
H206	H	1.212823	0.874065	0.030529
H207	H	0.744898	1.385970	-0.954475
C208	C	0.659189	0.592837	-0.103193
H209	H	0.658062	0.536723	-0.101880
H210	H	0.670349	0.582562	-0.045165
H211	H	0.614746	0.629028	-0.122128
C212	C	1.191028	0.820040	0.209361
H213	H	1.235633	0.812183	0.185975
H214	H	1.192049	0.856594	0.237229
H215	H	1.179470	0.762871	0.251995
H216	H	0.455416	0.844341	-0.113235
H217	H	0.577924	0.886307	-0.140674
C218	C	0.897287	0.889544	-0.794065
H219	H	0.897874	0.887606	-0.848860
H220	H	0.943485	0.873721	-0.769942
H221	H	0.868659	0.848103	-0.753172
H222	H	0.830768	1.358049	-0.723142
H223	H	0.857618	0.766991	-0.336361
C224	C	0.521863	1.295550	-0.474788
H225	H	0.472921	1.312750	-0.473920
H226	H	0.533271	1.232240	-0.438097
H227	H	0.545860	1.325969	-0.452891
H228	H	0.958427	0.942115	0.096535
C229	C	0.912077	0.841370	-0.636496
H230	H	0.912665	0.839436	-0.691293
H231	H	0.958276	0.825545	-0.612373
H232	H	0.883450	0.799927	-0.595606
H233	H	0.549974	1.548892	-0.224315
C234	C	0.683019	0.770461	-0.131195
H235	H	0.651195	0.731854	-0.093816
H236	H	0.713375	0.780137	-0.095721
H237	H	0.657772	0.826600	-0.172684
H238	H	0.413213	1.454159	-0.349013
H239	H	0.491618	1.167433	-0.324629
C240	C	0.442679	1.252188	-0.380123
H241	H	0.440377	1.314655	-0.421007
H242	H	0.463420	1.239630	-0.325353
H243	H	0.470059	1.217988	-0.404304
C244	C	0.414591	1.574852	-0.284517
H245	H	0.429734	1.608037	-0.258715
H246	H	0.397572	1.615157	-0.343661
H247	H	0.378356	1.543070	-0.249931
H248	H	0.157700	1.084845	-0.270616
C249	C	0.975776	1.450966	-0.576502
H250	H	1.005874	1.495203	-0.593342
H251	H	0.939459	1.460728	-0.541078
H252	H	1.001700	1.392617	-0.543074
H253	H	0.975649	0.646712	-0.475057
C254	C	0.899472	0.882377	-0.486867
H255	H	0.892067	0.906505	-0.446594
H256	H	0.872807	0.834542	-0.469341
H257	H	0.947638	0.860142	-0.486081
H258	H	0.773058	0.408129	-0.236979
C259	C	0.321832	1.390595	-0.470688
H260	H	0.277891	1.426538	-0.494211
H261	H	0.343867	1.413656	-0.439226
H262	H	0.350504	1.392014	-0.518178
C263	C	0.196766	1.433371	-0.498680
H264	H	0.152824	1.469314	-0.522203
H265	H	0.218800	1.456432	-0.467218
H266	H	0.225438	1.434790	-0.546170
C267	C	0.966297	0.481797	-0.464060
H268	H	0.952276	0.425048	-0.447581
H269	H	0.958854	0.519794	-0.526458
H270	H	1.014461	0.473324	-0.449499
H271	H	0.701664	0.480883	-0.153108
H272	H	0.225946	1.006696	-0.219481
