data_functionalizedCrystal
_audit_creation_method	'MofGen! by Chris Wilmer'
_symmetry_space_group_name_H-M	'P1'
_symmetry_Int_Tables_number	1
_symmetry_cell_setting	triclinic
loop_
_symmetry_equiv_pos_as_xyz
  x,y,z
_cell_length_a	10.489711
_cell_length_b	13.339070
_cell_length_c	11.804365
_cell_angle_alpha	74.887832
_cell_angle_beta	78.029186
_cell_angle_gamma	79.921848
loop_
_atom_site_label
_atom_site_type_symbol
_atom_site_fract_x
_atom_site_fract_y
_atom_site_fract_z
O1	O	1.761608	-0.122646	-0.099068
O2	O	1.395015	-0.136110	-0.099060
O3	O	1.536238	0.018188	-0.099060
O4	O	1.620385	-0.276943	-0.099068
O5	O	1.499045	-0.022391	0.098996
O6	O	1.357822	-0.176689	0.098995
O7	O	1.724415	-0.163225	0.098988
Cu8	Cu	1.537722	-0.173662	0.117076
Cu9	Cu	1.581708	-0.125672	-0.117148
O10	O	1.583192	-0.317523	0.098987
C11	C	1.328540	-0.155389	-0.000032
C12	C	1.185873	-0.152367	-0.000029
C13	C	1.035257	-0.245153	-0.000045
C14	C	1.129872	-0.178796	-0.097694
C15	C	1.093167	-0.218780	0.097574
C16	C	1.026310	-0.080551	-0.097783
C17	C	0.989583	-0.120566	0.097572
C18	C	1.084151	-0.054133	-0.000101
C19	C	1.503428	0.035690	-0.000033
C20	C	1.461060	0.148298	-0.000037
C21	C	1.790890	-0.143945	-0.000043
C22	C	1.933559	-0.146966	-0.000054
C23	C	1.616003	-0.335024	-0.000042
C24	C	1.658372	-0.447630	-0.000046
N25	N	1.506795	-0.207415	0.281816
C26	C	1.790494	0.510720	-0.000043
C27	C	1.830303	0.404918	-0.000033
C28	C	1.737995	0.340758	-0.000034
C29	C	1.605872	0.382410	-0.000045
C30	C	1.566058	0.488220	-0.000046
C31	C	1.513559	0.318258	-0.000038
C32	C	1.381436	0.359909	-0.000049
C33	C	1.341629	0.465709	-0.000051
C34	C	1.433936	0.529869	-0.000049
C35	C	1.553374	0.212448	-0.000036
C36	C	1.328938	0.189948	-0.000040
C37	C	1.289129	0.295749	-0.000050
N38	N	1.612643	-0.091912	-0.281889
C39	C	1.686904	-0.010839	0.655766
C40	C	1.710298	0.014699	0.531104
C41	C	1.659424	-0.040827	0.468776
C42	C	1.585153	-0.121896	0.531122
C43	C	1.561765	-0.147443	0.655796
C44	C	1.534285	-0.177430	0.468806
C45	C	1.460013	-0.258500	0.531152
C46	C	1.436629	-0.284041	0.655813
C47	C	1.487503	-0.228515	0.718141
C48	C	1.557672	-0.151884	0.344132
C49	C	1.432533	-0.288488	0.344162
C50	C	1.409139	-0.314026	0.468823
H51	H	1.660949	0.178546	-0.000027
H52	H	0.928845	-0.095972	0.180134
N53	N	1.972799	0.360008	-0.000021
H54	H	2.028717	0.398383	-0.073441
H55	H	1.983907	0.283245	0.000029
H56	H	1.770416	0.254610	-0.000025
N57	N	1.741785	0.049034	0.722987
H58	H	1.715702	0.020545	0.811422
H59	H	1.705647	0.125563	0.701213
H60	H	1.401530	0.616024	-0.000062
H61	H	0.996812	-0.022111	-0.180435
N62	N	1.356524	-0.371479	0.723059
H63	H	1.276486	-0.342878	0.774796
H64	H	1.411678	-0.427327	0.774704
N65	N	1.199130	0.510645	-0.000058
H66	H	1.163825	0.539000	0.073362
H67	H	1.146787	0.453909	-0.000106
N68	N	1.790400	0.102130	0.463862
H69	H	1.819078	0.133431	0.522260
H70	H	1.735278	0.157940	0.412147
N71	N	1.146629	0.340685	-0.000047
H72	H	1.090706	0.302315	0.073373
H73	H	1.118398	0.332396	-0.073514
N74	N	1.462268	-0.256062	0.852602
H75	H	1.505763	-0.208580	0.882620
H76	H	1.499613	-0.331282	0.882530
N77	N	1.132482	-0.296227	0.206933
H78	H	1.229075	-0.297242	0.206533
H79	H	1.115138	-0.368313	0.206773
N80	N	1.229363	0.120757	-0.000027
H81	H	1.274632	0.047411	-0.000026
H82	H	1.187184	0.149373	-0.073445
N83	N	1.890039	0.579912	-0.000021
H84	H	1.844764	0.653256	-0.000017
H85	H	1.959799	0.581383	-0.073438
H86	H	1.618144	-0.085878	0.293381
N87	N	1.329046	-0.401471	0.536068
H88	H	1.238210	-0.384651	0.514393
H89	H	1.322055	-0.409185	0.624478
H90	H	1.678474	-0.020030	0.367271
H91	H	1.391109	-0.333704	0.293415
H92	H	1.013213	-0.325835	-0.000145
H93	H	1.190593	-0.203430	-0.180248
H94	H	1.105964	0.026653	-0.000147
