data_functionalizedCrystal
_audit_creation_method	'MofGen! by Chris Wilmer'
_symmetry_space_group_name_H-M	'P1'
_symmetry_Int_Tables_number	1
_symmetry_cell_setting	triclinic
loop_
_symmetry_equiv_pos_as_xyz
  x,y,z
_cell_length_a	10.685980
_cell_length_b	16.120444
_cell_length_c	16.120256
_cell_angle_alpha	95.616860
_cell_angle_beta	88.280062
_cell_angle_gamma	97.501748
loop_
_atom_site_label
_atom_site_type_symbol
_atom_site_fract_x
_atom_site_fract_y
_atom_site_fract_z
Zn1	Zn	1.864187	-0.266960	-0.579451
Zn2	Zn	2.114187	-0.016960	-0.329451
Zn3	Zn	2.364187	0.233040	-0.079451
Zn4	Zn	2.614187	0.483040	0.170549
Zn5	Zn	1.864024	-0.399654	-0.446755
Zn6	Zn	2.114024	-0.149654	-0.196755
Zn7	Zn	2.364024	0.100346	0.053245
Zn8	Zn	2.614024	0.350346	0.303245
Zn9	Zn	1.664433	-0.269515	-0.430054
Zn10	Zn	1.914433	-0.019515	-0.180054
Zn11	Zn	2.164433	0.230485	0.069946
Zn12	Zn	2.414433	0.480485	0.319946
Zn13	Zn	1.641835	-0.417403	-0.575753
Zn14	Zn	1.891835	-0.167403	-0.325753
Zn15	Zn	2.141835	0.082597	-0.075753
Zn16	Zn	2.391835	0.332597	0.174247
O17	O	1.758620	-0.338383	-0.508003
O18	O	2.008620	-0.088383	-0.258003
O19	O	2.258620	0.161617	-0.008003
O20	O	2.508620	0.411617	0.241997
O21	O	2.040750	-0.276065	-0.570386
O22	O	2.290750	-0.026065	-0.320386
O23	O	2.540750	0.223935	-0.070386
O24	O	2.790750	0.473935	0.179614
O25	O	1.846938	-0.376032	-0.328030
O26	O	2.096938	-0.126032	-0.078030
O27	O	2.346938	0.123968	0.171970
O28	O	2.596938	0.373968	0.421970
O29	O	1.700456	-0.151751	-0.444430
O30	O	1.950456	0.098249	-0.194430
O31	O	2.200456	0.348249	0.055570
O32	O	2.450456	0.598249	0.305570
O33	O	2.040630	-0.373555	-0.472895
O34	O	2.290630	-0.123555	-0.222895
O35	O	2.540630	0.126445	0.027105
O36	O	2.790630	0.376445	0.277105
O37	O	1.847214	-0.149874	-0.554192
O38	O	2.097214	0.100126	-0.304192
O39	O	2.347214	0.350126	-0.054192
O40	O	2.597214	0.600126	0.195808
O41	O	1.700299	-0.280419	-0.315760
O42	O	1.950299	-0.030419	-0.065760
O43	O	2.200299	0.219581	0.184240
O44	O	2.450299	0.469581	0.434240
O45	O	1.484851	-0.297630	-0.440844
O46	O	1.734851	-0.047630	-0.190844
O47	O	1.984851	0.202370	0.059156
O48	O	2.234851	0.452370	0.309156
O49	O	1.661941	-0.403806	-0.692753
O50	O	1.911941	-0.153806	-0.442753
O51	O	2.161941	0.096194	-0.192753
O52	O	2.411941	0.346194	0.057247
O53	O	1.468248	-0.406283	-0.547888
O54	O	1.718248	-0.156283	-0.297888
O55	O	1.968248	0.093717	-0.047888
O56	O	2.218248	0.343717	0.202112
O57	O	1.825302	-0.293276	-0.695470
O58	O	2.075302	-0.043276	-0.445470
O59	O	2.325302	0.206724	-0.195470
O60	O	2.575302	0.456724	0.054530
O61	O	1.825025	-0.519434	-0.469308
O62	O	2.075025	-0.269434	-0.219308
O63	O	2.325025	-0.019434	0.030692
O64	O	2.575025	0.230566	0.280692
O65	O	1.661784	-0.532474	-0.564082
O66	O	1.911784	-0.282474	-0.314082
O67	O	2.161784	-0.032474	-0.064082
O68	O	2.411784	0.217526	0.185918
C69	C	1.430763	-0.354160	-0.492153
C70	C	1.680763	-0.104160	-0.242153
C71	C	1.930763	0.145840	0.007847
C72	C	2.180763	0.395840	0.257847
C73	C	1.290502	-0.360931	-0.485392
C74	C	1.540502	-0.110931	-0.235392
C75	C	1.790502	0.139069	0.014608
C76	C	2.040502	0.389069	0.264608
C77	C	1.740967	-0.556400	-0.518126
C78	C	1.990967	-0.306400	-0.268126
C79	C	2.240967	-0.056400	-0.018126
C80	C	2.490967	0.193600	0.231874
C81	C	1.733529	-0.649664	-0.522490
C82	C	1.983529	-0.399664	-0.272490
C83	C	2.233529	-0.149664	-0.022490
C84	C	2.483529	0.100336	0.227510
C85	C	1.797503	-0.855491	-0.485559
C86	C	2.047503	-0.605491	-0.235559
C87	C	2.297503	-0.355491	0.014441
C88	C	2.547503	-0.105491	0.264441
C89	C	1.719970	-0.820413	-0.530468
C90	C	1.969970	-0.570413	-0.280468
C91	C	2.219970	-0.320413	-0.030468
C92	C	2.469970	-0.070413	0.219532
C93	C	1.727516	-0.725400	-0.526028
C94	C	1.977516	-0.475400	-0.276028
C95	C	2.227516	-0.225400	-0.026028
C96	C	2.477516	0.024600	0.223972
C97	C	1.789958	-0.950513	-0.489998
C98	C	2.039958	-0.700513	-0.239998
C99	C	2.289958	-0.450513	0.010002
C100	C	2.539958	-0.200513	0.260002
C101	C	2.087757	-0.322545	-0.523916
C102	C	2.337757	-0.072545	-0.273916
C103	C	2.587757	0.177455	-0.023916
C104	C	2.837757	0.427455	0.226084
C105	C	2.228015	-0.315796	-0.530697
C106	C	2.478015	-0.065796	-0.280697
C107	C	2.728015	0.184204	-0.030697
C108	C	2.978015	0.434204	0.219303
C109	C	1.741119	-0.350236	-0.725166
C110	C	1.991119	-0.100236	-0.475166
C111	C	2.241119	0.149764	-0.225166
C112	C	2.491119	0.399764	0.024834
C113	C	1.733661	-0.355287	-0.817707
C114	C	1.983661	-0.105287	-0.567707
C115	C	2.233661	0.144713	-0.317707
C116	C	2.483661	0.394713	-0.067707
C117	C	1.776374	-0.119514	-0.497861
C118	C	2.026374	0.130486	-0.247861
C119	C	2.276374	0.380486	0.002139
C120	C	2.526374	0.630486	0.252139
C121	C	1.783940	-0.026246	-0.493538
C122	C	2.033940	0.223754	-0.243538
C123	C	2.283940	0.473754	0.006462
C124	C	2.533940	0.723754	0.256462
C125	C	1.797512	-0.312022	-1.029715
C126	C	2.047512	-0.062022	-0.779715
C127	C	2.297512	0.187978	-0.529715
C128	C	2.547512	0.437978	-0.279715
C129	C	1.720005	-0.364475	-0.987133
C130	C	1.970005	-0.114475	-0.737133
C131	C	2.220005	0.135525	-0.487133
C132	C	2.470005	0.385525	-0.237133
C133	C	1.727605	-0.359361	-0.892856
C134	C	1.977605	-0.109361	-0.642856
C135	C	2.227605	0.140639	-0.392856
C136	C	2.477605	0.390639	-0.142856
C137	C	1.789913	-0.317135	-1.124001
C138	C	2.039913	-0.067135	-0.874001
C139	C	2.289913	0.182865	-0.624001
C140	C	2.539913	0.432865	-0.374001
C141	C	1.776130	-0.326513	-0.291686
C142	C	2.026130	-0.076513	-0.041686
C143	C	2.276130	0.173487	0.208314
C144	C	2.526130	0.423487	0.458314
C145	C	1.783852	-0.321214	-0.199146
C146	C	2.033852	-0.071214	0.050854
C147	C	2.283852	0.178786	0.300854
C148	C	2.533852	0.428786	0.550854
H149	H	1.647924	-0.861739	-0.572250
H150	H	1.897924	-0.611739	-0.322250
H151	H	2.147924	-0.361739	-0.072250
H152	H	2.397924	-0.111739	0.177750
C153	C	1.622657	-0.430335	-1.033527
C154	C	1.872657	-0.180335	-0.783527
C155	C	2.122657	0.069665	-0.533527
C156	C	2.372657	0.319665	-0.283527
H157	H	1.575023	-0.462571	-0.994410
H158	H	1.825023	-0.212571	-0.744410
H159	H	2.075023	0.037429	-0.494410
H160	H	2.325023	0.287429	-0.244410
H161	H	1.665286	-0.466375	-1.071492
H162	H	1.915286	-0.216375	-0.821492
H163	H	2.165286	0.033625	-0.571492
H164	H	2.415286	0.283625	-0.321492
H165	H	1.567591	-0.402684	-1.063292
H166	H	1.817591	-0.152684	-0.813292
H167	H	2.067591	0.097316	-0.563292
H168	H	2.317591	0.347316	-0.313292
C169	C	1.217815	-0.420139	-0.426003
C170	C	1.467815	-0.170139	-0.176003
C171	C	1.717815	0.079861	0.073997
C172	C	1.967815	0.329861	0.323997
H173	H	1.129915	-0.417084	-0.429099
H174	H	1.379915	-0.167084	-0.179099
H175	H	1.629915	0.082916	0.070901
H176	H	1.879915	0.332916	0.320901
H177	H	1.244843	-0.403697	-0.370533
H178	H	1.494843	-0.153697	-0.120533
H179	H	1.744843	0.096303	0.129467
H180	H	1.994843	0.346303	0.379467
H181	H	1.233829	-0.476172	-0.441752
H182	H	1.483829	-0.226172	-0.191752
H183	H	1.733829	0.023828	0.058248
H184	H	1.983829	0.273828	0.308248
C185	C	1.894861	-0.246172	-0.983322
C186	C	2.144861	0.003828	-0.733322
C187	C	2.394861	0.253828	-0.483322
C188	C	2.644861	0.503828	-0.233322
H189	H	1.942490	-0.213928	-1.022434
H190	H	2.192490	0.036072	-0.772434
H191	H	2.442490	0.286072	-0.522434
H192	H	2.692490	0.536072	-0.272434
H193	H	1.949912	-0.273825	-0.953554
H194	H	2.199912	-0.023825	-0.703554
H195	H	2.449912	0.226175	-0.453554
H196	H	2.699912	0.476175	-0.203554
H197	H	1.852227	-0.210127	-0.945358
H198	H	2.102227	0.039873	-0.695358
H199	H	2.352227	0.289873	-0.445358
H200	H	2.602227	0.539873	-0.195358
C201	C	1.300690	-0.256593	-0.590088
C202	C	1.550690	-0.006593	-0.340088
C203	C	1.800690	0.243407	-0.090088
C204	C	2.050690	0.493407	0.159912
H205	H	1.242684	-0.229181	-0.617599
H206	H	1.492684	0.020819	-0.367599
H207	H	1.742684	0.270819	-0.117599
H208	H	1.992684	0.520819	0.132401
H209	H	1.346604	-0.288269	-0.630255
H210	H	1.596604	-0.038269	-0.380255
H211	H	1.846604	0.211731	-0.130255
H212	H	2.096604	0.461731	0.119745
H213	H	1.357613	-0.215789	-0.559041
H214	H	1.607613	0.034211	-0.309041
H215	H	1.857613	0.284211	-0.059041
H216	H	2.107613	0.534211	0.190959
C217	C	1.894813	-0.799670	-0.429110
C218	C	2.144813	-0.549670	-0.179110
C219	C	2.394813	-0.299670	0.070890
C220	C	2.644813	-0.049670	0.320890
H221	H	1.887168	-0.742210	-0.433489
H222	H	2.137168	-0.492210	-0.183489
H223	H	2.387168	-0.242210	0.066511
H224	H	2.637168	0.007790	0.316511
H225	H	1.977495	-0.810499	-0.446081
H226	H	2.227495	-0.560499	-0.196081
H227	H	2.477495	-0.310499	0.053919
H228	H	2.727495	-0.060499	0.303919
H229	H	1.879788	-0.811849	-0.372925
H230	H	2.129788	-0.561849	-0.122925
H231	H	2.379788	-0.311849	0.127075
H232	H	2.629788	-0.061849	0.377075
