data_functionalizedCrystal
_audit_creation_method	'MofGen! by Chris Wilmer'
_symmetry_space_group_name_H-M	'P1'
_symmetry_Int_Tables_number	1
_symmetry_cell_setting	triclinic
loop_
_symmetry_equiv_pos_as_xyz
  x,y,z
_cell_length_a	12.759401
_cell_length_b	12.759400
_cell_length_c	12.759393
_cell_angle_alpha	90.030447
_cell_angle_beta	90.018496
_cell_angle_gamma	90.013326
loop_
_atom_site_label
_atom_site_type_symbol
_atom_site_fract_x
_atom_site_fract_y
_atom_site_fract_z
Zn1	Zn	1.606267	-0.418200	0.593990
Zn2	Zn	2.106267	0.081800	1.093990
Zn3	Zn	1.606166	-0.593919	0.418313
Zn4	Zn	2.106166	-0.093919	0.918313
Zn5	Zn	1.430569	-0.418255	0.418329
Zn6	Zn	1.930569	0.081745	0.918329
Zn7	Zn	1.430562	-0.593838	0.593955
Zn8	Zn	1.930562	-0.093838	1.093955
O9	O	1.518391	-0.506053	0.506147
O10	O	2.018391	-0.006053	1.006147
O11	O	1.753274	-0.441520	0.570694
O12	O	2.253274	0.058480	1.070694
O13	O	1.582833	-0.570673	0.271294
O14	O	2.082833	-0.070673	0.771294
O15	O	1.453920	-0.271226	0.441652
O16	O	1.953920	0.228774	0.941652
O17	O	1.753200	-0.570620	0.441625
O18	O	2.253200	-0.070620	0.941625
O19	O	1.583005	-0.271186	0.570709
O20	O	2.083005	0.228814	1.070709
O21	O	1.453822	-0.441614	0.271306
O22	O	1.953822	0.058386	0.771306
O23	O	1.283547	-0.441535	0.441618
O24	O	1.783547	0.058465	0.941618
O25	O	1.453909	-0.570482	0.740980
O26	O	1.953909	-0.070482	1.240980
O27	O	1.283542	-0.570536	0.570649
O28	O	1.783542	-0.070536	1.070649
O29	O	1.582998	-0.441442	0.741006
O30	O	2.082998	0.058558	1.241006
O31	O	1.582826	-0.740929	0.441591
O32	O	2.082826	-0.240929	0.941591
O33	O	1.453811	-0.740870	0.570634
O34	O	1.953811	-0.240870	1.070634
C35	C	1.245423	-0.506033	0.506132
C36	C	1.745423	-0.006033	1.006132
C37	C	1.128647	-0.506050	0.506151
C38	C	1.628647	-0.006050	1.006151
C39	C	1.518336	-0.779020	0.506130
C40	C	2.018336	-0.279020	1.006130
C41	C	1.518408	-0.895797	0.506158
C42	C	2.018408	-0.395797	1.006158
C43	C	1.073810	-0.573328	0.573227
C44	C	1.573810	-0.073328	1.073227
C45	C	0.964086	-0.573342	0.573238
C46	C	1.464086	-0.073342	1.073238
C47	C	0.964045	-0.438796	0.439089
C48	C	1.464045	0.061204	0.939089
C49	C	1.073767	-0.438778	0.439084
C50	C	1.573767	0.061222	0.939084
C51	C	1.128689	-0.640600	0.640294
C52	C	1.628689	-0.140600	1.140294
C53	C	1.073852	-0.707885	0.707374
C54	C	1.573852	-0.207885	1.207374
C55	C	0.964128	-0.707898	0.707385
C56	C	1.464128	-0.207898	1.207385
C57	C	0.909241	-0.640627	0.640316
C58	C	1.409241	-0.140627	1.140316
C59	C	1.585589	-0.950558	0.573413
C60	C	2.085589	-0.450558	1.073413
C61	C	1.585638	-1.060282	0.573439
C62	C	2.085638	-0.560282	1.073439
C63	C	1.451322	-1.060474	0.438945
C64	C	1.951322	-0.560474	0.938945
C65	C	1.451269	-0.950752	0.438926
C66	C	1.951269	-0.450752	0.938926
C67	C	1.652728	-0.895603	0.640645
C68	C	2.152728	-0.395603	1.140645
C69	C	1.719915	-0.950364	0.707905
C70	C	2.219915	-0.450364	1.207905
C71	C	1.719964	-1.060088	0.707931
C72	C	2.219964	-0.560088	1.207931
C73	C	1.652826	-1.115051	0.640697
C74	C	2.152826	-0.615051	1.140697
C75	C	1.792424	-0.506073	0.506161
C76	C	2.292424	-0.006073	1.006161
C77	C	1.909201	-0.506082	0.506168
C78	C	2.409201	-0.006082	1.006168
C79	C	1.518464	-0.505947	0.780180
C80	C	2.018464	-0.005947	1.280180
C81	C	1.518496	-0.505902	0.896957
C82	C	2.018496	-0.005902	1.396957
C83	C	1.518475	-0.232019	0.506186
C84	C	2.018475	0.267981	1.006186
C85	C	1.518510	-0.115243	0.506203
C86	C	2.018510	0.384757	1.006203
C87	C	1.518378	-0.506083	0.233179
C88	C	2.018378	-0.006083	0.733179
C89	C	1.518550	-0.505832	0.116403
C90	C	2.018550	-0.005832	0.616403
C91	C	1.585722	-0.438704	0.951834
C92	C	2.085722	0.061296	1.451834
C93	C	1.585747	-0.438666	1.061558
C94	C	2.085747	0.061334	1.561558
C95	C	1.451316	-0.573033	1.061518
C96	C	1.951316	-0.073033	1.561518
C97	C	1.451287	-0.573064	0.951796
C98	C	1.951287	-0.073064	1.451796
C99	C	1.652930	-0.371541	0.896994
C100	C	2.152930	0.128459	1.396994
C101	C	1.720163	-0.304339	0.951872
C102	C	2.220163	0.195661	1.451872
C103	C	1.720188	-0.304301	1.061596
C104	C	2.220188	0.195699	1.561596
C105	C	1.652980	-0.371465	1.116443
C106	C	2.152980	0.128535	1.616443
H107	H	1.118548	-0.762647	0.761985
H108	H	1.618548	-0.262647	1.261985
O109	O	1.378820	-0.891675	0.366381
O110	O	1.878820	-0.391675	0.866381
H111	H	1.332156	-0.948320	0.319620
H112	H	1.832156	-0.448320	0.819620
O113	O	1.132915	-0.366219	0.366730
O114	O	1.632915	0.133781	0.866730
H115	H	1.182918	-0.312808	0.413844
H116	H	1.682918	0.187192	0.913844
H117	H	1.774662	-1.104672	0.762705
H118	H	2.274662	-0.604672	1.262705
O119	O	1.792697	-0.231824	1.120791
O120	O	2.292697	0.268176	1.620791
H121	H	1.839428	-0.185136	1.064220
H122	H	2.339428	0.314864	1.564220
O123	O	0.790894	-0.640651	0.640336
O124	O	1.290894	-0.140651	1.140336
H125	H	0.761973	-0.561441	0.661716
H126	H	1.261973	-0.061441	1.161716
H127	H	1.396662	-1.105233	0.384206
H128	H	1.896662	-0.605233	0.884206
H129	H	1.774874	-0.249649	0.907208
H130	H	2.274874	0.250351	1.407208
O131	O	1.792328	-0.891093	0.780419
O132	O	2.292328	-0.391093	1.280419
H133	H	1.781018	-0.805596	0.769096
H134	H	2.281018	-0.305596	1.269096
O135	O	1.652673	-0.777259	0.640615
O136	O	2.152673	-0.277259	1.140615
H137	H	1.710639	-0.748242	0.698667
H138	H	2.210639	-0.248242	1.198667
O139	O	1.652896	-0.371580	0.778650
O140	O	2.152896	0.128420	1.278650
H141	H	1.710917	-0.313585	0.749734
H142	H	2.210917	0.186415	1.249734
H143	H	1.652859	-1.204396	0.640735
H144	H	2.152859	-0.704396	1.140735
H145	H	1.218032	-0.640599	0.640290
H146	H	1.718032	-0.140599	1.140290
H147	H	1.652994	-0.371417	1.205788
H148	H	2.152994	0.128583	1.705788
H149	H	0.919482	-0.762676	0.762012
H150	H	1.419482	-0.262676	1.262012
O151	O	1.378832	-0.645471	1.120669
O152	O	1.878832	-0.145471	1.620669
H153	H	1.425849	-0.698920	1.170642
H154	H	1.925849	-0.198920	1.670642
O155	O	0.904853	-0.366272	0.366724
O156	O	1.404853	0.133728	0.866724
H157	H	0.819344	-0.377603	0.377982
H158	H	1.319344	0.122397	0.877982
O159	O	1.378780	-0.645538	0.892595
O160	O	1.878780	-0.145538	1.392595
H161	H	1.332060	-0.692245	0.949159
H162	H	1.832060	-0.192245	1.449159
