data_functionalizedCrystal
_audit_creation_method	'MofGen! by Chris Wilmer'
_symmetry_space_group_name_H-M	'P1'
_symmetry_Int_Tables_number	1
_symmetry_cell_setting	triclinic
loop_
_symmetry_equiv_pos_as_xyz
  x,y,z
_cell_length_a	16.992694
_cell_length_b	14.519709
_cell_length_c	16.053802
_cell_angle_alpha	92.569364
_cell_angle_beta	87.249047
_cell_angle_gamma	87.174184
loop_
_atom_site_label
_atom_site_type_symbol
_atom_site_fract_x
_atom_site_fract_y
_atom_site_fract_z
O1	O	1.043963	0.191936	-0.069327
O2	O	1.543963	0.691936	0.430673
O3	O	0.815676	0.189789	-0.069352
O4	O	1.315676	0.689789	0.430648
O5	O	0.935872	0.057059	-0.069332
O6	O	1.435872	0.557059	0.430668
O7	O	0.923768	0.324666	-0.069348
O8	O	1.423768	0.824666	0.430652
O9	O	0.929256	0.064333	0.069526
O10	O	1.429256	0.564333	0.569526
O11	O	0.809060	0.197063	0.069506
O12	O	1.309060	0.697063	0.569506
O13	O	1.037348	0.199210	0.069530
O14	O	1.537348	0.699210	0.569530
Zn15	Zn	0.922154	0.199291	0.091565
Zn16	Zn	1.422154	0.699291	0.591565
Zn17	Zn	0.930870	0.189708	-0.091386
Zn18	Zn	1.430870	0.689708	0.408614
O19	O	0.917152	0.331940	0.069510
O20	O	1.417152	0.831940	0.569510
C21	C	0.783152	0.190666	0.000074
C22	C	1.283152	0.690666	0.500074
C23	C	0.696097	0.182430	0.000065
C24	C	1.196097	0.682430	0.500065
C25	C	0.645968	0.261890	0.000061
C26	C	1.145968	0.761890	0.500061
C27	C	0.564170	0.254147	0.000073
C28	C	1.064170	0.754147	0.500073
C29	C	0.532503	0.166943	0.000083
C30	C	1.032503	0.666943	0.500083
C31	C	0.582638	0.087478	0.000089
C32	C	1.082638	0.587478	0.500089
C33	C	0.664434	0.095222	0.000083
C34	C	1.164434	0.595222	0.500083
C35	C	0.288859	0.134847	0.000107
C36	C	0.788859	0.634847	0.500107
C37	C	0.207056	0.127109	0.000111
C38	C	0.707056	0.627109	0.500111
C39	C	0.188594	0.293779	0.000095
C40	C	0.688594	0.793779	0.500095
C41	C	0.270393	0.301515	0.000084
C42	C	0.770393	0.801515	0.500084
C43	C	0.320520	0.222050	0.000095
C44	C	0.820520	0.722050	0.500095
N45	N	0.448892	0.159027	0.000092
N46	N	0.948892	0.659027	0.500092
N47	N	0.404129	0.229968	0.000092
N48	N	0.904129	0.729968	0.500092
C49	C	0.932000	0.026296	0.000097
C50	C	1.432000	0.526296	0.500097
C51	C	0.930309	-0.076207	0.000098
C52	C	1.430309	0.423793	0.500098
C53	C	0.924087	-0.451551	0.000075
C54	C	1.424087	0.048449	0.500075
C55	C	0.925815	-0.347118	0.000082
C56	C	1.425815	0.152882	0.500082
C57	C	0.927198	-0.263882	0.000087
C58	C	1.427198	0.236118	0.500087
C59	C	0.928926	-0.159443	0.000092
C60	C	1.428926	0.340557	0.500092
C61	C	1.069872	0.198333	0.000103
C62	C	1.569872	0.698333	0.500103
C63	C	1.156927	0.206569	0.000106
C64	C	1.656927	0.706569	0.500106
C65	C	0.921024	0.362703	0.000079
C66	C	1.421024	0.862703	0.500079
C67	C	0.922715	0.465206	0.000073
C68	C	1.422715	0.965206	0.500073
N69	N	0.916210	0.205832	0.216424
N70	N	1.416210	0.705832	0.716424
N71	N	0.936820	0.183161	-0.216246
N72	N	1.436820	0.683161	0.283754
C73	C	0.967373	0.149377	0.260127
C74	C	1.467373	0.649377	0.760127
C75	C	0.963222	0.153962	0.347533
C76	C	1.463222	0.653962	0.847533
C77	C	0.907913	0.215006	0.391235
C78	C	1.407913	0.715006	0.891235
C79	C	0.856746	0.271462	0.347526
C80	C	1.356746	0.771462	0.847526
C81	C	0.860893	0.266872	0.260121
C82	C	1.360893	0.766872	0.760121
C83	C	0.889799	0.235027	0.652641
C84	C	1.389799	0.735027	1.152641
C85	C	0.885658	0.239615	0.740052
C86	C	1.385658	0.739615	1.240052
C87	C	0.992134	0.122113	0.740053
C88	C	1.492134	0.622113	1.240053
C89	C	0.996279	0.117533	0.652646
C90	C	1.496279	0.617533	1.152646
C91	C	0.945109	0.173985	0.608945
C92	C	1.445109	0.673985	1.108945
N93	N	0.903672	0.219695	0.480578
N94	N	1.403672	0.719695	0.980578
N95	N	0.949347	0.169291	0.519604
N96	N	1.449347	0.669291	1.019604
H97	H	0.523358	0.318852	0.000068
H98	H	1.023358	0.818852	0.500068
H99	H	0.840616	0.289328	0.775630
H100	H	1.340616	0.789328	1.275630
H101	H	0.705249	0.030517	0.000086
H102	H	1.205249	0.530517	0.500086
O103	O	1.049666	0.057921	0.610069
O104	O	1.549666	0.557921	1.110069
C105	C	1.042170	0.065748	0.523553
C106	C	1.542170	0.565748	1.023553
H107	H	1.013978	0.136465	0.511485
H108	H	1.513978	0.636465	1.011485
H109	H	1.103008	0.057474	0.490141
H110	H	1.603008	0.557474	0.990141
H111	H	1.003467	0.009637	0.499073
H112	H	1.503467	0.509637	0.999073
H113	H	1.033794	0.076151	0.775642
H114	H	1.533794	0.576151	1.275642
H115	H	1.012414	0.099673	0.224550
H116	H	1.512414	0.599673	0.724550
H117	H	0.848135	0.280995	0.617067
H118	H	1.348135	0.780995	1.117067
O119	O	1.013012	0.099097	0.389856
O120	O	1.513012	0.599097	0.889856
C121	C	1.062712	0.044228	0.332541
C122	C	1.562712	0.544228	0.832541
H123	H	1.066594	0.078836	0.270228
H124	H	1.566594	0.578836	0.770228
H125	H	1.124120	0.036159	0.357785
H126	H	1.624120	0.536159	0.857785
H127	H	1.037613	-0.026679	0.323264
H128	H	1.537613	0.473321	0.823264
O129	O	0.803087	0.330738	0.390104
O130	O	1.303087	0.830738	0.890104
C131	C	0.810385	0.322671	0.476622
C132	C	1.310385	0.822671	0.976622
H133	H	0.872114	0.293463	0.488556
H134	H	1.372114	0.793463	0.988556
H135	H	0.800181	0.393615	0.509828
H136	H	1.300181	0.893615	1.009828
H137	H	0.764762	0.274413	0.501442
H138	H	1.264762	0.774413	1.001442
O139	O	0.176260	0.042409	-0.000022
O140	O	0.676260	0.542409	0.499978
C141	C	0.132900	0.029183	-0.071925
C142	C	0.632900	0.529183	0.428075
H143	H	0.154706	0.076163	-0.122198
H144	H	0.654706	0.576163	0.377802
H145	H	0.141277	-0.045876	-0.096052
H146	H	0.641277	0.454124	0.403948
H147	H	0.067656	0.046567	-0.055667
H148	H	0.567656	0.546567	0.444333
O149	O	0.811160	0.321808	0.217795
O150	O	1.311160	0.821808	0.717795
C151	C	0.761441	0.376656	0.275108
C152	C	1.261441	0.876656	0.775108
H153	H	0.790636	0.383363	0.337408
H154	H	1.290636	0.883363	0.837408
H155	H	0.750775	0.448097	0.249842
H156	H	1.250775	0.948097	0.749842
H157	H	0.702708	0.342862	0.284418
H158	H	1.202708	0.842862	0.784418
H159	H	0.671745	0.332900	0.000052
H160	H	1.171745	0.832900	0.500052
H161	H	0.296170	0.372525	0.000066
H162	H	0.796170	0.872525	0.500066
H163	H	0.329663	0.070141	0.000117
H164	H	0.829663	0.570141	0.500117
H165	H	0.147771	0.358475	0.000088
H166	H	0.647771	0.858475	0.500088
O167	O	0.551750	0.002836	0.000064
O168	O	1.051750	0.502836	0.500064
C169	C	0.468804	0.013038	0.000087
C170	C	0.968804	0.513038	0.500087
H171	H	0.450946	0.082221	-0.026207
H172	H	0.950946	0.582221	0.473793
H173	H	0.445530	-0.045239	-0.040221
H174	H	0.945530	0.454761	0.459779
H175	H	0.442865	0.010382	0.066705
H176	H	0.942865	0.510382	0.566705
