data_functionalizedCrystal
_audit_creation_method	'MofGen! by Chris Wilmer'
_symmetry_space_group_name_H-M	'P1'
_symmetry_Int_Tables_number	1
_symmetry_cell_setting	triclinic
loop_
_symmetry_equiv_pos_as_xyz
  x,y,z
_cell_length_a	15.297475
_cell_length_b	18.050589
_cell_length_c	18.050582
_cell_angle_alpha	89.981088
_cell_angle_beta	80.320135
_cell_angle_gamma	80.331321
loop_
_atom_site_label
_atom_site_type_symbol
_atom_site_fract_x
_atom_site_fract_y
_atom_site_fract_z
Zn1	Zn	1.379120	-0.492492	-0.616078
Zn2	Zn	1.712453	-0.159159	-0.282744
Zn3	Zn	2.045786	0.174175	0.050589
Zn4	Zn	1.379009	-0.616661	-0.491881
Zn5	Zn	1.712342	-0.283328	-0.158548
Zn6	Zn	2.045675	0.050006	0.174785
Zn7	Zn	1.228267	-0.470980	-0.470447
Zn8	Zn	1.561600	-0.137646	-0.137114
Zn9	Zn	1.894934	0.195687	0.196219
Zn10	Zn	1.228206	-0.595110	-0.594582
Zn11	Zn	1.561539	-0.261777	-0.261249
Zn12	Zn	1.894873	0.071556	0.072084
O13	O	1.303650	-0.543811	-0.543247
O14	O	1.636984	-0.210477	-0.209914
O15	O	1.970317	0.122856	0.123419
O16	O	1.505349	-0.526985	-0.617569
O17	O	1.838682	-0.193652	-0.284236
O18	O	2.172015	0.139681	0.049098
O19	O	1.358992	-0.597352	-0.385111
O20	O	1.692325	-0.264019	-0.051777
O21	O	2.025658	0.069315	0.281556
O22	O	1.248350	-0.369919	-0.489791
O23	O	1.581683	-0.036586	-0.156458
O24	O	1.915016	0.296748	0.176876
O25	O	1.505267	-0.618212	-0.526323
O26	O	1.838600	-0.284878	-0.192989
O27	O	2.171934	0.048455	0.140344
O28	O	1.359180	-0.385724	-0.596785
O29	O	1.692514	-0.052391	-0.263452
O30	O	2.025847	0.280943	0.069881
O31	O	1.248242	-0.490320	-0.369363
O32	O	1.581576	-0.156987	-0.036030
O33	O	1.914909	0.176346	0.297304
O34	O	1.102015	-0.469424	-0.468948
O35	O	1.435348	-0.136090	-0.135614
O36	O	1.768682	0.197243	0.197719
O37	O	1.248246	-0.581482	-0.701361
O38	O	1.581579	-0.248149	-0.368028
O39	O	1.914913	0.085185	-0.034695
O40	O	1.101970	-0.560622	-0.560149
O41	O	1.435304	-0.227289	-0.226816
O42	O	1.768637	0.106045	0.106517
O43	O	1.359121	-0.506089	-0.717154
O44	O	1.692455	-0.172755	-0.383821
O45	O	2.025788	0.160578	-0.050487
O46	O	1.358933	-0.717717	-0.505479
O47	O	1.692266	-0.384383	-0.172146
O48	O	2.025599	-0.051050	0.161187
O49	O	1.248139	-0.701883	-0.580933
O50	O	1.581472	-0.368550	-0.247600
O51	O	1.914805	-0.035217	0.085733
C52	C	1.069259	-0.510351	-0.509891
C53	C	1.402593	-0.177017	-0.176557
C54	C	1.735926	0.156316	0.156776
C55	C	0.968986	-0.496054	-0.495638
C56	C	1.302319	-0.162721	-0.162305
C57	C	1.635652	0.170613	0.171029
C58	C	0.686338	-0.645995	-0.645114
C59	C	1.019671	-0.312662	-0.311781
C60	C	1.353005	0.020671	0.021553
C61	C	0.780550	-0.659433	-0.658503
C62	C	1.113883	-0.326100	-0.325170
C63	C	1.447217	0.007233	0.008164
C64	C	0.827664	-0.618589	-0.617788
C65	C	1.160997	-0.285256	-0.284455
C66	C	1.494330	0.048077	0.048879
C67	C	0.780556	-0.564306	-0.563682
C68	C	1.113889	-0.230973	-0.230348
C69	C	1.447222	0.102361	0.102985
C70	C	0.686335	-0.550871	-0.550287
C71	C	1.019668	-0.217538	-0.216954
C72	C	1.353001	0.115796	0.116379
C73	C	0.827660	-0.523465	-0.522961
C74	C	1.160993	-0.190132	-0.189628
C75	C	1.494327	0.143202	0.143705
C76	C	0.780552	-0.469181	-0.468855
C77	C	1.113886	-0.135848	-0.135521
C78	C	1.447219	0.197485	0.197812
C79	C	0.686340	-0.455748	-0.455463
C80	C	1.019674	-0.122415	-0.122130
C81	C	1.353007	0.210918	0.211203
C82	C	0.639227	-0.496592	-0.496178
C83	C	0.972560	-0.163259	-0.162845
C84	C	1.305894	0.170075	0.170489
C85	C	0.921881	-0.536900	-0.536356
C86	C	1.255215	-0.203567	-0.203022
C87	C	1.588548	0.129767	0.130311
C88	C	0.921878	-0.441775	-0.441529
C89	C	1.255211	-0.108442	-0.108196
C90	C	1.588545	0.224891	0.225138
C91	C	0.827666	-0.428338	-0.428140
C92	C	1.160999	-0.095004	-0.094807
C93	C	1.494333	0.238329	0.238527
C94	C	1.303541	-0.736747	-0.543219
C95	C	1.636875	-0.403414	-0.209886
C96	C	1.970208	-0.070081	0.123447
C97	C	1.303577	-0.819298	-0.543244
C98	C	1.636911	-0.485965	-0.209911
C99	C	1.970244	-0.152632	0.123423
C100	C	1.243387	-1.010174	-0.584267
C101	C	1.576720	-0.676841	-0.250934
C102	C	1.910053	-0.343508	0.082400
C103	C	1.221401	-1.056472	-0.513373
C104	C	1.554734	-0.723138	-0.180039
C105	C	1.888068	-0.389805	0.153294
C106	C	1.303666	-0.970441	-0.543266
C107	C	1.636999	-0.637108	-0.209933
C108	C	1.970333	-0.303775	0.123400
C109	C	1.325696	-1.071232	-0.614175
C110	C	1.659030	-0.737898	-0.280841
C111	C	1.992363	-0.404565	0.052492
C112	C	1.303750	-1.116438	-0.543294
C113	C	1.637083	-0.783105	-0.209960
C114	C	1.970417	-0.449772	0.123373
C115	C	1.281637	-1.015645	-0.472330
C116	C	1.614970	-0.682312	-0.138997
C117	C	1.948303	-0.348979	0.194337
C118	C	1.385970	-1.030406	-0.573183
C119	C	1.719304	-0.697073	-0.239850
C120	C	2.052637	-0.363740	0.093484
C121	C	1.364016	-1.076686	-0.502247
C122	C	1.697349	-0.743353	-0.168913
C123	C	2.030682	-0.410019	0.164420
C124	C	1.303615	-0.886336	-0.543251
C125	C	1.636949	-0.553002	-0.209918
C126	C	1.970282	-0.219669	0.123415
C127	C	1.303801	-1.200542	-0.543301
C128	C	1.637134	-0.867209	-0.209968
C129	C	1.970467	-0.533875	0.123366
C130	C	1.538957	-0.577402	-0.576735
C131	C	1.872290	-0.244069	-0.243401
C132	C	2.205623	0.089265	0.089932
C133	C	1.639230	-0.591717	-0.591005
C134	C	1.972564	-0.258383	-0.257672
C135	C	2.305897	0.074950	0.075662
C136	C	1.303689	-0.543781	-0.736958
C137	C	1.637023	-0.210448	-0.403625
C138	C	1.970356	0.122886	-0.070292
C139	C	1.303706	-0.543768	-0.819507
C140	C	1.637039	-0.210435	-0.486173
C141	C	1.970373	0.122898	-0.152840
C142	C	1.303784	-0.350124	-0.543295
C143	C	1.637118	-0.016791	-0.209962
C144	C	1.970451	0.316542	0.123372
C145	C	1.303841	-0.267587	-0.543315
C146	C	1.637175	0.065747	-0.209982
C147	C	1.970508	0.399080	0.123351
C148	C	1.243468	-0.584694	-1.059752
C149	C	1.576802	-0.251361	-0.726419
C150	C	1.910135	0.081972	-0.393086
C151	C	1.221432	-0.513813	-1.007225
C152	C	1.554765	-0.180479	-0.673892
C153	C	1.888099	0.152854	-0.340559
C154	C	1.303782	-0.543670	-1.116638
C155	C	1.637116	-0.210337	-0.783305
C156	C	1.970449	0.122997	-0.449971
C157	C	1.325738	-0.614590	-1.022072
C158	C	1.659071	-0.281257	-0.688739
C159	C	1.992405	0.052076	-0.355405
C160	C	1.303743	-0.543722	-0.970647
C161	C	1.637076	-0.210388	-0.637314
C162	C	1.970409	0.122945	-0.303981
C163	C	1.281704	-0.472746	-1.065192
C164	C	1.615037	-0.139413	-0.731859
C165	C	1.948371	0.193921	-0.398526
C166	C	1.386048	-0.573575	-1.080049
C167	C	1.719381	-0.240242	-0.746715
C168	C	2.052715	0.093092	-0.413382
C169	C	1.364043	-0.502651	-1.027548
C170	C	1.697377	-0.169318	-0.694215
C171	C	2.030710	0.164016	-0.360882
C172	C	1.303803	-0.543641	-1.200739
C173	C	1.637136	-0.210308	-0.867406
C174	C	1.970469	0.123026	-0.534073
C175	C	1.303722	-0.543743	-0.886548
C176	C	1.637055	-0.210410	-0.553214
C177	C	1.970389	0.122924	-0.219881
C178	C	1.303663	-0.543794	-0.350297
C179	C	1.636997	-0.210461	-0.016964
C180	C	1.970330	0.122872	0.316370
C181	C	1.303822	-0.543623	-0.267774
C182	C	1.637155	-0.210289	0.065559
C183	C	1.970488	0.123044	0.398893
H184	H	0.647988	-0.411555	-0.411399
H185	H	0.981321	-0.078221	-0.078065
H186	H	1.314655	0.255112	0.255268
H187	H	1.344326	-0.674546	-1.003024
H188	H	1.677659	-0.341213	-0.669691
H189	H	2.010993	-0.007879	-0.336358
H190	H	1.262957	-0.991414	-0.412347
H191	H	1.596290	-0.658081	-0.079014
H192	H	1.929623	-0.324748	0.254320
H193	H	0.960237	-0.408518	-0.408374
H194	H	1.293571	-0.075185	-0.075041
H195	H	1.626904	0.258149	0.258292
H196	H	1.192336	-0.981242	-0.618870
H197	H	1.525669	-0.647909	-0.285537
H198	H	1.859002	-0.314575	0.047797
H199	H	1.263038	-0.412763	-1.084139
H200	H	1.596371	-0.079430	-0.750805
H201	H	1.929704	0.253904	-0.417472
H202	H	0.904375	-0.629534	-0.628693
H203	H	1.237709	-0.296200	-0.295360
H204	H	1.571042	0.037133	0.037974
H205	H	1.415032	-0.467932	-1.013268
H206	H	1.748366	-0.134598	-0.679934
H207	H	2.081699	0.198735	-0.346601
H208	H	1.455615	-0.598867	-1.111663
H209	H	1.788949	-0.265534	-0.778329
H210	H	2.122282	0.067799	-0.444996
H211	H	1.151838	-1.068326	-0.488090
H212	H	1.485171	-0.734993	-0.154757
H213	H	1.818505	-0.401659	0.178577
H214	H	1.455517	-1.018552	-0.598496
H215	H	1.788851	-0.685219	-0.265163
H216	H	2.122184	-0.351885	0.068171
H217	H	1.415028	-1.105475	-0.467537
H218	H	1.748361	-0.772142	-0.134204
H219	H	2.081695	-0.438809	0.199130
H220	H	0.562512	-0.485653	-0.485281
H221	H	0.895845	-0.152319	-0.151948
H222	H	1.229178	0.181014	0.181385
H223	H	1.151845	-0.488538	-0.975624
H224	H	1.485178	-0.155204	-0.642291
H225	H	1.818511	0.178129	-0.308958
H226	H	1.344296	-1.095541	-0.674131
H227	H	1.677629	-0.762208	-0.340797
H228	H	2.010963	-0.428874	-0.007464
H229	H	1.192441	-0.619307	-1.074166
H230	H	1.525774	-0.285973	-0.740832
H231	H	1.859107	0.047360	-0.407499
H232	H	0.818898	-0.703633	-0.702555
H233	H	1.152232	-0.370299	-0.369222
H234	H	1.485565	-0.036966	-0.035888
H235	H	0.647970	-0.679249	-0.678254
H236	H	0.981303	-0.345916	-0.344920
H237	H	1.314636	-0.012582	-0.011587
H238	H	0.789297	-0.384139	-0.384086
H239	H	1.122631	-0.050806	-0.050752
H240	H	1.455964	0.282527	0.282581
H241	H	0.960227	-0.581098	-0.580410
H242	H	1.293561	-0.247764	-0.247077
H243	H	1.626894	0.085569	0.086257
