data_functionalizedCrystal
_audit_creation_method	'MofGen! by Chris Wilmer'
_symmetry_space_group_name_H-M	'P1'
_symmetry_Int_Tables_number	1
_symmetry_cell_setting	triclinic
loop_
_symmetry_equiv_pos_as_xyz
  x,y,z
_cell_length_a	8.497365
_cell_length_b	19.077105
_cell_length_c	19.077068
_cell_angle_alpha	89.884684
_cell_angle_beta	87.757695
_cell_angle_gamma	87.667444
loop_
_atom_site_label
_atom_site_type_symbol
_atom_site_fract_x
_atom_site_fract_y
_atom_site_fract_z
Zn1	Zn	-1.016643	1.063117	0.322780
Zn2	Zn	-0.762966	1.058273	0.440339
Zn3	Zn	-0.741872	0.945575	0.318128
Zn4	Zn	-1.015696	0.940852	0.435521
O5	O	-0.884294	1.001954	0.379192
O6	O	-0.992217	1.160807	0.342337
O7	O	-0.539407	1.043272	0.424197
O8	O	-0.769889	0.965172	0.220417
O9	O	-0.805842	1.157248	0.428707
O10	O	-0.971763	1.051529	0.223834
O11	O	-0.523909	0.960474	0.334409
O12	O	-0.768970	0.846616	0.329738
O13	O	-1.236582	0.957122	0.420496
O14	O	-0.970148	0.843146	0.415986
O15	O	-1.237279	1.046950	0.337665
O16	O	-0.804923	1.038692	0.538028
O17	O	-0.990602	0.952424	0.534489
C18	C	-0.867168	0.819385	0.371835
C19	C	-0.859880	0.741280	0.368705
C20	C	-0.899985	0.994539	0.561754
C21	C	-0.906756	0.991431	0.639858
C22	C	-0.961046	0.702795	0.412207
C23	C	-0.954205	0.629408	0.409256
C24	C	-0.846189	0.594506	0.362807
C25	C	-0.745019	0.632996	0.319300
C26	C	-0.751869	0.706383	0.322248
C27	C	-0.814495	0.375217	0.349166
C28	C	-0.807650	0.301826	0.346223
C29	C	-1.016838	0.298242	0.436179
C30	C	-1.023672	0.371630	0.439125
C31	C	-0.922508	0.410114	0.395616
N32	N	-0.839191	0.519493	0.359792
N33	N	-0.929515	0.485126	0.398628
C34	C	-0.474416	1.001901	0.379266
C35	C	-0.295770	1.002007	0.379126
C36	C	-0.901489	1.185237	0.386578
C37	C	-0.908816	1.263341	0.389725
C38	C	-0.868579	1.009418	0.195917
C39	C	-0.861882	1.012598	0.117817
C40	C	-0.813351	1.034921	0.678372
C41	C	-0.819730	1.032002	0.751758
C42	C	-0.919506	0.985589	0.786630
C43	C	-1.012922	0.942097	0.748110
C44	C	-1.006550	0.945020	0.674725
C45	C	-0.948926	0.972030	1.005912
C46	C	-0.955287	0.969108	1.079303
C47	C	-0.762096	1.059014	1.082946
C48	C	-0.755727	1.061930	1.009559
C49	C	-0.849148	1.018441	0.971046
N50	N	-0.926025	0.982602	0.861642
N51	N	-0.842637	1.021432	0.896035
H52	H	-1.048999	0.731206	0.450033
H53	H	-0.669497	0.737716	0.286820
H54	H	-0.686040	1.094422	1.114311
H55	H	-1.036565	0.931322	1.107693
H56	H	-0.732109	0.406542	0.313743
H57	H	-1.024990	0.936618	0.974561
H58	H	-1.036583	0.598076	0.444681
H59	H	-0.732096	1.072712	0.649985
H60	H	-0.743668	1.067416	0.783113
H61	H	-1.111626	0.400042	0.476951
H62	H	-0.674481	1.099724	0.981168
H63	H	-1.094169	0.904310	0.776509
H64	H	-1.082613	0.909607	0.643368
H65	H	-0.657078	0.604574	0.281477
H66	H	-1.099203	0.266901	0.471601
H67	H	-0.719700	0.273412	0.308390
