data_functionalizedCrystal
_audit_creation_method	'MofGen! by Chris Wilmer'
_symmetry_space_group_name_H-M	'P1'
_symmetry_Int_Tables_number	1
_symmetry_cell_setting	triclinic
loop_
_symmetry_equiv_pos_as_xyz
  x,y,z
_cell_length_a	16.992694
_cell_length_b	17.038272
_cell_length_c	16.053802
_cell_angle_alpha	92.751609
_cell_angle_beta	87.249047
_cell_angle_gamma	90.889890
loop_
_atom_site_label
_atom_site_type_symbol
_atom_site_fract_x
_atom_site_fract_y
_atom_site_fract_z
O1	O	1.054593	0.163385	-0.069325
O2	O	0.826187	0.161558	-0.069350
O3	O	0.939032	0.048571	-0.069331
O4	O	0.941748	0.276372	-0.069344
O5	O	0.932819	0.054763	0.069527
O6	O	0.819974	0.167750	0.069508
O7	O	1.048380	0.169577	0.069533
Zn8	Zn	0.933190	0.169646	0.091567
Zn9	Zn	0.941376	0.161489	-0.091384
O10	O	0.935535	0.282564	0.069514
C11	C	0.793711	0.162304	0.000076
C12	C	0.706200	0.155293	0.000067
C13	C	0.933456	0.022384	0.000098
C14	C	0.926089	-0.064871	0.000097
C15	C	0.660472	0.222933	0.000064
C16	C	0.578245	0.216342	0.000076
C17	C	0.541748	0.142110	0.000085
C18	C	0.587482	0.074465	0.000091
C19	C	0.669707	0.081057	0.000085
C20	C	0.296327	0.114789	0.000109
C21	C	0.214096	0.108201	0.000112
C22	C	0.204864	0.250079	0.000099
C23	C	0.287091	0.256665	0.000088
C24	C	0.332818	0.189020	0.000098
N25	N	0.457699	0.135371	0.000094
N26	N	0.416865	0.195760	0.000095
C27	C	0.993729	-0.110741	0.000105
C28	C	0.986802	-0.192727	0.000096
C29	C	0.912235	-0.228840	0.000085
C30	C	0.844590	-0.182964	0.000075
C31	C	0.851518	-0.100981	0.000077
C32	C	0.887761	-0.476135	0.000071
C33	C	0.880838	-0.558124	0.000071
C34	C	1.023051	-0.567881	0.000091
C35	C	1.029972	-0.485895	0.000099
C36	C	0.962328	-0.440026	0.000084
C37	C	0.905153	-0.312643	0.000079
C38	C	0.969410	-0.356226	0.000084
C39	C	1.080856	0.168831	0.000105
C40	C	1.168367	0.175841	0.000109
C41	C	0.941111	0.308751	0.000084
C42	C	0.948478	0.396006	0.000079
N43	N	0.927609	0.175214	0.216427
N44	N	0.946963	0.155915	-0.216243
C45	C	0.975645	0.127157	0.260129
C46	C	0.971749	0.131060	0.347535
C47	C	0.919820	0.183023	0.391237
C48	C	0.871779	0.231082	0.347529
C49	C	0.875672	0.227175	0.260125
C50	C	0.902815	0.200067	0.652644
C51	C	0.898928	0.203972	0.740055
C52	C	0.998897	0.103948	0.740054
C53	C	1.002788	0.100050	0.652648
C54	C	0.954744	0.148105	0.608948
N55	N	0.915838	0.187015	0.480580
N56	N	0.958723	0.144109	0.519606
H57	H	0.690181	0.283381	0.000056
O58	O	0.548123	-0.005602	0.000108
H59	H	0.513412	-0.014530	-0.056489
O60	O	0.851006	0.251907	0.605519
H61	H	0.812300	0.214669	0.565715
O62	O	0.719035	0.008104	0.000085
H63	H	0.679845	-0.044623	0.000085
H64	H	1.078123	-0.605236	0.000102
O65	O	1.110396	-0.446940	0.000110
H66	H	1.119480	-0.412334	-0.056481
O67	O	0.528926	0.289300	0.000075
H68	H	0.493758	0.287163	-0.056513
H69	H	0.829494	0.273389	0.383117
O70	O	0.842907	0.260011	0.787197
H71	H	0.810144	0.292763	0.742126
H72	H	0.836555	0.266306	0.224543
O73	O	0.326445	0.336734	0.000097
H74	H	0.310967	0.366969	-0.056493
O75	O	1.059755	-0.242204	0.000104
H76	H	1.057460	-0.277278	0.056694
O77	O	0.345640	0.041831	0.000111
H78	H	0.380791	0.043960	0.056711
O79	O	1.023576	0.079237	0.394663
H80	H	1.010229	0.016647	0.377893
O81	O	1.074158	-0.071795	0.000107
H82	H	1.104399	-0.087357	0.056700
H83	H	0.844440	-0.342056	0.000072
O84	O	0.155546	0.323038	0.000106
H85	H	0.092237	0.305987	0.000121
O86	O	0.174726	0.028134	0.000130
H87	H	0.220335	-0.017797	0.000145
H88	H	0.783876	-0.212375	0.000061
H89	H	0.820113	-0.587524	0.000076
O90	O	0.814805	-0.426665	0.000076
H91	H	0.761792	-0.465553	0.000083
O92	O	1.031651	0.071108	0.212993
H93	H	1.064391	0.038341	0.258070
H94	H	0.796438	-0.063634	0.000071
O95	O	1.058789	0.043997	0.605511
H96	H	1.091532	0.011228	0.650585
H97	H	1.038011	0.064823	0.775643
O98	O	1.049836	-0.317279	0.000088
H99	H	1.080073	-0.332835	0.056686
