data_functionalizedCrystal
_audit_creation_method	'MofGen! by Chris Wilmer'
_symmetry_space_group_name_H-M	'P1'
_symmetry_Int_Tables_number	1
_symmetry_cell_setting	triclinic
loop_
_symmetry_equiv_pos_as_xyz
  x,y,z
_cell_length_a	16.959455
_cell_length_b	16.959453
_cell_length_c	16.959447
_cell_angle_alpha	89.968936
_cell_angle_beta	89.985299
_cell_angle_gamma	90.019416
loop_
_atom_site_label
_atom_site_type_symbol
_atom_site_fract_x
_atom_site_fract_y
_atom_site_fract_z
Zn1	Zn	1.208384	-0.314678	-0.446913
Zn2	Zn	1.208307	-0.446870	-0.314732
Zn3	Zn	1.076213	-0.314709	-0.314749
Zn4	Zn	1.076178	-0.446817	-0.446870
O5	O	1.142270	-0.380769	-0.380816
O6	O	1.318985	-0.332223	-0.429389
O7	O	1.190767	-0.429374	-0.204124
O8	O	1.093793	-0.204094	-0.332306
O9	O	1.318928	-0.429344	-0.332277
O10	O	1.190898	-0.204071	-0.429406
O11	O	1.093718	-0.332275	-0.204136
O12	O	0.965597	-0.332223	-0.332265
O13	O	1.093733	-0.429253	-0.557487
O14	O	0.965571	-0.429283	-0.429333
O15	O	1.190864	-0.332171	-0.557518
O16	O	1.190733	-0.557474	-0.332236
O17	O	1.093658	-0.557435	-0.429317
C18	C	0.936904	-0.380751	-0.380797
C19	C	0.849048	-0.380763	-0.380807
C20	C	0.807742	-0.431258	-0.330173
C21	C	0.807799	-0.330275	-0.431447
C22	C	0.725254	-0.330281	-0.431456
C23	C	0.683948	-0.380775	-0.380823
C24	C	0.725189	-0.431264	-0.330179
C25	C	0.684007	-0.279788	-0.482093
C26	C	0.601456	-0.279792	-0.482104
C27	C	0.560149	-0.330291	-0.431474
C28	C	0.601395	-0.380782	-0.380829
C29	C	0.560089	-0.431276	-0.330195
C30	C	0.601333	-0.481772	-0.279554
C31	C	0.683882	-0.481763	-0.279549
C32	C	0.477601	-0.330299	-0.431478
C33	C	0.477536	-0.431282	-0.330201
C34	C	1.142204	-0.586135	-0.380787
C35	C	1.142249	-0.673991	-0.380801
C36	C	1.192898	-1.045397	-0.431471
C37	C	1.091863	-1.045537	-0.330278
C38	C	1.091834	-0.962991	-0.330260
C39	C	1.142337	-0.921644	-0.380849
C40	C	1.192869	-0.962843	-0.431456
C41	C	1.041297	-0.921786	-0.279659
C42	C	1.041265	-0.839235	-0.279640
C43	C	1.091773	-0.797887	-0.330225
C44	C	1.142307	-0.839091	-0.380834
C45	C	1.192810	-0.797744	-0.431423
C46	C	1.243349	-0.838946	-0.482029
C47	C	1.243376	-0.921495	-0.482042
C48	C	1.091746	-0.715338	-0.330212
C49	C	1.192781	-0.715190	-0.431408
C50	C	1.348439	-0.380786	-0.380836
C51	C	1.436295	-0.380794	-0.380845
C52	C	1.142303	-0.380703	-0.586984
C53	C	1.142317	-0.380675	-0.674841
C54	C	1.142358	-0.174600	-0.380862
C55	C	1.142395	-0.086744	-0.380882
C56	C	1.091840	-0.431138	-1.046303
C57	C	1.192984	-0.330046	-1.046331
C58	C	1.192963	-0.330062	-0.963785
C59	C	1.142380	-0.380619	-0.922494
C60	C	1.091819	-0.431158	-0.963749
C61	C	1.243529	-0.279530	-0.922523
C62	C	1.243511	-0.279545	-0.839972
C63	C	1.192923	-0.330098	-0.798680
C64	C	1.142359	-0.380639	-0.839941
C65	C	1.091777	-0.431195	-0.798650
C66	C	1.041208	-0.481732	-0.839909
C67	C	1.041232	-0.481711	-0.922457
C68	C	1.192900	-0.330119	-0.716132
C69	C	1.091756	-0.431215	-0.716096
C70	C	1.142283	-0.380777	-0.175450
C71	C	1.142422	-0.380582	-0.087594
H72	H	0.717644	-0.238675	-0.523313
H73	H	1.050743	-1.079207	-0.289094
H74	H	1.284465	-0.805272	-0.523222
H75	H	1.000027	-0.522898	-0.806279
H76	H	0.841327	-0.472372	-0.288944
C77	C	1.247485	-0.670201	-0.486382
C78	C	1.202679	-0.622793	-0.536985
C79	C	1.253045	-0.581329	-0.587629
H80	H	1.277604	-0.706472	-0.516595
H81	H	1.281919	-0.637947	-0.456193
H82	H	1.168259	-0.655043	-0.567171
H83	H	1.172562	-0.586507	-0.506793
H84	H	1.287479	-0.549076	-0.557440
H85	H	1.283162	-0.617606	-0.617837
H86	H	1.222653	-0.549153	-0.621964
C87	C	1.247711	-1.090030	-0.486547
C88	C	1.230444	-1.069890	-0.564731
C89	C	1.280923	-1.110984	-0.615490
H90	H	1.240544	-1.145126	-0.479418
H91	H	1.300838	-1.076458	-0.475080
H92	H	1.177329	-1.083466	-0.576194
H93	H	1.237615	-1.014800	-0.571885
H94	H	1.334050	-1.097413	-0.604023
H95	H	1.273752	-1.166079	-0.608354
H96	H	1.269219	-1.097320	-0.668543
C97	C	0.986561	-0.966818	-0.224762
C98	C	0.997425	-1.047929	-0.235587
C99	C	0.947025	-1.089441	-0.185017
H100	H	0.933404	-0.953422	-0.236224
H101	H	0.998170	-0.953361	-0.171646
H102	H	0.985810	-1.061380	-0.288691
H103	H	1.050571	-1.061349	-0.224120
H104	H	0.958634	-1.075984	-0.131901
H105	H	0.893872	-1.076038	-0.196483
H106	H	0.954395	-1.144479	-0.192350
C107	C	1.036911	-0.670462	-0.275362
C108	C	1.047682	-0.589319	-0.286187
C109	C	0.997172	-0.547955	-0.235677
H110	H	1.048463	-0.683927	-0.222234
H111	H	0.983783	-0.683971	-0.286897
H112	H	1.100798	-0.575815	-0.274647
H113	H	1.036124	-0.575830	-0.339305
H114	H	0.944044	-0.561465	-0.247212
H115	H	1.008729	-0.561427	-0.182552
H116	H	1.004468	-0.492896	-0.243020
C117	C	0.556823	-0.224946	-0.537175
C118	C	0.610666	-0.180738	-0.581528
C119	C	0.569579	-0.130216	-0.632277
H120	H	0.524613	-0.190403	-0.507092
H121	H	0.524645	-0.255210	-0.571610
H122	H	0.642831	-0.150476	-0.547098
H123	H	0.642878	-0.215260	-0.611628
H124	H	0.537400	-0.160480	-0.666712
H125	H	0.537370	-0.095678	-0.602187
H126	H	0.606105	-0.100220	-0.662382
C127	C	0.432719	-0.275611	-0.486498
C128	C	0.385320	-0.320426	-0.537078
C129	C	0.343957	-0.270072	-0.587770
H130	H	0.469050	-0.245516	-0.516726
H131	H	0.400468	-0.241154	-0.456342
H132	H	0.417568	-0.354869	-0.567232
H133	H	0.348975	-0.350519	-0.506872
H134	H	0.311706	-0.235615	-0.557613
H135	H	0.380293	-0.239979	-0.617992
H136	H	0.311786	-0.300471	-0.622089
C137	C	1.298530	-0.224613	-0.967209
C138	C	1.342825	-0.180375	-0.913411
C139	C	1.393507	-0.129782	-0.954551
H140	H	1.268401	-0.190092	-0.999422
H141	H	1.333004	-0.254828	-0.999389
H142	H	1.308354	-0.150163	-0.881245
H143	H	1.372969	-0.214875	-0.881197
H144	H	1.427982	-0.159996	-0.986731
H145	H	1.363372	-0.095266	-0.986762
H146	H	1.423572	-0.099766	-0.918056
H147	H	1.050558	-0.472377	-0.682483
H148	H	1.000064	-0.522858	-0.956058
C149	C	0.728622	-0.536710	-0.224667
C150	C	0.708550	-0.614941	-0.241759
C151	C	0.749761	-0.665578	-0.191226
H152	H	0.715114	-0.525188	-0.171550
H153	H	0.783707	-0.529523	-0.231923
H154	H	0.653477	-0.622125	-0.234497
H155	H	0.722060	-0.626488	-0.294867
H156	H	0.804847	-0.658391	-0.198482
H157	H	0.736250	-0.654049	-0.138112
H158	H	0.736154	-0.718664	-0.202821
H159	H	0.841435	-0.289161	-0.472667
C160	C	1.036854	-0.486037	-1.090950
C161	C	0.992541	-0.530301	-1.037118
C162	C	0.941873	-0.580875	-1.078218
H163	H	1.066993	-0.520542	-1.123148
H164	H	1.002389	-0.455807	-1.123142
H165	H	1.027001	-0.560529	-1.004940
H166	H	0.962386	-0.495817	-1.004919
H167	H	0.907409	-0.550645	-1.110410
H168	H	0.972019	-0.615375	-1.110414
H169	H	0.911796	-0.610909	-1.041699
C170	C	1.247817	-0.275193	-1.091300
C171	C	1.237004	-0.285982	-1.172423
C172	C	1.287498	-0.235457	-1.213877
H173	H	1.300949	-0.286719	-1.077861
H174	H	1.236262	-0.222068	-1.077838
H175	H	1.248565	-0.339095	-1.185880
H176	H	1.183882	-0.274451	-1.185886
H177	H	1.275942	-0.182331	-1.200414
H178	H	1.340626	-0.246987	-1.200431
H179	H	1.280162	-0.242765	-1.268923
H180	H	1.284686	-0.238394	-0.806386
H181	H	0.443911	-0.472405	-0.288972
C182	C	0.986374	-0.794647	-0.224606
C183	C	0.942167	-0.848527	-0.180293
C184	C	0.891603	-0.807481	-0.129578
H185	H	0.951832	-0.762440	-0.254712
H186	H	1.016608	-0.762471	-0.190145
H187	H	0.911935	-0.880690	-0.214750
H188	H	0.976688	-0.880736	-0.150171
H189	H	0.921838	-0.775304	-0.095116
H190	H	0.857067	-0.775275	-0.159690
H191	H	0.861609	-0.844032	-0.099500
C192	C	1.298177	-0.966136	-0.537123
C193	C	1.280905	-0.945992	-0.615304
C194	C	1.331368	-0.987098	-0.666070
H195	H	1.290998	-1.021231	-0.529993
H196	H	1.351309	-0.952577	-0.525662
H197	H	1.227786	-0.959556	-0.626760
H198	H	1.288088	-0.890904	-0.622459
H199	H	1.384500	-0.973539	-0.654610
H200	H	1.324185	-1.042191	-0.658933
H201	H	1.319661	-0.973431	-0.719121
H202	H	0.567692	-0.522881	-0.238325
H203	H	1.234074	-0.288975	-0.682542
