data_functionalizedCrystal
_audit_creation_method	'MofGen! by Chris Wilmer'
_symmetry_space_group_name_H-M	'P1'
_symmetry_Int_Tables_number	1
_symmetry_cell_setting	triclinic
loop_
_symmetry_equiv_pos_as_xyz
  x,y,z
_cell_length_a	16.625548
_cell_length_b	11.169416
_cell_length_c	11.169417
_cell_angle_alpha	89.996023
_cell_angle_beta	90.007040
_cell_angle_gamma	89.988592
loop_
_atom_site_label
_atom_site_type_symbol
_atom_site_fract_x
_atom_site_fract_y
_atom_site_fract_z
Zn1	Zn	1.232641	0.477994	0.678661
Zn2	Zn	1.232604	0.678641	0.477983
Zn3	Zn	1.097834	0.477974	0.477984
Zn4	Zn	1.097802	0.678638	0.678616
O5	O	1.165220	0.578312	0.578311
O6	O	1.345468	0.504620	0.652059
O7	O	1.214725	0.652014	0.310034
O8	O	1.115746	0.310027	0.504623
O9	O	1.345442	0.652034	0.504622
O10	O	1.214787	0.310042	0.652060
O11	O	1.115710	0.504585	0.310034
O12	O	0.984998	0.504583	0.504580
O13	O	1.115690	0.652029	0.846572
O14	O	0.984973	0.652010	0.651983
O15	O	1.214755	0.504617	0.846605
O16	O	1.214693	0.846590	0.504579
O17	O	1.115654	0.846588	0.651983
C18	C	0.955729	0.578294	0.578277
C19	C	0.866108	0.578316	0.578292
C20	C	1.165223	0.578325	0.891353
C21	C	1.165224	0.578331	1.024753
C22	C	1.165188	0.890136	0.578302
C23	C	1.165248	1.023536	0.578338
C24	C	0.537933	0.578324	0.578343
C25	C	0.629241	0.578318	0.578325
C26	C	0.702018	0.578321	0.578316
C27	C	0.793332	0.578314	0.578300
C28	C	1.375529	0.578330	0.578345
C29	C	1.465150	0.578337	0.578360
C30	C	1.165274	0.265269	0.578346
C31	C	1.165297	0.131869	0.578362
C32	C	1.165214	0.578329	1.266486
C33	C	1.165221	0.578336	1.133086
