data_functionalizedCrystal
_audit_creation_method	'MofGen! by Chris Wilmer'
_symmetry_space_group_name_H-M	'P1'
_symmetry_Int_Tables_number	1
_symmetry_cell_setting	triclinic
loop_
_symmetry_equiv_pos_as_xyz
  x,y,z
_cell_length_a	21.395362
_cell_length_b	12.594516
_cell_length_c	21.395355
_cell_angle_alpha	89.988593
_cell_angle_beta	89.956060
_cell_angle_gamma	90.031933
loop_
_atom_site_label
_atom_site_type_symbol
_atom_site_fract_x
_atom_site_fract_y
_atom_site_fract_z
Zn1	Zn	0.957923	-0.423414	-0.354617
Zn2	Zn	0.957853	-0.601379	-0.249852
Zn3	Zn	0.853138	-0.423464	-0.249818
Zn4	Zn	0.853134	-0.601400	-0.354557
O5	O	0.905512	-0.512414	-0.302211
O6	O	1.045592	-0.446992	-0.340759
O7	O	0.943934	-0.577789	-0.162170
O8	O	0.867069	-0.274511	-0.263730
O9	O	1.045540	-0.577741	-0.263789
O10	O	0.944055	-0.274475	-0.340725
O11	O	0.867001	-0.447076	-0.162144
O12	O	0.765460	-0.447097	-0.263672
O13	O	0.867063	-0.577779	-0.442243
O14	O	0.765457	-0.577827	-0.340624
O15	O	0.944051	-0.447013	-0.442287
O16	O	0.943930	-0.750327	-0.263731
O17	O	0.866994	-0.750343	-0.340657
C18	C	0.742724	-0.512471	-0.302138
C19	C	0.673083	-0.512520	-0.302122
C20	C	0.640385	-0.580681	-0.342130
C21	C	0.574949	-0.580655	-0.342158
C22	C	0.542215	-0.512479	-0.302167
C23	C	0.574921	-0.444305	-0.262155
C24	C	0.640355	-0.444326	-0.262133
C25	C	0.438489	-0.503905	-0.245761
C26	C	0.373056	-0.503892	-0.245782
C27	C	0.340394	-0.512410	-0.302236
C28	C	0.373173	-0.520963	-0.358670
C29	C	0.438608	-0.520984	-0.358648
C30	C	0.471262	-0.512449	-0.302187
C31	C	0.236743	-0.580546	-0.342278
C32	C	0.171307	-0.580513	-0.342307
C33	C	0.171280	-0.444168	-0.262298
C34	C	0.236715	-0.444196	-0.262275
C35	C	0.269443	-0.512391	-0.302264
C36	C	0.905471	-0.788955	-0.302205
C37	C	0.905511	-0.907261	-0.302223
C38	C	0.863661	-0.976561	-0.344034
C39	C	0.848392	-1.047409	-0.286856
C40	C	0.920837	-1.047212	-0.359410
C41	C	0.890211	-0.976550	-0.245015
C42	C	0.962683	-0.976347	-0.317608
C43	C	0.947436	-1.047163	-0.260391
C44	C	1.068935	-0.512359	-0.302284
C45	C	1.138577	-0.512335	-0.302315
C46	C	0.905564	-0.512393	-0.465634
C47	C	0.905586	-0.512384	-0.535275
C48	C	0.905570	-0.234793	-0.302231
C49	C	0.905595	-0.116488	-0.302239
C50	C	0.945672	-0.444291	-0.568012
C51	C	0.945671	-0.444245	-0.633448
C52	C	0.905591	-0.512311	-0.666144
C53	C	0.865497	-0.580408	-0.633399
C54	C	0.865495	-0.580445	-0.567965
C55	C	0.900630	-0.608151	-0.769815
C56	C	0.900636	-0.608116	-0.835248
C57	C	0.905595	-0.512199	-0.867965
C58	C	0.910560	-0.416312	-0.835241
C59	C	0.910557	-0.416349	-0.769806
C60	C	0.905589	-0.512279	-0.737096
C61	C	0.945682	-0.444051	-0.971654
C62	C	0.945677	-0.444003	-1.037091
C63	C	0.865506	-0.580176	-1.037041
C64	C	0.865508	-0.580214	-0.971605
C65	C	0.905599	-0.512153	-0.938916
C66	C	0.905496	-0.512359	-0.139423
C67	C	0.905596	-0.512068	-0.069782
H68	H	0.144628	-0.388653	-0.229739
H69	H	0.877226	-0.945639	-0.196646
H70	H	0.914598	-0.338275	-0.743165
C71	C	0.821420	-0.655124	-0.935590
H72	H	0.827155	-0.645392	-0.891938
H73	H	0.830573	-0.726629	-0.946326
H74	H	0.779323	-0.639547	-0.946281
C75	C	1.027930	-0.934143	-0.335201
H76	H	1.043963	-0.892637	-0.301780
H77	H	1.024906	-0.891556	-0.371722
H78	H	1.055179	-0.992205	-0.342950
H79	H	0.828207	-0.945559	-0.379340
H80	H	0.263392	-0.636069	-0.374843
C81	C	0.995292	-1.088791	-0.212583
H82	H	0.984332	-1.064466	-0.172002
H83	H	1.035753	-1.063384	-0.223160
H84	H	0.995303	-1.164216	-0.213086
H85	H	0.263338	-0.388697	-0.229692
H86	H	0.933766	-1.078251	-0.407766
H87	H	0.346582	-0.527898	-0.404640
H88	H	0.896598	-0.686193	-0.861887
H89	H	0.896424	-0.686239	-0.743182
H90	H	0.978317	-0.388869	-0.541401
C91	C	0.783129	-1.089582	-0.269279
H92	H	0.786009	-1.131088	-0.232312
H93	H	0.767430	-1.132161	-0.302383
H94	H	0.755688	-1.031504	-0.262289
H95	H	0.978313	-0.388790	-0.660108
C96	C	0.821410	-0.655281	-0.669359
H97	H	0.797531	-0.695837	-0.640487
H98	H	0.845367	-0.701637	-0.694905
H99	H	0.794118	-0.614553	-0.694861
H100	H	0.465077	-0.496964	-0.199786
H101	H	0.666978	-0.388818	-0.229553
C102	C	0.821415	-0.655045	-1.072995
H103	H	0.797539	-0.695603	-1.044124
H104	H	0.845371	-0.701399	-1.098545
H105	H	0.794122	-0.614314	-1.098495
H106	H	0.914599	-0.338207	-0.861877
H107	H	0.978323	-0.388625	-0.945037
H108	H	0.548264	-0.388794	-0.229595
C109	C	0.821407	-0.655365	-0.531953
H110	H	0.797539	-0.695904	-0.560794
H111	H	0.794116	-0.614683	-0.506398
H112	H	0.845375	-0.701749	-0.506454
H113	H	0.978319	-0.388548	-1.063744
C114	C	0.337005	-0.494481	-0.183708
H115	H	0.365827	-0.489391	-0.150084
H116	H	0.311446	-0.555457	-0.178144
H117	H	0.311507	-0.432771	-0.184597
H118	H	0.548321	-0.636159	-0.374740
C119	C	0.676382	-0.655680	-0.386123
H120	H	0.647533	-0.696264	-0.409960
H121	H	0.701864	-0.702004	-0.362105
H122	H	0.701953	-0.615031	-0.413458
H123	H	0.144685	-0.636015	-0.374891
C124	C	0.474663	-0.530376	-0.420720
H125	H	0.445843	-0.535439	-0.454348
H126	H	0.500163	-0.592076	-0.419839
H127	H	0.500218	-0.469387	-0.426273
