data_functionalizedCrystal
_audit_creation_method	'MofGen! by Chris Wilmer'
_symmetry_space_group_name_H-M	'P1'
_symmetry_Int_Tables_number	1
_symmetry_cell_setting	triclinic
loop_
_symmetry_equiv_pos_as_xyz
  x,y,z
_cell_length_a	6.817900
_cell_length_b	19.453067
_cell_length_c	19.453114
_cell_angle_alpha	96.315275
_cell_angle_beta	101.709288
_cell_angle_gamma	101.708464
loop_
_atom_site_label
_atom_site_type_symbol
_atom_site_fract_x
_atom_site_fract_y
_atom_site_fract_z
V1	V	-3.997992	-0.097913	-0.219326
O2	O	-3.995098	0.003953	-0.214817
O3	O	-3.941006	-0.193422	-0.218146
O4	O	-3.941013	-0.096737	-0.314835
O5	O	-3.995092	-0.093401	-0.117459
V6	V	-4.483844	-0.085690	-0.207103
O7	O	-4.254141	-0.124726	-0.246138
O8	O	-4.677892	-0.058877	-0.180290
O9	O	-4.317623	0.009819	-0.208282
O10	O	-4.604135	-0.187556	-0.211611
O11	O	-4.604141	-0.090202	-0.308969
O12	O	-4.317617	-0.086866	-0.111593
C13	C	-3.784196	-0.216694	-0.214769
C14	C	-3.818833	-0.294776	-0.214442
C15	C	-4.034529	-0.841951	-0.147825
C16	C	-4.001966	-0.768584	-0.148126
C17	C	-4.017292	-0.742101	-0.212595
C18	C	-4.065135	-0.788992	-0.276767
C19	C	-4.097677	-0.862357	-0.276464
N20	N	-4.103240	-0.636813	-0.263556
N21	N	-4.072329	-0.567119	-0.263839
C22	C	-3.919243	-0.521056	-0.213511
N23	N	-3.798256	-0.547320	-0.162879
N24	N	-3.829178	-0.617021	-0.162594
C25	C	-3.982008	-0.662550	-0.212931
C26	C	-3.836083	-0.394622	-0.149669
C27	C	-3.803508	-0.321253	-0.149972
C28	C	-3.866699	-0.341663	-0.278616
C29	C	-3.899252	-0.415030	-0.278310
C30	C	-3.883951	-0.441504	-0.213835
C31	C	-3.784203	-0.093363	-0.338104
C32	C	-3.818843	-0.093033	-0.416185
C33	C	-4.016582	-0.096404	-0.456453
C34	C	-4.049131	-0.096095	-0.529819
C35	C	-3.883936	-0.092428	-0.562916
C36	C	-3.686167	-0.089053	-0.522637
C37	C	-3.653621	-0.089356	-0.449272
N38	N	-3.820858	-0.129522	-0.681829
N39	N	-3.851789	-0.129237	-0.751523
C40	C	-3.981984	-0.091515	-0.783961
N41	N	-4.080115	-0.054100	-0.744074
N42	N	-4.049189	-0.054389	-0.674373
C43	C	-3.919206	-0.092100	-0.642468
C44	C	-4.215028	-0.094550	-0.903781
C45	C	-4.247567	-0.094236	-0.977147
C46	C	-3.884601	-0.087201	-0.969965
C47	C	-3.852064	-0.087508	-0.896599
C48	C	-4.017287	-0.091186	-0.863512
C49	C	-4.137775	0.033088	-0.211657
C50	C	-4.082376	0.111168	-0.211989
C51	C	-4.137768	-0.090243	-0.088321
C52	C	-4.082367	-0.090568	-0.010239
H53	H	-3.764537	-0.283083	-0.097719
H54	H	-3.691049	-0.084771	-0.863813
O55	O	-3.881916	-0.316039	-0.341294
C56	C	-4.098796	-0.314517	-0.455294
C57	C	-4.081838	-0.343604	-0.384346
H58	H	-4.260434	-0.336780	-0.490115
H59	H	-3.981320	-0.331163	-0.483792
H60	H	-4.067210	-0.254026	-0.444473
H61	H	-4.113467	-0.404096	-0.395104
H62	H	-4.199287	-0.326904	-0.355870
O63	O	-4.144453	-0.907976	-0.338757
C64	C	-4.390729	-1.006133	-0.417066
C65	C	-4.337982	-0.954523	-0.346492
H66	H	-4.547217	-1.043769	-0.423349
H67	H	-4.268093	-1.038208	-0.416942
H68	H	-4.395976	-0.974589	-0.463184
H69	H	-4.332763	-0.986012	-0.300336
H70	H	-4.460631	-0.922447	-0.346678
H71	H	-4.408590	-0.096976	-1.009932
H72	H	-4.022062	-0.863501	-0.095324
O73	O	-3.724233	-0.083545	-1.002170
C74	C	-3.518440	-0.017926	-1.071058
C75	C	-3.700138	-0.021993	-1.034630
H76	H	-3.498873	0.031843	-1.097298
H77	H	-3.550263	-0.066982	-1.113132
H78	H	-3.371562	-0.015607	-1.029663
H79	H	-3.847094	-0.024289	-1.075972
H80	H	-3.668138	0.027062	-0.992542
O81	O	-3.946040	-0.460649	-0.340602
C82	C	-4.192313	-0.558805	-0.418912
C83	C	-4.139565	-0.507198	-0.348336
H84	H	-4.348797	-0.596444	-0.425195
H85	H	-4.069673	-0.590879	-0.418791
H86	H	-4.197567	-0.527260	-0.465028
H87	H	-4.134339	-0.538689	-0.302181
H88	H	-4.262219	-0.475124	-0.348519
H89	H	-4.077607	-0.767425	-0.329258
H90	H	-3.962992	-0.730406	-0.095874
H91	H	-3.823610	-0.416178	-0.097169
H92	H	-4.151122	-0.099396	-0.429518
O93	O	-4.241331	-0.099510	-0.568943
C94	C	-4.593298	-0.166614	-0.607242
C95	C	-4.375725	-0.162836	-0.562919
H96	H	-4.702025	-0.217802	-0.602375
H97	H	-4.588300	-0.165820	-0.665379
H98	H	-4.650670	-0.118983	-0.586745
H99	H	-4.318223	-0.210457	-0.583354
H100	H	-4.380849	-0.163596	-0.504789
H101	H	-4.349561	-0.097542	-0.876840
O102	O	-3.461670	-0.086206	-0.410108
C103	C	-3.246117	-0.143710	-0.332926
C104	C	-3.463610	-0.147342	-0.377229
H105	H	-3.247604	-0.193140	-0.306343
H106	H	-3.195993	-0.094310	-0.290479
H107	H	-3.133695	-0.141011	-0.369203
H108	H	-3.576181	-0.150069	-0.341008
H109	H	-3.513562	-0.196734	-0.419682
O110	O	-3.525809	-0.085400	-0.554850
C111	C	-3.320035	-0.019788	-0.623748
C112	C	-3.501724	-0.023851	-0.587315
H113	H	-3.300477	0.029978	-0.649993
H114	H	-3.351863	-0.068847	-0.665819
H115	H	-3.173151	-0.017466	-0.582355
H116	H	-3.648686	-0.026151	-0.628656
H117	H	-3.469719	0.025207	-0.545231
