data_functionalizedCrystal
_audit_creation_method	'MofGen! by Chris Wilmer'
_symmetry_space_group_name_H-M	'P1'
_symmetry_Int_Tables_number	1
_symmetry_cell_setting	triclinic
loop_
_symmetry_equiv_pos_as_xyz
  x,y,z
_cell_length_a	13.897448
_cell_length_b	12.759401
_cell_length_c	12.759393
_cell_angle_alpha	90.020057
_cell_angle_beta	89.966603
_cell_angle_gamma	89.986705
loop_
_atom_site_label
_atom_site_type_symbol
_atom_site_fract_x
_atom_site_fract_y
_atom_site_fract_z
Zn1	Zn	-0.384071	-1.606233	-0.594013
Zn2	Zn	-0.545400	-1.606118	-0.418328
Zn3	Zn	-0.384109	-1.430535	-0.418348
Zn4	Zn	-0.545313	-1.430515	-0.593964
O5	O	-0.464723	-1.518350	-0.506163
O6	O	-0.405492	-1.753239	-0.570720
O7	O	-0.524057	-1.582788	-0.271309
O8	O	-0.249122	-1.453899	-0.441679
O9	O	-0.524020	-1.753155	-0.441645
O10	O	-0.249094	-1.582983	-0.570740
O11	O	-0.405557	-1.453787	-0.271324
O12	O	-0.405472	-1.283511	-0.441632
O13	O	-0.523872	-1.453863	-0.740992
O14	O	-0.523908	-1.283496	-0.570656
O15	O	-0.405408	-1.582963	-0.741028
O16	O	-0.680370	-1.582767	-0.441598
O17	O	-0.680306	-1.453752	-0.570637
C18	C	-0.464685	-1.245383	-0.506141
C19	C	-0.464693	-1.128606	-0.506157
C20	C	-0.403100	-0.964052	-0.573474
C21	C	-0.403087	-1.073776	-0.573469
C22	C	-0.526322	-1.073707	-0.438852
C23	C	-0.526339	-0.963985	-0.438863
C24	C	-0.715337	-1.518274	-0.506133
C25	C	-0.822551	-1.518337	-0.506155
C26	C	-1.018846	-1.518447	-0.506221
C27	C	-0.909614	-1.518383	-0.506187
C28	C	-0.213130	-1.518456	-0.506217
C29	C	-0.105916	-1.518501	-0.506240
C30	C	-0.464626	-1.518424	-0.780197
C31	C	-0.464584	-1.518455	-0.896974
C32	C	-0.464748	-0.792384	-0.506180
C33	C	-0.464722	-0.909160	-0.506172
C34	C	-0.402870	-1.451309	-0.951843
C35	C	-0.402840	-1.451333	-1.061567
C36	C	-0.526242	-1.585659	-1.061543
C37	C	-0.526276	-1.585629	-0.951821
C38	C	-0.464751	-1.518338	-0.233196
C39	C	-0.464521	-1.518510	-0.116420
H40	H	-0.576486	-1.118359	-0.384050
N41	N	-0.339847	-1.382708	-0.895814
N42	N	-0.250838	-1.389725	-0.908093
H43	H	-0.206325	-1.341274	-0.868524
H44	H	-0.576525	-0.919291	-0.384057
N45	N	-0.589298	-1.654231	-0.895750
N46	N	-0.589311	-1.654197	-0.797785
H47	H	-0.633817	-1.702646	-0.758182
N48	N	-0.339783	-1.382748	-1.117595
N49	N	-0.250782	-1.389760	-1.105360
H50	H	-0.206244	-1.341317	-1.144927
N51	N	-0.340167	-0.908065	-0.642243
N52	N	-0.285159	-0.957094	-0.702336
H53	H	-0.240715	-0.917557	-0.750913
N54	N	-0.340139	-1.129829	-0.642229
N55	N	-0.285137	-1.080862	-0.702321
H56	H	-0.240679	-1.120448	-0.750888
N57	N	-0.589250	-1.654264	-1.117587
N58	N	-0.589212	-1.654284	-1.215552
H59	H	-0.633712	-1.702738	-1.255133
