data_functionalizedCrystal
_audit_creation_method	'MofGen! by Chris Wilmer'
_symmetry_space_group_name_H-M	'P1'
_symmetry_Int_Tables_number	1
_symmetry_cell_setting	triclinic
loop_
_symmetry_equiv_pos_as_xyz
  x,y,z
_cell_length_a	11.792241
_cell_length_b	11.792254
_cell_length_c	14.586319
_cell_angle_alpha	89.996031
_cell_angle_beta	90.000696
_cell_angle_gamma	84.196007
loop_
_atom_site_label
_atom_site_type_symbol
_atom_site_fract_x
_atom_site_fract_y
_atom_site_fract_z
O1	O	1.506914	0.155566	-0.076152
O2	O	2.006914	0.655566	0.423848
O3	O	1.176574	0.171598	-0.076173
O4	O	1.676574	0.671598	0.423827
O5	O	1.349753	-0.001588	-0.076155
O6	O	1.849753	0.498412	0.423845
O7	O	1.333735	0.328752	-0.076169
O8	O	1.833735	0.828752	0.423831
O9	O	1.349741	-0.001590	0.076325
O10	O	1.849741	0.498410	0.576325
O11	O	1.176562	0.171596	0.076308
O12	O	1.676562	0.671596	0.576308
O13	O	1.506902	0.155563	0.076329
O14	O	2.006902	0.655563	0.576329
Cu15	Cu	1.341731	0.163579	0.090241
Cu16	Cu	1.841731	0.663579	0.590241
Cu17	Cu	1.341745	0.163582	-0.090085
Cu18	Cu	1.841745	0.663582	0.409915
O19	O	1.333723	0.328749	0.076311
O20	O	1.833723	0.828749	0.576311
C21	C	1.134277	0.170590	0.000065
C22	C	1.634277	0.670590	0.500065
C23	C	1.008263	0.167576	0.000057
C24	C	1.508263	0.667576	0.500057
C25	C	1.348738	-0.043880	0.000085
C26	C	1.848738	0.456120	0.500085
C27	C	1.345718	-0.169893	0.000084
C28	C	1.845718	0.330107	0.500084
C29	C	0.777551	0.162033	0.000083
C30	C	1.277551	0.662033	0.500083
C31	C	0.905936	0.165112	0.000069
C32	C	1.405936	0.665112	0.500069
C33	C	1.343264	-0.272229	0.000080
C34	C	1.843264	0.227771	0.500080
C35	C	1.340196	-0.400616	0.000072
C36	C	1.840196	0.099384	0.500072
C37	C	1.549199	0.156571	0.000089
C38	C	2.049199	0.656571	0.500089
C39	C	1.675213	0.159586	0.000091
C40	C	2.175213	0.659586	0.500091
C41	C	1.334738	0.371041	0.000069
C42	C	1.834738	0.871041	0.500069
C43	C	1.337758	0.497054	0.000064
C44	C	1.837758	0.997054	0.500064
N45	N	1.341729	0.163576	0.217073
N46	N	1.841729	0.663576	0.717073
N47	N	1.341756	0.163576	-0.216917
N48	N	1.841756	0.663576	0.283083
C49	C	1.418439	0.086915	0.452087
C50	C	1.918439	0.586915	0.952087
C51	C	1.418442	0.086913	0.548068
C52	C	1.918442	0.586913	1.048068
C53	C	1.265038	0.240240	0.548062
C54	C	1.765038	0.740240	1.048062
C55	C	1.265031	0.240237	0.452083
C56	C	1.765031	0.740237	0.952083
C57	C	1.341737	0.163576	0.404098
C58	C	1.841737	0.663576	0.904098
C59	C	1.341748	0.163577	0.596058
C60	C	1.841748	0.663577	1.096058
C61	C	1.341751	0.163574	0.700125
C62	C	1.841751	0.663574	1.200125
C63	C	1.341733	0.163576	0.300024
C64	C	1.841733	0.663576	0.800024
H65	H	1.480898	0.024488	0.587139
H66	H	1.980898	0.524488	1.087139
H67	H	1.202587	0.302658	0.587141
H68	H	1.702587	0.802658	1.087141
C69	C	1.113400	0.391810	0.461710
C70	C	1.613400	0.891810	0.961710
C71	C	1.180717	0.324512	0.399325
C72	C	1.680717	0.824512	0.899325
H73	H	1.061355	0.443837	0.429137
H74	H	1.561355	0.943837	0.929137
H75	H	1.072286	0.344295	0.499149
H76	H	1.572286	0.844295	0.999149
H77	H	1.160910	0.432956	0.499141
H78	H	1.660910	0.932956	0.999141
H79	H	1.133207	0.283360	0.361898
H80	H	1.633207	0.783360	0.861898
H81	H	1.221834	0.372034	0.361870
H82	H	1.721834	0.872034	0.861870
H83	H	1.480896	0.024492	0.413020
H84	H	1.980896	0.524492	0.913020
