data_functionalizedCrystal
_audit_creation_method	'MofGen! by Chris Wilmer'
_symmetry_space_group_name_H-M	'P1'
_symmetry_Int_Tables_number	1
_symmetry_cell_setting	triclinic
loop_
_symmetry_equiv_pos_as_xyz
  x,y,z
_cell_length_a	21.295418
_cell_length_b	14.908520
_cell_length_c	14.908308
_cell_angle_alpha	83.639235
_cell_angle_beta	93.257934
_cell_angle_gamma	86.662388
loop_
_atom_site_label
_atom_site_type_symbol
_atom_site_fract_x
_atom_site_fract_y
_atom_site_fract_z
Zn1	Zn	0.925204	0.389534	-0.532998
Zn2	Zn	1.425204	0.889534	-0.032998
Zn3	Zn	0.925132	0.532180	-0.390369
Zn4	Zn	1.425132	1.032180	0.109631
Zn5	Zn	0.826383	0.380873	-0.381610
Zn6	Zn	1.326383	0.880873	0.118390
Zn7	Zn	0.813469	0.540894	-0.541626
Zn8	Zn	1.313469	1.040894	-0.041626
O9	O	0.872547	0.460870	-0.461651
O10	O	1.372547	0.960870	0.038349
O11	O	1.013282	0.408435	-0.514133
O12	O	1.513282	0.908435	-0.014133
O13	O	0.917408	0.504837	-0.262549
O14	O	1.417408	1.004837	0.237451
O15	O	0.844927	0.255355	-0.394416
O16	O	1.344927	0.755355	0.105584
O17	O	1.013230	0.513235	-0.409344
O18	O	1.513230	1.013235	0.090656
O19	O	0.917530	0.261719	-0.505640
O20	O	1.417530	0.761719	-0.005640
O21	O	0.844858	0.393673	-0.256114
O22	O	1.344858	0.893673	0.243886
O23	O	0.736582	0.402122	-0.402782
O24	O	1.236582	0.902122	0.097218
O25	O	0.822916	0.528087	-0.667139
O26	O	1.322916	1.028087	-0.167139
O27	O	0.727094	0.519689	-0.520344
O28	O	1.227094	1.019689	-0.020344
O29	O	0.905007	0.416884	-0.660801
O30	O	1.405007	0.916884	-0.160801
O31	O	0.904885	0.660002	-0.417709
O32	O	1.404885	1.160002	0.082291
O33	O	0.822847	0.666404	-0.528837
O34	O	1.322847	1.166404	-0.028837
C35	C	0.708998	0.460912	-0.461549
C36	C	1.208998	0.960912	0.038451
C37	C	0.639029	0.460953	-0.461529
C38	C	1.139029	0.960953	0.038471
C39	C	0.862473	0.696048	-0.475180
C40	C	1.362473	1.196048	0.024820
C41	C	0.858220	0.796659	-0.480998
C42	C	1.358220	1.296659	0.019002
C43	C	0.862529	0.474424	-0.697729
C44	C	1.362529	0.974424	-0.197729
C45	C	0.858260	0.480200	-0.798332
C46	C	1.358260	0.980200	-0.298332
C47	C	0.601239	0.522241	-0.522661
C48	C	1.101239	1.022241	-0.022661
C49	C	0.535495	0.522221	-0.522701
C50	C	1.035495	1.022221	-0.022701
C51	C	0.507545	0.460921	-0.461592
C52	C	1.007545	0.960921	0.038408
C53	C	0.545344	0.399621	-0.400454
C54	C	1.045344	0.899621	0.099546
C55	C	0.611086	0.399637	-0.400423
C56	C	1.111086	0.899637	0.099577
N57	N	0.407947	0.449285	-0.382019
N58	N	0.907947	0.949285	0.117981
N59	N	0.345495	0.449276	-0.382051
N60	N	0.845495	0.949276	0.117949
C61	C	0.309469	0.460869	-0.461684
C62	C	0.809469	0.960869	0.038316
N63	N	0.338254	0.472490	-0.541286
N64	N	0.838254	0.972490	-0.041286
N65	N	0.400712	0.472504	-0.541252
N66	N	0.900712	0.972504	-0.041252
C67	C	0.436260	0.460897	-0.461620
C68	C	0.936260	0.960897	0.038380
C69	C	0.200392	0.522139	-0.522865
C70	C	0.700392	1.022139	-0.022865
C71	C	0.134648	0.522113	-0.522905
C72	C	0.634648	1.022113	-0.022905
C73	C	0.144498	0.399518	-0.400651
C74	C	0.644498	0.899518	0.099349
C75	C	0.210241	0.399539	-0.400618
C76	C	0.710241	0.899539	0.099382
C77	C	0.238184	0.460855	-0.461724
C78	C	0.738184	0.960855	0.038276
C79	C	1.036735	0.460829	-0.461753
C80	C	1.536735	0.960829	0.038247
C81	C	1.106702	0.460812	-0.461797
C82	C	1.606702	0.960812	0.038203
C83	C	0.882677	0.224776	-0.448089
C84	C	1.382677	0.724776	0.051911
C85	C	0.886993	0.124166	-0.442310
C86	C	1.386993	0.624166	0.057690
C87	C	0.935733	0.978997	-0.376306
C88	C	1.435733	1.478997	0.123694
C89	C	0.931739	1.073531	-0.381770
C90	C	1.431739	1.573531	0.118230
C91	C	0.846241	1.080262	-0.497392
C92	C	1.346241	1.580262	0.002608
C93	C	0.850235	0.985728	-0.491929
C94	C	1.350235	1.485728	0.008071
C95	C	0.894982	0.935099	-0.431383
C96	C	1.394982	1.435099	0.068617
C97	C	0.898973	0.840564	-0.425915
C98	C	1.398973	1.340564	0.074085
C99	C	0.813478	0.847297	-0.541542
C100	C	1.313478	1.347297	-0.041542
C101	C	0.809484	0.941830	-0.547005
C102	C	1.309484	1.441830	-0.047005
C103	C	0.935718	0.375236	-0.980775
C104	C	1.435718	0.875236	-0.480775
C105	C	0.931709	0.380660	-1.075300
C106	C	1.431709	0.880660	-0.575300
C107	C	0.846230	0.496465	-1.081908
C108	C	1.346230	0.996465	-0.581908
C109	C	0.850239	0.491042	-0.987383
C110	C	1.350239	0.991042	-0.487383
C111	C	0.894985	0.430426	-0.936820
C112	C	1.394985	0.930426	-0.436820
C113	C	0.898997	0.425007	-0.842294
C114	C	1.398997	0.925007	-0.342294
C115	C	0.813515	0.540808	-0.848903
C116	C	1.313515	1.040808	-0.348903
C117	C	0.809506	0.546232	-0.943428
C118	C	1.309506	1.046232	-0.443428
C119	C	0.882565	0.447304	-0.226487
C120	C	1.382565	0.947304	0.273513
C121	C	0.886967	0.441273	-0.125870
C122	C	1.386967	0.941273	0.374130
H123	H	0.623986	0.572168	-0.572420
H124	H	1.123986	1.072168	-0.072420
H125	H	0.522583	0.349709	-0.350700
H126	H	1.022583	0.849709	0.149300
C127	C	0.760284	0.612899	-0.999058
C128	C	1.260284	1.112899	-0.499058
N129	N	0.723208	0.663114	-1.040957
N130	N	1.223208	1.163114	-0.540957
C131	C	0.797022	1.135970	-0.563986
C132	C	1.297022	1.635970	-0.063986
N133	N	0.759949	1.177930	-0.614142
N134	N	1.259949	1.677930	-0.114142
C135	C	0.984953	0.923303	-0.309704
C136	C	1.484953	1.423303	0.190296
N137	N	1.022027	0.881355	-0.259539
N138	N	1.522027	1.381355	0.240461
H139	H	0.964923	1.109269	-0.336922
H140	H	1.464923	1.609269	0.163078
H141	H	0.780294	0.811544	-0.586386
H142	H	1.280294	1.311544	-0.086386
H143	H	0.773054	0.983065	-0.596302
H144	H	1.273054	1.483065	-0.096302
C145	C	0.796999	0.563115	-1.137543
C146	C	1.296999	1.063115	-0.637543
N147	N	0.759913	0.613310	-1.179447
N148	N	1.259913	1.113310	-0.679447
C149	C	0.493918	0.589649	-0.589952
C150	C	0.993918	1.089649	-0.089952
N151	N	0.462604	0.640437	-0.640604
N152	N	0.962604	1.140437	-0.140604
H153	H	0.641855	0.349726	-0.350641
H154	H	1.141855	0.849726	0.149359
C155	C	0.948216	0.358326	-0.786675
C156	C	1.448216	0.858326	-0.286675
N157	N	0.985288	0.308097	-0.744786
N158	N	1.485288	0.808097	-0.244786
H159	H	0.223144	0.572062	-0.572625
H160	H	0.723144	1.072062	-0.072625
C161	C	0.984941	0.308563	-0.925154
C162	C	1.484941	0.808563	-0.425154
N163	N	1.022017	0.258343	-0.883261
N164	N	1.522017	0.758343	-0.383261
H165	H	0.780349	0.585750	-0.813105
H166	H	1.280349	1.085750	-0.313105
C167	C	0.948195	0.784873	-0.359314
C168	C	1.448195	1.284873	0.140686
N169	N	0.985272	0.742929	-0.309150
N170	N	1.485272	1.242929	0.190850
H171	H	0.241010	0.349636	-0.350833
H172	H	0.741010	0.849636	0.149167
H173	H	0.964877	0.335716	-1.111085
H174	H	1.464877	0.835716	-0.611085
H175	H	0.121741	0.349602	-0.350899
H176	H	0.621741	0.849602	0.149101
C177	C	0.093078	0.589546	-0.590153
C178	C	0.593078	1.089546	-0.090153
N179	N	0.061767	0.640342	-0.640801
N180	N	0.561767	1.140342	-0.140801
