data_functionalizedCrystal
_audit_creation_method	'MofGen! by Chris Wilmer'
_symmetry_space_group_name_H-M	'P1'
_symmetry_Int_Tables_number	1
_symmetry_cell_setting	triclinic
loop_
_symmetry_equiv_pos_as_xyz
  x,y,z
_cell_length_a	14.519709
_cell_length_b	15.995350
_cell_length_c	13.596369
_cell_angle_alpha	89.996243
_cell_angle_beta	90.000291
_cell_angle_gamma	83.586260
loop_
_atom_site_label
_atom_site_type_symbol
_atom_site_fract_x
_atom_site_fract_y
_atom_site_fract_z
O1	O	1.223669	0.109760	-0.081658
O2	O	0.955169	0.122685	-0.081688
O3	O	1.096759	-0.005654	-0.081671
O4	O	1.082079	0.238099	-0.081675
O5	O	1.096744	-0.005661	0.081912
O6	O	0.955155	0.122679	0.081895
O7	O	1.223655	0.109753	0.081925
Zn8	Zn	1.089403	0.116215	0.107882
Zn9	Zn	1.089421	0.116224	-0.107645
O10	O	1.082065	0.238093	0.081908
C11	C	0.920803	0.122080	0.000100
C12	C	0.818425	0.120275	0.000088
C13	C	0.443541	0.113629	0.000133
C14	C	0.547846	0.115475	0.000120
C15	C	0.630980	0.116952	0.000110
C16	C	0.735291	0.118797	0.000099
C17	C	1.096145	-0.036853	0.000118
C18	C	1.094325	-0.129806	0.000112
C19	C	1.087791	-0.467563	0.000115
C20	C	0.986954	-0.420280	-0.000263
C21	C	0.988773	-0.323587	0.000106
C22	C	1.091032	-0.299998	0.000113
C23	C	1.140761	-0.341005	0.093531
C24	C	1.138228	-0.437644	0.093609
C25	C	1.140327	-0.437992	-0.092415
C26	C	1.140303	-0.341046	-0.093650
C27	C	1.092869	-0.205298	0.000115
C28	C	1.085957	-0.562264	0.000119
C29	C	1.258021	0.110359	0.000135
C30	C	1.360399	0.112164	0.000140
C31	C	1.082679	0.269292	0.000116
C32	C	1.084498	0.362245	0.000116
N33	N	1.089397	0.116208	0.254974
N34	N	1.089434	0.116224	-0.254737
C35	C	1.089420	0.116225	0.656265
C36	C	1.089411	0.116223	0.544614
C37	C	1.089409	0.116217	0.455623
C38	C	1.089399	0.116214	0.343965
H39	H	0.946656	-0.438870	-0.067255
N40	N	1.238812	-0.479900	-0.093243
H41	H	1.249907	-0.514369	-0.155214
H42	H	1.283055	-0.435495	-0.091020
N43	N	0.936642	-0.286747	0.088952
H44	H	0.870367	-0.300198	0.086074
H45	H	0.967097	-0.311670	0.150706
N46	N	1.094999	-0.303474	0.185605
H47	H	1.027748	-0.314155	0.186527
H48	H	1.127553	-0.330276	0.245272
H49	H	1.212261	-0.469782	0.097852
H50	H	1.103945	-0.313849	-0.162758
N51	N	0.933796	-0.446310	0.087972
H52	H	0.913679	-0.395275	0.129683
H53	H	0.877388	-0.472513	0.065087
H54	H	0.949683	-0.295221	-0.066860
H55	H	1.215888	-0.326767	0.097010
N56	N	1.090181	-0.461972	0.186097
H57	H	1.070841	-0.409941	0.226432
H58	H	1.033579	-0.490008	0.167912
N59	N	1.096673	-0.465260	-0.186208
H60	H	1.042394	-0.497064	-0.169664
H61	H	1.074462	-0.414036	-0.226746
N62	N	1.239087	-0.320562	-0.101118
H63	H	1.247431	-0.289344	-0.164498
H64	H	1.253300	-0.284249	-0.043523
