data_functionalizedCrystal
_audit_creation_method	'MofGen! by Chris Wilmer'
_symmetry_space_group_name_H-M	'P1'
_symmetry_Int_Tables_number	1
_symmetry_cell_setting	triclinic
loop_
_symmetry_equiv_pos_as_xyz
  x,y,z
_cell_length_a	12.827893
_cell_length_b	21.295417
_cell_length_c	12.827885
_cell_angle_alpha	90.037053
_cell_angle_beta	90.019272
_cell_angle_gamma	90.029673
loop_
_atom_site_label
_atom_site_type_symbol
_atom_site_fract_x
_atom_site_fract_y
_atom_site_fract_z
Zn1	Zn	1.597566	-0.250579	0.590796
Zn2	Zn	1.597416	-0.355861	0.416034
Zn3	Zn	1.422807	-0.250610	0.416070
Zn4	Zn	1.422749	-0.355814	0.590734
O5	O	1.510134	-0.303216	0.503408
O6	O	1.743782	-0.264552	0.567624
O7	O	1.574216	-0.341932	0.269803
O8	O	1.446076	-0.162516	0.439288
O9	O	1.743672	-0.341902	0.439228
O10	O	1.574471	-0.162494	0.567659
O11	O	1.445931	-0.264604	0.269829
O12	O	1.276563	-0.264559	0.439228
O13	O	1.445977	-0.341822	0.736978
O14	O	1.276520	-0.341852	0.567553
O15	O	1.574414	-0.264506	0.737024
O16	O	1.574159	-0.443944	0.439168
O17	O	1.445832	-0.443910	0.567519
C18	C	1.238625	-0.303204	0.503388
C19	C	1.122471	-0.303214	0.503405
C20	C	1.070693	-0.341521	0.566806
C21	C	0.950643	-0.341532	0.566824
C22	C	1.510001	-0.466768	0.503355
C23	C	1.510040	-0.536736	0.503368
C24	C	1.576857	-0.569534	0.570258
C25	C	1.576893	-0.635276	0.570284
C26	C	1.510125	-0.668218	0.503401
C27	C	1.443295	-0.635413	0.436506
C28	C	1.443253	-0.569672	0.436489
N29	N	1.502229	-0.771487	0.411945
N30	N	1.502275	-0.833938	0.411964
C31	C	1.510247	-0.866293	0.503448
N32	N	1.518191	-0.833838	0.594915
N33	N	1.518150	-0.771380	0.594895
C34	C	1.510163	-0.739504	0.503412
C35	C	1.577107	-0.970376	0.570372
C36	C	1.577136	-1.036120	0.570399
C37	C	1.443543	-1.036255	0.436612
C38	C	1.443508	-0.970513	0.436594
C39	C	1.510296	-0.937577	0.503472
C40	C	1.782704	-0.303229	0.503429
C41	C	1.898858	-0.303234	0.503438
C42	C	1.510206	-0.303156	0.775979
C43	C	1.510236	-0.303130	0.892132
C44	C	1.510297	-0.139026	0.503484
C45	C	1.510366	-0.069058	0.503517
C46	C	1.510124	-0.303231	0.231898
C47	C	1.510296	-0.303079	0.115746
C48	C	1.573798	-0.264864	0.943939
C49	C	1.573830	-0.264837	1.063990
H50	H	1.115240	-0.374306	0.621077
Cl51	Cl	1.661130	-1.077352	0.654511
Cl52	Cl	1.426247	-0.353678	0.960863
H53	H	1.455879	-0.335844	1.071200
Cl54	Cl	1.657755	-0.214297	0.875208
Cl55	Cl	0.881901	-0.392173	0.650628
H56	H	1.628251	-0.232078	1.108542
Cl57	Cl	1.359601	-1.077662	0.352532
H58	H	1.077924	-0.270424	0.449142
H59	H	1.631486	-0.943559	0.624832
H60	H	1.631236	-0.542719	0.624717
Cl61	Cl	0.967593	-0.252599	0.419620
Cl62	Cl	1.660905	-0.676516	0.654374
Cl63	Cl	1.359505	-0.929279	0.352497
H64	H	1.388929	-0.662239	0.382051
H65	H	1.388841	-0.542967	0.382018
