data_functionalizedCrystal
_audit_creation_method	'MofGen! by Chris Wilmer'
_symmetry_space_group_name_H-M	'P1'
_symmetry_Int_Tables_number	1
_symmetry_cell_setting	triclinic
loop_
_symmetry_equiv_pos_as_xyz
  x,y,z
_cell_length_a	15.995343
_cell_length_b	15.995350
_cell_length_c	15.072220
_cell_angle_alpha	89.998899
_cell_angle_beta	89.991823
_cell_angle_gamma	96.509221
loop_
_atom_site_label
_atom_site_type_symbol
_atom_site_fract_x
_atom_site_fract_y
_atom_site_fract_z
O1	O	1.111000	-0.107890	-0.073689
O2	O	1.361000	0.142110	0.176311
O3	O	1.611000	0.392110	0.426311
O4	O	1.861000	0.642110	0.676311
O5	O	0.867224	-0.121224	-0.073710
O6	O	1.117224	0.128776	0.176290
O7	O	1.367224	0.378776	0.426290
O8	O	1.617224	0.628776	0.676290
O9	O	0.995776	0.007331	-0.073698
O10	O	1.245776	0.257331	0.176302
O11	O	1.495776	0.507331	0.426302
O12	O	1.745776	0.757331	0.676302
O13	O	0.982448	-0.236445	-0.073701
O14	O	1.232448	0.013555	0.176299
O15	O	1.482448	0.263555	0.426299
O16	O	1.732448	0.513555	0.676299
O17	O	0.995744	0.007324	0.073867
O18	O	1.245744	0.257324	0.323867
O19	O	1.495744	0.507324	0.573867
O20	O	1.745744	0.757324	0.823867
O21	O	0.867192	-0.121231	0.073855
O22	O	1.117192	0.128769	0.323855
O23	O	1.367192	0.378769	0.573855
O24	O	1.617192	0.628769	0.823855
O25	O	1.110968	-0.107897	0.073876
O26	O	1.360968	0.142103	0.323876
O27	O	1.610968	0.392103	0.573876
O28	O	1.860968	0.642103	0.823876
Zn29	Zn	0.989075	-0.114565	0.097295
Zn30	Zn	1.239075	0.135435	0.347295
Zn31	Zn	1.489075	0.385435	0.597295
Zn32	Zn	1.739075	0.635435	0.847295
Zn33	Zn	0.989117	-0.114556	-0.097129
Zn34	Zn	1.239117	0.135444	0.152871
Zn35	Zn	1.489117	0.385444	0.402871
Zn36	Zn	1.739117	0.635444	0.652871
O37	O	0.982416	-0.236452	0.073864
O38	O	1.232416	0.013548	0.323864
O39	O	1.482416	0.263548	0.573864
O40	O	1.732416	0.513548	0.823864
C41	C	0.836013	-0.120678	0.000070
C42	C	1.086013	0.129322	0.250070
C43	C	1.336013	0.379322	0.500070
C44	C	1.586013	0.629322	0.750070
C45	C	0.743062	-0.119028	0.000062
C46	C	0.993062	0.130972	0.250062
C47	C	1.243062	0.380972	0.500062
C48	C	1.493062	0.630972	0.750062
C49	C	0.572876	-0.116035	0.000074
C50	C	0.822876	0.133965	0.250074
C51	C	1.072876	0.383965	0.500074
C52	C	1.322876	0.633965	0.750074
C53	C	0.549530	-0.023238	0.000075
C54	C	0.799530	0.226762	0.250075
C55	C	1.049530	0.476762	0.500075
C56	C	1.299530	0.726762	0.750075
C57	C	0.452852	-0.021492	0.000415
C58	C	0.702852	0.228508	0.250415
C59	C	0.952852	0.478508	0.500415
C60	C	1.202852	0.728508	0.750415
C61	C	0.405316	-0.113086	0.000085
C62	C	0.655316	0.136914	0.250085
C63	C	0.905316	0.386914	0.500085
C64	C	1.155316	0.636914	0.750085
C65	C	0.434389	-0.159750	0.084183
C66	C	0.684389	0.090250	0.334183
C67	C	0.934389	0.340250	0.584183
C68	C	1.184389	0.590250	0.834183
C69	C	0.531182	-0.160851	0.084249
C70	C	0.781182	0.089149	0.334249
C71	C	1.031182	0.339149	0.584249
C72	C	1.281182	0.589149	0.834249
C73	C	0.531129	-0.162201	-0.083566
C74	C	0.781129	0.087799	0.166434
C75	C	1.031129	0.337799	0.416434
C76	C	1.281129	0.587799	0.666434
C77	C	0.434634	-0.158776	-0.084666
C78	C	0.684634	0.091224	0.165334
C79	C	0.934634	0.341224	0.415334
C80	C	1.184634	0.591224	0.665334
C81	C	0.310618	-0.111425	0.000094
C82	C	0.560618	0.138575	0.250094
C83	C	0.810618	0.388575	0.500094
C84	C	1.060618	0.638575	0.750094
C85	C	0.667574	-0.117699	0.000071
C86	C	0.917574	0.132301	0.250071
C87	C	1.167574	0.382301	0.500071
C88	C	1.417574	0.632301	0.750071
C89	C	0.995209	0.038522	0.000083
C90	C	1.245209	0.288522	0.250083
C91	C	1.495209	0.538522	0.500083
C92	C	1.745209	0.788522	0.750083
C93	C	0.993557	0.131472	0.000078
C94	C	1.243557	0.381472	0.250078
C95	C	1.493557	0.631472	0.500078
C96	C	1.743557	0.881472	0.750078
C97	C	1.142179	-0.108444	0.000094
C98	C	1.392179	0.141556	0.250094
C99	C	1.642179	0.391556	0.500094
C100	C	1.892179	0.641556	0.750094
C101	C	1.235130	-0.110093	0.000097
C102	C	1.485130	0.139907	0.250097
C103	C	1.735130	0.389907	0.500097
C104	C	1.985130	0.639907	0.750097
C105	C	0.982983	-0.267643	0.000082
C106	C	1.232983	-0.017643	0.250082
C107	C	1.482983	0.232357	0.500082
C108	C	1.732983	0.482357	0.750082
C109	C	0.984635	-0.360594	0.000081
C110	C	1.234635	-0.110594	0.250081
C111	C	1.484635	0.139406	0.500081
C112	C	1.734635	0.389406	0.750081
N113	N	0.989053	-0.114571	0.229984
N114	N	1.239053	0.135429	0.479984
N115	N	1.489053	0.385429	0.729984
N116	N	1.739053	0.635429	0.979984
C117	C	0.987625	0.469220	0.000080
C118	C	1.237625	0.719220	0.250080
C119	C	1.487625	0.969220	0.500080
C120	C	1.737625	1.219220	0.750080
C121	C	0.896073	0.421783	-0.000259
C122	C	1.146073	0.671783	0.249741
C123	C	1.396073	0.921783	0.499741
C124	C	1.646073	1.171783	0.749741
C125	C	0.897725	0.325093	0.000074
C126	C	1.147725	0.575093	0.250074
C127	C	1.397725	0.825093	0.500074
C128	C	1.647725	1.075093	0.750074
C129	C	0.990567	0.301659	0.000078
C130	C	1.240567	0.551659	0.250078
C131	C	1.490567	0.801659	0.500078
C132	C	1.740567	1.051659	0.750078
C133	C	1.035706	0.342734	0.084348
C134	C	1.285706	0.592734	0.334348
C135	C	1.535706	0.842734	0.584348
C136	C	1.785706	1.092734	0.834348
C137	C	1.033406	0.439369	0.084418
C138	C	1.283406	0.689369	0.334418
C139	C	1.533406	0.939369	0.584418
C140	C	1.783406	1.189369	0.834418
C141	C	1.035333	0.439736	-0.083391
C142	C	1.285333	0.689736	0.166609
C143	C	1.535333	0.939736	0.416609
C144	C	1.785333	1.189736	0.666609
C145	C	1.035312	0.342790	-0.084505
C146	C	1.285312	0.592790	0.165495
C147	C	1.535312	0.842790	0.415495
C148	C	1.785312	1.092790	0.665495
C149	C	0.992235	0.206962	0.000080
C150	C	1.242235	0.456962	0.250080
C151	C	1.492235	0.706962	0.500080
C152	C	1.742235	0.956962	0.750080
C153	C	0.985960	0.563917	0.000084
C154	C	1.235960	0.813917	0.250084
C155	C	1.485960	1.063917	0.500084
C156	C	1.735960	1.313917	0.750084
N157	N	0.989146	-0.114543	-0.229817
N158	N	1.239146	0.135457	0.020183
N159	N	1.489146	0.385457	0.270183
N160	N	1.739146	0.635457	0.520183
C161	C	0.989115	-0.114553	0.589185
C162	C	1.239115	0.135447	0.839185
C163	C	1.489115	0.385447	1.089185
C164	C	1.739115	0.635447	1.339185
C165	C	0.920099	-0.183109	0.551572
C166	C	1.170099	0.066891	0.801572
C167	C	1.420099	0.316891	1.051572
C168	C	1.670099	0.566891	1.301572
C169	C	0.920257	-0.183360	0.448746
C170	C	1.170257	0.066640	0.698746
C171	C	1.420257	0.316640	0.948746
C172	C	1.670257	0.566640	1.198746
C173	C	0.989083	-0.114562	0.410981
C174	C	1.239083	0.135438	0.660981
C175	C	1.489083	0.385438	0.910981
C176	C	1.739083	0.635438	1.160981
C177	C	1.076449	-0.133641	0.448280
C178	C	1.326449	0.116359	0.698280
C179	C	1.576449	0.366359	0.948280
C180	C	1.826449	0.616359	1.198280
C181	C	1.076062	-0.134128	0.551138
C182	C	1.326062	0.115872	0.801138
C183	C	1.576062	0.365872	1.051138
C184	C	1.826062	0.615872	1.301138
C185	C	0.971546	-0.026714	0.551285
C186	C	1.221546	0.223286	0.801285
C187	C	1.471546	0.473286	1.051285
C188	C	1.721546	0.723286	1.301285
C189	C	0.969541	-0.027300	0.448421
C190	C	1.219541	0.222700	0.698421
C191	C	1.469541	0.472700	0.948421
C192	C	1.719541	0.722700	1.198421
C193	C	0.989071	-0.114565	0.310268
C194	C	1.239071	0.135435	0.560268
C195	C	1.489071	0.385435	0.810268
C196	C	1.739071	0.635435	1.060268
C197	C	0.989133	-0.114551	0.689899
C198	C	1.239133	0.135449	0.939899
C199	C	1.489133	0.385449	1.189899
C200	C	1.739133	0.635449	1.439899
H201	H	0.401678	-0.225608	-0.090006
H202	H	0.651678	0.024392	0.159994
H203	H	0.901678	0.274392	0.409994
H204	H	1.151678	0.524392	0.659994
H205	H	0.859493	0.440317	-0.060690
H206	H	1.109493	0.690317	0.189310
H207	H	1.359493	0.940317	0.439310
H208	H	1.609493	1.190317	0.689310
H209	H	1.103018	0.327431	-0.089589
H210	H	1.353018	0.577431	0.160411
H211	H	1.603018	0.827431	0.410411
H212	H	1.853018	1.077431	0.660411
H213	H	0.854949	-0.171929	0.576328
H214	H	1.104949	0.078071	0.826328
H215	H	1.354949	0.328071	1.076328
H216	H	1.604949	0.578071	1.326328
H217	H	1.103914	0.328610	0.087485
H218	H	1.353914	0.578610	0.337485
H219	H	1.603914	0.828610	0.587485
H220	H	1.853914	1.078610	0.837485
H221	H	1.016544	0.026107	0.422717
H222	H	1.266544	0.276107	0.672717
H223	H	1.516544	0.526107	0.922717
H224	H	1.766544	0.776107	1.172717
H225	H	1.092301	-0.196971	0.422511
H226	H	1.342301	0.053029	0.672511
H227	H	1.592301	0.303029	0.922511
H228	H	1.842301	0.553029	1.172511
H229	H	1.129023	-0.086164	0.576017
H230	H	1.379023	0.163836	0.826017
H231	H	1.629023	0.413836	1.076017
H232	H	1.879023	0.663836	1.326017
H233	H	0.545142	-0.230506	-0.084378
H234	H	0.795142	0.019494	0.165622
H235	H	1.045142	0.269494	0.415622
H236	H	1.295142	0.519494	0.665622
H237	H	0.931163	-0.247926	0.577411
H238	H	1.181163	0.002074	0.827411
H239	H	1.431163	0.252074	1.077411
H240	H	1.681163	0.502074	1.327411
H241	H	1.021876	0.024304	0.575608
H242	H	1.271876	0.274304	0.825608
H243	H	1.521876	0.524304	1.075608
H244	H	1.771876	0.774304	1.325608
H245	H	0.862241	0.296673	-0.060334
H246	H	1.112241	0.546673	0.189666
H247	H	1.362241	0.796673	0.439666
H248	H	1.612241	1.046673	0.689666
H249	H	0.861977	0.297224	0.060579
H250	H	1.111977	0.547224	0.310579
H251	H	1.361977	0.797224	0.560579
H252	H	1.611977	1.047224	0.810579
H253	H	0.909223	-0.008367	0.577270
H254	H	1.159223	0.241633	0.827270
H255	H	1.409223	0.491633	1.077270
H256	H	1.659223	0.741633	1.327270
H257	H	0.855317	-0.171992	0.423530
H258	H	1.105317	0.078008	0.673530
H259	H	1.355317	0.328008	0.923530
H260	H	1.605317	0.578008	1.173530
H261	H	0.578502	0.012142	0.060294
H262	H	0.828502	0.262142	0.310294
H263	H	1.078502	0.512142	0.560294
H264	H	1.328502	0.762142	0.810294
H265	H	1.000464	0.457667	0.147407
H266	H	1.250464	0.707667	0.397407
H267	H	1.500464	0.957667	0.647407
H268	H	1.750464	1.207667	0.897407
H269	H	1.129033	-0.085036	0.423815
H270	H	1.379033	0.164964	0.673815
H271	H	1.629033	0.414964	0.923815
H272	H	1.879033	0.664964	1.173815
H273	H	0.416090	-0.124793	-0.146884
H274	H	0.666090	0.125207	0.103116
H275	H	0.916090	0.375207	0.353116
H276	H	1.166090	0.625207	0.603116
H277	H	0.402543	-0.227161	0.087074
H278	H	0.652543	0.022839	0.337074
H279	H	0.902543	0.272839	0.587074
H280	H	1.152543	0.522839	0.837074
H281	H	0.433846	0.015036	-0.059858
H282	H	0.683846	0.265036	0.190142
H283	H	0.933846	0.515036	0.440142
H284	H	1.183846	0.765036	0.690142
H285	H	1.004329	0.314348	0.147055
H286	H	1.254329	0.564348	0.397055
H287	H	1.504329	0.814348	0.647055
H288	H	1.754329	1.064348	0.897055
H289	H	1.102835	0.471498	-0.083954
H290	H	1.352835	0.721498	0.166046
H291	H	1.602835	0.971498	0.416046
H292	H	1.852835	1.221498	0.666046
H293	H	0.931476	-0.248543	0.424133
H294	H	1.181476	0.001457	0.674133
H295	H	1.431476	0.251457	0.924133
H296	H	1.681476	0.501457	1.174133
H297	H	1.100622	0.471619	0.088244
H298	H	1.350622	0.721619	0.338244
H299	H	1.600622	0.971619	0.588244
H300	H	1.850622	1.221619	0.838244
H301	H	0.859629	0.441373	0.059830
H302	H	1.109629	0.691373	0.309830
H303	H	1.359629	0.941373	0.559830
H304	H	1.609629	1.191373	0.809830
H305	H	1.005414	0.460278	-0.147262
H306	H	1.255414	0.710278	0.102738
H307	H	1.505414	0.960278	0.352738
H308	H	1.755414	1.210278	0.602738
H309	H	1.002310	0.315544	-0.146845
H310	H	1.252310	0.565544	0.103155
H311	H	1.502310	0.815544	0.353155
H312	H	1.752310	1.065544	0.603155
H313	H	0.577551	0.012734	-0.060224
H314	H	0.827551	0.262734	0.189776
H315	H	1.077551	0.512734	0.439776
H316	H	1.327551	0.762734	0.689776
H317	H	1.091544	-0.198189	0.575120
H318	H	1.341544	0.051811	0.825120
H319	H	1.591544	0.301811	1.075120
H320	H	1.841544	0.551811	1.325120
H321	H	0.434402	0.014859	0.061054
H322	H	0.684402	0.264859	0.311054
H323	H	0.934402	0.514859	0.561054
H324	H	1.184402	0.764859	0.811054
H325	H	0.557954	-0.128918	0.147354
H326	H	0.807954	0.121082	0.397354
H327	H	1.057954	0.371082	0.647354
H328	H	1.307954	0.621082	0.897354
H329	H	0.545755	-0.228901	0.087844
H330	H	0.795755	0.021099	0.337844
H331	H	1.045755	0.271099	0.587844
H332	H	1.295755	0.521099	0.837844
H333	H	0.559412	-0.132921	-0.147330
H334	H	0.809412	0.117079	0.102670
H335	H	1.059412	0.367079	0.352670
H336	H	1.309412	0.617079	0.602670
H337	H	0.905274	-0.012820	0.424043
H338	H	1.155274	0.237180	0.674043
H339	H	1.405274	0.487180	0.924043
H340	H	1.655274	0.737180	1.174043
H341	H	0.414284	-0.127739	0.147008
H342	H	0.664284	0.122261	0.397008
H343	H	0.914284	0.372261	0.647008
H344	H	1.164284	0.622261	0.897008
