data_functionalizedCrystal
_audit_creation_method	'MofGen! by Chris Wilmer'
_symmetry_space_group_name_H-M	'P1'
_symmetry_Int_Tables_number	1
_symmetry_cell_setting	triclinic
loop_
_symmetry_equiv_pos_as_xyz
  x,y,z
_cell_length_a	15.297979
_cell_length_b	15.299816
_cell_length_c	17.077396
_cell_angle_alpha	99.655205
_cell_angle_beta	80.292640
_cell_angle_gamma	91.635460
loop_
_atom_site_label
_atom_site_type_symbol
_atom_site_fract_x
_atom_site_fract_y
_atom_site_fract_z
Zn1	Zn	1.399611	-0.117181	-0.672664
Zn2	Zn	1.424858	-0.263652	-0.567289
Zn3	Zn	1.253123	-0.142530	-0.523133
Zn4	Zn	1.278410	-0.288901	-0.680225
O5	O	1.339001	-0.203066	-0.610828
O6	O	1.525555	-0.115435	-0.674000
O7	O	1.402061	-0.247627	-0.451589
O8	O	1.251407	-0.016613	-0.521325
O9	O	1.544104	-0.223046	-0.596582
O10	O	1.359030	0.002012	-0.631184
O11	O	1.275888	-0.158639	-0.419148
O12	O	1.133883	-0.183122	-0.528657
O13	O	1.294505	-0.266080	-0.789065
O14	O	1.152462	-0.290660	-0.644072
O15	O	1.383550	-0.139918	-0.783510
O16	O	1.426580	-0.389556	-0.603914
O17	O	1.318986	-0.408106	-0.686888
C18	C	1.111385	-0.242382	-0.582394
C19	C	1.014014	-0.259223	-0.570252
C20	C	0.977910	-0.323074	-0.524145
C21	C	0.886425	-0.338899	-0.512741
C22	C	0.831034	-0.290870	-0.547439
C23	C	0.867137	-0.227013	-0.593543
C24	C	0.958632	-0.211192	-0.604953
C25	C	0.811757	-0.178987	-0.628247
C26	C	0.847860	-0.115130	-0.674351
C27	C	0.939346	-0.099311	-0.685758
C28	C	0.994736	-0.147341	-0.651061
C29	C	0.720262	-0.194809	-0.616837
C30	C	0.700985	-0.082926	-0.697645
C31	C	0.792469	-0.067101	-0.709049
C32	C	1.378290	-0.430604	-0.651033
C33	C	1.395179	-0.527932	-0.668269
C34	C	1.218871	-0.841331	-0.487977
C35	C	1.202999	-0.749887	-0.471784
C36	C	1.251043	-0.694394	-0.520903
C37	C	1.314961	-0.730353	-0.586219
C38	C	1.330830	-0.821807	-0.602418
C39	C	1.363001	-0.674870	-0.635344
C40	C	1.426920	-0.710830	-0.700660
C41	C	1.442786	-0.802274	-0.716855
C42	C	1.394742	-0.857767	-0.667736
C43	C	1.347133	-0.583416	-0.619146
C44	C	1.459091	-0.563893	-0.733587
C45	C	1.474963	-0.655337	-0.749780
C46	C	1.567505	-0.163596	-0.639373
C47	C	1.664880	-0.146777	-0.651538
C48	C	1.339032	-0.202987	-0.815565
C49	C	1.339045	-0.202954	-0.902812
C50	C	1.299582	0.025365	-0.570486
C51	C	1.282784	0.122709	-0.553295
C52	C	1.404805	-0.249174	-1.295513
C53	C	1.404787	-0.249203	-1.213534
C54	C	1.339091	-0.202882	-1.155657
C55	C	1.273402	-0.156536	-1.179762
C56	C	1.273417	-0.156513	-1.261740
C57	C	1.273377	-0.156587	-1.008896
C58	C	1.273363	-0.156609	-0.926913
C59	C	1.404748	-0.249278	-0.960690
C60	C	1.404762	-0.249254	-1.042668
C61	C	1.339075	-0.202907	-1.066767
C62	C	1.339009	-0.203072	-0.406882
C63	C	1.339123	-0.202829	-0.319613
H64	H	0.968739	-0.047323	-0.723308
Cl65	Cl	1.414876	-0.972699	-0.687949
Cl66	Cl	1.487324	-0.307547	-0.930395
Cl67	Cl	1.555313	-0.700554	-0.831889
Cl68	Cl	1.122640	-0.704688	-0.389684
Cl69	Cl	0.841041	-0.419155	-0.454766
Cl70	Cl	1.190846	-0.098243	-1.292037
Cl71	Cl	1.519491	-0.494137	-0.795342
Cl72	Cl	1.487355	-0.307485	-1.115427
Cl73	Cl	1.230782	-0.579489	-0.500781
Cl74	Cl	1.190821	-0.098290	-1.107002
H75	H	1.069231	-0.134457	-0.660340
H76	H	1.219869	-0.118888	-0.879790
H77	H	0.821878	-0.015109	-0.746587
Cl78	Cl	0.674886	-0.275083	-0.558880
Cl79	Cl	0.631358	-0.022545	-0.741271
H80	H	1.494828	-0.831550	-0.770043
Cl81	Cl	1.487405	-0.307403	-1.368265
Cl82	Cl	1.190808	-0.098305	-1.039190
H83	H	1.295090	-0.554147	-0.565966
H84	H	0.756544	-0.303758	-0.538151
Cl85	Cl	1.158468	-0.911098	-0.426245
H86	H	1.458263	-0.286954	-1.193917
Cl87	Cl	1.047547	-0.383453	-0.480538
