data_functionalizedCrystal
_audit_creation_method	'MofGen! by Chris Wilmer'
_symmetry_space_group_name_H-M	'P1'
_symmetry_Int_Tables_number	1
_symmetry_cell_setting	triclinic
loop_
_symmetry_equiv_pos_as_xyz
  x,y,z
_cell_length_a	19.805405
_cell_length_b	19.805407
_cell_length_c	19.805399
_cell_angle_alpha	90.021064
_cell_angle_beta	89.973385
_cell_angle_gamma	89.974289
loop_
_atom_site_label
_atom_site_type_symbol
_atom_site_fract_x
_atom_site_fract_y
_atom_site_fract_z
Zn1	Zn	-0.269497	-1.034734	-0.382751
Zn2	Zn	0.230503	-0.534734	0.117249
Zn3	Zn	-0.382686	-1.034648	-0.269565
Zn4	Zn	0.117314	-0.534648	0.230435
Zn5	Zn	-0.269514	-0.921549	-0.269573
Zn6	Zn	0.230486	-0.421549	0.230427
Zn7	Zn	-0.382648	-0.921512	-0.382709
Zn8	Zn	0.117352	-0.421512	0.117291
O9	O	-0.326086	-0.978111	-0.326149
O10	O	0.173914	-0.478111	0.173851
O11	O	-0.284521	-1.129439	-0.367751
O12	O	0.215479	-0.629439	0.132249
O13	O	-0.367696	-1.019625	-0.174849
O14	O	0.132304	-0.519625	0.325151
O15	O	-0.174795	-0.936615	-0.284607
O16	O	0.325205	-0.436615	0.215393
O17	O	-0.367680	-1.129376	-0.284594
O18	O	0.132320	-0.629376	0.215406
O19	O	-0.174783	-1.019771	-0.367759
O20	O	0.325217	-0.519771	0.132241
O21	O	-0.284549	-0.936531	-0.174855
O22	O	0.215451	-0.436531	0.325145
O23	O	-0.284512	-0.826827	-0.284566
O24	O	0.215488	-0.326827	0.215434
O25	O	-0.367615	-0.936551	-0.477431
O26	O	0.132385	-0.436551	0.022569
O27	O	-0.367631	-0.826800	-0.367686
O28	O	0.132369	-0.326800	0.132314
O29	O	-0.284484	-1.019735	-0.477462
O30	O	0.215516	-0.519735	0.022538
O31	O	-0.477397	-1.019589	-0.284552
O32	O	0.022603	-0.519589	0.215448
O33	O	-0.477369	-0.936468	-0.367679
O34	O	0.022631	-0.436468	0.132321
C35	C	-0.326070	-0.802255	-0.326123
C36	C	0.173930	-0.302255	0.173877
C37	C	-0.326079	-0.727023	-0.326128
C38	C	0.173921	-0.227023	0.173872
C39	C	-0.369424	-0.691682	-0.369337
C40	C	0.130576	-0.191682	0.130663
C41	C	-0.369424	-0.620994	-0.369345
C42	C	0.130576	-0.120994	0.130655
C43	C	-0.326082	-0.585647	-0.326139
C44	C	0.173918	-0.085647	0.173861
C45	C	-0.282733	-0.620993	-0.282927
C46	C	0.217267	-0.120993	0.217073
C47	C	-0.282730	-0.691680	-0.282924
C48	C	0.217270	-0.191680	0.217076
C49	C	-0.282743	-0.335920	-0.282942
C50	C	0.217257	0.164080	0.217058
C51	C	-0.282750	-0.265227	-0.282948
C52	C	0.217250	0.234773	0.217052
C53	C	-0.369437	-0.265233	-0.369364
C54	C	0.130563	0.234767	0.130636
C55	C	-0.369434	-0.335920	-0.369360
C56	C	0.130566	0.164080	0.130640
C57	C	-0.326082	-0.371260	-0.326151
C58	C	0.173918	0.128740	0.173849
C59	C	-0.326082	-0.447908	-0.326144
C60	C	0.173918	0.052092	0.173856
C61	C	-0.326085	-0.509000	-0.326142
C62	C	0.173915	-0.009000	0.173858
C63	C	-0.501942	-0.978034	-0.326125
C64	C	-0.001942	-0.478034	0.173875
C65	C	-0.577174	-0.978063	-0.326137
C66	C	-0.077174	-0.478063	0.173863
C67	C	-0.612454	-1.021337	-0.369468
C68	C	-0.112454	-0.521337	0.130532
C69	C	-0.683142	-1.021361	-0.369481
C70	C	-0.183142	-0.521361	0.130519
C71	C	-0.718550	-0.978114	-0.326158
C72	C	-0.218550	-0.478114	0.173842
C73	C	-0.683265	-0.934835	-0.282825
C74	C	-0.183265	-0.434835	0.217175
C75	C	-0.612578	-0.934808	-0.282817
C76	C	-0.112578	-0.434808	0.217183
C77	C	-0.968338	-0.934944	-0.282860
C78	C	-0.468338	-0.434944	0.217140
C79	C	-1.039030	-0.934976	-0.282871
C80	C	-0.539030	-0.434976	0.217129
C81	C	-1.038902	-1.021497	-0.369524
C82	C	-0.538902	-0.521497	0.130476
C83	C	-0.968215	-1.021470	-0.369515
C84	C	-0.468215	-0.521470	0.130485
C85	C	-0.932937	-0.978189	-0.326185
C86	C	-0.432937	-0.478189	0.173815
C87	C	-0.856289	-0.978162	-0.326173
C88	C	-0.356289	-0.478162	0.173827
C89	C	-0.795197	-0.978144	-0.326167
C90	C	-0.295197	-0.478144	0.173833
C91	C	-0.149543	-0.978207	-0.326189
C92	C	0.350457	-0.478207	0.173811
C93	C	-0.074311	-0.978248	-0.326206
C94	C	0.425689	-0.478248	0.173794
C95	C	-0.326043	-0.978149	-0.502692
C96	C	0.173957	-0.478149	-0.002692
C97	C	-0.326025	-0.978165	-0.577924
C98	C	0.173975	-0.478165	-0.077924
C99	C	-0.326098	-0.154653	-0.326170
C100	C	0.173902	0.345347	0.173830
C101	C	-0.326092	-0.229885	-0.326162
C102	C	0.173908	0.270115	0.173838
C103	C	-0.282737	-1.021480	-0.613286
C104	C	0.217263	-0.521480	-0.113286
C105	C	-0.282717	-1.021487	-0.683974
C106	C	0.217283	-0.521487	-0.183974
C107	C	-0.325990	-0.978182	-0.719300
C108	C	0.174010	-0.478182	-0.219300
C109	C	-0.369280	-0.934862	-0.683933
C110	C	0.130720	-0.434862	-0.183933
C111	C	-0.369296	-0.934852	-0.613246
C112	C	0.130704	-0.434852	-0.113246
C113	C	-0.369217	-0.934900	-0.969007
C114	C	0.130783	-0.434900	-0.469007
C115	C	-0.369200	-0.934915	-1.039699
C116	C	0.130800	-0.434915	-0.539699
C117	C	-0.282638	-1.021535	-1.039735
C118	C	0.217362	-0.521535	-0.539735
C119	C	-0.282654	-1.021525	-0.969048
C120	C	0.217346	-0.521525	-0.469048
C121	C	-0.325942	-0.978203	-0.933687
C122	C	0.174058	-0.478203	-0.433687
C123	C	-0.325961	-0.978195	-0.857039
C124	C	0.174039	-0.478195	-0.357039
C125	C	-0.325974	-0.978193	-0.795947
C126	C	0.174026	-0.478193	-0.295947
C127	C	-0.326080	-0.978112	-0.150293
C128	C	0.173920	-0.478112	0.349707
C129	C	-0.325907	-0.978227	-0.075062
C130	C	0.174093	-0.478227	0.424938
H131	H	-0.247440	-0.592208	-0.247751
H132	H	0.252560	-0.092208	0.252249
H133	H	-0.712100	-0.899620	-0.247554
H134	H	-0.212100	-0.399620	0.252446
O135	O	-0.578166	-1.063367	-0.411618
O136	O	-0.078166	-0.563367	0.088382
C137	C	-0.624467	-1.101577	-0.449855
C138	C	-0.124467	-0.601577	0.050145
H139	H	-0.674877	-1.073872	-0.452174
H140	H	-0.174877	-0.573872	0.047826
H141	H	-0.604008	-1.108753	-0.503189
H142	H	-0.104008	-0.608753	-0.003189
H143	H	-0.631955	-1.153002	-0.425123
H144	H	-0.131955	-0.653002	0.074877
H145	H	-0.247431	-0.720453	-0.247741
H146	H	0.252569	-0.220453	0.252259
O147	O	-0.717437	-1.063307	-0.411642
O148	O	-0.217437	-0.563307	0.088358
C149	C	-0.758344	-1.024773	-0.455325
C150	C	-0.258344	-0.524773	0.044675
H151	H	-0.737090	-0.971452	-0.459457
H152	H	-0.237090	-0.471452	0.040543
H153	H	-0.759087	-1.049230	-0.507435
H154	H	-0.259087	-0.549230	-0.007435
H155	H	-0.811934	-1.022478	-0.434409
H156	H	-0.311934	-0.522478	0.065591
H157	H	-0.939389	-1.056688	-0.404790
H158	H	-0.439389	-0.556688	0.095210
O159	O	-1.073206	-1.063438	-0.411694
O160	O	-0.573206	-0.563438	0.088306
C161	C	-1.114110	-1.024891	-0.455369
C162	C	-0.614110	-0.524891	0.044631
H163	H	-1.092848	-0.971573	-0.459496
H164	H	-0.592848	-0.471573	0.040504
H165	H	-1.114861	-1.049341	-0.507481
H166	H	-0.614861	-0.549341	-0.007481
H167	H	-1.167697	-1.022590	-0.434447
H168	H	-0.667697	-0.522590	0.065553
H169	H	-1.067857	-0.899756	-0.247591
H170	H	-0.567857	-0.399756	0.252409
O171	O	-0.578232	-0.892866	-0.240690
O172	O	-0.078232	-0.392866	0.259310
C173	C	-0.537348	-0.931408	-0.196993
C174	C	-0.037348	-0.431408	0.303007
H175	H	-0.526699	-0.982684	-0.220911
H176	H	-0.026699	-0.482684	0.279089
H177	H	-0.487670	-0.903822	-0.187892
H178	H	0.012330	-0.403822	0.312108
H179	H	-0.564612	-0.938884	-0.146844
H180	H	-0.064612	-0.438884	0.353156
H181	H	-0.404539	-0.899574	-0.584456
H182	H	0.095461	-0.399574	-0.084456
O183	O	-0.411598	-0.726045	-0.411212
O184	O	0.088402	-0.226045	0.088788
C185	C	-0.455254	-0.766912	-0.372601
C186	C	0.044746	-0.266912	0.127399
H187	H	-0.459368	-0.745587	-0.319286
H188	H	0.040632	-0.245587	0.180714
H189	H	-0.507374	-0.767702	-0.396991
H190	H	-0.007374	-0.267702	0.103009
H191	H	-0.434322	-0.820493	-0.370304
H192	H	0.065678	-0.320493	0.129696
O193	O	-0.240796	-1.063617	-0.578942
O194	O	0.259204	-0.563617	-0.078942
C195	C	-0.279340	-1.107297	-0.538039
C196	C	0.220660	-0.607297	-0.038039
H197	H	-0.332644	-1.111457	-0.559329
H198	H	0.167356	-0.611457	-0.059329
H199	H	-0.254860	-1.159397	-0.537254
H200	H	0.245140	-0.659397	-0.037254
H201	H	-0.281682	-1.086360	-0.484462
H202	H	0.218318	-0.586360	0.015538
H203	H	-0.404729	-0.364696	-0.404541
H204	H	0.095271	0.135304	0.095459
O205	O	-0.240648	-1.063630	-0.718219
O206	O	0.259352	-0.563630	-0.218219
C207	C	-0.202450	-1.101841	-0.671882
C208	C	0.297550	-0.601841	-0.171882
H209	H	-0.230187	-1.104160	-0.621489
H210	H	0.269813	-0.604160	-0.121489
H211	H	-0.195234	-1.155177	-0.692320
H212	H	0.304766	-0.655177	-0.192320
H213	H	-0.151042	-1.077086	-0.664370
H214	H	0.348958	-0.577086	-0.164370
O215	O	-0.934180	-0.892890	-0.240699
O216	O	-0.434180	-0.392890	0.259301
C217	C	-0.980592	-0.854720	-0.202473
C218	C	-0.480592	-0.354720	0.297527
H219	H	-1.030958	-0.882466	-0.200170
H220	H	-0.530958	-0.382466	0.299830
H221	H	-0.960210	-0.847531	-0.149132
H222	H	-0.460210	-0.347531	0.350868
H223	H	-0.988137	-0.803299	-0.227203
H224	H	-0.488137	-0.303299	0.272797
H225	H	-0.247448	-0.364684	-0.247754
H226	H	0.252552	0.135316	0.252246
H227	H	-0.247452	-0.236450	-0.247764
H228	H	0.252548	0.263550	0.252236
O229	O	-0.240560	-1.063677	-1.073980
O230	O	0.259440	-0.563677	-0.573980
C231	C	-0.202361	-1.101886	-1.027642
C232	C	0.297639	-0.601886	-0.527642
H233	H	-0.230099	-1.104206	-0.977249
H234	H	0.269901	-0.604206	-0.477249
H235	H	-0.195141	-1.155222	-1.048078
H236	H	0.304859	-0.655222	-0.548078
H237	H	-0.150954	-1.077128	-1.020127
H238	H	0.349046	-0.577128	-0.520127
H239	H	-0.404511	-0.899600	-0.712701
H240	H	0.095489	-0.399600	-0.212701
O241	O	-0.240576	-1.063492	-0.934664
O242	O	0.259424	-0.563492	-0.434664
C243	C	-0.196856	-1.024963	-0.893798
C244	C	0.303144	-0.524963	-0.393798
H245	H	-0.220735	-0.973660	-0.883188
H246	H	0.279265	-0.473660	-0.383188
H247	H	-0.187784	-1.052527	-0.844100
H248	H	0.312216	-0.552527	-0.344100
H249	H	-0.146696	-1.017546	-0.921059
H250	H	0.353304	-0.517546	-0.421059
H251	H	-0.404439	-0.899648	-1.068459
H252	H	0.095561	-0.399648	-0.568459
H253	H	-0.404475	-0.899635	-0.940225
H254	H	0.095525	-0.399635	-0.440225
H255	H	-0.404733	-0.236451	-0.404549
H256	H	0.095267	0.263549	0.095451
O257	O	-0.411601	-0.586769	-0.411333
O258	O	0.088399	-0.086769	0.088667
C259	C	-0.449849	-0.633124	-0.449471
C260	C	0.050151	-0.133124	0.050529
H261	H	-0.452144	-0.683501	-0.421742
H262	H	0.047856	-0.183501	0.078258
H263	H	-0.503190	-0.612685	-0.456585
H264	H	-0.003190	-0.112685	0.043415
H265	H	-0.425142	-0.640671	-0.500926
H266	H	0.074858	-0.140671	-0.000926
