data_functionalizedCrystal
_audit_creation_method	'MofGen! by Chris Wilmer'
_symmetry_space_group_name_H-M	'P1'
_symmetry_Int_Tables_number	1
_symmetry_cell_setting	triclinic
loop_
_symmetry_equiv_pos_as_xyz
  x,y,z
_cell_length_a	21.606444
_cell_length_b	23.196402
_cell_length_c	23.196401
_cell_angle_alpha	60.008822
_cell_angle_beta	90.012419
_cell_angle_gamma	60.001587
loop_
_atom_site_label
_atom_site_type_symbol
_atom_site_fract_x
_atom_site_fract_y
_atom_site_fract_z
Zr1	Zr	0.596220	0.631023	-0.075647
O2	O	0.497378	0.751286	-0.167691
O3	O	0.626518	0.510758	-0.047435
O4	O	0.626491	0.631025	-0.167700
O5	O	0.497429	0.631017	0.047446
O6	O	0.728341	0.631030	-0.167704
O7	O	0.497405	0.631018	-0.047425
O8	O	0.728390	0.415894	0.047429
O9	O	0.497380	0.846153	-0.167687
O10	O	0.715452	0.560229	-0.035401
O11	O	0.639461	0.560224	0.035403
O12	O	0.639429	0.701823	-0.106194
O13	O	0.563438	0.701819	-0.035390
Zr14	Zr	0.758698	0.631027	0.075656
Zr15	Zr	0.758659	0.631029	-0.075653
Zr16	Zr	0.596259	0.631020	0.075661
Zr17	Zr	0.596225	0.782325	-0.075641
Zr18	Zr	0.758693	0.479725	0.075649
O19	O	0.728400	0.751291	0.047443
O20	O	0.728344	0.751295	-0.167698
O21	O	0.497433	0.751282	0.047451
O22	O	0.857540	0.510764	0.167699
O23	O	0.857485	0.510768	-0.047443
O24	O	0.626574	0.510755	0.167707
O25	O	0.857489	0.631033	-0.047438
O26	O	0.728427	0.631024	0.167709
O27	O	0.626577	0.631020	0.167712
O28	O	0.857513	0.631031	0.047434
O29	O	0.626497	0.846158	-0.167691
O30	O	0.728421	0.415892	0.167699
O31	O	0.857538	0.415897	0.167695
O32	O	0.857507	0.415899	0.047425
O33	O	0.497411	0.846151	-0.047416
O34	O	0.626528	0.846156	-0.047421
O35	O	0.715489	0.560226	0.106202
O36	O	0.791480	0.560231	0.035398
O37	O	0.715457	0.701825	-0.035395
O38	O	0.639466	0.701821	0.035409
C39	C	0.677453	0.441769	-0.000004
C40	C	0.677452	0.377537	-0.000007
C41	C	0.717113	0.347369	-0.036968
C42	C	0.717120	0.287008	-0.036963
C43	C	0.677451	0.256829	-0.000005
C44	C	0.637788	0.287001	0.036965
C45	C	0.637788	0.347355	0.036964
C46	C	0.610992	0.194797	-0.005277
C47	C	0.610989	0.134447	-0.005281
C48	C	0.677452	0.070674	0.000002
C49	C	0.743917	0.067265	0.005276
C50	C	0.743917	0.127619	0.005275
C51	C	0.677447	0.191384	0.000001
C52	C	0.717125	-0.024946	-0.036955
C53	C	0.717135	-0.085311	-0.036944
C54	C	0.637795	-0.085311	0.036979
C55	C	0.637793	-0.024952	0.036973
C56	C	0.677456	0.005230	0.000002
C57	C	0.474273	0.631017	0.000011
C58	C	0.405314	0.631014	0.000013
C59	C	0.412598	0.557104	0.036964
C60	C	0.347801	0.557106	0.036965
C61	C	0.275720	0.631019	0.000010
C62	C	0.268437	0.704936	-0.036942
C63	C	0.333234	0.704932	-0.036938
C64	C	0.007119	0.704950	-0.036957
C65	C	-0.057679	0.704947	-0.036960
C66	C	0.021686	0.557123	0.036945
C67	C	0.086482	0.557120	0.036949
C68	C	0.079194	0.631036	0.000000
C69	C	0.149455	0.631032	0.000001
C70	C	0.205459	0.631024	0.000005
C71	C	0.880645	0.631033	-0.000003
C72	C	0.949604	0.631036	-0.000005
C73	C	0.677410	0.631028	-0.189260
C74	C	0.677394	0.631029	-0.253495
C75	C	0.677465	0.820281	0.000012
C76	C	0.677466	0.884513	0.000015
C77	C	0.637714	0.704938	-0.320621
C78	C	0.637733	0.704939	-0.380976
C79	C	0.677422	0.631027	-0.374201
C80	C	0.717110	0.557108	-0.307063
C81	C	0.717096	0.557109	-0.246710
C82	C	0.671784	0.574399	-0.441520
C83	C	0.671793	0.574401	-0.501874
C84	C	0.677470	0.631021	-0.560349
C85	C	0.683123	0.687652	-0.558469
C86	C	0.683109	0.687653	-0.498116
C87	C	0.677442	0.631017	-0.439640
C88	C	0.637809	0.704936	-0.692922
C89	C	0.637834	0.704934	-0.753276
C90	C	0.717206	0.557101	-0.679361
C91	C	0.717186	0.557105	-0.619008
C92	C	0.677484	0.631025	-0.625793
C93	C	0.677508	0.631022	0.189269
C94	C	0.677524	0.631021	0.253503
C95	C	0.880639	0.441777	-0.000011
C96	C	0.949597	0.377548	-0.000016
C97	C	0.677502	0.441766	0.189261
C98	C	0.677517	0.377533	0.253492
C99	C	0.880688	0.441774	0.189254
C100	C	0.949662	0.377544	0.253483
C101	C	0.474230	0.820276	-0.189245
C102	C	0.405256	0.884506	-0.253475
C103	C	0.474279	0.820273	0.000019
C104	C	0.405321	0.884502	0.000024
C105	C	0.677416	0.820284	-0.189252
C106	C	0.677401	0.884517	-0.253484
C107	C	0.942294	0.347384	-0.036981
C108	C	1.007081	0.287042	-0.037000
C109	C	1.079170	0.256861	-0.000049
C110	C	1.086470	0.287031	0.036917
C111	C	1.021684	0.347376	0.036931
C112	C	0.717209	0.347370	0.320619
C113	C	0.717220	0.287024	0.380977
C114	C	0.677542	0.256840	0.374208
C115	C	0.637845	0.287009	0.307074
C116	C	0.637830	0.347357	0.246717
C117	C	1.021726	0.347383	0.246687
C118	C	1.086541	0.287040	0.307032
C119	C	1.079290	0.256856	0.374172
C120	C	1.007218	0.287023	0.380967
C121	C	0.942405	0.347368	0.320623
C122	C	0.333192	0.914674	-0.246679
C123	C	0.268377	0.975036	-0.307023
C124	C	0.275628	1.005223	-0.374163
C125	C	0.347700	0.975053	-0.380958
C126	C	0.412513	0.914697	-0.320614
C127	C	0.412624	0.914672	0.036983
C128	C	0.347837	0.975030	0.036985
C129	C	0.275748	1.005214	0.000032
C130	C	0.268448	0.975041	-0.036931
C131	C	0.333234	0.914688	-0.036937
C132	C	0.717087	0.914683	-0.246692
C133	C	0.717088	0.975028	-0.307038
C134	C	0.677399	1.005211	-0.374177
C135	C	0.637712	0.975039	-0.380968
C136	C	0.637716	0.914691	-0.320622
H137	H	0.798040	0.015333	0.009587
Cl138	Cl	0.677399	1.081082	-0.450035
Cl139	Cl	1.030878	0.385283	0.083412
H140	H	0.605541	0.262424	0.301572
H141	H	0.605510	0.371908	0.192062
Cl142	Cl	0.324040	0.876762	-0.083399
H143	H	0.677560	0.207700	0.423360
H144	H	0.209699	0.999590	-0.301477
Cl145	Cl	0.527434	0.138741	-0.011914
H146	H	0.749549	0.262468	0.435634
Cl147	Cl	-0.148298	0.797875	-0.083419
H148	H	0.223002	1.054357	0.000043
Cl149	Cl	0.356963	0.464185	0.083427
Cl150	Cl	0.177816	1.012991	-0.083379
Cl151	Cl	0.177096	0.464196	0.083405
Cl152	Cl	0.356804	1.013009	-0.465368
Cl153	Cl	0.587812	1.013000	-0.465376
H154	H	0.749494	0.496920	-0.564350
H155	H	0.749424	-0.000373	-0.067056
Cl156	Cl	0.503106	0.876772	-0.329170
Cl157	Cl	0.767098	0.385301	0.329148
Cl158	Cl	0.766978	1.012950	-0.298485
H159	H	0.471286	0.496914	0.067060
Cl160	Cl	0.851677	0.385317	-0.083443
H161	H	1.027645	0.371950	0.192024
Cl162	Cl	1.160608	0.180996	-0.000073
Cl163	Cl	1.177136	0.249125	0.298474
Cl164	Cl	0.177821	0.797856	-0.083394
H165	H	0.605494	-0.000386	0.067068
H166	H	1.001122	0.262486	-0.067102
Cl167	Cl	0.030845	0.464199	0.083399
H168	H	0.353796	0.999587	0.067088
Cl169	Cl	1.160777	0.180990	0.450027
H170	H	0.471316	0.890102	0.067079
H171	H	0.749522	0.496920	-0.673843
Cl172	Cl	0.664679	0.503213	-0.504234
Cl173	Cl	0.998114	0.249066	0.465377
H174	H	0.001175	0.765136	-0.067056
Cl175	Cl	1.177102	0.249077	0.083370
Cl176	Cl	0.527429	0.274968	-0.011921
Cl177	Cl	0.851812	0.385272	0.329179
H178	H	0.327273	0.890099	-0.192015
Cl179	Cl	0.766992	0.249066	-0.083425
H180	H	0.222847	1.054369	-0.423294
H181	H	0.327298	0.765118	-0.067018
H182	H	0.605396	0.890137	-0.326162
Cl183	Cl	0.587787	0.797865	-0.329154
H184	H	0.749406	0.890117	-0.192029
H185	H	0.749411	0.371939	-0.067070
Cl186	Cl	0.664709	0.503169	-0.367990
H187	H	0.798035	0.124838	0.009570
H188	H	0.605496	-0.109882	0.067071
Cl189	Cl	0.587925	0.249056	0.083432
Cl190	Cl	0.587924	0.385283	0.083434
Cl191	Cl	0.587847	0.797860	-0.465375
Cl192	Cl	0.766996	-0.123234	-0.083418
H193	H	0.687742	0.733760	-0.606082
Cl194	Cl	0.587918	0.797861	-0.701448
Cl195	Cl	0.690217	0.758842	-0.495753
Cl196	Cl	0.767008	0.464190	-0.298544
Cl197	Cl	0.587950	0.797857	-0.837669
Cl198	Cl	0.766978	0.464187	-0.162317
