data_functionalizedCrystal
_audit_creation_method	'MofGen! by Chris Wilmer'
_symmetry_space_group_name_H-M	'P1'
_symmetry_Int_Tables_number	1
_symmetry_cell_setting	triclinic
loop_
_symmetry_equiv_pos_as_xyz
  x,y,z
_cell_length_a	11.792241
_cell_length_b	10.868271
_cell_length_c	11.792241
_cell_angle_alpha	89.998441
_cell_angle_beta	95.806584
_cell_angle_gamma	90.000156
loop_
_atom_site_label
_atom_site_type_symbol
_atom_site_fract_x
_atom_site_fract_y
_atom_site_fract_z
O1	O	1.506909	0.102203	-0.155562
O2	O	1.840242	0.435537	0.177771
O3	O	2.173576	0.768870	0.511104
O4	O	1.176568	0.102232	-0.171595
O5	O	1.509901	0.435565	0.161738
O6	O	1.843235	0.768899	0.495071
O7	O	1.349755	0.102208	0.001592
O8	O	1.683088	0.435542	0.334925
O9	O	2.016422	0.768875	0.668258
O10	O	1.333722	0.102227	-0.328749
O11	O	1.667055	0.435560	0.004584
O12	O	2.000389	0.768894	0.337917
O13	O	1.349739	-0.102436	0.001586
O14	O	1.683073	0.230897	0.334920
O15	O	2.016406	0.564230	0.668253
O16	O	1.176552	-0.102413	-0.171601
O17	O	1.509886	0.230921	0.161733
O18	O	1.843219	0.564254	0.495066
O19	O	1.506893	-0.102441	-0.155568
O20	O	1.840227	0.230892	0.177765
O21	O	2.173560	0.564225	0.511099
Zn22	Zn	1.341720	-0.134919	-0.163585
Zn23	Zn	1.675054	0.198415	0.169748
Zn24	Zn	2.008387	0.531748	0.503081
Zn25	Zn	1.341741	0.134709	-0.163578
Zn26	Zn	1.675074	0.468043	0.169755
Zn27	Zn	2.008408	0.801376	0.503089
O28	O	1.333706	-0.102418	-0.328755
O29	O	1.667040	0.230916	0.004578
O30	O	2.000373	0.564249	0.337912
C31	C	1.134269	-0.000087	-0.170591
C32	C	1.467603	0.333247	0.162742
C33	C	1.800936	0.666580	0.496076
C34	C	1.008255	-0.000076	-0.167576
C35	C	1.341589	0.333257	0.165757
C36	C	1.674922	0.666591	0.499090
N37	N	1.341714	-0.318933	-0.163590
N38	N	1.675048	0.014400	0.169744
N39	N	2.008381	0.347734	0.503077
C40	C	0.777543	-0.000112	-0.162034
C41	C	1.110877	0.333222	0.171300
C42	C	1.444210	0.666555	0.504633
C43	C	0.905928	-0.000092	-0.165113
C44	C	1.239262	0.333241	0.168220
C45	C	1.572595	0.666575	0.501553
C46	C	1.341723	-0.430271	-0.163590
C47	C	1.675057	-0.096937	0.169743
C48	C	2.008390	0.236396	0.503077
C49	C	1.341738	-0.569948	-0.163579
C50	C	1.675071	-0.236615	0.169754
C51	C	2.008405	0.096719	0.503087
C52	C	1.549192	-0.000120	-0.156572
C53	C	1.882525	0.333213	0.176761
C54	C	2.215859	0.666547	0.510094
C55	C	1.675206	-0.000123	-0.159587
C56	C	2.008539	0.333211	0.173747
C57	C	2.341873	0.666544	0.507080
C58	C	1.348740	-0.000114	0.043880
C59	C	1.682073	0.333220	0.377213
C60	C	2.015407	0.666553	0.710547
C61	C	1.345726	-0.000112	0.169894
C62	C	1.679059	0.333221	0.503227
C63	C	2.012392	0.666555	0.836560
N64	N	1.341756	0.318723	-0.163565
N65	N	1.675089	0.652057	0.169769
N66	N	2.008423	0.985390	0.503102
C67	C	1.334721	-0.000093	-0.371043
C68	C	1.668055	0.333240	-0.037710
C69	C	2.001388	0.666574	0.295624
C70	C	1.337736	-0.000087	-0.497057
C71	C	1.671069	0.333247	-0.163723
C72	C	2.004402	0.666580	0.169610
C73	C	1.340183	-0.000091	0.400606
C74	C	1.673516	0.333242	0.733939
C75	C	2.006849	0.666576	1.067272
C76	C	1.343262	-0.000102	0.272221
C77	C	1.676596	0.333231	0.605554
C78	C	2.009929	0.666564	0.938887
