data_functionalizedCrystal
_audit_creation_method	'MofGen! by Chris Wilmer'
_symmetry_space_group_name_H-M	'P1'
_symmetry_Int_Tables_number	1
_symmetry_cell_setting	triclinic
loop_
_symmetry_equiv_pos_as_xyz
  x,y,z
_cell_length_a	10.723024
_cell_length_b	14.519709
_cell_length_c	9.198806
_cell_angle_alpha	89.995869
_cell_angle_beta	89.996352
_cell_angle_gamma	84.074007
loop_
_atom_site_label
_atom_site_type_symbol
_atom_site_fract_x
_atom_site_fract_y
_atom_site_fract_z
O1	O	1.655978	0.129347	-0.120886
O2	O	2.155978	0.629347	0.379114
O3	O	1.292710	0.141728	-0.120892
O4	O	1.792710	0.641728	0.379108
O5	O	1.483976	0.001349	-0.120876
O6	O	1.983976	0.501349	0.379124
O7	O	1.464713	0.269727	-0.120902
O8	O	1.964713	0.769727	0.379098
O9	O	1.483960	0.001348	0.120909
O10	O	1.983960	0.501348	0.620909
O11	O	1.292695	0.141728	0.120893
O12	O	1.792695	0.641728	0.620893
O13	O	1.655963	0.129347	0.120899
O14	O	2.155963	0.629347	0.620899
Cu15	Cu	1.474328	0.135538	0.142973
Cu16	Cu	1.974328	0.635538	0.642973
Cu17	Cu	1.474345	0.135538	-0.142966
Cu18	Cu	1.974345	0.635538	0.357034
O19	O	1.464697	0.269727	0.120883
O20	O	1.964697	0.769727	0.620883
C21	C	1.246211	0.140827	0.000000
C22	C	1.746211	0.640827	0.500000
C23	C	1.107682	0.138132	-0.000001
C24	C	1.607682	0.638132	0.499999
C25	C	1.483070	-0.033016	0.000017
C26	C	1.983070	0.466984	0.500017
C27	C	1.480380	-0.135411	0.000018
C28	C	1.980380	0.364589	0.500018
C29	C	1.031965	0.216681	-0.000010
C30	C	1.531965	0.716681	0.499990
C31	C	0.888788	0.213896	-0.000012
C32	C	1.388788	0.713896	0.499988
C33	C	1.470476	-0.510357	-0.000020
C34	C	1.970476	-0.010357	0.499980
C35	C	1.473227	-0.406035	-0.000009
C36	C	1.973227	0.093965	0.499991
C37	C	1.475428	-0.322887	0.000000
C38	C	1.975428	0.177113	0.500000
C39	C	1.478179	-0.218559	0.000008
C40	C	1.978179	0.281441	0.500008
C41	C	1.702462	0.130248	0.000003
C42	C	2.202462	0.630248	0.500003
C43	C	1.840991	0.132944	-0.000005
C44	C	2.340991	0.632944	0.499995
C45	C	1.465603	0.304091	-0.000013
C46	C	1.965603	0.804091	0.499987
C47	C	1.468293	0.406486	-0.000024
C48	C	1.968293	0.906486	0.499976
N49	N	1.474324	0.135537	0.344087
N50	N	1.974324	0.635537	0.844087
N51	N	1.474359	0.135532	-0.344080
N52	N	1.974359	0.635532	0.155920
C53	C	1.554633	0.076335	0.416290
C54	C	2.054633	0.576335	0.916290
C55	C	1.554653	0.076332	0.583703
C56	C	2.054653	0.576332	1.083703
H57	H	0.823726	0.281141	-0.000025
H58	H	1.323726	0.781141	0.499975
H59	H	1.405604	0.186222	0.593837
H60	H	1.905604	0.686222	1.093837
H61	H	1.623414	0.025651	0.645795
H62	H	2.123414	0.525651	1.145795
C63	C	0.927873	0.043343	-0.000223
C64	C	1.427873	0.543343	0.499777
C65	C	1.003479	0.039975	-0.124598
C66	C	1.503479	0.539975	0.375402
C67	C	1.083551	-0.042545	-0.124839
C68	C	1.583551	0.457455	0.375161
H69	H	0.879469	-0.007882	-0.000293
H70	H	1.379469	0.492118	0.499707
H71	H	0.979326	0.040884	0.084049
H72	H	1.479326	0.540884	0.584049
H73	H	0.952032	0.042425	-0.208848
H74	H	1.452032	0.542425	0.291152
H75	H	1.051910	0.091180	-0.124554
H76	H	1.551910	0.591180	0.375446
H77	H	1.135004	-0.045004	-0.040567
H78	H	1.635004	0.454996	0.459433
H79	H	1.035137	-0.093763	-0.124905
H80	H	1.535137	0.406237	0.375095
H81	H	1.134867	-0.044837	-0.209219
H82	H	1.634867	0.455163	0.290781
H83	H	1.073139	0.285991	-0.000009
H84	H	1.573139	0.785991	0.499991
C85	C	1.382597	0.202971	0.427093
C86	C	1.882597	0.702971	0.927093
C87	C	1.306001	0.153444	0.514524
C88	C	1.806001	0.653444	1.014524
C89	C	1.221495	0.215536	0.591021
C90	C	1.721495	0.715536	1.091021
H91	H	1.332087	0.240141	0.360253
H92	H	1.832087	0.740141	0.860253
H93	H	1.427748	0.241510	0.486544
H94	H	1.927748	0.741510	0.986544
H95	H	1.260853	0.114922	0.455079
H96	H	1.760853	0.614922	0.955079
H97	H	1.356476	0.116278	0.581391
H98	H	1.856476	0.616278	1.081391
H99	H	1.266646	0.254074	0.650471
H100	H	1.766646	0.754074	1.150471
H101	H	1.170994	0.252702	0.524170
H102	H	1.670994	0.752702	1.024170
H103	H	1.169523	0.181941	0.650361
H104	H	1.669523	0.681941	1.150361
H105	H	1.066508	0.068822	-0.000032
H106	H	1.566508	0.568822	0.499968
C107	C	1.646155	0.008624	0.333510
C108	C	2.146155	0.508624	0.833510
C109	C	1.625420	-0.082108	0.370370
C110	C	2.125420	0.417892	0.870370
C111	C	1.709697	-0.144500	0.294115
C112	C	2.209697	0.355500	0.794115
H113	H	1.729594	0.018894	0.358287
H114	H	2.229594	0.518894	0.858287
H115	H	1.633931	0.017568	0.231991
H116	H	2.133931	0.517568	0.731991
H117	H	1.637654	-0.091048	0.471866
H118	H	2.137654	0.408952	0.971866
H119	H	1.541998	-0.092408	0.345590
H120	H	2.041998	0.407592	0.845590
H121	H	1.697474	-0.135557	0.192596
H122	H	2.197474	0.364443	0.692596
H123	H	1.793131	-0.134221	0.318897
H124	H	2.293131	0.365779	0.818897
H125	H	1.695633	-0.206069	0.319103
H126	H	2.195633	0.293931	0.819103
