data_functionalizedCrystal
_audit_creation_method	'MofGen! by Chris Wilmer'
_symmetry_space_group_name_H-M	'P1'
_symmetry_Int_Tables_number	1
_symmetry_cell_setting	triclinic
loop_
_symmetry_equiv_pos_as_xyz
  x,y,z
_cell_length_a	16.625548
_cell_length_b	12.594516
_cell_length_c	16.625539
_cell_angle_alpha	89.973898
_cell_angle_beta	89.982945
_cell_angle_gamma	90.014591
loop_
_atom_site_label
_atom_site_type_symbol
_atom_site_fract_x
_atom_site_fract_y
_atom_site_fract_z
Zn1	Zn	1.232703	-0.423729	-0.455911
Zn2	Zn	1.566036	-0.090396	-0.122578
Zn3	Zn	1.899369	0.242937	0.210755
Zn4	Zn	1.232635	-0.601725	-0.321079
Zn5	Zn	1.565968	-0.268392	0.012254
Zn6	Zn	1.899302	0.064942	0.345587
Zn7	Zn	1.097873	-0.423764	-0.321092
Zn8	Zn	1.431206	-0.090431	0.012242
Zn9	Zn	1.764539	0.242902	0.345575
Zn10	Zn	1.097856	-0.601670	-0.455869
Zn11	Zn	1.431189	-0.268336	-0.122536
Zn12	Zn	1.764523	0.064997	0.210798
O13	O	1.165267	-0.512722	-0.388488
O14	O	1.498600	-0.179389	-0.055155
O15	O	1.831933	0.153945	0.278179
O16	O	1.345526	-0.447350	-0.438038
O17	O	1.678859	-0.114016	-0.104705
O18	O	2.012193	0.219317	0.228629
O19	O	1.214737	-0.578156	-0.208248
O20	O	1.548071	-0.244822	0.125085
O21	O	1.881404	0.088511	0.458418
O22	O	1.115793	-0.274814	-0.338999
O23	O	1.449127	0.058520	-0.005665
O24	O	1.782460	0.391853	0.327668
O25	O	1.345476	-0.578122	-0.338977
O26	O	1.678810	-0.244789	-0.005644
O27	O	2.012143	0.088545	0.327689
O28	O	1.214852	-0.274788	-0.438050
O29	O	1.548186	0.058545	-0.104717
O30	O	1.881519	0.391878	0.228617
O31	O	1.115728	-0.447409	-0.208258
O32	O	1.449061	-0.114075	0.125076
O33	O	1.782395	0.219258	0.458409
O34	O	0.985038	-0.447355	-0.338958
O35	O	1.318371	-0.114022	-0.005625
O36	O	1.651705	0.219312	0.327709
O37	O	1.115765	-0.578028	-0.568707
O38	O	1.449098	-0.244694	-0.235374
O39	O	1.782431	0.088639	0.097959
O40	O	0.985026	-0.578062	-0.437978
O41	O	1.318359	-0.244728	-0.104645
O42	O	1.651692	0.088605	0.228688
O43	O	1.214836	-0.447296	-0.568738
O44	O	1.548169	-0.113963	-0.235405
O45	O	1.881503	0.219371	0.097929
O46	O	1.214721	-0.750663	-0.338937
O47	O	1.548054	-0.417330	-0.005603
O48	O	1.881388	-0.083997	0.327730
O49	O	1.115699	-0.750623	-0.437966
O50	O	1.449033	-0.417289	-0.104633
O51	O	1.782366	-0.083956	0.228701
C52	C	0.955776	-0.512707	-0.388465
C53	C	1.289109	-0.179374	-0.055132
C54	C	1.622442	0.153960	0.278201
C55	C	0.866155	-0.512726	-0.388475
C56	C	1.199488	-0.179393	-0.055141
C57	C	1.532821	0.153941	0.278192
C58	C	1.165223	-0.789263	-0.388463
C59	C	1.498556	-0.455930	-0.055130
C60	C	1.831890	-0.122596	0.278204
C61	C	1.165278	-0.907568	-0.388479
C62	C	1.498611	-0.574235	-0.055146
C63	C	1.831945	-0.240902	0.278187
C64	C	0.537979	-0.512733	-0.388509
C65	C	0.871312	-0.179400	-0.055176
C66	C	1.204646	0.153934	0.278157
C67	C	0.629287	-0.512728	-0.388497
C68	C	0.962621	-0.179395	-0.055164
C69	C	1.295954	0.153939	0.278170
C70	C	0.702064	-0.512730	-0.388491
C71	C	1.035397	-0.179397	-0.055158
C72	C	1.368731	0.153937	0.278175
C73	C	0.793378	-0.512724	-0.388481
C74	C	1.126712	-0.179391	-0.055147
C75	C	1.460045	0.153943	0.278186
C76	C	1.219235	-1.047569	-0.334711
C77	C	1.552568	-0.714235	-0.001377
C78	C	1.885901	-0.380902	0.331956
C79	C	1.145656	-0.976884	-0.314895
C80	C	1.478990	-0.643551	0.018438
C81	C	1.812323	-0.310217	0.351772
C82	C	1.238848	-0.976682	-0.408259
C83	C	1.572181	-0.643348	-0.074925
C84	C	1.905514	-0.310015	0.258408
C85	C	1.091744	-1.047669	-0.368695
C86	C	1.425077	-0.714336	-0.035362
C87	C	1.758410	-0.381003	0.297971
C88	C	1.184985	-1.047473	-0.462093
C89	C	1.518318	-0.714140	-0.128760
C90	C	1.851651	-0.380807	0.204574
C91	C	1.111355	-0.976821	-0.442305
C92	C	1.444689	-0.643487	-0.108972
C93	C	1.778022	-0.310154	0.224361
C94	C	1.375575	-0.512738	-0.388511
C95	C	1.708909	-0.179405	-0.055178
C96	C	2.042242	0.153929	0.278156
C97	C	1.465197	-0.512745	-0.388521
C98	C	1.798530	-0.179412	-0.055187
C99	C	2.131863	0.153922	0.278146
C100	C	1.165306	-0.512652	-0.598797
C101	C	1.498639	-0.179318	-0.265464
C102	C	1.831973	0.154015	0.067870
C103	C	1.165323	-0.512622	-0.688418
C104	C	1.498656	-0.179289	-0.355085
C105	C	1.831990	0.154045	-0.021751
C106	C	1.165332	-0.235101	-0.388530
C107	C	1.498666	0.098232	-0.055197
C108	C	1.831999	0.431565	0.278136
C109	C	1.165360	-0.116796	-0.388549
C110	C	1.498694	0.216538	-0.055215
C111	C	1.832027	0.549871	0.278118
C112	C	1.165336	-0.512598	-0.761201
C113	C	1.498669	-0.179265	-0.427867
C114	C	1.832003	0.154068	-0.094534
C115	C	1.165355	-0.512559	-0.852509
C116	C	1.498688	-0.179225	-0.519176
C117	C	1.832022	0.154108	-0.185842
C118	C	1.165374	-0.512521	-0.925286
C119	C	1.498707	-0.179188	-0.591952
C120	C	1.832041	0.154145	-0.258619
C121	C	1.165394	-0.512483	-1.016600
C122	C	1.498727	-0.179149	-0.683267
C123	C	1.832061	0.154184	-0.349933
C124	C	1.165274	-0.512715	-0.178997
C125	C	1.498607	-0.179382	0.154336
C126	C	1.831940	0.153951	0.487670
C127	C	1.165413	-0.512445	-0.089376
C128	C	1.498746	-0.179112	0.243957
C129	C	1.832080	0.154221	0.577290
H130	H	1.264773	-1.078632	-0.289177
H131	H	1.598106	-0.745299	0.044157
H132	H	1.931440	-0.411966	0.377490
C133	C	1.343942	-0.971743	-0.507291
C134	C	1.677275	-0.638410	-0.173958
C135	C	2.010609	-0.305077	0.159375
C136	C	1.322794	-0.934590	-0.430789
C137	C	1.656127	-0.601257	-0.097455
C138	C	1.989460	-0.267923	0.235878
H139	H	1.395767	-0.945753	-0.521189
H140	H	1.729100	-0.612420	-0.187856
H141	H	2.062434	-0.279087	0.145478
H142	H	1.344694	-1.047151	-0.506997
H143	H	1.678027	-0.713818	-0.173664
H144	H	2.011360	-0.380484	0.159670
H145	H	1.305713	-0.947505	-0.545573
H146	H	1.639046	-0.614172	-0.212240
H147	H	1.972379	-0.280839	0.121094
H148	H	1.361020	-0.958835	-0.392505
H149	H	1.694353	-0.625501	-0.059172
H150	H	2.027687	-0.292168	0.274161
H151	H	1.322048	-0.859166	-0.431077
H152	H	1.655381	-0.525833	-0.097744
H153	H	1.988715	-0.192500	0.235590
C154	C	1.179730	-0.970711	-0.174647
C155	C	1.513063	-0.637378	0.158687
C156	C	1.846397	-0.304045	0.492020
C157	C	1.123194	-0.935008	-0.230898
C158	C	1.456527	-0.601675	0.102435
C159	C	1.789861	-0.268341	0.435768
H160	H	1.165868	-0.944855	-0.122791
H161	H	1.499201	-0.611521	0.210542
H162	H	1.832534	-0.278188	0.543875
H163	H	1.180073	-1.046120	-0.173942
H164	H	1.513406	-0.712787	0.159391
H165	H	1.846740	-0.379453	0.492725
H166	H	1.231590	-0.945356	-0.189052
H167	H	1.564923	-0.612023	0.144281
H168	H	1.898257	-0.278689	0.477615
H169	H	1.071335	-0.960370	-0.216496
H170	H	1.404668	-0.627037	0.116837
H171	H	1.738001	-0.293703	0.450171
H172	H	1.122843	-0.859584	-0.231600
H173	H	1.456176	-0.526250	0.101733
H174	H	1.789509	-0.192917	0.435066
H175	H	1.029544	-1.078718	-0.351925
H176	H	1.362877	-0.745384	-0.018592
H177	H	1.696210	-0.412051	0.314741
H178	H	1.065708	-0.945953	-0.487805
H179	H	1.399041	-0.612620	-0.154471
H180	H	1.732375	-0.279286	0.178862
H181	H	1.201645	-1.078506	-0.524300
H182	H	1.534979	-0.745173	-0.190967
H183	H	1.868312	-0.411839	0.142367
