data_functionalizedCrystal
_audit_creation_method	'MofGen! by Chris Wilmer'
_symmetry_space_group_name_H-M	'P1'
_symmetry_Int_Tables_number	1
_symmetry_cell_setting	triclinic
loop_
_symmetry_equiv_pos_as_xyz
  x,y,z
_cell_length_a	6.394984
_cell_length_b	16.992694
_cell_length_c	16.053802
_cell_angle_alpha	92.750953
_cell_angle_beta	92.641943
_cell_angle_gamma	91.418212
loop_
_atom_site_label
_atom_site_type_symbol
_atom_site_fract_x
_atom_site_fract_y
_atom_site_fract_z
O1	O	0.435392	-1.047993	-0.069320
O2	O	0.935392	-0.547993	0.430680
O3	O	0.430522	-0.819661	-0.069344
O4	O	0.930522	-0.319661	0.430656
O5	O	0.129434	-0.937070	-0.069329
O6	O	0.629434	-0.437070	0.430671
O7	O	0.736481	-0.930584	-0.069335
O8	O	1.236481	-0.430584	0.430665
O9	O	0.145934	-0.930607	0.069529
O10	O	0.645934	-0.430607	0.569529
O11	O	0.447022	-0.813198	0.069514
O12	O	0.947022	-0.313198	0.569514
O13	O	0.451892	-1.041530	0.069538
O14	O	0.951892	-0.541530	0.569538
Zn15	Zn	0.452077	-0.926338	0.091573
Zn16	Zn	0.952077	-0.426338	0.591573
Zn17	Zn	0.430338	-0.934853	-0.091379
Zn18	Zn	0.930338	-0.434853	0.408621
O19	O	0.752980	-0.924120	0.069523
O20	O	1.252980	-0.424120	0.569523
C21	C	0.432511	-0.787155	0.000082
C22	C	0.932511	-0.287155	0.500082
C23	C	0.413828	-0.699927	0.000072
C24	C	0.913828	-0.199927	0.500072
C25	C	1.059650	-0.932548	0.000102
C26	C	1.559650	-0.432548	0.500102
C27	C	0.822760	-0.928640	0.000100
C28	C	1.322760	-0.428640	0.500100
C29	C	0.449903	-1.074036	0.000111
C30	C	0.949903	-0.574036	0.500111
C31	C	0.468585	-1.161264	0.000115
C32	C	0.968585	-0.661264	0.500115
N33	N	0.466913	-0.920532	0.216432
N34	N	0.966913	-0.420532	0.716432
N35	N	0.415486	-0.940665	-0.216238
N36	N	0.915486	-0.440665	0.283762
C37	C	0.594077	-0.651466	0.000071
C38	C	1.094077	-0.151466	0.500071
C39	C	0.576512	-0.569506	0.000083
C40	C	1.076512	-0.069506	0.500083
C41	C	0.378698	-0.536007	0.000089
C42	C	0.878698	-0.036007	0.500089
C43	C	0.198436	-0.584474	0.000093
C44	C	0.698436	-0.084474	0.500093
C45	C	0.216003	-0.666433	0.000087
C46	C	0.716003	-0.166433	0.500087
C47	C	0.305891	-0.291690	0.000112
C48	C	0.805891	0.208310	0.500112
C49	C	0.288337	-0.209725	0.000116
C50	C	0.788337	0.290275	0.500116
C51	C	0.666415	-0.194762	0.000107
C52	C	1.166415	0.305238	0.500107
C53	C	0.683964	-0.276723	0.000096
C54	C	1.183964	0.223277	0.500096
C55	C	0.503703	-0.325182	0.000104
C56	C	1.003703	0.174818	0.500104
N57	N	0.360739	-0.452231	0.000099
N58	N	0.860739	0.047769	0.500099
N59	N	0.521664	-0.408957	0.000101
N60	N	1.021664	0.091043	0.500101
C61	C	0.338851	-0.970509	0.260133
C62	C	0.838851	-0.470509	0.760133
C63	C	0.349250	-0.966455	0.347539
C64	C	0.849250	-0.466455	0.847539
C65	C	0.487723	-0.912427	0.391243
C66	C	0.987723	-0.412427	0.891243
C67	C	0.615790	-0.862445	0.347537
C68	C	1.115790	-0.362445	0.847537
C69	C	0.605379	-0.866495	0.260132
C70	C	1.105379	-0.366495	0.760132
C71	C	0.533142	-0.894733	0.652651
C72	C	1.033142	-0.394733	1.152651
C73	C	0.543548	-0.890688	0.740061
C74	C	1.043548	-0.390688	1.240061
C75	C	0.277004	-0.994698	0.740058
C76	C	0.777004	-0.494698	1.240058
C77	C	0.266614	-0.998747	0.652651
C78	C	0.766614	-0.498747	1.152651
C79	C	0.394673	-0.948761	0.608952
C80	C	0.894673	-0.448761	1.108952
N81	N	0.498361	-0.908284	0.480586
N82	N	0.998361	-0.408284	0.980586
N83	N	0.384023	-0.952901	0.519611
N84	N	0.884023	-0.452901	1.019611
H85	H	0.755158	-0.678734	0.000065
H86	H	1.255158	-0.178734	0.500065
Br87	Br	0.952436	-0.322179	0.000078
Br88	Br	1.452436	0.177821	0.500078
Br89	Br	0.779171	-0.798661	0.200824
Br90	Br	1.279171	-0.298661	0.700824
H91	H	0.159108	-0.331136	0.000120
H92	H	0.659108	0.168864	0.500120
Br93	Br	-0.070030	-0.539013	0.000110
Br94	Br	0.429970	-0.039013	0.500110
Br95	Br	-0.028628	-0.732202	0.000096
Br96	Br	0.471372	-0.232202	0.500096
H97	H	0.728531	-0.818450	0.383126
H98	H	1.228531	-0.318450	0.883126
Br99	Br	0.911041	-0.128992	0.000097
Br100	Br	1.411041	0.371008	0.500097
H101	H	0.723290	-0.530052	0.000081
H102	H	1.223290	-0.030052	0.500081
H103	H	0.153858	-1.042740	0.617069
H104	H	0.653858	-0.542740	1.117069
Br105	Br	0.150930	-1.043842	0.200829
Br106	Br	0.650930	-0.543842	0.700829
Br107	Br	0.103214	-1.062530	0.799366
Br108	Br	0.603214	-0.562530	1.299366
H109	H	0.244971	-1.007149	0.383119
H110	H	0.744971	-0.507149	0.883119
H111	H	0.656317	-0.846690	0.775641
H112	H	1.156317	-0.346690	1.275641
H113	H	0.127245	-0.182454	0.000120
H114	H	0.627245	0.317546	0.500120
Br115	Br	0.706935	-0.826900	0.593350
Br116	Br	1.206935	-0.326900	1.093350
