data_functionalizedCrystal
_audit_creation_method	'MofGen! by Chris Wilmer'
_symmetry_space_group_name_H-M	'P1'
_symmetry_Int_Tables_number	1
_symmetry_cell_setting	triclinic
loop_
_symmetry_equiv_pos_as_xyz
  x,y,z
_cell_length_a	13.897449
_cell_length_b	13.897447
_cell_length_c	13.897441
_cell_angle_alpha	89.970673
_cell_angle_beta	89.979267
_cell_angle_gamma	90.020810
loop_
_atom_site_label
_atom_site_type_symbol
_atom_site_fract_x
_atom_site_fract_y
_atom_site_fract_z
Zn1	Zn	1.474690	-0.383951	-0.545390
Zn2	Zn	1.474579	-0.545273	-0.384095
Zn3	Zn	1.313379	-0.383997	-0.384108
Zn4	Zn	1.313356	-0.545210	-0.545347
O5	O	1.394001	-0.464608	-0.464735
O6	O	1.609657	-0.405358	-0.524006
O7	O	1.453159	-0.523925	-0.249115
O8	O	1.334834	-0.249009	-0.405526
O9	O	1.609575	-0.523881	-0.405503
O10	O	1.453348	-0.248976	-0.524019
O11	O	1.334726	-0.405436	-0.249125
O12	O	1.178395	-0.405375	-0.405485
O13	O	1.334794	-0.523773	-0.680335
O14	O	1.178377	-0.523817	-0.523946
O15	O	1.453326	-0.405297	-0.680366
O16	O	1.453136	-0.680246	-0.405462
O17	O	1.334686	-0.680200	-0.523933
C18	C	1.143387	-0.464595	-0.464713
C19	C	1.036173	-0.464613	-0.464726
C20	C	1.393923	-0.715222	-0.464713
C21	C	1.393977	-0.822436	-0.464735
C22	C	0.839878	-0.464616	-0.464752
C23	C	0.949110	-0.464611	-0.464735
C24	C	1.394024	-0.909506	-0.464757
C25	C	1.394092	-1.018738	-0.464782
C26	C	1.645594	-0.464621	-0.464758
C27	C	1.752808	-0.464627	-0.464767
C28	C	1.394070	-0.464522	-0.716328
C29	C	1.394099	-0.464486	-0.823542
C30	C	1.394106	-0.213015	-0.464778
C31	C	1.394151	-0.105801	-0.464797
C32	C	1.394125	-0.464421	-1.019837
C33	C	1.394107	-0.464460	-0.910605
C34	C	1.393989	-0.464623	-0.214121
C35	C	1.394146	-0.464388	-0.106907
