data_functionalizedCrystal
_audit_creation_method	'MofGen! by Chris Wilmer'
_symmetry_space_group_name_H-M	'P1'
_symmetry_Int_Tables_number	1
_symmetry_cell_setting	triclinic
loop_
_symmetry_equiv_pos_as_xyz
  x,y,z
_cell_length_a	10.723024
_cell_length_b	14.519709
_cell_length_c	9.198806
_cell_angle_alpha	89.995869
_cell_angle_beta	89.996352
_cell_angle_gamma	84.074007
loop_
_atom_site_label
_atom_site_type_symbol
_atom_site_fract_x
_atom_site_fract_y
_atom_site_fract_z
O1	O	1.655978	0.129347	-0.120886
O2	O	1.292710	0.141728	-0.120892
O3	O	1.483976	0.001349	-0.120876
O4	O	1.464713	0.269727	-0.120902
O5	O	1.483960	0.001348	0.120909
O6	O	1.292695	0.141728	0.120893
O7	O	1.655963	0.129347	0.120899
Cu8	Cu	1.474328	0.135538	0.142973
Cu9	Cu	1.474345	0.135538	-0.142966
O10	O	1.464697	0.269727	0.120883
C11	C	1.246211	0.140827	0.000000
C12	C	1.107682	0.138132	-0.000001
C13	C	1.483070	-0.033016	0.000017
C14	C	1.480380	-0.135411	0.000018
C15	C	1.031965	0.216681	-0.000010
C16	C	0.888788	0.213896	-0.000012
C17	C	1.470476	-0.510357	-0.000020
C18	C	1.473227	-0.406035	-0.000009
C19	C	1.475428	-0.322887	0.000000
C20	C	1.478179	-0.218559	0.000008
C21	C	1.702462	0.130248	0.000003
C22	C	1.840991	0.132944	-0.000005
C23	C	1.465603	0.304091	-0.000013
C24	C	1.468293	0.406486	-0.000024
N25	N	1.474324	0.135537	0.344087
N26	N	1.474359	0.135532	-0.344080
C27	C	1.554633	0.076335	0.416290
C28	C	1.554653	0.076332	0.583703
H29	H	0.823726	0.281141	-0.000025
O30	O	1.081279	0.299293	-0.000075
C31	C	1.268944	0.377391	0.000025
C32	C	1.213268	0.283767	0.000061
H33	H	1.375663	0.364871	0.000166
H34	H	1.236279	0.418321	-0.101188
H35	H	1.236092	0.418298	0.101185
H36	H	1.246094	0.242784	-0.101030
H37	H	1.245926	0.242907	0.101341
H38	H	1.066508	0.068822	-0.000032
H39	H	1.623371	0.025649	0.354170
O40	O	1.636627	0.015734	0.657609
C41	C	1.708715	-0.144213	0.704535
C42	C	1.615828	-0.075685	0.620716
H43	H	1.691914	-0.218140	0.674761
H44	H	1.808807	-0.131829	0.674645
H45	H	1.694131	-0.133393	0.826347
H46	H	1.630298	-0.086464	0.498884
H47	H	1.515769	-0.088085	0.650727
H48	H	0.906045	0.065696	-0.000006
O49	O	1.392498	0.196044	0.581706
C50	C	1.366804	0.321777	0.409750
C51	C	1.459646	0.253284	0.493693
H52	H	1.421057	0.368085	0.338595
H53	H	1.304280	0.281689	0.338405
H54	H	1.306328	0.366306	0.490200
H55	H	1.520204	0.208738	0.413348
H56	H	1.522083	0.293428	0.565060
O57	O	1.392258	0.195876	0.418347
C58	C	1.222022	0.214592	0.590341
C59	C	1.314912	0.146155	0.506363
H60	H	1.159446	0.174419	0.661498
H61	H	1.276184	0.260845	0.661687
H62	H	1.161608	0.259186	0.509914
H63	H	1.375349	0.101500	0.586685
H64	H	1.260674	0.099966	0.434995
