data_functionalizedCrystal
_audit_creation_method	'MofGen! by Chris Wilmer'
_symmetry_space_group_name_H-M	'P1'
_symmetry_Int_Tables_number	1
_symmetry_cell_setting	triclinic
loop_
_symmetry_equiv_pos_as_xyz
  x,y,z
_cell_length_a	12.811457
_cell_length_b	12.811415
_cell_length_c	14.048226
_cell_angle_alpha	84.562719
_cell_angle_beta	95.425498
_cell_angle_gamma	84.559489
loop_
_atom_site_label
_atom_site_type_symbol
_atom_site_fract_x
_atom_site_fract_y
_atom_site_fract_z
O1	O	1.393275	0.141364	0.028919
O2	O	1.087763	0.156740	0.001215
O3	O	1.248204	-0.003708	0.028921
O4	O	1.232834	0.301811	0.001212
O5	O	1.248185	-0.003717	0.187242
O6	O	1.087743	0.156730	0.159535
O7	O	1.393256	0.141354	0.187239
Zn8	Zn	1.240496	0.149041	0.198524
Zn9	Zn	1.240522	0.149053	-0.010070
O10	O	1.232814	0.301802	0.159532
C11	C	1.048646	0.155874	0.077073
C12	C	0.932118	0.153296	0.067235
C13	C	0.713130	0.148420	0.221371
C14	C	0.603643	0.145997	0.212132
C15	C	0.603654	0.146019	0.039521
C16	C	0.713141	0.148442	0.048760
C17	C	0.767876	0.149644	0.139687
C18	C	0.877365	0.152075	0.148925
C19	C	0.877375	0.152089	-0.023685
C20	C	0.767887	0.149666	-0.032924
C21	C	1.247333	-0.042821	0.111382
C22	C	1.244752	-0.159351	0.121216
C23	C	1.239906	-0.378301	-0.032927
C24	C	1.237482	-0.487791	-0.023692
C25	C	1.237472	-0.487822	0.148921
C26	C	1.239896	-0.378332	0.139685
C27	C	1.241115	-0.323575	0.048759
C28	C	1.243547	-0.214084	0.039525
C29	C	1.243529	-0.214116	0.212136
C30	C	1.241105	-0.323607	0.221371
C31	C	1.432373	0.142220	0.111379
C32	C	1.548900	0.144798	0.121210
C33	C	1.233686	0.340915	0.077069
C34	C	1.236266	0.457444	0.067229
N35	N	1.240487	0.149031	0.340885
N36	N	1.240540	0.149054	-0.152429
C37	C	1.311553	0.078015	0.402971
C38	C	1.311560	0.078014	0.502629
C39	C	1.240505	0.149036	0.540199
C40	C	1.169431	0.220056	0.478105
C41	C	1.169420	0.220051	0.378449
C42	C	1.169462	0.220064	0.685822
C43	C	1.169474	0.220071	0.785485
C44	C	1.311601	0.078027	0.810001
C45	C	1.311590	0.078022	0.710345
C46	C	1.240517	0.149044	0.648258
H47	H	0.559072	0.145006	0.278647
F48	F	1.387219	0.002440	0.670360
F49	F	1.093803	0.295639	0.518091
F50	F	0.709627	0.148358	-0.129688
H51	H	1.236493	-0.532344	-0.090209
F52	F	0.545394	0.144659	-0.057235
F53	F	1.236149	-0.546112	0.245681
H54	H	0.921959	0.153092	-0.090199
F55	F	1.244848	-0.155810	-0.057246
H56	H	1.240908	-0.333718	-0.106962
F57	F	1.093779	0.295634	0.312373
F58	F	1.387185	0.002427	0.362996
H59	H	0.921927	0.153060	0.222962
H60	H	1.240108	-0.368204	0.295401
F61	F	0.771384	0.149712	0.318140
H62	H	1.244517	-0.169548	0.278651
F63	F	1.387195	0.002429	0.568706
F64	F	1.387242	0.002443	0.876083
F65	F	1.093846	0.295661	0.825462
H66	H	1.111583	0.277894	0.635272
