data_functionalizedCrystal
_audit_creation_method	'MofGen! by Chris Wilmer'
_symmetry_space_group_name_H-M	'P1'
_symmetry_Int_Tables_number	1
_symmetry_cell_setting	triclinic
loop_
_symmetry_equiv_pos_as_xyz
  x,y,z
_cell_length_a	10.686220
_cell_length_b	18.101395
_cell_length_c	18.101390
_cell_angle_alpha	90.031336
_cell_angle_beta	85.648180
_cell_angle_gamma	94.412841
loop_
_atom_site_label
_atom_site_type_symbol
_atom_site_fract_x
_atom_site_fract_y
_atom_site_fract_z
Zn1	Zn	1.928995	-0.207842	0.331995
Zn2	Zn	1.928816	-0.331707	0.208165
Zn3	Zn	1.717984	-0.217388	0.217657
Zn4	Zn	1.717902	-0.341162	0.341450
O5	O	1.823424	-0.274525	0.274816
O6	O	2.105549	-0.216321	0.307639
O7	O	1.900809	-0.316581	0.105793
O8	O	1.746085	-0.112484	0.232839
O9	O	2.105417	-0.307324	0.216662
O10	O	1.901113	-0.105471	0.316843
O11	O	1.745911	-0.232591	0.112766
O12	O	1.541396	-0.241759	0.242007
O13	O	1.745944	-0.323439	0.443827
O14	O	1.541335	-0.332696	0.332957
O15	O	1.901033	-0.225489	0.436880
O16	O	1.900729	-0.436599	0.225830
O17	O	1.745771	-0.443546	0.323754
C18	C	1.495581	-0.289290	0.289539
C19	C	1.355328	-0.295624	0.295855
C20	C	1.823256	-0.466943	0.274802
C21	C	1.823299	-0.549255	0.274816
C22	C	1.823576	-0.848334	0.274843
C23	C	1.726306	-0.821400	0.336586
C24	C	1.725844	-0.735803	0.336427
C25	C	1.823438	-0.699957	0.274830
C26	C	1.787436	-0.732737	0.198400
C27	C	1.786809	-0.818411	0.198771
C28	C	1.957060	-0.810659	0.288834
C29	C	1.956275	-0.725043	0.290581
C30	C	1.823363	-0.616101	0.274818
C31	C	1.823648	-0.932190	0.274850
C32	C	2.152548	-0.259703	0.260037
C33	C	2.292801	-0.253387	0.253739
C34	C	1.823499	-0.274454	0.467975
C35	C	1.823531	-0.274424	0.550288
C36	C	1.823628	-0.081354	0.274845
C37	C	1.823715	0.000964	0.274858
C38	C	1.823422	-0.274539	0.082406
C39	C	1.823635	-0.274350	0.000083
C40	C	1.823600	-0.274375	0.849376
C41	C	1.921499	-0.212934	0.813666
C42	C	1.921194	-0.212736	0.728061
C43	C	1.823567	-0.274399	0.700995
C44	C	1.690636	-0.259188	0.738046
C45	C	1.691222	-0.258734	0.823665
C46	C	1.857460	-0.351225	0.816267
C47	C	1.860377	-0.350694	0.730486
C48	C	1.823540	-0.274414	0.617136
C49	C	1.823617	-0.274358	0.933235
H50	H	1.301557	-0.336639	0.336742
N51	N	1.893091	-0.141154	0.703658
N52	N	1.791152	-0.115846	0.725355
H53	H	1.771312	-0.065285	0.708126
N54	N	1.360219	-0.201927	0.202448
N55	N	1.301499	-0.162212	0.162855
H56	H	1.349118	-0.125866	0.126631
N57	N	1.655202	-0.188484	0.850355
N58	N	1.629809	-0.140132	0.805741
H59	H	1.604370	-0.090515	0.824587
N60	N	1.754104	-0.708105	0.407760
N61	N	1.774304	-0.752006	0.458009
H62	H	1.794258	-0.732449	0.508392
N63	N	1.754356	-0.845859	0.408169
N64	N	1.846355	-0.883432	0.414519
H65	H	1.866192	-0.900691	0.465078
H66	H	1.626902	-0.719841	0.327633
H67	H	1.856054	-0.709277	0.151404
N68	N	1.602945	-0.854049	0.325727
N69	N	1.586354	-0.897067	0.272713
H70	H	1.499231	-0.920128	0.265042
N71	N	1.596655	-0.313931	0.716709
N72	N	1.626672	-0.364888	0.673853
H73	H	1.560300	-0.403552	0.658782
N74	N	1.664411	-0.849081	0.183018
N75	N	1.620623	-0.833981	0.123213
H76	H	1.534176	-0.855640	0.112087
N77	N	1.871802	-0.840567	0.139483
N78	N	1.931387	-0.792763	0.097960
H79	H	1.991398	-0.808407	0.056080
N80	N	1.666325	-0.711367	0.182223
N81	N	1.606318	-0.672015	0.226858
H82	H	1.520781	-0.656921	0.215437
H83	H	1.989884	-0.830723	0.343302
H84	H	2.029529	-0.827644	0.243791
N85	N	1.990324	-0.697955	0.361109
N86	N	1.917100	-0.660309	0.399667
H87	H	1.941142	-0.641175	0.449478
H88	H	2.032580	-0.700193	0.248411
N89	N	2.044855	-0.223816	0.696152
N90	N	2.131990	-0.231748	0.737099
H91	H	2.219332	-0.239572	0.714567
N92	N	2.045557	-0.223798	0.833935
N93	N	2.063272	-0.276946	0.874939
H94	H	2.150892	-0.284621	0.889259
N95	N	1.893727	-0.141754	0.841932
N96	N	1.802146	-0.136079	0.888262
H97	H	1.782525	-0.085809	0.908225
N98	N	1.596579	-0.312825	0.853894
N99	N	1.530300	-0.350787	0.811746
H100	H	1.463444	-0.388980	0.833092
H101	H	1.661409	-0.203849	0.717920
H102	H	1.794257	-0.398447	0.712044
N103	N	1.976986	-0.370019	0.837991
N104	N	2.073697	-0.328570	0.820510
H105	H	2.158119	-0.341834	0.835851
N106	N	1.983087	-0.365243	0.699490
N107	N	2.030125	-0.423577	0.716051
H108	H	2.116788	-0.433853	0.694156
N109	N	1.767996	-0.408555	0.845687
N110	N	1.679648	-0.392984	0.890841
H111	H	1.616458	-0.433467	0.911622
