data_functionalizedCrystal
_audit_creation_method	'MofGen! by Chris Wilmer'
_symmetry_space_group_name_H-M	'P1'
_symmetry_Int_Tables_number	1
_symmetry_cell_setting	triclinic
loop_
_symmetry_equiv_pos_as_xyz
  x,y,z
_cell_length_a	18.215407
_cell_length_b	18.215405
_cell_length_c	18.215399
_cell_angle_alpha	89.969449
_cell_angle_beta	89.982223
_cell_angle_gamma	90.020505
loop_
_atom_site_label
_atom_site_type_symbol
_atom_site_fract_x
_atom_site_fract_y
_atom_site_fract_z
Zn1	Zn	-1.125072	0.293078	0.416062
Zn2	Zn	-0.875072	0.543078	0.666062
Zn3	Zn	-0.625072	0.793078	0.916062
Zn4	Zn	-0.375072	1.043078	1.166062
Zn5	Zn	-1.124980	0.416149	0.292990
Zn6	Zn	-0.874980	0.666149	0.542990
Zn7	Zn	-0.624980	0.916149	0.792990
Zn8	Zn	-0.374980	1.166149	1.042990
Zn9	Zn	-1.002004	0.293092	0.293014
Zn10	Zn	-0.752004	0.543092	0.543014
Zn11	Zn	-0.502004	0.793092	0.793014
Zn12	Zn	-0.252004	1.043092	1.043014
Zn13	Zn	-1.001970	0.416098	0.416020
Zn14	Zn	-0.751970	0.666098	0.666020
Zn15	Zn	-0.501970	0.916098	0.916020
Zn16	Zn	-0.251970	1.166098	1.166020
O17	O	-1.063507	0.354604	0.354521
O18	O	-0.813507	0.604604	0.604521
O19	O	-0.563507	0.854604	0.854521
O20	O	-0.313507	1.104604	1.104521
O21	O	-1.228044	0.309419	0.399744
O22	O	-0.978044	0.559419	0.649744
O23	O	-0.728044	0.809419	0.899744
O24	O	-0.478044	1.059419	1.149744
O25	O	-1.108643	0.399852	0.190009
O26	O	-0.858643	0.649852	0.440009
O27	O	-0.608643	0.899852	0.690009
O28	O	-0.358643	1.149852	0.940009
O29	O	-1.018382	0.190105	0.309364
O30	O	-0.768382	0.440105	0.559364
O31	O	-0.518382	0.690105	0.809364
O32	O	-0.268382	0.940105	1.059364
O33	O	-1.227977	0.399839	0.309324
O34	O	-0.977977	0.649839	0.559324
O35	O	-0.727977	0.899839	0.809324
O36	O	-0.477977	1.149839	1.059324
O37	O	-1.108799	0.190095	0.399767
O38	O	-0.858799	0.440095	0.649767
O39	O	-0.608799	0.690095	0.899767
O40	O	-0.358799	0.940095	1.149767
O41	O	-1.018293	0.309443	0.190026
O42	O	-0.768293	0.559443	0.440026
O43	O	-0.518293	0.809443	0.690026
O44	O	-0.268293	1.059443	0.940026
O45	O	-0.899016	0.309393	0.309323
O46	O	-0.649016	0.559393	0.559323
O47	O	-0.399016	0.809393	0.809323
O48	O	-0.149016	1.059393	1.059323
O49	O	-1.018324	0.399752	0.519010
O50	O	-0.768324	0.649752	0.769010
O51	O	-0.518324	0.899752	1.019010
O52	O	-0.268324	1.149752	1.269010
O53	O	-0.898991	0.399765	0.399695
O54	O	-0.648991	0.649765	0.649695
O55	O	-0.398991	0.899765	0.899695
O56	O	-0.148991	1.149765	1.149695
O57	O	-1.108766	0.309369	0.519041
O58	O	-0.858766	0.559369	0.769041
O59	O	-0.608766	0.809369	1.019041
O60	O	-0.358766	1.059369	1.269041
O61	O	-1.108610	0.519127	0.309283
O62	O	-0.858610	0.769127	0.559283
O63	O	-0.608610	1.019127	0.809283
O64	O	-0.358610	1.269127	1.059283
O65	O	-1.018235	0.519089	0.399672
O66	O	-0.768235	0.769089	0.649672
O67	O	-0.518235	1.019089	0.899672
O68	O	-0.268235	1.269089	1.149672
C69	C	-0.872300	0.354575	0.354507
C70	C	-0.622300	0.604575	0.604507
C71	C	-0.372300	0.854575	0.854507
C72	C	-0.122300	1.104575	1.104507
C73	C	-0.790502	0.354581	0.354519
C74	C	-0.540502	0.604581	0.604519
C75	C	-0.290502	0.854581	0.854519
C76	C	-0.040502	1.104581	1.104519
C77	C	-0.602342	0.307590	0.401673
C78	C	-0.352342	0.557590	0.651673
C79	C	-0.102342	0.807590	0.901673
C80	C	0.147658	1.057590	1.151673
C81	C	-0.525483	0.307594	0.401675
C82	C	-0.275483	0.557594	0.651675
C83	C	-0.025483	0.807594	0.901675
C84	C	0.224517	1.057594	1.151675
C85	C	-0.525424	0.401607	0.307375
C86	C	-0.275424	0.651607	0.557375
C87	C	-0.025424	0.901607	0.807375
C88	C	0.224576	1.151607	1.057375
C89	C	-0.602281	0.401599	0.307370
C90	C	-0.352281	0.651599	0.557370
C91	C	-0.102281	0.901599	0.807370
C92	C	0.147719	1.151599	1.057370
C93	C	-0.640738	0.354591	0.354523
C94	C	-0.390738	0.604591	0.604523
C95	C	-0.140738	0.854591	0.854523
C96	C	0.109262	1.104591	1.104523
C97	C	-0.487022	0.354603	0.354530
C98	C	-0.237022	0.604603	0.604530
C99	C	0.012978	0.854603	0.854530
C100	C	0.262978	1.104603	1.104530
C101	C	-0.403688	0.354608	0.354532
C102	C	-0.153688	0.604608	0.604532
C103	C	0.096312	0.854608	0.854532
C104	C	0.346312	1.104608	1.104532
C105	C	-0.724077	0.354586	0.354521
C106	C	-0.474077	0.604586	0.604521
C107	C	-0.224077	0.854586	0.854521
C108	C	0.025923	1.104586	1.104521
C109	C	-1.063429	0.545810	0.354486
C110	C	-0.813429	0.795810	0.604486
C111	C	-0.563429	1.045810	0.854486
C112	C	-0.313429	1.295810	1.104486
C113	C	-1.063463	0.627609	0.354496
C114	C	-0.813463	0.877609	0.604496
C115	C	-0.563463	1.127609	0.854496
C116	C	-0.313463	1.377609	1.104496
C117	C	-1.063552	0.354553	0.546474
C118	C	-0.813552	0.604553	0.796474
C119	C	-0.563552	0.854553	1.046474
C120	C	-0.313552	1.104553	1.296474
C121	C	-1.063571	0.354532	0.628273
C122	C	-0.813571	0.604532	0.878273
C123	C	-0.563571	0.854532	1.128273
C124	C	-0.313571	1.104532	1.378273
C125	C	-0.255460	0.354625	0.354534
C126	C	-0.005460	0.604625	0.604534
C127	C	0.244540	0.854625	0.854534
C128	C	0.494540	1.104625	1.104534
C129	C	-0.337259	0.354614	0.354535
C130	C	-0.087259	0.604614	0.604535
C131	C	0.162741	0.854614	0.854535
C132	C	0.412741	1.104614	1.104535
C133	C	-1.063605	0.162651	0.354573
C134	C	-0.813605	0.412651	0.604573
C135	C	-0.563605	0.662651	0.854573
C136	C	-0.313605	0.912651	1.104573
C137	C	-1.063647	0.080852	0.354595
C138	C	-0.813647	0.330852	0.604595
C139	C	-0.563647	0.580852	0.854595
C140	C	-0.313647	0.830852	1.104595
C141	C	-1.110632	0.815798	0.307517
C142	C	-0.860632	1.065798	0.557517
C143	C	-0.610632	1.315798	0.807517
C144	C	-0.360632	1.565798	1.057517
C145	C	-1.110665	0.892657	0.307534
C146	C	-0.860665	1.142657	0.557534
C147	C	-0.610665	1.392657	0.807534
C148	C	-0.360665	1.642657	1.057534
C149	C	-1.016476	0.892658	0.401579
C150	C	-0.766476	1.142658	0.651579
C151	C	-0.516476	1.392658	0.901579
C152	C	-0.266476	1.642658	1.151579
C153	C	-1.016447	0.815800	0.401565
C154	C	-0.766447	1.065800	0.651565
C155	C	-0.516447	1.315800	0.901565
C156	C	-0.266447	1.565800	1.151565
C157	C	-1.063524	0.777373	0.354529
C158	C	-0.813524	1.027373	0.604529
C159	C	-0.563524	1.277373	0.854529
C160	C	-0.313524	1.527373	1.104529
C161	C	-1.063586	0.931089	0.354562
C162	C	-0.813586	1.181089	0.604562
C163	C	-0.563586	1.431089	0.854562
C164	C	-0.313586	1.681089	1.104562
C165	C	-1.063621	1.014422	0.354581
C166	C	-0.813621	1.264422	0.604581
C167	C	-0.563621	1.514422	0.854581
C168	C	-0.313621	1.764422	1.104581
C169	C	-1.063490	0.694034	0.354510
C170	C	-0.813490	0.944034	0.604510
C171	C	-0.563490	1.194034	0.854510
C172	C	-0.313490	1.444034	1.104510
C173	C	-1.063504	0.354602	0.163315
C174	C	-0.813504	0.604602	0.413315
C175	C	-0.563504	0.854602	0.663315
C176	C	-0.313504	1.104602	0.913315
C177	C	-1.063628	0.354416	0.081517
C178	C	-0.813628	0.604416	0.331517
C179	C	-0.563628	0.854416	0.581517
C180	C	-0.313628	1.104416	0.831517
C181	C	-1.110681	0.307426	0.816485
C182	C	-0.860681	0.557426	1.066485
C183	C	-0.610681	0.807426	1.316485
C184	C	-0.360681	1.057426	1.566485
C185	C	-1.110690	0.307404	0.893344
C186	C	-0.860690	0.557404	1.143344
C187	C	-0.610690	0.807404	1.393344
C188	C	-0.360690	1.057404	1.643344
C189	C	-1.016513	0.401524	0.893300
C190	C	-0.766513	0.651524	1.143300
C191	C	-0.516513	0.901524	1.393300
C192	C	-0.266513	1.151524	1.643300
C193	C	-1.016501	0.401541	0.816443
C194	C	-0.766501	0.651541	1.066443
C195	C	-0.516501	0.901541	1.316443
C196	C	-0.266501	1.151541	1.566443
C197	C	-1.063589	0.354493	0.778037
C198	C	-0.813589	0.604493	1.028037
C199	C	-0.563589	0.854493	1.278037
C200	C	-0.313589	1.104493	1.528037
C201	C	-1.063610	0.354454	0.931753
C202	C	-0.813610	0.604454	1.181753
C203	C	-0.563610	0.854454	1.431753
C204	C	-0.313610	1.104454	1.681753
C205	C	-1.063619	0.354432	1.015087
C206	C	-0.813619	0.604432	1.265087
C207	C	-0.563619	0.854432	1.515087
C208	C	-0.313619	1.104432	1.765087
C209	C	-1.063579	0.354515	0.694698
C210	C	-0.813579	0.604515	0.944698
C211	C	-0.563579	0.854515	1.194698
C212	C	-0.313579	1.104515	1.444698
H213	H	-0.633651	0.269311	0.440066
H214	H	-0.383651	0.519311	0.690066
H215	H	-0.133651	0.769311	0.940066
H216	H	0.116349	1.019311	1.190066
H217	H	-0.494224	0.269320	0.440069
H218	H	-0.244224	0.519320	0.690069
H219	H	0.005776	0.769320	0.940069
H220	H	0.255776	1.019320	1.190069
Br221	Br	-0.473228	0.465401	0.243386
Br222	Br	-0.223228	0.715401	0.493386
Br223	Br	0.026772	0.965401	0.743386
Br224	Br	0.276772	1.215401	0.993386
Br225	Br	-1.174608	0.243530	0.945521
Br226	Br	-0.924608	0.493530	1.195521
Br227	Br	-0.674608	0.743530	1.445521
Br228	Br	-0.424608	0.993530	1.695521
Br229	Br	-0.952517	0.763646	0.465379
Br230	Br	-0.702517	1.013646	0.715379
Br231	Br	-0.452517	1.263646	0.965379
Br232	Br	-0.202517	1.513646	1.215379
Br233	Br	-0.654396	0.465381	0.243366
Br234	Br	-0.404396	0.715381	0.493366
Br235	Br	-0.154396	0.965381	0.743366
Br236	Br	0.095604	1.215381	0.993366
Br237	Br	-0.952579	0.465417	0.764258
Br238	Br	-0.702579	0.715417	1.014258
Br239	Br	-0.452579	0.965417	1.264258
Br240	Br	-0.202579	1.215417	1.514258
H241	H	-0.978146	0.923955	0.439873
H242	H	-0.728146	1.173955	0.689873
H243	H	-0.478146	1.423955	0.939873
H244	H	-0.228146	1.673955	1.189873
Br245	Br	-0.952613	0.465374	0.945426
Br246	Br	-0.702613	0.715374	1.195426
Br247	Br	-0.452613	0.965374	1.445426
Br248	Br	-0.202613	1.215374	1.695426
Br249	Br	-1.174584	0.243574	0.764365
Br250	Br	-0.924584	0.493574	1.014365
Br251	Br	-0.674584	0.743574	1.264365
Br252	Br	-0.424584	0.993574	1.514365
H253	H	-1.148966	0.784512	0.269218
H254	H	-0.898966	1.034512	0.519218
H255	H	-0.648966	1.284512	0.769218
H256	H	-0.398966	1.534512	1.019218
H257	H	-1.149026	0.923940	0.269253
H258	H	-0.899026	1.173940	0.519253
H259	H	-0.649026	1.423940	0.769253
H260	H	-0.399026	1.673940	1.019253
