data_functionalizedCrystal
_audit_creation_method	'MofGen! by Chris Wilmer'
_symmetry_space_group_name_H-M	'P1'
_symmetry_Int_Tables_number	1
_symmetry_cell_setting	triclinic
loop_
_symmetry_equiv_pos_as_xyz
  x,y,z
_cell_length_a	14.971486
_cell_length_b	10.540510
_cell_length_c	14.048226
_cell_angle_alpha	89.996066
_cell_angle_beta	89.998499
_cell_angle_gamma	84.063720
loop_
_atom_site_label
_atom_site_type_symbol
_atom_site_fract_x
_atom_site_fract_y
_atom_site_fract_z
O1	O	1.187867	0.165425	-0.079046
O2	O	1.687867	0.665425	0.420954
O3	O	0.927577	0.185235	-0.079071
O4	O	1.427577	0.685235	0.420929
O5	O	1.063674	-0.009446	-0.079057
O6	O	1.563674	0.490554	0.420943
O7	O	1.051769	0.360107	-0.079059
O8	O	1.551769	0.860107	0.420941
O9	O	1.063657	-0.009458	0.079264
O10	O	1.563657	0.490542	0.579264
O11	O	0.927560	0.185224	0.079250
O12	O	1.427560	0.685224	0.579250
O13	O	1.187850	0.165414	0.079276
O14	O	1.687850	0.665414	0.579276
Zn15	Zn	1.057702	0.175317	0.104400
Zn16	Zn	1.557702	0.675317	0.604400
Zn17	Zn	1.057724	0.175332	-0.104195
Zn18	Zn	1.557724	0.675332	0.395805
O19	O	1.051753	0.360095	0.079262
O20	O	1.551753	0.860095	0.579262
C21	C	0.894239	0.184344	0.000086
C22	C	1.394239	0.684344	0.500086
C23	C	0.794927	0.181689	0.000076
C24	C	1.294927	0.681689	0.500076
C25	C	0.738337	0.296059	0.000077
C26	C	1.238337	0.796059	0.500077
C27	C	0.645024	0.293557	0.000091
C28	C	1.145024	0.793557	0.500091
C29	C	0.608302	0.176683	0.000098
C30	C	1.108302	0.676683	0.500098
C31	C	0.664899	0.062304	0.000100
C32	C	1.164899	0.562304	0.500100
C33	C	0.758210	0.064808	0.000093
C34	C	1.258210	0.564808	0.500093
C35	C	0.470407	0.057094	0.000113
C36	C	0.970407	0.557094	0.500113
C37	C	0.377089	0.054590	0.000119
C38	C	0.877089	0.554590	0.500119
C39	C	0.357221	0.285843	0.000112
C40	C	0.857221	0.785843	0.500112
C41	C	0.450532	0.288347	0.000105
C42	C	0.950532	0.788347	0.500105
C43	C	0.507123	0.173967	0.000105
C44	C	1.007123	0.673967	0.500105
C45	C	1.062778	-0.056745	0.000101
C46	C	1.562778	0.443255	0.500101
C47	C	1.060124	-0.197665	0.000095
C48	C	1.560124	0.302335	0.500095
C49	C	1.154671	-0.416194	0.000467
C50	C	1.654671	0.083806	0.500467
C51	C	1.157502	-0.269630	0.000106
C52	C	1.657502	0.230370	0.500106
C53	C	1.010286	-0.241852	-0.090317
C54	C	1.510286	0.258148	0.409683
C55	C	1.008145	-0.388588	-0.090388
C56	C	1.508145	0.111412	0.409612
C57	C	1.006098	-0.388387	0.089653
C58	C	1.506098	0.111613	0.589653
C59	C	1.010716	-0.242098	0.090843
C60	C	1.510716	0.257902	0.590843
C61	C	1.221188	0.166305	0.000116
C62	C	1.721188	0.666305	0.500116
C63	C	1.320500	0.168960	0.000120
C64	C	1.820500	0.668960	0.500120
C65	C	1.052648	0.407395	0.000101
C66	C	1.552648	0.907395	0.500101
C67	C	1.055302	0.548314	0.000101
C68	C	1.555302	1.048314	0.500101
N69	N	1.057694	0.175306	0.246761
N70	N	1.557694	0.675306	0.746761
N71	N	1.057740	0.175333	-0.246556
N72	N	1.557740	0.675333	0.253444
C73	C	1.117977	0.089137	0.296585
C74	C	1.617977	0.589137	0.796585
C75	C	1.117983	0.089136	0.396242
C76	C	1.617983	0.589136	0.896242
C77	C	1.057710	0.175312	0.446074
C78	C	1.557710	0.675312	0.946074
C79	C	0.997420	0.261485	0.396243
C80	C	1.497420	0.761485	0.896243
C81	C	0.997410	0.261479	0.296587
C82	C	1.497410	0.761479	0.796587
C83	C	0.997446	0.261494	0.603957
C84	C	1.497446	0.761494	1.103957
C85	C	0.997456	0.261503	0.703620
C86	C	1.497456	0.761503	1.203620
C87	C	1.118019	0.089151	0.703612
C88	C	1.618019	0.589151	1.203612
C89	C	1.118009	0.089145	0.603957
C90	C	1.618009	0.589145	1.103957
C91	C	1.057720	0.175320	0.554132
C92	C	1.557720	0.675320	1.054132
H93	H	0.480428	0.383515	0.000090
H94	H	0.980428	0.883515	0.500090
Cl95	Cl	1.193787	-0.019182	0.541309
Cl96	Cl	1.693787	0.480818	1.041309
H97	H	0.768228	0.391231	0.000071
H98	H	1.268228	0.891231	0.500071
Cl99	Cl	1.193810	-0.019179	0.766252
Cl100	Cl	1.693810	0.480821	1.266252
Cl101	Cl	0.895701	-0.422821	-0.096742
Cl102	Cl	1.395701	0.077179	0.403258
Cl103	Cl	1.218075	-0.226444	-0.100122
Cl104	Cl	1.718075	0.273556	0.399878
Cl105	Cl	0.921678	0.369840	0.766258
Cl106	Cl	1.421678	0.869840	1.266258
Cl107	Cl	0.829352	-0.078978	0.000096
Cl108	Cl	1.329352	0.421022	0.500096
Cl109	Cl	0.921650	0.369829	0.541325
Cl110	Cl	1.421650	0.869829	1.041325
Cl111	Cl	1.193768	-0.019194	0.458880
Cl112	Cl	1.693768	0.480806	0.958880
H113	H	0.311140	0.378975	0.000116
H114	H	0.811140	0.878975	0.500116
H115	H	0.948340	0.331647	0.436822
H116	H	1.448340	0.831647	0.936822
Cl117	Cl	0.900949	-0.165104	0.099263
Cl118	Cl	1.400949	0.334896	0.599263
H119	H	1.167062	0.018968	0.256018
H120	H	1.667062	0.518968	0.756018
Cl121	Cl	1.060758	-0.451274	-0.194718
Cl122	Cl	1.560758	0.048726	0.305282
Cl123	Cl	0.330926	-0.092339	0.000159
Cl124	Cl	0.830926	0.407661	0.500159
Cl125	Cl	0.541548	-0.086699	0.000115
Cl126	Cl	1.041548	0.413301	0.500115
Cl127	Cl	0.899608	-0.167426	-0.095528
Cl128	Cl	1.399608	0.332574	0.404472
H129	H	0.634992	-0.032856	0.000119
H130	H	1.134992	0.467144	0.500119
Cl131	Cl	0.573886	0.437343	0.000087
Cl132	Cl	1.073886	0.937343	0.500087
Cl133	Cl	1.217687	-0.225006	0.100182
Cl134	Cl	1.717687	0.274994	0.600182
Cl135	Cl	1.063744	-0.194821	-0.194192
Cl136	Cl	1.563744	0.305179	0.305808
H137	H	1.192601	-0.458584	0.065306
H138	H	1.692601	0.041416	0.565306
H139	H	0.948321	0.331645	0.256021
H140	H	1.448321	0.831645	0.756021
H141	H	1.037036	-0.430925	0.158185
H142	H	1.537036	0.069075	0.658185
Cl143	Cl	1.212920	-0.484012	-0.099062
Cl144	Cl	1.712920	0.015988	0.400938
Cl145	Cl	1.066697	-0.198555	0.194114
Cl146	Cl	1.566697	0.301445	0.694114
H147	H	0.932986	-0.409707	0.090255
H148	H	1.432986	0.090293	0.590255
