data_functionalizedCrystal
_audit_creation_method	'MofGen! by Chris Wilmer'
_symmetry_space_group_name_H-M	'P1'
_symmetry_Int_Tables_number	1
_symmetry_cell_setting	triclinic
loop_
_symmetry_equiv_pos_as_xyz
  x,y,z
_cell_length_a	21.395364
_cell_length_b	11.169409
_cell_length_c	21.395362
_cell_angle_alpha	90.039795
_cell_angle_beta	89.957550
_cell_angle_gamma	89.976088
loop_
_atom_site_label
_atom_site_type_symbol
_atom_site_fract_x
_atom_site_fract_y
_atom_site_fract_z
Zn1	Zn	0.957869	-0.678588	0.249138
Zn2	Zn	1.457869	-0.178588	0.749138
Zn3	Zn	0.957779	-0.477878	0.353934
Zn4	Zn	1.457779	0.022122	0.853934
Zn5	Zn	0.853085	-0.477910	0.249202
Zn6	Zn	1.353085	0.022090	0.749202
Zn7	Zn	0.853059	-0.678511	0.353909
Zn8	Zn	1.353059	-0.178511	0.853909
O9	O	0.905448	-0.578222	0.301546
O10	O	1.405448	-0.078222	0.801546
O11	O	1.045535	-0.651982	0.263023
O12	O	1.545535	-0.151982	0.763023
O13	O	0.943864	-0.309933	0.340079
O14	O	1.443864	0.190067	0.840079
O15	O	0.867034	-0.504576	0.161516
O16	O	1.367034	-0.004576	0.661516
O17	O	1.045469	-0.504521	0.340017
O18	O	1.545469	-0.004521	0.840017
O19	O	0.944018	-0.652013	0.161469
O20	O	1.444018	-0.152013	0.661469
O21	O	0.866946	-0.309956	0.263132
O22	O	1.366946	0.190044	0.763132
O23	O	0.765404	-0.504502	0.263108
O24	O	1.265404	-0.004502	0.763108
O25	O	0.866990	-0.846471	0.339974
O26	O	1.366990	-0.346471	0.839974
O27	O	0.765385	-0.651883	0.340036
O28	O	1.265385	-0.151883	0.840036
O29	O	0.943993	-0.846527	0.262999
O30	O	1.443993	-0.346527	0.762999
O31	O	0.943839	-0.504447	0.441609
O32	O	1.443839	-0.004447	0.941609
O33	O	0.866902	-0.651851	0.441590
O34	O	1.366902	-0.151851	0.941590
C35	C	0.742661	-0.578188	0.301576
C36	C	1.242661	-0.078188	0.801576
C37	C	0.673019	-0.578202	0.301605
C38	C	1.173019	-0.078202	0.801605
C39	C	0.640363	-0.655103	0.261580
C40	C	1.140363	-0.155103	0.761580
C41	C	0.574928	-0.655108	0.261563
C42	C	1.074928	-0.155108	0.761563
C43	C	0.542151	-0.578224	0.301582
C44	C	1.042151	-0.078224	0.801582
C45	C	0.574815	-0.501308	0.341610
C46	C	1.074815	-0.001308	0.841610
C47	C	0.640249	-0.501297	0.341621
C48	C	1.140249	-0.001297	0.841621
C49	C	0.438430	-0.568572	0.358009
C50	C	0.938430	-0.068572	0.858009
C51	C	0.372997	-0.568591	0.357999
C52	C	0.872997	-0.068591	0.857999
C53	C	0.340330	-0.578251	0.301548
C54	C	0.840330	-0.078251	0.801548
C55	C	0.373105	-0.587916	0.245105
C56	C	0.873105	-0.087916	0.745105
C57	C	0.438539	-0.587905	0.245116
C58	C	0.938539	-0.087905	0.745116
C59	C	0.471199	-0.578227	0.301575
C60	C	0.971199	-0.078227	0.801575
C61	C	0.236722	-0.655161	0.261502
C62	C	0.736722	-0.155161	0.761502
C63	C	0.171285	-0.655157	0.261484
C64	C	0.671285	-0.155157	0.761484
C65	C	0.171174	-0.501363	0.341537
C66	C	0.671174	-0.001363	0.841537
C67	C	0.236609	-0.501361	0.341549
C68	C	0.736609	-0.001361	0.841549
C69	C	0.269379	-0.578266	0.301532
C70	C	0.769379	-0.078266	0.801532
C71	C	0.905498	-0.891264	0.301477
C72	C	1.405498	-0.391264	0.801477
C73	C	0.905520	-1.024665	0.301447
C74	C	1.405520	-0.524665	0.801447
C75	C	1.068872	-0.578256	0.301516
C76	C	1.568872	-0.078256	0.801516
C77	C	1.138513	-0.578271	0.301503
C78	C	1.638513	-0.078271	0.801503
C79	C	0.905375	-0.578164	0.464334
C80	C	1.405375	-0.078164	0.964334
C81	C	0.905400	-0.578179	0.533975
C82	C	1.405400	-0.078179	1.033975
C83	C	0.905434	-0.266397	0.301570
C84	C	1.405434	0.233603	0.801570
C85	C	0.905534	-0.132998	0.301423
C86	C	1.405534	0.367002	0.801423
C87	C	0.905539	-0.578306	0.138123
C88	C	1.405539	-0.078306	0.638123
C89	C	0.905578	-0.578342	0.068481
C90	C	1.405578	-0.078342	0.568481
C91	C	0.945660	-0.501663	1.035760
C92	C	1.445660	-0.001663	1.535760
C93	C	0.945636	-0.501635	0.970324
C94	C	1.445636	-0.001635	1.470324
C95	C	0.905537	-0.578308	0.937613
C96	C	1.405537	-0.078308	1.437613
C97	C	0.865447	-0.654992	0.970343
C98	C	1.365447	-0.154992	1.470343
C99	C	0.865467	-0.655009	1.035777
C100	C	1.365467	-0.155009	1.535777
C101	C	0.900529	-0.686402	0.833904
C102	C	1.400529	-0.186402	1.333904
C103	C	0.900512	-0.686386	0.768471
C104	C	1.400512	-0.186386	1.268471
C105	C	0.905470	-0.578253	0.735792
C106	C	1.405470	-0.078253	1.235792
C107	C	0.910458	-0.470132	0.768555
C108	C	1.410458	0.029868	1.268555
C109	C	0.910478	-0.470150	0.833989
C110	C	1.410478	0.029850	1.333989
C111	C	0.905510	-0.578297	0.866661
C112	C	1.405510	-0.078297	1.366661
C113	C	0.945529	-0.501537	0.632118
C114	C	1.445529	-0.001537	1.132118
C115	C	0.945501	-0.501507	0.566682
C116	C	1.445501	-0.001507	1.066682
C117	C	0.865315	-0.654875	0.566701
C118	C	1.365315	-0.154875	1.066701
C119	C	0.865340	-0.654894	0.632136
C120	C	1.365340	-0.154894	1.132136
C121	C	0.905450	-0.578227	0.664841
C122	C	1.405450	-0.078227	1.164841
H123	H	0.346509	-0.595782	0.199138
H124	H	0.846509	-0.095782	0.699138
O125	O	0.135832	-0.418434	0.384703
O126	O	0.635832	0.081566	0.884703
H127	H	0.084845	-0.431364	0.377974
H128	H	0.584845	0.068636	0.877974
O129	O	0.915810	-0.353490	0.733320
O130	O	1.415810	0.146510	1.233320
H131	H	0.875997	-0.294484	0.745955
H132	H	1.375997	0.205516	1.245955
O133	O	0.915857	-0.353540	0.869323
O134	O	1.415857	0.146460	1.369323
H135	H	0.915044	-0.371726	0.920312
H136	H	1.415044	0.128274	1.420312
O137	O	0.272074	-0.738086	0.218335
O138	O	0.772074	-0.238086	0.718335
H139	H	0.238370	-0.791547	0.190491
H140	H	0.738370	-0.291547	0.690491
O141	O	0.539464	-0.418384	0.384773
O142	O	1.039464	0.081616	0.884773
H143	H	0.552003	-0.324225	0.373967
H144	H	1.052003	0.175775	0.873967
O145	O	0.136063	-0.738102	0.218307
O146	O	0.636063	-0.238102	0.718307
H147	H	0.085056	-0.725180	0.225014
H148	H	0.585056	-0.225180	0.725014
H149	H	0.263198	-0.438744	0.374144
H150	H	0.763198	0.061256	0.874144
O151	O	0.539691	-0.738055	0.218394
O152	O	1.039691	-0.238055	0.718394
H153	H	0.552259	-0.832209	0.229206
H154	H	1.052259	-0.332209	0.729206
H155	H	0.832702	-0.717338	0.658779
H156	H	1.332702	-0.217338	1.158779
H157	H	0.832828	-0.717455	1.062418
H158	H	1.332828	-0.217455	1.562418
O159	O	0.988780	-0.418837	0.667400
O160	O	1.488780	0.081163	1.167400
H161	H	1.016641	-0.365495	0.633650
H162	H	1.516641	0.134505	1.133650
H163	H	0.896604	-0.774482	0.860505
H164	H	1.396604	-0.274482	1.360505
H165	H	0.978139	-0.439059	0.540039
H166	H	1.478139	0.060941	1.040039
O167	O	0.988884	-0.418961	0.935017
O168	O	1.488884	0.081039	1.435017
H169	H	0.960863	-0.357827	0.905255
H170	H	1.460863	0.142173	1.405255
O171	O	0.473891	-0.598298	0.184244
O172	O	0.973891	-0.098298	0.684244
H173	H	0.440188	-0.605004	0.144985
H174	H	0.940188	-0.105004	0.644985
H175	H	0.346317	-0.560727	0.403958
H176	H	0.846317	-0.060727	0.903958
O177	O	0.822064	-0.737578	0.531431
O178	O	1.322064	-0.237578	1.031431
H179	H	0.828785	-0.724690	0.480432
H180	H	1.328785	-0.224690	0.980432
H181	H	0.832796	-0.717418	0.943706
H182	H	1.332796	-0.217418	1.443706
O183	O	0.988915	-0.418969	1.071036
O184	O	1.488915	0.081031	1.571036
H185	H	0.978189	-0.324751	1.058532
H186	H	1.478189	0.175249	1.558532
O187	O	0.895101	-0.802989	0.733135
O188	O	1.395101	-0.302989	1.233135
H189	H	0.891632	-0.878179	0.766850
H190	H	1.391632	-0.378179	1.266850
H191	H	0.667041	-0.717725	0.228995
H192	H	1.167041	-0.217725	0.728995
H193	H	0.465022	-0.560705	0.403981
H194	H	0.965022	-0.060705	0.903981
H195	H	0.666837	-0.438673	0.374215
H196	H	1.166837	0.061327	0.874215
