data_functionalizedCrystal
_audit_creation_method	'MofGen! by Chris Wilmer'
_symmetry_space_group_name_H-M	'P1'
_symmetry_Int_Tables_number	1
_symmetry_cell_setting	triclinic
loop_
_symmetry_equiv_pos_as_xyz
  x,y,z
_cell_length_a	12.759401
_cell_length_b	25.639240
_cell_length_c	12.759393
_cell_angle_alpha	90.044235
_cell_angle_beta	90.018567
_cell_angle_gamma	90.031802
loop_
_atom_site_label
_atom_site_type_symbol
_atom_site_fract_x
_atom_site_fract_y
_atom_site_fract_z
Zn1	Zn	1.606124	-0.208133	0.593891
Zn2	Zn	1.605962	-0.295580	0.418172
Zn3	Zn	1.430425	-0.208159	0.418230
Zn4	Zn	1.430359	-0.295538	0.593813
O5	O	1.518218	-0.251853	0.506027
O6	O	1.753123	-0.219740	0.570590
O7	O	1.582638	-0.284012	0.271159
O8	O	1.453828	-0.134990	0.441588
O9	O	1.753005	-0.283987	0.441490
O10	O	1.582912	-0.134971	0.570646
O11	O	1.453671	-0.219784	0.271201
O12	O	1.283396	-0.219743	0.441513
O13	O	1.453714	-0.283915	0.740845
O14	O	1.283347	-0.283940	0.570514
O15	O	1.582847	-0.219699	0.740902
O16	O	1.582573	-0.368740	0.441415
O17	O	1.453558	-0.368709	0.570457
C18	C	1.245250	-0.251840	0.506012
C19	C	1.128474	-0.251848	0.506031
C20	C	1.073666	-0.218458	0.573357
C21	C	0.963942	-0.218468	0.573364
C22	C	0.963843	-0.285262	0.438714
C23	C	1.073565	-0.285249	0.438703
C24	C	1.073723	-0.179896	0.651099
C25	C	0.963999	-0.179906	0.651105
C26	C	1.518069	-0.387695	0.505944
C27	C	1.518102	-0.445809	0.505944
C28	C	1.585465	-0.806124	0.573348
C29	C	1.585496	-0.860728	0.573369
O30	O	1.642595	-0.888924	0.630594
N31	N	1.518363	-0.888092	0.506128
C32	C	1.451188	-0.860848	0.438869
O33	O	1.394088	-0.889137	0.381678
C34	C	1.451152	-0.806245	0.438853
C35	C	1.518297	-0.778884	0.506091
C36	C	1.652604	-0.778763	0.640581
C37	C	1.652574	-0.724163	0.640558
C38	C	1.585406	-0.696923	0.573302
C39	C	1.518267	-0.724283	0.506068
C40	C	1.383972	-0.779002	0.371600
C41	C	1.383941	-0.724395	0.371591
C42	C	1.451086	-0.697034	0.438829
C43	C	1.451069	-0.642443	0.438789
N44	N	1.518202	-0.615080	0.506030
C45	C	1.585370	-0.642320	0.573287
C46	C	1.451266	-0.975518	0.438907
C47	C	1.451306	-1.030121	0.438916
C48	C	1.585614	-1.029997	0.573419
C49	C	1.585578	-0.975394	0.573403
C50	C	1.518399	-0.948155	0.506148
C51	C	1.585303	-0.527655	0.573233
C52	C	1.585270	-0.473049	0.573201
C53	C	1.450959	-0.473177	0.438703
C54	C	1.450995	-0.527778	0.438730
C55	C	1.518171	-0.555015	0.506004
O56	O	1.393996	-0.614213	0.381597
O57	O	1.642450	-0.614024	0.630478
C58	C	1.792251	-0.251865	0.506042
C59	C	1.909027	-0.251871	0.506048
C60	C	1.518291	-0.251800	0.780060
C61	C	1.518323	-0.251777	0.896837
C62	C	1.518395	-0.115480	0.506132
C63	C	1.518471	-0.057365	0.506177
C64	C	1.518205	-0.251867	0.233059
C65	C	1.518377	-0.251743	0.116283
C66	C	1.585572	-0.218337	0.951730
C67	C	1.585597	-0.218318	1.061454
C68	C	1.451120	-0.285185	1.061382
C69	C	1.451091	-0.285200	0.951660
C70	C	1.663214	-0.179734	0.951773
C71	C	1.663239	-0.179715	1.061497
H72	H	0.919122	-0.312457	0.383899
H73	H	1.329295	-0.801269	0.316847
C74	C	1.378020	-0.321493	1.120717
C75	C	1.319102	-0.350774	1.049155
C76	C	1.251741	-0.384224	1.103774
H77	H	1.418071	-0.344316	1.163507
H78	H	1.332223	-0.301495	1.163511
H79	H	1.364893	-0.370772	1.006380
H80	H	1.279030	-0.327965	1.006363
H81	H	1.205944	-0.364225	1.146567
H82	H	1.291800	-0.407043	1.146562
H83	H	1.211750	-0.404091	1.055227
H84	H	1.396327	-0.312429	0.906970
C85	C	1.658210	-0.443438	0.646325
C86	C	1.717014	-0.478986	0.705250
C87	C	1.784203	-0.451729	0.772632
H88	H	1.704093	-0.422136	0.606288
H89	H	1.618006	-0.422144	0.692116
H90	H	1.757215	-0.500271	0.659465
H91	H	1.671159	-0.500289	0.745308
H92	H	1.743999	-0.430435	0.818423
H93	H	1.830079	-0.430428	0.732587
H94	H	1.824102	-0.475844	0.812628
C95	C	1.634283	-0.125775	0.911903
C96	C	1.634358	-0.125930	0.802170
C97	C	1.607725	-0.076233	0.765405
H98	H	1.566492	-0.116673	0.936607
H99	H	1.683974	-0.101061	0.936684
H100	H	1.584670	-0.150636	0.777400
H101	H	1.702140	-0.135023	0.777438
H102	H	1.657416	-0.051518	0.790186
H103	H	1.539935	-0.067135	0.790117
H104	H	1.607782	-0.076330	0.690949
H105	H	1.707300	-0.800936	0.695356
C106	C	1.378236	-1.059794	0.366036
C107	C	1.274268	-1.046549	0.388839
C108	C	1.206919	-1.073876	0.321735
H109	H	1.393507	-1.050893	0.295419
H110	H	1.387793	-1.096222	0.375681
H111	H	1.264716	-1.010130	0.379185
H112	H	1.258965	-1.055451	0.459444
H113	H	1.216476	-1.110304	0.331381
H114	H	1.222200	-1.064973	0.251122
H115	H	1.136370	-1.064897	0.337204
H116	H	1.107779	-0.194443	0.728330
H117	H	1.740476	-0.194250	0.917730
C118	C	0.918523	-0.128576	0.612694
C119	C	0.856881	-0.106464	0.691855
C120	C	0.814977	-0.059177	0.656529
H121	H	0.973898	-0.105372	0.595297
H122	H	0.876517	-0.134707	0.552434
H123	H	0.898885	-0.100331	0.752097
H124	H	0.801490	-0.129654	0.709261
H125	H	0.772970	-0.065307	0.596269
H126	H	0.870358	-0.035977	0.639132
H127	H	0.773140	-0.044170	0.710230
C128	C	1.658301	-0.557285	0.646100
C129	C	1.725682	-0.588643	0.586693
C130	C	1.792937	-0.615950	0.653779
H131	H	1.698376	-0.533222	0.686155
H132	H	1.618137	-0.578611	0.691843
H133	H	1.765842	-0.567320	0.540968
H134	H	1.685636	-0.612716	0.546641
H135	H	1.752772	-0.637275	0.699522
H136	H	1.833004	-0.591883	0.693830
H137	H	1.838655	-0.637233	0.613481
C138	C	1.658508	-0.945785	0.646530
C139	C	1.717316	-0.981335	0.705445
C140	C	1.784500	-0.954081	0.772836
H141	H	1.704390	-0.924478	0.606500
H142	H	1.618301	-0.924495	0.692326
H143	H	1.757520	-1.002616	0.659655
H144	H	1.671463	-1.002643	0.745497
H145	H	1.744293	-0.932791	0.818632
H146	H	1.830374	-0.932775	0.732798
H147	H	1.824402	-0.978197	0.812825
C148	C	1.378204	-0.945919	0.366045
C149	C	1.310785	-0.914583	0.425454
C150	C	1.243458	-0.887318	0.358372
H151	H	1.418282	-0.924580	0.320273
H152	H	1.338172	-0.970023	0.326022
H153	H	1.350813	-0.890482	0.465458
H154	H	1.270685	-0.935910	0.471223
H155	H	1.203425	-0.911422	0.318350
H156	H	1.283543	-0.865982	0.312604
H157	H	1.197699	-0.866057	0.398672
C158	C	1.624261	-0.128465	1.106982
C159	C	1.535449	-0.137754	1.168640
C160	C	1.499497	-0.090557	1.210544
H161	H	1.677677	-0.113285	1.148979
H162	H	1.606683	-0.105330	1.051576
H163	H	1.553030	-0.160880	1.224038
H164	H	1.482011	-0.152926	1.126666
H165	H	1.481920	-0.067422	1.155138
H166	H	1.552920	-0.075380	1.252536
H167	H	1.439229	-0.096852	1.252376
H168	H	1.103515	-0.139385	0.629463
H169	H	1.744602	-0.190561	1.091271
H170	H	1.118185	-0.312434	0.383870
H171	H	1.707246	-0.701889	0.695312
H172	H	0.934247	-0.190802	0.732437
H173	H	1.329233	-0.702219	0.316825
C174	C	1.377986	-0.557393	0.365686
C175	C	1.319142	-0.521847	0.306796
C176	C	1.251857	-0.549105	0.239515
H177	H	1.418089	-0.578705	0.319860
H178	H	1.332140	-0.578678	0.405826
H179	H	1.364983	-0.500571	0.266659
H180	H	1.279019	-0.500534	0.352594
H181	H	1.206010	-0.570390	0.279655
H182	H	1.291968	-0.570416	0.193696
H183	H	1.211917	-0.524991	0.199557
H184	H	1.396274	-0.450990	0.383940
H185	H	1.640304	-1.052186	0.628184
