data_functionalizedCrystal
_audit_creation_method	'MofGen! by Chris Wilmer'
_symmetry_space_group_name_H-M	'P1'
_symmetry_Int_Tables_number	1
_symmetry_cell_setting	triclinic
loop_
_symmetry_equiv_pos_as_xyz
  x,y,z
_cell_length_a	10.654550
_cell_length_b	10.654550
_cell_length_c	9.130313
_cell_angle_alpha	89.999890
_cell_angle_beta	89.996220
_cell_angle_gamma	84.484903
loop_
_atom_site_label
_atom_site_type_symbol
_atom_site_fract_x
_atom_site_fract_y
_atom_site_fract_z
O1	O	1.667834	0.176393	-0.121916
O2	O	1.302356	0.193199	-0.121892
O3	O	1.493498	0.002057	-0.121899
O4	O	1.476692	0.367535	-0.121909
O5	O	1.493496	0.002062	0.121700
O6	O	1.302353	0.193204	0.121707
O7	O	1.667832	0.176398	0.121683
Cu8	Cu	1.485092	0.184802	0.143937
Cu9	Cu	1.485095	0.184796	-0.144146
O10	O	1.476689	0.367540	0.121690
C11	C	1.255556	0.191968	-0.000089
C12	C	1.116113	0.188276	-0.000080
C13	C	1.036627	0.300817	-0.000105
C14	C	0.905607	0.297341	-0.000130
C15	C	0.933570	0.068771	-0.000113
C16	C	1.064588	0.072249	-0.000077
C17	C	1.020482	0.432780	-0.000121
C18	C	0.889461	0.429304	-0.000146
C19	C	1.492263	-0.044739	-0.000101
C20	C	1.488571	-0.184182	-0.000106
C21	C	1.601112	-0.263668	-0.000109
C22	C	1.597636	-0.394688	-0.000119
C23	C	1.369066	-0.366725	-0.000117
C24	C	1.372544	-0.235707	-0.000118
C25	C	1.733075	-0.279813	-0.000104
C26	C	1.729599	-0.410834	-0.000114
C27	C	1.714631	0.177630	-0.000123
C28	C	1.854074	0.181321	-0.000141
C29	C	1.477925	0.414336	-0.000111
C30	C	1.481616	0.553779	-0.000116
N31	N	1.485099	0.184805	0.346560
N32	N	1.485098	0.184782	-0.346769
C33	C	1.569759	0.100196	0.423209
C34	C	1.569756	0.100181	0.576546
C35	C	1.400429	0.269395	0.576571
C36	C	1.400427	0.269403	0.423237
C37	C	1.667523	0.002506	0.423195
C38	C	1.667519	0.002491	0.576532
H39	H	0.891602	-0.025694	-0.000132
O40	O	1.627162	-0.118360	0.639543
H41	H	1.605767	-0.182420	0.548946
H42	H	0.843789	0.469187	0.105021
H43	H	1.274601	-0.408693	-0.000128
H44	H	1.764031	0.024009	0.618142
O45	O	1.059366	0.501034	0.134988
H46	H	0.974496	0.531694	0.201108
O47	O	1.309111	0.360652	0.340559
H48	H	1.250245	0.419481	0.419641
H49	H	1.056138	0.474797	-0.105294
H50	H	1.331490	0.338271	0.639019
H51	H	0.847729	0.479023	-0.102101
H52	H	1.280902	-0.170993	-0.000136
O53	O	1.801427	-0.240906	-0.135140
H54	H	1.832123	-0.325764	-0.201260
H55	H	1.775096	-0.244184	0.105075
O56	O	1.639133	-0.125348	0.368015
H57	H	1.545157	-0.146260	0.408549
H58	H	1.129302	-0.019393	-0.000036
H59	H	1.769481	-0.456479	-0.105296
O60	O	1.788310	0.042995	0.360167
H61	H	1.852350	0.064451	0.450755
H62	H	1.779319	-0.452592	0.101827
