data_functionalizedCrystal
_audit_creation_method	'MofGen! by Chris Wilmer'
_symmetry_space_group_name_H-M	'P1'
_symmetry_Int_Tables_number	1
_symmetry_cell_setting	triclinic
loop_
_symmetry_equiv_pos_as_xyz
  x,y,z
_cell_length_a	6.817900
_cell_length_b	14.125469
_cell_length_c	16.305550
_cell_angle_alpha	95.884114
_cell_angle_beta	103.455250
_cell_angle_gamma	100.398878
loop_
_atom_site_label
_atom_site_type_symbol
_atom_site_fract_x
_atom_site_fract_y
_atom_site_fract_z
V1	V	-4.010572	-0.133925	-0.262704
O2	O	-4.014497	0.005600	-0.258038
O3	O	-3.946712	-0.264747	-0.260584
O4	O	-3.962176	-0.132231	-0.377425
O5	O	-3.998925	-0.127833	-0.140389
V6	V	-4.496202	-0.117193	-0.248113
O7	O	-4.267207	-0.170628	-0.294709
O8	O	-4.689764	-0.080489	-0.216107
O9	O	-4.336856	0.013629	-0.250232
O10	O	-4.609674	-0.256718	-0.252778
O11	O	-4.625245	-0.123285	-0.370428
O12	O	-4.321392	-0.118886	-0.133392
C13	C	-3.787951	-0.296627	-0.256357
C14	C	-3.817025	-0.403578	-0.255389
C15	C	-3.870323	-0.599398	-0.253629
C16	C	-4.055817	-0.651731	-0.257190
C17	C	-4.085475	-0.760692	-0.256211
C18	C	-3.840658	-0.490427	-0.254608
C19	C	-3.807677	-0.127589	-0.405397
C20	C	-3.849289	-0.127070	-0.499180
C21	C	-4.000611	-0.125059	-0.839931
C22	C	-3.765262	-0.119090	-0.799017
C23	C	-3.721959	-0.120028	-0.701520
C24	C	-3.925537	-0.126056	-0.670880
C25	C	-4.081450	-0.221074	-0.721274
C26	C	-4.123376	-0.220536	-0.818825
C27	C	-4.065699	-0.036771	-0.794304
C28	C	-4.017858	-0.036019	-0.696463
C29	C	-3.883121	-0.126623	-0.575341
C30	C	-4.043036	-0.124499	-0.935471
C31	C	-4.158957	0.045504	-0.254457
C32	C	-4.109122	0.152455	-0.255431
C33	C	-4.139232	-0.123532	-0.105415
C34	C	-4.076859	-0.124046	-0.011631
H35	H	-3.667157	-0.050450	-0.811548
H36	H	-4.233687	-0.228922	-0.702342
H37	H	-3.733802	-0.636425	-0.249844
H38	H	-4.192349	-0.614702	-0.260973
O39	O	-3.580769	-0.038428	-0.660030
C40	C	-3.658673	0.044580	-0.680220
H41	H	-3.781389	0.025099	-0.743586
H42	H	-3.729905	0.071252	-0.627862
C43	C	-3.331057	0.149467	-0.609577
C44	C	-3.481767	0.125542	-0.687408
H45	H	-3.221934	0.199411	-0.614007
H46	H	-3.278572	0.093544	-0.595971
H47	H	-3.390443	0.171688	-0.565954
H48	H	-3.422386	0.103310	-0.731027
H49	H	-3.534238	0.181464	-0.701021
O50	O	-3.702961	-0.194845	-0.836481
C51	C	-3.871129	-0.253197	-0.899553
H52	H	-4.021628	-0.241911	-0.884974
H53	H	-3.865653	-0.231818	-0.964660
C54	C	-3.674080	-0.374922	-0.918101
C55	C	-3.858925	-0.361067	-0.900190
H56	H	-3.666550	-0.441462	-0.918497
H57	H	-3.560779	-0.335608	-0.875610
H58	H	-3.669539	-0.357101	-0.972355
H59	H	-3.863452	-0.378877	-0.845932
H60	H	-3.972228	-0.400387	-0.942672
H61	H	-3.648023	-0.184191	-0.685069
H62	H	-4.079409	-0.287373	-0.849043
O63	O	-4.005902	-0.300766	-0.700876
C64	C	-3.975923	-0.302800	-0.612604
H65	H	-3.957985	-0.226075	-0.578215
H66	H	-4.114757	-0.352630	-0.600851
C67	C	-3.801894	-0.435585	-0.620748
C68	C	-3.779845	-0.341349	-0.578511
H69	H	-3.680950	-0.459368	-0.599717
H70	H	-3.822098	-0.434218	-0.680219
H71	H	-3.917596	-0.477098	-0.610950
H72	H	-3.664161	-0.299835	-0.588318
H73	H	-3.759617	-0.342710	-0.519040
O74	O	-3.966473	0.049036	-0.810510
C75	C	-3.836692	0.030568	-0.863426
H76	H	-3.797395	-0.043800	-0.856559
H77	H	-3.919063	0.031417	-0.932647
C78	C	-3.685007	0.201042	-0.845434
C79	C	-3.636727	0.109707	-0.836994
H80	H	-3.561662	0.249861	-0.829132
H81	H	-3.772447	0.213486	-0.809786
H82	H	-3.753653	0.201737	-0.903119
H83	H	-3.568107	0.109010	-0.779308
H84	H	-3.549270	0.097265	-0.872632
H85	H	-4.296237	-0.228869	-0.846797
H86	H	-3.905037	0.034261	-0.662257
H87	H	-4.165284	-0.034837	-0.675118
H88	H	-4.237352	-0.040300	-0.821111
