data_functionalizedCrystal
_audit_creation_method	'MofGen! by Chris Wilmer'
_symmetry_space_group_name_H-M	'P1'
_symmetry_Int_Tables_number	1
_symmetry_cell_setting	triclinic
loop_
_symmetry_equiv_pos_as_xyz
  x,y,z
_cell_length_a	12.759401
_cell_length_b	12.759399
_cell_length_c	12.759393
_cell_angle_alpha	89.973195
_cell_angle_beta	89.977503
_cell_angle_gamma	90.015072
loop_
_atom_site_label
_atom_site_type_symbol
_atom_site_fract_x
_atom_site_fract_y
_atom_site_fract_z
Zn1	Zn	-1.606270	0.418192	0.594091
Zn2	Zn	-1.106270	0.918192	1.094091
Zn3	Zn	-1.606162	0.593908	0.418422
Zn4	Zn	-1.106162	1.093908	0.918422
Zn5	Zn	-1.430568	0.418246	0.418421
Zn6	Zn	-0.930568	0.918246	0.918421
Zn7	Zn	-1.430562	0.593832	0.594055
Zn8	Zn	-0.930562	1.093832	1.094055
O9	O	-1.518390	0.506045	0.506247
O10	O	-1.018390	1.006045	1.006247
O11	O	-1.753276	0.441511	0.570804
O12	O	-1.253276	0.941511	1.070804
O13	O	-1.582827	0.570660	0.271401
O14	O	-1.082827	1.070660	0.771401
O15	O	-1.453923	0.271218	0.441739
O16	O	-0.953923	0.771218	0.941739
O17	O	-1.753197	0.570608	0.441741
O18	O	-1.253197	1.070608	0.941741
O19	O	-1.583010	0.271178	0.570802
O20	O	-1.083010	0.771178	1.070802
O21	O	-1.453819	0.441602	0.271400
O22	O	-0.953819	0.941602	0.771400
O23	O	-1.283546	0.441529	0.441704
O24	O	-0.783546	0.941529	0.941704
O25	O	-1.453912	0.570479	0.741081
O26	O	-0.953912	1.070479	1.241081
O27	O	-1.283542	0.570531	0.570741
O28	O	-0.783542	1.070531	1.070741
O29	O	-1.583004	0.441437	0.741107
O30	O	-1.083004	0.941437	1.241107
O31	O	-1.582821	0.740919	0.441706
O32	O	-1.082821	1.240919	0.941706
O33	O	-1.453808	0.740863	0.570742
O34	O	-0.953808	1.240863	1.070742
C35	C	-1.245423	0.506029	0.506219
C36	C	-0.745423	1.006029	1.006219
C37	C	-1.128646	0.506047	0.506232
C38	C	-0.628646	1.006047	1.006232
C39	C	-1.073809	0.573320	0.573314
C40	C	-0.573809	1.073320	1.073314
C41	C	-0.964085	0.573323	0.573332
C42	C	-0.464085	1.073323	1.073332
C43	C	-0.964045	0.438776	0.439176
C44	C	-0.464045	0.938776	0.939176
C45	C	-1.073767	0.438769	0.439164
C46	C	-0.573767	0.938769	0.939164
C47	C	-1.518330	0.779012	0.506243
C48	C	-1.018330	1.279012	1.006243
C49	C	-1.518401	0.895789	0.506276
C50	C	-1.018401	1.395789	1.006276
C51	C	-1.518469	0.505944	0.780281
C52	C	-1.018469	1.005944	1.280281
C53	C	-1.518503	0.505901	0.897057
C54	C	-1.018503	1.005901	1.397057
C55	C	-0.792424	0.506059	0.506269
C56	C	-0.292424	1.006059	1.006269
C57	C	-0.909200	0.506057	0.506261
C58	C	-0.409200	1.006057	1.006261
C59	C	-1.585655	0.950645	0.439167
C60	C	-1.085655	1.450645	0.939167
C61	C	-1.585724	1.060369	0.439210
C62	C	-1.085724	1.560369	0.939210
C63	C	-1.451275	1.060371	0.573474
C64	C	-0.951275	1.560371	1.073474
C65	C	-1.451212	0.950649	0.573436
C66	C	-0.951212	1.450649	1.073436
C67	C	-1.518483	1.232011	0.506293
C68	C	-1.018483	1.732011	1.006293
C69	C	-1.518533	1.115235	0.506358
C70	C	-1.018533	1.615235	1.006358
C71	C	-1.518373	0.506069	0.233280
C72	C	-1.018373	1.006069	0.733280
C73	C	-1.518543	0.505816	0.116504
C74	C	-1.018543	1.005816	0.616504
C75	C	-1.585726	0.438698	0.951935
C76	C	-1.085726	0.938698	1.451935
C77	C	-1.585744	0.438653	1.061659
C78	C	-1.085744	0.938653	1.561659
C79	C	-1.451312	0.573022	1.061619
C80	C	-0.951312	1.073022	1.561619
C81	C	-1.451290	0.573061	0.951896
C82	C	-0.951290	1.073061	1.451896
H83	H	-0.919442	0.628102	0.627959
H84	H	-0.419442	1.128102	1.127959
N85	N	-1.658221	0.366267	0.892789
N86	N	-1.158221	0.866267	1.392789
H87	H	-1.648017	0.376494	0.814952
H88	H	-1.148017	0.876494	1.314952
H89	H	-1.733248	0.382634	0.911991
H90	H	-1.233248	0.882634	1.411991
H91	H	-0.919349	0.384003	0.384570
H92	H	-0.419349	0.884003	0.884570
N93	N	-1.378806	1.119542	0.645903
N94	N	-0.878806	1.619542	1.145903
H95	H	-1.389047	1.197375	0.635743
H96	H	-0.889047	1.697375	1.135743
H97	H	-1.303771	1.100436	0.629474
H98	H	-0.803771	1.600436	1.129474
H99	H	-1.640365	0.905980	0.384483
H100	H	-1.140365	1.405980	0.884483
N101	N	-1.378673	0.891473	0.645823
N102	N	-0.878673	1.391473	1.145823
H103	H	-1.336113	0.942875	0.688369
H104	H	-0.836113	1.442875	1.188369
H105	H	-1.330050	0.846024	0.602996
H106	H	-0.830050	1.346024	1.102996
N107	N	-1.132922	0.366193	0.366821
N108	N	-0.632922	0.866193	0.866821
H109	H	-1.081509	0.323576	0.324334
H110	H	-0.581509	0.823576	0.824334
H111	H	-1.178422	0.408888	0.318123
H112	H	-0.678422	0.908888	0.818123
H113	H	-1.640491	1.105028	0.384565
H114	H	-1.140491	1.605028	0.884565
H115	H	-1.640482	0.383928	1.106335
H116	H	-1.140482	0.883928	1.606335
H117	H	-1.396592	0.627704	1.106282
H118	H	-0.896592	1.127704	1.606282
N119	N	-1.378773	0.645554	0.892716
N120	N	-0.878773	1.145554	1.392716
H121	H	-1.421435	0.694265	0.847191
H122	H	-0.921435	1.194265	1.347191
H123	H	-1.330102	0.602794	0.847252
H124	H	-0.830102	1.102794	1.347252
N125	N	-1.133003	0.645879	0.645648
N126	N	-0.633003	1.145879	1.145648
H127	H	-1.081610	0.688495	0.688148
H128	H	-0.581610	1.188495	1.188148
H129	H	-1.178562	0.603170	0.694335
H130	H	-0.678562	1.103170	1.194335
