data_functionalizedCrystal
_audit_creation_method	'MofGen! by Chris Wilmer'
_symmetry_space_group_name_H-M	'P1'
_symmetry_Int_Tables_number	1
_symmetry_cell_setting	triclinic
loop_
_symmetry_equiv_pos_as_xyz
  x,y,z
_cell_length_a	18.050591
_cell_length_b	18.050589
_cell_length_c	16.625539
_cell_angle_alpha	89.975176
_cell_angle_beta	89.973401
_cell_angle_gamma	90.024227
loop_
_atom_site_label
_atom_site_type_symbol
_atom_site_fract_x
_atom_site_fract_y
_atom_site_fract_z
Zn1	Zn	1.135334	-0.295737	-0.456059
Zn2	Zn	1.468667	0.037596	-0.122725
Zn3	Zn	1.802001	0.370929	0.210608
Zn4	Zn	1.135233	-0.419935	-0.321234
Zn5	Zn	1.468566	-0.086602	0.012099
Zn6	Zn	1.801899	0.246732	0.345433
Zn7	Zn	1.011141	-0.295755	-0.321225
Zn8	Zn	1.344474	0.037579	0.012108
Zn9	Zn	1.677808	0.370912	0.345442
Zn10	Zn	1.011101	-0.419881	-0.456010
Zn11	Zn	1.344435	-0.086548	-0.122676
Zn12	Zn	1.677768	0.246785	0.210657
O13	O	1.073202	-0.357827	-0.388632
O14	O	1.406536	-0.024494	-0.055298
O15	O	1.739869	0.308840	0.278035
O16	O	1.239245	-0.312227	-0.438198
O17	O	1.572579	0.021106	-0.104865
O18	O	1.905912	0.354439	0.228469
O19	O	1.118746	-0.403492	-0.208400
O20	O	1.452079	-0.070158	0.124933
O21	O	1.785412	0.263175	0.458266
O22	O	1.027675	-0.191828	-0.339128
O23	O	1.361008	0.141506	-0.005794
O24	O	1.694341	0.474839	0.327539
O25	O	1.239171	-0.403475	-0.339143
O26	O	1.572504	-0.070142	-0.005810
O27	O	1.905837	0.263192	0.327524
O28	O	1.118919	-0.191815	-0.438189
O29	O	1.452252	0.141518	-0.104856
O30	O	1.785585	0.474852	0.228477
O31	O	1.027576	-0.312257	-0.208394
O32	O	1.360909	0.021076	0.124940
O33	O	1.694243	0.354410	0.458273
O34	O	0.907211	-0.312205	-0.339080
O35	O	1.240545	0.021128	-0.005747
O36	O	1.573878	0.354462	0.327587
O37	O	1.027607	-0.403384	-0.568849
O38	O	1.360940	-0.070050	-0.235515
O39	O	1.694274	0.263283	0.097818
O40	O	0.907182	-0.403400	-0.438106
O41	O	1.240515	-0.070067	-0.104773
O42	O	1.573849	0.263266	0.228561
O43	O	1.118880	-0.312175	-0.568884
O44	O	1.452214	0.021158	-0.235551
O45	O	1.785547	0.354491	0.097782
O46	O	1.118707	-0.523852	-0.339096
O47	O	1.452040	-0.190519	-0.005762
O48	O	1.785374	0.142814	0.327571
O49	O	1.027508	-0.523813	-0.438115
O50	O	1.360842	-0.190480	-0.104781
O51	O	1.694175	0.142854	0.228552
C52	C	0.880250	-0.357799	-0.388587
C53	C	1.213583	-0.024466	-0.055254
C54	C	1.546917	0.308867	0.278080
C55	C	0.797704	-0.357805	-0.388587
C56	C	1.131038	-0.024472	-0.055254
C57	C	1.464371	0.308861	0.278079
C58	C	1.073113	-0.550779	-0.388618
C59	C	1.406446	-0.217446	-0.055285
C60	C	1.739779	0.115888	0.278048
C61	C	1.073142	-0.633325	-0.388640
C62	C	1.406476	-0.299992	-0.055306
C63	C	1.739809	0.033342	0.278027
C64	C	0.598248	-0.308156	-0.334861
C65	C	0.931581	0.025178	-0.001528
C66	C	1.264915	0.358511	0.331806
C67	C	0.548827	-0.375894	-0.315024
C68	C	0.882160	-0.042560	0.018309
C69	C	1.215493	0.290773	0.351643
C70	C	0.646574	-0.357828	-0.388624
C71	C	0.979907	-0.024495	-0.055290
C72	C	1.313241	0.308839	0.278043
C73	C	0.548914	-0.290113	-0.408459
C74	C	0.882247	0.043220	-0.075125
C75	C	1.215580	0.376553	0.258208
C76	C	0.500589	-0.357844	-0.388657
C77	C	0.833922	-0.024510	-0.055324
C78	C	1.167256	0.308823	0.278009
C79	C	0.598240	-0.425601	-0.368748
C80	C	0.931573	-0.092268	-0.035415
C81	C	1.264906	0.241065	0.297918
C82	C	0.598331	-0.339775	-0.462217
C83	C	0.931665	-0.006442	-0.128884
C84	C	1.264998	0.326891	0.204450
C85	C	0.548932	-0.407560	-0.442408
C86	C	0.882265	-0.074227	-0.109075
C87	C	1.215599	0.259106	0.224259
C88	C	0.730672	-0.357818	-0.388602
C89	C	1.064006	-0.024484	-0.055269
C90	C	1.397339	0.308849	0.278064
C91	C	0.416492	-0.357861	-0.388679
C92	C	0.749826	-0.024528	-0.055346
C93	C	1.083159	0.308805	0.277988
C94	C	1.023597	-0.832781	-0.442467
C95	C	1.356930	-0.499448	-0.109134
C96	C	1.690264	-0.166114	0.224199
C97	C	1.005493	-0.882222	-0.368889
C98	C	1.338826	-0.548888	-0.035556
C99	C	1.672159	-0.215555	0.297777
C100	C	1.073215	-0.784455	-0.388650
C101	C	1.406549	-0.451122	-0.055317
C102	C	1.739882	-0.117789	0.278017
C103	C	1.091356	-0.882096	-0.462237
C104	C	1.424690	-0.548763	-0.128903
C105	C	1.758023	-0.215430	0.204430
C106	C	1.073284	-0.930440	-0.388667
C107	C	1.406618	-0.597107	-0.055333
C108	C	1.739951	-0.263774	0.278000
C109	C	1.055075	-0.832809	-0.315033
C110	C	1.388408	-0.499475	0.018300
C111	C	1.721742	-0.166142	0.351634
C112	C	1.140970	-0.832679	-0.408430
C113	C	1.474303	-0.499346	-0.075097
C114	C	1.807637	-0.166012	0.258237
C115	C	1.122891	-0.882097	-0.334801
C116	C	1.456225	-0.548764	-0.001468
C117	C	1.789558	-0.215430	0.331865
C118	C	1.073173	-0.700357	-0.388642
C119	C	1.406507	-0.367024	-0.055308
C120	C	1.739840	-0.033690	0.278025
C121	C	1.073326	-1.014537	-0.388667
C122	C	1.406659	-0.681203	-0.055334
C123	C	1.739993	-0.347870	0.278000
C124	C	1.266908	-0.357855	-0.388677
C125	C	1.600241	-0.024522	-0.055344
C126	C	1.933575	0.308811	0.277990
C127	C	1.349454	-0.357867	-0.388696
C128	C	1.682787	-0.024534	-0.055363
C129	C	2.016120	0.308799	0.277970
C130	C	1.073251	-0.357772	-0.598941
C131	C	1.406584	-0.024438	-0.265607
C132	C	1.739917	0.308895	0.067726
C133	C	1.073271	-0.357748	-0.688562
C134	C	1.406604	-0.024415	-0.355229
C135	C	1.739938	0.308919	-0.021895
C136	C	1.073313	-0.164121	-0.388663
C137	C	1.406646	0.169212	-0.055329
C138	C	1.739979	0.502545	0.278004
C139	C	1.073359	-0.081576	-0.388676
C140	C	1.406693	0.251758	-0.055343
C141	C	1.740026	0.585091	0.277991
C142	C	1.073305	-0.357665	-1.016738
C143	C	1.406639	-0.024332	-0.683404
C144	C	1.739972	0.309002	-0.350071
C145	C	1.073294	-0.357690	-0.925429
C146	C	1.406627	-0.024357	-0.592096
C147	C	1.739960	0.308976	-0.258763
C148	C	1.073289	-0.357707	-0.852653
C149	C	1.406622	-0.024374	-0.519319
C150	C	1.739955	0.308960	-0.185986
C151	C	1.073276	-0.357731	-0.761338
C152	C	1.406610	-0.024398	-0.428005
C153	C	1.739943	0.308935	-0.094672
C154	C	1.073197	-0.357828	-0.179141
C155	C	1.406530	-0.024495	0.154192
C156	C	1.739864	0.308838	0.487526
C157	C	1.073320	-0.357643	-0.089520
C158	C	1.406654	-0.024310	0.243813
C159	C	1.739987	0.309024	0.577146
H160	H	0.619902	-0.266195	-0.289346
H161	H	0.953235	0.067138	0.043987
H162	H	1.286568	0.400472	0.377320
H163	H	0.527208	-0.232849	-0.425193
H164	H	0.860541	0.100484	-0.091860
H165	H	1.193874	0.433818	0.241474
H166	H	1.164881	-0.903615	-0.289244
H167	H	1.498215	-0.570281	0.044089
H168	H	1.831548	-0.236948	0.377422
C169	C	0.966828	-0.803519	-0.503860
C170	C	1.300162	-0.470185	-0.170527
C171	C	1.633495	-0.136852	0.162806
N172	N	0.924068	-0.781476	-0.550097
N173	N	1.257402	-0.448142	-0.216763
N174	N	1.590735	-0.114809	0.116570
H175	H	0.619817	-0.482890	-0.351917
H176	H	0.953150	-0.149557	-0.018584
H177	H	1.286483	0.183776	0.314750
C178	C	0.519854	-0.464382	-0.503845
C179	C	0.853188	-0.131049	-0.170512
C180	C	1.186521	0.202284	0.162822
N181	N	0.497950	-0.507183	-0.550115
N182	N	0.831283	-0.173850	-0.216781
N183	N	1.164617	0.159484	0.116552
C184	C	0.928125	-0.911621	-0.346291
C185	C	1.261458	-0.578287	-0.012958
C186	C	1.594792	-0.244954	0.320376
N187	N	0.869850	-0.933762	-0.329275
N188	N	1.203184	-0.600429	0.004058
N189	N	1.536517	-0.267095	0.337392
H190	H	1.039692	-0.811248	-0.252792
H191	H	1.373026	-0.477914	0.080542
H192	H	1.706359	-0.144581	0.413875
H193	H	0.620093	-0.324474	-0.524420
H194	H	0.953426	0.008859	-0.191087
H195	H	1.286759	0.342193	0.142246
C196	C	1.218310	-0.803245	-0.431066
C197	C	1.551643	-0.469912	-0.097733
C198	C	1.884977	-0.136578	0.235601
N199	N	1.276561	-0.781070	-0.448127
N200	N	1.609894	-0.447736	-0.114793
N201	N	1.943227	-0.114403	0.218540
H202	H	0.527083	-0.391175	-0.252802
H203	H	0.860416	-0.057841	0.080531
H204	H	1.193750	0.275492	0.413865
C205	C	1.112049	-0.911345	-0.546299
C206	C	1.445382	-0.578011	-0.212965
C207	C	1.778716	-0.244678	0.120368
N208	N	1.127629	-0.933372	-0.609616
N209	N	1.460963	-0.600038	-0.276283
N210	N	1.794296	-0.266705	0.057050
