data_functionalizedCrystal
_audit_creation_method	'MofGen! by Chris Wilmer'
_symmetry_space_group_name_H-M	'P1'
_symmetry_Int_Tables_number	1
_symmetry_cell_setting	triclinic
loop_
_symmetry_equiv_pos_as_xyz
  x,y,z
_cell_length_a	17.077404
_cell_length_b	11.169416
_cell_length_c	11.169409
_cell_angle_alpha	89.969126
_cell_angle_beta	89.976924
_cell_angle_gamma	90.010565
loop_
_atom_site_label
_atom_site_type_symbol
_atom_site_fract_x
_atom_site_fract_y
_atom_site_fract_z
Zn1	Zn	1.200151	-0.477703	-0.678659
Zn2	Zn	1.700151	0.022297	-0.178659
Zn3	Zn	1.200078	-0.678443	-0.477981
Zn4	Zn	1.700078	-0.178443	0.022019
Zn5	Zn	1.068874	-0.477774	-0.477982
Zn6	Zn	1.568874	0.022226	0.022018
Zn7	Zn	1.068879	-0.678343	-0.678615
Zn8	Zn	1.568879	-0.178343	-0.178615
O9	O	1.134496	-0.578066	-0.578309
O10	O	1.634496	-0.078066	-0.078309
O11	O	1.309988	-0.504344	-0.652057
O12	O	1.809988	-0.004344	-0.152057
O13	O	1.182642	-0.651895	-0.310031
O14	O	1.682642	-0.151895	0.189969
O15	O	1.086317	-0.309814	-0.504621
O16	O	1.586317	0.190186	-0.004621
O17	O	1.309935	-0.651827	-0.504620
O18	O	1.809935	-0.151827	-0.004620
O19	O	1.182765	-0.309762	-0.652058
O20	O	1.682765	0.190238	-0.152058
O21	O	1.086247	-0.504464	-0.310032
O22	O	1.586247	-0.004464	0.189968
O23	O	0.959028	-0.504367	-0.504578
O24	O	1.459028	-0.004367	-0.004578
O25	O	1.086325	-0.651656	-0.846570
O26	O	1.586325	-0.151656	-0.346570
O27	O	0.959032	-0.651725	-0.651982
O28	O	1.459032	-0.151725	-0.151982
O29	O	1.182770	-0.504247	-0.846603
O30	O	1.682770	-0.004247	-0.346603
O31	O	1.182646	-0.846380	-0.504577
O32	O	1.682646	-0.346380	-0.004577
O33	O	1.086255	-0.846306	-0.651981
O34	O	1.586255	-0.346306	-0.151981
C35	C	0.930548	-0.578044	-0.578276
C36	C	1.430548	-0.078044	-0.078276
C37	C	0.843298	-0.578064	-0.578290
C38	C	1.343298	-0.078064	-0.078290
C39	C	0.802330	-0.654908	-0.654920
C40	C	1.302330	-0.154908	-0.154920
C41	C	0.720350	-0.654911	-0.654940
C42	C	1.220350	-0.154911	-0.154940
C43	C	0.679339	-0.578074	-0.578322
C44	C	1.179339	-0.078074	-0.078322
C45	C	0.720312	-0.501220	-0.501688
C46	C	1.220312	-0.001220	-0.001688
C47	C	0.802291	-0.501213	-0.501676
C48	C	1.302291	-0.001213	-0.001676
C49	C	0.549442	-0.501244	-0.501717
C50	C	1.049442	-0.001244	-0.001717
C51	C	0.467457	-0.501253	-0.501728
C52	C	0.967457	-0.001253	-0.001728
C53	C	0.467501	-0.654942	-0.654981
C54	C	0.967501	-0.154942	-0.154981
C55	C	0.549480	-0.654935	-0.654969
C56	C	1.049480	-0.154935	-0.154969
C57	C	0.590448	-0.578083	-0.578333
C58	C	1.090448	-0.078083	-0.078333
C59	C	1.134465	-0.889890	-0.578300
C60	C	1.634465	-0.389890	-0.078300
C61	C	1.134523	-1.023290	-0.578336
C62	C	1.634523	-0.523290	-0.078336
C63	C	1.339240	-0.578088	-0.578343
C64	C	1.839240	-0.078088	-0.078343
C65	C	1.426490	-0.578098	-0.578358
C66	C	1.926490	-0.078098	-0.078358
C67	C	1.134556	-0.577932	-0.891352
C68	C	1.634556	-0.077932	-0.391352
C69	C	1.134582	-0.577876	-1.024752
C70	C	1.634582	-0.077876	-0.524752
C71	C	1.134548	-0.265023	-0.578345
C72	C	1.634548	0.234977	-0.078345
C73	C	1.134571	-0.131623	-0.578360
C74	C	1.634571	0.368377	-0.078360
C75	C	1.134481	-0.578112	-0.266484
C76	C	1.634481	-0.078112	0.233516
C77	C	1.134607	-0.577831	-0.133085
C78	C	1.634607	-0.077831	0.366915
H79	H	0.582869	-0.717509	-0.717351
H80	H	1.082869	-0.217509	-0.217351
C81	C	0.847439	-0.739436	-0.739191
C82	C	1.347439	-0.239436	-0.239191
H83	H	0.902131	-0.728438	-0.728202
H84	H	1.402131	-0.228438	-0.228202
H85	H	0.834034	-0.721972	-0.819864
H86	H	1.334034	-0.221972	-0.319864
H87	H	0.833988	-0.820058	-0.721479
H88	H	1.333988	-0.320058	-0.221479
C89	C	0.422343	-0.416747	-0.417443
C90	C	0.922343	0.083253	0.082557
H91	H	0.367652	-0.427776	-0.428414
H92	H	0.867652	0.072224	0.071586
H93	H	0.435780	-0.336121	-0.435130
H94	H	0.935780	0.163879	0.064870
H95	H	0.435755	-0.434233	-0.336771
H96	H	0.935755	0.065767	0.163229
H97	H	0.686998	-0.717487	-0.717338
H98	H	1.186998	-0.217487	-0.217338
H99	H	0.434141	-0.717515	-0.717384
H100	H	0.934141	-0.217515	-0.217384
H101	H	0.582796	-0.438652	-0.439323
H102	H	1.082796	0.061348	0.060677
C103	C	0.675206	-0.416696	-0.417411
C104	C	1.175206	0.083304	0.082589
H105	H	0.711348	-0.370921	-0.371779
H106	H	1.211348	0.129079	0.128221
H107	H	0.643205	-0.462548	-0.365044
H108	H	1.143205	0.037452	0.134956
H109	H	0.643246	-0.364455	-0.463422
H110	H	1.143246	0.135545	0.036578
H111	H	0.835646	-0.438631	-0.439282
H112	H	1.335646	0.061369	0.060718
