data_functionalizedCrystal
_audit_creation_method	'MofGen! by Chris Wilmer'
_symmetry_space_group_name_H-M	'P1'
_symmetry_Int_Tables_number	1
_symmetry_cell_setting	triclinic
loop_
_symmetry_equiv_pos_as_xyz
  x,y,z
_cell_length_a	16.974810
_cell_length_b	9.130313
_cell_length_c	10.654550
_cell_angle_alpha	90.000110
_cell_angle_beta	96.062816
_cell_angle_gamma	93.656860
loop_
_atom_site_label
_atom_site_type_symbol
_atom_site_fract_x
_atom_site_fract_y
_atom_site_fract_z
O1	O	-1.050024	-0.002724	0.159996
O2	O	-0.819928	0.024565	0.180395
O3	O	-0.940266	0.010288	-0.012626
O4	O	-0.929686	0.011553	0.353017
O5	O	-0.940265	-0.233311	-0.012621
O6	O	-0.819927	-0.219034	0.180400
O7	O	-1.050022	-0.246323	0.160001
Cu8	Cu	-0.934974	-0.254921	0.170201
Cu9	Cu	-0.934976	0.033163	0.170195
O10	O	-0.929684	-0.232045	0.353023
C11	C	-0.790465	-0.093740	0.179624
C12	C	-0.702675	-0.083328	0.177303
C13	C	-0.661435	-0.211226	0.176212
C14	C	-0.578949	-0.201447	0.174011
C15	C	-0.537703	-0.063770	0.172910
C16	C	-0.578949	0.064137	0.173997
C17	C	-0.661435	0.054357	0.176189
C18	C	-0.291009	-0.020281	0.166346
C19	C	-0.208517	-0.010510	0.164158
C20	C	-0.208523	-0.276096	0.164170
C21	C	-0.291009	-0.285864	0.166369
C22	C	-0.332248	-0.157957	0.167449
N23	N	-0.453389	-0.053771	0.170664
N24	N	-0.416562	-0.167957	0.169686
N25	N	-0.934979	-0.457544	0.170205
C26	C	-0.988278	-0.540519	0.084764
C27	C	-0.988276	-0.693856	0.084749
C28	C	-0.881673	-0.681228	0.255627
C29	C	-0.881671	-0.527893	0.255635
C30	C	-1.049828	-0.547812	-0.013888
C31	C	-1.049825	-0.701149	-0.013903
C32	C	-0.079486	-0.128012	0.160766
C33	C	-0.167277	-0.138408	0.163067
C34	C	-0.939489	-0.111418	-0.059410
C35	C	-0.937164	-0.111137	-0.198817
N36	N	-0.934978	0.235785	0.170182
C37	C	-1.008017	-0.119545	-0.279409
C38	C	-1.005829	-0.119275	-0.410395
C39	C	-0.861927	-0.102195	-0.380185
C40	C	-0.864117	-0.102455	-0.249201
C41	C	-1.091098	-0.129412	-0.296852
C42	C	-1.088909	-0.129142	-0.427838
C43	C	-0.930462	-0.110337	0.399806
C44	C	-0.932786	-0.110608	0.539213
H45	H	-0.174937	0.101609	0.163265
H46	H	-1.036328	-0.504594	-0.110210
H47	H	-1.117553	-0.237730	-0.261636
H48	H	-0.838271	-0.738523	0.325181
H49	H	-1.107234	-0.507061	0.015804
H50	H	-1.030615	-0.746420	-0.104826
C51	C	-1.210225	-0.281163	-0.457658
C52	C	-1.131153	-0.271774	-0.484886
H53	H	-1.236298	-0.369220	-0.492874
H54	H	-1.236299	-0.199311	-0.492853
H55	H	-1.211700	-0.281349	-0.368779
H56	H	-1.129677	-0.271577	-0.573767
H57	H	-1.105071	-0.353648	-0.449697
C58	C	-1.181595	-0.653687	0.030721
C59	C	-1.131848	-0.767071	0.013858
H60	H	-1.232228	-0.694388	0.047865
H61	H	-1.187208	-0.596551	-0.043810
H62	H	-1.159092	-0.593240	0.099561
H63	H	-1.154348	-0.827512	-0.054988
H64	H	-1.126237	-0.824231	0.088398
H65	H	-0.806421	-0.095588	-0.183586
H66	H	-0.802455	-0.095125	-0.421224
H67	H	-0.174937	-0.380231	0.163288
H68	H	-0.695011	-0.323338	0.177119
H69	H	-0.545361	0.176238	0.173092
H70	H	-1.114018	-0.026940	-0.473876
C71	C	-0.587238	-0.464945	0.174270
C72	C	-0.533617	-0.342037	0.172825
H73	H	-0.559250	-0.551741	0.173545
H74	H	-0.625040	-0.463915	0.101933
H75	H	-0.613779	-0.462542	0.248327
H76	H	-0.507080	-0.344434	0.098763
H77	H	-0.495801	-0.343068	0.245169
C78	C	-0.282727	-0.547403	0.166152
C79	C	-0.336344	-0.437204	0.167576
H80	H	-0.310717	-0.640833	0.166894
H81	H	-0.244924	-0.537393	0.238487
H82	H	-0.256186	-0.538730	0.092093
H83	H	-0.362881	-0.445871	0.241640
H84	H	-0.374161	-0.447219	0.095233
C85	C	-1.159366	0.083580	-0.365275
C86	C	-1.134958	0.003002	-0.257892
H87	H	-1.186437	0.165329	-0.341218
H88	H	-1.193966	0.022839	-0.422077
H89	H	-1.114244	0.117240	-0.405342
H90	H	-1.180081	-0.030667	-0.217830
H91	H	-1.100356	0.063754	-0.201069
H92	H	-0.324576	0.083870	0.167222
C93	C	-0.678535	0.278695	0.284773
C94	C	-0.706771	0.194942	0.177400
H95	H	-0.706529	0.365483	0.285519
H96	H	-0.623516	0.304225	0.283301
H97	H	-0.686426	0.223182	0.358320
H98	H	-0.698876	0.250452	0.103852
H99	H	-0.761804	0.169415	0.178861
C100	C	-0.776294	-0.530819	0.424529
C101	C	-0.823078	-0.436685	0.349547
H102	H	-0.740123	-0.474507	0.482511
H103	H	-0.747576	-0.587213	0.372268
H104	H	-0.809457	-0.594562	0.469676
H105	H	-0.789916	-0.372948	0.304392
H106	H	-0.851799	-0.380266	0.401814
