data_functionalizedCrystal
_audit_creation_method	'MofGen! by Chris Wilmer'
_symmetry_space_group_name_H-M	'P1'
_symmetry_Int_Tables_number	1
_symmetry_cell_setting	triclinic
loop_
_symmetry_equiv_pos_as_xyz
  x,y,z
_cell_length_a	6.817900
_cell_length_b	10.992723
_cell_length_c	16.305550
_cell_angle_alpha	93.824391
_cell_angle_beta	103.455250
_cell_angle_gamma	108.770285
loop_
_atom_site_label
_atom_site_type_symbol
_atom_site_fract_x
_atom_site_fract_y
_atom_site_fract_z
V1	V	-4.053454	-0.178847	-0.263024
O2	O	-4.012703	0.007479	-0.258025
O3	O	-4.031483	-0.353550	-0.261218
O4	O	-4.004516	-0.176585	-0.377741
O5	O	-4.039857	-0.170711	-0.140695
V6	V	-4.533727	-0.156502	-0.248393
O7	O	-4.321842	-0.227861	-0.295118
O8	O	-4.715537	-0.107488	-0.216300
O9	O	-4.332492	0.018201	-0.250199
O10	O	-4.691875	-0.342828	-0.253393
O11	O	-4.664721	-0.164638	-0.370723
O12	O	-4.359459	-0.158764	-0.133676
C13	C	-3.882931	-0.396124	-0.257067
C14	C	-3.946250	-0.538949	-0.256354
C15	C	-4.257314	-0.749906	-0.260105
C16	C	-4.191791	-0.601430	-0.261172
C17	C	-3.905254	-0.608483	-0.334491
C18	C	-3.972567	-0.757154	-0.333847
C19	C	-3.878486	-0.718215	-0.172572
C20	C	-3.816186	-0.569493	-0.172342
C21	C	-3.848530	-0.170386	-0.405703
C22	C	-3.889977	-0.169693	-0.499484
C23	C	-4.040655	-0.167008	-0.840230
C24	C	-3.803394	-0.159035	-0.799302
C25	C	-3.760391	-0.160288	-0.701807
C26	C	-3.965900	-0.168339	-0.671182
C27	C	-4.152237	-0.295228	-0.721803
C28	C	-4.193991	-0.294510	-0.819353
C29	C	-4.077474	-0.049105	-0.794392
C30	C	-4.029391	-0.048101	-0.696549
C31	C	-3.923666	-0.169096	-0.575644
C32	C	-4.082900	-0.166260	-0.935769
C33	C	-4.144387	0.060768	-0.254348
C34	C	-4.060306	0.203592	-0.255066
C35	C	-4.178787	-0.164967	-0.105710
C36	C	-4.116578	-0.165654	-0.011928
H37	H	-3.635511	-0.525379	-0.163921
H38	H	-4.306988	-0.305708	-0.702890
H39	H	-3.730751	-0.747391	-0.168105
H40	H	-4.327856	-0.774840	-0.203924
H41	H	-4.369521	-0.305638	-0.847344
H42	H	-4.110386	-0.384507	-0.704987
H43	H	-4.392369	-0.804288	-0.319620
H44	H	-3.971446	0.047037	-0.807763
H45	H	-4.295097	-0.583033	-0.321461
H46	H	-4.099657	-0.809232	-0.395967
H47	H	-3.707001	-0.245973	-0.685510
H48	H	-4.171425	-0.383766	-0.849730
H49	H	-3.894066	0.045753	-0.662175
H50	H	-4.176439	-0.046522	-0.675201
H51	H	-3.931811	-0.743425	-0.112670
H52	H	-3.828212	-0.788185	-0.333631
H53	H	-4.229608	-0.554050	-0.205324
H54	H	-3.728505	-0.568044	-0.333934
H55	H	-3.683311	-0.067372	-0.811669
H56	H	-3.998565	-0.588554	-0.396659
H57	H	-4.250255	-0.053817	-0.821207
H58	H	-3.847406	-0.522660	-0.114487
H59	H	-3.620014	-0.069056	-0.666787
H60	H	-3.771191	-0.243743	-0.830810
