data_functionalizedCrystal
_audit_creation_method	'MofGen! by Chris Wilmer'
_symmetry_space_group_name_H-M	'P1'
_symmetry_Int_Tables_number	1
_symmetry_cell_setting	triclinic
loop_
_symmetry_equiv_pos_as_xyz
  x,y,z
_cell_length_a	18.215407
_cell_length_b	18.215405
_cell_length_c	18.215399
_cell_angle_alpha	90.029420
_cell_angle_beta	90.017368
_cell_angle_gamma	90.021264
loop_
_atom_site_label
_atom_site_type_symbol
_atom_site_fract_x
_atom_site_fract_y
_atom_site_fract_z
Zn1	Zn	1.125077	-0.293042	0.416060
Zn2	Zn	1.124988	-0.416113	0.292990
Zn3	Zn	1.002010	-0.293060	0.293013
Zn4	Zn	1.001978	-0.416066	0.416021
O5	O	1.063513	-0.354570	0.354521
O6	O	1.228050	-0.309380	0.399742
O7	O	1.108651	-0.399817	0.190009
O8	O	1.018386	-0.190073	0.309361
O9	O	1.227984	-0.399800	0.309323
O10	O	1.108803	-0.190060	0.399763
O11	O	1.018299	-0.309410	0.190025
O12	O	0.899021	-0.309364	0.309323
O13	O	1.018332	-0.399719	0.519010
O14	O	0.898998	-0.399736	0.399696
O15	O	1.108772	-0.309334	0.519039
O16	O	1.108620	-0.519091	0.309285
O17	O	1.018245	-0.519056	0.399675
C18	C	0.872307	-0.354548	0.354508
C19	C	0.790508	-0.354556	0.354520
C20	C	0.602347	-0.307571	0.401675
C21	C	0.525489	-0.307577	0.401678
C22	C	0.525431	-0.401590	0.307379
C23	C	0.602289	-0.401580	0.307374
C24	C	0.640745	-0.354571	0.354526
C25	C	0.487029	-0.354588	0.354534
C26	C	0.403695	-0.354595	0.354536
C27	C	0.724084	-0.354563	0.354523
C28	C	1.063439	-0.545777	0.354489
C29	C	1.063475	-0.627575	0.354500
C30	C	1.110671	-0.892627	0.307534
C31	C	1.110641	-0.815768	0.307517
C32	C	1.016447	-0.815773	0.401558
C33	C	1.016474	-0.892630	0.401570
C34	C	1.063590	-0.931055	0.354559
C35	C	1.063533	-0.777339	0.354530
C36	C	1.063500	-0.694005	0.354512
C37	C	1.063623	-1.014394	0.354576
C38	C	1.255466	-0.354593	0.354534
C39	C	1.337265	-0.354603	0.354540
C40	C	1.063558	-0.354519	0.546474
C41	C	1.063577	-0.354498	0.628273
C42	C	1.063608	-0.162617	0.354569
C43	C	1.063648	-0.080818	0.354589
C44	C	1.063511	-0.354568	0.163315
C45	C	1.063635	-0.354382	0.081516
C46	C	1.110687	-0.307390	0.816483
C47	C	1.110695	-0.307369	0.893342
C48	C	1.016520	-0.401492	0.893301
C49	C	1.016508	-0.401509	0.816443
C50	C	1.063596	-0.354459	0.778036
C51	C	1.063616	-0.354421	0.931753
C52	C	1.063625	-0.354398	1.015086
C53	C	1.063586	-0.354481	0.694697
H54	H	0.633553	-0.439854	0.268975
H55	H	0.494229	-0.269304	0.440070
H56	H	0.978087	-0.784479	0.439834
H57	H	1.149035	-0.923910	0.269254
O58	O	1.156307	-0.778325	0.261861
C59	C	1.146194	-0.702249	0.271938
H60	H	1.089379	-0.691776	0.295983
H61	H	1.151212	-0.673075	0.216812
H62	H	1.189811	-0.680377	0.311167
H63	H	0.978156	-0.439837	0.785139
H64	H	0.978132	-0.923919	0.439866
O65	O	1.156444	-0.261614	0.779288
C66	C	1.198021	-0.220078	0.829707
H67	H	1.167886	-0.217517	0.884490
H68	H	1.205892	-0.162100	0.807520
H69	H	1.253904	-0.247028	0.837882
O70	O	0.639784	-0.261868	0.447371
C71	C	0.684224	-0.214265	0.405552
H72	H	0.695714	-0.240151	0.349735
H73	H	0.738282	-0.204431	0.435543
H74	H	0.654612	-0.159723	0.397562
O75	O	0.487960	-0.447233	0.261652
C76	C	0.411889	-0.437153	0.271754
H77	H	0.401419	-0.413123	0.328592
H78	H	0.382666	-0.492276	0.266669
H79	H	0.390070	-0.397912	0.228173
O80	O	1.156335	-0.261566	0.930719
C81	C	1.114464	-0.214029	0.975193
H82	H	1.056500	-0.209487	0.952023
H83	H	1.141105	-0.157394	0.976079
H84	H	1.111928	-0.236763	1.033437
O85	O	0.970855	-0.447173	0.930724
C86	C	0.980950	-0.437054	1.006805
H87	H	1.037757	-0.412955	1.017318
H88	H	0.975937	-0.492172	1.035998
H89	H	0.937319	-0.397855	1.028622
