data_functionalizedCrystal
_audit_creation_method	'MofGen! by Chris Wilmer'
_symmetry_space_group_name_H-M	'P1'
_symmetry_Int_Tables_number	1
_symmetry_cell_setting	triclinic
loop_
_symmetry_equiv_pos_as_xyz
  x,y,z
_cell_length_a	13.032891
_cell_length_b	13.032721
_cell_length_c	19.805398
_cell_angle_alpha	97.154074
_cell_angle_beta	82.816630
_cell_angle_gamma	90.903621
loop_
_atom_site_label
_atom_site_type_symbol
_atom_site_fract_x
_atom_site_fract_y
_atom_site_fract_z
Zn1	Zn	1.520133	-0.609392	-0.557643
Zn2	Zn	2.020133	-0.109392	-0.057643
Zn3	Zn	1.498194	-0.781364	-0.456799
Zn4	Zn	1.998194	-0.281364	0.043201
Zn5	Zn	1.348176	-0.587554	-0.428554
Zn6	Zn	1.848176	-0.087554	0.071446
Zn7	Zn	1.326283	-0.759441	-0.554029
Zn8	Zn	1.826283	-0.259441	-0.054029
O9	O	1.423197	-0.684438	-0.499256
O10	O	1.923197	-0.184438	0.000744
O11	O	1.661133	-0.650519	-0.557598
O12	O	2.161133	-0.150519	-0.057598
O13	O	1.478274	-0.755690	-0.358337
O14	O	1.978274	-0.255690	0.141663
O15	O	1.389331	-0.446544	-0.435369
O16	O	1.889331	0.053456	0.064631
O17	O	1.645014	-0.776866	-0.483509
O18	O	2.145014	-0.276866	0.016491
O19	O	1.515667	-0.462589	-0.530210
O20	O	2.015667	0.037411	-0.030210
O21	O	1.368057	-0.613299	-0.337585
O22	O	1.868057	-0.113299	0.162415
O23	O	1.201362	-0.592041	-0.431866
O24	O	1.701362	-0.092041	0.068134
O25	O	1.352017	-0.739501	-0.649224
O26	O	1.852017	-0.239501	-0.149224
O27	O	1.185277	-0.718326	-0.524052
O28	O	1.685277	-0.218326	-0.024052
O29	O	1.494438	-0.629261	-0.651879
O30	O	1.994438	-0.129261	-0.151879
O31	O	1.457046	-0.922362	-0.480005
O32	O	1.957046	-0.422362	0.019995
O33	O	1.330744	-0.906256	-0.551440
O34	O	1.830744	-0.406256	-0.051440
C35	C	1.156005	-0.650435	-0.474502
C36	C	1.656005	-0.150435	0.025498
C37	C	1.041696	-0.635914	-0.463930
C38	C	1.541696	-0.135914	0.036070
C39	C	0.864646	-0.677014	-0.493854
C40	C	1.364646	-0.177014	0.006146
C41	C	0.982789	-0.692028	-0.504779
C42	C	1.482789	-0.192028	-0.004779
C43	C	1.389166	-0.951626	-0.518413
C44	C	1.889166	-0.451626	-0.018413
C45	C	1.374702	-1.065942	-0.526639
C46	C	1.874702	-0.565942	-0.026639
C47	C	1.430800	-1.124849	-0.494998
C48	C	1.930800	-0.624849	0.005002
C49	C	1.415852	-1.243001	-0.503500
C50	C	1.915852	-0.743001	-0.003500
C51	C	1.691431	-0.718574	-0.524107
C52	C	2.191431	-0.218574	-0.024107
C53	C	1.805737	-0.733120	-0.534698
C54	C	2.305737	-0.233120	-0.034698
C55	C	1.423233	-0.684372	-0.675796
C56	C	1.923233	-0.184372	-0.175796
C57	C	1.423248	-0.684343	-0.751027
C58	C	1.923248	-0.184343	-0.251027
C59	C	1.457388	-0.416210	-0.480042
C60	C	1.957388	0.083790	0.019958
C61	C	1.471958	-0.301907	-0.471855
C62	C	1.971958	0.198093	0.028145
C63	C	1.480822	-0.758344	-1.223625
C64	C	1.980822	-0.258344	-0.723625
C65	C	1.480790	-0.758368	-1.152936
C66	C	1.980790	-0.258368	-0.652936
C67	C	1.423391	-0.684244	-1.106793
C68	C	1.923391	-0.184244	-0.606793
C69	C	1.366012	-0.610097	-1.131342
C70	C	1.866012	-0.110097	-0.631342
C71	C	1.366039	-0.610078	-1.202030
C72	C	1.866039	-0.110078	-0.702030
C73	C	1.365902	-0.610172	-0.846266
C74	C	1.865902	-0.110172	-0.346266
C75	C	1.365882	-0.610195	-0.775574
C76	C	1.865882	-0.110195	-0.275574
C77	C	1.480652	-0.758462	-0.797172
C78	C	1.980652	-0.258462	-0.297172
C79	C	1.480679	-0.758444	-0.867859
C80	C	1.980679	-0.258444	-0.367859
C81	C	1.423296	-0.684300	-0.892402
C82	C	1.923296	-0.184300	-0.392402
C83	C	1.423330	-0.684276	-0.969052
C84	C	1.923330	-0.184276	-0.469052
C85	C	1.423362	-0.684263	-1.030145
C86	C	1.923362	-0.184263	-0.530145
C87	C	1.423229	-0.684437	-0.323403
C88	C	1.923229	-0.184437	0.176597
C89	C	1.423450	-0.684201	-0.248170
C90	C	1.923450	-0.184201	0.251830
H91	H	0.842769	-0.792265	-0.577757
H92	H	1.342769	-0.292265	-0.077757
H93	H	0.827615	-0.617860	-0.450799
H94	H	1.327615	-0.117860	0.049201
C95	C	1.551799	-1.251894	-0.426754
C96	C	2.051799	-0.751894	0.073246
H97	H	1.585061	-1.304176	-0.408010
H98	H	2.085061	-0.804176	0.091990
H99	H	1.517752	-1.205043	-0.390611
H100	H	2.017752	-0.705043	0.109389
H101	H	1.601857	-1.215620	-0.453826
H102	H	2.101857	-0.715620	0.046174
H103	H	1.019817	-0.751177	-0.547842
H104	H	1.519817	-0.251177	-0.047842
H105	H	1.319322	-0.549702	-1.222012
H106	H	1.819322	-0.049702	-0.722012
C107	C	0.991689	-0.555990	-0.405766
C108	C	1.491689	-0.055990	0.094234
H109	H	0.918844	-0.556381	-0.406052
H110	H	1.418844	-0.056381	0.093948
H111	H	1.018050	-0.489133	-0.412412
H112	H	1.518050	0.010867	0.087588
H113	H	1.007310	-0.573160	-0.362950
H114	H	1.507310	-0.073160	0.137050
C115	C	1.336015	-1.293022	-0.548601
C116	C	1.836015	-0.793022	-0.048601
H117	H	1.336437	-1.365871	-0.548395
H118	H	1.836437	-0.865871	-0.048395
H119	H	1.353226	-1.277316	-0.594217
H120	H	1.853226	-0.777316	-0.094217
H121	H	1.269121	-1.266750	-0.531003
H122	H	1.769121	-0.766750	-0.031003
H123	H	1.489899	-1.087814	-0.461618
H124	H	1.989899	-0.587814	0.038382
C125	C	1.543896	-0.839924	-1.125936
C126	C	2.043896	-0.339924	-0.625936
H127	H	1.535651	-0.829330	-1.077228
H128	H	2.035651	-0.329330	-0.577228
H129	H	1.614916	-0.833664	-1.142836
H130	H	2.114916	-0.333664	-0.642836
H131	H	1.520036	-0.907103	-1.141077
H132	H	2.020036	-0.407103	-0.641077
H133	H	1.315611	-1.102981	-0.560025
H134	H	1.815611	-0.602981	-0.060025
H135	H	1.527568	-0.818700	-1.261191
H136	H	2.027568	-0.318700	-0.761191
C137	C	1.543814	-0.839982	-0.918613
C138	C	2.043814	-0.339982	-0.418613
H139	H	1.577971	-0.884151	-0.893870
H140	H	2.077971	-0.384151	-0.393870
H141	H	1.593647	-0.806343	-0.947522
H142	H	2.093647	-0.306343	-0.447522
H143	H	1.498762	-0.879776	-0.945751
H144	H	1.998762	-0.379776	-0.445751
C145	C	1.302727	-0.528665	-0.724817
C146	C	1.802727	-0.028665	-0.224817
H147	H	1.268545	-0.484512	-0.749557
H148	H	1.768545	0.015488	-0.249557
H149	H	1.347759	-0.488866	-0.697672
H150	H	1.847759	0.011134	-0.197672
H151	H	1.252897	-0.562328	-0.695914
H152	H	1.752897	-0.062328	-0.195914
H153	H	1.319175	-0.549801	-0.866239
H154	H	1.819175	-0.049801	-0.366239
C155	C	1.543761	-0.840030	-0.770172
C156	C	2.043761	-0.340030	-0.270172
H157	H	1.535518	-0.829436	-0.721465
H158	H	2.035518	-0.329436	-0.221465
H159	H	1.614781	-0.833769	-0.787075
H160	H	2.114781	-0.333769	-0.287075
H161	H	1.519901	-0.907208	-0.785314
H162	H	2.019901	-0.407208	-0.285314
C163	C	1.302877	-0.528560	-1.080587
C164	C	1.802877	-0.028560	-0.580587
H165	H	1.311086	-0.539182	-1.034972
H166	H	1.811086	-0.039182	-0.534972
H167	H	1.231865	-0.534810	-1.086851
H168	H	1.731865	-0.034810	-0.586851
H169	H	1.326748	-0.461375	-1.088621
H170	H	1.826748	0.038625	-0.588621
