data_functionalizedCrystal
_audit_creation_method	'MofGen! by Chris Wilmer'
_symmetry_space_group_name_H-M	'P1'
_symmetry_Int_Tables_number	1
_symmetry_cell_setting	triclinic
loop_
_symmetry_equiv_pos_as_xyz
  x,y,z
_cell_length_a	25.639239
_cell_length_b	25.639242
_cell_length_c	25.639234
_cell_angle_alpha	90.030783
_cell_angle_beta	89.975095
_cell_angle_gamma	89.966288
loop_
_atom_site_label
_atom_site_type_symbol
_atom_site_fract_x
_atom_site_fract_y
_atom_site_fract_z
Zn1	Zn	-0.208252	-0.799262	-0.295762
Zn2	Zn	0.291748	-0.299262	0.204238
Zn3	Zn	-0.295680	-0.799175	-0.208327
Zn4	Zn	0.204320	-0.299175	0.291673
Zn5	Zn	-0.208253	-0.711828	-0.208324
Zn6	Zn	0.291747	-0.211828	0.291676
Zn7	Zn	-0.295651	-0.711784	-0.295714
Zn8	Zn	0.204349	-0.211784	0.204286
O9	O	-0.251959	-0.755512	-0.252032
O10	O	0.248041	-0.255512	0.247968
O11	O	-0.219861	-0.872416	-0.284185
O12	O	0.280139	-0.372416	0.215815
O13	O	-0.284096	-0.787570	-0.135161
O14	O	0.215904	-0.287570	0.364839
O15	O	-0.135088	-0.723481	-0.219942
O16	O	0.364912	-0.223481	0.280058
O17	O	-0.284095	-0.872351	-0.219946
O18	O	0.215905	-0.372351	0.280054
O19	O	-0.135087	-0.787719	-0.284182
O20	O	0.364913	-0.287719	0.215818
O21	O	-0.219863	-0.723396	-0.135159
O22	O	0.280137	-0.223396	0.364841
O23	O	-0.219835	-0.638656	-0.219896
O24	O	0.280165	-0.138656	0.280104
O25	O	-0.284044	-0.723406	-0.368886
O26	O	0.215956	-0.223406	0.131114
O27	O	-0.284045	-0.638624	-0.284101
O28	O	0.215955	-0.138624	0.215899
O29	O	-0.219833	-0.787676	-0.368921
O30	O	0.280167	-0.287676	0.131079
O31	O	-0.368841	-0.787527	-0.219900
O32	O	0.131159	-0.287527	0.280100
O33	O	-0.368820	-0.723321	-0.284103
O34	O	0.131180	-0.223321	0.215897
C35	C	-0.251937	-0.619669	-0.251993
C36	C	0.248063	-0.119669	0.248007
C37	C	-0.251940	-0.561555	-0.251989
C38	C	0.248060	-0.061555	0.248011
C39	C	-0.285444	-0.201184	-0.285418
C40	C	0.214556	0.298816	0.214582
C41	C	-0.285447	-0.146580	-0.285425
C42	C	0.214553	0.353420	0.214575
O43	O	-0.313910	-0.118337	-0.313824
O44	O	0.186090	0.381663	0.186176
N45	N	-0.251968	-0.119273	-0.252050
N46	N	0.248032	0.380727	0.247950
C47	C	-0.218480	-0.146573	-0.218670
C48	C	0.281520	0.353427	0.281330
O49	O	-0.190003	-0.118332	-0.190283
O50	O	0.309997	0.381668	0.309717
C51	C	-0.218475	-0.201176	-0.218666
C52	C	0.281525	0.298824	0.281334
C53	C	-0.251960	-0.228481	-0.252039
C54	C	0.248040	0.271519	0.247961
C55	C	-0.318927	-0.228489	-0.318789
C56	C	0.181073	0.271511	0.181211
C57	C	-0.318924	-0.283089	-0.318781
C58	C	0.181076	0.216911	0.181219
C59	C	-0.285440	-0.310385	-0.285402
C60	C	0.214560	0.189615	0.214598
C61	C	-0.251958	-0.283081	-0.252032
C62	C	0.248042	0.216919	0.247968
C63	C	-0.184984	-0.228475	-0.185289
C64	C	0.315016	0.271525	0.314711
C65	C	-0.184982	-0.283082	-0.185288
C66	C	0.315018	0.216918	0.314712
C67	C	-0.218467	-0.310387	-0.218662
C68	C	0.281533	0.189613	0.281338
C69	C	-0.218471	-0.364978	-0.218645
C70	C	0.281529	0.135022	0.281355
N71	N	-0.251951	-0.392285	-0.252020
N72	N	0.248049	0.107715	0.247980
C73	C	-0.285435	-0.364989	-0.285399
C74	C	0.214565	0.135011	0.214601
C75	C	-0.218492	-0.031902	-0.218681
C76	C	0.281508	0.468098	0.281319
C77	C	-0.218499	0.022700	-0.218682
C78	C	0.281501	0.522700	0.281318
C79	C	-0.285466	0.022689	-0.285438
C80	C	0.214534	0.522689	0.214562
C81	C	-0.285461	-0.031914	-0.285434
C82	C	0.214539	0.468086	0.214566
C83	C	-0.251971	-0.059209	-0.252056
C84	C	0.248029	0.440791	0.247944
C85	C	-0.285428	-0.479654	-0.285380
C86	C	0.214572	0.020346	0.214620
C87	C	-0.285425	-0.534259	-0.285367
C88	C	0.214575	-0.034259	0.214633
C89	C	-0.218456	-0.534244	-0.218614
C90	C	0.281544	-0.034244	0.281386
C91	C	-0.218461	-0.479643	-0.218624
C92	C	0.281539	0.020357	0.281376
C93	C	-0.251949	-0.452349	-0.252011
C94	C	0.248051	0.047651	0.247989
O95	O	-0.190021	-0.393256	-0.190262
O96	O	0.309979	0.106744	0.309738
O97	O	-0.313902	-0.393236	-0.313786
O98	O	0.186098	0.106764	0.186214
C99	C	-0.387801	-0.755424	-0.252008
C100	C	0.112199	-0.255424	0.247992
C101	C	-0.445916	-0.755434	-0.252015
C102	C	0.054084	-0.255434	0.247985
C103	C	-0.806277	-0.789031	-0.218658
C104	C	-0.306277	-0.289031	0.281342
C105	C	-0.860882	-0.789051	-0.218665
C106	C	-0.360882	-0.289051	0.281335
O107	O	-0.889117	-0.817526	-0.190277
O108	O	-0.389117	-0.317526	0.309723
N109	N	-0.888198	-0.755604	-0.252066
N110	N	-0.388198	-0.255604	0.247934
C111	C	-0.860907	-0.722138	-0.285467
C112	C	-0.360907	-0.222138	0.214533
O113	O	-0.889156	-0.693690	-0.313878
O114	O	-0.389156	-0.193690	0.186122
C115	C	-0.806304	-0.722120	-0.285462
C116	C	-0.306304	-0.222120	0.214538
C117	C	-0.778990	-0.755566	-0.252055
C118	C	-0.278990	-0.255566	0.247945
C119	C	-0.778964	-0.822475	-0.185254
C120	C	-0.278964	-0.322475	0.314746
C121	C	-0.724363	-0.822454	-0.185246
C122	C	-0.224363	-0.322454	0.314754
C123	C	-0.697076	-0.788989	-0.218643
C124	C	-0.197076	-0.288989	0.281357
C125	C	-0.724390	-0.755545	-0.252047
C126	C	-0.224390	-0.255545	0.247953
C127	C	-0.779014	-0.688657	-0.318865
C128	C	-0.279014	-0.188657	0.181135
C129	C	-0.724407	-0.688643	-0.318857
C130	C	-0.224407	-0.188643	0.181143
C131	C	-0.697094	-0.722089	-0.285450
C132	C	-0.197094	-0.222089	0.214550
C133	C	-0.642502	-0.722059	-0.285436
C134	C	-0.142502	-0.222059	0.214564
N135	N	-0.615186	-0.755507	-0.252035
N136	N	-0.115186	-0.255507	0.247965
C137	C	-0.642473	-0.788972	-0.218638
C138	C	-0.142473	-0.288972	0.281362
C139	C	-0.975578	-0.722177	-0.285475
C140	C	-0.475578	-0.222177	0.214525
C141	C	-1.030180	-0.722191	-0.285477
C142	C	-0.530180	-0.222191	0.214523
C143	C	-1.030151	-0.789106	-0.218676
C144	C	-0.530151	-0.289106	0.281324
C145	C	-0.975547	-0.789089	-0.218671
C146	C	-0.475547	-0.289089	0.281329
C147	C	-0.948261	-0.755625	-0.252073
C148	C	-0.448261	-0.255625	0.247927
C149	C	-0.527808	-0.788925	-0.218625
C150	C	-0.027808	-0.288925	0.281375
C151	C	-0.473202	-0.788899	-0.218618
C152	C	0.026798	-0.288899	0.281382
C153	C	-0.473237	-0.721987	-0.285421
C154	C	0.026763	-0.221987	0.214579
C155	C	-0.527837	-0.722010	-0.285426
C156	C	-0.027837	-0.222010	0.214574
C157	C	-0.555121	-0.755483	-0.252026
C158	C	-0.055121	-0.255483	0.247974
O159	O	-0.614232	-0.693601	-0.313811
O160	O	-0.114232	-0.193601	0.186189
O161	O	-0.614218	-0.817419	-0.190236
O162	O	-0.114218	-0.317419	0.309764
C163	C	-0.115586	-0.755614	-0.252067
C164	C	0.384414	-0.255614	0.247933
C165	C	-0.057472	-0.755658	-0.252082
C166	C	0.442528	-0.255658	0.247918
C167	C	-0.251935	-0.755546	-0.388405
C168	C	0.248065	-0.255546	0.111595
C169	C	-0.251925	-0.755560	-0.446519
C170	C	0.248075	-0.255560	0.053481
C171	C	-0.251979	0.108115	-0.252065
C172	C	0.248021	0.608115	0.247935
C173	C	-0.251982	0.050001	-0.252063
C174	C	0.248018	0.550001	0.247937
C175	C	-0.218417	-0.722160	-0.806887
C176	C	0.281583	-0.222160	-0.306887
C177	C	-0.218407	-0.722163	-0.861491
C178	C	0.281593	-0.222163	-0.361491
O179	O	-0.189975	-0.693738	-0.889732
O180	O	0.310025	-0.193738	-0.389732
N181	N	-0.251843	-0.755578	-0.888802
N182	N	0.248157	-0.255578	-0.388802
C183	C	-0.285294	-0.788989	-0.861505
C184	C	0.214706	-0.288989	-0.361505
O185	O	-0.313733	-0.817411	-0.889749
O186	O	0.186267	-0.317411	-0.389749
C187	C	-0.285306	-0.788983	-0.806902
C188	C	0.214694	-0.288983	-0.306902
C189	C	-0.251864	-0.755569	-0.779594
C190	C	0.248136	-0.255569	-0.279594
C191	C	-0.184978	-0.688749	-0.779579
C192	C	0.315022	-0.188749	-0.279579
C193	C	-0.184987	-0.688747	-0.724978
C194	C	0.315013	-0.188747	-0.224978
C195	C	-0.218435	-0.722156	-0.697686
C196	C	0.281565	-0.222156	-0.197686
C197	C	-0.251873	-0.755567	-0.724993
C198	C	0.248127	-0.255567	-0.224993
C199	C	-0.318759	-0.822390	-0.779606
C200	C	0.181241	-0.322390	-0.279606
C201	C	-0.318768	-0.822381	-0.724999
C202	C	0.181232	-0.322381	-0.224999
C203	C	-0.285326	-0.788968	-0.697691
C204	C	0.214674	-0.288968	-0.197691
C205	C	-0.285329	-0.788974	-0.643100
C206	C	0.214671	-0.288974	-0.143100
N207	N	-0.251894	-0.755559	-0.615789
N208	N	0.248106	-0.255559	-0.115789
C209	C	-0.218446	-0.722150	-0.643082
C210	C	0.281554	-0.222150	-0.143082
C211	C	-0.285267	-0.788998	-0.976176
C212	C	0.214733	-0.288998	-0.476176
C213	C	-0.285253	-0.789006	-1.030778
C214	C	0.214747	-0.289006	-0.530778
C215	C	-0.218367	-0.722180	-1.030760
C216	C	0.281633	-0.222180	-0.530760
C217	C	-0.218379	-0.722174	-0.976157
C218	C	0.281621	-0.222174	-0.476157
C219	C	-0.251832	-0.755583	-0.948865
C220	C	0.248168	-0.255583	-0.448865
C221	C	-0.218467	-0.722149	-0.528417
C222	C	0.281533	-0.222149	-0.028417
C223	C	-0.218478	-0.722151	-0.473812
C224	C	0.281522	-0.222151	0.026188
C225	C	-0.285365	-0.788976	-0.473834
C226	C	0.214635	-0.288976	0.026166
C227	C	-0.285353	-0.788975	-0.528435
C228	C	0.214647	-0.288975	-0.028435
C229	C	-0.251902	-0.755558	-0.555725
C230	C	0.248098	-0.255558	-0.055725
O231	O	-0.313748	-0.817383	-0.614825
O232	O	0.186252	-0.317383	-0.114825
O233	O	-0.190017	-0.693728	-0.614832
O234	O	0.309983	-0.193728	-0.114832
C235	C	-0.251945	-0.755508	-0.116189
C236	C	0.248055	-0.255508	0.383811
C237	C	-0.251808	-0.755595	-0.058076
C238	C	0.248192	-0.255595	0.441924
H239	H	-0.312727	-0.054142	-0.312610
H240	H	0.187273	0.445858	0.187390
C241	C	-0.694325	-0.859243	-0.148491
C242	C	-0.194325	-0.359243	0.351509
N243	N	-0.671704	-0.886954	-0.120804
N244	N	-0.171704	-0.386954	0.379196
C245	C	-0.181595	-0.685414	-0.946124
C246	C	0.318405	-0.185414	-0.446124
N247	N	-0.153888	-0.657722	-0.923505
N248	N	0.346112	-0.157722	-0.423505
H249	H	-0.191196	-0.457411	-0.191448
H250	H	0.308804	0.042589	0.308552
H251	H	-0.346191	-0.305316	-0.345958
H252	H	0.153809	0.194684	0.154042
C253	C	-0.322271	-0.449639	-0.322103
C254	C	0.177729	0.050361	0.177897
N255	N	-0.350023	-0.427032	-0.349760
N256	N	0.149977	0.072968	0.150240
C257	C	-0.181654	-0.061922	-0.181954
C258	C	0.318346	0.438078	0.318046
N259	N	-0.153909	-0.084530	-0.154291
N260	N	0.346091	0.415470	0.345709
C261	C	-0.322157	-0.825722	-0.443802
C262	C	0.177843	-0.325722	0.056198
N263	N	-0.349872	-0.853397	-0.421180
N264	N	0.150128	-0.353397	0.078820
C265	C	-0.148141	-0.313104	-0.148567
C266	C	0.351859	0.186896	0.351433
N267	N	-0.120394	-0.335714	-0.120908
N268	N	0.379606	0.164286	0.379092
C269	C	-0.181666	-0.685391	-0.558428
C270	C	0.318334	-0.185391	-0.058428
N271	N	-0.153945	-0.657708	-0.581032
N272	N	0.346055	-0.157708	-0.081032
H273	H	-0.312695	-0.556488	-0.312544
H274	H	0.187305	-0.056488	0.187456
H275	H	-0.346194	-0.206270	-0.345973
H276	H	0.153806	0.293730	0.154027
C277	C	-0.181689	-0.685391	-0.443776
C278	C	0.318311	-0.185391	0.056224
N279	N	-0.153982	-0.657702	-0.421156
N280	N	0.346018	-0.157702	0.078844
H281	H	-1.052378	-0.816357	-0.191485
H282	H	-0.552378	-0.316357	0.308515
C283	C	-0.322037	-0.825768	-1.060810
C284	C	0.177963	-0.325768	-0.560810
N285	N	-0.349747	-0.853456	-1.083429
N286	N	0.150253	-0.353456	-0.583429
C287	C	-0.808971	-0.859289	-0.148509
C288	C	-0.308971	-0.359289	0.351491
N289	N	-0.831568	-0.887017	-0.120826
N290	N	-0.331568	-0.387017	0.379174
C291	C	-0.322296	0.052725	-0.322159
C292	C	0.177704	0.552725	0.177841
N293	N	-0.350034	0.075350	-0.349816
N294	N	0.149966	0.575350	0.150184
H295	H	-0.346006	-0.849590	-0.702781
H296	H	0.153994	-0.349590	-0.202781
C297	C	-0.181666	0.052729	-0.181966
C298	C	0.318334	0.552729	0.318034
N299	N	-0.153919	0.075344	-0.154313
N300	N	0.346081	0.575344	0.345687
H301	H	-0.451011	-0.694738	-0.312611
H302	H	0.048989	-0.194738	0.187389
C303	C	-0.181619	-0.564280	-0.181905
C304	C	0.318381	-0.064280	0.318095
N305	N	-0.153868	-0.586905	-0.154261
N306	N	0.346132	-0.086905	0.345739
H307	H	-0.312505	-0.816209	-0.953958
H308	H	0.187495	-0.316209	-0.453958
C309	C	-0.181578	-0.685425	-1.060793
C310	C	0.318422	-0.185425	-0.560793
N311	N	-0.153871	-0.657742	-1.083415
N312	N	0.346129	-0.157742	-0.583415
C313	C	-0.945508	-0.825883	-0.181923
C314	C	-0.445508	-0.325883	0.318077
N315	N	-0.922884	-0.853599	-0.154243
N316	N	-0.422884	-0.353599	0.345757
H317	H	-0.702193	-0.661393	-0.346059
H318	H	-0.202193	-0.161393	0.153941
C319	C	-0.148177	-0.651996	-0.809592
C320	C	0.351823	-0.151996	-0.309592
N321	N	-0.120451	-0.624316	-0.832195
N322	N	0.379549	-0.124316	-0.332195
H323	H	-0.157718	-0.206253	-0.158111
H324	H	0.342282	0.293747	0.341889
H325	H	-0.801243	-0.661419	-0.346066
H326	H	-0.301243	-0.161419	0.153934
C327	C	-0.443161	-0.825691	-0.181864
C328	C	0.056839	-0.325691	0.318136
N329	N	-0.420535	-0.853402	-0.154180
N330	N	0.079465	-0.353402	0.345820
C331	C	-0.557813	-0.825744	-0.181880
C332	C	-0.057813	-0.325744	0.318120
N333	N	-0.580412	-0.853473	-0.154200
N334	N	-0.080412	-0.353473	0.345800
C335	C	-0.945568	-0.685364	-0.322224
C336	C	-0.445568	-0.185364	0.177776
N337	N	-0.922967	-0.657638	-0.349907
N338	N	-0.422967	-0.157638	0.150093
C339	C	-1.060219	-0.685393	-0.322223
C340	C	-0.560219	-0.185393	0.177777
N341	N	-1.082842	-0.657677	-0.349903
N342	N	-0.582842	-0.157677	0.150097
H343	H	-0.550077	-0.694777	-0.312630
H344	H	-0.050077	-0.194777	0.187370
H345	H	-0.157758	-0.661536	-0.702749
H346	H	0.342242	-0.161536	-0.202749
C347	C	-0.355551	-0.859145	-0.809632
C348	C	0.144449	-0.359145	-0.309632
N349	N	-0.383268	-0.886829	-0.832247
N350	N	0.116732	-0.386829	-0.332247
C351	C	-0.322137	-0.825735	-0.558474
C352	C	0.177863	-0.325735	-0.058474
N353	N	-0.349848	-0.853419	-0.581096
N354	N	0.150152	-0.353419	-0.081096
