data_functionalizedCrystal
_audit_creation_method	'MofGen! by Chris Wilmer'
_symmetry_space_group_name_H-M	'P1'
_symmetry_Int_Tables_number	1
_symmetry_cell_setting	triclinic
loop_
_symmetry_equiv_pos_as_xyz
  x,y,z
_cell_length_a	14.971486
_cell_length_b	18.366186
_cell_length_c	14.971486
_cell_angle_alpha	89.994669
_cell_angle_beta	96.385871
_cell_angle_gamma	90.004127
loop_
_atom_site_label
_atom_site_type_symbol
_atom_site_fract_x
_atom_site_fract_y
_atom_site_fract_z
O1	O	1.186951	0.060466	-0.116562
O2	O	0.926550	0.060486	-0.130521
O3	O	1.063730	0.060470	0.006658
O4	O	1.049771	0.060482	-0.253742
O5	O	1.063706	-0.060629	0.006662
O6	O	0.926527	-0.060613	-0.130517
O7	O	1.186927	-0.060633	-0.116559
Zn8	Zn	1.056723	-0.079850	-0.123537
Zn9	Zn	1.056754	0.079703	-0.123543
O10	O	1.049747	-0.060617	-0.253738
C11	C	0.893214	-0.000061	-0.129895
C12	C	0.793917	-0.000054	-0.128024
C13	C	0.736691	-0.000051	-0.208614
C14	C	0.643392	-0.000062	-0.206850
C15	C	0.607320	-0.000070	-0.124497
C16	C	0.664552	-0.000075	-0.043902
C17	C	0.757850	-0.000069	-0.045666
C18	C	0.470090	-0.000085	-0.040231
C19	C	0.376786	-0.000090	-0.038466
C20	C	0.355632	-0.000078	-0.201415
C21	C	0.448930	-0.000072	-0.203179
C22	C	0.506156	-0.000076	-0.122584
N23	N	1.056708	-0.188741	-0.123533
C24	C	1.111005	-0.226838	-0.177877
C25	C	1.111020	-0.303065	-0.177875
C26	C	1.056721	-0.341194	-0.123539
C27	C	1.002420	-0.303089	-0.069184
C28	C	1.002414	-0.226862	-0.069181
C29	C	0.976082	-0.461969	-0.120938
C30	C	0.976087	-0.538194	-0.120947
C31	C	1.056741	-0.576302	-0.123542
C32	C	1.137392	-0.538175	-0.126146
C33	C	1.137386	-0.461949	-0.126144
C34	C	1.056722	-0.423849	-0.123535
C35	C	1.111059	-0.697053	-0.177886
C36	C	1.111075	-0.773282	-0.177877
C37	C	1.002467	-0.773304	-0.069192
C38	C	1.002459	-0.697076	-0.069195
C39	C	1.056753	-0.658955	-0.123547
C40	C	1.220263	-0.000084	-0.117185
C41	C	1.319561	-0.000087	-0.119056
C42	C	1.063094	-0.000079	0.039985
C43	C	1.061223	-0.000078	0.139282
N44	N	1.056776	0.188594	-0.123539
C45	C	1.050384	-0.000066	-0.287065
C46	C	1.052254	-0.000062	-0.386362
C47	C	1.141812	-0.000085	0.196507
C48	C	1.140049	-0.000077	0.289807
C49	C	1.057696	-0.000068	0.325879
C50	C	0.977101	-0.000060	0.268646
C51	C	0.978865	-0.000062	0.175349
C52	C	0.973430	-0.000057	0.463109
C53	C	0.971665	-0.000056	0.556413
C54	C	1.134614	-0.000072	0.577567
C55	C	1.136378	-0.000074	0.484269
C56	C	1.055782	-0.000067	0.427043
H57	H	0.478296	-0.000059	-0.270239
H58	H	1.203068	-0.569200	-0.128264
Cl59	Cl	0.542030	-0.000091	0.061092
Cl60	Cl	1.179333	-0.649126	-0.246192
Cl61	Cl	1.238771	-0.414020	-0.129416
Cl62	Cl	0.283691	-0.000075	-0.302736
Cl63	Cl	0.874697	-0.586117	-0.117682
H64	H	1.155236	-0.334089	-0.222130
H65	H	1.203437	-0.000087	0.454903
H66	H	0.958240	-0.666058	-0.024946
H67	H	0.766054	-0.000044	-0.275675
Cl68	Cl	0.873570	-0.000039	0.313995
Cl69	Cl	0.868134	-0.000045	0.601760
Cl70	Cl	0.877548	-0.000051	0.103407
Cl71	Cl	0.872107	-0.000047	0.391168
H72	H	0.635175	-0.000092	0.023152
H73	H	1.155297	-0.804299	-0.222127
Cl74	Cl	0.571455	-0.000054	-0.308168
H75	H	0.347419	-0.000097	0.028593
H76	H	0.804443	-0.000071	0.019958
H77	H	1.155220	-0.195804	-0.222131
H78	H	0.958256	-0.804348	-0.024949
Cl79	Cl	0.874689	-0.414071	-0.117602
H80	H	0.958210	-0.334138	-0.024943
H81	H	0.958197	-0.195845	-0.024927
Cl82	Cl	1.245348	-0.000104	0.151169
H83	H	1.205673	-0.000084	0.336396
H84	H	1.200238	-0.000076	0.624165
