data_functionalizedCrystal
_audit_creation_method	'MofGen! by Chris Wilmer'
_symmetry_space_group_name_H-M	'P1'
_symmetry_Int_Tables_number	1
_symmetry_cell_setting	triclinic
loop_
_symmetry_equiv_pos_as_xyz
  x,y,z
_cell_length_a	29.839134
_cell_length_b	29.839131
_cell_length_c	29.839125
_cell_angle_alpha	89.982291
_cell_angle_beta	89.978020
_cell_angle_gamma	90.036281
loop_
_atom_site_label
_atom_site_type_symbol
_atom_site_fract_x
_atom_site_fract_y
_atom_site_fract_z
Zn1	Zn	0.686720	-0.178978	-0.254125
Zn2	Zn	1.186720	0.321022	0.245875
Zn3	Zn	0.686652	-0.254090	-0.178995
Zn4	Zn	1.186652	0.245910	0.321005
Zn5	Zn	0.611602	-0.178968	-0.178995
Zn6	Zn	1.111602	0.321032	0.321005
Zn7	Zn	0.611550	-0.254075	-0.254083
Zn8	Zn	1.111550	0.245925	0.245917
O9	O	0.649131	-0.216528	-0.216549
O10	O	1.149131	0.283472	0.283451
O11	O	0.749578	-0.188952	-0.244176
O12	O	1.249578	0.311048	0.255824
O13	O	0.676690	-0.244127	-0.116128
O14	O	1.176690	0.255873	0.383872
O15	O	0.621617	-0.116102	-0.188978
O16	O	1.121617	0.383898	0.311022
O17	O	0.749528	-0.244137	-0.188979
O18	O	1.249528	0.255863	0.311021
O19	O	0.676805	-0.116109	-0.244176
O20	O	1.176805	0.383891	0.255824
O21	O	0.621551	-0.188935	-0.116127
O22	O	1.121551	0.311065	0.383873
O23	O	0.548728	-0.188921	-0.188938
O24	O	1.048728	0.311079	0.311062
O25	O	0.621528	-0.244111	-0.316956
O26	O	1.121528	0.255889	0.183044
O27	O	0.548690	-0.244101	-0.244105
O28	O	1.048690	0.255899	0.255895
O29	O	0.676755	-0.188937	-0.316987
O30	O	1.176755	0.311063	0.183013
O31	O	0.676639	-0.316955	-0.188938
O32	O	1.176639	0.183045	0.311062
O33	O	0.621462	-0.316944	-0.244105
O34	O	1.121462	0.183056	0.255895
C35	C	0.532408	-0.216509	-0.216517
C36	C	1.032408	0.283491	0.283483
C37	C	0.482474	-0.216511	-0.216514
C38	C	0.982474	0.283489	0.283486
C39	C	0.649050	-0.333250	-0.216527
C40	C	1.149050	0.166750	0.283473
C41	C	0.649056	-0.383185	-0.216533
C42	C	1.149056	0.116815	0.283467
C43	C	0.172820	-0.245303	-0.245240
C44	C	0.672820	0.254697	0.254760
C45	C	-0.014853	-0.245315	-0.245260
C46	C	0.485147	0.254685	0.254740
O47	O	-0.039127	-0.269774	-0.269665
O48	O	0.460873	0.230226	0.230335
N49	N	-0.038311	-0.216544	-0.216583
N50	N	0.461689	0.283456	0.283417
C51	C	-0.014848	-0.187766	-0.187902
C52	C	0.485152	0.312234	0.312098
O53	O	-0.039107	-0.163291	-0.163514
O54	O	0.460893	0.336709	0.336486
C55	C	0.172824	-0.187751	-0.187884
C56	C	0.672824	0.312249	0.312116
C57	C	0.196280	-0.216527	-0.216560
C58	C	0.696280	0.283473	0.283440
C59	C	0.196276	-0.274076	-0.273913
C60	C	0.696276	0.225924	0.226087
C61	C	0.243191	-0.274075	-0.273906
C62	C	0.743191	0.225925	0.226094
C63	C	0.266651	-0.245299	-0.245226
C64	C	0.766651	0.254701	0.254774
C65	C	0.243195	-0.216526	-0.216553
C66	C	0.743195	0.283474	0.283447
C67	C	0.196286	-0.158971	-0.159205
C68	C	0.696286	0.341029	0.340795
C69	C	0.243207	-0.158969	-0.159204
C70	C	0.743207	0.341031	0.340796
C71	C	0.266663	-0.187745	-0.187880
C72	C	0.766663	0.312255	0.312120
C73	C	0.313570	-0.187749	-0.187865
C74	C	0.813570	0.312251	0.312135
N75	N	0.337029	-0.216520	-0.216542
N76	N	0.837029	0.283480	0.283458
C77	C	0.313569	-0.245295	-0.245222
C78	C	0.813569	0.254705	0.254778
C79	C	-0.113379	-0.187776	-0.187912
C80	C	0.386621	0.312224	0.312088
C81	C	-0.160297	-0.187780	-0.187916
C82	C	0.339703	0.312220	0.312084
C83	C	-0.160298	-0.245329	-0.245275
C84	C	0.339702	0.254671	0.254725
C85	C	-0.113380	-0.245327	-0.245269
C86	C	0.386620	0.254673	0.254731
C87	C	-0.089921	-0.216547	-0.216589
C88	C	0.410079	0.283453	0.283411
C89	C	0.412095	-0.245290	-0.245205
C90	C	0.912095	0.254710	0.254795
C91	C	0.459014	-0.245287	-0.245194
C92	C	0.959014	0.254713	0.254806
C93	C	0.459012	-0.187736	-0.187837
C94	C	0.959012	0.312264	0.312163
C95	C	0.412096	-0.187740	-0.187846
C96	C	0.912096	0.312260	0.312154
C97	C	0.388639	-0.216519	-0.216534
C98	C	0.888639	0.283481	0.283466
O99	O	0.337873	-0.163299	-0.163477
O100	O	0.837873	0.336701	0.336523
O101	O	0.337836	-0.269759	-0.269613
O102	O	0.837836	0.230241	0.230387
C103	C	0.125905	-0.245304	-0.245247
C104	C	0.625905	0.254696	0.254753
C105	C	0.102449	-0.216531	-0.216574
C106	C	0.602449	0.283469	0.283426
C107	C	0.125909	-0.187755	-0.187893
C108	C	0.625909	0.312245	0.312107
C109	C	0.055531	-0.216535	-0.216577
C110	C	0.555531	0.283465	0.283423
C111	C	0.032071	-0.245310	-0.245258
C112	C	0.532071	0.254690	0.254742
C113	C	0.055529	-0.274082	-0.273934
C114	C	0.555529	0.225918	0.226066
C115	C	0.102445	-0.274080	-0.273927
C116	C	0.602445	0.225920	0.226073
C117	C	0.102451	-0.158984	-0.159217
C118	C	0.602451	0.341016	0.340783
C119	C	0.055535	-0.158989	-0.159226
C120	C	0.555535	0.341011	0.340774
C121	C	0.032075	-0.187764	-0.187906
C122	C	0.532075	0.312236	0.312094
C123	C	0.677914	-0.692821	-0.187866
C124	C	1.177914	-0.192821	0.312134
C125	C	0.677969	-0.880494	-0.187883
C126	C	1.177969	-0.380494	0.312117
O127	O	0.702441	-0.904753	-0.163493
O128	O	1.202441	-0.404753	0.336507
N129	N	0.649224	-0.903970	-0.216583
N130	N	1.149224	-0.403970	0.283417
C131	C	0.620465	-0.880524	-0.245283
C132	C	1.120465	-0.380524	0.254717
O133	O	0.596020	-0.904798	-0.269698
O134	O	1.096020	-0.404798	0.230302
C135	C	0.620412	-0.692852	-0.245268
C136	C	1.120412	-0.192852	0.254732
C137	C	0.649156	-0.669379	-0.216563
C138	C	1.149156	-0.169379	0.283437
C139	C	0.706656	-0.669348	-0.159164
C140	C	1.206656	-0.169348	0.340836
C141	C	0.706640	-0.622433	-0.159158
C142	C	1.206640	-0.122433	0.340842
C143	C	0.677882	-0.598990	-0.187854
C144	C	1.177882	-0.098990	0.312146
C145	C	0.649140	-0.622463	-0.216557
C146	C	1.149140	-0.122463	0.283443
C147	C	0.591656	-0.669407	-0.273969
C148	C	1.091656	-0.169407	0.226031
C149	C	0.591646	-0.622486	-0.273964
C150	C	1.091646	-0.122486	0.226036
C151	C	0.620390	-0.599013	-0.245259
C152	C	1.120390	-0.099013	0.254741
C153	C	0.620367	-0.552106	-0.245248
C154	C	1.120367	-0.052106	0.254752
N155	N	0.649112	-0.528630	-0.216548
N156	N	1.149112	-0.028630	0.283452
C157	C	0.677869	-0.552072	-0.187851
C158	C	1.177869	-0.052072	0.312149
C159	C	0.620494	-0.979055	-0.245289
C160	C	1.120494	-0.479055	0.254711
C161	C	0.620507	-1.025973	-0.245292
C162	C	1.120507	-0.525973	0.254708
C163	C	0.678012	-1.025939	-0.187893
C164	C	1.178012	-0.525939	0.312107
C165	C	0.677996	-0.979021	-0.187887
C166	C	1.177996	-0.479021	0.312113
C167	C	0.649239	-0.955579	-0.216589
C168	C	1.149239	-0.455579	0.283411
C169	C	0.677834	-0.453547	-0.187841
C170	C	1.177834	0.046453	0.312159
C171	C	0.677814	-0.406627	-0.187836
C172	C	1.177814	0.093373	0.312164
C173	C	0.620311	-0.406664	-0.245237
C174	C	1.120311	0.093336	0.254763
C175	C	0.620329	-0.453580	-0.245240
C176	C	1.120329	0.046420	0.254760
C177	C	0.649094	-0.477020	-0.216540
C178	C	1.149094	0.022980	0.283460
O179	O	0.595912	-0.527818	-0.269629
O180	O	1.095912	-0.027818	0.230371
O181	O	0.702318	-0.527791	-0.163447
O182	O	1.202318	-0.027791	0.336553
C183	C	0.677930	-0.739737	-0.187872
C184	C	1.177930	-0.239737	0.312128
C185	C	0.649188	-0.763210	-0.216574
C186	C	1.149188	-0.263210	0.283426
C187	C	0.620430	-0.739767	-0.245271
C188	C	1.120430	-0.239767	0.254729
C189	C	0.649200	-0.810128	-0.216578
C190	C	1.149200	-0.310128	0.283422
C191	C	0.677958	-0.833570	-0.187881
C192	C	1.177958	-0.333570	0.312119
C193	C	0.706703	-0.810094	-0.159181
C194	C	1.206703	-0.310094	0.340819
C195	C	0.706687	-0.763179	-0.159175
C196	C	1.206687	-0.263179	0.340825
C197	C	0.591685	-0.763243	-0.273971
C198	C	1.091685	-0.263243	0.226029
C199	C	0.591703	-0.810158	-0.273974
C200	C	1.091703	-0.310158	0.226026
C201	C	0.620461	-0.833601	-0.245277
C202	C	1.120461	-0.333601	0.254723
C203	C	0.766309	-0.216547	-0.216582
C204	C	1.266309	0.283453	0.283418
C205	C	0.816244	-0.216555	-0.216596
C206	C	1.316244	0.283445	0.283404
C207	C	0.649143	-0.216524	-0.333728
C208	C	1.149143	0.283476	0.166272
C209	C	0.649148	-0.216522	-0.383662
C210	C	1.149148	0.283478	0.116338
C211	C	0.649225	-0.099349	-0.216582
C212	C	1.149225	0.400651	0.283418
C213	C	0.649265	-0.049415	-0.216595
C214	C	1.149265	0.450585	0.283405
C215	C	0.677935	-0.187718	-0.693325
C216	C	1.177935	0.312282	-0.193325
C217	C	0.677957	-0.187680	-0.880998
C218	C	1.177957	0.312320	-0.380998
O219	O	0.702399	-0.163232	-0.905279
O220	O	1.202399	0.336768	-0.405279
N221	N	0.649208	-0.216402	-0.904448
N222	N	1.149208	0.283598	-0.404448
C223	C	0.620449	-0.245133	-0.880976
C224	C	1.120449	0.254867	-0.380976
O225	O	0.595993	-0.269559	-0.905228
O226	O	1.095993	0.230441	-0.405228
C227	C	0.620424	-0.245169	-0.693304
C228	C	1.120424	0.254831	-0.193304
C229	C	0.649179	-0.216448	-0.669857
C230	C	1.149179	0.283552	-0.169857
C231	C	0.706687	-0.158999	-0.669877
C232	C	1.206687	0.341001	-0.169877
C233	C	0.706683	-0.159011	-0.622962
C234	C	1.206683	0.340989	-0.122962
C235	C	0.677927	-0.187741	-0.599494
C236	C	1.177927	0.312259	-0.099494
C237	C	0.649175	-0.216460	-0.622941
C238	C	1.149175	0.283540	-0.122941
C239	C	0.591663	-0.273898	-0.669833
C240	C	1.091663	0.226102	-0.169833
C241	C	0.591659	-0.273903	-0.622912
C242	C	1.091659	0.226097	-0.122912
C243	C	0.620414	-0.245183	-0.599465
C244	C	1.120414	0.254817	-0.099465
C245	C	0.620415	-0.245202	-0.552558
C246	C	1.120415	0.254798	-0.052558
N247	N	0.649164	-0.216480	-0.529108
N248	N	1.149164	0.283520	-0.029108
C249	C	0.677920	-0.187749	-0.552576
C250	C	1.177920	0.312251	-0.052576
C251	C	0.620464	-0.245113	-0.979507
C252	C	1.120464	0.254887	-0.479507
C253	C	0.620471	-0.245105	-1.026425
C254	C	1.120471	0.254895	-0.526425
C255	C	0.677979	-0.187650	-1.026443
C256	C	1.177979	0.312350	-0.526443
C257	C	0.677974	-0.187661	-0.979524
C258	C	1.177974	0.312339	-0.479524
C259	C	0.649214	-0.216391	-0.956057
C260	C	1.149214	0.283609	-0.456057
C261	C	0.677910	-0.187776	-0.454050
C262	C	1.177910	0.312224	0.045950
C263	C	0.677904	-0.187792	-0.407130
C264	C	1.177904	0.312208	0.092870
C265	C	0.620395	-0.245244	-0.407116
C266	C	1.120395	0.254756	0.092884
C267	C	0.620401	-0.245230	-0.454032
C268	C	1.120401	0.254770	0.045968
C269	C	0.649161	-0.216493	-0.477497
C270	C	1.149161	0.283507	0.022503
O271	O	0.595982	-0.269633	-0.528248
O272	O	1.095982	0.230367	-0.028248
O273	O	0.702366	-0.163320	-0.528316
O274	O	1.202366	0.336680	-0.028316
C275	C	0.677939	-0.187706	-0.740240
C276	C	1.177939	0.312294	-0.240240
C277	C	0.649187	-0.216425	-0.763688
C278	C	1.149187	0.283575	-0.263688
C279	C	0.620431	-0.245155	-0.740219
C280	C	1.120431	0.254845	-0.240219
C281	C	0.649194	-0.216417	-0.810605
C282	C	1.149194	0.283583	-0.310605
C283	C	0.677950	-0.187686	-0.834074
C284	C	1.177950	0.312314	-0.334074
C285	C	0.706699	-0.158964	-0.810624
C286	C	1.206699	0.341036	-0.310624
C287	C	0.706695	-0.158976	-0.763708
C288	C	1.206695	0.341024	-0.263708
C289	C	0.591682	-0.273877	-0.763669
C290	C	1.091682	0.226123	-0.263669
C291	C	0.591689	-0.273864	-0.810585
C292	C	1.091689	0.226136	-0.310585
C293	C	0.620445	-0.245133	-0.834053
C294	C	1.120445	0.254867	-0.334053
C295	C	0.649145	-0.216499	-0.099827
C296	C	1.149145	0.283501	0.400173
C297	C	0.649227	-0.216374	-0.049893
C298	C	1.149227	0.283626	0.450107
H299	H	0.478110	-0.268721	-0.268545
H300	H	0.978110	0.231279	0.231455
Cl301	Cl	0.714133	-0.949517	-0.151800
Cl302	Cl	1.214133	-0.449517	0.348200
H303	H	0.701393	-0.164257	-1.045559
H304	H	1.201393	0.335743	-0.545559
H305	H	0.392998	-0.164309	-0.164496
H306	H	0.892998	0.335691	0.335504
Cl307	Cl	0.555527	-0.309999	-0.734173
Cl308	Cl	1.055527	0.190001	-0.234173
H309	H	0.730117	-0.829189	-0.135814
H310	H	1.230117	-0.329189	0.364186
H311	H	0.701388	-0.164274	-0.960437
H312	H	1.201388	0.335726	-0.460437
Cl313	Cl	0.555500	-0.310023	-0.593413
Cl314	Cl	1.055500	0.189977	-0.093413
H315	H	0.568248	-0.297285	-0.688916
H316	H	1.068248	0.202715	-0.188916
Cl317	Cl	0.584255	-0.281339	-0.483509
Cl318	Cl	1.084255	0.218661	0.016491
Cl319	Cl	0.026028	-0.310258	-0.309987
Cl320	Cl	0.526028	0.189742	0.190013
Cl321	Cl	0.584327	-0.281219	-1.055895
Cl322	Cl	1.084327	0.218781	-0.555895
H323	H	0.730047	-0.603324	-0.135785
H324	H	1.230047	-0.103324	0.364215
H325	H	0.036441	-0.135556	-0.135871
H326	H	0.536441	0.364444	0.364129
Cl327	Cl	-0.189778	-0.151608	-0.151860
Cl328	Cl	0.310222	0.348392	0.348140
Cl329	Cl	0.584245	-0.281359	-0.377604
Cl330	Cl	1.084245	0.218641	0.122396
Cl331	Cl	-0.083894	-0.151592	-0.151854
Cl332	Cl	0.416106	0.348408	0.348146
H333	H	0.730076	-0.688430	-0.135795
H334	H	1.230076	-0.188430	0.364205
Cl335	Cl	0.713952	-0.377121	-0.151747
Cl336	Cl	1.213952	0.122879	0.348253
H337	H	0.730110	-0.135588	-0.744622
H338	H	1.230110	0.364412	-0.244622
Cl339	Cl	0.713995	-0.483007	-0.151760
Cl340	Cl	1.213995	0.016993	0.348240
H341	H	0.597097	-1.045080	-0.268662
H342	H	1.097097	-0.545080	0.231338
Cl343	Cl	0.742851	-0.122848	-0.840136
Cl344	Cl	1.242851	0.377152	-0.340136
Cl345	Cl	0.555529	-0.733780	-0.310050
Cl346	Cl	1.055529	-0.233780	0.189950
H347	H	0.177197	-0.135539	-0.135854
H348	H	0.677197	0.364461	0.364146
H349	H	0.262305	-0.135529	-0.135852
H350	H	0.762305	0.364471	0.364148
Cl351	Cl	0.382613	-0.281469	-0.281269
Cl352	Cl	0.882613	0.218531	0.218731
Cl353	Cl	0.584338	-0.949592	-0.281373
Cl354	Cl	1.084338	-0.449592	0.218627
H355	H	0.568274	-0.297256	-0.829671
H356	H	1.068274	0.202744	-0.329671
H357	H	-0.179407	-0.268759	-0.268628
H358	H	0.320593	0.231241	0.231372
Cl359	Cl	0.714163	-1.055418	-0.151817
Cl360	Cl	1.214163	-0.555418	0.348183
Cl361	Cl	0.488513	-0.151563	-0.151784
Cl362	Cl	0.988513	0.348437	0.348216
H363	H	0.177180	-0.297509	-0.297271
H364	H	0.677180	0.202491	0.202729
H365	H	0.262285	-0.297506	-0.297258
H366	H	0.762285	0.202494	0.202742
Cl367	Cl	-0.083897	-0.281503	-0.281320
Cl368	Cl	0.416103	0.218497	0.218680
H369	H	0.121538	-0.297512	-0.297278
H370	H	0.621538	0.202488	0.202722
H371	H	0.121547	-0.135551	-0.135861
H372	H	0.621547	0.364449	0.364139
H373	H	0.701321	-0.164403	-0.388042
H374	H	1.201321	0.335597	0.111958
H375	H	0.568248	-0.688511	-0.297342
H376	H	1.068248	-0.188511	0.202658
H377	H	0.730104	-0.135601	-0.688980
H378	H	1.230104	0.364399	-0.188980
H379	H	0.568229	-0.603402	-0.297337
H380	H	1.068229	-0.103402	0.202663
H381	H	0.596925	-0.472692	-0.268615
H382	H	1.096925	0.027308	0.231385
H383	H	0.596895	-0.387570	-0.268600
H384	H	1.096895	0.112430	0.231400
H385	H	0.730093	-0.744071	-0.135801
H386	H	1.230093	-0.244071	0.364199
H387	H	0.568292	-0.829266	-0.297349
H388	H	1.068292	-0.329266	0.202651
Cl389	Cl	0.714062	-0.151646	-0.483543
Cl390	Cl	1.214062	0.348354	0.016457
H391	H	0.730097	-0.135623	-0.603875
H392	H	1.230097	0.364377	-0.103875
H393	H	0.597044	-0.268511	-0.960404
H394	H	1.097044	0.231489	-0.460404
