data_functionalizedCrystal
_audit_creation_method	'MofGen! by Chris Wilmer'
_symmetry_space_group_name_H-M	'P1'
_symmetry_Int_Tables_number	1
_symmetry_cell_setting	triclinic
loop_
_symmetry_equiv_pos_as_xyz
  x,y,z
_cell_length_a	17.699077
_cell_length_b	23.532407
_cell_length_c	16.776229
_cell_angle_alpha	89.998549
_cell_angle_beta	90.003019
_cell_angle_gamma	83.064627
loop_
_atom_site_label
_atom_site_type_symbol
_atom_site_fract_x
_atom_site_fract_y
_atom_site_fract_z
O1	O	1.003714	0.071993	0.066286
O2	O	1.503714	0.571993	0.566286
O3	O	0.783287	0.081367	0.066291
O4	O	1.283287	0.581367	0.566291
O5	O	0.900147	-0.006233	0.066274
O6	O	1.400147	0.493767	0.566274
O7	O	0.886853	0.159593	0.066303
O8	O	1.386853	0.659593	0.566303
O9	O	0.900137	-0.006217	-0.066303
O10	O	1.400137	0.493783	0.433697
O11	O	0.783276	0.081382	-0.066286
O12	O	1.283276	0.581382	0.433714
O13	O	1.003703	0.072009	-0.066291
O14	O	1.503703	0.572009	0.433709
Zn15	Zn	0.893488	0.076698	-0.087338
Zn16	Zn	1.393488	0.576698	0.412662
Zn17	Zn	0.893502	0.076678	0.087338
Zn18	Zn	1.393502	0.576678	0.587338
O19	O	0.886843	0.159608	-0.066273
O20	O	1.386843	0.659608	0.433727
C21	C	0.755086	0.081039	0.000003
C22	C	1.255086	0.581039	0.500003
C23	C	0.671073	0.080033	0.000004
C24	C	1.171073	0.580033	0.500004
C25	C	0.631602	0.079568	-0.072264
C26	C	1.131602	0.579568	0.427736
C27	C	0.552665	0.078613	-0.072265
C28	C	1.052665	0.578613	0.427735
C29	C	0.513198	0.078129	0.000003
C30	C	1.013198	0.578129	0.500003
C31	C	0.552675	0.078593	0.072277
C32	C	1.052675	0.578593	0.572277
C33	C	0.631612	0.079543	0.072277
C34	C	1.131612	0.579543	0.572277
C35	C	0.234331	0.074760	0.072278
C36	C	0.734331	0.574760	0.572278
C37	C	0.155388	0.073812	0.072272
C38	C	0.655388	0.573812	0.572272
C39	C	0.155384	0.073831	-0.072265
C40	C	0.655384	0.573831	0.427735
C41	C	0.234321	0.074781	-0.072264
C42	C	0.734321	0.574781	0.427736
C43	C	0.273791	0.075242	0.000009
C44	C	0.773791	0.575242	0.500009
C45	C	0.359384	0.076275	0.000009
C46	C	0.859384	0.576275	0.500009
C47	C	0.427606	0.077099	0.000004
C48	C	0.927606	0.577099	0.500004
C49	C	0.899803	-0.027442	-0.000017
C50	C	1.399803	0.472558	0.499983
C51	C	0.898786	-0.090662	-0.000023
C52	C	1.398786	0.409338	0.499977
C53	C	0.961557	-0.489586	0.000019
C54	C	1.461557	0.010414	0.500019
C55	C	0.960612	-0.548989	0.000025
C56	C	1.460612	-0.048989	0.500025
O57	O	1.018802	-0.585567	0.000054
O58	O	1.518802	-0.085567	0.500054
N59	N	0.891138	-0.571813	0.000026
N60	N	1.391138	-0.071813	0.500026
C61	C	0.822606	-0.535231	0.000030
C62	C	1.322606	-0.035231	0.500030
O63	O	0.763427	-0.560100	0.000032
O64	O	1.263427	-0.060100	0.500032
C65	C	0.823552	-0.475830	0.000029
C66	C	1.323552	0.024170	0.500029
C67	C	0.893030	-0.453009	0.000020
C68	C	1.393030	0.046991	0.500020
C69	C	1.031029	-0.466764	0.000011
C70	C	1.531029	0.033236	0.500011
C71	C	1.031975	-0.407365	0.000004
C72	C	1.531975	0.092635	0.500004
C73	C	0.963448	-0.370788	0.000004
C74	C	1.463448	0.129212	0.500004
C75	C	0.893975	-0.393610	0.000012
C76	C	1.393975	0.106390	0.500012
C77	C	0.755021	-0.439249	0.000038
C78	C	1.255021	0.060751	0.500038
C79	C	0.755973	-0.379844	0.000038
C80	C	1.255973	0.120156	0.500038
C81	C	0.825451	-0.357023	0.000029
C82	C	1.325451	0.142977	0.500029
C83	C	0.826393	-0.297634	0.000006
C84	C	1.326393	0.202366	0.500006
N85	N	0.895867	-0.274809	0.000005
N86	N	1.395867	0.225191	0.500005
C87	C	0.964394	-0.311386	0.000004
C88	C	1.464394	0.188614	0.500004
C89	C	0.820624	-0.659980	0.000032
C90	C	1.320624	-0.159980	0.500032
C91	C	0.819677	-0.719380	0.000026
C92	C	1.319677	-0.219380	0.500026
C93	C	0.957683	-0.733133	0.000024
C94	C	1.457683	-0.233133	0.500024
C95	C	0.958629	-0.673732	0.000023
C96	C	1.458629	-0.173732	0.500023
C97	C	0.890097	-0.637155	0.000031
C98	C	1.390097	-0.137155	0.500031
C99	C	0.966374	-0.186644	-0.000013
C100	C	1.466374	0.313356	0.499987
C101	C	0.967313	-0.127239	-0.000023
C102	C	1.467313	0.372761	0.499977
C103	C	0.829307	-0.113491	-0.000017
C104	C	1.329307	0.386509	0.499983
C105	C	0.828368	-0.172891	-0.000010
C106	C	1.328368	0.327109	0.499990
C107	C	0.896907	-0.209466	-0.000005
C108	C	1.396907	0.290534	0.499995
O109	O	0.768234	-0.261021	-0.000019
O110	O	1.268234	0.238979	0.499981
O111	O	1.023563	-0.286509	0.000012
O112	O	1.523563	0.213491	0.500012
C113	C	1.031904	0.072336	-0.000001
C114	C	1.531904	0.572336	0.499999
C115	C	1.115917	0.073342	0.000003
C116	C	1.615917	0.573342	0.500003
C117	C	0.887187	0.180817	0.000019
C118	C	1.387187	0.680817	0.500019
C119	C	0.888204	0.244037	0.000030
C120	C	1.388204	0.744037	0.500030
N121	N	0.893484	0.076711	-0.206549
N122	N	1.393484	0.576711	0.293451
C123	C	0.847870	0.042167	-0.751726
C124	C	1.347870	0.542167	-0.251726
C125	C	0.847868	0.042172	-0.668274
C126	C	1.347868	0.542172	-0.168274
C127	C	0.893505	0.076673	-0.626548
C128	C	1.393505	0.576673	-0.126548
C129	C	0.939153	0.111167	-0.668279
C130	C	1.439153	0.611167	-0.168279
C131	C	0.939159	0.111158	-0.751730
C132	C	1.439159	0.611158	-0.251730
C133	C	0.939134	0.111200	-0.331732
C134	C	1.439134	0.611200	0.168268
C135	C	0.939123	0.111207	-0.248275
C136	C	1.439123	0.611207	0.251725
C137	C	0.847842	0.042214	-0.248276
C138	C	1.347842	0.542214	0.251724
C139	C	0.847848	0.042206	-0.331727
C140	C	1.347848	0.542206	0.168273
C141	C	0.893499	0.076697	-0.373450
C142	C	1.393499	0.576697	0.126550
C143	C	0.893501	0.076691	-0.463939
C144	C	1.393501	0.576691	0.036061
C145	C	0.893499	0.076683	-0.536061
C146	C	1.393499	0.576683	-0.036061
N147	N	0.893512	0.076660	0.206549
N148	N	1.393512	0.576660	0.706549
H149	H	0.266459	0.075134	0.131127
H150	H	0.766459	0.575134	0.631127
H151	H	1.023892	-0.108662	-0.000033
H152	H	1.523892	0.391338	0.499967
C153	C	0.988816	0.148509	-0.797077
C154	C	1.488816	0.648509	-0.297077
C155	C	1.040346	0.113920	-0.844955
C156	C	1.540346	0.613920	-0.344955
C157	C	1.086113	0.148305	-0.886731
C158	C	1.586113	0.648305	-0.386731
H159	H	0.957694	0.174754	-0.829707
H160	H	1.457694	0.674754	-0.329707
H161	H	1.016040	0.169047	-0.760302
H162	H	1.516040	0.669047	-0.260302
H163	H	1.013124	0.093392	-0.881726
H164	H	1.513124	0.593392	-0.381726
H165	H	1.071484	0.087676	-0.812344
H166	H	1.571484	0.587676	-0.312344
H167	H	1.113338	0.168842	-0.849956
H168	H	1.613338	0.668842	-0.349956
H169	H	1.054986	0.174548	-0.919357
H170	H	1.554986	0.674548	-0.419357
H171	H	1.121087	0.124841	-0.919215
H172	H	1.621087	0.624841	-0.419215
C173	C	0.674327	0.080081	0.150824
C174	C	1.174327	0.580081	0.650824
C175	C	0.622868	0.079470	0.214115
C176	C	1.122868	0.579470	0.714115
C177	C	0.662187	0.079971	0.286486
C178	C	1.162187	0.579971	0.786486
H179	H	0.711147	0.047263	0.153938
H180	H	1.211147	0.547263	0.653938
H181	H	0.699077	0.113662	0.153876
H182	H	1.199077	0.613662	0.653876
H183	H	0.598131	0.045892	0.211064
H184	H	1.098131	0.545892	0.711064
H185	H	0.586047	0.112285	0.211028
H186	H	1.086047	0.612285	0.711028
H187	H	0.686937	0.113552	0.289538
H188	H	1.186937	0.613552	0.789538
H189	H	0.699006	0.047152	0.289591
H190	H	1.199006	0.547152	0.789591
H191	H	0.627278	0.079562	0.329437
H192	H	1.127278	0.579562	0.829437
C193	C	0.277281	0.075216	-0.150670
C194	C	0.777281	0.575216	0.349330
C195	C	0.331498	0.026791	-0.154887
C196	C	0.831498	0.526791	0.345113
C197	C	0.371093	0.027174	-0.227099
C198	C	0.871093	0.527174	0.272901
H199	H	0.242559	0.074772	-0.193778
H200	H	0.742559	0.574772	0.306222
H201	H	0.302098	0.108768	-0.153677
H202	H	0.802098	0.608768	0.346323
H203	H	0.306682	-0.006752	-0.151887
H204	H	0.806682	0.493248	0.348113
H205	H	0.366236	0.027225	-0.111796
H206	H	0.866236	0.527225	0.388204
H207	H	0.395910	0.060725	-0.230106
H208	H	0.895910	0.560725	0.269894
H209	H	0.336365	0.026731	-0.270201
H210	H	0.836365	0.526731	0.229799
H211	H	0.407888	-0.005679	-0.229967
H212	H	0.907888	0.494321	0.270033
C213	C	1.040868	-0.226254	-0.000052
C214	C	1.540868	0.273746	0.499948
C215	C	1.101904	-0.193543	-0.000083
C216	C	1.601904	0.306457	0.499917
C217	C	1.170538	-0.230011	-0.000135
C218	C	1.670538	0.269989	0.499865
H219	H	1.043489	-0.249725	0.046169
H220	H	1.543489	0.250275	0.546169
H221	H	1.043408	-0.249705	-0.046302
H222	H	1.543408	0.250295	0.453698
H223	H	1.099365	-0.170102	0.046162
H224	H	1.599365	0.329898	0.546162
H225	H	1.099308	-0.170072	-0.046300
H226	H	1.599308	0.329928	0.453700
H227	H	1.173078	-0.253462	-0.046385
H228	H	1.673078	0.246538	0.453615
H229	H	1.173151	-0.253481	0.046087
H230	H	1.673151	0.246519	0.546087
H231	H	1.211959	-0.207822	-0.000163
H232	H	1.711959	0.292178	0.499837
H233	H	0.663729	0.079967	-0.131113
H234	H	1.163729	0.579967	0.368887
H235	H	0.520533	0.078225	-0.131113
H236	H	1.020533	0.578225	0.368887
C237	C	1.107356	-0.382516	0.000131
C238	C	1.607356	0.117484	0.500131
C239	C	1.111930	-0.348807	0.068329
C240	C	1.611930	0.151193	0.568329
C241	C	1.181360	-0.325907	0.068472
C242	C	1.681360	0.174093	0.568472
H243	H	1.148090	-0.412756	0.000175
H244	H	1.648090	0.087244	0.500175
H245	H	1.110608	-0.359597	-0.046077
H246	H	1.610608	0.140403	0.453923
H247	H	1.108686	-0.371725	0.114525
H248	H	1.608686	0.128275	0.614525
H249	H	1.071212	-0.318558	0.068299
H250	H	1.571212	0.181442	0.568299
H251	H	1.184612	-0.302988	0.022264
H252	H	1.684612	0.197012	0.522264
H253	H	1.222089	-0.356151	0.068514
H254	H	1.722089	0.143849	0.568514
H255	H	1.184470	-0.303029	0.114739
H256	H	1.684470	0.196971	0.614739
C257	C	0.509687	0.078094	0.150658
C258	C	1.009687	0.578094	0.650658
C259	C	0.432106	0.077179	0.135193
C260	C	0.932106	0.577179	0.635193
C261	C	0.392482	0.076729	0.207379
C262	C	0.892482	0.576729	0.707379
H263	H	0.528556	0.045056	0.180406
H264	H	1.028556	0.545056	0.680406
H265	H	0.516557	0.111457	0.180365
H266	H	1.016557	0.611457	0.680365
H267	H	0.425241	0.043820	0.105498
H268	H	0.925241	0.543820	0.605498
H269	H	0.413215	0.110214	0.105457
H270	H	0.913215	0.610214	0.605457
H271	H	0.399352	0.110091	0.237086
H272	H	0.899352	0.610091	0.737086
H273	H	0.411358	0.043690	0.237122
H274	H	0.911358	0.543690	0.737122
H275	H	0.339839	0.076113	0.196896
H276	H	0.839839	0.576113	0.696896
H277	H	1.086836	-0.496540	0.000014
H278	H	1.586836	0.003460	0.500014
H279	H	0.123238	0.073453	-0.131113
H280	H	0.623238	0.573453	0.368887
H281	H	0.976305	0.139286	-0.365693
H282	H	1.476305	0.639286	0.134307
H283	H	0.810682	0.014114	-0.365696
H284	H	1.310682	0.514114	0.134304
H285	H	0.976316	0.139255	-0.634299
H286	H	1.476316	0.639255	-0.134299
C287	C	1.034007	-0.648878	0.000146
C288	C	1.534007	-0.148878	0.500146
C289	C	1.038583	-0.615170	0.068345
C290	C	1.538583	-0.115170	0.568345
C291	C	1.108008	-0.592264	0.068482
C292	C	1.608008	-0.092264	0.568482
H293	H	1.074746	-0.679115	0.000185
H294	H	1.574746	-0.179115	0.500185
H295	H	1.037252	-0.625957	-0.046061
H296	H	1.537252	-0.125957	0.453939
H297	H	1.035346	-0.638090	0.114541
H298	H	1.535346	-0.138090	0.614541
H299	H	0.997861	-0.584925	0.068321
H300	H	1.497861	-0.084925	0.568321
H301	H	1.111253	-0.569343	0.022275
H302	H	1.611253	-0.069343	0.522275
H303	H	1.148741	-0.622504	0.068519
H304	H	1.648741	-0.122504	0.568519
H305	H	1.111119	-0.569386	0.114751
H306	H	1.611119	-0.069386	0.614751
C307	C	1.032109	-0.772827	-0.000132
C308	C	1.532109	-0.272827	0.499868
C309	C	1.073963	-0.762546	-0.068350
C310	C	1.573963	-0.262546	0.431650
C311	C	1.142518	-0.799106	-0.068526
C312	C	1.642518	-0.299106	0.431474
H313	H	1.060709	-0.765953	0.046046
H314	H	1.560709	-0.265953	0.546046
H315	H	1.021620	-0.811479	-0.000171
H316	H	1.521620	-0.311479	0.499829
H317	H	1.084454	-0.723902	-0.068304
H318	H	1.584454	-0.223902	0.431696
H319	H	1.045386	-0.769423	-0.114539
H320	H	1.545386	-0.269423	0.385461
H321	H	1.132029	-0.837759	-0.068564
H322	H	1.632029	-0.337759	0.431436
H323	H	1.171111	-0.792230	-0.022344
H324	H	1.671111	-0.292230	0.477656
H325	H	1.170921	-0.792140	-0.114814
H326	H	1.670921	-0.292140	0.385186
C327	C	0.754934	-0.073743	0.000152
C328	C	1.254934	0.426257	0.500152
C329	C	0.751458	-0.039251	0.068370
C330	C	1.251458	0.460749	0.568370
C331	C	0.682952	-0.002632	0.068564
C332	C	1.182952	0.497368	0.568564
H333	H	0.752357	-0.050229	-0.046026
H334	H	1.252357	0.449771	0.453974
H335	H	0.713394	-0.095818	0.000201
H336	H	1.213394	0.404182	0.500201
H337	H	0.792986	-0.017179	0.068313
H338	H	1.292986	0.482821	0.568313
H339	H	0.754022	-0.062749	0.114559
H340	H	1.254022	0.437251	0.614559
H341	H	0.641413	-0.024706	0.068614
H342	H	1.141413	0.475294	0.568614
H343	H	0.680381	0.020878	0.022383
H344	H	1.180381	0.520878	0.522383
H345	H	0.680582	0.020771	0.114852
H346	H	1.180582	0.520771	0.614852
H347	H	0.771793	-0.191472	-0.000025
H348	H	1.271793	0.308528	0.499975
C349	C	0.744165	-0.744043	0.000068
C350	C	1.244165	-0.244043	0.500068
C351	C	0.684360	-0.699289	0.000086
C352	C	1.184360	-0.199289	0.500086
C353	C	0.614786	-0.721984	0.000140
C354	C	1.114786	-0.221984	0.500140
H355	H	0.740811	-0.766922	-0.046149
H356	H	1.240811	-0.266922	0.453851
H357	H	0.740887	-0.766911	0.046322
H358	H	1.240887	-0.266911	0.546322
H359	H	0.687637	-0.676431	-0.046164
H360	H	1.187637	-0.176431	0.453836
H361	H	0.687689	-0.676406	0.046299
H362	H	1.187689	-0.176406	0.546299
H363	H	0.611507	-0.744852	0.046394
H364	H	1.111507	-0.244852	0.546394
H365	H	0.611440	-0.744863	-0.046078
H366	H	1.111440	-0.244863	0.453922
H367	H	0.574200	-0.691622	0.000160
H368	H	1.074200	-0.191622	0.500160
C369	C	0.746235	-0.620242	0.000191
C370	C	1.246235	-0.120242	0.500191
C371	C	0.742733	-0.585748	0.068408
C372	C	1.242733	-0.085748	0.568408
C373	C	0.674214	-0.549144	0.068588
C374	C	1.174214	-0.049144	0.568588
H375	H	0.743656	-0.596730	-0.045988
H376	H	1.243656	-0.096730	0.454012
H377	H	0.704707	-0.642328	0.000234
H378	H	1.204707	-0.142328	0.500234
H379	H	0.784249	-0.563664	0.068358
H380	H	1.284249	-0.063664	0.568358
H381	H	0.745299	-0.609245	0.114598
H382	H	1.245299	-0.109245	0.614598
H383	H	0.632686	-0.571230	0.068631
H384	H	1.132686	-0.071230	0.568631
H385	H	0.671640	-0.525636	0.022406
H386	H	1.171640	-0.025636	0.522406
H387	H	0.671825	-0.525739	0.114876
H388	H	1.171825	-0.025739	0.614876
H389	H	0.123257	0.073417	0.131125
H390	H	0.623257	0.573417	0.631125
H391	H	0.810702	0.014076	-0.785693
H392	H	1.310702	0.514076	-0.285693
C393	C	0.679507	-0.463905	0.000093
C394	C	1.179507	0.036095	0.500093
C395	C	0.619707	-0.419148	0.000119
C396	C	1.119707	0.080852	0.500119
C397	C	0.550129	-0.441837	0.000182
C398	C	1.050129	0.058163	0.500182
H399	H	0.676145	-0.486783	-0.046124
H400	H	1.176145	0.013217	0.453876
H401	H	0.676232	-0.486773	0.046347
H402	H	1.176232	0.013227	0.546347
H403	H	0.622981	-0.396289	-0.046130
H404	H	1.122981	0.103711	0.453870
H405	H	0.623044	-0.396266	0.046333
H406	H	1.123044	0.103734	0.546333
H407	H	0.546854	-0.464705	0.046436
H408	H	1.046854	0.035295	0.546436
H409	H	0.546775	-0.464715	-0.046035
H410	H	1.046775	0.035285	0.453965
H411	H	0.509547	-0.411473	0.000208
H412	H	1.009547	0.088527	0.500208
H413	H	0.700165	-0.350065	0.000045
H414	H	1.200165	0.149935	0.500045
H415	H	0.810703	0.014083	-0.634305
H416	H	1.310703	0.514083	-0.134305
H417	H	0.810674	0.014128	-0.214295
H418	H	1.310674	0.514128	0.285705
C419	C	0.988761	0.148682	-0.203115
C420	C	1.488761	0.648682	0.296885
C421	C	1.028759	0.178875	-0.257515
C422	C	1.528759	0.678875	0.242485
C423	C	1.074496	0.213395	-0.215943
C424	C	1.574496	0.713395	0.284057
H425	H	0.957628	0.174974	-0.170569
H426	H	1.457628	0.674974	0.329431
H427	H	1.023802	0.125321	-0.170567
H428	H	1.523802	0.625321	0.329433
H429	H	0.993722	0.202234	-0.290049
H430	H	1.493722	0.702234	0.209951
H431	H	1.059907	0.152597	-0.290064
H432	H	1.559907	0.652597	0.209936
H433	H	1.109537	0.190033	-0.183395
H434	H	1.609537	0.690033	0.316605
H435	H	1.043357	0.239683	-0.183398
H436	H	1.543357	0.739683	0.316602
H437	H	1.101645	0.233880	-0.252847
H438	H	1.601645	0.733880	0.247153
