data_functionalizedCrystal
_audit_creation_method	'MofGen! by Chris Wilmer'
_symmetry_space_group_name_H-M	'P1'
_symmetry_Int_Tables_number	1
_symmetry_cell_setting	triclinic
loop_
_symmetry_equiv_pos_as_xyz
  x,y,z
_cell_length_a	10.654550
_cell_length_b	11.792241
_cell_length_c	9.730223
_cell_angle_alpha	89.998500
_cell_angle_beta	89.996251
_cell_angle_gamma	84.339159
loop_
_atom_site_label
_atom_site_type_symbol
_atom_site_fract_x
_atom_site_fract_y
_atom_site_fract_z
O1	O	1.667383	0.159415	-0.114404
O2	O	1.301862	0.174603	-0.114382
O3	O	1.493493	0.001859	-0.114383
O4	O	1.475752	0.332159	-0.114402
O5	O	1.493490	0.001863	0.114196
O6	O	1.301859	0.174608	0.114198
O7	O	1.667381	0.159419	0.114176
Zn8	Zn	1.484620	0.167014	0.150479
Zn9	Zn	1.484623	0.167008	-0.150685
O10	O	1.475750	0.332163	0.114178
C11	C	1.255066	0.173490	-0.000089
C12	C	1.115632	0.170154	-0.000080
C13	C	1.035858	0.271863	-0.000106
C14	C	0.904847	0.268721	-0.000129
C15	C	0.933394	0.062152	-0.000107
C16	C	1.064404	0.065295	-0.000074
C17	C	1.019376	0.391124	-0.000124
C18	C	0.888364	0.387982	-0.000148
C19	C	1.492377	-0.040432	-0.000094
C20	C	1.489042	-0.166454	-0.000095
C21	C	1.482908	-0.397180	-0.000118
C22	C	1.486316	-0.268787	-0.000105
C23	C	1.714177	0.160532	-0.000120
C24	C	1.853611	0.163869	-0.000137
C25	C	1.476865	0.374455	-0.000114
C26	C	1.480201	0.500476	-0.000122
N27	N	1.484627	0.167017	0.356016
N28	N	1.484625	0.166996	-0.356221
C29	C	1.569503	0.090552	0.427941
C30	C	1.569500	0.090539	0.571824
C31	C	1.399740	0.243465	0.571844
C32	C	1.399739	0.243472	0.427963
C33	C	1.667516	0.002265	0.427931
C34	C	1.667513	0.002251	0.571814
H35	H	0.846505	0.432916	-0.095818
H36	H	1.048574	0.437768	0.095539
H37	H	0.891668	-0.023221	-0.000123
H38	H	1.330615	0.305726	0.369403
H39	H	1.758622	0.029909	0.383297
C40	C	1.627366	-0.107681	0.631537
C41	C	1.725090	-0.160174	0.712469
C42	C	1.688150	-0.261431	0.767535
H43	H	1.609177	-0.157407	0.558980
H44	H	1.554212	-0.091028	0.686575
H45	H	1.798222	-0.176831	0.657435
H46	H	1.743293	-0.110481	0.785048
H47	H	1.614996	-0.244778	0.822573
H48	H	1.669960	-0.311147	0.694970
H49	H	1.754445	-0.297054	0.822464
C50	C	1.307522	0.326291	0.650140
C51	C	1.230263	0.265171	0.732765
C52	C	1.145307	0.341433	0.804922
H53	H	1.256850	0.371865	0.586853
H54	H	1.352980	0.373900	0.706351
H55	H	1.184808	0.217581	0.676560
H56	H	1.280900	0.219600	0.796078
H57	H	1.190765	0.389043	0.861133
H58	H	1.094644	0.387004	0.741626
H59	H	1.092885	0.299975	0.861001
C60	C	1.638981	-0.114005	0.375939
C61	C	1.520470	-0.137606	0.424064
C62	C	1.494130	-0.244692	0.376187
H63	H	1.701560	-0.170605	0.408443
H64	H	1.638903	-0.114029	0.278299
H65	H	1.520557	-0.137591	0.521684
H66	H	1.457865	-0.081034	0.391564
H67	H	1.494053	-0.244716	0.278547
H68	H	1.556716	-0.301283	0.408694
H69	H	1.413714	-0.260715	0.408822
H70	H	1.763969	0.021698	0.610857
C71	C	0.827544	0.436136	0.131497
C72	C	0.920797	0.471231	0.218742
C73	C	0.864814	0.515606	0.340015
H74	H	0.785232	0.379115	0.175960
H75	H	0.768632	0.499473	0.110115
H76	H	0.979686	0.407903	0.240126
H77	H	0.963115	0.528264	0.174322
H78	H	0.805902	0.578942	0.318632
H79	H	0.822504	0.458579	0.384464
H80	H	0.928075	0.539433	0.399219
H81	H	1.054925	0.429097	-0.098814
H82	H	1.129352	-0.017527	-0.000033
