data_functionalizedCrystal
_audit_creation_method	'MofGen! by Chris Wilmer'
_symmetry_space_group_name_H-M	'P1'
_symmetry_Int_Tables_number	1
_symmetry_cell_setting	triclinic
loop_
_symmetry_equiv_pos_as_xyz
  x,y,z
_cell_length_a	22.010155
_cell_length_b	11.026607
_cell_length_c	23.532353
_cell_angle_alpha	95.706267
_cell_angle_beta	89.989620
_cell_angle_gamma	89.984973
loop_
_atom_site_label
_atom_site_type_symbol
_atom_site_fract_x
_atom_site_fract_y
_atom_site_fract_z
O1	O	0.050555	-1.607213	-0.238182
O2	O	0.550555	-1.107213	0.261818
O3	O	0.050552	-1.254245	-0.211060
O4	O	0.550552	-0.754245	0.288940
O5	O	0.050541	-1.441407	-0.142810
O6	O	0.550541	-0.941407	0.357190
O7	O	0.050566	-1.420051	-0.306432
O8	O	0.550566	-0.920051	0.193568
O9	O	-0.050510	-1.441351	-0.142804
O10	O	0.449490	-0.941351	0.357196
O11	O	-0.050498	-1.254189	-0.211054
O12	O	0.449502	-0.754189	0.288946
O13	O	-0.050495	-1.607157	-0.238176
O14	O	0.449505	-1.107157	0.261824
Cu15	Cu	-0.059723	-1.430668	-0.224614
Cu16	Cu	0.440277	-0.930668	0.275386
Cu17	Cu	0.059780	-1.430734	-0.224621
Cu18	Cu	0.559780	-0.930734	0.275379
O19	O	-0.050484	-1.419995	-0.306426
O20	O	0.449516	-0.919995	0.193574
C21	C	0.000027	-1.209069	-0.206054
C22	C	0.500027	-0.709069	0.293946
C23	C	0.000025	-1.074541	-0.191138
C24	C	0.500025	-0.574541	0.308862
C25	C	0.000014	-1.440846	-0.121534
C26	C	0.500014	-0.940846	0.378466
C27	C	0.000007	-1.439243	-0.058147
C28	C	0.500007	-0.939243	0.441853
N29	N	-0.143776	-1.430630	-0.224610
N30	N	0.356224	-0.930630	0.275390
C31	C	-0.563549	-1.503809	-0.266669
C32	C	-0.063549	-1.003809	0.233331
C33	C	-0.627157	-1.503823	-0.266669
C34	C	-0.127157	-1.003823	0.233331
O35	O	-0.660043	-1.565999	-0.302420
O36	O	-0.160043	-1.065999	0.197580
N37	N	-0.658983	-1.430758	-0.224617
N38	N	-0.158983	-0.930758	0.275383
C39	C	-0.627198	-1.357684	-0.182560
C40	C	-0.127198	-0.857684	0.317440
O41	O	-0.660110	-1.295538	-0.146791
O42	O	-0.160110	-0.795538	0.353209
C43	C	-0.563592	-1.357677	-0.182558
C44	C	-0.063592	-0.857677	0.317442
C45	C	-0.531769	-1.430737	-0.224615
C46	C	-0.031769	-0.930737	0.275385
C47	C	-0.531726	-1.576864	-0.308722
C48	C	-0.031726	-1.076864	0.191278
C49	C	-0.468123	-1.576848	-0.308723
C50	C	0.031877	-1.076848	0.191277
C51	C	-0.436343	-1.503776	-0.266669
C52	C	0.063657	-1.003776	0.233331
C53	C	-0.468166	-1.430721	-0.224616
C54	C	0.031834	-0.930721	0.275384
C55	C	-0.531808	-1.284609	-0.140498
C56	C	-0.031808	-0.784609	0.359502
C57	C	-0.468198	-1.284609	-0.140500
C58	C	0.031802	-0.784609	0.359500
C59	C	-0.436375	-1.357670	-0.182557
C60	C	0.063625	-0.857670	0.317443
C61	C	-0.372782	-1.357633	-0.182563
C62	C	0.127218	-0.857633	0.317437
N63	N	-0.340956	-1.430698	-0.224614
N64	N	0.159044	-0.930698	0.275386
C65	C	-0.372736	-1.503769	-0.266668
C66	C	0.127264	-1.003769	0.233332
C67	C	-0.760776	-1.357705	-0.182566
C68	C	-0.260776	-0.857705	0.317434
C69	C	-0.824381	-1.357705	-0.182570
C70	C	-0.324381	-0.857705	0.317430
C71	C	-0.824335	-1.503846	-0.266679
C72	C	-0.324335	-1.003846	0.233321
C73	C	-0.760729	-1.503840	-0.266677
C74	C	-0.260729	-1.003840	0.233323
C75	C	-0.728950	-1.430770	-0.224618
C76	C	-0.228950	-0.930770	0.275382
C77	C	-0.239165	-1.503729	-0.266665
C78	C	0.260835	-1.003729	0.233335
C79	C	-0.175556	-1.503702	-0.266663
C80	C	0.324444	-1.003702	0.233337
C81	C	-0.175608	-1.357566	-0.182553
C82	C	0.324392	-0.857566	0.317447
C83	C	-0.239211	-1.357587	-0.182557
C84	C	0.260789	-0.857587	0.317443
C85	C	-0.270988	-1.430678	-0.224615
C86	C	0.229012	-0.930678	0.275385
O87	O	-0.339856	-1.295493	-0.146828
O88	O	0.160144	-0.795493	0.353172
O89	O	-0.339817	-1.565916	-0.302425
O90	O	0.160183	-1.065916	0.197575
N91	N	0.143833	-1.430782	-0.224622
N92	N	0.643833	-0.930782	0.275378
C93	C	0.000032	-1.652334	-0.243182
C94	C	0.500032	-1.152334	0.256818
C95	C	0.000037	-1.786862	-0.258098
C96	C	0.500037	-1.286862	0.241902
C97	C	0.000032	-1.000222	-0.232322
C98	C	0.500032	-0.500222	0.267678
C99	C	0.000030	-0.861180	-0.216907
C100	C	0.500030	-0.361180	0.283093
C101	C	0.055121	-1.429206	0.334921
C102	C	0.555121	-0.929206	0.834921
C103	C	0.055124	-1.427682	0.394481
C104	C	0.555124	-0.927682	0.894481
O105	O	0.101969	-1.426878	0.425282
O106	O	0.601969	-0.926878	0.925282
N107	N	0.000042	-1.426895	0.424275
N108	N	0.500042	-0.926895	0.924275
C109	C	-0.055047	-1.427621	0.394506
C110	C	0.444953	-0.927621	0.894506
O111	O	-0.101898	-1.426811	0.425317
O112	O	0.398102	-0.926811	0.925317
C113	C	-0.055049	-1.429137	0.334948
C114	C	0.444951	-0.929137	0.834948
C115	C	0.000036	-1.429935	0.305156
C116	C	0.500036	-0.929935	0.805156
C117	C	0.110202	-1.430004	0.305129
C118	C	0.610202	-0.930004	0.805129
C119	C	0.110198	-1.431530	0.245573
C120	C	0.610198	-0.931530	0.745573
C121	C	0.055114	-1.432259	0.215809
C122	C	0.555114	-0.932259	0.715809
C123	C	0.000033	-1.431462	0.245600
C124	C	0.500033	-0.931462	0.745600
C125	C	-0.110137	-1.429853	0.305181
C126	C	0.389863	-0.929853	0.805181
C127	C	-0.110135	-1.431368	0.245618
C128	C	0.389865	-0.931368	0.745618
C129	C	-0.055050	-1.432167	0.215827
C130	C	0.444950	-0.932167	0.715827
C131	C	-0.055055	-1.433718	0.156280
C132	C	0.444945	-0.933718	0.656280
N133	N	0.000027	-1.434504	0.126486
N134	N	0.500027	-0.934504	0.626486
C135	C	0.055111	-1.433775	0.156251
C136	C	0.555111	-0.933775	0.656251
C137	C	-0.055037	-1.424436	0.519583
C138	C	0.444963	-0.924436	1.019583
C139	C	-0.055036	-1.422929	0.579140
C140	C	0.444964	-0.922929	1.079140
C141	C	0.055135	-1.422988	0.579110
C142	C	0.555135	-0.922988	1.079110
C143	C	0.055133	-1.424503	0.519552
C144	C	0.555133	-0.924503	1.019552
C145	C	0.000044	-1.425222	0.489789
C146	C	0.500044	-0.925222	0.989789
C147	C	0.055100	-1.436982	0.031179
C148	C	0.555100	-0.936982	0.531179
C149	C	0.055092	-1.438513	-0.028383
C150	C	0.555092	-0.938513	0.471617
C151	C	-0.055079	-1.438448	-0.028348
C152	C	0.444921	-0.938448	0.471652
C153	C	-0.055071	-1.436923	0.031208
C154	C	0.444929	-0.936923	0.531208
C155	C	0.000024	-1.436186	0.060970
C156	C	0.500024	-0.936186	0.560970
O157	O	-0.101876	-1.434517	0.125441
O158	O	0.398124	-0.934517	0.625441
O159	O	0.101955	-1.434569	0.125433
O160	O	0.601955	-0.934569	0.625433
C161	C	0.000043	-1.420565	0.672298
C162	C	0.500043	-0.920565	1.172298
C163	C	0.000049	-1.422193	0.608910
C164	C	0.500049	-0.922193	1.108910
H165	H	-0.149649	-1.563196	-0.300914
H166	H	0.350351	-1.063196	0.199086
H167	H	0.000036	-1.039531	-0.278994
H168	H	0.500036	-0.539531	0.221006
C169	C	-0.725730	-1.584220	-0.312940
C170	C	-0.225730	-1.084220	0.187060
N171	N	-0.699371	-1.644770	-0.347786
N172	N	-0.199371	-1.144770	0.152214
C173	C	-0.433245	-1.204221	-0.094231
C174	C	0.066755	-0.704221	0.405769
N175	N	-0.406919	-1.143669	-0.059384
N176	N	0.093081	-0.643669	0.440616
C177	C	-0.115667	-1.436056	0.063979
C178	C	0.384333	-0.936056	0.563979
N179	N	-0.161310	-1.435391	0.088659
N180	N	0.338690	-0.935391	0.588659
H181	H	-0.154996	-1.431936	0.221389
H182	H	0.345004	-0.931936	0.721389
H183	H	0.000040	-0.826164	-0.304772
H184	H	0.500040	-0.326164	0.195228
C185	C	-0.274111	-1.584121	-0.312936
C186	C	0.225889	-1.084121	0.187064
N187	N	-0.300431	-1.644663	-0.347791
N188	N	0.199569	-1.144663	0.152209
C189	C	-0.140637	-1.277388	-0.136225
C190	C	0.359363	-0.777388	0.363775
N191	N	-0.114296	-1.217075	-0.101302
N192	N	0.385704	-0.717075	0.398698
H193	H	0.099988	-1.422390	0.603356
H194	H	0.599988	-0.922390	1.103356
C195	C	-0.566674	-1.657232	-0.354998
C196	C	-0.066674	-1.157232	0.145002
N197	N	-0.592993	-1.717756	-0.389860
N198	N	-0.092993	-1.217756	0.110140
C199	C	0.000020	-0.808086	-0.153852
C200	C	0.500020	-0.308086	0.346148
N201	N	0.000014	-0.768094	-0.106359
N202	N	0.500014	-0.268094	0.393641
H203	H	-0.442218	-1.636347	-0.342969
H204	H	0.057782	-1.136347	0.157031
H205	H	0.000033	-1.035231	-0.144467
H206	H	0.500033	-0.535231	0.355533
C207	C	0.115693	-1.439388	-0.061149
C208	C	0.615693	-0.939388	0.438851
N209	N	0.161336	-1.440043	-0.085827
N210	N	0.661336	-0.940043	0.414173
H211	H	-0.265123	-1.298080	-0.148316
H212	H	0.234877	-0.798080	0.351684
C213	C	0.115707	-1.436192	0.063907
C214	C	0.615707	-0.936192	0.563907
N215	N	0.161356	-1.435610	0.088558
N216	N	0.661356	-0.935610	0.588558
C217	C	-0.725825	-1.277301	-0.136301
C218	C	-0.225825	-0.777301	0.363699
N219	N	-0.699503	-1.216740	-0.101454
N220	N	-0.199503	-0.716740	0.398546
C221	C	0.170797	-1.432395	0.212811
C222	C	0.670797	-0.932395	0.712811
N223	N	0.216444	-1.433041	0.188139
N224	N	0.716444	-0.933041	0.688139
H225	H	0.155061	-1.429405	0.329357
H226	H	0.655061	-0.929405	0.829357
H227	H	-0.850222	-1.563344	-0.300922
H228	H	-0.350222	-1.063344	0.199078
C229	C	-0.859380	-1.277318	-0.136309
C230	C	-0.359380	-0.777318	0.363691
N231	N	-0.885738	-1.216773	-0.101461
N232	N	-0.385738	-0.716773	0.398539
H233	H	0.099988	-1.425152	0.495300
H234	H	0.599988	-0.925152	0.995300
C235	C	-0.115634	-1.422063	0.611903
C236	C	0.384366	-0.922063	1.111903
N237	N	-0.161279	-1.421401	0.636579
N238	N	0.338721	-0.921401	1.136579
C239	C	-0.115669	-1.439238	-0.061099
C240	C	0.384331	-0.939238	0.438901
N241	N	-0.161305	-1.439821	-0.085769
N242	N	0.338695	-0.939821	0.414231
H243	H	-0.099900	-1.425025	0.495353
H244	H	0.400100	-0.925025	0.995353
H245	H	-0.557708	-1.225117	-0.106250
H246	H	-0.057708	-0.725117	0.393750
H247	H	-0.154994	-1.429205	0.329426
H248	H	0.345006	-0.929205	0.829426
