data_functionalizedCrystal
_audit_creation_method	'MofGen! by Chris Wilmer'
_symmetry_space_group_name_H-M	'P1'
_symmetry_Int_Tables_number	1
_symmetry_cell_setting	triclinic
loop_
_symmetry_equiv_pos_as_xyz
  x,y,z
_cell_length_a	18.426585
_cell_length_b	23.196402
_cell_length_c	23.196401
_cell_angle_alpha	60.008822
_cell_angle_beta	90.013019
_cell_angle_gamma	60.001912
loop_
_atom_site_label
_atom_site_type_symbol
_atom_site_fract_x
_atom_site_fract_y
_atom_site_fract_z
Zr1	Zr	0.699110	0.631022	-0.075641
O2	O	0.583210	0.751285	-0.167686
O3	O	0.734636	0.510758	-0.047429
O4	O	0.734604	0.631025	-0.167694
O5	O	0.583270	0.631017	0.047451
O6	O	0.854030	0.631029	-0.167696
O7	O	0.583242	0.631018	-0.047420
O8	O	0.854088	0.415893	0.047436
O9	O	0.583213	0.846153	-0.167682
O10	O	0.838918	0.560228	-0.035394
O11	O	0.749813	0.560224	0.035410
O12	O	0.749775	0.701823	-0.106187
O13	O	0.660670	0.701819	-0.035384
Zr14	Zr	0.889626	0.631027	0.075664
Zr15	Zr	0.889580	0.631029	-0.075645
Zr16	Zr	0.699155	0.631020	0.075667
Zr17	Zr	0.699115	0.782325	-0.075635
Zr18	Zr	0.889621	0.479724	0.075657
O19	O	0.854099	0.751291	0.047451
O20	O	0.854034	0.751294	-0.167691
O21	O	0.583275	0.751282	0.047456
O22	O	1.005526	0.510764	0.167708
O23	O	1.005461	0.510767	-0.047434
O24	O	0.734701	0.510755	0.167713
O25	O	1.005465	0.631032	-0.047429
O26	O	0.854131	0.631024	0.167716
O27	O	0.734705	0.631020	0.167718
O28	O	1.005494	0.631031	0.047442
O29	O	0.734612	0.846158	-0.167685
O30	O	0.854124	0.415891	0.167707
O31	O	1.005522	0.415896	0.167704
O32	O	1.005486	0.415898	0.047433
O33	O	0.583249	0.846151	-0.047411
O34	O	0.734648	0.846156	-0.047414
O35	O	0.838960	0.560226	0.106209
O36	O	0.928065	0.560230	0.035406
O37	O	0.838923	0.701825	-0.035388
O38	O	0.749818	0.701821	0.035416
C39	C	0.794361	0.441768	0.000003
C40	C	0.794359	0.377536	0.000000
C41	C	0.840865	0.347368	-0.036961
C42	C	0.840873	0.287007	-0.036955
C43	C	0.794359	0.256828	0.000002
C44	C	0.747851	0.287000	0.036971
C45	C	0.747851	0.347355	0.036970
C46	C	0.716430	0.194796	-0.005271
C47	C	0.716428	0.134447	-0.005275
C48	C	0.794360	0.070673	0.000009
C49	C	0.872294	0.067264	0.005283
C50	C	0.872294	0.127618	0.005282
C51	C	0.794354	0.191384	0.000008
C52	C	0.840879	-0.024946	-0.036948
C53	C	0.840890	-0.085312	-0.036937
C54	C	0.747859	-0.085311	0.036985
C55	C	0.747857	-0.024953	0.036979
C56	C	0.794365	0.005229	0.000009
C57	C	0.556118	0.631016	0.000016
C58	C	0.475258	0.631014	0.000017
C59	C	0.179144	0.631038	0.000005
C60	C	0.261530	0.631035	0.000007
C61	C	0.327198	0.631026	0.000011
C62	C	0.409590	0.631022	0.000013
C63	C	1.032617	0.631033	0.000006
C64	C	1.113477	0.631035	0.000005
C65	C	0.794311	0.631027	-0.189253
C66	C	0.794291	0.631028	-0.253488
C67	C	0.794374	0.820281	0.000019
C68	C	0.794377	0.884513	0.000022
C69	C	0.747764	0.704937	-0.320614
C70	C	0.747787	0.704938	-0.380970
C71	C	0.794325	0.631026	-0.374194
C72	C	0.840862	0.557108	-0.307056
C73	C	0.840845	0.557109	-0.246702
C74	C	0.787714	0.574398	-0.441514
C75	C	0.787724	0.574400	-0.501867
C76	C	0.794381	0.631020	-0.560342
C77	C	0.801009	0.687652	-0.558462
C78	C	0.800993	0.687653	-0.498109
C79	C	0.794348	0.631017	-0.439633
C80	C	0.747876	0.704935	-0.692915
C81	C	0.747905	0.704933	-0.753270
C82	C	0.840974	0.557101	-0.679354
C83	C	0.840951	0.557105	-0.619001
C84	C	0.794397	0.631024	-0.625786
C85	C	0.794425	0.631022	0.189275
C86	C	0.794444	0.631021	0.253510
C87	C	1.032611	0.441776	-0.000002
C88	C	1.113468	0.377547	-0.000006
C89	C	0.794418	0.441765	0.189267
C90	C	0.794435	0.377532	0.253499
C91	C	1.032668	0.441773	0.189262
C92	C	1.113545	0.377543	0.253493
C93	C	0.556068	0.820276	-0.189240
C94	C	0.475191	0.884506	-0.253471
C95	C	0.556125	0.820273	0.000024
C96	C	0.475267	0.884502	0.000028
C97	C	0.794317	0.820284	-0.189245
C98	C	0.794300	0.884517	-0.253477
C99	C	1.104906	0.347383	-0.036971
C100	C	1.180873	0.287042	-0.036990
C101	C	1.265401	0.256861	-0.000038
C102	C	1.273962	0.287030	0.036928
C103	C	1.197996	0.347375	0.036942
C104	C	0.840977	0.347369	0.320626
C105	C	0.840990	0.287024	0.380985
C106	C	0.794465	0.256839	0.374214
C107	C	0.747918	0.287009	0.307080
C108	C	0.747900	0.347357	0.246724
C109	C	1.198045	0.347382	0.246697
C110	C	1.274045	0.287040	0.307043
C111	C	1.265542	0.256855	0.374183
C112	C	1.181033	0.287022	0.380977
C113	C	1.105035	0.347368	0.320632
C114	C	0.390690	0.914674	-0.246675
C115	C	0.314691	0.975035	-0.307021
C116	C	0.323194	1.005223	-0.374161
C117	C	0.407703	0.975052	-0.380955
C118	C	0.483701	0.914696	-0.320610
C119	C	0.483830	0.914672	0.036987
C120	C	0.407863	0.975030	0.036989
C121	C	0.323334	1.005213	0.000035
C122	C	0.314773	0.975041	-0.036928
C123	C	0.390740	0.914688	-0.036933
C124	C	0.840834	0.914682	-0.246684
C125	C	0.840835	0.975028	-0.307031
C126	C	0.794297	1.005211	-0.374170
C127	C	0.747762	0.975039	-0.380961
C128	C	0.747766	0.914691	-0.320615
H129	H	0.878737	0.371938	-0.067062
N130	N	1.365184	0.254495	0.299703
H131	H	1.412045	0.211686	0.348115
H132	H	1.372213	0.300588	0.273004
H133	H	0.245940	0.999625	-0.067015
H134	H	0.878754	0.496928	-0.301543
N135	N	0.697569	0.784661	-0.327930
H136	H	0.632484	0.816977	-0.354606
H137	H	0.722047	0.816905	-0.354557
N138	N	0.697569	1.007597	-0.453377
H139	H	0.704630	1.050407	-0.490570
H140	H	0.632504	1.032599	-0.458970
H141	H	1.036234	0.371917	0.326175
H142	H	1.327432	0.207718	0.423313
H143	H	1.174123	0.262437	0.435650
H144	H	0.552503	0.890134	-0.326151
N145	N	0.223546	1.007568	-0.299690
H146	H	0.216445	1.032592	-0.273015
H147	H	0.216498	0.961480	-0.273056
H148	H	0.652959	0.246731	-0.009588
H149	H	0.383755	0.890125	-0.067028
N150	N	0.697687	0.254450	0.076838
H151	H	0.704742	0.211639	0.071229
H152	H	0.632621	0.300539	0.057438
H153	H	0.709869	0.890136	-0.326156
N154	N	0.891210	0.254478	0.453388
H155	H	0.848559	0.264984	0.480084
H156	H	0.920687	0.282766	0.448456
H157	H	0.414615	0.999639	-0.435627
N158	N	1.365139	0.254460	0.076786
H159	H	1.372278	0.229410	0.128488
H160	H	1.372217	0.300529	0.057356
N161	N	0.381507	0.882119	-0.174265
H162	H	0.316439	0.910399	-0.179127
H163	H	0.411017	0.892617	-0.147611
N164	N	0.241221	1.070321	-0.439244
H165	H	0.186402	1.084845	-0.424744
H166	H	0.241247	1.049274	-0.468269
N167	N	0.891031	0.882136	-0.174275
H168	H	0.920509	0.910408	-0.179140
H169	H	0.937805	0.821553	-0.147628
H170	H	0.878864	0.371939	0.326152
N171	N	0.808170	0.748747	-0.621522
H172	H	0.863089	0.718987	-0.631671
H173	H	0.812321	0.784595	-0.611110
N174	N	1.207238	0.379903	0.076816
H175	H	1.272315	0.351621	0.100221
H176	H	1.177762	0.369390	0.113977
H177	H	0.552650	0.890101	0.067084
N178	N	0.417108	1.007565	0.076859
H179	H	0.482185	0.979276	0.100272
H180	H	0.387621	0.997065	0.114013
H181	H	0.782287	0.528292	-0.393905
H182	H	0.878728	0.999587	-0.301488
H183	H	0.794487	0.207700	0.423367
N184	N	1.207233	0.379938	0.174288
H185	H	1.146272	0.422745	0.137084
H186	H	1.240833	0.333849	0.168694
H187	H	0.710038	0.262423	0.301579
H188	H	0.261485	1.054357	0.000045
N189	N	0.891028	0.477386	-0.174299
H190	H	0.848351	0.474089	-0.147626
H191	H	0.937836	0.474143	-0.147653
H192	H	0.710003	0.371908	0.192068
H193	H	0.794300	1.054351	-0.423302
H194	H	0.878745	0.262439	-0.067054
N195	N	0.632386	0.138105	-0.010950
H196	H	0.642894	0.087323	0.032202
H197	H	0.614997	0.141815	-0.054590
H198	H	0.935752	0.124838	0.009578
H199	H	0.878752	-0.000374	-0.067049
N200	N	0.956355	-0.001514	0.010981
H201	H	0.973786	-0.055278	0.054602
H202	H	1.005664	0.005560	0.014291
N203	N	0.891052	-0.117857	-0.076802
H204	H	0.956140	-0.142887	-0.057426
H205	H	0.866555	-0.071776	-0.128494
N206	N	0.697697	-0.117859	0.076854
H207	H	0.704755	-0.160673	0.071249
H208	H	0.632630	-0.071771	0.057453
N209	N	0.697691	0.007587	0.076845
H210	H	0.632603	0.032623	0.057462
H211	H	0.704817	0.050368	0.071228
H212	H	0.709978	0.371918	0.067069
H213	H	0.806392	0.733763	-0.496582
N214	N	0.697602	0.784657	-0.453382
H215	H	0.668109	0.831484	-0.448522
H216	H	0.650841	0.787865	-0.480041
H217	H	0.710020	0.765121	-0.807929
N218	N	0.697670	0.784657	-0.700225
H219	H	0.668203	0.831480	-0.751912
H220	H	0.740378	0.787879	-0.676777
H221	H	0.878834	0.496920	-0.564342
N222	N	0.891180	0.477379	-0.672035
H223	H	0.848527	0.474072	-0.695440
H224	H	0.920649	0.430606	-0.620334
N225	N	0.780594	0.513312	-0.503889
H226	H	0.776394	0.477432	-0.457683
H227	H	0.834939	0.478549	-0.511532
H228	H	1.173885	0.262485	-0.067092
N229	N	1.013743	0.379925	-0.076829
H230	H	0.966909	0.422730	-0.071214
H231	H	1.006720	0.333827	-0.057425
N232	N	1.347332	0.191776	-0.000057
H233	H	1.329073	0.177250	-0.029083
H234	H	1.383883	0.141735	0.050012
