data_functionalizedCrystal
_audit_creation_method	'MofGen! by Chris Wilmer'
_symmetry_space_group_name_H-M	'P1'
_symmetry_Int_Tables_number	1
_symmetry_cell_setting	triclinic
loop_
_symmetry_equiv_pos_as_xyz
  x,y,z
_cell_length_a	16.120530
_cell_length_b	21.395361
_cell_length_c	21.395355
_cell_angle_alpha	90.021511
_cell_angle_beta	87.079043
_cell_angle_gamma	92.874023
loop_
_atom_site_label
_atom_site_type_symbol
_atom_site_fract_x
_atom_site_fract_y
_atom_site_fract_z
Zn1	Zn	1.274542	0.298157	-0.402756
Zn2	Zn	1.274412	0.402911	-0.297968
Zn3	Zn	1.135113	0.292835	-0.292686
Zn4	Zn	1.135072	0.397577	-0.397405
O5	O	1.204785	0.347870	-0.347704
O6	O	1.391190	0.316512	-0.393305
O7	O	1.255897	0.388315	-0.209588
O8	O	1.153680	0.205866	-0.307316
O9	O	1.391095	0.393475	-0.316318
O10	O	1.256118	0.209776	-0.388183
O11	O	1.153554	0.307442	-0.205707
O12	O	1.018442	0.302270	-0.302127
O13	O	1.153610	0.384383	-0.485794
O14	O	1.018412	0.379223	-0.379064
O15	O	1.256078	0.311340	-0.489725
O16	O	1.255857	0.489879	-0.311129
O17	O	1.153484	0.485960	-0.384185
C18	C	0.988177	0.339591	-0.339442
C19	C	0.895511	0.336064	-0.335923
C20	C	1.204675	0.510654	-0.347664
C21	C	1.204704	0.580296	-0.347672
C22	C	1.204854	0.347860	-0.511129
C23	C	1.204884	0.347856	-0.580772
C24	C	0.725850	0.329610	-0.329503
C25	C	0.684560	0.366176	-0.365950
C26	C	0.590155	0.362585	-0.362378
C27	C	0.820264	0.333200	-0.333074
C28	C	1.422238	0.356182	-0.355998
C29	C	1.514904	0.359724	-0.359532
C30	C	1.204918	0.184452	-0.347757
C31	C	1.204975	0.114813	-0.347780
C32	C	1.258056	0.615031	-0.309674
C33	C	1.258095	0.680468	-0.309690
C34	C	1.204767	0.711167	-0.347695
C35	C	1.151410	0.676424	-0.385701
C36	C	1.151379	0.610988	-0.385689
C37	C	1.129700	0.812017	-0.349748
C38	C	1.129730	0.877451	-0.349756
C39	C	1.204864	0.912991	-0.347736
C40	C	1.279969	0.883089	-0.345695
C41	C	1.279938	0.817654	-0.345683
C42	C	1.204795	0.782120	-0.347713
C43	C	1.258263	1.018680	-0.309753
C44	C	1.258303	1.084118	-0.309773
C45	C	1.151611	1.080073	-0.385781
C46	C	1.151578	1.014636	-0.385764
C47	C	1.204903	0.983944	-0.347747
C48	C	1.258236	0.309820	-0.615533
C49	C	1.258235	0.309793	-0.680968
C50	C	1.204890	0.347813	-0.711641
C51	C	1.151527	0.385851	-0.676871
C52	C	1.151524	0.385873	-0.611437
C53	C	1.198269	0.403976	-0.815051
C54	C	1.198278	0.403956	-0.880484
C55	C	1.204895	0.347747	-0.913462
C56	C	1.211521	0.291558	-0.880998
C57	C	1.211517	0.291579	-0.815564
C58	C	1.204887	0.347794	-0.782593
C59	C	1.258249	0.309679	-1.019175
C60	C	1.258242	0.309651	-1.084612
C61	C	1.151539	0.385715	-1.080513
C62	C	1.151541	0.385737	-1.015078
C63	C	1.204901	0.347721	-0.984413
C64	C	1.204764	0.347837	-0.184915
C65	C	1.204896	0.347671	-0.115279
H66	H	0.720111	0.400177	-0.399837
C67	C	0.677830	0.283686	-0.283722
H68	H	0.619760	0.287275	-0.287294
H69	H	0.692078	0.242130	-0.293490
H70	H	0.692011	0.293332	-0.242133
C71	C	1.092845	0.427723	-0.573199
H72	H	1.061078	0.450367	-0.600835
H73	H	1.056539	0.402382	-0.546275
H74	H	1.124728	0.456251	-0.548901
C75	C	1.316721	0.581273	-0.267865
H76	H	1.348507	0.611336	-0.245241
H77	H	1.284839	0.554563	-0.239325
H78	H	1.353023	0.557098	-0.293240
C79	C	1.191001	0.465760	-0.916192
H80	H	1.191964	0.457700	-0.959885
H81	H	1.140230	0.483859	-0.903524
H82	H	1.236336	0.493850	-0.907201
H83	H	1.301686	0.993689	-0.278800
H84	H	1.108193	1.105067	-0.416729
H85	H	1.107991	0.701423	-0.416646
C86	C	1.316782	0.718686	-0.267891
H87	H	1.309166	0.762053	-0.273347
H88	H	1.304602	0.707530	-0.225320
H89	H	1.372792	0.710060	-0.279230
H90	H	1.216910	0.245787	-0.907847
C91	C	1.092684	0.572778	-0.427484
H92	H	1.060925	0.600431	-0.450120
H93	H	1.124544	0.548429	-0.456012
H94	H	1.056358	0.545907	-0.402099
C95	C	1.362547	0.784764	-0.343448
H96	H	1.407303	0.815297	-0.342252
H97	H	1.361479	0.759214	-0.307086
H98	H	1.369832	0.759495	-0.379642
C99	C	1.047119	0.910337	-0.352000
H100	H	1.002369	0.879800	-0.353214
H101	H	1.039820	0.935608	-0.315815
H102	H	1.048197	0.935884	-0.388369
C103	C	1.362621	0.922174	-0.343478
H104	H	1.351888	0.965428	-0.343786
H105	H	1.389303	0.912475	-0.306368
H106	H	1.397658	0.912741	-0.378923
C107	C	1.316993	1.122327	-0.267973
H108	H	1.348739	1.094673	-0.245328
H109	H	1.353319	1.149201	-0.293349
H110	H	1.285123	1.146673	-0.239444
C111	C	1.092885	0.976423	-0.427556
H112	H	1.100508	0.933056	-0.422110
H113	H	1.036880	0.985051	-0.416220
H114	H	1.105071	0.987581	-0.470130
H115	H	1.192657	0.449728	-0.788198
C116	C	1.092853	0.427676	-0.710608
H117	H	1.100503	0.422221	-0.754558
H118	H	1.036843	0.416371	-0.697739
H119	H	1.105026	0.470244	-0.700347
C120	C	1.047049	0.772928	-0.351975
H121	H	1.002325	0.800107	-0.353184
H122	H	1.048097	0.747423	-0.388330
H123	H	1.039731	0.747147	-0.315776
H124	H	1.301685	0.278863	-0.590570
C125	C	1.316931	0.267957	-0.719213
H126	H	1.348713	0.245323	-0.691579
H127	H	1.285071	0.239430	-0.743522
H128	H	1.353236	0.293316	-0.746127
H129	H	1.216910	0.245827	-0.789134
H130	H	1.301693	0.278720	-0.994206
C131	C	1.316934	0.267810	-1.122849
H132	H	1.348716	0.245178	-1.095212
H133	H	1.285071	0.239280	-1.147153
H134	H	1.353239	0.293164	-1.149767
C135	C	1.092866	0.427541	-1.114245
H136	H	1.100513	0.422085	-1.158195
H137	H	1.036855	0.416240	-1.101375
H138	H	1.105044	0.470108	-1.103985
H139	H	1.108101	0.416714	-0.986775
