data_functionalizedCrystal
_audit_creation_method	'MofGen! by Chris Wilmer'
_symmetry_space_group_name_H-M	'P1'
_symmetry_Int_Tables_number	1
_symmetry_cell_setting	triclinic
loop_
_symmetry_equiv_pos_as_xyz
  x,y,z
_cell_length_a	15.297475
_cell_length_b	15.297327
_cell_length_c	15.298431
_cell_angle_alpha	88.343933
_cell_angle_beta	88.369029
_cell_angle_gamma	91.625546
loop_
_atom_site_label
_atom_site_type_symbol
_atom_site_fract_x
_atom_site_fract_y
_atom_site_fract_z
Zn1	Zn	1.169574	-0.425830	-0.785800
Zn2	Zn	1.161160	-0.596506	-0.663007
Zn3	Zn	1.046787	-0.434120	-0.615178
Zn4	Zn	0.998872	-0.548504	-0.777479
O5	O	1.094098	-0.501240	-0.710366
O6	O	1.287763	-0.465090	-0.793011
O7	O	1.162519	-0.598524	-0.537349
O8	O	1.086648	-0.313722	-0.621277
O9	O	1.281581	-0.590485	-0.702795
O10	O	1.176860	-0.307631	-0.746633
O11	O	1.078490	-0.479220	-0.502209
O12	O	0.921126	-0.432674	-0.613208
O13	O	1.004985	-0.508672	-0.897896
O14	O	0.885923	-0.516711	-0.732450
O15	O	1.130399	-0.418544	-0.904010
O16	O	1.116059	-0.709437	-0.694726
O17	O	0.996826	-0.674170	-0.778828
C18	C	0.872590	-0.470384	-0.666737
C19	C	0.777820	-0.457200	-0.648095
C20	C	0.437444	-0.595473	-0.843604
C21	C	0.526483	-0.607867	-0.861117
C22	C	0.589322	-0.570201	-0.807863
C23	C	0.563112	-0.520140	-0.737093
C24	C	0.474064	-0.507750	-0.719574
C25	C	0.625942	-0.482478	-0.683833
C26	C	0.599733	-0.432416	-0.613063
C27	C	0.510692	-0.420029	-0.595547
C28	C	0.447854	-0.457695	-0.648801
C29	C	0.714990	-0.494867	-0.701353
C30	C	0.751610	-0.407144	-0.577322
C31	C	0.662571	-0.394750	-0.559809
C32	C	1.050351	-0.722736	-0.741088
C33	C	1.031709	-0.817498	-0.754274
C34	C	1.227642	-1.157935	-0.616479
C35	C	1.245157	-1.068902	-0.604085
C36	C	1.191797	-1.006047	-0.641632
C37	C	1.120918	-1.032233	-0.691574
C38	C	1.103398	-1.121275	-0.703963
C39	C	1.067552	-0.969387	-0.729116
C40	C	0.996674	-0.995573	-0.779058
C41	C	0.979157	-1.084606	-0.791445
C42	C	1.032517	-1.147461	-0.753899
C43	C	1.085073	-0.880345	-0.716726
C44	C	0.960828	-0.843684	-0.804210
C45	C	0.943314	-0.932717	-0.816604
C46	C	1.316472	-0.532217	-0.754166
C47	C	1.411234	-0.545418	-0.772831
C48	C	1.063286	-0.457329	-0.932755
C49	C	1.050155	-0.438616	-1.027524
C50	C	1.138037	-0.278879	-0.679548
C51	C	1.156762	-0.184122	-0.666415
C52	C	1.000236	-0.367707	-1.053743
C53	C	0.987888	-0.350125	-1.142781
C54	C	1.025464	-0.403447	-1.205609
C55	C	1.075389	-0.474355	-1.179390
C56	C	1.087733	-0.491942	-1.090343
C57	C	1.112961	-0.527683	-1.242208
C58	C	1.162887	-0.598590	-1.215989
C59	C	1.175228	-0.616174	-1.126951
C60	C	1.137652	-0.562852	-1.064123
C61	C	1.100617	-0.510095	-1.331255
C62	C	1.188114	-0.634331	-1.367855
C63	C	1.200462	-0.651912	-1.278817
C64	C	1.124852	-0.544926	-0.488843
C65	C	1.138195	-0.563421	-0.394074
H66	H	0.802775	-0.376475	-0.533958
H67	H	0.947235	-0.292394	-1.164122
F68	F	0.482801	-0.366756	-0.520221
F69	F	0.904031	-0.776793	-0.844167
H70	H	1.271076	-1.209119	-0.585908
F71	F	1.160505	-0.852486	-0.663575
F72	F	0.634666	-0.341472	-0.484492
H73	H	1.147707	-0.577160	-0.991620
H74	H	1.302865	-1.047585	-0.563422
H75	H	1.206061	-0.933553	-0.631536
F76	F	1.228105	-0.691086	-1.434716
H77	H	1.215868	-0.673921	-1.105606
H78	H	0.661821	-0.580295	-0.822127
H79	H	1.241112	-0.709646	-1.257456
H80	H	1.059969	-0.452360	-1.352593
H81	H	0.921435	-1.105923	-0.832100
H82	H	1.018262	-1.219961	-0.763990
F83	F	0.742874	-0.548145	-0.776670
H84	H	0.547816	-0.648630	-0.918737
H85	H	0.386274	-0.626142	-0.886951
H86	H	0.885604	-0.954051	-0.857267
H87	H	1.015408	-0.389127	-1.278107
H88	H	0.375349	-0.447605	-0.634547
F89	F	0.960263	-0.310957	-0.986876
