data_functionalizedCrystal
_audit_creation_method	'MofGen! by Chris Wilmer'
_symmetry_space_group_name_H-M	'P1'
_symmetry_Int_Tables_number	1
_symmetry_cell_setting	triclinic
loop_
_symmetry_equiv_pos_as_xyz
  x,y,z
_cell_length_a	20.453700
_cell_length_b	10.943632
_cell_length_c	19.551833
_cell_angle_alpha	85.542695
_cell_angle_beta	78.336523
_cell_angle_gamma	108.838880
loop_
_atom_site_label
_atom_site_type_symbol
_atom_site_fract_x
_atom_site_fract_y
_atom_site_fract_z
V1	V	-1.344626	-0.179983	0.217841
O2	O	-1.331045	0.007256	0.213712
O3	O	-1.337464	-0.355537	0.216335
O4	O	-1.325414	-0.177826	0.312857
O5	O	-1.343178	-0.171685	0.116521
V6	V	-1.505072	-0.157515	0.205724
O7	O	-1.433310	-0.229269	0.244420
O8	O	-1.566453	-0.108229	0.179146
O9	O	-1.437831	0.018039	0.207231
O10	O	-1.557785	-0.344755	0.209854
O11	O	-1.545651	-0.165813	0.307044
O12	O	-1.449882	-0.159672	0.110709
V13	V	-1.011293	-0.179983	0.217841
O14	O	-0.997711	0.007256	0.213712
O15	O	-1.004131	-0.355537	0.216335
O16	O	-0.992080	-0.177826	0.312857
O17	O	-1.009845	-0.171685	0.116521
V18	V	-1.171738	-0.157515	0.205724
O19	O	-1.099977	-0.229269	0.244420
O20	O	-1.233120	-0.108229	0.179146
O21	O	-1.104498	0.018039	0.207231
O22	O	-1.224452	-0.344755	0.209854
O23	O	-1.212318	-0.165813	0.307044
O24	O	-1.116548	-0.159672	0.110709
V25	V	-0.677959	-0.179983	0.217841
O26	O	-0.664378	0.007256	0.213712
O27	O	-0.670797	-0.355537	0.216335
O28	O	-0.658747	-0.177826	0.312857
O29	O	-0.676512	-0.171685	0.116521
V30	V	-0.838405	-0.157515	0.205724
O31	O	-0.766644	-0.229269	0.244420
O32	O	-0.899786	-0.108229	0.179146
O33	O	-0.771165	0.018039	0.207231
O34	O	-0.891118	-0.344755	0.209854
O35	O	-0.878985	-0.165813	0.307044
O36	O	-0.783215	-0.159672	0.110709
C37	C	-1.288080	-0.398314	0.212894
C38	C	-1.309299	-0.541836	0.212295
C39	C	-1.258078	-0.618964	0.208316
C40	C	-1.291401	-0.691260	0.151910
C41	C	-1.313794	-0.725271	0.267643
C42	C	-1.342334	-0.612227	0.155849
C43	C	-1.364726	-0.646246	0.271633
C44	C	-1.398087	-0.718504	0.215216
C45	C	-1.272708	-0.171624	0.336016
C46	C	-1.284154	-0.171022	0.413692
C47	C	-1.374997	0.060809	0.210670
C48	C	-1.346856	0.204329	0.211273
C49	C	-1.390368	-0.165878	0.087545
C50	C	-1.372002	-0.166474	0.009869
C51	C	-0.954746	-0.398314	0.212894
C52	C	-0.975966	-0.541836	0.212295
C53	C	-1.350453	-0.177220	0.453739
C54	C	-1.361208	-0.176654	0.526723
C55	C	-1.305664	-0.169916	0.559660
C56	C	-1.239353	-0.163711	0.519604
C57	C	-1.228598	-0.164263	0.446619
C58	C	-1.288317	-0.240116	0.678966
C59	C	-1.299075	-0.239571	0.751949
C60	C	-1.338832	-0.168205	0.784767
C61	C	-1.367842	-0.097401	0.744595
C62	C	-1.357087	-0.097954	0.671611
C63	C	-1.317319	-0.169315	0.638799
C64	C	-1.416797	-0.173788	0.903952
C65	C	-1.427548	-0.173214	0.976937
C66	C	-1.305693	-0.160283	0.969817
C67	C	-1.294942	-0.160844	0.896833
C68	C	-1.350497	-0.167603	0.863905
C69	C	-0.939375	-0.171624	0.336016
C70	C	-0.950820	-0.171022	0.413692
C71	C	-1.041663	0.060809	0.210670
C72	C	-1.013523	0.204329	0.211273
C73	C	-1.057035	-0.165878	0.087545
C74	C	-1.038668	-0.166474	0.009869
C75	C	-0.621413	-0.398314	0.212894
C76	C	-0.642633	-0.541836	0.212295
C77	C	-0.606041	-0.171624	0.336016
C78	C	-0.617487	-0.171022	0.413692
C79	C	-0.708330	0.060809	0.210670
C80	C	-0.680190	0.204329	0.211273
C81	C	-0.723702	-0.165878	0.087545
C82	C	-0.705335	-0.166474	0.009869
C83	C	-1.017123	-0.177198	0.453730
C84	C	-1.027884	-0.176616	0.526714
C85	C	-0.972343	-0.169866	0.559658
C86	C	-0.906035	-0.163685	0.519615
C87	C	-0.895273	-0.164258	0.446632
C88	C	-0.972721	-0.173209	-0.023058
C89	C	-0.955451	-0.173754	-0.096043
C90	C	-1.004132	-0.167572	-0.136101
C91	C	-1.070084	-0.160832	-0.103169
C92	C	-1.087351	-0.160279	-0.030186
C93	C	-0.683790	-0.177198	0.453730
C94	C	-0.694551	-0.176616	0.526714
C95	C	-0.639010	-0.169866	0.559658
C96	C	-0.572702	-0.163685	0.519615
C97	C	-0.561940	-0.164258	0.446632
C98	C	-0.639388	-0.173209	-0.023058
C99	C	-0.622118	-0.173754	-0.096043
C100	C	-0.670798	-0.167572	-0.136101
C101	C	-0.736750	-0.160832	-0.103169
C102	C	-0.754017	-0.160279	-0.030186
C103	C	-0.924745	-0.618964	0.208316
C104	C	-0.958068	-0.691260	0.151910
C105	C	-0.980460	-0.725271	0.267643
C106	C	-1.009000	-0.612227	0.155849
C107	C	-1.031393	-0.646246	0.271633
C108	C	-1.064754	-0.718504	0.215216
C109	C	-0.591412	-0.618964	0.208316
C110	C	-0.624735	-0.691260	0.151910
C111	C	-0.647127	-0.725271	0.267643
C112	C	-0.675667	-0.612227	0.155849
C113	C	-0.698059	-0.646246	0.271633
C114	C	-0.731420	-0.718504	0.215216
H115	H	-1.198680	-0.575461	0.205333
F116	F	-1.498116	-0.179807	1.019558
H117	H	-1.194129	-0.158221	0.546425
F118	F	-0.917840	-0.718045	0.085759
H119	H	-1.141054	-0.154802	-0.003382
F120	F	-1.251174	-0.718045	0.085759
H121	H	-0.527484	-0.158190	0.546449
F122	F	-0.491371	-0.157698	0.404028
F123	F	-1.357812	-0.548102	0.094026
H124	H	-0.865347	-0.575461	0.205333
H125	H	-1.457477	-0.761747	0.218113
H126	H	-0.729022	-0.182698	0.426917
F127	F	-1.158031	-0.157670	0.403997
F128	F	-0.587567	-0.179789	0.019562
F129	F	-0.824213	-0.153126	0.004851
F130	F	-1.024479	-0.548102	0.094026
F131	F	-1.142381	-0.775030	0.219005
H132	H	-1.415200	-0.181708	0.559336
F133	F	-0.551925	-0.180936	-0.131077
F134	F	-0.584507	-0.718045	0.085759
F135	F	-1.475921	-0.180972	0.868905
F136	F	-0.765127	-0.183202	0.569319
H137	H	-1.062146	-0.625770	0.322258
H138	H	-1.395479	-0.625770	0.322258
H139	H	-1.255935	-0.298223	0.652251
F140	F	-1.121889	-0.154264	-0.145810
F141	F	-1.246574	-0.153093	1.004865
H142	H	-0.656733	-0.168040	-0.195527
F143	F	-1.098460	-0.183202	0.569319
F144	F	-0.885258	-0.180936	-0.131077
H145	H	-1.240956	-0.155811	0.864227
H146	H	-0.647783	-0.169400	0.619087
H147	H	-0.776381	-0.155796	-0.135795
F148	F	-1.298280	-0.789582	0.329382
H149	H	-0.532013	-0.575461	0.205333
F150	F	-0.691146	-0.548102	0.094026
F151	F	-0.964946	-0.789582	0.329382
H152	H	-1.275457	-0.297232	0.784653
F153	F	-0.809048	-0.775030	0.219005
F154	F	-0.738255	-0.619477	0.337804
F155	F	-1.409580	-0.184407	0.418699
H156	H	-1.062356	-0.182698	0.426917
H157	H	-1.380708	-0.040301	0.638905
H158	H	-0.981116	-0.169400	0.619087
H159	H	-1.400217	-0.039292	0.771314
F160	F	-0.846932	-0.156514	0.554688
H161	H	-0.841282	-0.159232	0.414038
H162	H	-0.933074	-0.178243	0.009548
F163	F	-0.985745	-0.168166	-0.213777
H164	H	-0.635255	-0.774485	0.314872
