data_functionalizedCrystal
_audit_creation_method	'MofGen! by Chris Wilmer'
_symmetry_space_group_name_H-M	'P1'
_symmetry_Int_Tables_number	1
_symmetry_cell_setting	triclinic
loop_
_symmetry_equiv_pos_as_xyz
  x,y,z
_cell_length_a	10.908937
_cell_length_b	22.010155
_cell_length_c	11.026607
_cell_angle_alpha	89.992657
_cell_angle_beta	84.335986
_cell_angle_gamma	90.008385
loop_
_atom_site_label
_atom_site_type_symbol
_atom_site_fract_x
_atom_site_fract_y
_atom_site_fract_z
O1	O	1.662453	0.050544	-0.179077
O2	O	1.309521	0.050540	-0.088540
O3	O	1.456737	0.050540	-0.304559
O4	O	1.515238	0.050545	0.036942
O5	O	1.456709	-0.050511	-0.304525
O6	O	1.309493	-0.050510	-0.088506
O7	O	1.662425	-0.050507	-0.179043
Cu8	Cu	1.485957	-0.059735	-0.133772
Cu9	Cu	1.485990	0.059769	-0.133811
O10	O	1.515210	-0.050506	0.036976
C11	C	1.263622	0.000015	-0.080062
C12	C	1.126895	0.000014	-0.054865
C13	C	0.915317	0.000024	-0.120775
C14	C	1.056631	0.000016	-0.146820
N15	N	1.485942	-0.143787	-0.133746
C16	C	1.551184	-0.563567	-0.229454
C17	C	1.551188	-0.627175	-0.229463
O18	O	1.606614	-0.660067	-0.310813
N19	N	1.485984	-0.658995	-0.133835
C20	C	1.420761	-0.627203	-0.038199
O21	O	1.365298	-0.660109	0.043139
C22	C	1.420750	-0.563597	-0.038195
C23	C	1.485969	-0.531781	-0.133823
C24	C	1.616397	-0.531751	-0.325075
C25	C	1.616395	-0.468147	-0.325064
C26	C	1.551180	-0.436361	-0.229433
C27	C	1.485967	-0.468177	-0.133812
C28	C	1.355521	-0.531807	0.057437
C29	C	1.355516	-0.468196	0.057431
C30	C	1.420735	-0.436380	-0.038196
C31	C	1.420750	-0.372787	-0.038170
N32	N	1.485955	-0.340968	-0.133798
C33	C	1.551170	-0.372754	-0.229429
C34	C	1.420785	-0.760781	-0.038214
C35	C	1.420802	-0.824386	-0.038213
C36	C	1.551228	-0.824354	-0.229479
C37	C	1.551218	-0.760747	-0.229475
C38	C	1.485990	-0.728961	-0.133842
C39	C	1.551161	-0.239183	-0.229399
C40	C	1.551157	-0.175574	-0.229378
C41	C	1.420726	-0.175613	-0.038115
C42	C	1.420735	-0.239216	-0.038133
C43	C	1.485955	-0.271000	-0.133786
O44	O	1.365349	-0.339855	0.043135
O45	O	1.606609	-0.339841	-0.310761
C46	C	1.708325	0.000020	-0.187521
C47	C	1.845052	0.000026	-0.212718
C48	C	1.445930	0.000015	-0.347575
C49	C	1.413757	0.000017	-0.475796
N50	N	1.486012	0.143821	-0.133848
C51	C	1.502592	0.000019	-0.567529
C52	C	1.469342	0.000021	-0.700053
C53	C	1.526016	0.000020	0.079992
C54	C	1.558189	0.000022	0.208213
H55	H	0.870855	0.000031	-0.022779
Br56	Br	1.301538	0.000028	-0.732659
H57	H	1.658866	0.000069	-0.772219
Br58	Br	1.130718	0.000016	-0.310169
Br59	Br	1.052812	0.000026	0.108485
Br60	Br	0.919144	0.000026	-0.376060
Br61	Br	1.670388	0.000026	-0.534915
Br62	Br	1.245961	0.000024	-0.508410
Br63	Br	1.639734	-0.867506	-0.359265
Br64	Br	1.639680	-0.132398	-0.359163
H65	H	1.302413	-0.557703	0.135305
H66	H	1.669502	-0.557626	-0.402955
Br67	Br	1.332227	-0.132464	0.091669
H68	H	1.367710	-0.850287	0.039666
Br69	Br	1.639674	-0.282307	-0.359215
H70	H	1.669498	-0.442246	-0.402935
Br71	Br	1.332240	-0.282394	0.091663
Br72	Br	1.639732	-0.717575	-0.359260
H73	H	1.367674	-0.734904	0.039670
H74	H	1.302395	-0.442319	0.135307
