data_functionalizedCrystal
_audit_creation_method	'MofGen! by Chris Wilmer'
_symmetry_space_group_name_H-M	'P1'
_symmetry_Int_Tables_number	1
_symmetry_cell_setting	triclinic
loop_
_symmetry_equiv_pos_as_xyz
  x,y,z
_cell_length_a	21.395362
_cell_length_b	15.297327
_cell_length_c	21.395356
_cell_angle_alpha	99.650480
_cell_angle_beta	89.957023
_cell_angle_gamma	99.725883
loop_
_atom_site_label
_atom_site_type_symbol
_atom_site_fract_x
_atom_site_fract_y
_atom_site_fract_z
Zn1	Zn	0.914748	-0.358826	-0.397682
Zn2	Zn	0.896527	-0.509702	-0.311025
Zn3	Zn	0.809956	-0.358892	-0.292891
Zn4	Zn	0.791807	-0.509697	-0.415729
O5	O	0.853260	-0.434279	-0.354332
O6	O	1.000011	-0.378815	-0.386223
O7	O	0.885013	-0.489727	-0.220945
O8	O	0.839078	-0.232629	-0.291650
O9	O	0.986625	-0.489663	-0.322557
O10	O	0.916067	-0.232581	-0.368639
O11	O	0.821410	-0.378928	-0.207622
O12	O	0.719868	-0.378922	-0.309150
O13	O	0.808146	-0.489653	-0.501009
O14	O	0.706534	-0.489717	-0.399398
O15	O	0.898469	-0.378809	-0.487750
O16	O	0.867415	-0.635956	-0.340056
O17	O	0.790478	-0.635952	-0.416982
C18	C	0.690466	-0.434327	-0.354265
C19	C	0.620820	-0.434369	-0.354254
C20	C	0.581171	-0.492137	-0.401195
C21	C	0.515738	-0.492115	-0.401221
C22	C	0.489956	-0.434334	-0.354294
C23	C	0.529614	-0.376556	-0.307348
C24	C	0.595046	-0.376573	-0.307328
C25	C	0.387103	-0.427079	-0.297018
C26	C	0.321672	-0.427068	-0.297037
C27	C	0.288142	-0.434276	-0.354356
C28	C	0.320050	-0.441513	-0.411659
C29	C	0.385482	-0.441530	-0.411639
C30	C	0.419006	-0.434309	-0.354311
C31	C	0.177543	-0.492022	-0.401329
C32	C	0.112110	-0.491994	-0.401355
C33	C	0.125986	-0.376440	-0.307477
C34	C	0.191419	-0.376463	-0.307457
C35	C	0.217193	-0.434259	-0.354382
C36	C	0.825017	-0.668690	-0.382459
C37	C	0.812992	-0.768972	-0.394513
C38	C	0.939462	-1.051533	-0.268395
C39	C	0.950760	-0.957313	-0.257066
C40	C	0.916319	-0.910223	-0.291427
C41	C	0.870578	-0.957362	-0.337118
C42	C	0.859276	-1.051591	-0.348444
C43	C	0.836133	-0.910281	-0.371476
C44	C	0.790392	-0.957420	-0.417167
C45	C	0.779092	-1.051640	-0.428491
C46	C	0.813533	-1.098730	-0.394131
C47	C	0.847435	-0.816052	-0.360150
C48	C	0.767249	-0.816111	-0.440200
C49	C	0.755951	-0.910330	-0.451528
C50	C	1.016689	-0.434232	-0.354399
C51	C	1.086332	-0.434212	-0.354428
C52	C	0.853316	-0.434223	-0.517748
C53	C	0.853339	-0.434200	-0.587387
C54	C	0.881630	-0.198953	-0.326109
C55	C	0.893719	-0.098672	-0.314081
C56	C	0.820233	-0.376500	-0.613152
C57	C	0.820233	-0.376483	-0.678586
C58	C	0.853352	-0.434157	-0.718250
C59	C	0.886460	-0.491868	-0.692478
C60	C	0.886454	-0.491889	-0.627047
C61	C	0.908954	-0.441227	-0.822805
C62	C	0.908962	-0.441200	-0.888234
C63	C	0.853369	-0.434096	-0.920064
C64	C	0.797769	-0.427001	-0.886453
C65	C	0.797763	-0.427022	-0.821021
C66	C	0.853361	-0.434140	-0.789201
C67	C	0.820259	-0.376375	-1.016779
C68	C	0.820257	-0.376364	-1.082214
C69	C	0.886491	-0.491744	-1.096105
C70	C	0.886486	-0.491759	-1.030672
C71	C	0.853372	-0.434070	-0.991012
C72	C	0.853248	-0.434270	-0.191543
C73	C	0.853376	-0.434040	-0.121875
H74	H	0.483450	-0.539155	-0.439448
Br75	Br	0.494626	-0.298132	-0.243666
Br76	Br	0.616148	-0.570571	-0.464881
H77	H	0.804338	-1.175452	-0.403353
Br78	Br	0.648859	-0.298166	-0.243618
Br79	Br	0.058299	-0.570392	-0.465071
Br80	Br	0.428784	-0.451349	-0.489402
Br81	Br	0.717011	-1.115613	-0.490496
Br82	Br	0.722310	-0.417398	-0.775409
H83	H	0.954229	-0.447005	-0.796894
H84	H	0.988001	-0.918936	-0.219865
Br85	Br	0.278375	-0.417248	-0.219271
H86	H	0.718708	-0.948724	-0.488730
H87	H	0.739203	-0.777771	-0.468178
H88	H	0.793266	-0.329528	-0.580865
H89	H	0.292751	-0.447380	-0.458334
Br90	Br	0.775315	-0.298151	-0.713560
Br91	Br	0.722317	-0.417350	-0.929640
H92	H	0.793295	-0.329401	-0.984486
H93	H	0.198530	-0.539079	-0.439541
H94	H	0.913425	-0.538826	-0.724778
Br95	Br	0.775298	-0.298081	-1.117186
H96	H	0.967495	-1.089882	-0.240419
H97	H	0.913458	-0.538701	-1.128399
H98	H	0.913447	-0.538742	-1.009694
H99	H	0.954235	-0.446972	-0.915595
H100	H	0.104995	-0.329390	-0.269271
Br101	Br	0.245232	-0.298060	-0.243746
Br102	Br	0.931387	-0.570202	-0.592077
H103	H	0.414399	-0.421206	-0.250338
H104	H	0.884678	-0.777680	-0.322948
Br105	Br	0.931842	-0.782351	-0.276242
