data_functionalizedCrystal
_audit_creation_method	'MofGen! by Chris Wilmer'
_symmetry_space_group_name_H-M	'P1'
_symmetry_Int_Tables_number	1
_symmetry_cell_setting	triclinic
loop_
_symmetry_equiv_pos_as_xyz
  x,y,z
_cell_length_a	21.295419
_cell_length_b	29.839131
_cell_length_c	21.295411
_cell_angle_alpha	90.020364
_cell_angle_beta	90.024539
_cell_angle_gamma	90.056221
loop_
_atom_site_label
_atom_site_type_symbol
_atom_site_fract_x
_atom_site_fract_y
_atom_site_fract_z
Zn1	Zn	0.962308	-0.178727	0.355917
Zn2	Zn	1.462308	0.321273	0.855917
Zn3	Zn	0.962190	-0.253843	0.250644
Zn4	Zn	1.462190	0.246157	0.750644
Zn5	Zn	0.857031	-0.178747	0.250662
Zn6	Zn	1.357031	0.321253	0.750662
Zn7	Zn	0.856980	-0.253850	0.355876
Zn8	Zn	1.356980	0.246150	0.855876
O9	O	0.909627	-0.216292	0.303275
O10	O	1.409627	0.283708	0.803275
O11	O	1.050382	-0.188680	0.341962
O12	O	1.550382	0.311320	0.841962
O13	O	0.948213	-0.243886	0.162557
O14	O	1.448213	0.256114	0.662557
O15	O	0.871067	-0.115877	0.264648
O16	O	1.371067	0.384123	0.764648
O17	O	1.050295	-0.243867	0.264619
O18	O	1.550295	0.256133	0.764619
O19	O	0.948413	-0.115863	0.341979
O20	O	1.448413	0.384137	0.841979
O21	O	0.870953	-0.188714	0.162570
O22	O	1.370953	0.311286	0.662570
O23	O	0.768935	-0.188721	0.264609
O24	O	1.268935	0.311279	0.764609
O25	O	0.870980	-0.243880	0.443971
O26	O	1.370980	0.256120	0.943971
O27	O	0.768898	-0.243899	0.341910
O28	O	1.268898	0.256101	0.841910
O29	O	0.948364	-0.188687	0.444001
O30	O	1.448364	0.311313	0.944001
O31	O	0.948163	-0.316711	0.264579
O32	O	1.448163	0.183289	0.764579
O33	O	0.870866	-0.316716	0.341893
O34	O	1.370866	0.183284	0.841893
C35	C	0.746076	-0.216313	0.303257
C36	C	1.246076	0.283687	0.803257
C37	C	0.676108	-0.216333	0.303264
C38	C	1.176108	0.283667	0.803264
C39	C	0.643308	-0.187644	0.343599
C40	C	1.143308	0.312356	0.843599
C41	C	0.577566	-0.187632	0.343602
C42	C	1.077566	0.312368	0.843602
C43	C	0.544625	-0.216317	0.303276
C44	C	1.044625	0.283683	0.803276
C45	C	0.577432	-0.245008	0.262933
C46	C	1.077432	0.254992	0.762933
C47	C	0.643173	-0.245016	0.262928
C48	C	1.143173	0.254984	0.762928
N49	N	0.441339	-0.255624	0.298357
N50	N	0.941339	0.244376	0.798357
N51	N	0.378888	-0.255616	0.298367
N52	N	0.878888	0.244384	0.798367
C53	C	0.346550	-0.216294	0.303290
C54	C	0.846550	0.283706	0.803290
N55	N	0.379024	-0.176981	0.308216
N56	N	0.879024	0.323019	0.808216
N57	N	0.441481	-0.176990	0.308210
N58	N	0.941481	0.323010	0.808210
C59	C	0.473340	-0.216311	0.303277
C60	C	0.973340	0.283689	0.803277
C61	C	0.242466	-0.187590	0.343629
C62	C	0.742466	0.312410	0.843629
C63	C	0.176722	-0.187577	0.343627
C64	C	0.676722	0.312423	0.843627
C65	C	0.176590	-0.244957	0.262962
C66	C	0.676590	0.255043	0.762962
C67	C	0.242332	-0.244965	0.262961
C68	C	0.742332	0.255035	0.762961
C69	C	0.275266	-0.216282	0.303298
C70	C	0.775266	0.283718	0.803298
C71	C	0.909514	-0.333014	0.303244
C72	C	1.409514	0.166986	0.803244
C73	C	0.909523	-0.382949	0.303251
C74	C	1.409523	0.117051	0.803251
C75	C	0.949949	-0.692577	0.263077
C76	C	1.449949	-0.192577	0.763077
C77	C	0.950027	-0.880250	0.263101
C78	C	1.450027	-0.380250	0.763101
O79	O	0.984309	-0.904501	0.228919
O80	O	1.484309	-0.404501	0.728919
N81	N	0.909758	-0.903734	0.303322
N82	N	1.409758	-0.403734	0.803322
C83	C	0.869469	-0.880297	0.343543
C84	C	1.369469	-0.380297	0.843543
O85	O	0.835225	-0.904578	0.377759
O86	O	1.335225	-0.404578	0.877759
C87	C	0.869395	-0.692625	0.343521
C88	C	1.369395	-0.192625	0.843521
C89	C	0.909663	-0.669143	0.303293
C90	C	1.409663	-0.169143	0.803293
C91	C	0.990214	-0.669095	0.222852
C92	C	1.490214	-0.169095	0.722852
C93	C	0.990191	-0.622179	0.222844
C94	C	1.490191	-0.122179	0.722844
C95	C	0.949905	-0.598746	0.263060
C96	C	1.449905	-0.098746	0.763060
C97	C	0.909640	-0.622227	0.303285
C98	C	1.409640	-0.122227	0.803285
C99	C	0.829111	-0.669188	0.383745
C100	C	1.329111	-0.169188	0.883745
C101	C	0.829097	-0.622267	0.383737
C102	C	1.329097	-0.122267	0.883737
C103	C	0.869364	-0.598786	0.343509
C104	C	1.369364	-0.098786	0.843509
C105	C	0.869331	-0.551878	0.343493
C106	C	1.369331	-0.051878	0.843493
N107	N	0.909600	-0.528394	0.303272
N108	N	1.409600	-0.028394	0.803272
C109	C	0.949887	-0.551828	0.263056
C110	C	1.449887	-0.051828	0.763056
C111	C	0.869510	-0.978827	0.343551
C112	C	1.369510	-0.478827	0.843551
C113	C	0.869528	-1.025745	0.343556
C114	C	1.369528	-0.525745	0.843556
C115	C	0.950086	-1.025695	0.263114
C116	C	1.450086	-0.525695	0.763114
C117	C	0.950065	-0.978776	0.263107
C118	C	1.450065	-0.478776	0.763107
C119	C	0.909779	-0.955343	0.303330
C120	C	1.409779	-0.455343	0.803330
C121	C	0.949837	-0.453302	0.263041
C122	C	1.449837	0.046698	0.763041
C123	C	0.949809	-0.406382	0.263035
C124	C	1.449809	0.093618	0.763035
C125	C	0.869253	-0.406437	0.343478
C126	C	1.369253	0.093563	0.843478
C127	C	0.869279	-0.453352	0.343483
C128	C	1.369279	0.046648	0.843483
C129	C	0.909575	-0.476784	0.303262
C130	C	1.409575	0.023216	0.803262
O131	O	0.835072	-0.527598	0.377662
O132	O	1.335072	-0.027598	0.877662
O133	O	0.984137	-0.527539	0.228855
O134	O	1.484137	-0.027539	0.728855
C135	C	0.949971	-0.739492	0.263085
C136	C	1.449971	-0.239492	0.763085
C137	C	0.909707	-0.762974	0.303309
C138	C	1.409707	-0.262974	0.803309
C139	C	0.869420	-0.739540	0.343526
C140	C	1.369420	-0.239540	0.843526
C141	C	0.909725	-0.809892	0.303314
C142	C	1.409725	-0.309892	0.803314
C143	C	0.950011	-0.833325	0.263098
C144	C	1.450011	-0.333325	0.763098
C145	C	0.990280	-0.809841	0.222876
C146	C	1.490280	-0.309841	0.722876
C147	C	0.990258	-0.762926	0.222868
C148	C	1.490258	-0.262926	0.722868
C149	C	0.829151	-0.763024	0.383747
C150	C	1.329151	-0.263024	0.883747
C151	C	0.829176	-0.809940	0.383751
C152	C	1.329176	-0.309940	0.883751
C153	C	0.869463	-0.833373	0.343535
C154	C	1.369463	-0.333373	0.843535
C155	C	1.073818	-0.216270	0.303293
C156	C	1.573818	0.283730	0.803293
C157	C	1.143786	-0.216261	0.303301
C158	C	1.643786	0.283739	0.803301
C159	C	0.909680	-0.216282	0.467465
C160	C	1.409680	0.283718	0.967465
C161	C	0.909702	-0.216278	0.537433
C162	C	1.409702	0.283722	1.037433
C163	C	0.909759	-0.099113	0.303320
C164	C	1.409759	0.400887	0.803320
C165	C	0.909815	-0.049179	0.303339
C166	C	1.409815	0.450821	0.803339
C167	C	0.909612	-0.216269	0.139723
C168	C	1.409612	0.283731	0.639723
C169	C	0.909711	-0.216146	0.069755
C170	C	1.409711	0.283854	0.569755
C171	C	0.949994	-0.187538	0.570316
C172	C	1.449994	0.312462	1.070316
C173	C	0.949993	-0.187519	0.636059
C174	C	1.449993	0.312481	1.136059
C175	C	0.909707	-0.216247	0.668916
C176	C	1.409707	0.283753	1.168916
C177	C	0.869407	-0.244989	0.636025
C178	C	1.369407	0.255011	1.136025
C179	C	0.869405	-0.245005	0.570283
C180	C	1.369405	0.254995	1.070283
N181	N	0.904840	-0.255549	0.772132
N182	N	1.404840	0.244451	1.272132
N183	N	0.904846	-0.255533	0.834584
N184	N	1.404846	0.244467	1.334584
C185	C	0.909711	-0.216202	0.866991
C186	C	1.409711	0.283798	1.366991
N187	N	0.914582	-0.176886	0.834587
N188	N	1.414582	0.323114	1.334587
N189	N	0.914579	-0.176903	0.772129
N190	N	1.414579	0.323097	1.272129
C191	C	0.909705	-0.216233	0.740201
C192	C	1.409705	0.283767	1.240201
C193	C	0.950004	-0.187438	0.971159
C194	C	1.450004	0.312562	1.471159
C195	C	0.949999	-0.187418	1.036903
C196	C	1.449999	0.312582	1.536903
C197	C	0.869416	-0.244893	1.036868
C198	C	1.369416	0.255107	1.536868
C199	C	0.869418	-0.244909	0.971125
C200	C	1.369418	0.255091	1.471125
C201	C	0.909715	-0.216182	0.938275
C202	C	1.409715	0.283818	1.438275
H203	H	0.670119	-0.164288	0.376444
H204	H	1.170119	0.335712	0.876444
O205	O	0.830092	-0.476184	0.382466
O206	O	1.330092	0.023816	0.882466
C207	C	0.745150	-0.529253	0.390877
C208	C	1.245150	-0.029253	0.890877
C209	C	0.789474	-0.503421	0.346650
C210	C	1.289474	-0.003421	0.846650
H211	H	0.712307	-0.551287	0.361938
H212	H	1.212307	-0.051287	0.861938
H213	H	0.716305	-0.504461	0.419604
H214	H	1.216305	-0.004461	0.919604
H215	H	0.774058	-0.551157	0.423838
H216	H	1.274058	-0.051157	0.923838
H217	H	0.760614	-0.481516	0.313651
H218	H	1.260614	0.018484	0.813651
H219	H	0.818321	-0.528237	0.317967
H220	H	1.318321	-0.028237	0.817967
H221	H	0.982652	-0.472374	0.230291
H222	H	1.482652	0.027626	0.730291
O223	O	0.274530	-0.159703	0.382719
O224	O	0.774530	0.340297	0.882719
C225	C	0.348827	-0.099049	0.391338
C226	C	0.848827	0.400951	0.891338
C227	C	0.312569	-0.130609	0.346999
C228	C	0.812569	0.369391	0.846999
H229	H	0.379581	-0.075512	0.362476
H230	H	0.879581	0.424488	0.862476
H231	H	0.379629	-0.119688	0.424191
H232	H	0.879629	0.380312	0.924191
H233	H	0.314075	-0.078560	0.420177
H234	H	0.814075	0.421440	0.920177
H235	H	0.347276	-0.151105	0.318120
H236	H	0.847276	0.348895	0.818120
H237	H	0.281758	-0.109944	0.314188
H238	H	0.781758	0.390056	0.814188
O239	O	1.029373	-0.599442	0.183752
O240	O	1.529373	-0.099442	0.683752
C241	C	1.109260	-0.604361	0.103950
C242	C	1.609260	-0.104361	0.603950
C243	C	1.064923	-0.630163	0.148198
C244	C	1.564923	-0.130163	0.648198
H245	H	1.138004	-0.629188	0.075183
H246	H	1.638004	-0.129188	0.575183
H247	H	1.142195	-0.582371	0.132850
H248	H	1.642195	-0.082371	0.632850
H249	H	1.080366	-0.582418	0.071026
H250	H	1.580366	-0.082418	0.571026
H251	H	1.093766	-0.652130	0.181131
H252	H	1.593766	-0.152130	0.681131
H253	H	1.031985	-0.652125	0.119259
H254	H	1.531985	-0.152125	0.619259
H255	H	1.023081	-0.828929	0.190129
H256	H	1.523081	-0.328929	0.690129
O257	O	0.545793	-0.159751	0.382848
O258	O	1.045793	0.340249	0.882848
C259	C	0.552857	-0.102832	0.462844
C260	C	1.052857	0.397168	0.962844
C261	C	0.588915	-0.134389	0.418438
C262	C	1.088915	0.365611	0.918438
H263	H	0.587706	-0.082312	0.491620
H264	H	1.087706	0.417688	0.991620
H265	H	0.522083	-0.123473	0.495746
H266	H	1.022083	0.376527	0.995746
H267	H	0.522081	-0.079325	0.434002
H268	H	1.022081	0.420675	0.934002
H269	H	0.619725	-0.157903	0.447229
H270	H	1.119725	0.342097	0.947229
H271	H	0.619650	-0.113720	0.385534
H272	H	1.119650	0.386280	0.885534
O273	O	0.989161	-0.159488	0.939341
O274	O	1.489161	0.340512	1.439341
C275	C	1.069110	-0.102498	0.946314
C276	C	1.569110	0.397502	1.446314
C277	C	1.024788	-0.134120	0.982423
C278	C	1.524788	0.365880	1.482423
H279	H	1.097935	-0.081986	0.981129
H280	H	1.597935	0.418014	1.481129
H281	H	1.040265	-0.078989	0.915540
H282	H	1.540265	0.421011	1.415540
H283	H	1.101976	-0.123134	0.915533
H284	H	1.601976	0.376866	1.415533
H285	H	0.991913	-0.113520	1.013238
H286	H	1.491913	0.386480	1.513238
H287	H	1.053672	-0.157630	1.013157
H288	H	1.553672	0.342370	1.513157
H289	H	1.023023	-0.688169	0.190103
H290	H	1.523023	-0.188169	0.690103
O291	O	0.675135	-0.272846	0.223769
O292	O	1.175135	0.227154	0.723769
C293	C	0.776355	-0.298311	0.188046
C294	C	1.276355	0.201689	0.688046
C295	C	0.740236	-0.266762	0.232413
C296	C	1.240236	0.233238	0.732413
H297	H	0.828995	-0.293409	0.195028
H298	H	1.328995	0.206591	0.695028
H299	H	0.763467	-0.290367	0.137293
H300	H	1.263467	0.209633	0.637293
H301	H	0.763336	-0.334541	0.199001
H302	H	1.263336	0.165459	0.699001
H303	H	0.753235	-0.230522	0.221513
H304	H	1.253235	0.269478	0.721513
H305	H	0.753126	-0.274745	0.283152
H306	H	1.253126	0.225255	0.783152
O307	O	0.144502	-0.272808	0.223850
O308	O	0.644502	0.227192	0.723850
C309	C	0.043165	-0.298207	0.188082
C310	C	0.543165	0.201793	0.688082
C311	C	0.079429	-0.266650	0.232422
C312	C	0.579429	0.233350	0.732422
H313	H	-0.009452	-0.293233	0.194988
H314	H	0.490548	0.206767	0.694988
H315	H	0.055991	-0.334455	0.199046
H316	H	0.555991	0.165545	0.699046
H317	H	0.056116	-0.290272	0.137349
H318	H	0.556116	0.209728	0.637349
H319	H	0.066498	-0.274544	0.283170
H320	H	0.566498	0.225456	0.783170
H321	H	0.066601	-0.230412	0.221404
H322	H	0.566601	0.269588	0.721404
H323	H	0.150018	-0.164212	0.376472
H324	H	0.650018	0.335788	0.876472
H325	H	0.796381	-0.829055	0.416510
H326	H	1.296381	-0.329055	0.916510
H327	H	0.796346	-0.743948	0.416497
H328	H	1.296346	-0.243948	0.916497
O329	O	0.830305	-0.272960	0.667869
O330	O	1.330305	0.227040	1.167869
C331	C	0.799688	-0.349379	0.687995
C332	C	1.299688	0.150621	1.187995
C333	C	0.844004	-0.317754	0.651883
C334	C	1.344004	0.182246	1.151883
H335	H	0.810757	-0.385602	0.675094
H336	H	1.310757	0.114398	1.175094
H337	H	0.748927	-0.341536	0.675039
H338	H	1.248927	0.158464	1.175039
H339	H	0.806601	-0.344410	0.740628
H340	H	1.306601	0.155590	1.240628
H341	H	0.837147	-0.322706	0.599242
H342	H	1.337147	0.177294	1.099242
H343	H	0.894749	-0.325605	0.664891
H344	H	1.394749	0.174395	1.164891
O345	O	0.274099	-0.272880	0.223764
O346	O	0.774099	0.227120	0.723764
C347	C	0.267028	-0.329772	0.143731
C348	C	0.767028	0.170228	0.643731
C349	C	0.230974	-0.298189	0.188103
C350	C	0.730974	0.201811	0.688103
H351	H	0.232177	-0.350235	0.114878
H352	H	0.732177	0.149765	0.614878
H353	H	0.297766	-0.353327	0.172538
H354	H	0.797766	0.146673	0.672538
H355	H	0.297841	-0.309108	0.110893
H356	H	0.797841	0.190892	0.610893
H357	H	0.200128	-0.318816	0.220950
H358	H	0.700128	0.181184	0.720950
H359	H	0.200276	-0.274632	0.159256
H360	H	0.700276	0.225368	0.659256
H361	H	0.982599	-0.387265	0.230274
H362	H	1.482599	0.112735	0.730274
O363	O	0.545408	-0.272922	0.223852
O364	O	1.045408	0.227078	0.723852
C365	C	0.471055	-0.333541	0.215235
C366	C	0.971055	0.166459	0.715235
C367	C	0.507293	-0.301965	0.259570
C368	C	1.007293	0.198035	0.759570
H369	H	0.440220	-0.357025	0.244095
H370	H	0.940220	0.142975	0.744095
H371	H	0.505765	-0.354082	0.186416
H372	H	1.005765	0.145918	0.686416
H373	H	0.440319	-0.312868	0.182365
H374	H	0.940319	0.187132	0.682365
H375	H	0.538030	-0.322604	0.292479
H376	H	1.038030	0.177396	0.792479
H377	H	0.472549	-0.281423	0.288346
H378	H	0.972549	0.218577	0.788346
O379	O	0.989153	-0.159588	0.538504
O380	O	1.489153	0.340412	1.038504
C381	C	1.069106	-0.102601	0.545481
C382	C	1.569106	0.397399	1.045481
C383	C	1.024783	-0.134224	0.581587
C384	C	1.524783	0.365776	1.081587
H385	H	1.097934	-0.082093	0.580297
H386	H	1.597934	0.417907	1.080297
H387	H	1.040261	-0.079090	0.514711
H388	H	1.540261	0.420910	1.014711
H389	H	1.101970	-0.123236	0.514696
H390	H	1.601970	0.376764	1.014696
H391	H	0.991910	-0.113625	0.612406
H392	H	1.491910	0.386375	1.112406
H393	H	1.053667	-0.157737	0.612318
H394	H	1.553667	0.342263	1.112318
O395	O	0.989242	-0.956037	0.224011
O396	O	1.489242	-0.456037	0.724011
C397	C	1.069114	-0.960952	0.144194
C398	C	1.569114	-0.460952	0.644194
C399	C	1.024787	-0.986756	0.188450
C400	C	1.524787	-0.486756	0.688450
H401	H	1.097855	-0.985777	0.115422
H402	H	1.597855	-0.485777	0.615422
H403	H	1.102053	-0.938961	0.173090
H404	H	1.602053	-0.438961	0.673090
H405	H	1.040213	-0.939009	0.111276
H406	H	1.540213	-0.439009	0.611276
H407	H	1.053638	-1.008723	0.221376
H408	H	1.553638	-0.508723	0.721376
H409	H	0.991846	-1.008718	0.159515
H410	H	1.491846	-0.508718	0.659515
O411	O	0.789930	-0.599457	0.422724
O412	O	1.289930	-0.099457	0.922724
C413	C	0.704882	-0.546588	0.431116
C414	C	1.204882	-0.046588	0.931116
C415	C	0.749209	-0.572383	0.386895
C416	C	1.249209	-0.072383	0.886895
H417	H	0.671939	-0.524699	0.402165
H418	H	1.171939	-0.024699	0.902165
H419	H	0.733721	-0.524555	0.464045
H420	H	1.233721	-0.024555	0.964045
H421	H	0.676139	-0.571444	0.459879
H422	H	1.176139	-0.071444	0.959879
H423	H	0.777961	-0.547560	0.358091
H424	H	1.277961	-0.047560	0.858091
H425	H	0.720333	-0.594423	0.354007
H426	H	1.220333	-0.094423	0.854007
O427	O	0.989239	-1.048532	0.224144
O428	O	1.489239	-0.548532	0.724144
C429	C	1.025023	-1.120796	0.188576
C430	C	1.525023	-0.620796	0.688576
C431	C	0.980637	-1.094986	0.232720
C432	C	1.480637	-0.594986	0.732720
H433	H	1.018074	-1.158358	0.195485
H434	H	1.518074	-0.658358	0.695485
H435	H	1.075768	-1.111538	0.199733
H436	H	1.575768	-0.611538	0.699733
H437	H	1.014056	-1.111593	0.137792
H438	H	1.514056	-0.611593	0.637792
H439	H	0.991548	-1.104175	0.283519
H440	H	1.491548	-0.604175	0.783519
H441	H	0.929905	-1.104246	0.221509
H442	H	1.429905	-0.604246	0.721509
H443	H	0.836732	-1.044860	0.376308
H444	H	1.336732	-0.544860	0.876308
O445	O	0.830310	-0.956137	0.382641
O446	O	1.330310	-0.456137	0.882641
C447	C	0.750429	-0.961151	0.462447
C448	C	1.250429	-0.461151	0.962447
C449	C	0.794784	-0.986900	0.418203
C450	C	1.294784	-0.486900	0.918203
H451	H	0.721704	-0.986012	0.491219
H452	H	1.221704	-0.486012	0.991219
H453	H	0.717476	-0.939238	0.433543
H454	H	1.217476	-0.439238	0.933543
H455	H	0.779306	-0.939136	0.495366
H456	H	1.279306	-0.439136	0.995366
H457	H	0.765957	-1.008940	0.385275
H458	H	1.265957	-0.508940	0.885275
H459	H	0.827739	-1.008785	0.447146
H460	H	1.327739	-0.508785	0.947146
O461	O	0.830354	-0.272949	0.538268
O462	O	1.330354	0.227051	1.038268
C463	C	0.821824	-0.333641	0.464068
C464	C	1.321824	0.166359	0.964068
C465	C	0.866117	-0.302014	0.500277
C466	C	1.366117	0.197986	1.000277
H467	H	0.850721	-0.357155	0.433354
H468	H	1.350721	0.142845	0.933354
H469	H	0.788944	-0.313052	0.433231
H470	H	1.288944	0.186948	0.933231
H471	H	0.793013	-0.354150	0.498852
H472	H	1.293013	0.145850	0.998852
H473	H	0.894969	-0.281498	0.465538
H474	H	1.394969	0.218502	0.965538
H475	H	0.898956	-0.322629	0.531123
H476	H	1.398956	0.177371	1.031123
O477	O	0.789977	-0.691922	0.422885
O478	O	1.289977	-0.191922	0.922885
C479	C	0.710058	-0.687000	0.502655
C480	C	1.210058	-0.187000	1.002655
C481	C	0.754357	-0.661200	0.458367
C482	C	1.254357	-0.161200	0.958367
H483	H	0.681238	-0.662172	0.531344
H484	H	1.181238	-0.162172	1.031344
H485	H	0.738921	-0.708914	0.535644
H486	H	1.238921	-0.208914	1.035644
H487	H	0.677186	-0.709018	0.473726
H488	H	1.177186	-0.209018	0.973726
H489	H	0.787238	-0.639157	0.487245
H490	H	1.287238	-0.139157	0.987245
H491	H	0.725454	-0.639313	0.425376
H492	H	1.225454	-0.139313	0.925376
H493	H	0.982808	-0.164012	1.063676
H494	H	1.482808	0.335988	1.563676
O495	O	0.830312	-0.272864	1.068704
O496	O	1.330312	0.227136	1.568704
C497	C	0.799696	-0.349284	1.088825
C498	C	1.299696	0.150716	1.588825
C499	C	0.844015	-0.317657	1.052719
C500	C	1.344015	0.182343	1.552719
H501	H	0.810768	-0.385507	1.075924
H502	H	1.310768	0.114493	1.575924
H503	H	0.748936	-0.341442	1.075864
H504	H	1.248936	0.158558	1.575864
H505	H	0.806603	-0.344315	1.141459
H506	H	1.306603	0.155685	1.641459
H507	H	0.837163	-0.322608	1.000076
H508	H	1.337163	0.177392	1.500076
H509	H	0.894758	-0.325507	1.065732
H510	H	1.394758	0.174493	1.565732
O511	O	0.830035	-0.383691	0.382482
O512	O	1.330035	0.116309	0.882482
C513	C	0.722947	-0.369436	0.412989
C514	C	1.222947	0.130564	0.912989
C515	C	0.767284	-0.395216	0.368761
C516	C	1.267284	0.104784	0.868761
H517	H	0.672204	-0.378752	0.401921
H518	H	1.172204	0.121248	0.901921
H519	H	0.729799	-0.331864	0.406074
H520	H	1.229799	0.168136	0.906074
H521	H	0.734023	-0.378631	0.463752
H522	H	1.234023	0.121369	0.963752
H523	H	0.756235	-0.386059	0.317981
H524	H	1.256235	0.113941	0.817981
H525	H	0.760424	-0.432782	0.375731
H526	H	1.260424	0.067218	0.875731
H527	H	1.023047	-0.743810	0.190111
H528	H	1.523047	-0.243810	0.690111
H529	H	0.982802	-0.164113	0.662838
H530	H	1.482802	0.335887	1.162838
H531	H	0.836612	-0.268315	0.944351
H532	H	1.336612	0.231685	1.444351
