data_functionalizedCrystal
_audit_creation_method	'MofGen! by Chris Wilmer'
_symmetry_space_group_name_H-M	'P1'
_symmetry_Int_Tables_number	1
_symmetry_cell_setting	triclinic
loop_
_symmetry_equiv_pos_as_xyz
  x,y,z
_cell_length_a	14.908571
_cell_length_b	12.759400
_cell_length_c	14.908803
_cell_angle_alpha	86.710201
_cell_angle_beta	89.810884
_cell_angle_gamma	86.709538
loop_
_atom_site_label
_atom_site_type_symbol
_atom_site_fract_x
_atom_site_fract_y
_atom_site_fract_z
Zn1	Zn	1.345220	-0.548508	0.587600
Zn2	Zn	1.353852	-0.714631	0.437250
Zn3	Zn	1.203570	-0.528267	0.428599
Zn4	Zn	1.194848	-0.713437	0.578900
O5	O	1.274373	-0.626211	0.508087
O6	O	1.472191	-0.579515	0.574917
O7	O	1.341180	-0.681938	0.310279
O8	O	1.222397	-0.383935	0.449711
O9	O	1.478533	-0.701565	0.464456
O10	O	1.326468	-0.398806	0.566529
O11	O	1.230768	-0.545018	0.303923
O12	O	1.076587	-0.543860	0.441275
O13	O	1.207533	-0.699530	0.705877
O14	O	1.070180	-0.679903	0.551701
O15	O	1.318011	-0.578357	0.712269
O16	O	1.332723	-0.861490	0.456020
O17	O	1.215903	-0.860612	0.560089
C18	C	1.040758	-0.609556	0.494606
C19	C	0.940816	-0.602458	0.488859
C20	C	0.746398	-0.730981	0.592893
C21	C	0.652493	-0.724315	0.587497
C22	C	0.659099	-0.582456	0.472677
C23	C	0.753004	-0.589122	0.478073
C24	C	0.796650	-0.663388	0.538182
C25	C	0.890557	-0.670058	0.543573
C26	C	0.897161	-0.528195	0.428757
C27	C	0.803256	-0.521529	0.423361
C28	C	1.274326	-0.899174	0.508070
C29	C	1.274387	-1.015956	0.508098
C30	C	1.328545	-1.078483	0.568970
C31	C	1.328585	-1.188211	0.568995
C32	C	1.220308	-1.172876	0.447267
C33	C	1.220263	-1.063150	0.447247
C34	C	1.382668	-1.031289	0.629821
C35	C	1.436831	-1.093816	0.690698
C36	C	1.436872	-1.203545	0.690722
C37	C	1.382749	-1.250746	0.629870
C38	C	1.508899	-0.642931	0.521622
C39	C	1.608840	-0.650056	0.527390
C40	C	1.260836	-0.641068	0.742610
C41	C	1.255067	-0.647399	0.842550
C42	C	1.274442	-0.352185	0.508125
C43	C	1.274472	-0.235411	0.508142
C44	C	1.359266	-0.533095	1.037004
C45	C	1.353848	-0.539040	1.130907
C46	C	1.238812	-0.665229	1.124258
C47	C	1.244229	-0.659284	1.030356
C48	C	1.304459	-0.593216	0.986732
C49	C	1.309880	-0.587277	0.892829
C50	C	1.194839	-0.713459	0.886182
C51	C	1.189422	-0.719405	0.980084
C52	C	1.287851	-0.611435	1.274476
C53	C	1.293624	-0.605106	1.174537
H54	H	0.767706	-0.461062	0.374425
H55	H	1.189775	-0.719018	1.159793
C56	C	1.031574	-0.743271	0.602827
C57	C	0.938538	-0.751687	0.609644
H58	H	1.061191	-0.793670	0.643616
H59	H	1.046201	-0.674644	0.616968
H60	H	1.050427	-0.755810	0.543273
H61	H	0.919683	-0.739140	0.669196
H62	H	0.923904	-0.820330	0.595508
C63	C	1.130039	-0.784551	1.121079
C64	C	1.123222	-0.792027	1.028041
H65	H	1.089173	-0.829392	1.150682
H66	H	1.116001	-0.714007	1.135709
H67	H	1.189566	-0.805201	1.139943
H68	H	1.063697	-0.771369	1.009175
H69	H	1.137254	-0.862586	1.013403
C70	C	1.044042	-0.475422	0.386039
C71	C	0.952400	-0.453890	0.368614
H72	H	1.078142	-0.429548	0.348910
H73	H	1.060181	-0.546234	0.373664
H74	H	1.055953	-0.465069	0.447359
H75	H	0.940488	-0.464251	0.307294
H76	H	0.936255	-0.383061	0.380982
H77	H	1.398476	-0.490081	1.171835
C78	C	1.369264	-0.522127	0.751835
C79	C	1.376078	-0.514651	0.844873
H80	H	1.410135	-0.477291	0.722233
H81	H	1.309746	-0.501480	0.732969
H82	H	1.383304	-0.592681	0.737205
H83	H	1.362031	-0.444098	0.859504
H84	H	1.435609	-0.535292	0.863746
C85	C	0.730441	-0.870535	0.705844
C86	C	0.794381	-0.812610	0.658962
H87	H	0.760065	-0.920925	0.746636
H88	H	0.696071	-0.905567	0.664507
H89	H	0.691833	-0.824395	0.738197
H90	H	0.832985	-0.858749	0.626604
H91	H	0.828766	-0.777577	0.700305
C92	C	0.539944	-0.739286	0.702357
C93	C	0.597255	-0.798614	0.647637
H94	H	0.505847	-0.785159	0.739490
H95	H	0.500512	-0.694118	0.665787
H96	H	0.574610	-0.698359	0.738916
H97	H	0.562589	-0.839536	0.611072
H98	H	0.636691	-0.843801	0.684211
C99	C	0.518074	-0.509199	0.413484
C100	C	0.611109	-0.500790	0.406645
H101	H	0.488449	-0.458773	0.372724
H102	H	0.499241	-0.496704	0.473043
H103	H	0.503435	-0.577820	0.399308
H104	H	0.625749	-0.432170	0.420827
H105	H	0.629949	-0.513276	0.347073
H106	H	1.176245	-1.211317	0.397723
C107	C	1.484852	-0.932422	0.744708
C108	C	1.496319	-1.041937	0.757585
H109	H	1.521583	-0.900398	0.786001
H110	H	1.423672	-0.911015	0.754332
H111	H	1.501540	-0.911580	0.685062
H112	H	1.479625	-1.062779	0.817230
H113	H	1.557513	-1.063352	0.747968
H114	H	1.150214	-0.762417	0.845240
H115	H	1.382643	-0.941944	0.629806
C116	C	1.543898	-1.207676	0.811038
C117	C	1.496404	-1.272276	0.757636
H118	H	1.580657	-1.250108	0.852343
H119	H	1.502697	-1.164284	0.843129
H120	H	1.580562	-1.164834	0.773855
H121	H	1.459735	-1.315112	0.794818
H122	H	1.537610	-1.315685	0.725542
H123	H	1.382776	-1.340095	0.629904
H124	H	1.176162	-1.012240	0.397680
H125	H	1.408312	-0.479305	1.001486
