data_functionalizedCrystal
_audit_creation_method	'MofGen! by Chris Wilmer'
_symmetry_space_group_name_H-M	'P1'
_symmetry_Int_Tables_number	1
_symmetry_cell_setting	triclinic
loop_
_symmetry_equiv_pos_as_xyz
  x,y,z
_cell_length_a	23.532407
_cell_length_b	27.731996
_cell_length_c	22.610064
_cell_angle_alpha	89.998076
_cell_angle_beta	89.997161
_cell_angle_gamma	82.735033
loop_
_atom_site_label
_atom_site_type_symbol
_atom_site_fract_x
_atom_site_fract_y
_atom_site_fract_z
O1	O	0.755125	0.058674	-0.049118
O2	O	1.255125	0.558674	0.450882
O3	O	0.589242	0.067164	-0.049137
O4	O	1.089242	0.567164	0.450863
O5	O	0.677351	-0.007472	-0.049114
O6	O	1.177351	0.492528	0.450886
O7	O	0.667016	0.133309	-0.049141
O8	O	1.167016	0.633309	0.450859
O9	O	0.677335	-0.007461	0.049255
O10	O	1.177335	0.492539	0.549255
O11	O	0.589226	0.067175	0.049232
O12	O	1.089226	0.567175	0.549232
O13	O	0.755110	0.058684	0.049251
O14	O	1.255110	0.558684	0.549251
Zn15	Zn	0.672166	0.062931	0.064860
Zn16	Zn	1.172166	0.562931	0.564860
Zn17	Zn	0.672186	0.062917	-0.064746
Zn18	Zn	1.172186	0.562917	0.435254
O19	O	0.667001	0.133320	0.049228
O20	O	1.167001	0.633320	0.549228
C21	C	0.568019	0.066953	0.000046
C22	C	1.068019	0.566953	0.500046
C23	C	0.504803	0.066303	0.000039
C24	C	1.004803	0.566303	0.500039
C25	C	0.105606	0.106394	0.000058
C26	C	0.605606	0.606394	0.500058
C27	C	0.046207	0.105790	0.000062
C28	C	0.546207	0.605790	0.500062
O29	O	0.009375	0.142955	0.000077
O30	O	0.509375	0.642955	0.500077
N31	N	0.023685	0.061419	0.000070
N32	N	0.523685	0.561419	0.500070
C33	C	0.060566	0.017649	0.000079
C34	C	0.560566	0.517649	0.500079
O35	O	0.035955	-0.020147	0.000086
O36	O	0.535955	0.479853	0.500086
C37	C	0.119963	0.018253	0.000080
C38	C	0.619963	0.518253	0.500080
C39	C	0.142482	0.062627	0.000066
C40	C	0.642482	0.562627	0.500066
C41	C	0.128124	0.150764	0.000046
C42	C	0.628124	0.650764	0.500046
C43	C	0.187519	0.151368	0.000041
C44	C	0.687519	0.651368	0.500041
C45	C	0.224395	0.107601	0.000049
C46	C	0.724395	0.607601	0.500049
C47	C	0.201876	0.063231	0.000061
C48	C	0.701876	0.563231	0.500061
C49	C	0.156843	-0.025516	0.000094
C50	C	0.656843	0.474484	0.500094
C51	C	0.216244	-0.024908	0.000095
C52	C	0.716244	0.475092	0.500095
C53	C	0.238762	0.019466	0.000081
C54	C	0.738762	0.519466	0.500081
C55	C	0.298147	0.020068	0.000065
C56	C	0.798147	0.520068	0.500065
N57	N	0.320669	0.064439	0.000057
N58	N	0.820669	0.564439	0.500057
C59	C	0.283793	0.108206	0.000049
C60	C	0.783793	0.608206	0.500049
C61	C	-0.064174	0.016383	0.000079
C62	C	0.435826	0.516383	0.500079
C63	C	-0.123570	0.015778	0.000075
C64	C	0.376430	0.515778	0.500075
C65	C	-0.137925	0.103920	0.000058
C66	C	0.362075	0.603920	0.500058
C67	C	-0.078528	0.104524	0.000059
C68	C	0.421472	0.604524	0.500059
C69	C	-0.041652	0.060754	0.000072
C70	C	0.458348	0.560754	0.500072
C71	C	0.408526	0.109470	0.000039
C72	C	0.908526	0.609470	0.500039
C73	C	0.467927	0.110070	0.000031
C74	C	0.967927	0.610070	0.500031
C75	C	0.482277	0.021929	0.000050
C76	C	0.982277	0.521929	0.500050
C77	C	0.422881	0.021329	0.000055
C78	C	0.922881	0.521329	0.500055
C79	C	0.386007	0.065103	0.000051
C80	C	0.886007	0.565103	0.500051
O81	O	0.335014	-0.017077	0.000053
O82	O	0.835014	0.482923	0.500053
O83	O	0.308412	0.145996	0.000050
O84	O	0.808412	0.645996	0.500050
C85	C	0.677131	-0.025474	0.000072
C86	C	1.177131	0.474526	0.500072
C87	C	0.676491	-0.079131	0.000078
C88	C	1.176491	0.420869	0.500078
C89	C	0.672477	-0.411860	-0.053572
C90	C	1.172477	0.088140	0.446428
C91	C	0.670048	-0.613522	-0.053583
C92	C	1.170048	-0.113522	0.446417
O93	O	0.669717	-0.639598	-0.099186
O94	O	1.169717	-0.139598	0.400814
N95	N	0.669738	-0.638733	0.000038
N96	N	1.169738	-0.138733	0.500038
C97	C	0.670032	-0.613526	0.053665
C98	C	1.170032	-0.113526	0.553665
O99	O	0.669706	-0.639597	0.099272
O100	O	1.169706	-0.139597	0.599272
C101	C	0.672456	-0.411864	0.053675
C102	C	1.172456	0.088136	0.553675
C103	C	0.672772	-0.386656	0.000051
C104	C	1.172772	0.113344	0.500051
C105	C	0.672792	-0.386651	-0.107192
C106	C	1.172792	0.113349	0.392808
C107	C	0.673402	-0.336239	-0.107188
C108	C	1.173402	0.163761	0.392812
C109	C	0.673697	-0.311036	-0.053566
C110	C	1.173697	0.188964	0.446434
C111	C	0.673382	-0.336244	0.000054
C112	C	1.173382	0.163756	0.500054
C113	C	0.672745	-0.386658	0.107301
C114	C	1.172745	0.113342	0.607301
C115	C	0.673350	-0.336239	0.107299
C116	C	1.173350	0.163761	0.607299
C117	C	0.673665	-0.311030	0.053675
C118	C	1.173665	0.188970	0.553675
C119	C	0.674287	-0.260628	0.053680
C120	C	1.174287	0.239372	0.553680
N121	N	0.674597	-0.235417	0.000060
N122	N	1.174597	0.264583	0.500060
C123	C	0.674302	-0.260620	-0.053563
C124	C	1.174302	0.239380	0.446437
C125	C	0.668760	-0.719401	0.053656
C126	C	1.168760	-0.219401	0.553656
C127	C	0.668155	-0.769817	0.053653
C128	C	1.168155	-0.269817	0.553653
C129	C	0.668171	-0.769809	-0.053594
C130	C	1.168171	-0.269809	0.446406
C131	C	0.668780	-0.719393	-0.053591
C132	C	1.168780	-0.219393	0.446409
C133	C	0.669070	-0.694190	0.000035
C134	C	1.169070	-0.194190	0.500035
C135	C	0.675584	-0.154751	-0.053552
C136	C	1.175584	0.345249	0.446448
C137	C	0.676197	-0.104335	-0.053545
C138	C	1.176197	0.395665	0.446455
C139	C	0.676178	-0.104347	0.053703
C140	C	1.176178	0.395653	0.553703
C141	C	0.675568	-0.154759	0.053695
C142	C	1.175568	0.345241	0.553695
C143	C	0.675269	-0.179960	0.000063
C144	C	1.175269	0.320040	0.500063
O145	O	0.674612	-0.234520	0.099259
O146	O	1.174612	0.265480	0.599259
O147	O	0.674615	-0.234539	-0.099164
O148	O	1.174615	0.265461	0.400836
C149	C	0.671867	-0.462272	-0.053575
C150	C	1.171867	0.037728	0.446425
C151	C	0.671551	-0.487480	0.000044
C152	C	1.171551	0.012520	0.500044
C153	C	0.671846	-0.462277	0.053667
C154	C	1.171846	0.037723	0.553667
C155	C	0.670946	-0.537896	0.000042
C156	C	1.170946	-0.037896	0.500042
C157	C	0.670651	-0.563099	-0.053581
C158	C	1.170651	-0.063099	0.446419
C159	C	0.670961	-0.537888	-0.107201
C160	C	1.170961	-0.037888	0.392799
C161	C	0.671572	-0.487475	-0.107198
C162	C	1.171572	0.012525	0.392802
C163	C	0.671536	-0.487488	0.107288
C164	C	1.171536	0.012512	0.607288
C165	C	0.670927	-0.537901	0.107280
C166	C	1.170927	-0.037901	0.607280
C167	C	0.670632	-0.563104	0.053657
C168	C	1.170632	-0.063104	0.553657
C169	C	0.776333	0.058895	0.000067
C170	C	1.276333	0.558895	0.500067
C171	C	0.839549	0.059545	0.000070
C172	C	1.339549	0.559545	0.500070
C173	C	0.667221	0.151323	0.000040
C174	C	1.167221	0.651323	0.500040
C175	C	0.667860	0.204980	0.000031
C176	C	1.167860	0.704980	0.500031
N177	N	0.672156	0.062941	0.153312
N178	N	1.172156	0.562941	0.653312
N179	N	0.672200	0.062904	-0.153198
N180	N	1.172200	0.562904	0.346802
C181	C	0.711202	0.029873	0.561964
C182	C	1.211202	0.529873	1.061964
C183	C	0.711205	0.029870	0.623884
C184	C	1.211205	0.529870	1.123884
O185	O	0.744380	0.001762	0.655911
O186	O	1.244380	0.501762	1.155911
N187	N	0.672186	0.062907	0.654849
N188	N	1.172186	0.562907	1.154849
C189	C	0.633157	0.095947	0.623892
C190	C	1.133157	0.595947	1.123892
O191	O	0.599967	0.124047	0.655917
O192	O	1.099967	0.624047	1.155917
C193	C	0.633151	0.095947	0.561973
C194	C	1.133151	0.595947	1.061973
C195	C	0.672178	0.062911	0.531011
C196	C	1.172178	0.562911	1.031011
C197	C	0.750225	-0.003160	0.531001
C198	C	1.250225	0.496840	1.031001
C199	C	0.750223	-0.003156	0.469085
C200	C	1.250223	0.496844	0.969085
C201	C	0.711198	0.029882	0.438132
C202	C	1.211198	0.529882	0.938132
C203	C	0.672175	0.062916	0.469095
C204	C	1.172175	0.562916	0.969095
C205	C	0.594120	0.128984	0.531017
C206	C	1.094120	0.628984	1.031017
C207	C	0.594118	0.128982	0.469094
C208	C	1.094118	0.628982	0.969094
C209	C	0.633144	0.095946	0.438132
C210	C	1.133144	0.595946	0.938132
C211	C	0.633148	0.095958	0.376227
C212	C	1.133148	0.595958	0.876227
N213	N	0.672168	0.062921	0.345261
N214	N	1.172168	0.562921	0.845261
C215	C	0.711193	0.029883	0.376214
C216	C	1.211193	0.529883	0.876214
C217	C	0.633170	0.095942	0.753926
C218	C	1.133170	0.595942	1.253926
C219	C	0.633177	0.095944	0.815843
C220	C	1.133177	0.595944	1.315843
C221	C	0.711225	0.029866	0.815831
C222	C	1.211225	0.529866	1.315831
C223	C	0.711220	0.029867	0.753912
C224	C	1.211220	0.529867	1.253912
C225	C	0.672190	0.062905	0.722960
C226	C	1.172190	0.562905	1.222960
C227	C	0.711185	0.029894	0.246186
C228	C	1.211185	0.529894	0.746186
C229	C	0.711181	0.029903	0.184265
C230	C	1.211181	0.529903	0.684265
C231	C	0.633131	0.095978	0.184283
C232	C	1.133131	0.595978	0.684283
C233	C	0.633137	0.095972	0.246199
C234	C	1.133137	0.595972	0.746199
C235	C	0.672166	0.062926	0.277149
C236	C	1.172166	0.562926	0.777149
O237	O	0.599989	0.124050	0.344160
O238	O	1.099989	0.624050	0.844160
O239	O	0.744371	0.001783	0.344182
O240	O	1.244371	0.501783	0.844182
H241	H	0.246266	-0.060551	0.000106
H242	H	0.746266	0.439449	0.500106
H243	H	0.673657	-0.315719	-0.150855
H244	H	1.173657	0.184281	0.349145
N245	N	0.670584	-0.565088	0.165120
N246	N	1.170584	-0.065088	0.665120
H247	H	0.705647	-0.590099	0.167521
H248	H	1.205647	-0.090099	0.667521
H249	H	0.670840	-0.541435	0.199055
H250	H	1.170840	-0.041435	0.699055
N251	N	0.672506	-0.413824	-0.165040
N252	N	1.172506	0.086176	0.334960
H253	H	0.637310	-0.400961	-0.188506
H254	H	1.137310	0.099039	0.311494
H255	H	0.707969	-0.409110	-0.188399
H256	H	1.207969	0.090890	0.311601
H257	H	0.669036	-0.698872	-0.097257
H258	H	1.169036	-0.198872	0.402743
N259	N	0.753319	-0.005766	0.849225
N260	N	1.253319	0.494234	1.349225
H261	H	0.793686	-0.000369	0.838448
H262	H	1.293686	0.499631	1.338448
H263	H	0.747344	-0.000729	0.893136
H264	H	1.247344	0.499271	1.393136
H265	H	0.601364	0.122878	0.271409
H266	H	1.101364	0.622878	0.771409
H267	H	0.601405	0.122850	0.841049
H268	H	1.101405	0.622850	1.341049
N269	N	0.591072	0.131579	0.720544
N270	N	1.091072	0.631579	1.220544
H271	H	0.566357	0.152505	0.749560
H272	H	1.066357	0.652505	1.249560
H273	H	0.612675	0.152859	0.694850
H274	H	1.112675	0.652859	1.194850
N275	N	0.552018	0.164609	0.564403
N276	N	1.052018	0.664609	1.064403
H277	H	0.527294	0.185531	0.535390
H278	H	1.027294	0.685531	1.035390
H279	H	0.527014	0.146201	0.590088
H280	H	1.027014	0.646201	1.090088
N281	N	0.671895	-0.460297	-0.165042
N282	N	1.171895	0.039703	0.334958
H283	H	0.636825	-0.435293	-0.167435
H284	H	1.136825	0.064707	0.332565
H285	H	0.707484	-0.443498	-0.167412
H286	H	1.207484	0.056502	0.332588
H287	H	-0.034152	-0.019262	0.000084
H288	H	0.465848	0.480738	0.500084
H289	H	0.781999	-0.030058	0.443879
H290	H	1.281999	0.469942	0.943879
H291	H	0.098105	0.186406	0.000041
H292	H	0.598105	0.686406	0.500041
H293	H	0.404547	-0.014804	0.000057
H294	H	0.904547	0.485196	0.500057
N295	N	0.211795	0.199232	0.000027
N296	N	0.711795	0.699232	0.500027
H297	H	0.198313	0.218395	0.036489
H298	H	0.698313	0.718395	0.536489
H299	H	0.255016	0.192944	0.000003
H300	H	0.755016	0.692944	0.500003
N301	N	-0.054239	0.152382	0.000052
N302	N	0.445761	0.652382	0.500052
H303	H	-0.029912	0.154595	-0.036413
H304	H	0.470088	0.654595	0.463587
H305	H	-0.086648	0.179987	0.000069
H306	H	0.413352	0.679987	0.500069
H307	H	0.486258	0.146206	0.000020
H308	H	0.986258	0.646206	0.500020
H309	H	0.562333	0.155885	0.443896
H310	H	1.062333	0.655885	0.943896
N311	N	0.676492	-0.077152	0.111533
N312	N	1.176492	0.422848	0.611533
H313	H	0.641063	-0.081833	0.134969
H314	H	1.141063	0.418167	0.634969
H315	H	0.711722	-0.090026	0.134940
H316	H	1.211722	0.409974	0.634940
H317	H	0.601359	0.122879	0.159072
H318	H	1.101359	0.622879	0.659072
N319	N	0.671857	-0.460309	0.165127
N320	N	1.171857	0.039691	0.665127
H321	H	0.671569	-0.483934	0.199090
H322	H	1.171569	0.016066	0.699090
H323	H	0.707430	-0.443486	0.167468
H324	H	1.207430	0.056514	0.667468
H325	H	0.672489	-0.407174	0.150968
H326	H	1.172489	0.092826	0.650968
N327	N	0.670658	-0.565080	-0.165037
N328	N	1.170658	-0.065080	0.334963
H329	H	0.670954	-0.541465	-0.199010
H330	H	1.170954	-0.041465	0.300990
H331	H	0.705730	-0.590084	-0.167354
H332	H	1.205730	-0.090084	0.332646
N333	N	0.753284	-0.005742	0.279564
N334	N	1.253284	0.494258	0.779564
H335	H	0.747042	-0.040023	0.268785
H336	H	1.247042	0.459977	0.768785
H337	H	0.793629	-0.000299	0.268765
H338	H	1.293629	0.499701	0.768765
N339	N	0.132565	-0.073377	0.000111
N340	N	0.632565	0.426623	0.500111
H341	H	0.164947	-0.101006	0.000121
H342	H	0.664947	0.398994	0.500121
H343	H	0.108235	-0.075542	0.036581
H344	H	0.608235	0.424458	0.536581
H345	H	0.378510	0.145116	0.000037
H346	H	0.878510	0.645116	0.500037
H347	H	0.675338	-0.175263	-0.097225
H348	H	1.175338	0.324737	0.402775
N349	N	-0.177705	0.151127	0.000050
N350	N	0.322295	0.651127	0.500050
H351	H	-0.218748	0.144007	0.000054
H352	H	0.281252	0.644007	0.500054
H353	H	-0.170461	0.170481	0.036513
H354	H	0.329539	0.670481	0.536513
H355	H	0.512312	-0.013705	0.000055
H356	H	1.012312	0.486295	0.500055
N357	N	-0.147854	-0.032082	0.000078
N358	N	0.352146	0.467918	0.500078
H359	H	-0.115476	-0.059713	0.000082
H360	H	0.384524	0.440287	0.500082
H361	H	-0.172186	-0.034251	0.036547
H362	H	0.327814	0.465749	0.536547
H363	H	0.676455	-0.083813	-0.097214
H364	H	1.176455	0.416187	0.402786
H365	H	0.667931	-0.790338	-0.097256
H366	H	1.167931	-0.290338	0.402744
H367	H	0.667907	-0.790338	0.097319
H368	H	1.167907	-0.290338	0.597319
N369	N	0.669080	-0.692220	0.111498
N370	N	1.169080	-0.192220	0.611498
H371	H	0.633655	-0.696908	0.134939
H372	H	1.133655	-0.196908	0.634939
H373	H	0.704315	-0.705103	0.134892
H374	H	1.204315	-0.205103	0.634892
N375	N	0.673661	-0.309055	0.165140
N376	N	1.173661	0.190945	0.665140
H377	H	0.673369	-0.332678	0.199106
H378	H	1.173369	0.167322	0.699106
H379	H	0.709232	-0.292230	0.167486
H380	H	1.209232	0.207770	0.667486
N381	N	0.753307	-0.005775	0.720528
N382	N	1.253307	0.494225	1.220528
H383	H	0.731735	-0.027087	0.694846
H384	H	1.231735	0.472913	1.194846
H385	H	0.778349	0.012614	0.694864
H386	H	1.278349	0.512614	1.194864
H387	H	0.742962	0.003001	0.159057
H388	H	1.242962	0.503001	0.659057
N389	N	0.675237	-0.181953	0.111530
N390	N	1.175237	0.318047	0.611530
H391	H	0.675519	-0.158335	0.145500
H392	H	1.175519	0.341665	0.645500
H393	H	0.639663	-0.198776	0.113862
H394	H	1.139663	0.301224	0.613862
N395	N	0.792328	-0.038790	0.564380
N396	N	1.292328	0.461210	1.064380
H397	H	0.817047	-0.059710	0.535361
H398	H	1.317047	0.440290	1.035361
H399	H	0.817337	-0.020383	0.590058
H400	H	1.317337	0.479617	1.090058
