data_functionalizedCrystal
_audit_creation_method	'MofGen! by Chris Wilmer'
_symmetry_space_group_name_H-M	'P1'
_symmetry_Int_Tables_number	1
_symmetry_cell_setting	triclinic
loop_
_symmetry_equiv_pos_as_xyz
  x,y,z
_cell_length_a	14.519709
_cell_length_b	17.699083
_cell_length_c	12.996460
_cell_angle_alpha	90.006875
_cell_angle_beta	89.999498
_cell_angle_gamma	96.518420
loop_
_atom_site_label
_atom_site_type_symbol
_atom_site_fract_x
_atom_site_fract_y
_atom_site_fract_z
O1	O	1.223448	-0.099215	-0.085435
O2	O	1.723448	0.400785	0.414565
O3	O	0.954921	-0.110898	-0.085467
O4	O	1.454921	0.389102	0.414533
O5	O	1.096771	0.005111	-0.085441
O6	O	1.596771	0.505111	0.414559
O7	O	1.081598	-0.215224	-0.085461
O8	O	1.581598	0.284776	0.414539
O9	O	1.096755	0.005117	0.085693
O10	O	1.596755	0.505117	0.585693
O11	O	0.954905	-0.110893	0.085667
O12	O	1.454905	0.389107	0.585667
O13	O	1.223432	-0.099209	0.085699
O14	O	1.723432	0.400791	0.585699
Cu15	Cu	1.089167	-0.105050	0.101309
Cu16	Cu	1.589167	0.394950	0.601309
Cu17	Cu	1.089186	-0.105057	-0.101077
Cu18	Cu	1.589186	0.394943	0.398923
O19	O	1.081582	-0.215218	0.085673
O20	O	1.581582	0.284782	0.585673
C21	C	0.920556	-0.110351	0.000096
C22	C	1.420556	0.389649	0.500096
C23	C	0.818181	-0.108719	0.000084
C24	C	1.318181	0.391281	0.500084
C25	C	1.096219	0.033312	0.000126
C26	C	1.596219	0.533312	0.500126
C27	C	1.094588	0.117335	0.000126
C28	C	1.594588	0.617335	0.500126
C29	C	1.082134	-0.243420	0.000104
C30	C	1.582134	0.256580	0.500104
C31	C	1.083765	-0.327442	0.000097
C32	C	1.583765	0.172558	0.500097
C33	C	0.443311	-0.102712	0.000132
C34	C	0.943311	0.397288	0.500132
C35	C	0.547612	-0.104380	0.000118
C36	C	1.047612	0.395620	0.500118
C37	C	0.630743	-0.105716	0.000107
C38	C	1.130743	0.394284	0.500107
C39	C	0.735050	-0.107384	0.000096
C40	C	1.235050	0.392616	0.500096
C41	C	1.257797	-0.099756	0.000134
C42	C	1.757797	0.400244	0.500134
C43	C	1.360171	-0.101388	0.000139
C44	C	1.860171	0.398612	0.500139
N45	N	1.089160	-0.105045	0.243656
N46	N	1.589160	0.394955	0.743656
C47	C	1.177851	0.165718	0.000138
C48	C	1.677851	0.665718	0.500138
C49	C	1.176313	0.244665	0.000128
C50	C	1.676313	0.744665	0.500128
C51	C	1.091511	0.275229	0.000115
C52	C	1.591511	0.775229	0.500115
C53	C	1.008242	0.226840	0.000101
C54	C	1.508242	0.726840	0.500101
C55	C	1.009781	0.147894	0.000103
C56	C	1.509781	0.647894	0.500103
C57	C	1.002033	0.545221	0.000092
C58	C	1.502033	1.045221	0.500092
C59	C	1.000501	0.624173	0.000093
C60	C	1.500501	1.124173	0.500093
C61	C	1.168566	0.641992	0.000117
C62	C	1.668566	1.141992	0.500117
C63	C	1.170105	0.563046	0.000119
C64	C	1.670105	1.063046	0.500119
C65	C	1.086836	0.514664	0.000099
C66	C	1.586836	1.014664	0.500099
C67	C	1.088505	0.429060	0.000108
C68	C	1.588505	0.929060	0.500108
C69	C	1.089841	0.360831	0.000114
C70	C	1.589841	0.860831	0.500114
C71	C	1.089178	-0.105060	0.663470
C72	C	1.589178	0.394940	1.163470
C73	C	1.089170	-0.105058	0.546665
C74	C	1.589170	0.394942	1.046665
C75	C	1.089169	-0.105053	0.453567
C76	C	1.589169	0.394947	0.953567
C77	C	1.089161	-0.105050	0.336754
C78	C	1.589161	0.394950	0.836754
N79	N	1.089191	-0.105059	0.756576
N80	N	1.589191	0.394941	1.256576
H81	H	1.246907	0.140840	0.000155
H82	H	1.746907	0.640840	0.500155
H83	H	1.244114	0.284056	0.000140
H84	H	1.744114	0.784056	0.500140
Cl85	Cl	0.901633	0.265263	0.000071
Cl86	Cl	1.401633	0.765263	0.500071
H87	H	1.236367	0.681395	0.000128
H88	H	1.736367	1.181395	0.500128
H89	H	0.934231	0.505837	0.000076
H90	H	1.434231	1.005837	0.500076
Cl91	Cl	0.905103	0.087069	0.000085
Cl92	Cl	1.405103	0.587069	0.500085
Cl93	Cl	0.893884	0.662594	0.000074
Cl94	Cl	1.393884	1.162594	0.500074
H95	H	1.239159	0.538166	0.000135
H96	H	1.739159	1.038166	0.500135
