data_functionalizedCrystal
_audit_creation_method	'MofGen! by Chris Wilmer'
_symmetry_space_group_name_H-M	'P1'
_symmetry_Int_Tables_number	1
_symmetry_cell_setting	triclinic
loop_
_symmetry_equiv_pos_as_xyz
  x,y,z
_cell_length_a	19.077236
_cell_length_b	10.686203
_cell_length_c	10.685971
_cell_angle_alpha	90.333424
_cell_angle_beta	88.105264
_cell_angle_gamma	92.251081
loop_
_atom_site_label
_atom_site_type_symbol
_atom_site_fract_x
_atom_site_fract_y
_atom_site_fract_z
Zn1	Zn	1.064433	0.483818	0.753268
Zn2	Zn	1.564433	0.983818	1.253268
Zn3	Zn	1.082248	0.676283	0.528836
Zn4	Zn	1.582248	1.176283	1.028836
Zn5	Zn	0.955717	0.474885	0.535126
Zn6	Zn	1.455717	0.974885	1.035126
Zn7	Zn	0.957055	0.700603	0.728879
Zn8	Zn	1.457055	1.200603	1.228879
O9	O	1.014863	0.583897	0.636527
O10	O	1.514863	1.083897	1.136527
O11	O	1.164688	0.502909	0.731072
O12	O	1.664688	1.002909	1.231072
O13	O	1.072359	0.635651	0.354658
O14	O	1.572359	1.135651	0.854658
O15	O	0.962123	0.301059	0.576902
O16	O	1.462123	0.801059	1.076902
O17	O	1.177776	0.644313	0.566182
O18	O	1.677776	1.144313	1.066182
O19	O	1.041996	0.307622	0.737171
O20	O	1.541996	0.807622	1.237171
O21	O	0.979398	0.487685	0.359280
O22	O	1.479398	0.987685	0.859280
O23	O	0.858003	0.511266	0.553253
O24	O	1.358003	1.011266	1.053253
O25	O	0.964403	0.685762	0.907126
O26	O	1.464403	1.185762	1.407126
O27	O	0.858986	0.677100	0.695603
O28	O	1.358986	1.177100	1.195603
O29	O	1.043293	0.526491	0.925045
O30	O	1.543293	1.026491	1.425045
O31	O	1.073657	0.854520	0.542533
O32	O	1.573657	1.354520	1.042533
O33	O	0.981678	0.872388	0.689504
O34	O	1.481678	1.372388	1.189504
C35	C	0.833112	0.595854	0.622465
C36	C	1.333112	1.095854	1.122465
C37	C	0.755359	0.601002	0.616476
C38	C	1.255359	1.101002	1.116476
C39	C	0.712017	0.529936	0.699624
C40	C	1.212017	1.029936	1.199624
C41	C	0.638959	0.534765	0.693987
C42	C	1.138959	1.034765	1.193987
C43	C	0.609245	0.610669	0.605206
C44	C	1.109245	1.110669	1.105206
C45	C	0.652592	0.681738	0.522049
C46	C	1.152592	1.181738	1.022049
C47	C	0.725649	0.676900	0.527681
C48	C	1.225649	1.176900	1.027681
C49	C	0.391481	0.633011	0.579137
C50	C	0.891481	1.133011	1.079137
C51	C	0.318420	0.637846	0.573514
C52	C	0.818420	1.137846	1.073514
C53	C	0.304791	0.490871	0.745451
C54	C	0.804791	0.990871	1.245451
C55	C	0.377850	0.486046	0.751080
C56	C	0.877850	0.986046	1.251080
C57	C	0.421191	0.557109	0.667919
C58	C	0.921191	1.057109	1.167919
N59	N	0.534568	0.615611	0.599444
N60	N	1.034568	1.115611	1.099444
N61	N	0.495866	0.552160	0.673676
N62	N	0.995866	1.052160	1.173676
C63	C	1.029763	0.908833	0.612718
C64	C	1.529763	1.408833	1.112718
C65	C	1.036200	1.047841	0.602579
C66	C	1.536200	1.547841	1.102579
C67	C	1.197324	0.571894	0.650646
C68	C	1.697324	1.071894	1.150646
C69	C	1.275078	0.566780	0.656662
C70	C	1.775078	1.066780	1.156662
C71	C	1.002010	0.609835	0.962733
C72	C	1.502010	1.109835	1.462733
C73	C	0.996532	0.620889	1.101743
C74	C	1.496532	1.120889	1.601743
C75	C	0.999916	1.257695	0.660471
C76	C	1.499916	1.757695	1.160471
C77	C	0.993527	1.118690	0.670707
C78	C	1.493527	1.618690	1.170707
C79	C	1.027659	0.558083	1.311588
C80	C	1.527659	1.058083	1.811588
C81	C	1.033127	0.547014	1.172579
C82	C	1.533127	1.047014	1.672579
H83	H	0.736204	0.468130	0.771922
H84	H	1.236204	0.968130	1.271922
C85	C	1.092208	1.109567	0.513282
C86	C	1.592208	1.609567	1.013282
N87	N	1.134392	1.156060	0.446026
N88	N	1.634392	1.656060	0.946026
H89	H	0.961011	0.692591	1.147443
H90	H	1.461011	1.192591	1.647443
H91	H	0.603673	0.476898	0.761698
H92	H	1.103673	0.976898	1.261698
C93	C	0.410529	0.402534	0.848736
C94	C	0.910529	0.902534	1.348736
N95	N	0.435144	0.339630	0.922290
N96	N	0.935144	0.839630	1.422290
C97	C	1.081112	0.450128	1.110837
C98	C	1.581112	0.950128	1.610837
N99	N	1.117254	0.377156	1.064332
N100	N	1.617254	0.877156	1.564332
C101	C	0.937521	1.056970	0.759996
C102	C	1.437521	1.556970	1.259996
N103	N	0.895338	1.010473	0.827252
N104	N	1.395338	1.510473	1.327252
H105	H	0.269496	0.433013	0.813155
H106	H	0.769496	0.933013	1.313155
H107	H	0.294229	0.699662	0.501216
H108	H	0.794229	1.199662	1.001216
H109	H	0.426761	0.690877	0.511423
H110	H	0.926761	1.190877	1.011423
H111	H	0.628393	0.743534	0.449756
H112	H	1.128393	1.243534	0.949756
H113	H	0.760937	0.734769	0.459972
H114	H	1.260937	1.234769	0.959972
