data_functionalizedCrystal
_audit_creation_method	'MofGen! by Chris Wilmer'
_symmetry_space_group_name_H-M	'P1'
_symmetry_Int_Tables_number	1
_symmetry_cell_setting	triclinic
loop_
_symmetry_equiv_pos_as_xyz
  x,y,z
_cell_length_a	10.654562
_cell_length_b	14.044190
_cell_length_c	9.730223
_cell_angle_alpha	89.993542
_cell_angle_beta	89.996961
_cell_angle_gamma	88.840940
loop_
_atom_site_label
_atom_site_type_symbol
_atom_site_fract_x
_atom_site_fract_y
_atom_site_fract_z
O1	O	1.681223	0.133286	-0.114398
O2	O	1.317021	0.145966	-0.114383
O3	O	1.493651	0.001605	-0.114363
O4	O	1.504593	0.277647	-0.114418
O5	O	1.493649	0.001609	0.114217
O6	O	1.317019	0.145970	0.114197
O7	O	1.681221	0.133289	0.114182
Zn8	Zn	1.499120	0.139630	0.150481
Zn9	Zn	1.499122	0.139625	-0.150683
O10	O	1.504592	0.277651	0.114162
C11	C	1.270129	0.145035	-0.000091
C12	C	1.130405	0.142241	-0.000084
C13	C	1.064743	0.140941	0.124505
C14	C	0.933458	0.138324	0.124482
C15	C	0.933509	0.138312	-0.124728
C16	C	1.064792	0.140923	-0.124704
C17	C	1.064712	0.140951	0.268385
C18	C	0.933427	0.138334	0.268362
C19	C	1.488863	-0.033739	-0.000069
C20	C	1.474584	-0.139060	-0.000057
C21	C	1.549749	-0.388849	-0.000114
C22	C	1.448499	-0.331889	-0.000100
C23	C	1.463016	-0.224589	-0.000076
C24	C	1.535234	-0.496160	-0.000138
C25	C	1.728114	0.134221	-0.000114
C26	C	1.867837	0.137014	-0.000130
C27	C	1.509379	0.312995	-0.000135
C28	C	1.523659	0.418315	-0.000157
N29	N	1.499127	0.139633	0.356018
N30	N	1.499124	0.139615	-0.356219
C31	C	1.577363	0.075732	0.427952
C32	C	1.577359	0.075720	0.571835
C33	C	1.420880	0.203520	0.571836
C34	C	1.420878	0.203526	0.427956
C35	C	1.667709	0.001950	0.427953
C36	C	1.667705	0.001939	0.571836
H37	H	0.880071	0.137239	-0.226190
H38	H	0.893730	0.203892	0.323585
H39	H	1.104381	0.075397	0.323650
H40	H	1.350913	-0.363710	-0.000104
H41	H	0.896884	0.069155	0.313022
C42	C	1.012530	0.293005	0.368197
C43	C	1.114037	0.234336	0.328646
H44	H	1.042986	0.350655	0.405404
H45	H	0.961514	0.306836	0.290385
H46	H	0.964262	0.261317	0.435643
H47	H	1.162301	0.266022	0.261191
H48	H	1.165075	0.220507	0.406467
H49	H	1.647327	-0.357031	-0.000104
H50	H	1.357170	0.255539	0.630424
C51	C	1.619704	-0.086392	0.775820
C52	C	1.617166	-0.091070	0.632103
H53	H	1.588494	-0.143807	0.813024
H54	H	1.703554	-0.078037	0.805953
H55	H	1.568764	-0.034167	0.805949
H56	H	1.668114	-0.143291	0.601973
H57	H	1.533302	-0.099436	0.601958
H58	H	1.357161	0.255551	0.369388
H59	H	1.761215	0.025056	0.383318
C60	C	1.520086	-0.086568	0.295305
C61	C	1.628845	-0.096468	0.375244
H62	H	1.496095	-0.147325	0.262762
H63	H	1.454318	-0.059615	0.349550
H64	H	1.536096	-0.046060	0.219376
H65	H	1.612833	-0.136970	0.451179
H66	H	1.694628	-0.123434	0.320997
C67	C	1.880549	0.037204	0.512620
C68	C	1.800192	0.023879	0.624556
H69	H	1.962335	0.050753	0.545171
H70	H	1.883812	-0.019021	0.458391
H71	H	1.850005	0.088932	0.458398
H72	H	1.830731	-0.027854	0.678774
H73	H	1.796933	0.080111	0.678808
H74	H	1.118251	0.141967	-0.226156
