data_functionalizedCrystal
_audit_creation_method	'MofGen! by Chris Wilmer'
_symmetry_space_group_name_H-M	'P1'
_symmetry_Int_Tables_number	1
_symmetry_cell_setting	triclinic
loop_
_symmetry_equiv_pos_as_xyz
  x,y,z
_cell_length_a	12.837943
_cell_length_b	15.021413
_cell_length_c	12.837942
_cell_angle_alpha	90.004978
_cell_angle_beta	85.171060
_cell_angle_gamma	90.007011
loop_
_atom_site_label
_atom_site_type_symbol
_atom_site_fract_x
_atom_site_fract_y
_atom_site_fract_z
O1	O	1.402340	0.074015	-0.272127
O2	O	1.902340	0.574015	0.227873
O3	O	1.099207	0.074021	-0.258684
O4	O	1.599207	0.574021	0.241316
O5	O	1.244052	0.074013	-0.113839
O6	O	1.744052	0.574013	0.386161
O7	O	1.257495	0.074023	-0.416972
O8	O	1.757495	0.574023	0.083028
O9	O	1.244029	-0.074052	-0.113859
O10	O	1.744029	0.425948	0.386141
O11	O	1.099183	-0.074044	-0.258704
O12	O	1.599183	0.425956	0.241296
O13	O	1.402317	-0.074049	-0.272147
O14	O	1.902317	0.425951	0.227853
Zn15	Zn	1.250746	-0.097555	-0.265429
Zn16	Zn	1.750746	0.402445	0.234571
Zn17	Zn	1.250777	0.097526	-0.265402
Zn18	Zn	1.750777	0.597526	0.234598
O19	O	1.257472	-0.074041	-0.416993
O20	O	1.757472	0.425959	0.083007
C21	C	1.060126	-0.000011	-0.254153
C22	C	1.560126	0.499989	0.245847
C23	C	0.943711	-0.000009	-0.240608
C24	C	1.443711	0.499991	0.259392
C25	C	0.718837	-0.000016	-0.403437
C26	C	1.218837	0.499984	0.096563
C27	C	0.609454	-0.000015	-0.390716
C28	C	1.109454	0.499985	0.109284
C29	C	0.615562	-0.000012	-0.202445
C30	C	1.115562	0.499988	0.297555
C31	C	0.724944	-0.000013	-0.215166
C32	C	1.224944	0.499987	0.284834
C33	C	0.776578	-0.000014	-0.315666
C34	C	1.276578	0.499986	0.184334
C35	C	0.885962	-0.000008	-0.328386
C36	C	1.385962	0.499992	0.171614
C37	C	0.892067	-0.000012	-0.140116
C38	C	1.392067	0.499988	0.359884
C39	C	0.782685	-0.000011	-0.127395
C40	C	1.282685	0.499989	0.372605
N41	N	1.250733	-0.230692	-0.265447
N42	N	1.750733	0.269308	0.234553
C43	C	1.183742	-0.470372	-0.332388
C44	C	1.683742	0.029628	0.167612
C45	C	1.280341	-0.529707	-0.362050
C46	C	1.780341	-0.029707	0.137950
C47	C	1.250757	-0.412299	-0.265424
C48	C	1.750757	0.087701	0.234576
C49	C	1.154186	-0.529706	-0.235788
C50	C	1.654186	-0.029706	0.264212
C51	C	1.250772	-0.587723	-0.265403
C52	C	1.750772	-0.087723	0.234597
C53	C	1.347409	-0.470328	-0.295137
C54	C	1.847409	0.029672	0.204863
C55	C	1.221187	-0.470321	-0.168829
C56	C	1.721187	0.029679	0.331171
C57	C	1.317851	-0.529630	-0.198457
C58	C	1.817851	-0.029630	0.301543
C59	C	1.250747	-0.311242	-0.265439
C60	C	1.750747	0.188758	0.234561
C61	C	1.250793	-0.688778	-0.265388
C62	C	1.750793	-0.188778	0.234612
C63	C	1.441398	-0.000015	-0.276679
C64	C	1.941398	0.499985	0.223321
C65	C	1.557813	-0.000011	-0.290223
C66	C	2.057813	0.499989	0.209777
N67	N	1.250798	0.230664	-0.265376
N68	N	1.750798	0.730664	0.234624
C69	C	1.239499	-0.000019	-0.074780
C70	C	1.739499	0.499981	0.425220
C71	C	1.225954	-0.000017	0.041635
C72	C	1.725954	0.499983	0.541635
C73	C	1.262025	-0.000007	-0.456052
C74	C	1.762025	0.499993	0.043948
C75	C	1.275569	-0.000003	-0.572467
C76	C	1.775569	0.499997	-0.072467
C77	C	1.388784	-0.000001	0.266510
C78	C	1.888784	0.499999	0.766510
C79	C	1.376062	0.000000	0.375892
C80	C	1.876062	0.500000	0.875892
C81	C	1.187791	-0.000006	0.369785
C82	C	1.687791	0.499994	0.869785
C83	C	1.200513	-0.000007	0.260402
C84	C	1.700513	0.499993	0.760402
C85	C	1.301012	-0.000007	0.208769
C86	C	1.801012	0.499993	0.708769
C87	C	1.313732	-0.000015	0.099384
C88	C	1.813732	0.499985	0.599384
C89	C	1.125462	-0.000014	0.093279
C90	C	1.625462	0.499986	0.593279
C91	C	1.112741	-0.000013	0.202661
C92	C	1.612741	0.499987	0.702661
H93	H	0.573502	-0.000085	-0.120623
H94	H	1.073502	0.499915	0.379377
H95	H	0.562446	-0.000019	-0.462189
H96	H	1.062446	0.499981	0.037811
H97	H	0.760878	-0.000015	-0.485268
H98	H	1.260878	0.499985	0.014732
Br99	Br	1.495186	0.000013	0.454253
Br100	Br	1.995186	0.500013	0.954253
H101	H	1.127138	-0.444353	-0.389074
H102	H	1.627138	0.055647	0.110926
H103	H	0.740630	-0.000021	-0.045571
H104	H	1.240630	0.499979	0.454429
Br105	Br	0.976356	-0.000002	0.272745
Br106	Br	1.476356	0.499998	0.772745
H107	H	1.053992	-0.000026	0.046254
H108	H	1.553992	0.499974	0.546254
Br109	Br	0.970436	0.000010	-0.020989
Br110	Br	1.470436	0.500010	0.479011
H111	H	1.374599	-0.555485	-0.141822
H112	H	1.874599	-0.055485	0.358178
H113	H	1.105969	0.000003	0.411844
H114	H	1.605969	0.500003	0.911844
H115	H	0.928000	-0.000010	-0.410218
H116	H	1.428000	0.499990	0.089782
H117	H	1.429111	-0.444356	-0.320291
H118	H	1.929111	0.055644	0.179709
H119	H	1.395564	-0.000017	0.057346
H120	H	1.895564	0.499983	0.557346
H121	H	1.305365	-0.555792	-0.443730
H122	H	1.805365	-0.055792	0.056270
Br123	Br	1.018058	-0.573183	-0.194026
Br124	Br	1.518058	-0.073183	0.305974
Br125	Br	1.179436	-0.426807	-0.032725
Br126	Br	1.679436	0.073193	0.467275
H127	H	1.470614	-0.000009	0.224469
H128	H	1.970614	0.499991	0.724469
