data_functionalizedCrystal
_audit_creation_method	'MofGen! by Chris Wilmer'
_symmetry_space_group_name_H-M	'P1'
_symmetry_Int_Tables_number	1
_symmetry_cell_setting	triclinic
loop_
_symmetry_equiv_pos_as_xyz
  x,y,z
_cell_length_a	13.448316
_cell_length_b	14.971487
_cell_length_c	14.971486
_cell_angle_alpha	83.614266
_cell_angle_beta	90.003568
_cell_angle_gamma	89.999437
loop_
_atom_site_label
_atom_site_type_symbol
_atom_site_fract_x
_atom_site_fract_y
_atom_site_fract_z
O1	O	-0.082550	-1.186946	-0.116564
O2	O	0.417450	-0.686946	0.383436
O3	O	-0.082583	-0.926546	-0.130522
O4	O	0.417417	-0.426546	0.369478
O5	O	-0.082559	-1.063725	0.006657
O6	O	0.417441	-0.563725	0.506657
O7	O	-0.082575	-1.049767	-0.253743
O8	O	0.417425	-0.549767	0.246257
O9	O	0.082825	-1.063710	0.006658
O10	O	0.582825	-0.563710	0.506658
O11	O	0.082801	-0.926531	-0.130521
O12	O	0.582801	-0.426531	0.369479
O13	O	0.082834	-1.186931	-0.116563
O14	O	0.582834	-0.686931	0.383437
Cu15	Cu	0.097918	-1.056729	-0.123542
Cu16	Cu	0.597918	-0.556729	0.376458
Cu17	Cu	-0.097667	-1.056747	-0.123543
Cu18	Cu	0.402333	-0.556747	0.376457
O19	O	0.082809	-1.049751	-0.253742
O20	O	0.582809	-0.549751	0.246258
C21	C	0.000104	-0.893214	-0.129897
C22	C	0.500104	-0.393214	0.370103
C23	C	0.000092	-0.793917	-0.128026
C24	C	0.500092	-0.293917	0.371974
C25	C	0.000087	-0.736691	-0.208615
C26	C	0.500087	-0.236691	0.291385
C27	C	0.000100	-0.643392	-0.206852
C28	C	0.500100	-0.143392	0.293148
C29	C	0.000110	-0.607320	-0.124499
C30	C	0.500110	-0.107320	0.375501
C31	C	0.000118	-0.664552	-0.043903
C32	C	0.500118	-0.164552	0.456097
C33	C	0.000112	-0.757850	-0.045668
C34	C	0.500112	-0.257850	0.454332
C35	C	0.000127	-0.470090	-0.040232
C36	C	0.500127	0.029910	0.459768
C37	C	0.000131	-0.376786	-0.038467
C38	C	0.500131	0.123214	0.461533
C39	C	0.000115	-0.355632	-0.201416
C40	C	0.500115	0.144368	0.298584
C41	C	0.000109	-0.448929	-0.203181
C42	C	0.500109	0.051071	0.296819
C43	C	0.000115	-0.506156	-0.122585
C44	C	0.500115	-0.006156	0.377415
N45	N	0.235482	-1.056723	-0.123542
N46	N	0.735482	-0.556723	0.376458
C47	C	0.287522	-1.111025	-0.177883
C48	C	0.787522	-0.611025	0.322117
C49	C	0.391625	-1.111035	-0.177880
C50	C	0.891625	-0.611035	0.322120
C51	C	0.443687	-1.056738	-0.123539
C52	C	0.943687	-0.556738	0.376461
C53	C	0.391640	-1.002434	-0.069191
C54	C	0.891640	-0.502434	0.430809
C55	C	0.287538	-1.002429	-0.069190
C56	C	0.787538	-0.502429	0.430810
C57	C	0.608620	-1.002446	-0.069199
C58	C	1.108620	-0.502446	0.430801
C59	C	0.712728	-1.002450	-0.069200
C60	C	1.212728	-0.502450	0.430800
C61	C	0.712707	-1.111052	-0.177888
C62	C	1.212707	-0.611052	0.322112
C63	C	0.608606	-1.111047	-0.177887
C64	C	1.108606	-0.611047	0.322113
C65	C	0.556566	-1.056742	-0.123540
C66	C	1.056566	-0.556742	0.376460
N67	N	0.764768	-1.056752	-0.123542
N68	N	1.264768	-0.556752	0.376458
C69	C	0.000133	-1.063094	0.039982
C70	C	0.500133	-0.563094	0.539982
C71	C	0.000132	-1.061223	0.139279
C72	C	0.500132	-0.561223	0.639279
C73	C	0.000138	-0.220263	-0.117187
C74	C	0.500138	0.279737	0.382813
C75	C	0.000126	-0.319560	-0.119056
C76	C	0.500126	0.180440	0.380944
C77	C	0.000116	-1.050383	-0.287067
C78	C	0.500116	-0.550383	0.212933
C79	C	0.000110	-1.052254	-0.386364
C80	C	0.500110	-0.552254	0.113636
C81	C	0.000143	-1.141812	0.196504
C82	C	0.500143	-0.641812	0.696504
C83	C	0.000133	-1.140049	0.289804
C84	C	0.500133	-0.640049	0.789804
C85	C	0.000118	-1.057696	0.325876
C86	C	0.500118	-0.557696	0.825876
C87	C	0.000104	-0.977100	0.268644
C88	C	0.500104	-0.477100	0.768644
C89	C	0.000108	-0.978864	0.175346
C90	C	0.500108	-0.478864	0.675346
C91	C	0.000100	-0.973429	0.463107
C92	C	0.500100	-0.473429	0.963107
C93	C	0.000099	-0.971665	0.556411
C94	C	0.500099	-0.471665	1.056411
C95	C	0.000125	-1.134614	0.577564
C96	C	0.500125	-0.634614	1.077564
C97	C	0.000128	-1.136378	0.484266
C98	C	0.500128	-0.636378	0.984266
C99	C	0.000116	-1.055782	0.427040
C100	C	0.500116	-0.555782	0.927040
H101	H	0.000141	-0.347419	0.028592
H102	H	0.500141	0.152581	0.528592
H103	H	0.000078	-0.766053	-0.275677
H104	H	0.500078	-0.266053	0.224323
H105	H	0.000141	-0.635175	0.023150
H106	H	0.500141	-0.135175	0.523150
H107	H	0.000132	-1.200238	0.624162
H108	H	0.500132	-0.700238	1.124162
H109	H	0.000087	-0.910047	0.298021
H110	H	0.500087	-0.410047	0.798021
H111	H	0.434037	-0.958229	-0.024942
H112	H	0.934037	-0.458229	0.475058
H113	H	0.000116	-0.804443	0.019956
H114	H	0.500116	-0.304443	0.519956
H115	H	0.000160	-1.208873	0.167142
H116	H	0.500160	-0.708873	0.667142
H117	H	0.000114	-0.309033	-0.267040
H118	H	0.500114	0.190967	0.232960
H119	H	0.566220	-1.155257	-0.222140
H120	H	1.066220	-0.655257	0.277860
H121	H	0.000088	-0.907799	0.416515
H122	H	0.500088	-0.407799	0.916515
H123	H	0.566252	-0.958226	-0.024942
H124	H	1.066252	-0.458226	0.475058
H125	H	0.245169	-0.958211	-0.024940
H126	H	0.745169	-0.458211	0.475060
H127	H	0.000095	-0.596802	-0.272476
H128	H	0.500095	-0.096802	0.227524
H129	H	0.000091	-0.478296	-0.270240
H130	H	0.500091	0.021704	0.229760
H131	H	0.245141	-1.155235	-0.222139
H132	H	0.745141	-0.655235	0.277861
H133	H	0.433992	-1.155255	-0.222128
H134	H	0.933992	-0.655255	0.277872
H135	H	0.755083	-1.155266	-0.222143
H136	H	1.255083	-0.655266	0.277857
H137	H	0.755114	-0.958235	-0.024953
H138	H	1.255114	-0.458235	0.475047
H139	H	0.000134	-0.516682	0.025398
H140	H	0.500134	-0.016682	0.525398
H141	H	0.000098	-0.913240	0.128754
H142	H	0.500098	-0.413240	0.628754
H143	H	0.000144	-1.205673	0.336394
H144	H	0.500144	-0.705673	0.836394
H145	H	0.000147	-1.203437	0.454900
H146	H	0.500147	-0.703437	0.954900
H147	H	0.000104	-0.904606	0.585777
H148	H	0.500104	-0.404606	1.085777
