data_functionalizedCrystal
_audit_creation_method	'MofGen! by Chris Wilmer'
_symmetry_space_group_name_H-M	'P1'
_symmetry_Int_Tables_number	1
_symmetry_cell_setting	triclinic
loop_
_symmetry_equiv_pos_as_xyz
  x,y,z
_cell_length_a	20.875621
_cell_length_b	23.196402
_cell_length_c	23.196401
_cell_angle_alpha	60.008822
_cell_angle_beta	87.041717
_cell_angle_gamma	58.315959
loop_
_atom_site_label
_atom_site_type_symbol
_atom_site_fract_x
_atom_site_fract_y
_atom_site_fract_z
Zr1	Zr	0.617928	0.631002	-0.104457
O2	O	0.515487	0.751268	-0.191724
O3	O	0.649330	0.510736	-0.077709
O4	O	0.649301	0.631003	-0.197973
O5	O	0.515540	0.630999	0.023410
O6	O	0.754859	0.631004	-0.202897
O7	O	0.515515	0.631001	-0.071460
O8	O	0.754910	0.415868	0.012233
O9	O	0.515490	0.846135	-0.191720
O10	O	0.741502	0.560203	-0.069972
O11	O	0.662744	0.560202	0.004504
O12	O	0.662710	0.701801	-0.137091
O13	O	0.583953	0.701799	-0.062615
Zr14	Zr	0.786321	0.631000	0.038995
Zr15	Zr	0.786281	0.631002	-0.112312
Zr16	Zr	0.617969	0.630999	0.046850
Zr17	Zr	0.617933	0.782304	-0.104451
Zr18	Zr	0.786317	0.479697	0.038989
O19	O	0.754920	0.751265	0.012247
O20	O	0.754863	0.751269	-0.202892
O21	O	0.515544	0.751264	0.023415
O22	O	0.888763	0.510734	0.126262
O23	O	0.888706	0.510737	-0.088877
O24	O	0.649387	0.510733	0.137431
O25	O	0.888709	0.631002	-0.088872
O26	O	0.754949	0.630998	0.132511
O27	O	0.649391	0.630998	0.137436
O28	O	0.888735	0.631001	0.005998
O29	O	0.649308	0.846136	-0.197964
O30	O	0.754942	0.415866	0.132502
O31	O	0.888760	0.415866	0.126258
O32	O	0.888728	0.415868	0.005989
O33	O	0.515522	0.846133	-0.071451
O34	O	0.649340	0.846134	-0.077695
O35	O	0.741539	0.560201	0.071629
O36	O	0.820297	0.560202	-0.002847
O37	O	0.741506	0.701800	-0.069966
O38	O	0.662748	0.701798	0.004510
C39	C	0.702119	0.441744	-0.032739
C40	C	0.702117	0.377513	-0.032741
C41	C	0.743223	0.347343	-0.071619
C42	C	0.743230	0.286982	-0.071614
C43	C	0.702117	0.256804	-0.032740
C44	C	0.661010	0.286978	0.006147
C45	C	0.661010	0.347332	0.006146
C46	C	0.633237	0.194775	-0.034800
C47	C	0.633235	0.134425	-0.034804
C48	C	0.702118	0.070650	-0.032733
C49	C	0.771003	0.067238	-0.030671
C50	C	0.771003	0.127592	-0.030672
C51	C	0.702113	0.191360	-0.032734
C52	C	0.743235	-0.024971	-0.071607
C53	C	0.743245	-0.085337	-0.071596
C54	C	0.661017	-0.085334	0.006160
C55	C	0.661015	-0.024975	0.006154
C56	C	0.702122	0.005205	-0.032733
C57	C	0.491541	0.631000	-0.022906
C58	C	0.420071	0.631000	-0.019572
C59	C	0.386480	0.631003	-0.070271
C60	C	0.319328	0.630998	-0.067135
C61	C	0.285766	0.630996	-0.013301
C62	C	0.319363	0.630991	0.037404
C63	C	0.386517	0.630990	0.034270
C64	C	0.084930	0.630995	0.001680
C65	C	0.017770	0.630999	0.004809
C66	C	0.017741	0.631004	-0.099729
C67	C	0.084893	0.631008	-0.102861
C68	C	0.118487	0.630998	-0.052154
N69	N	0.217125	0.630995	-0.010095
N70	N	0.187130	0.630994	-0.055358
C71	C	0.912709	0.631002	-0.042556
C72	C	0.984179	0.631002	-0.045890
C73	C	0.702075	0.631004	-0.221993
C74	C	0.702057	0.631005	-0.286227
C75	C	0.702131	0.820257	-0.032723
C76	C	0.702133	0.884489	-0.032720
C77	C	0.660933	0.704915	-0.351436
C78	C	0.660953	0.704916	-0.411792
C79	C	0.702087	0.631003	-0.406934
C80	C	0.743220	0.557083	-0.341714
C81	C	0.743205	0.557084	-0.281360
C82	C	0.696244	0.574375	-0.473981
C83	C	0.696253	0.574377	-0.534335
C84	C	0.702136	0.630996	-0.593084
C85	C	0.707995	0.687628	-0.591478
C86	C	0.707981	0.687629	-0.531124
C87	C	0.702108	0.630993	-0.472374
C88	C	0.661032	0.704913	-0.723741
C89	C	0.661057	0.704911	-0.784097
C90	C	0.743319	0.557075	-0.714017
C91	C	0.743299	0.557080	-0.653663
C92	C	0.702151	0.631001	-0.658530
C93	C	0.702175	0.630998	0.156531
C94	C	0.702192	0.630997	0.220765
C95	C	0.912703	0.441745	-0.042564
C96	C	0.984171	0.377514	-0.045901
C97	C	0.702170	0.441742	0.156523
C98	C	0.702185	0.377509	0.220754
C99	C	0.912753	0.441742	0.146698
C100	C	0.984239	0.377510	0.207595
C101	C	0.491497	0.820259	-0.212160
C102	C	0.420011	0.884492	-0.273057
C103	C	0.491547	0.820256	-0.022898
C104	C	0.420079	0.884488	-0.019561
C105	C	0.702080	0.820260	-0.221985
C106	C	0.702065	0.884493	-0.286216
C107	C	0.976603	0.347350	-0.082513
C108	C	1.043748	0.287006	-0.085662
C109	C	1.118462	0.256823	-0.052195
C110	C	1.126028	0.286992	-0.015582
C111	C	1.058883	0.347339	-0.012437
C112	C	0.743322	0.347344	0.285963
C113	C	0.743333	0.286999	0.346321
C114	C	0.702211	0.256815	0.341468
C115	C	0.661069	0.286986	0.276253
C116	C	0.661053	0.347334	0.215897
C117	C	1.058927	0.347346	0.197317
C118	C	1.126101	0.287001	0.254530
C119	C	1.118586	0.256817	0.322020
C120	C	1.043890	0.286987	0.332297
C121	C	0.976717	0.347334	0.275085
C122	C	0.345323	0.914662	-0.262779
C123	C	0.278149	0.975026	-0.319991
C124	C	0.285664	1.005214	-0.387482
C125	C	0.360360	0.975040	-0.397759
C126	C	0.427533	0.914682	-0.340547
C127	C	0.427647	0.914657	0.017045
C128	C	0.360501	0.975018	0.020178
C129	C	0.285788	1.005204	-0.013292
C130	C	0.278222	0.975032	-0.049902
C131	C	0.345366	0.914676	-0.053039
C132	C	0.743195	0.914657	-0.281342
C133	C	0.743197	0.975002	-0.341688
C134	C	0.702062	1.005187	-0.406909
C135	C	0.660931	0.975017	-0.411782
C136	C	0.660935	0.914668	-0.351436
H137	H	0.776697	0.371912	-0.103282
H138	H	0.413867	0.630986	0.075555
H139	H	0.231121	1.054349	-0.010732
H140	H	0.702065	1.054327	-0.456041
C141	C	0.894564	0.380499	0.286400
H142	H	0.899717	0.353869	0.334790
H143	H	0.866639	0.437478	0.265701
H144	H	0.866659	0.370591	0.265701
C145	C	0.615805	0.380504	0.144171
H146	H	0.591325	0.353875	0.149932
H147	H	0.576884	0.437483	0.120898
H148	H	0.651297	0.370599	0.117437
C149	C	0.615713	0.786218	-0.483531
H150	H	0.621620	0.775628	-0.518778
H151	H	0.561608	0.816586	-0.486315
H152	H	0.636015	0.816593	-0.489762
H153	H	0.776692	0.890090	-0.228241
H154	H	0.488476	0.890085	0.044305
C155	C	0.894427	0.380546	-0.119335
H156	H	0.899548	0.353939	-0.141595
H157	H	0.866525	0.370653	-0.086138
H158	H	0.866518	0.437529	-0.153005
C159	C	0.788422	0.475781	-0.209625
H160	H	0.782518	0.486368	-0.174377
H161	H	0.768111	0.445422	-0.203411
H162	H	0.842534	0.445399	-0.206827
C163	C	0.337032	0.881486	-0.093297
H164	H	0.282917	0.908105	-0.112772
H165	H	0.361506	0.891368	-0.129416
H166	H	0.361517	0.824505	-0.062533
C167	C	1.035411	0.253822	-0.125929
H168	H	0.981297	0.280434	-0.145398
H169	H	1.059876	0.263718	-0.162053
H170	H	1.059906	0.196840	-0.095170
H171	H	1.065061	0.371914	0.142367
H172	H	1.186869	0.262408	0.011665
C173	C	1.208256	0.253818	0.243213
H174	H	1.203106	0.280430	0.194823
H175	H	1.236176	0.263713	0.263907
H176	H	1.236166	0.196835	0.263917
C177	C	1.192316	0.190436	-0.055651
H178	H	1.237900	0.176779	-0.030479
H179	H	1.192313	0.143355	-0.035870
H180	H	1.192302	0.210228	-0.102742
C181	C	-0.019206	0.631002	-0.155495
H182	H	-0.064003	0.630995	-0.145917
H183	H	-0.034517	0.678285	-0.199900
H184	H	0.018111	0.583709	-0.155061
H185	H	0.776839	0.262441	0.399416
C186	C	0.615680	1.008232	-0.483527
H187	H	0.621565	1.048500	-0.518763
H188	H	0.635972	0.964918	-0.489785
H189	H	0.561574	1.031790	-0.486298
C190	C	0.368839	1.008189	0.060458
H191	H	0.422953	0.981553	0.079950
H192	H	0.344358	1.065166	0.029710
H193	H	0.344360	0.998293	0.096576
H194	H	0.627588	0.262402	0.272312
H195	H	0.627438	0.890115	-0.355415
C196	C	0.788443	0.253793	-0.114386
H197	H	0.812920	0.280415	-0.137549
H198	H	0.827363	0.196814	-0.084308
H199	H	0.752928	0.263692	-0.147701
C200	C	0.846769	0.123838	-0.028394
H201	H	0.836899	0.168920	-0.028695
H202	H	0.886671	0.074532	0.012726
H203	H	0.863473	0.125761	-0.067818
H204	H	0.627539	-0.000408	0.037810
C205	C	0.702239	0.190429	0.407864
H206	H	0.732638	0.176785	0.447392
H207	H	0.649853	0.210202	0.410322
H208	H	0.724264	0.143332	0.406844
H209	H	0.827096	0.015304	-0.028975
C210	C	0.557460	0.264935	-0.037093
H211	H	0.567325	0.300390	-0.036796
H212	H	0.517564	0.294454	-0.078216
H213	H	0.540749	0.243243	0.002327
H214	H	0.488345	0.890117	-0.348924
C215	C	1.192480	0.190429	0.384947
H216	H	1.238036	0.176786	0.369153
H217	H	1.192504	0.210201	0.412256
H218	H	1.192497	0.143333	0.412245
C219	C	0.714468	0.749914	-0.656093
H220	H	0.717949	0.783643	-0.646494
H221	H	0.760131	0.721877	-0.667736
H222	H	0.669301	0.782663	-0.693916
H223	H	1.037782	0.262402	0.387256
C224	C	0.282377	0.631009	-0.122908
H225	H	0.311977	0.631021	-0.155423
H226	H	0.282489	0.583725	-0.101450
H227	H	0.229866	0.678301	-0.146271
H228	H	1.065057	0.371890	0.017381
H229	H	0.339189	0.890087	-0.207829
H230	H	0.217335	0.999583	-0.311610
C231	C	0.788555	0.380540	0.291311
H232	H	0.782666	0.420799	0.246029
H233	H	0.768251	0.404087	0.317333
H234	H	0.842664	0.337210	0.313866
C235	C	0.211769	1.071595	-0.450409
H236	H	0.166214	1.085228	-0.434615
H237	H	0.211745	1.118692	-0.477718
H238	H	0.211754	1.051805	-0.477707
C239	C	0.788465	0.008217	-0.114367
H240	H	0.812959	-0.018409	-0.137512
H241	H	0.752968	0.065195	-0.147686
H242	H	0.827386	-0.001680	-0.084276
H243	H	0.366470	0.999627	-0.452717
H244	H	0.217381	0.999618	-0.077152
C245	C	0.788433	1.008188	-0.336315
H246	H	0.812916	0.981576	-0.288827
H247	H	0.827350	0.998295	-0.360128
H248	H	0.752929	1.065170	-0.356665
H249	H	0.776723	-0.109905	-0.103253
H250	H	0.627542	-0.109904	0.037813
C251	C	0.615679	0.786224	-0.356791
H252	H	0.591195	0.830243	-0.404275
H253	H	0.576762	0.789299	-0.332981
H254	H	0.651172	0.789299	-0.336427
H255	H	0.627536	0.262403	0.037799
C256	C	0.557466	0.138183	-0.037075
H257	H	0.516446	0.184801	-0.038297
H258	H	0.542997	0.141652	-0.077431
H259	H	0.566208	0.090418	0.003113
C260	C	0.714436	0.749909	-0.529353
H261	H	0.717948	0.783629	-0.572981
H262	H	0.669265	0.782657	-0.520083
H263	H	0.760094	0.721859	-0.493905
H264	H	0.627572	0.765100	-0.837194
C265	C	0.615775	0.380540	0.048896
H266	H	0.621661	0.420808	0.043326
H267	H	0.561674	0.404079	0.033164
H268	H	0.636090	0.337220	0.096576
H269	H	0.413799	0.631009	-0.114111
H270	H	0.112218	0.631009	-0.146696
C271	C	0.615780	0.786218	-0.729086
H272	H	0.621652	0.775634	-0.683801
H273	H	0.636086	0.816590	-0.755092
H274	H	0.561676	0.816587	-0.751654
H275	H	-0.009554	0.630998	0.048650
H276	H	0.292035	0.630985	0.081240
C277	C	0.121872	0.630989	0.057453
H278	H	0.092259	0.630997	0.089957
H279	H	0.174379	0.583702	0.080819
H280	H	0.121756	0.678278	0.035989
H281	H	0.776783	0.496894	-0.600566
C282	C	0.689841	0.512064	-0.536089
H283	H	0.686360	0.478327	-0.492451
H284	H	0.644199	0.540074	-0.571529
H285	H	0.735033	0.479328	-0.545354
H286	H	0.691447	0.528268	-0.426149
C287	C	0.788463	0.475780	-0.336369
H288	H	0.782575	0.486365	-0.381653
H289	H	0.842564	0.445408	-0.313804
H290	H	0.768151	0.445412	-0.310360
H291	H	0.776812	0.496894	-0.710060
