data_functionalizedCrystal
_audit_creation_method	'MofGen! by Chris Wilmer'
_symmetry_space_group_name_H-M	'P1'
_symmetry_Int_Tables_number	1
_symmetry_cell_setting	triclinic
loop_
_symmetry_equiv_pos_as_xyz
  x,y,z
_cell_length_a	10.654550
_cell_length_b	11.026607
_cell_length_c	9.730223
_cell_angle_alpha	89.997552
_cell_angle_beta	89.999957
_cell_angle_gamma	96.535474
loop_
_atom_site_label
_atom_site_type_symbol
_atom_site_fract_x
_atom_site_fract_y
_atom_site_fract_z
O1	O	1.704907	0.170767	-0.114181
O2	O	2.204907	0.670767	0.385819
O3	O	1.342961	0.187037	-0.114206
O4	O	1.842961	0.687037	0.385794
O5	O	1.493936	0.001997	-0.114190
O6	O	1.993936	0.501997	0.385810
O7	O	1.553932	0.355808	-0.114196
O8	O	2.053932	0.855808	0.385804
O9	O	1.493923	0.001991	0.114390
O10	O	1.993923	0.501991	0.614390
O11	O	1.342947	0.187032	0.114374
O12	O	1.842947	0.687032	0.614374
O13	O	1.704894	0.170762	0.114399
O14	O	2.204894	0.670762	0.614399
Zn15	Zn	1.523918	0.178896	0.150679
Zn16	Zn	2.023918	0.678896	0.650679
Zn17	Zn	1.523936	0.178903	-0.150485
Zn18	Zn	2.023936	0.678903	0.349515
O19	O	1.553918	0.355803	0.114384
O20	O	2.053918	0.855803	0.614384
C21	C	1.295897	0.185840	0.000081
C22	C	1.795897	0.685840	0.500081
C23	C	1.155678	0.182266	0.000072
C24	C	1.655678	0.682266	0.500072
C25	C	1.482861	-0.043310	0.000097
C26	C	1.982861	0.456690	0.500097
C27	C	1.449867	-0.178302	0.000090
C28	C	1.949867	0.321698	0.500090
C29	C	1.099841	0.291214	0.000074
C30	C	1.599841	0.791214	0.500074
C31	C	0.968090	0.287849	0.000098
C32	C	1.468090	0.787849	0.500098
C33	C	0.948022	0.066576	0.000112
C34	C	1.448022	0.566576	0.500112
C35	C	1.079771	0.069943	0.000098
C36	C	1.579771	0.569943	0.500098
C37	C	1.540970	-0.251341	0.000094
C38	C	2.040970	0.248659	0.500094
C39	C	1.506871	-0.390862	0.000087
C40	C	2.006871	0.109138	0.500087
C41	C	1.751958	0.171959	0.000109
C42	C	2.251958	0.671959	0.500109
C43	C	1.892177	0.175533	0.000110
C44	C	2.392177	0.675533	0.500110
C45	C	1.564993	0.401109	0.000093
C46	C	2.064993	0.901109	0.500093
C47	C	1.597988	0.536101	0.000091
C48	C	2.097988	1.036101	0.500091
N49	N	1.523915	0.178891	0.356215
N50	N	2.023915	0.678891	0.856215
N51	N	1.523947	0.178899	-0.356022
N52	N	2.023947	0.678899	0.143978
C53	C	1.590804	0.096990	0.428148
C54	C	2.090804	0.596990	0.928148
C55	C	1.590817	0.096990	0.572031
C56	C	2.090817	0.596990	1.072031
C57	C	1.457050	0.260803	0.572036
C58	C	1.957050	0.760803	1.072036
C59	C	1.457031	0.260796	0.428155
C60	C	1.957031	0.760796	0.928155
H61	H	1.161641	0.382675	0.000063
H62	H	1.661641	0.882675	0.500063
H63	H	0.922635	0.376566	0.000102
H64	H	1.422635	0.876566	0.500102
H65	H	1.644212	-0.210580	0.000110
H66	H	2.144212	0.289420	0.500110
H67	H	1.645282	0.030298	0.630594
H68	H	2.145282	0.530298	1.130594
O69	O	0.866143	-0.054564	0.000134
O70	O	1.366143	0.445436	0.500134
H71	H	0.927108	-0.129758	0.000145
H72	H	1.427108	0.370242	0.500145
O73	O	1.734752	-0.409919	0.000097
O74	O	2.234752	0.090081	0.500097
H75	H	1.782242	-0.440673	-0.093075
H76	H	2.282242	0.059327	0.406925
O77	O	1.140009	-0.047571	0.000098
O78	O	1.640009	0.452429	0.500098
H79	H	1.065094	-0.126241	0.000100
H80	H	1.565094	0.373759	0.500100
H81	H	1.403623	-0.431617	0.000071
H82	H	1.903623	0.068383	0.500071
O83	O	1.313106	-0.232278	0.000076
O84	O	1.813106	0.267722	0.500076
H85	H	1.265610	-0.201510	0.093235
H86	H	1.765610	0.298490	0.593235
H87	H	1.645263	0.030296	0.369577
H88	H	2.145263	0.530296	0.869577
O89	O	1.384929	0.349157	0.649626
O90	O	1.884929	0.849157	1.149626
H91	H	1.396192	0.335415	0.761761
H92	H	1.896192	0.835415	1.261761
O93	O	1.384865	0.349128	0.350566
O94	O	1.884865	0.849128	0.850566
H95	H	1.396072	0.335346	0.238431
H96	H	1.896072	0.835346	0.738431
