data_functionalizedCrystal
_audit_creation_method	'MofGen! by Chris Wilmer'
_symmetry_space_group_name_H-M	'P1'
_symmetry_Int_Tables_number	1
_symmetry_cell_setting	triclinic
loop_
_symmetry_equiv_pos_as_xyz
  x,y,z
_cell_length_a	10.654547
_cell_length_b	16.992695
_cell_length_c	16.053802
_cell_angle_alpha	87.258926
_cell_angle_beta	87.393121
_cell_angle_gamma	92.422861
loop_
_atom_site_label
_atom_site_type_symbol
_atom_site_fract_x
_atom_site_fract_y
_atom_site_fract_z
O1	O	1.682334	-0.106925	-0.069445
O2	O	2.182334	0.393075	0.430555
O3	O	1.317762	-0.117421	-0.069443
O4	O	1.817762	0.382579	0.430557
O5	O	1.498586	0.001977	-0.069437
O6	O	1.998586	0.501977	0.430563
O7	O	1.501510	-0.226324	-0.069451
O8	O	2.001510	0.273676	0.430549
O9	O	1.488630	-0.004568	0.069421
O10	O	1.988630	0.495432	0.569421
O11	O	1.307807	-0.123966	0.069415
O12	O	1.807807	0.376034	0.569415
O13	O	1.672378	-0.113470	0.069414
O14	O	2.172378	0.386530	0.569414
Zn15	Zn	1.488512	-0.119757	0.091461
Zn16	Zn	1.988512	0.380243	0.591461
Zn17	Zn	1.501629	-0.111134	-0.091491
Zn18	Zn	2.001629	0.388866	0.408509
O19	O	1.491554	-0.232868	0.069408
O20	O	1.991554	0.267132	0.569408
C21	C	1.265920	-0.119923	-0.000014
C22	C	1.765920	0.380077	0.499986
C23	C	1.126277	-0.117616	-0.000013
C24	C	1.626277	0.382384	0.499987
C25	C	0.874737	-0.106131	-0.151412
C26	C	1.374737	0.393869	0.348588
C27	C	0.945775	-0.103649	-0.227104
C28	C	1.445775	0.396351	0.272896
C29	C	1.076981	-0.105822	-0.227102
C30	C	1.576981	0.394178	0.272898
C31	C	1.137150	-0.110477	-0.151399
C32	C	1.637150	0.389523	0.348601
C33	C	1.066111	-0.112959	-0.075707
C34	C	1.566111	0.387041	0.424293
C35	C	0.934903	-0.110787	-0.075718
C36	C	1.434903	0.389213	0.424282
C37	C	1.055239	-0.120098	0.075679
C38	C	1.555239	0.379902	0.575679
C39	C	0.924033	-0.117930	0.075679
C40	C	1.424033	0.382070	0.575679
C41	C	1.115408	-0.124753	0.151381
C42	C	1.615408	0.375247	0.651381
C43	C	1.044368	-0.127241	0.227075
C44	C	1.544368	0.372759	0.727075
C45	C	0.913155	-0.125068	0.227070
C46	C	1.413155	0.374932	0.727070
C47	C	0.852994	-0.120413	0.151371
C48	C	1.352994	0.379587	0.651371
C49	C	1.489848	0.027938	-0.000008
C50	C	1.989848	0.527938	0.499992
C51	C	1.478629	0.115043	-0.000008
C52	C	1.978629	0.615043	0.499992
C53	C	1.724221	-0.110969	-0.000018
C54	C	2.224221	0.389031	0.499982
C55	C	1.863864	-0.113276	-0.000024
C56	C	2.363864	0.386724	0.499976
C57	C	1.500293	-0.258829	-0.000023
C58	C	2.000293	0.241171	0.499977
C59	C	1.511512	-0.345934	-0.000028
C60	C	2.011512	0.154066	0.499972
N61	N	1.479569	-0.125642	0.216321
N62	N	1.979569	0.374358	0.716321
C63	C	1.586880	0.164694	-0.000008
C64	C	2.086880	0.664694	0.499992
C65	C	1.576331	0.246538	-0.000016
C66	C	2.076331	0.746538	0.499984
C67	C	1.457530	0.278730	-0.000018
C68	C	1.957530	0.778730	0.499982
C69	C	1.349271	0.229072	-0.000021
C70	C	1.849271	0.729072	0.499979
C71	C	1.359822	0.147230	-0.000019
C72	C	1.859822	0.647230	0.499981
C73	C	1.413804	0.522566	-0.000030
C74	C	1.913804	1.022566	0.499970
C75	C	1.403261	0.604415	-0.000029
C76	C	1.903261	1.104415	0.499971
C77	C	1.630322	0.621875	-0.000025
C78	C	2.130322	1.121875	0.499975
C79	C	1.640862	0.540030	-0.000018
C80	C	2.140862	1.040030	0.499982
C81	C	1.532603	0.490380	-0.000026
C82	C	2.032603	0.990380	0.499974
N83	N	1.446745	0.362388	-0.000024
N84	N	1.946745	0.862388	0.499976
N85	N	1.543390	0.406724	-0.000026
N86	N	2.043390	0.906724	0.499974
N87	N	1.510581	-0.105244	-0.216351
N88	N	2.010581	0.394756	0.283649
C89	C	1.556541	-0.074856	0.260018
C90	C	2.056541	0.425144	0.760018
C91	C	1.550298	-0.078980	0.347424
C92	C	2.050298	0.421020	0.847424
C93	C	1.467088	-0.133894	0.391133
C94	C	1.967088	0.366106	0.891133
C95	C	1.390107	-0.184682	0.347430
C96	C	1.890107	0.315318	0.847430
C97	C	1.396344	-0.180553	0.260025
C98	C	1.896344	0.319447	0.760025
C99	C	1.439838	-0.151904	0.652542
C100	C	1.939838	0.348096	1.152542
C101	C	1.433609	-0.156029	0.739953
C102	C	1.933609	0.343971	1.239953
C103	C	1.593799	-0.050326	0.739941
C104	C	2.093799	0.449674	1.239941
C105	C	1.600035	-0.046206	0.652534
C106	C	2.100035	0.453794	1.152534
C107	C	1.523049	-0.096991	0.608839
C108	C	2.023049	0.403009	1.108839
N109	N	1.460707	-0.138112	0.480476
N110	N	1.960707	0.361888	0.980476
N111	N	1.529424	-0.092769	0.519497
N112	N	2.029424	0.407231	1.019497
H113	H	0.767902	-0.104371	-0.151421
H114	H	1.267902	0.395629	0.348579
H115	H	1.377155	-0.193256	0.616972
H116	H	1.877155	0.306744	1.116972
N117	N	1.313331	-0.235335	0.212894
N118	N	1.813331	0.264665	0.712894
H119	H	1.329905	-0.224386	0.150892
H120	H	1.829905	0.275614	0.650892
H121	H	1.222196	-0.226475	0.228189
H122	H	1.722196	0.273525	0.728189
N123	N	0.836541	-0.127738	0.308711
N124	N	1.336541	0.372262	0.808711
H125	H	0.894631	-0.130469	0.356660
H126	H	1.394631	0.369531	0.856660
H127	H	0.777161	-0.175834	0.312261
H128	H	1.277161	0.324166	0.812261
N129	N	1.221135	0.263791	-0.000016
N130	N	1.721135	0.763791	0.499984
H131	H	1.154160	0.219916	-0.000017
H132	H	1.654160	0.719916	0.499983
H133	H	1.215501	0.299793	-0.051491
H134	H	1.715501	0.799793	0.448509
H135	H	1.656476	-0.008978	0.775525
H136	H	2.156476	0.491022	1.275525
N137	N	0.711481	-0.118067	0.151370
N138	N	1.211481	0.381933	0.651370
H139	H	0.676694	-0.164688	0.121646
H140	H	1.176694	0.335312	0.621646
H141	H	0.687432	-0.067565	0.121669
H142	H	1.187432	0.432435	0.621669
N143	N	1.297042	0.469023	-0.000035
N144	N	1.797042	0.969023	0.499965
H145	H	1.292662	0.432250	0.051436
H146	H	1.792662	0.932250	0.551436
H147	H	1.300124	0.437158	-0.051548
H148	H	1.800124	0.937158	0.448452
H149	H	1.624305	-0.030143	0.224436
H150	H	2.124305	0.469857	0.724436
N151	N	1.275119	0.639136	-0.000040
N152	N	1.775119	1.139136	0.499960
H153	H	1.284867	0.698516	-0.000036
H154	H	1.784867	1.198516	0.499964
H155	H	1.223689	0.618593	0.051434
H156	H	1.723689	1.118593	0.551434
H157	H	1.612974	-0.037626	0.383002
H158	H	2.112974	0.462374	0.883002
H159	H	0.896771	-0.099856	-0.288739
H160	H	1.396771	0.400144	0.211261
N161	N	1.109255	-0.132260	0.308719
N162	N	1.609255	0.367740	0.808719
H163	H	1.168758	-0.084773	0.312101
H164	H	1.668758	0.415227	0.812101
H165	H	1.158072	-0.181894	0.312038
H166	H	1.658072	0.318106	0.812038
N167	N	1.243062	0.093675	0.000003
N168	N	1.743062	0.593675	0.500003
H169	H	1.267771	0.036944	0.000007
H170	H	1.767771	0.536944	0.500007
H171	H	1.195320	0.106584	-0.051470
H172	H	1.695320	0.606584	0.448530
H173	H	1.134821	-0.103800	-0.288737
H174	H	1.634821	0.396200	0.211263
H175	H	1.667791	-0.001491	0.616948
H176	H	2.167791	0.498509	1.116948
N177	N	1.715015	0.129976	0.000003
N178	N	2.215015	0.629976	0.500003
H179	H	1.781990	0.173852	0.000000
H180	H	2.281990	0.673852	0.500000
H181	H	1.728032	0.098820	-0.051472
H182	H	2.228032	0.598820	0.448528
N183	N	1.693086	0.300091	-0.000011
N184	N	2.193086	0.800091	0.499989
H185	H	1.769945	0.267279	-0.000001
H186	H	2.269945	0.767279	0.499999
H187	H	1.689952	0.332005	0.051466
H188	H	2.189952	0.832005	0.551466
N189	N	1.343869	-0.215268	0.787099
N190	N	1.843869	0.284732	1.287099
H191	H	1.296047	-0.246816	0.746156
H192	H	1.796047	0.253184	1.246156
H193	H	1.282726	-0.186627	0.823386
H194	H	1.782726	0.313373	1.323386
H195	H	1.322348	-0.229391	0.383023
H196	H	1.822348	0.270609	0.883023
H197	H	1.243985	-0.112237	-0.151404
H198	H	1.743985	0.387763	0.348596
N199	N	1.769001	0.505315	-0.000044
N200	N	2.269001	1.005315	0.499956
H201	H	1.759258	0.445934	-0.000048
H202	H	2.259258	0.945934	0.499952
H203	H	1.813063	0.521006	0.051426
H204	H	2.313063	1.021006	0.551426
N205	N	1.256923	-0.127083	0.151376
N206	N	1.756923	0.372917	0.651376
H207	H	1.285356	-0.174750	0.121654
H208	H	1.785356	0.325250	0.621654
H209	H	1.284170	-0.130374	0.210834
H210	H	1.784170	0.369626	0.710834
H211	H	1.718460	0.662309	-0.000021
H212	H	2.218460	1.162309	0.499979
