data_functionalizedCrystal
_audit_creation_method	'MofGen! by Chris Wilmer'
_symmetry_space_group_name_H-M	'P1'
_symmetry_Int_Tables_number	1
_symmetry_cell_setting	triclinic
loop_
_symmetry_equiv_pos_as_xyz
  x,y,z
_cell_length_a	16.992694
_cell_length_b	16.992695
_cell_length_c	15.455446
_cell_angle_alpha	92.856195
_cell_angle_beta	87.147499
_cell_angle_gamma	90.668223
loop_
_atom_site_label
_atom_site_type_symbol
_atom_site_fract_x
_atom_site_fract_y
_atom_site_fract_z
O1	O	1.047630	0.170137	0.072022
O2	O	0.819228	0.168307	0.072048
O3	O	0.932514	0.055022	0.072028
O4	O	0.934344	0.283423	0.072042
O5	O	0.938955	0.048566	-0.072232
O6	O	0.825669	0.161852	-0.072213
O7	O	1.054071	0.163682	-0.072238
Cu8	Cu	0.940458	0.162177	-0.085397
Cu9	Cu	0.932841	0.169812	0.085207
O10	O	0.940785	0.276967	-0.072219
C11	C	0.793089	0.162724	-0.000079
C12	C	0.705604	0.155696	-0.000070
C13	C	0.933378	0.022434	-0.000102
C14	C	0.926350	-0.065050	-0.000101
C15	C	0.659613	0.223514	-0.000066
C16	C	0.577412	0.216904	-0.000079
C17	C	0.541204	0.142476	-0.000088
C18	C	0.587202	0.074653	-0.000094
C19	C	0.669401	0.081263	-0.000088
C20	C	0.295891	0.115081	-0.000113
C21	C	0.213686	0.108476	-0.000116
C22	C	0.203902	0.250728	-0.000103
C23	C	0.286103	0.257331	-0.000091
C24	C	0.332093	0.189508	-0.000102
N25	N	0.457183	0.135719	-0.000098
N26	N	0.416114	0.196266	-0.000098
C27	C	0.994168	-0.111042	-0.000109
C28	C	0.987559	-0.193242	-0.000100
C29	C	0.913130	-0.229450	-0.000089
C30	C	0.845307	-0.183452	-0.000078
C31	C	0.851917	-0.101253	-0.000081
C32	C	0.885735	-0.474764	-0.000074
C33	C	0.879131	-0.556969	-0.000074
C34	C	1.021383	-0.566753	-0.000094
C35	C	1.027987	-0.484552	-0.000102
C36	C	0.960163	-0.438561	-0.000087
N37	N	0.906373	-0.313472	-0.000082
N38	N	0.966921	-0.354541	-0.000087
C39	C	1.080210	0.169265	-0.000109
C40	C	1.167695	0.176294	-0.000113
C41	C	0.939920	0.309555	-0.000087
C42	C	0.946949	0.397040	-0.000082
N43	N	0.945821	0.156807	-0.205391
C44	C	0.975622	0.127069	-0.749391
C45	C	0.971548	0.131139	-0.658584
C46	C	0.919332	0.183312	-0.613187
C47	C	0.871192	0.231424	-0.658602
C48	C	0.875270	0.227358	-0.749407
C49	C	0.901759	0.200853	-0.341611
C50	C	0.897683	0.204914	-0.250800
C51	C	0.998041	0.104629	-0.250788
C52	C	1.002111	0.100564	-0.341595
C53	C	0.953974	0.148680	-0.387001
N54	N	0.915165	0.187471	-0.520368
N55	N	0.958145	0.144524	-0.479819
N56	N	0.927483	0.175176	0.205201
H57	H	0.689087	0.284121	-0.000058
H58	H	0.706846	0.026038	-0.000090
H59	H	1.037233	0.065457	-0.213809
H60	H	0.855160	0.247402	-0.213842
H61	H	0.830508	-0.437328	-0.000061
C62	C	0.575998	0.358176	-0.000052
C63	C	0.526859	0.291453	-0.000071
H64	H	0.544786	0.404200	-0.000044
H65	H	0.610515	0.355547	-0.050352
H66	H	0.606008	0.360037	0.050261
H67	H	0.496852	0.289589	-0.050388
H68	H	0.492328	0.294082	0.050234
C69	C	1.093164	-0.661539	0.074063
C70	C	1.095932	-0.617305	-0.000099
H71	H	1.139193	-0.692743	0.074063
H72	H	1.047899	-0.694865	0.074061
H73	H	1.090537	-0.627004	0.124362
H74	H	1.098553	-0.651840	-0.050399
H75	H	1.141209	-0.583977	-0.000105
C76	C	0.802151	0.300385	-0.332489
C77	C	0.848844	0.253738	-0.391515
H78	H	0.769480	0.333032	-0.363302
H79	H	0.835099	0.332356	-0.297063
H80	H	0.770196	0.267399	-0.297080
H81	H	0.880803	0.286724	-0.426919
H82	H	0.815893	0.221764	-0.426955
C83	C	0.772012	-0.305112	-0.000075
C84	C	0.763493	-0.223250	-0.000069
H85	H	0.721502	-0.329679	-0.000077
H86	H	0.797900	-0.318337	0.050226
H87	H	0.802401	-0.322839	-0.050388
H88	H	0.733109	-0.205523	0.050248
H89	H	0.737594	-0.210019	-0.050374
C90	C	0.710644	-0.099834	-0.000066
C91	C	0.777369	-0.050697	-0.000074
H92	H	0.664621	-0.068621	-0.000064
H93	H	0.708781	-0.129843	0.050237
H94	H	0.713275	-0.134353	-0.050377
H95	H	0.774741	-0.016181	0.050241
H96	H	0.779232	-0.020674	-0.050382
H97	H	0.818520	-0.586447	-0.000079
C98	C	0.166928	0.373256	0.074067
C99	C	0.153347	0.325275	-0.000097
H100	H	0.135713	0.419277	0.074069
H101	H	0.221058	0.387841	0.074064
H102	H	0.153211	0.345191	0.124364
H103	H	0.167071	0.353338	-0.050395
H104	H	0.099205	0.310691	-0.000103
C105	C	0.820372	0.282179	-0.519412
C106	C	0.813792	0.288772	-0.608704
H107	H	0.784930	0.317579	-0.488610
H108	H	0.872767	0.294724	-0.504521
H109	H	0.807870	0.229762	-0.504546
H110	H	0.826300	0.341187	-0.623571
H111	H	0.761386	0.276232	-0.623600
C112	C	1.074410	0.028352	-0.740248
C113	C	1.033017	0.069715	-0.799286
H114	H	1.109847	-0.007053	-0.771052
H115	H	1.038281	-0.000449	-0.704839
H116	H	1.103184	0.064507	-0.704825
H117	H	1.004238	0.033560	-0.834706
H118	H	1.069151	0.098517	-0.834710
C119	C	0.775651	0.326881	-0.740304
C120	C	0.822349	0.280232	-0.799324
H121	H	0.742977	0.359521	-0.771122
H122	H	0.808597	0.358859	-0.704882
H123	H	0.743700	0.293897	-0.704891
H124	H	0.854305	0.313217	-0.834733
H125	H	0.789400	0.248252	-0.834760
H126	H	1.044629	0.058081	-0.378555
C127	C	0.369506	0.350601	0.074124
C128	C	0.325883	0.339154	-0.000054
H129	H	0.394055	0.401121	0.074159
H130	H	0.408669	0.311172	0.074108
H131	H	0.335373	0.347288	0.124412
H132	H	0.360018	0.342462	-0.050342
H133	H	0.286716	0.378595	-0.000046
H134	H	0.557715	0.014051	-0.000114
C135	C	0.231610	-0.031478	-0.000139
C136	C	0.173885	0.026658	-0.000129
H137	H	0.207036	-0.081985	-0.000149
H138	H	0.261216	-0.023695	0.050164
H139	H	0.265718	-0.028188	-0.050450
H140	H	0.139779	0.023372	0.050185
H141	H	0.144266	0.018873	-0.050437
C142	C	1.009377	0.092362	-0.519382
C143	C	1.024126	0.077923	-0.608671
H144	H	1.041742	0.059412	-0.488571
H145	H	0.955543	0.081462	-0.504707
H146	H	1.020856	0.146005	-0.504314
H147	H	1.012641	0.024282	-0.623740
H148	H	1.077972	0.088817	-0.623352
C149	C	0.390676	0.043303	0.074048
C150	C	0.346435	0.040529	-0.000112
H151	H	0.421884	-0.002723	0.074045
H152	H	0.356153	0.045935	0.124343
H153	H	0.424006	0.088574	0.074040
H154	H	0.313101	-0.004739	-0.000102
H155	H	0.380963	0.037889	-0.050420
C156	C	1.128831	-0.194657	-0.000141
C157	C	1.062108	-0.243796	-0.000119
H158	H	1.174856	-0.225869	-0.000159
H159	H	1.126210	-0.160141	0.050162
H160	H	1.130683	-0.164646	-0.050452
H161	H	1.060252	-0.273804	0.050195
H162	H	1.064729	-0.278326	-0.050428
C163	C	1.147962	-0.464263	0.074040
C164	C	1.109802	-0.444758	-0.000113
H165	H	1.198470	-0.439692	0.074030
H166	H	1.153728	-0.519793	0.074036
H167	H	1.117572	-0.446518	0.124345
H168	H	1.140190	-0.462508	-0.050418
H169	H	1.104039	-0.389215	-0.000117
H170	H	1.054776	-0.081568	-0.000124
