data_functionalizedCrystal
_audit_creation_method	'MofGen! by Chris Wilmer'
_symmetry_space_group_name_H-M	'P1'
_symmetry_Int_Tables_number	1
_symmetry_cell_setting	triclinic
loop_
_symmetry_equiv_pos_as_xyz
  x,y,z
_cell_length_a	12.759401
_cell_length_b	12.645329
_cell_length_c	12.759393
_cell_angle_alpha	89.969649
_cell_angle_beta	89.979062
_cell_angle_gamma	90.019502
loop_
_atom_site_label
_atom_site_type_symbol
_atom_site_fract_x
_atom_site_fract_y
_atom_site_fract_z
Zn1	Zn	1.606242	-0.421945	-0.594021
Zn2	Zn	2.106242	0.078055	-0.094021
Zn3	Zn	1.606123	-0.599246	-0.418342
Zn4	Zn	2.106123	-0.099246	0.081658
Zn5	Zn	1.430541	-0.422001	-0.418356
Zn6	Zn	1.930541	0.077999	0.081644
Zn7	Zn	1.430523	-0.599172	-0.593979
Zn8	Zn	1.930523	-0.099172	-0.093979
O9	O	1.518358	-0.510591	-0.506175
O10	O	2.018358	-0.010591	-0.006175
O11	O	1.753248	-0.445472	-0.570728
O12	O	2.253248	0.054528	-0.070728
O13	O	1.582790	-0.575788	-0.271323
O14	O	2.082790	-0.075788	0.228677
O15	O	1.453906	-0.273647	-0.441682
O16	O	1.953906	0.226353	0.058318
O17	O	1.753160	-0.575734	-0.441658
O18	O	2.253160	-0.075734	0.058342
O19	O	1.582993	-0.273605	-0.570743
O20	O	2.082993	0.226395	-0.070743
O21	O	1.453790	-0.445568	-0.271333
O22	O	1.953790	0.054432	0.228667
O23	O	1.283518	-0.445496	-0.441641
O24	O	1.783518	0.054504	0.058359
O25	O	1.453875	-0.575607	-0.741006
O26	O	1.953875	-0.075607	-0.241006
O27	O	1.283504	-0.575662	-0.570671
O28	O	1.783504	-0.075662	-0.070671
O29	O	1.582975	-0.445400	-0.741037
O30	O	2.082975	0.054600	-0.241037
O31	O	1.582772	-0.747583	-0.441617
O32	O	2.082772	-0.247583	0.058383
O33	O	1.453759	-0.747529	-0.570657
O34	O	1.953759	-0.247529	-0.070657
C35	C	1.245390	-0.510578	-0.506154
C36	C	1.745390	-0.010578	-0.006154
C37	C	1.128614	-0.510598	-0.506170
C38	C	1.628614	-0.010598	-0.006170
C39	C	1.073772	-0.578479	-0.573249
C40	C	1.573772	-0.078479	-0.073249
C41	C	0.964048	-0.578483	-0.573270
C42	C	1.464048	-0.078483	-0.073270
C43	C	0.964016	-0.442722	-0.439123
C44	C	1.464016	0.057278	0.060877
C45	C	1.073739	-0.442714	-0.439108
C46	C	1.573739	0.057286	0.060892
C47	C	1.518279	-0.786021	-0.506153
C48	C	2.018279	-0.286021	-0.006153
C49	C	1.518342	-0.903851	-0.506179
C50	C	2.018342	-0.403851	-0.006179
C51	C	1.437142	-0.948743	-0.587311
C52	C	1.937142	-0.448743	-0.087311
C53	C	1.437478	-1.071302	-0.587663
C54	C	1.937478	-0.571302	-0.087663
C55	C	1.629265	-1.071612	-0.536014
C56	C	2.129265	-0.571612	-0.036014
C57	C	1.628698	-0.949014	-0.536569
C58	C	2.128698	-0.449014	-0.036569
C59	C	1.489792	-0.949150	-0.395080
C60	C	1.989792	-0.449150	0.104920
C61	C	1.487446	-1.071758	-0.395706
C62	C	1.987446	-0.571758	0.104294
C63	C	1.792391	-0.510605	-0.506196
C64	C	2.292391	-0.010605	-0.006196
C65	C	1.909167	-0.510611	-0.506205
C66	C	2.409167	-0.010611	-0.006205
C67	C	1.518436	-0.510489	-0.780208
C68	C	2.018436	-0.010489	-0.280208
C69	C	1.518470	-0.510446	-0.896985
C70	C	2.018470	-0.010446	-0.396985
C71	C	1.518464	-0.234086	-0.506219
C72	C	2.018464	0.265914	-0.006219
C73	C	1.518510	-0.116255	-0.506238
C74	C	2.018510	0.383745	-0.006238
C75	C	1.585697	-0.442636	-0.951865
C76	C	2.085697	0.057364	-0.451865
C77	C	1.585715	-0.442590	-1.061589
C78	C	2.085715	0.057410	-0.561589
C79	C	1.451275	-0.578173	-1.061544
C80	C	1.951275	-0.078173	-0.561544
C81	C	1.451252	-0.578213	-0.951821
C82	C	1.951252	-0.078213	-0.451821
C83	C	1.518340	-0.510616	-0.233207
C84	C	2.018340	-0.010616	0.266793
C85	C	1.518510	-0.510360	-0.116431
C86	C	2.018510	-0.010360	0.383569
H87	H	0.919401	-0.633756	-0.627895
H88	H	1.419401	-0.133756	-0.127895
H89	H	1.456482	-1.100550	-0.669992
H90	H	1.956482	-0.600550	-0.169992
Br91	Br	1.148173	-0.350573	-0.348074
Br92	Br	1.648173	0.149427	0.151926
H93	H	1.118448	-0.633752	-0.627858
H94	H	1.618448	-0.133752	-0.127858
Br95	Br	0.889537	-0.350599	-0.348114
Br96	Br	1.389537	0.149401	0.151886
H97	H	1.396551	-0.633349	-1.106205
H98	H	1.896551	-0.133349	-0.606205
H99	H	1.355361	-1.101494	-0.569053
H100	H	1.855361	-0.601494	-0.069053
Br101	Br	1.351586	-1.120405	-0.358269
Br102	Br	1.851586	-0.620405	0.141731
H103	H	1.354718	-0.919373	-0.568905
H104	H	1.854718	-0.419373	-0.068905
Br105	Br	1.468296	-0.897277	-0.723743
Br106	Br	1.968296	-0.397277	-0.223743
Br107	Br	1.668979	-0.901205	-0.671914
Br108	Br	2.168979	-0.401205	-0.171914
Br109	Br	1.732990	-0.899496	-0.442327
Br110	Br	2.232990	-0.399496	0.057673
Br111	Br	1.732940	-1.120103	-0.440565
Br112	Br	2.232940	-0.620103	0.059435
Br113	Br	1.670329	-1.122641	-0.669901
Br114	Br	2.170329	-0.622641	-0.169901
H115	H	1.410357	-0.918333	-0.367907
H116	H	1.910357	-0.418333	0.132093
Br117	Br	1.676964	-0.350566	-1.136065
Br118	Br	2.176964	0.149434	-0.636065
Br119	Br	1.578875	-1.122761	-0.289620
Br120	Br	2.078875	-0.622761	0.210380
Br121	Br	1.359999	-0.670238	-0.877334
Br122	Br	1.859999	-0.170238	-0.377334
H123	H	1.548927	-0.920106	-0.334634
H124	H	2.048927	-0.420106	0.165366
H125	H	1.640427	-0.387452	-0.907220
H126	H	2.140427	0.112548	-0.407220
