data_functionalizedCrystal
_audit_creation_method	'MofGen! by Chris Wilmer'
_symmetry_space_group_name_H-M	'P1'
_symmetry_Int_Tables_number	1
_symmetry_cell_setting	triclinic
loop_
_symmetry_equiv_pos_as_xyz
  x,y,z
_cell_length_a	16.120530
_cell_length_b	16.120484
_cell_length_c	16.120379
_cell_angle_alpha	90.213218
_cell_angle_beta	89.817857
_cell_angle_gamma	89.832673
loop_
_atom_site_label
_atom_site_type_symbol
_atom_site_fract_x
_atom_site_fract_y
_atom_site_fract_z
Zn1	Zn	1.228148	0.365922	-0.552154
Zn2	Zn	1.561481	0.699255	-0.218820
Zn3	Zn	1.894814	1.032588	0.114513
Zn4	Zn	1.227287	0.512081	-0.420095
Zn5	Zn	1.560621	0.845415	-0.086761
Zn6	Zn	1.893954	1.178748	0.246572
Zn7	Zn	1.096051	0.366741	-0.406100
Zn8	Zn	1.429384	0.700074	-0.072767
Zn9	Zn	1.762718	1.033408	0.260567
Zn10	Zn	1.082036	0.497916	-0.551395
Zn11	Zn	1.415369	0.831249	-0.218062
Zn12	Zn	1.748703	1.164582	0.115272
O13	O	1.158381	0.435665	-0.482436
O14	O	1.491714	0.768998	-0.149103
O15	O	1.825047	1.102332	0.184231
O16	O	1.344105	0.390896	-0.540810
O17	O	1.677438	0.724229	-0.207477
O18	O	2.010771	1.057562	0.125856
O19	O	1.215384	0.499073	-0.302165
O20	O	1.548717	0.832406	0.031169
O21	O	1.882050	1.165739	0.364502
O22	O	1.119799	0.250567	-0.419935
O23	O	1.453133	0.583900	-0.086602
O24	O	1.786466	0.917234	0.246732
O25	O	1.343473	0.498278	-0.443787
O26	O	1.676806	0.831612	-0.110454
O27	O	2.010139	1.164945	0.222879
O28	O	1.216850	0.249965	-0.527240
O29	O	1.550184	0.583298	-0.193907
O30	O	1.883517	0.916632	0.139427
O31	O	1.118965	0.392292	-0.291883
O32	O	1.452298	0.725625	0.041451
O33	O	1.785632	1.058959	0.374784
O34	O	0.978121	0.378556	-0.419199
O35	O	1.311454	0.711889	-0.085866
O36	O	1.644787	1.045223	0.247468
O37	O	1.095913	0.474135	-0.667569
O38	O	1.429246	0.807468	-0.334236
O39	O	1.762580	1.140802	-0.000902
O40	O	0.967824	0.474929	-0.525947
O41	O	1.301157	0.808263	-0.192613
O42	O	1.634491	1.141596	0.140720
O43	O	1.203261	0.377160	-0.668127
O44	O	1.536594	0.710493	-0.334793
O45	O	1.869927	1.043826	-0.001460
O46	O	1.201794	0.626267	-0.443051
O47	O	1.535127	0.959601	-0.109718
O48	O	1.868461	1.292934	0.223615
O49	O	1.095079	0.615860	-0.539517
O50	O	1.428412	0.949193	-0.206184
O51	O	1.761745	1.282527	0.127150
C52	C	0.942876	0.425295	-0.470972
C53	C	1.276210	0.758628	-0.137639
C54	C	1.609543	1.091962	0.195694
C55	C	0.850681	0.420878	-0.466089
C56	C	1.184014	0.754211	-0.132756
C57	C	1.517347	1.087544	0.200578
C58	C	1.146844	0.651158	-0.492740
C59	C	1.480177	0.984492	-0.159406
C60	C	1.813511	1.317825	0.173927
C61	C	1.141983	0.743349	-0.497179
C62	C	1.475316	1.076683	-0.163846
C63	C	1.808650	1.410016	0.169487
C64	C	1.148119	0.423976	-0.698786
C65	C	1.481453	0.757309	-0.365453
C66	C	1.814786	1.090643	-0.032119
C67	C	1.143747	0.418995	-0.790982
C68	C	1.477080	0.752328	-0.457648
C69	C	1.810413	1.085661	-0.124315
C70	C	0.681878	0.412793	-0.457179
C71	C	1.015212	0.746126	-0.123846
C72	C	1.348545	1.079460	0.209488
C73	C	0.635717	0.458594	-0.507756
C74	C	0.969050	0.791928	-0.174423
C75	C	1.302384	1.125261	0.158911
C76	C	0.541790	0.454096	-0.502799
C77	C	0.875123	0.787429	-0.169465
C78	C	1.208456	1.120763	0.163868
C79	C	0.775815	0.417290	-0.462135
C80	C	1.109148	0.750624	-0.128802
C81	C	1.442481	1.083957	0.204531
C82	C	1.374726	0.446076	-0.493945
C83	C	1.708059	0.779409	-0.160611
C84	C	2.041393	1.112742	0.172722
C85	C	1.466920	0.450512	-0.498849
C86	C	1.800253	0.783846	-0.165516
C87	C	2.133586	1.117179	0.167818
C88	C	1.169984	0.219330	-0.472111
C89	C	1.503317	0.552663	-0.138778
C90	C	1.836651	0.885997	0.194556
C91	C	1.174929	0.127141	-0.467711
C92	C	1.508262	0.460474	-0.134378
C93	C	1.841595	0.793808	0.198955
C94	C	1.133112	0.912144	-0.505303
C95	C	1.466446	1.245477	-0.171969
C96	C	1.799779	1.578810	0.161364
C97	C	1.183797	0.958352	-0.459591
C98	C	1.517130	1.291685	-0.126257
C99	C	1.850463	1.625019	0.207076
C100	C	1.178861	1.052275	-0.464110
C101	C	1.512194	1.385608	-0.130777
C102	C	1.845528	1.718941	0.202556
C103	C	1.138047	0.818212	-0.500784
C104	C	1.471380	1.151545	-0.167451
C105	C	1.804714	1.484879	0.165883
C106	C	1.168653	0.447251	-0.266927
C107	C	1.501986	0.780584	0.066406
C108	C	1.835319	1.113918	0.399740
C109	C	1.173198	0.452006	-0.174729
C110	C	1.506532	0.785339	0.158604
C111	C	1.839865	1.118673	0.491937
C112	C	1.181510	0.460689	-0.005923
C113	C	1.514843	0.794022	0.327410
C114	C	1.848176	1.127355	0.660744
C115	C	1.135438	0.410315	0.040217
C116	C	1.468771	0.743648	0.373551
C117	C	1.802105	1.076981	0.706884
C118	C	1.140062	0.415146	0.134147
C119	C	1.473396	0.748479	0.467480
C120	C	1.806729	1.081812	0.800813
C121	C	1.176886	0.455859	-0.099861
C122	C	1.510220	0.789192	0.233472
C123	C	1.843553	1.122525	0.566805
H124	H	0.666739	0.501183	-0.554780
H125	H	1.000072	0.834517	-0.221447
H126	H	1.333405	1.167850	0.111886
H127	H	1.230895	0.927373	-0.417060
H128	H	1.564229	1.260707	-0.083727
H129	H	1.897562	1.594040	0.249606
F130	F	0.641334	0.357129	-0.395719
F131	F	0.974667	0.690462	-0.062386
F132	F	1.308000	1.023796	0.270947
F133	F	1.071553	0.952632	-0.560888
F134	F	1.404886	1.285965	-0.227554
F135	F	1.738220	1.619299	0.105779
F136	F	1.237601	0.521797	0.034648
F137	F	1.570934	0.855130	0.367981
F138	F	1.904267	1.188464	0.701315
F139	F	1.079342	0.349203	-0.000354
F140	F	1.412675	0.682537	0.332979
F141	F	1.746008	1.015870	0.666313
