data_functionalizedCrystal
_audit_creation_method	'MofGen! by Chris Wilmer'
_symmetry_space_group_name_H-M	'P1'
_symmetry_Int_Tables_number	1
_symmetry_cell_setting	triclinic
loop_
_symmetry_equiv_pos_as_xyz
  x,y,z
_cell_length_a	13.897448
_cell_length_b	13.033304
_cell_length_c	13.032268
_cell_angle_alpha	90.922231
_cell_angle_beta	97.148041
_cell_angle_gamma	82.813841
loop_
_atom_site_label
_atom_site_type_symbol
_atom_site_fract_x
_atom_site_fract_y
_atom_site_fract_z
Zn1	Zn	-0.300132	-1.498457	-0.781522
Zn2	Zn	0.033201	-1.165123	-0.448188
Zn3	Zn	0.366534	-0.831790	-0.114855
Zn4	Zn	-0.438750	-1.520199	-0.609548
Zn5	Zn	-0.105417	-1.186866	-0.276215
Zn6	Zn	0.227917	-0.853533	0.057118
Zn7	Zn	-0.295035	-1.348318	-0.587693
Zn8	Zn	0.038298	-1.014984	-0.254360
Zn9	Zn	0.371632	-0.681651	0.078973
Zn10	Zn	-0.478956	-1.326451	-0.759583
Zn11	Zn	-0.145623	-0.993118	-0.426249
Zn12	Zn	0.187711	-0.659784	-0.092916
O13	O	-0.378218	-1.423356	-0.684587
O14	O	-0.044885	-1.090023	-0.351253
O15	O	0.288448	-0.756690	-0.017920
O16	O	-0.303827	-1.645259	-0.777037
O17	O	0.029506	-1.311926	-0.443704
O18	O	0.362840	-0.978593	-0.110370
O19	O	-0.400726	-1.515650	-0.462741
O20	O	-0.067393	-1.182316	-0.129408
O21	O	0.265940	-0.848983	0.203925
O22	O	-0.160728	-1.368286	-0.613440
O23	O	0.172606	-1.034952	-0.280107
O24	O	0.505939	-0.701619	0.053226
O25	O	-0.405669	-1.661233	-0.650689
O26	O	-0.072336	-1.327900	-0.317356
O27	O	0.260998	-0.994567	0.015978
O28	O	-0.164473	-1.478592	-0.755845
O29	O	0.168861	-1.145259	-0.422512
O30	O	0.502194	-0.811926	-0.089178
O31	O	-0.295140	-1.389369	-0.446685
O32	O	0.038194	-1.056035	-0.113351
O33	O	0.371527	-0.722702	0.219982
O34	O	-0.334126	-1.201499	-0.592167
O35	O	-0.000792	-0.868165	-0.258833
O36	O	0.332541	-0.534832	0.074500
O37	O	-0.474194	-1.331017	-0.906401
O38	O	-0.140861	-0.997684	-0.573067
O39	O	0.192472	-0.664351	-0.239734
O40	O	-0.469252	-1.185433	-0.718453
O41	O	-0.135918	-0.852100	-0.385120
O42	O	0.197415	-0.518767	-0.051787
O43	O	-0.342813	-1.457389	-0.922519
O44	O	-0.009480	-1.124056	-0.589186
O45	O	0.323853	-0.790722	-0.255853
O46	O	-0.579067	-1.494446	-0.629416
O47	O	-0.245734	-1.161113	-0.296082
O48	O	0.087600	-0.827780	0.037251
O49	O	-0.608606	-1.352100	-0.739645
O50	O	-0.275273	-1.018767	-0.406312
O51	O	0.058060	-0.685434	-0.072978
C52	C	-0.405499	-1.156150	-0.650558
C53	C	-0.072166	-0.822816	-0.317225
C54	C	0.261167	-0.489483	0.016108
C55	C	-0.417197	-1.041834	-0.636025
C56	C	-0.083863	-0.708501	-0.302692
C57	C	0.249470	-0.375168	0.030641
C58	C	-0.372126	-0.982953	-0.692157
C59	C	-0.038793	-0.649619	-0.358824
C60	C	0.294541	-0.316286	-0.025491
C61	C	-0.384215	-0.864802	-0.677138
C62	C	-0.050881	-0.531468	-0.343805
C63	C	0.282452	-0.198135	-0.010472
C64	C	-0.628836	-1.423285	-0.684547
C65	C	-0.295503	-1.089952	-0.351214
C66	C	0.037830	-0.756618	-0.017881
C67	C	-0.736047	-1.423344	-0.684577
C68	C	-0.402714	-1.090011	-0.351243
C69	C	-0.069380	-0.756677	-0.017910
C70	C	-0.932339	-1.423444	-0.684655
C71	C	-0.599006	-1.090111	-0.351322
C72	C	-0.265673	-0.756777	-0.017988
C73	C	-0.823109	-1.423385	-0.684614
C74	C	-0.489776	-1.090052	-0.351281
C75	C	-0.156442	-0.756718	-0.017948
C76	C	-0.126622	-1.423453	-0.684652
C77	C	0.206712	-1.090120	-0.351319
C78	C	0.540045	-0.756786	-0.017985
C79	C	-0.019406	-1.423494	-0.684680
C80	C	0.313927	-1.090161	-0.351347
C81	C	0.647260	-0.756827	-0.018013
C82	C	-0.413557	-1.389339	-0.952817
C83	C	-0.080224	-1.056005	-0.619484
C84	C	0.253109	-0.722672	-0.286150
C85	C	-0.428617	-1.374842	-1.067121
C86	C	-0.095283	-1.041509	-0.733788
C87	C	0.238050	-0.708176	-0.400454
C88	C	-0.350826	-0.691607	-0.718741
C89	C	-0.017493	-0.358274	-0.385408
C90	C	0.315841	-0.024940	-0.052074
C91	C	-0.339138	-0.805922	-0.733278
C92	C	-0.005805	-0.472588	-0.399945
C93	C	0.327529	-0.139255	-0.066611
C94	C	-0.370326	-1.430906	-1.126056
C95	C	-0.036992	-1.097573	-0.792723
C96	C	0.296341	-0.764239	-0.459390
C97	C	-0.385889	-1.415925	-1.244195
C98	C	-0.052556	-1.082591	-0.910862
C99	C	0.280778	-0.749258	-0.577529
C100	C	-0.342941	-1.457301	-0.417407
C101	C	-0.009608	-1.123967	-0.084074
C102	C	0.323725	-0.790634	0.249260
C103	C	-0.327590	-1.471996	-0.303129
C104	C	0.005743	-1.138663	0.030204
C105	C	0.339077	-0.805329	0.363538
H106	H	-0.464730	-1.004775	-0.576847
H107	H	-0.131397	-0.671441	-0.243514
H108	H	0.201936	-0.338108	0.089819
Br109	Br	-0.267914	-1.529365	-1.064386
Br110	Br	0.065420	-1.196032	-0.731053
Br111	Br	0.398753	-0.862698	-0.397720
H112	H	-0.291593	-0.842976	-0.792453
H113	H	0.041741	-0.509643	-0.459120
H114	H	0.375074	-0.176310	-0.125787
H115	H	-0.447314	-1.356825	-1.281195
H116	H	-0.113981	-1.023492	-0.947862
H117	H	0.219352	-0.690158	-0.614529
H118	H	-0.266154	-1.531084	-1.266129
H119	H	0.067179	-1.197750	-0.932796
H120	H	0.400513	-0.864417	-0.599463
Br121	Br	-0.530996	-1.276344	-1.128786
Br122	Br	-0.197662	-0.943011	-0.795452
Br123	Br	0.135671	-0.609677	-0.462119
H124	H	-0.324586	-1.020013	-0.751329
H125	H	0.008747	-0.686680	-0.417996
H126	H	0.342081	-0.353346	-0.084663
H127	H	-0.431752	-0.827747	-0.617956
H128	H	-0.098419	-0.494413	-0.284623
H129	H	0.234915	-0.161080	0.048711
