data_functionalizedCrystal
_audit_creation_method	'MofGen! by Chris Wilmer'
_symmetry_space_group_name_H-M	'P1'
_symmetry_Int_Tables_number	1
_symmetry_cell_setting	triclinic
loop_
_symmetry_equiv_pos_as_xyz
  x,y,z
_cell_length_a	13.101039
_cell_length_b	14.044220
_cell_length_c	14.044220
_cell_angle_alpha	93.188878
_cell_angle_beta	93.667477
_cell_angle_gamma	86.340132
loop_
_atom_site_label
_atom_site_type_symbol
_atom_site_fract_x
_atom_site_fract_y
_atom_site_fract_z
O1	O	0.085109	-1.281968	-0.225348
O2	O	0.418442	-0.948635	0.107985
O3	O	0.751776	-0.615302	0.441318
O4	O	0.085135	-1.005298	-0.217041
O5	O	0.418468	-0.671965	0.116292
O6	O	0.751802	-0.338632	0.449626
O7	O	0.085112	-1.139480	-0.082860
O8	O	0.418446	-0.806147	0.250474
O9	O	0.751779	-0.472813	0.583807
O10	O	0.085132	-1.147787	-0.359530
O11	O	0.418465	-0.814454	-0.026197
O12	O	0.751798	-0.481120	0.307137
O13	O	-0.085316	-1.129854	-0.092504
O14	O	0.248017	-0.796521	0.240829
O15	O	0.581351	-0.463188	0.574162
O16	O	-0.085293	-0.995673	-0.226686
O17	O	0.248040	-0.662339	0.106647
O18	O	0.581373	-0.329006	0.439981
O19	O	-0.085319	-1.272343	-0.234993
O20	O	0.248014	-0.939009	0.098340
O21	O	0.581348	-0.605676	0.431674
Zn22	Zn	-0.112365	-1.132479	-0.232371
Zn23	Zn	0.220968	-0.799146	0.100963
Zn24	Zn	0.554301	-0.465813	0.434296
Zn25	Zn	0.112181	-1.145162	-0.219663
Zn26	Zn	0.445515	-0.811828	0.113670
Zn27	Zn	0.778848	-0.478495	0.447003
O28	O	-0.085296	-1.138161	-0.369175
O29	O	0.248037	-0.804828	-0.035841
O30	O	0.581370	-0.471494	0.297492
C31	C	-0.000076	-0.964864	-0.218228
C32	C	0.333257	-0.631531	0.115106
C33	C	0.666591	-0.298197	0.448439
C34	C	-0.000066	-0.858722	-0.207383
C35	C	0.333267	-0.525388	0.125951
C36	C	0.666600	-0.192055	0.459284
C37	C	-0.000102	-1.131031	-0.052060
C38	C	0.333231	-0.797698	0.281273
C39	C	0.666565	-0.464365	0.614607
C40	C	-0.000102	-1.120187	0.054083
C41	C	0.333231	-0.786854	0.387416
C42	C	0.666565	-0.453520	0.720749
N43	N	-0.265612	-1.123831	-0.241043
N44	N	0.067721	-0.790497	0.092290
N45	N	0.401054	-0.457164	0.425623
C46	C	-0.474653	-1.112065	-0.252851
C47	C	-0.141320	-0.778731	0.080482
C48	C	0.192014	-0.445398	0.413815
C49	C	-0.525538	-1.165580	-0.199179
C50	C	-0.192204	-0.832247	0.134154
C51	C	0.141129	-0.498914	0.467488
C52	C	-0.641855	-1.159034	-0.205749
C53	C	-0.308522	-0.825700	0.127584
C54	C	0.024812	-0.492367	0.460918
C55	C	-0.358325	-1.118610	-0.246282
C56	C	-0.024992	-0.785277	0.087051
C57	C	0.308342	-0.451944	0.420384
N58	N	0.265428	-1.153817	-0.210984
N59	N	0.598762	-0.820484	0.122349
N60	N	0.932095	-0.487151	0.455683
C61	C	-0.000106	-1.312777	-0.233806
C62	C	0.333227	-0.979444	0.099527
C63	C	0.666561	-0.646111	0.432860
C64	C	-0.000109	-1.418920	-0.244651
C65	C	0.333225	-1.085587	0.088682
C66	C	0.666558	-0.752253	0.422016
C67	C	-0.000088	-0.664383	-0.187558
C68	C	0.333245	-0.331049	0.145776
C69	C	0.666579	0.002284	0.479109
C70	C	-0.000087	-0.613253	-0.264472
C71	C	0.333246	-0.279920	0.068861
C72	C	0.666580	0.053414	0.402195
C73	C	-0.000099	-0.505116	-0.253441
C74	C	0.333234	-0.171783	0.079892
C75	C	0.666568	0.161551	0.413226
C76	C	-0.000076	-0.772529	-0.198587
C77	C	0.333257	-0.439196	0.134746
C78	C	0.666591	-0.105863	0.468080
C79	C	-0.000080	-1.146610	-0.399974
C80	C	0.333253	-0.813276	-0.066641
C81	C	0.666587	-0.479943	0.266693
C82	C	-0.000073	-1.157455	-0.506116
C83	C	0.333260	-0.824121	-0.172783
C84	C	0.666594	-0.490788	0.160550
C85	C	-0.000086	-1.100362	0.248421
C86	C	0.333248	-0.767028	0.581755
C87	C	0.666581	-0.433695	0.915088
C88	C	-0.000090	-1.177276	0.299551
C89	C	0.333244	-0.843942	0.632884
C90	C	0.666577	-0.510609	0.966218
C91	C	-0.000080	-1.166245	0.407688
C92	C	0.333253	-0.832911	0.741021
C93	C	0.666586	-0.499578	1.074354
C94	C	-0.000095	-1.111391	0.140275
C95	C	0.333239	-0.778058	0.473608
C96	C	0.666572	-0.444725	0.806941
H97	H	-0.481744	-1.216314	-0.148295
H98	H	-0.148411	-0.882981	0.185038
H99	H	0.184923	-0.549647	0.518372
C100	C	-0.000057	-0.663825	-0.364618
C101	C	0.333277	-0.330492	-0.031285
C102	C	0.666610	0.002842	0.302048
H103	H	-0.000038	-0.730926	-0.358993
H104	H	0.333295	-0.397592	-0.025659
H105	H	0.666628	-0.064259	0.307674
H106	H	-0.059481	-0.642539	-0.401697
H107	H	0.273852	-0.309206	-0.068363
H108	H	0.607186	0.024128	0.264970
H109	H	0.059391	-0.649224	-0.394941
H110	H	0.392724	-0.315891	-0.061608
H111	H	0.726057	0.017443	0.271726
H112	H	-0.000099	-0.626945	-0.113431
H113	H	0.333234	-0.293612	0.219903
H114	H	0.666568	0.039722	0.553236
C115	C	-0.533802	-1.043511	-0.321568
C116	C	-0.200468	-0.710177	0.011765
C117	C	0.132865	-0.376844	0.345099
H118	H	-0.486582	-1.010781	-0.354372
H119	H	-0.153249	-0.677447	-0.021038
H120	H	0.180085	-0.344114	0.312295
H121	H	-0.575668	-1.078945	-0.366503
H122	H	-0.242334	-0.745612	-0.033169
H123	H	0.090999	-0.412279	0.300164
H124	H	-0.575645	-0.998493	-0.286208
H125	H	-0.242311	-0.665159	0.047125
H126	H	0.091022	-0.331826	0.380459
H127	H	-0.000028	-1.251413	0.262115
H128	H	0.333306	-0.918079	0.595449
H129	H	0.666639	-0.584746	0.928782
C130	C	-0.000075	-1.000219	0.298988
C131	C	0.333259	-0.666886	0.632321
C132	C	0.666592	-0.333552	0.965654
H133	H	-0.000067	-0.953407	0.252690
H134	H	0.333266	-0.620074	0.586024
H135	H	0.666599	-0.286741	0.919357
H136	H	-0.059502	-0.989376	0.334380
H137	H	0.273831	-0.656043	0.667713
H138	H	0.607165	-0.322709	1.001047
H139	H	0.059370	-0.996089	0.341088
H140	H	0.392703	-0.662756	0.674422
H141	H	0.726036	-0.329422	1.007755
