data_functionalizedCrystal
_audit_creation_method	'MofGen! by Chris Wilmer'
_symmetry_space_group_name_H-M	'P1'
_symmetry_Int_Tables_number	1
_symmetry_cell_setting	triclinic
loop_
_symmetry_equiv_pos_as_xyz
  x,y,z
_cell_length_a	10.654562
_cell_length_b	10.654558
_cell_length_c	9.730223
_cell_angle_alpha	89.999578
_cell_angle_beta	89.996961
_cell_angle_gamma	84.489165
loop_
_atom_site_label
_atom_site_type_symbol
_atom_site_fract_x
_atom_site_fract_y
_atom_site_fract_z
O1	O	1.667830	0.176469	-0.114377
O2	O	1.302354	0.193258	-0.114360
O3	O	1.493490	0.002125	-0.114363
O4	O	1.476694	0.367602	-0.114374
O5	O	1.493487	0.002130	0.114217
O6	O	1.302352	0.193263	0.114220
O7	O	1.667828	0.176473	0.114203
Zn8	Zn	1.485089	0.184869	0.150503
Zn9	Zn	1.485092	0.184863	-0.150661
O10	O	1.476692	0.367606	0.114206
C11	C	1.255555	0.192024	-0.000068
C12	C	1.116112	0.188326	-0.000061
C13	C	1.050580	0.186604	0.124527
C14	C	0.919558	0.183139	0.124504
C15	C	0.919611	0.183124	-0.124706
C16	C	1.050632	0.186580	-0.124682
C17	C	1.116061	0.188350	0.249148
C18	C	1.050529	0.186629	0.373746
C19	C	0.919507	0.183164	0.373723
C20	C	0.854017	0.181420	0.249102
C21	C	1.492253	-0.044670	-0.000075
C22	C	1.488557	-0.184113	-0.000079
C23	C	1.714626	0.177707	-0.000093
C24	C	1.854069	0.181405	-0.000108
C25	C	1.486817	-0.249624	0.124518
C26	C	1.483355	-0.380647	0.124513
C27	C	1.483369	-0.380636	-0.124697
C28	C	1.486839	-0.249616	-0.124691
C29	C	1.488535	-0.184121	0.249130
C30	C	1.486793	-0.249632	0.373737
C31	C	1.483331	-0.380655	0.373732
C32	C	1.481611	-0.446167	0.249120
C33	C	1.477928	0.414402	-0.000086
C34	C	1.481624	0.553845	-0.000091
N35	N	1.485096	0.184873	0.356040
N36	N	1.485095	0.184849	-0.356197
C37	C	1.569753	0.100268	0.427964
C38	C	1.569750	0.100253	0.571847
C39	C	1.400429	0.269458	0.571868
C40	C	1.400427	0.269466	0.427988
C41	C	1.654423	0.015674	0.356016
C42	C	1.739087	-0.068936	0.427941
C43	C	1.739084	-0.068952	0.571824
C44	C	1.654416	0.015644	0.643782
H45	H	0.747330	0.178596	0.249094
H46	H	1.654412	0.015616	0.760941
O47	O	0.856080	0.181224	-0.245791
C48	C	0.901384	0.073508	-0.321607
H49	H	0.946650	-0.001437	-0.248698
H50	H	0.819678	0.034796	-0.378144
H51	H	0.974456	0.100060	-0.399287
O52	O	1.318142	0.351461	0.641918
C53	C	1.240065	0.283469	0.725122
H54	H	1.289231	0.185657	0.746663
H55	H	1.220660	0.335697	0.826306
H56	H	1.147171	0.274074	0.669682
O57	O	1.481456	-0.444401	0.494685
C58	C	1.370849	-0.506884	0.502140
H59	H	1.334156	-0.522098	0.393948
H60	H	1.392808	-0.601996	0.554892
H61	H	1.296144	-0.447086	0.563605
O62	O	1.114328	0.188377	0.494673
C63	C	1.244026	0.191773	0.467983
H64	H	1.257095	0.231934	0.360899
H65	H	1.286369	0.253958	0.547568
H66	H	1.293492	0.092178	0.473900
O67	O	1.654661	0.015679	0.216250
C68	C	1.774080	0.042368	0.168186
H69	H	1.847845	0.017320	0.251100
H70	H	1.799292	-0.015641	0.071922
H71	H	1.771670	0.147005	0.142670
H72	H	1.222746	0.191175	0.249180
O73	O	0.855661	0.181418	0.494627
C74	C	0.725974	0.178016	0.467891
H75	H	0.712948	0.137851	0.360804
H76	H	0.683602	0.115834	0.547463
H77	H	0.676502	0.277610	0.473790
O78	O	1.491732	-0.056827	0.249313
C79	C	1.384287	0.000208	0.317625
H80	H	1.346085	-0.070877	0.390376
H81	H	1.411015	0.084878	0.378886
H82	H	1.308879	0.032742	0.238853
H83	H	1.103988	0.187989	-0.226133
H84	H	1.488204	-0.196285	0.475192
H85	H	1.331491	0.338358	0.369426
O86	O	1.478091	-0.573424	0.248934
C87	C	1.368345	-0.603935	0.180617
H88	H	1.334135	-0.524005	0.107868
H89	H	1.390455	-0.694566	0.119351
H90	H	1.291701	-0.617907	0.259385
H91	H	1.481966	-0.433986	-0.226151
H92	H	1.488256	-0.196276	-0.226148
O93	O	1.821131	-0.151207	0.357923
C94	C	1.753167	-0.229329	0.274752
H95	H	1.655352	-0.180188	0.253178
H96	H	1.805415	-0.248766	0.173583
H97	H	1.743779	-0.322205	0.330239
H98	H	1.808012	-0.137853	0.630383
