data_functionalizedCrystal
_audit_creation_method	'MofGen! by Chris Wilmer'
_symmetry_space_group_name_H-M	'P1'
_symmetry_Int_Tables_number	1
_symmetry_cell_setting	triclinic
loop_
_symmetry_equiv_pos_as_xyz
  x,y,z
_cell_length_a	15.625110
_cell_length_b	15.625429
_cell_length_c	9.130307
_cell_angle_alpha	71.919555
_cell_angle_beta	108.082059
_cell_angle_gamma	89.778684
loop_
_atom_site_label
_atom_site_type_symbol
_atom_site_fract_x
_atom_site_fract_y
_atom_site_fract_z
O1	O	1.196366	0.117724	0.451205
O2	O	0.933905	0.131740	0.304337
O3	O	1.072150	-0.006495	0.451193
O4	O	1.058121	0.255959	0.304349
O5	O	1.072145	-0.006496	0.694790
O6	O	0.933900	0.131739	0.547934
O7	O	1.196362	0.117723	0.694802
Cu8	Cu	1.065131	0.124731	0.643610
Cu9	Cu	1.065136	0.124732	0.355528
O10	O	1.058117	0.255958	0.547946
C11	C	0.900313	0.131104	0.408630
C12	C	0.800229	0.129198	0.356476
C13	C	1.071513	-0.040084	0.590490
C14	C	1.069612	-0.140166	0.642626
C15	C	0.659166	0.126513	0.150190
C16	C	0.753210	0.128304	0.199213
C17	C	0.753214	0.128306	0.464775
C18	C	0.659167	0.126520	0.415772
C19	C	0.612150	0.125623	0.258478
C20	C	0.612151	0.125630	0.524060
C21	C	0.518113	0.123839	0.475063
C22	C	0.471090	0.122939	0.317778
C23	C	0.518112	0.123832	0.209481
C24	C	0.659170	0.126521	0.681357
C25	C	0.612154	0.125631	0.789645
C26	C	0.518114	0.123846	0.740644
C27	C	0.471091	0.122946	0.583359
C28	C	0.471092	0.122953	0.848941
C29	C	0.377054	0.121163	0.799944
C30	C	0.377053	0.121156	0.534362
C31	C	1.063345	-0.469320	0.150208
C32	C	1.061555	-0.563362	0.199240
C33	C	1.061550	-0.563350	0.464793
C34	C	1.063345	-0.469307	0.415786
C35	C	1.064242	-0.422299	0.258491
C36	C	1.064241	-0.422286	0.524069
C37	C	1.066032	-0.328250	0.475062
C38	C	1.066925	-0.281236	0.317772
C39	C	1.066032	-0.328264	0.209484
C40	C	1.063338	-0.469294	0.681359
C41	C	1.064235	-0.422273	0.789642
C42	C	1.066031	-0.328237	0.740639
C43	C	1.066925	-0.281222	0.583350
C44	C	1.066925	-0.281209	0.848927
C45	C	1.068715	-0.187173	0.799921
C46	C	1.068715	-0.187187	0.534343
C47	C	1.229953	0.118359	0.590505
C48	C	1.330037	0.120265	0.642650
C49	C	1.058754	0.289547	0.408645
C50	C	1.060655	0.389629	0.356500
N51	N	1.065133	0.124729	0.846236
N52	N	1.065140	0.124727	0.152911
C53	C	1.187599	0.002357	0.976274
C54	C	1.248838	-0.058826	1.117962
C55	C	1.248847	-0.058827	1.271301
C56	C	1.187609	0.002361	1.282948
C57	C	1.126370	0.063544	1.141260
C58	C	1.126369	0.063540	0.987925
C59	C	1.003901	0.185910	1.011223
C60	C	1.003895	0.185917	0.857883
C61	C	0.942663	0.247098	1.022870
C62	C	0.881427	0.308287	0.881181
C63	C	0.881421	0.308286	0.727835
C64	C	0.942656	0.247100	0.716195
H65	H	0.338768	0.120436	0.406272
Br66	Br	0.313243	0.119936	0.946917
H67	H	0.942669	0.247091	1.147729
Br68	Br	1.331938	-0.141870	1.102153
Br69	Br	0.595346	0.125314	-0.063294
Br70	Br	1.060322	-0.627152	0.678251
Br71	Br	1.063007	-0.486075	1.003100
Br72	Br	1.187608	0.002366	0.768177
Br73	Br	1.064580	-0.405518	-0.063256
H74	H	0.791486	0.129034	0.111016
H75	H	0.831550	0.358105	0.612473
Br76	Br	0.534912	0.124157	1.062411
Br77	Br	0.817029	0.129523	0.678239
Br78	Br	1.065686	-0.345012	1.062377
Br79	Br	0.675970	0.126848	1.003108
H80	H	0.831567	0.358098	0.890678
Br81	Br	1.187606	0.002346	1.491051
Br82	Br	0.942660	0.247099	0.508100
H83	H	1.068373	-0.204665	0.277868
Br84	Br	0.343468	0.120489	0.251287
H85	H	0.735742	0.127980	0.721244
Br86	Br	0.454293	0.122633	-0.004003
Br87	Br	1.060329	-0.627174	0.052261
H88	H	1.069453	-0.148912	0.406263
Br89	Br	1.067266	-0.264461	-0.003980
Br90	Br	1.069934	-0.123353	0.946877
H91	H	1.061871	-0.545863	0.721249
Br92	Br	1.331950	-0.141869	1.463596
