data_functionalizedCrystal
_audit_creation_method	'MofGen! by Chris Wilmer'
_symmetry_space_group_name_H-M	'P1'
_symmetry_Int_Tables_number	1
_symmetry_cell_setting	triclinic
loop_
_symmetry_equiv_pos_as_xyz
  x,y,z
_cell_length_a	23.532407
_cell_length_b	23.532407
_cell_length_c	22.010155
_cell_angle_alpha	90.000423
_cell_angle_beta	89.996931
_cell_angle_gamma	97.151322
loop_
_atom_site_label
_atom_site_type_symbol
_atom_site_fract_x
_atom_site_fract_y
_atom_site_fract_z
O1	O	0.755264	-0.069127	-0.050455
O2	O	1.088597	0.264206	0.282878
O3	O	1.421930	0.597540	0.616211
O4	O	0.589400	-0.079130	-0.050474
O5	O	0.922734	0.254203	0.282859
O6	O	1.256067	0.587537	0.616193
O7	O	0.677334	0.008803	-0.050453
O8	O	1.010667	0.342137	0.282880
O9	O	1.344000	0.675470	0.616214
O10	O	0.667330	-0.157060	-0.050476
O11	O	1.000664	0.176273	0.282857
O12	O	1.333997	0.509607	0.616190
O13	O	0.677318	0.008790	0.050597
O14	O	1.010651	0.342123	0.383931
O15	O	1.343984	0.675457	0.717264
O16	O	0.589384	-0.079143	0.050576
O17	O	0.922718	0.254190	0.383910
O18	O	1.256051	0.587523	0.717243
O19	O	0.755248	-0.069140	0.050595
O20	O	1.088581	0.264193	0.383928
O21	O	1.421914	0.597527	0.717262
Cu22	Cu	0.672315	-0.074143	0.059812
Cu23	Cu	1.005648	0.259190	0.393146
Cu24	Cu	1.338981	0.592524	0.726479
Cu25	Cu	0.672333	-0.074127	-0.059691
Cu26	Cu	1.005667	0.259206	0.273642
Cu27	Cu	1.339000	0.592539	0.606975
O28	O	0.667314	-0.157073	0.050574
O29	O	1.000648	0.176260	0.383907
O30	O	1.333981	0.509593	0.717241
C31	C	0.568176	-0.078882	0.000049
C32	C	0.901510	0.254451	0.333382
C33	C	1.234843	0.587785	0.666715
C34	C	0.504959	-0.078116	0.000042
C35	C	0.838293	0.255217	0.333375
C36	C	1.171626	0.588551	0.666709
C37	C	0.105856	-0.125350	0.000063
C38	C	0.439190	0.207984	0.333396
C39	C	0.772523	0.541317	0.666730
C40	C	0.046456	-0.124638	0.000067
C41	C	0.379789	0.208695	0.333400
C42	C	0.713123	0.542029	0.666733
O43	O	0.009711	-0.168424	0.000083
O44	O	0.343045	0.164909	0.333416
O45	O	0.676378	0.498243	0.666749
N46	N	0.023830	-0.072362	0.000073
N47	N	0.357163	0.260972	0.333407
N48	N	0.690496	0.594305	0.666740
C49	C	0.060607	-0.020794	0.000082
C50	C	0.393941	0.312540	0.333415
C51	C	0.727274	0.645873	0.666749
O52	O	0.035908	0.023737	0.000088
O53	O	0.369241	0.357070	0.333422
O54	O	0.702574	0.690404	0.666755
C55	C	0.120006	-0.021506	0.000082
C56	C	0.453340	0.311828	0.333416
C57	C	0.786673	0.645161	0.666749
C58	C	0.142629	-0.073785	0.000070
C59	C	0.475962	0.259548	0.333403
C60	C	0.809296	0.592881	0.666737
C61	C	0.128479	-0.177625	0.000051
C62	C	0.461813	0.155708	0.333385
C63	C	0.795146	0.489042	0.666718
C64	C	0.187876	-0.178336	0.000046
C65	C	0.521209	0.154997	0.333380
C66	C	0.854542	0.488330	0.666713
C67	C	0.224649	-0.126772	0.000053
C68	C	0.557982	0.206561	0.333386
C69	C	0.891315	0.539895	0.666720
C70	C	0.202025	-0.074497	0.000065
C71	C	0.535359	0.258837	0.333398
C72	C	0.868692	0.592170	0.666732
C73	C	0.156783	0.030062	0.000096
C74	C	0.490116	0.363395	0.333429
C75	C	0.823450	0.696729	0.666762
C76	C	0.216185	0.029345	0.000097
C77	C	0.549519	0.362679	0.333430
C78	C	0.882852	0.696012	0.666763
C79	C	0.238808	-0.022934	0.000084
C80	C	0.572141	0.310399	0.333417
C81	C	0.905475	0.643732	0.666751
C82	C	0.298194	-0.023643	0.000067
C83	C	0.631528	0.309690	0.333400
C84	C	0.964861	0.643023	0.666734
N85	N	0.320820	-0.075920	0.000061
N86	N	0.654154	0.257414	0.333394
N87	N	0.987487	0.590747	0.666727
C88	C	0.284048	-0.127484	0.000054
C89	C	0.617381	0.205849	0.333387
C90	C	0.950714	0.539183	0.666720
C91	C	-0.064135	-0.019302	0.000082
C92	C	0.269198	0.314031	0.333415
C93	C	0.602532	0.647365	0.666749
C94	C	-0.123533	-0.018589	0.000077
C95	C	0.209800	0.314744	0.333410
C96	C	0.543134	0.648077	0.666744
C97	C	-0.137680	-0.122434	0.000063
C98	C	0.195653	0.210899	0.333396
C99	C	0.528986	0.544232	0.666730
C100	C	-0.078281	-0.123146	0.000064
C101	C	0.255052	0.210187	0.333397
C102	C	0.588385	0.543520	0.666730
C103	C	-0.041509	-0.071578	0.000076
C104	C	0.291824	0.261755	0.333409
C105	C	0.625158	0.595088	0.666742
C106	C	0.408784	-0.128974	0.000043
C107	C	0.742118	0.204360	0.333376
C108	C	1.075451	0.537693	0.666709
C109	C	0.468186	-0.129680	0.000035
C110	C	0.801520	0.203653	0.333369
C111	C	1.134853	0.536986	0.666702
C112	C	0.482329	-0.025836	0.000052
C113	C	0.815662	0.307497	0.333386
C114	C	1.148995	0.640831	0.666719
C115	C	0.422932	-0.025129	0.000057
C116	C	0.756265	0.308204	0.333390
C117	C	1.089598	0.641538	0.666723
C118	C	0.386160	-0.076702	0.000054
C119	C	0.719494	0.256631	0.333387
C120	C	1.052827	0.589964	0.666721
O121	O	0.334974	0.020119	0.000054
O122	O	0.668307	0.353453	0.333387
O123	O	1.001640	0.686786	0.666720
O124	O	0.308755	-0.172007	0.000055
O125	O	0.642089	0.161326	0.333389
O126	O	0.975422	0.494660	0.666722
C127	C	0.677071	0.030013	0.000074
C128	C	1.010404	0.363346	0.333407
C129	C	1.343738	0.696679	0.666740
C130	C	0.676305	0.093230	0.000078
C131	C	1.009638	0.426563	0.333412
C132	C	1.342972	0.759896	0.666745
C133	C	0.776472	-0.069388	0.000071
C134	C	1.109805	0.263945	0.333404
C135	C	1.443138	0.597278	0.666737
C136	C	0.839689	-0.070154	0.000073
C137	C	1.173022	0.263179	0.333407
C138	C	1.506355	0.596513	0.666740
C139	C	0.667577	-0.178283	0.000046
C140	C	1.000910	0.155051	0.333379
C141	C	1.334244	0.488384	0.666712
C142	C	0.668343	-0.241500	0.000037
C143	C	1.001676	0.091833	0.333371
C144	C	1.335010	0.425167	0.666704
N145	N	0.672305	-0.074153	0.143865
N146	N	1.005639	0.259180	0.477198
N147	N	1.338972	0.592513	0.810531
C148	C	0.723539	0.492333	0.000050
C149	C	1.056872	0.825666	0.333384
C150	C	1.390205	1.158999	0.666717
C151	C	0.722827	0.551733	0.000046
C152	C	1.056160	0.885066	0.333379
C153	C	1.389494	1.218400	0.666712
O154	O	0.766613	0.588478	0.000028
O155	O	1.099946	0.921811	0.333361
O156	O	1.433280	1.255144	0.666695
N157	N	0.670551	0.574359	0.000040
N158	N	1.003884	0.907693	0.333373
N159	N	1.337217	1.241026	0.666707
C160	C	0.618983	0.537582	0.000033
C161	C	0.952316	0.870915	0.333366
C162	C	1.285649	1.204248	0.666700
O163	O	0.574452	0.562281	0.000027
O164	O	0.907785	0.895615	0.333361
O165	O	1.241119	1.228948	0.666694
C166	C	0.619695	0.478182	0.000033
C167	C	0.953028	0.811516	0.333367
C168	C	1.286361	1.144849	0.666700
C169	C	0.671974	0.455560	0.000045
C170	C	1.005308	0.788893	0.333378
C171	C	1.338641	1.122227	0.666712
C172	C	0.775814	0.469710	0.000061
C173	C	1.109147	0.803043	0.333394
C174	C	1.442481	1.136376	0.666728
C175	C	0.776525	0.410313	0.000067
C176	C	1.109859	0.743647	0.333400
C177	C	1.443192	1.076980	0.666734
C178	C	0.724961	0.373540	0.000062
C179	C	1.058294	0.706874	0.333395
C180	C	1.391628	1.040207	0.666729
C181	C	0.672685	0.396164	0.000051
C182	C	1.006019	0.729497	0.333384
C183	C	1.339352	1.062830	0.666718
C184	C	0.568127	0.441406	0.000022
C185	C	0.901460	0.774739	0.333356
C186	C	1.234794	1.108073	0.666689
C187	C	0.568844	0.382004	0.000022
C188	C	0.902177	0.715337	0.333355
C189	C	1.235510	1.048670	0.666689
C190	C	0.621123	0.359381	0.000034
C191	C	0.954457	0.692714	0.333367
C192	C	1.287790	1.026048	0.666700
C193	C	0.621832	0.299995	0.000052
C194	C	0.955166	0.633328	0.333385
C195	C	1.288499	0.966661	0.666718
N196	N	0.674109	0.277368	0.000057
N197	N	1.007442	0.610702	0.333390
N198	N	1.340775	0.944035	0.666724
C199	C	0.725673	0.314141	0.000062
C200	C	1.059006	0.647475	0.333396
C201	C	1.392340	0.980808	0.666729
C202	C	0.617491	0.662324	0.000031
C203	C	0.950824	0.995657	0.333365
C204	C	1.284158	1.328991	0.666698
C205	C	0.616778	0.721722	0.000035
C206	C	0.950112	1.055055	0.333369
C207	C	1.283445	1.388389	0.666702
C208	C	0.720623	0.735869	0.000047
C209	C	1.053957	1.069203	0.333380
C210	C	1.387290	1.402536	0.666713
C211	C	0.721335	0.676470	0.000047
C212	C	1.054669	1.009804	0.333380
C213	C	1.388002	1.343137	0.666714
C214	C	0.669767	0.639698	0.000037
C215	C	1.003101	0.973031	0.333370
C216	C	1.336434	1.306365	0.666703
C217	C	0.727163	0.189405	0.000075
C218	C	1.060496	0.522738	0.333408
C219	C	1.393829	0.856071	0.666742
C220	C	0.727869	0.130003	0.000083
C221	C	1.061203	0.463336	0.333417
C222	C	1.394536	0.796669	0.666750
C223	C	0.624025	0.115860	0.000069
C224	C	0.957358	0.449194	0.333402
C225	C	1.290692	0.782527	0.666736
C226	C	0.623318	0.175257	0.000064
C227	C	0.956651	0.508591	0.333397
C228	C	1.289985	0.841924	0.666730
C229	C	0.674891	0.212029	0.000065
C230	C	1.008225	0.545362	0.333398
C231	C	1.341558	0.878695	0.666731
O232	O	0.578070	0.263215	0.000067
O233	O	0.911403	0.596549	0.333400
O234	O	1.244736	0.929882	0.666733
O235	O	0.770196	0.289433	0.000060
O236	O	1.103529	0.622767	0.333393
O237	O	1.436863	0.956100	0.666727
N238	N	0.672347	-0.074112	-0.143744
N239	N	1.005680	0.259221	0.189589
N240	N	1.339014	0.592555	0.522923
C241	C	0.711273	-0.035196	0.563653
C242	C	1.044606	0.298137	0.896987
C243	C	1.377939	0.631471	1.230320
C244	C	0.711275	-0.035192	0.627261
C245	C	1.044609	0.298141	0.960594
C246	C	1.377942	0.631475	1.293928
O247	O	0.744384	-0.002076	0.660160
O248	O	1.077717	0.331257	0.993494
O249	O	1.411050	0.664590	1.326827
N250	N	0.672333	-0.074115	0.659072
N251	N	1.005667	0.259218	0.992405
N252	N	1.339000	0.592551	1.325739
C253	C	0.633382	-0.113041	0.627272
C254	C	0.966715	0.220292	0.960605
C255	C	1.300049	0.553625	1.293938
O256	O	0.600259	-0.146148	0.660170
O257	O	0.933592	0.187185	0.993503
O258	O	1.266925	0.520519	1.326837
C259	C	0.633377	-0.113042	0.563665
C260	C	0.966711	0.220291	0.896999
C261	C	1.300044	0.553625	1.230332
C262	C	0.672326	-0.074120	0.531858
C263	C	1.005659	0.259213	0.865191
C264	C	1.338992	0.592547	1.198524
C265	C	0.750217	0.003723	0.531846
C266	C	1.083551	0.337057	0.865179
C267	C	1.416884	0.670390	1.198513
C268	C	0.750215	0.003719	0.468243
C269	C	1.083549	0.337052	0.801576
C270	C	1.416882	0.670385	1.134909
C271	C	0.711268	-0.035205	0.436447
C272	C	1.044602	0.298128	0.769780
C273	C	1.377935	0.631461	1.103114
C274	C	0.672324	-0.074125	0.468255
C275	C	1.005657	0.259209	0.801588
C276	C	1.338990	0.592542	1.134921
C277	C	0.594424	-0.151965	0.531866
C278	C	0.927757	0.181368	0.865200
C279	C	1.261091	0.514702	1.198533
C280	C	0.594422	-0.151962	0.468256
C281	C	0.927755	0.181371	0.801589
C282	C	1.261089	0.514705	1.134922
C283	C	0.633370	-0.113040	0.436448
C284	C	0.966704	0.220293	0.769781
C285	C	1.300037	0.553627	1.103115
C286	C	0.633374	-0.113054	0.372856
C287	C	0.966708	0.220280	0.706189
C288	C	1.300041	0.553613	1.039522
N289	N	0.672317	-0.074130	0.341045
N290	N	1.005650	0.259203	0.674378
N291	N	1.338983	0.592536	1.007712
C292	C	0.711263	-0.035206	0.372841
C293	C	1.044597	0.298127	0.706174
C294	C	1.377930	0.631460	1.039507
C295	C	0.633395	-0.113036	0.760850
C296	C	0.966728	0.220297	1.094183
C297	C	1.300061	0.553631	1.427516
C298	C	0.633402	-0.113039	0.824455
C299	C	0.966735	0.220295	1.157788
C300	C	1.300069	0.553628	1.491122
C301	C	0.711294	-0.035188	0.824440
C302	C	1.044628	0.298145	1.157773
C303	C	1.377961	0.631478	1.491106
C304	C	0.711290	-0.035189	0.760833
C305	C	1.044623	0.298144	1.094167
C306	C	1.377956	0.631478	1.427500
C307	C	0.672337	-0.074113	0.729039
C308	C	1.005670	0.259221	1.062372
C309	C	1.339003	0.592554	1.395705
C310	C	0.711256	-0.035220	0.239269
C311	C	1.044590	0.298114	0.572603
C312	C	1.377923	0.631447	0.905936
C313	C	0.711252	-0.035229	0.175660
C314	C	1.044586	0.298104	0.508994
C315	C	1.377919	0.631437	0.842327
C316	C	0.633358	-0.113077	0.175681
C317	C	0.966691	0.220256	0.509014
C318	C	1.300025	0.553589	0.842348
C319	C	0.633364	-0.113070	0.239284
C320	C	0.966697	0.220264	0.572618
C321	C	1.300031	0.553597	0.905951
C322	C	0.672315	-0.074136	0.271077
C323	C	1.005649	0.259197	0.604410
C324	C	1.338982	0.592531	0.937744
O325	O	0.600282	-0.146151	0.339916
O326	O	0.933615	0.187182	0.673249
O327	O	1.266948	0.520516	1.006583
O328	O	0.744376	-0.002100	0.339935
O329	O	1.077710	0.331233	0.673268
O330	O	1.411043	0.664567	1.006601
H331	H	-0.141947	0.023982	0.000078
H332	H	0.191387	0.357315	0.333411
H333	H	0.524720	0.690648	0.666744
O334	O	0.749028	0.002675	0.729889
O335	O	1.082361	0.336009	1.063222
O336	O	1.415694	0.669342	1.396556
C337	C	0.718702	0.037667	0.693141
C338	C	1.052035	0.371000	1.026474
C339	C	1.385368	0.704333	1.359808
H340	H	0.674024	0.014731	0.683596
H341	H	1.007357	0.348065	1.016929
H342	H	1.340690	0.681398	1.350263
H343	H	0.742521	0.046849	0.648419
H344	H	1.075855	0.380182	0.981752
H345	H	1.409188	0.713515	1.315085
H346	H	0.715038	0.079714	0.717691
H347	H	1.048371	0.413047	1.051025
H348	H	1.381704	0.746380	1.384358
H349	H	0.404512	0.017441	0.000058
H350	H	0.737845	0.350775	0.333391
H351	H	1.071178	0.684108	0.666725
H352	H	0.562708	-0.183658	0.557755
H353	H	0.896042	0.149675	0.891089
H354	H	1.229375	0.483008	1.224422
H355	H	0.574207	0.740136	0.000036
H356	H	0.907540	1.073469	0.333370
H357	H	1.240874	1.406802	0.666703
O358	O	0.567432	0.626547	0.000111
O359	O	0.900765	0.959881	0.333444
O360	O	1.234098	1.293214	0.666778
C361	C	0.564718	0.591776	0.052454
C362	C	0.898052	0.925109	0.385788
C363	C	1.231385	1.258442	0.719121
H364	H	0.609902	0.589014	0.069906
H365	H	0.943235	0.922347	0.403239
H366	H	1.276568	1.255680	0.736573
H367	H	0.543240	0.547014	0.040683
H368	H	0.876573	0.880347	0.374017
H369	H	1.209906	1.213680	0.707350
H370	H	0.538821	0.611181	0.089098
H371	H	0.872154	0.944514	0.422432
H372	H	1.205487	1.277848	0.755765
O373	O	0.556661	-0.189799	0.437304
O374	O	0.889995	0.143535	0.770638
O375	O	1.223328	0.476868	1.103971
C376	C	0.586955	-0.224796	0.400523
C377	C	0.920288	0.108538	0.733857
C378	C	1.253621	0.441871	1.067190
H379	H	0.631647	-0.201889	0.390986
H380	H	0.964980	0.131444	0.724319
H381	H	1.298313	0.464777	1.057652
H382	H	0.563129	-0.233930	0.355800
H383	H	0.896462	0.099403	0.689133
H384	H	1.229796	0.432736	1.022466
H385	H	0.590583	-0.266866	0.425042
H386	H	0.923917	0.066468	0.758375
H387	H	1.257250	0.399801	1.091708
O388	O	0.595603	-0.150908	0.144721
O389	O	0.928937	0.182426	0.478054
O390	O	1.262270	0.515759	0.811387
C391	C	0.625897	-0.185900	0.107934
C392	C	0.959230	0.147433	0.441268
C393	C	1.292563	0.480767	0.774601
H394	H	0.670592	-0.162996	0.098407
H395	H	1.003925	0.170337	0.431740
H396	H	1.337259	0.503670	0.765074
H397	H	0.602076	-0.195022	0.063206
H398	H	0.935409	0.138311	0.396539
H399	H	1.268743	0.471644	0.729873
H400	H	0.629518	-0.227977	0.132443
H401	H	0.962851	0.105357	0.465776
H402	H	1.296185	0.438690	0.799110
O403	O	0.788110	0.041558	0.562632
O404	O	1.121444	0.374891	0.895965
O405	O	1.454777	0.708225	1.229299
C406	C	0.822467	0.075913	0.520906
C407	C	1.155800	0.409247	0.854239
C408	C	1.489134	0.742580	1.187573
H409	H	0.822962	0.052560	0.475567
H410	H	1.156295	0.385893	0.808901
H411	H	1.489629	0.719226	1.142234
H412	H	0.868001	0.084831	0.539267
H413	H	1.201335	0.418164	0.872600
H414	H	1.534668	0.751497	1.205934
H415	H	0.804220	0.118129	0.514143
H416	H	1.137553	0.451463	0.847476
H417	H	1.470887	0.784796	1.180809
O418	O	-0.028497	0.030847	0.000057
O419	O	0.304836	0.364180	0.333390
O420	O	0.638170	0.697514	0.666723
C421	C	-0.061211	0.077135	0.000076
C422	C	0.272122	0.410468	0.333410
C423	C	0.605456	0.743801	0.666743
H424	H	-0.105625	0.062415	-0.019054
H425	H	0.227708	0.395749	0.314279
H426	H	0.561041	0.729082	0.647613
H427	H	-0.039105	0.113247	-0.029259
H428	H	0.294229	0.446580	0.304074
H429	H	0.627562	0.779913	0.637407
H430	H	-0.065356	0.093171	0.048557
H431	H	0.267977	0.426504	0.381890
H432	H	0.601310	0.759838	0.715223
H433	H	0.525555	0.459814	0.000009
H434	H	0.858889	0.793148	0.333342
H435	H	1.192222	1.126481	0.666676
O436	O	0.595537	-0.150910	0.730061
O437	O	0.928871	0.182423	1.063394
O438	O	1.262204	0.515756	1.396727
C439	C	0.561162	-0.185252	0.771783
C440	C	0.894496	0.148081	1.105117
C441	C	1.227829	0.481415	1.438450
H442	H	0.584515	-0.185769	0.817119
H443	H	0.917848	0.147565	1.150453
H444	H	1.251181	0.480898	1.483786
H445	H	0.552215	-0.230782	0.753414
H446	H	0.885548	0.102551	1.086747
H447	H	1.218881	0.435885	1.420080
H448	H	0.518962	-0.166976	0.778555
H449	H	0.852296	0.166358	1.111888
H450	H	1.185629	0.499691	1.445221
H451	H	0.601654	-0.144769	0.265183
H452	H	0.934987	0.188564	0.598516
H453	H	1.268321	0.521898	0.931849
O454	O	0.749148	0.002622	0.270052
O455	O	1.082481	0.335956	0.603386
O456	O	1.415814	0.669289	0.936719
C457	C	0.783506	0.036978	0.228328
C458	C	1.116839	0.370312	0.561662
C459	C	1.450173	0.703645	0.894995
H460	H	0.784009	0.013622	0.182992
H461	H	1.117343	0.346955	0.516325
H462	H	1.450676	0.680289	0.849659
H463	H	0.829038	0.045902	0.246695
H464	H	1.162371	0.379235	0.580029
H465	H	1.495705	0.712568	0.913362
H466	H	0.765255	0.079191	0.221559
H467	H	1.098588	0.412525	0.554892
H468	H	1.431922	0.745858	0.888225
H469	H	0.486602	-0.172255	0.000025
H470	H	0.819935	0.161079	0.333358
H471	H	1.153269	0.494412	0.666691
O472	O	0.134912	0.080897	0.000140
O473	O	0.468245	0.414231	0.333474
O474	O	0.801578	0.747564	0.666807
C475	C	0.180116	0.126249	0.000137
C476	C	0.513450	0.459582	0.333470
C477	C	0.846783	0.792915	0.666803
H478	H	0.220380	0.110505	0.019258
H479	H	0.553713	0.443838	0.352591
H480	H	0.887046	0.777172	0.685924
H481	H	0.167911	0.162763	0.029489
H482	H	0.501244	0.496096	0.362822
H483	H	0.834578	0.829429	0.696155
H484	H	0.188612	0.142151	-0.048338
H485	H	0.521945	0.475484	0.284996
H486	H	0.855279	0.808818	0.618329
H487	H	0.098544	-0.219617	0.000048
H488	H	0.431877	0.113716	0.333381
H489	H	0.765211	0.447049	0.666714
O490	O	-0.056403	-0.173980	0.000083
O491	O	0.276930	0.159353	0.333416
O492	O	0.610264	0.492686	0.666749
C493	C	-0.101604	-0.219335	0.000058
C494	C	0.231729	0.113998	0.333391
C495	C	0.565063	0.447331	0.666725
H496	H	-0.141871	-0.203604	0.019189
H497	H	0.191462	0.129729	0.352523
H498	H	0.524795	0.463063	0.685856
H499	H	-0.089398	-0.255861	0.029391
H500	H	0.243935	0.077473	0.362724
H501	H	0.577268	0.410806	0.696057
H502	H	-0.110093	-0.235217	-0.048424
H503	H	0.223240	0.098117	0.284910
H504	H	0.556574	0.431450	0.618243
H505	H	-0.167632	-0.164421	0.000060
H506	H	0.165701	0.168913	0.333394
H507	H	0.499035	0.502246	0.666727
H508	H	0.781929	0.035414	0.442349
H509	H	1.115262	0.368747	0.775682
H510	H	1.448595	0.702081	1.109015
H511	H	0.512280	0.016146	0.000056
H512	H	0.845613	0.349480	0.333389
H513	H	1.178946	0.682813	0.666722
H514	H	0.770443	0.111587	0.000094
H515	H	1.103777	0.444920	0.333428
H516	H	1.437110	0.778254	0.666761
O517	O	0.373151	-0.179124	0.000009
O518	O	0.706485	0.154210	0.333342
O519	O	1.039818	0.487543	0.666676
C520	C	0.405867	-0.225410	0.000011
C521	C	0.739200	0.107923	0.333345
C522	C	1.072534	0.441257	0.666678
H523	H	0.450283	-0.210684	-0.019117
H524	H	0.783616	0.122650	0.314216
H525	H	1.116949	0.455983	0.647550
H526	H	0.383764	-0.261514	-0.029335
H527	H	0.717098	0.071819	0.303998
H528	H	1.050431	0.405152	0.637331
H529	H	0.410009	-0.241460	0.048486
H530	H	0.743342	0.091873	0.381819
H531	H	1.076676	0.425206	0.715153
O532	O	0.749103	0.002705	0.855265
O533	O	1.082436	0.336038	1.188598
O534	O	1.415770	0.669372	1.521932
C535	C	0.740155	0.059037	0.839736
C536	C	1.073489	0.392370	1.173069
C537	C	1.406822	0.725703	1.506403
H538	H	0.718205	0.058855	0.793554
H539	H	1.051539	0.392189	1.126887
H540	H	1.384872	0.725522	1.460220
H541	H	0.783121	0.087304	0.837561
H542	H	1.116454	0.420637	1.170894
H543	H	1.449788	0.753971	1.504228
H544	H	0.711905	0.076502	0.875536
H545	H	1.045239	0.409835	1.208869
H546	H	1.378572	0.743169	1.542202
H547	H	0.601692	-0.144738	0.850348
H548	H	0.935026	0.188595	1.183681
H549	H	1.268359	0.521928	1.517015
O550	O	0.251963	0.079403	0.000025
O551	O	0.585297	0.412736	0.333358
O552	O	0.918630	0.746070	0.666691
C553	C	0.286736	0.082116	-0.052320
C554	C	0.620069	0.415449	0.281013
C555	C	0.953403	0.748782	0.614347
H556	H	0.289495	0.036933	-0.069777
H557	H	0.622828	0.370266	0.263556
H558	H	0.956161	0.703599	0.596889
H559	H	0.331499	0.103591	-0.040549
H560	H	0.664832	0.436924	0.292784
H561	H	0.998166	0.770257	0.626118
H562	H	0.267334	0.108017	-0.088960
H563	H	0.600667	0.441350	0.244373
H564	H	0.934001	0.774684	0.577706
H565	H	0.769159	0.219337	0.000073
H566	H	1.102492	0.552671	0.333407
H567	H	1.435826	0.886004	0.666740
H568	H	0.742971	-0.003534	0.149765
H569	H	1.076304	0.329799	0.483098
H570	H	1.409638	0.663132	0.816431
O571	O	0.827360	0.388437	0.000046
O572	O	1.160694	0.721770	0.333380
O573	O	1.494027	1.055104	0.666713
C574	C	0.872713	0.433640	0.000064
C575	C	1.206046	0.766973	0.333397
C576	C	1.539380	1.100307	0.666731
H577	H	0.856979	0.473904	-0.019069
H578	H	1.190312	0.807237	0.314264
H579	H	1.523646	1.140571	0.647598
H580	H	0.909239	0.421433	-0.029271
H581	H	1.242572	0.754766	0.304063
H582	H	1.575905	1.088100	0.637396
H583	H	0.888595	0.442136	0.048544
H584	H	1.221928	0.775469	0.381877
H585	H	1.555262	1.108803	0.715211
O586	O	0.825893	0.505448	-0.000040
O587	O	1.159227	0.838782	0.333293
O588	O	1.492560	1.172115	0.666626
C589	C	0.828603	0.540244	-0.052366
C590	C	1.161937	0.873577	0.280968
C591	C	1.495270	1.206910	0.614301
H592	H	0.799358	0.518337	-0.088952
H593	H	1.132691	0.851670	0.244382
H594	H	1.466024	1.185004	0.577715
H595	H	0.874521	0.547165	-0.069923
H596	H	1.207854	0.880498	0.263410
H597	H	1.541188	1.213832	0.596743
H598	H	0.814123	0.583365	-0.040535
H599	H	1.147456	0.916698	0.292798
H600	H	1.480790	1.250031	0.626132
H601	H	0.580748	0.193677	0.000071
H602	H	0.914081	0.527011	0.333404
H603	H	1.247414	0.860344	0.666738
O604	O	0.209752	-0.229171	0.000068
O605	O	0.543085	0.104162	0.333402
O606	O	0.876419	0.437495	0.666735
C607	C	0.164549	-0.274524	0.000050
C608	C	0.497882	0.058809	0.333383
C609	C	0.831215	0.392143	0.666717
H610	H	0.124283	-0.258788	0.019181
H611	H	0.457617	0.074545	0.352514
H612	H	0.790950	0.407878	0.685847
H613	H	0.176753	-0.311047	0.029387
H614	H	0.510087	0.022286	0.362720
H615	H	0.843420	0.355619	0.696053
H616	H	0.156057	-0.290410	-0.048430
H617	H	0.489391	0.042923	0.284904
H618	H	0.822724	0.376257	0.618237
O619	O	0.772133	0.654524	-0.000055
O620	O	1.105467	0.987857	0.333278
O621	O	1.438800	1.321191	0.666611
C622	C	0.803558	0.673361	-0.052379
C623	C	1.136891	1.006694	0.280955
C624	C	1.470224	1.340028	0.614288
H625	H	0.772985	0.685549	-0.088960
H626	H	1.106319	1.018882	0.244373
H627	H	1.439652	1.352215	0.577707
H628	H	0.827584	0.637511	-0.069946
H629	H	1.160917	0.970845	0.263388
H630	H	1.494250	1.304178	0.596721
H631	H	0.835514	0.712253	-0.040541
H632	H	1.168847	1.045587	0.292792
H633	H	1.502180	1.378920	0.626125
O634	O	0.770662	0.771678	0.000017
O635	O	1.103996	1.105011	0.333351
O636	O	1.437329	1.438344	0.666684
C637	C	0.758817	0.828954	0.000026
C638	C	1.092151	1.162287	0.333359
C639	C	1.425484	1.495621	0.666693
H640	H	0.714098	0.830978	-0.019106
H641	H	1.047431	1.164311	0.314228
H642	H	1.380765	1.497645	0.647561
H643	H	0.791705	0.856049	-0.029314
H644	H	1.125038	1.189382	0.304019
H645	H	1.458371	1.522715	0.637352
H646	H	0.761072	0.846150	0.048503
H647	H	1.094405	1.179484	0.381836
H648	H	1.427739	1.512817	0.715170
H649	H	0.526850	0.352066	0.000013
H650	H	0.860183	0.685399	0.333346
H651	H	1.193516	1.018732	0.666680
O652	O	0.573990	0.080053	0.000036
O653	O	0.907323	0.413386	0.333369
O654	O	1.240657	0.746719	0.666703
C655	C	0.585835	0.022777	0.000056
C656	C	0.919168	0.356110	0.333389
C657	C	1.252502	0.689443	0.666722
H658	H	0.630560	0.020751	-0.019065
H659	H	0.963893	0.354084	0.314269
H660	H	1.297227	0.687417	0.647602
H661	H	0.552957	-0.004321	-0.029289
H662	H	0.886290	0.329012	0.304044
H663	H	1.219623	0.662346	0.637378
H664	H	0.583566	0.005585	0.048535
H665	H	0.916899	0.338918	0.381868
H666	H	1.250232	0.672252	0.715201
