data_functionalizedCrystal
_audit_creation_method	'MofGen! by Chris Wilmer'
_symmetry_space_group_name_H-M	'P1'
_symmetry_Int_Tables_number	1
_symmetry_cell_setting	triclinic
loop_
_symmetry_equiv_pos_as_xyz
  x,y,z
_cell_length_a	18.101398
_cell_length_b	18.101397
_cell_length_c	17.639306
_cell_angle_alpha	101.181650
_cell_angle_beta	78.771019
_cell_angle_gamma	90.015732
loop_
_atom_site_label
_atom_site_type_symbol
_atom_site_fract_x
_atom_site_fract_y
_atom_site_fract_z
Zn1	Zn	1.216798	-0.379601	-0.447003
Zn2	Zn	1.716798	0.120399	0.052997
Zn3	Zn	1.191694	-0.478411	-0.314824
Zn4	Zn	1.691694	0.021589	0.185176
Zn5	Zn	1.067936	-0.354579	-0.314833
Zn6	Zn	1.567936	0.145421	0.185167
Zn7	Zn	1.092919	-0.503384	-0.446941
Zn8	Zn	1.592919	-0.003384	0.053059
O9	O	1.142336	-0.428994	-0.380900
O10	O	1.642336	0.071006	0.119100
O11	O	1.317105	-0.392729	-0.429492
O12	O	1.817105	0.107271	0.070508
O13	O	1.154315	-0.441061	-0.204220
O14	O	1.654315	0.058939	0.295780
O15	O	1.087733	-0.254271	-0.332395
O16	O	1.587733	0.245729	0.167605
O17	O	1.298661	-0.465324	-0.332380
O18	O	1.798661	0.034676	0.167620
O19	O	1.197102	-0.272655	-0.429500
O20	O	1.697102	0.227345	0.070500
O21	O	1.063391	-0.350082	-0.204226
O22	O	1.563391	0.149918	0.295774
O23	O	0.967612	-0.374297	-0.332335
O24	O	1.467612	0.125703	0.167665
O25	O	1.130313	-0.507887	-0.557554
O26	O	1.630313	-0.007887	-0.057554
O27	O	0.985967	-0.483624	-0.429394
O28	O	1.485967	0.016376	0.070606
O29	O	1.221327	-0.416945	-0.557600
O30	O	1.721327	0.083055	-0.057600
O31	O	1.178540	-0.585351	-0.332319
O32	O	1.678540	-0.085351	0.167681
O33	O	1.105971	-0.603698	-0.429385
O34	O	1.605971	-0.103698	0.070615
C35	C	1.142266	-0.621397	-0.380862
C36	C	1.642266	-0.121397	0.119138
C37	C	1.142308	-0.703713	-0.380872
C38	C	1.642308	-0.203713	0.119128
C39	C	0.949918	-0.428956	-0.380859
C40	C	1.449918	0.071044	0.119141
C41	C	0.867604	-0.428961	-0.380860
C42	C	1.367604	0.071039	0.119140
C43	C	1.142417	-1.002818	-0.380944
C44	C	1.642417	-0.502818	0.119056
C45	C	1.187885	-0.959887	-0.319709
C46	C	1.687885	-0.459887	0.180291
C47	C	1.188113	-0.874298	-0.319868
C48	C	1.688113	-0.374298	0.180132
C49	C	1.142363	-0.854428	-0.380907
C50	C	1.642363	-0.354428	0.119093
C51	C	1.179291	-0.901218	-0.464222
C52	C	1.679291	-0.401218	0.035778
C53	C	1.179669	-0.986800	-0.463889
C54	C	1.679669	-0.486800	0.036111
C55	C	1.060004	-0.967274	-0.359585
C56	C	1.560004	-0.467274	0.140415
C57	C	1.060039	-0.881273	-0.357726
C58	C	1.560039	-0.381273	0.142274
C59	C	1.142332	-0.770566	-0.380892
C60	C	1.642332	-0.270566	0.119108
C61	C	1.142450	-1.086681	-0.380965
C62	C	1.642450	-0.586681	0.119035
C63	C	0.568526	-0.429020	-0.380926
C64	C	1.068526	0.070980	0.119074
C65	C	0.588334	-0.360005	-0.320157
C66	C	1.088334	0.139995	0.179843
C67	C	0.673903	-0.360110	-0.319898
C68	C	1.173903	0.139890	0.180102
C69	C	0.716902	-0.428990	-0.380893
C70	C	1.216902	0.071010	0.119107
C71	C	0.681489	-0.502690	-0.358130
C72	C	1.181489	-0.002690	0.141870
C73	C	0.595764	-0.502290	-0.357708
C74	C	1.095764	-0.002290	0.142292
C75	C	0.615977	-0.425040	-0.464601
C76	C	1.115977	0.074960	0.035399
C77	C	0.701541	-0.423216	-0.464145
C78	C	1.201541	0.076784	0.035855
C79	C	0.800758	-0.428978	-0.380876
C80	C	1.300758	0.071022	0.119124
C81	C	0.484669	-0.429036	-0.380942
C82	C	0.984669	0.070964	0.119058
C83	C	1.335506	-0.429032	-0.380942
C84	C	1.835506	0.070968	0.119058
C85	C	1.417824	-0.429049	-0.380960
C86	C	1.917824	0.070951	0.119040
C87	C	1.181407	-0.467993	-0.587058
C88	C	1.681407	0.032007	-0.087058
C89	C	1.198056	-0.484612	-0.674910
C90	C	1.698056	0.015388	-0.174910
C91	C	1.142431	-0.235842	-0.380956
C92	C	1.642431	0.264158	0.119044
C93	C	1.142471	-0.153533	-0.380980
C94	C	1.642471	0.346467	0.119020
C95	C	1.016140	-0.302464	-0.963885
C96	C	1.516140	0.197536	-0.463885
C97	C	1.031801	-0.318096	-1.046436
C98	C	1.531801	0.181904	-0.546436
C99	C	1.126471	-0.412822	-1.046409
C100	C	1.626471	0.087178	-0.546409
C101	C	1.110820	-0.397196	-0.963857
C102	C	1.610820	0.102804	-0.463857
C103	C	1.055653	-0.342017	-0.922602
C104	C	1.555653	0.157983	-0.422602
C105	C	1.150334	-0.436748	-0.922573
C106	C	1.650334	0.063252	-0.422573
C107	C	1.134681	-0.421125	-0.840028
C108	C	1.634681	0.078875	-0.340028
C109	C	1.079515	-0.365950	-0.798767
C110	C	1.579515	0.134050	-0.298767
C111	C	1.040001	-0.326394	-0.840057
C112	C	1.540001	0.173606	-0.340057
C113	C	1.205497	-0.491931	-0.963830
C114	C	1.705497	0.008069	-0.463830
C115	C	1.245010	-0.531483	-0.922546
C116	C	1.745010	-0.031483	-0.422546
C117	C	1.229362	-0.515857	-0.840000
C118	C	1.729362	-0.015857	-0.340000
C119	C	1.174196	-0.460682	-0.798739
C120	C	1.674196	0.039318	-0.298739
C121	C	1.268876	-0.555414	-0.798710
C122	C	1.768876	-0.055414	-0.298710
C123	C	1.253223	-0.539791	-0.716165
C124	C	1.753223	-0.039791	-0.216165
C125	C	1.158543	-0.445059	-0.716194
C126	C	1.658543	0.054941	-0.216194
C127	C	1.103461	-0.390093	-0.175544
C128	C	1.603461	0.109907	0.324456
C129	C	1.086955	-0.373265	-0.087693
C130	C	1.586955	0.126735	0.412307
H131	H	1.163182	-0.841634	-0.258092
H132	H	1.663182	-0.341634	0.241908
C133	C	0.979317	-0.265691	-0.794671
C134	C	1.479317	0.234309	-0.294671
N135	N	0.933610	-0.219973	-0.760487
N136	N	1.433610	0.280027	-0.260487
H137	H	0.604300	-0.475500	-0.509880
H138	H	1.104300	0.024500	-0.009880
C139	C	1.305527	-0.592343	-0.967936
C140	C	1.805527	-0.092343	-0.467936
N141	N	1.351050	-0.638242	-1.002123
N142	N	1.851050	-0.138242	-0.502123
C143	C	1.022802	-0.838204	-0.274899
C144	C	1.522802	-0.338204	0.225101
N145	N	0.994755	-0.805758	-0.212516
N146	N	1.494755	-0.305758	0.287484
H147	H	1.025933	-0.995985	-0.404185
H148	H	1.525933	-0.495985	0.095815
H149	H	1.248264	-0.984006	-0.333679
H150	H	1.748264	-0.484006	0.166321
C151	C	0.719985	-0.573096	-0.416044
C152	C	1.219985	-0.073096	0.083956
N153	N	0.748984	-0.626126	-0.459664
N154	N	1.248984	-0.126126	0.040336
C155	C	1.097859	-0.384356	-0.670808
C156	C	1.597859	0.115644	-0.170808
N157	N	1.052153	-0.338638	-0.636624
N158	N	1.552153	0.161362	-0.136624
C159	C	0.592120	-0.354818	-0.492556
C160	C	1.092120	0.145182	0.007444
N161	N	0.574150	-0.301920	-0.513601
N162	N	1.074150	0.198080	-0.013601
C163	C	1.261685	-1.018346	-0.488320
C164	C	1.761685	-0.518346	0.011680
N165	N	1.323462	-1.042102	-0.506718
N166	N	1.823462	-0.542102	-0.006718
H167	H	0.570425	-0.304653	-0.334269
H168	H	1.070425	0.195347	0.165731
H169	H	0.971225	-0.257524	-0.930293
H170	H	1.471225	0.242476	-0.430293
H171	H	1.313788	-0.600346	-0.832313
H172	H	1.813788	-0.100346	-0.332313
C173	C	0.733390	-0.350047	-0.487329
C174	C	1.233390	0.149953	0.012671
N175	N	0.757380	-0.294934	-0.504789
N176	N	1.257380	0.205066	-0.004789
C177	C	1.186988	-0.473682	-1.091799
C178	C	1.686988	0.026318	-0.591799
N179	N	1.232511	-0.519581	-1.125986
N180	N	1.732511	-0.019581	-0.625986
C181	C	0.685685	-0.361958	-0.236136
C182	C	1.185685	0.138042	0.263864
N183	N	0.694557	-0.363352	-0.173043
N184	N	1.194557	0.136648	0.326957
C185	C	0.543450	-0.361730	-0.236884
C186	C	1.043450	0.138270	0.263116
N187	N	0.509640	-0.363030	-0.174163
N188	N	1.009640	0.136970	0.325837
H189	H	1.023063	-0.867713	-0.399059
H190	H	1.523063	-0.367713	0.100941
H191	H	0.691452	-0.508336	-0.297620
H192	H	1.191452	-0.008336	0.202380
C193	C	0.742662	-0.487887	-0.528592
C194	C	1.242662	0.012113	-0.028592
N195	N	0.773632	-0.536604	-0.577132
N196	N	1.273632	-0.036604	-0.077132
C197	C	1.136849	-0.885695	-0.527520
C198	C	1.636849	-0.385695	-0.027520
N199	N	1.104882	-0.874001	-0.575196
N200	N	1.604882	-0.374001	-0.075196
H201	H	1.066767	-0.353237	-0.731554
H202	H	1.566767	0.146763	-0.231554
H203	H	0.999623	-0.285881	-1.080046
H204	H	1.499623	0.214119	-0.580046
C205	C	1.296685	-0.583306	-0.670751
C206	C	1.796685	-0.083306	-0.170751
N207	N	1.329418	-0.616086	-0.636544
N208	N	1.829418	-0.116086	-0.136544
H209	H	1.163079	-0.968792	-0.257748
H210	H	1.663079	-0.468792	0.242252
H211	H	1.248839	-0.856436	-0.334000
H212	H	1.748839	-0.356436	0.166000
H213	H	1.239416	-0.883200	-0.482619
H214	H	1.739416	-0.383200	0.017381
C215	C	1.138037	-1.026874	-0.527636
C216	C	1.638037	-0.526874	-0.027636
N217	N	1.106687	-1.057054	-0.575655
N218	N	1.606687	-0.557054	-0.075655
C219	C	1.018738	-0.981250	-0.278929
C220	C	1.518738	-0.481250	0.221071
N221	N	0.987663	-0.991776	-0.218175
N222	N	1.487663	-0.491776	0.281825
C223	C	0.705963	-0.285605	-0.339163
C224	C	1.205963	0.214395	0.160837
N225	N	0.730105	-0.229483	-0.353669
N226	N	1.230105	0.270517	0.146331
H227	H	0.564175	-0.507520	-0.296537
H228	H	1.064175	-0.007520	0.203463
H229	H	1.218241	-0.504647	-1.031043
H230	H	1.718241	-0.004647	-0.531043
C231	C	0.578604	-0.572966	-0.414889
C232	C	1.078604	-0.072966	0.085111
N233	N	0.565681	-0.626200	-0.457955
N234	N	1.065681	-0.126200	0.042045
