data_functionalizedCrystal
_audit_creation_method	'MofGen! by Chris Wilmer'
_symmetry_space_group_name_H-M	'P1'
_symmetry_Int_Tables_number	1
_symmetry_cell_setting	triclinic
loop_
_symmetry_equiv_pos_as_xyz
  x,y,z
_cell_length_a	15.995350
_cell_length_b	16.053810
_cell_length_c	16.992695
_cell_angle_alpha	92.759297
_cell_angle_beta	87.080298
_cell_angle_gamma	87.435524
loop_
_atom_site_label
_atom_site_type_symbol
_atom_site_fract_x
_atom_site_fract_y
_atom_site_fract_z
O1	O	1.121041	-0.069347	0.097759
O2	O	1.621041	0.430653	0.597759
O3	O	0.878101	-0.069363	0.110239
O4	O	1.378101	0.430637	0.610239
O5	O	0.998597	-0.069362	-0.010144
O6	O	1.498597	0.430638	0.489856
O7	O	1.000544	-0.069347	0.218142
O8	O	1.500544	0.430653	0.718142
O9	O	0.991994	0.069497	-0.003520
O10	O	1.491994	0.569497	0.496480
O11	O	0.871498	0.069496	0.116863
O12	O	1.371498	0.569496	0.616863
O13	O	1.114437	0.069512	0.104383
O14	O	1.614437	0.569512	0.604383
Zn15	Zn	0.991919	0.091551	0.111675
Zn16	Zn	1.491919	0.591551	0.611675
Zn17	Zn	1.000619	-0.091401	0.102947
Zn18	Zn	1.500619	0.408599	0.602947
O19	O	0.993941	0.069511	0.224766
O20	O	1.493941	0.569511	0.724766
C21	C	0.843570	0.000065	0.113035
C22	C	1.343570	0.500065	0.613035
C23	C	0.750517	0.000058	0.111487
C24	C	1.250517	0.500058	0.611487
C25	C	0.992790	0.000064	-0.036045
C26	C	1.492790	0.500064	0.463955
C27	C	0.985314	0.000052	-0.123090
C28	C	1.485314	0.500052	0.376910
N29	N	0.985987	0.216411	0.117630
N30	N	1.485987	0.716411	0.617630
C31	C	0.412397	0.000075	0.105933
C32	C	0.912397	0.500075	0.605933
C33	C	0.454079	0.000379	0.020213
C34	C	0.954079	0.500379	0.520213
C35	C	0.550888	0.000061	0.021745
C36	C	1.050888	0.500061	0.521745
C37	C	0.580142	0.000067	0.108688
C38	C	1.080142	0.500067	0.608688
C39	C	0.545655	-0.079222	0.147193
C40	C	1.045655	0.420778	0.647193
C41	C	0.448878	-0.079283	0.145036
C42	C	0.948878	0.420717	0.645036
C43	C	0.441148	0.078626	0.154341
C44	C	0.941148	0.578626	0.654341
C45	C	0.538043	0.079668	0.154370
C46	C	1.038043	0.579668	0.654370
C47	C	0.674944	0.000060	0.110250
C48	C	1.174944	0.500060	0.610250
C49	C	0.317594	0.000077	0.104374
C50	C	0.817594	0.500077	0.604374
C51	C	1.148968	0.000083	0.101587
C52	C	1.648968	0.500083	0.601587
C53	C	1.242022	0.000084	0.103134
C54	C	1.742022	0.500084	0.603134
N55	N	1.006557	-0.216262	0.096985
N56	N	1.506557	0.283738	0.596985
C57	C	0.955272	0.740043	0.148196
C58	C	1.455272	1.240043	0.648196
C59	C	0.959441	0.652636	0.144044
C60	C	1.459441	1.152636	0.644044
C61	C	1.014900	0.608927	0.088686
C62	C	1.514900	1.108927	0.588686
C63	C	1.066187	0.652628	0.037469
C64	C	1.566187	1.152628	0.537469
C65	C	1.062013	0.740033	0.041618
C66	C	1.562013	1.240033	0.541618
C67	C	1.033101	0.347518	0.070562
C68	C	1.533101	0.847518	0.570562
C69	C	1.037272	0.260106	0.066420
C70	C	1.537272	0.760106	0.566420
C71	C	0.930525	0.260121	0.172994
C72	C	1.430525	0.760121	0.672994
C73	C	0.926360	0.347527	0.177140
C74	C	1.426360	0.847527	0.677140
C75	C	0.977644	0.391221	0.125922
C76	C	1.477644	0.891221	0.625922
N77	N	1.019164	0.519583	0.084443
N78	N	1.519164	1.019583	0.584443
N79	N	0.973375	0.480563	0.130161
N80	N	1.473375	0.980563	0.630161
C81	C	0.999748	0.000084	0.250666
C82	C	1.499748	0.500084	0.750666
C83	C	1.007224	0.000090	0.337711
C84	C	1.507224	0.500090	0.837711
C85	C	0.935089	0.000085	0.387951
C86	C	1.435089	0.500085	0.887951
C87	C	0.942119	0.000075	0.469737
C88	C	1.442119	0.500075	0.969737
C89	C	1.021285	0.000076	0.501282
C90	C	1.521285	0.500076	1.001282
C91	C	1.093426	0.000078	0.451035
C92	C	1.593426	0.500078	0.951035
C93	C	1.086395	0.000082	0.369250
C94	C	1.586395	0.500082	0.869250
C95	C	1.050424	0.000059	0.744879
C96	C	1.550424	0.500059	1.244879
C97	C	1.057449	0.000057	0.826670
C98	C	1.557449	0.500057	1.326670
C99	C	0.906142	0.000052	0.845367
C100	C	1.406142	0.500052	1.345367
C101	C	0.899118	0.000061	0.763580
C102	C	1.399118	0.500061	1.263580
C103	C	0.971259	0.000059	0.713340
C104	C	1.471259	0.500059	1.213340
N105	N	1.028473	0.000068	0.584880
N106	N	1.528473	0.500068	1.084880
N107	N	0.964071	0.000061	0.629743
N108	N	1.464071	0.500061	1.129743
H109	H	0.430560	0.057240	-0.011345
H110	H	0.930560	0.557240	0.488655
N111	N	0.563706	0.086020	0.238658
N112	N	1.063706	0.586020	0.738658
H113	H	0.512319	0.085321	0.275668
H114	H	1.012319	0.585321	0.775668
H115	H	0.592849	0.139821	0.248237
H116	H	1.092849	0.639821	0.748237
H117	H	1.103774	0.775609	-0.000085
H118	H	1.603774	1.275609	0.499915
H119	H	1.111340	0.617035	-0.007609
H120	H	1.611340	1.117035	0.492391
N121	N	0.875202	0.212992	0.228222
N122	N	1.375202	0.712992	0.728222
H123	H	0.839435	0.253945	0.263919
H124	H	1.339435	0.753945	0.763919
H125	H	0.911298	0.176746	0.261189
H126	H	1.411298	0.676746	0.761189
N127	N	1.088425	0.394635	0.015331
N128	N	1.588425	0.894635	0.515331
H129	H	1.077369	0.456639	0.026353
H130	H	1.577369	0.956639	0.526353
H131	H	1.075771	0.379331	-0.041027
H132	H	1.575771	0.879331	0.458973
H133	H	1.082437	0.224522	0.021337
H134	H	1.582437	0.724522	0.521337
H135	H	0.413591	0.079167	0.217578
H136	H	0.913591	0.579167	0.717578
N137	N	1.142839	0.000061	0.860696
N138	N	1.642839	0.500061	1.360696
H139	H	1.187474	0.000059	0.816460
H140	H	1.687474	0.500059	1.316460
H141	H	1.151493	-0.051414	0.891765
H142	H	1.651493	0.448586	1.391765
H143	H	0.847410	0.000053	0.886280
H144	H	1.347410	0.500053	1.386280
N145	N	0.407694	0.158240	0.121010
N146	N	0.907694	0.658240	0.621010
H147	H	0.371101	0.191188	0.162785
H148	H	0.871101	0.691188	0.662785
H149	H	0.373592	0.144125	0.074182
H150	H	0.873592	0.644125	0.574182
H151	H	1.145135	0.000083	0.328345
H152	H	1.645135	0.500083	0.828345
N153	N	0.849702	0.000094	0.353931
N154	N	1.349702	0.500094	0.853931
H155	H	0.805073	0.000089	0.398172
H156	H	1.305073	0.500089	0.898172
H157	H	0.845933	-0.051379	0.317943
H158	H	1.345933	0.448621	0.817943
H159	H	0.579215	-0.056880	-0.014436
H160	H	1.079215	0.443120	0.485564
H161	H	0.834654	0.000051	0.737902
H162	H	1.334654	0.500051	1.237902
N163	N	0.567789	0.157372	0.117192
N164	N	1.067789	0.657372	0.617192
H165	H	0.608366	0.141089	0.070951
H166	H	1.108366	0.641089	0.570951
H167	H	0.596702	0.192544	0.157490
H168	H	1.096702	0.692544	0.657490
N169	N	1.128228	0.000069	0.690698
N170	N	1.628228	0.500069	1.190698
H171	H	1.164977	-0.051401	0.698385
H172	H	1.664977	0.448599	1.198385
H173	H	1.160005	0.051583	0.703336
H174	H	1.660005	0.551583	1.203336
H175	H	0.434893	-0.056173	-0.016597
H176	H	0.934893	0.443827	0.483403
N177	N	0.895457	0.787184	0.207906
N178	N	1.395457	1.287184	0.707906
H179	H	0.863599	0.746237	0.239716
H180	H	1.363599	1.246237	0.739716
H181	H	0.854708	0.823427	0.179582
H182	H	1.354708	1.323427	0.679582
H183	H	1.157884	0.000081	0.476725
H184	H	1.657884	0.500081	0.976725
H185	H	0.574390	0.056898	-0.008784
H186	H	1.074390	0.556898	0.491216
H187	H	0.574871	-0.138235	0.115007
H188	H	1.074871	0.361765	0.615007
H189	H	0.431325	-0.138558	0.111371
H190	H	0.931325	0.361442	0.611371
H191	H	0.883379	0.000068	0.510640
H192	H	1.383379	0.500068	1.010640
H193	H	0.421012	-0.082877	0.207810
H194	H	0.921012	0.417123	0.707810
H195	H	0.917680	0.617060	0.185744
H196	H	1.417680	1.117060	0.685744
N197	N	0.570218	-0.083137	0.231613
N198	N	1.070218	0.416863	0.731613
H199	H	0.604018	-0.033431	0.245743
H200	H	1.104018	0.466569	0.745743
H201	H	0.604975	-0.136283	0.237767
H202	H	1.104975	0.363717	0.737767
N203	N	0.866525	0.394670	0.236833
N204	N	1.366525	0.894670	0.736833
H205	H	0.834661	0.353725	0.268640
H206	H	1.334661	0.853725	0.768640
H207	H	0.825783	0.430903	0.208491
H208	H	1.325783	0.930903	0.708491
