data_functionalizedCrystal
_audit_creation_method	'MofGen! by Chris Wilmer'
_symmetry_space_group_name_H-M	'P1'
_symmetry_Int_Tables_number	1
_symmetry_cell_setting	triclinic
loop_
_symmetry_equiv_pos_as_xyz
  x,y,z
_cell_length_a	8.597213
_cell_length_b	10.654551
_cell_length_c	7.681481
_cell_angle_alpha	84.205011
_cell_angle_beta	88.167023
_cell_angle_gamma	84.910113
loop_
_atom_site_label
_atom_site_type_symbol
_atom_site_fract_x
_atom_site_fract_y
_atom_site_fract_z
O1	O	2.038727	0.223907	-0.455708
O2	O	1.588800	0.232830	-0.387452
O3	O	1.824108	0.045811	-0.423150
O4	O	1.803420	0.410926	-0.420010
O5	O	1.853069	0.022738	-0.134686
O6	O	1.617762	0.209757	-0.098988
O7	O	2.067689	0.200835	-0.167243
Zn8	Zn	1.847324	0.201633	-0.087316
Zn9	Zn	1.809166	0.232032	-0.467380
O10	O	1.832382	0.387854	-0.131546
C11	C	1.545670	0.219050	-0.234481
C12	C	1.374007	0.212351	-0.208440
C13	C	1.837069	-0.012550	-0.278691
C14	C	1.832522	-0.152072	-0.278014
C15	C	1.814603	-0.205044	-0.434929
C16	C	1.810319	-0.336140	-0.434271
C17	C	1.841882	-0.361281	-0.119770
C18	C	1.846154	-0.230187	-0.120428
C19	C	1.800970	-0.126930	-0.592515
C20	C	1.783052	-0.179902	-0.749443
C21	C	1.778768	-0.310998	-0.748785
C22	C	1.792403	-0.389122	-0.591199
C23	C	2.110819	0.214615	-0.320219
C24	C	2.282482	0.221315	-0.346272
C25	C	1.819420	0.446215	-0.276008
C26	C	1.823966	0.585737	-0.276698
N27	N	1.873378	0.180885	0.172066
N28	N	1.783124	0.252769	-0.726764
H29	H	1.335450	0.234126	-0.484191
C30	C	1.997859	0.081762	0.254764
C31	C	1.991021	-0.059362	0.230626
C32	C	2.115499	-0.158484	0.313325
C33	C	2.246816	-0.116480	0.420160
C34	C	2.253659	0.024652	0.444302
C35	C	2.129181	0.123773	0.361604
H36	H	1.893807	-0.090462	0.151536
H37	H	2.110432	-0.262959	0.295452
H38	H	2.338963	-0.189855	0.481378
H39	H	2.350873	0.055751	0.523393
H40	H	2.134248	0.228248	0.379476
H41	H	1.860713	-0.187053	0.007352
H42	H	1.321029	0.199554	-0.070510
C43	C	1.856892	-0.447219	0.053560
C44	C	1.724280	-0.529842	0.117577
C45	C	1.739295	-0.615780	0.290907
C46	C	1.886923	-0.619095	0.400220
C47	C	2.019546	-0.536469	0.336205
C48	C	2.004531	-0.450531	0.162874
H49	H	1.614988	-0.527390	0.036656
H50	H	1.641118	-0.676945	0.338295
H51	H	1.898038	-0.682712	0.528530
H52	H	2.128839	-0.538920	0.417126
H53	H	2.102708	-0.389366	0.115486
C54	C	1.658650	0.351887	0.190545
C55	C	1.553724	0.434856	0.307641
C56	C	1.429247	0.533976	0.224937
C57	C	1.409696	0.550127	0.025137
C58	C	1.514624	0.467155	-0.091971
C59	C	1.639101	0.368036	-0.009267
H60	H	1.568195	0.422903	0.455555
H61	H	1.351572	0.595397	0.311629
H62	H	1.317550	0.623501	-0.036086
H63	H	1.500154	0.479109	-0.239885
H64	H	1.716776	0.306615	-0.095959
H65	H	1.804461	-0.020184	-0.593069
H66	H	1.771936	-0.116284	-0.877741
H67	H	1.764162	-0.354122	-0.876561
H68	H	1.788891	-0.495866	-0.590672
