data_functionalizedCrystal
_audit_creation_method	'MofGen! by Chris Wilmer'
_symmetry_space_group_name_H-M	'P1'
_symmetry_Int_Tables_number	1
_symmetry_cell_setting	triclinic
loop_
_symmetry_equiv_pos_as_xyz
  x,y,z
_cell_length_a	17.699083
_cell_length_b	19.188924
_cell_length_c	16.176319
_cell_angle_alpha	89.991125
_cell_angle_beta	89.998611
_cell_angle_gamma	83.212490
loop_
_atom_site_label
_atom_site_type_symbol
_atom_site_fract_x
_atom_site_fract_y
_atom_site_fract_z
O1	O	1.003960	0.088295	-0.068634
O2	O	1.337293	0.421628	0.264699
O3	O	1.670627	0.754961	0.598032
O4	O	0.783566	0.099782	-0.068662
O5	O	1.116900	0.433115	0.264671
O6	O	1.450233	0.766449	0.598005
O7	O	0.900126	-0.007610	-0.068638
O8	O	1.233459	0.325723	0.264696
O9	O	1.566793	0.659056	0.598029
O10	O	0.887400	0.195687	-0.068659
O11	O	1.220734	0.529021	0.264675
O12	O	1.554067	0.862354	0.598008
O13	O	0.900110	-0.007617	0.068855
O14	O	1.233443	0.325716	0.402189
O15	O	1.566777	0.659049	0.735522
O16	O	0.783550	0.099775	0.068831
O17	O	1.116884	0.433109	0.402164
O18	O	1.450217	0.766442	0.735498
O19	O	1.003944	0.088288	0.068859
O20	O	1.337277	0.421621	0.402192
O21	O	1.670611	0.754955	0.735525
Cu22	Cu	0.893746	0.094031	0.081399
Cu23	Cu	1.227079	0.427364	0.414733
Cu24	Cu	1.560412	0.760698	0.748066
Cu25	Cu	0.893765	0.094039	-0.081202
Cu26	Cu	1.227098	0.427372	0.252131
Cu27	Cu	1.560431	0.760706	0.585464
O28	O	0.887384	0.195680	0.068834
O29	O	1.220718	0.529014	0.402168
O30	O	1.554051	0.862347	0.735501
C31	C	0.755362	0.099367	0.000081
C32	C	1.088695	0.432700	0.333414
C33	C	1.422029	0.766034	0.666748
C34	C	0.671345	0.098132	0.000071
C35	C	1.004679	0.431466	0.333404
C36	C	1.338012	0.764799	0.666738
C37	C	0.622640	0.161169	0.000065
C38	C	0.955973	0.494503	0.333398
C39	C	1.289306	0.827836	0.666731
C40	C	0.543698	0.160005	0.000076
C41	C	0.877031	0.493338	0.333409
C42	C	1.210365	0.826672	0.666742
C43	C	0.513464	0.095803	0.000087
C44	C	0.846797	0.429136	0.333420
C45	C	1.180130	0.762469	0.666753
C46	C	0.562175	0.032761	0.000096
C47	C	0.895509	0.366094	0.333429
C48	C	1.228842	0.699427	0.666762
C49	C	0.641116	0.033926	0.000091
C50	C	0.974449	0.367259	0.333424
C51	C	1.307782	0.700592	0.666757
C52	C	0.243819	0.028060	0.000116
C53	C	0.577152	0.361394	0.333450
C54	C	0.910485	0.694727	0.666783
C55	C	0.164872	0.026900	0.000119
C56	C	0.498206	0.360233	0.333452
C57	C	0.831539	0.693567	0.666786
C58	C	0.146401	0.154139	0.000101
C59	C	0.479734	0.487473	0.333435
C60	C	0.813068	0.820806	0.666768
C61	C	0.225341	0.155305	0.000096
C62	C	0.558675	0.488638	0.333430
C63	C	0.892008	0.821971	0.666763
C64	C	0.274046	0.092263	0.000110
C65	C	0.607380	0.425596	0.333443
C66	C	0.940713	0.758930	0.666776
C67	C	0.359644	0.093526	0.000099
C68	C	0.692977	0.426860	0.333433
C69	C	1.026310	0.760193	0.666766
C70	C	0.427868	0.094538	0.000091
C71	C	0.761201	0.427872	0.333424
C72	C	1.094534	0.761205	0.666758
C73	C	0.899707	-0.033625	0.000110
C74	C	1.233040	0.299708	0.333443
C75	C	1.566373	0.633041	0.666776
C76	C	0.898472	-0.111132	0.000112
C77	C	1.231806	0.222202	0.333445
C78	C	1.565139	0.555535	0.666778
C79	C	0.897905	-0.147527	-0.074836
C80	C	1.231238	0.185806	0.258497
C81	C	1.564572	0.519139	0.591831
C82	C	0.896734	-0.220351	-0.074843
C83	C	1.230068	0.112982	0.258491
C84	C	1.563401	0.446315	0.591824
C85	C	0.896146	-0.256779	0.000103
C86	C	1.229480	0.076555	0.333436
C87	C	1.562813	0.409888	0.666770
C88	C	0.896710	-0.220374	0.075061
C89	C	1.230043	0.112960	0.408394
C90	C	1.563376	0.446293	0.741727
C91	C	0.897873	-0.147550	0.075065
C92	C	1.231206	0.185783	0.408398
C93	C	1.564539	0.519117	0.741732
N94	N	0.937384	-0.376398	0.055889
N95	N	1.270718	-0.043065	0.389222
N96	N	1.604051	0.290268	0.722555
N97	N	0.936281	-0.445578	0.055879
N98	N	1.269615	-0.112245	0.389213
N99	N	1.602948	0.221089	0.722546
C100	C	0.892641	-0.476192	0.000095
C101	C	1.225974	-0.142858	0.333428
C102	C	1.559307	0.190475	0.666761
N103	N	0.850154	-0.435014	-0.055693
N104	N	1.183488	-0.101680	0.277640
N105	N	1.516821	0.231653	0.610974
N106	N	0.851261	-0.365828	-0.055686
N107	N	1.184594	-0.032495	0.277647
N108	N	1.517928	0.300838	0.610980
C109	C	0.894885	-0.335744	0.000107
C110	C	1.228218	-0.002410	0.333440
C111	C	1.561551	0.330923	0.666773
C112	C	0.890803	-0.591552	-0.074865
C113	C	1.224136	-0.258218	0.258468
C114	C	1.557469	0.075115	0.591801
C115	C	0.889627	-0.664376	-0.074869
C116	C	1.222961	-0.331043	0.258465
C117	C	1.556294	0.002290	0.591798
C118	C	0.889610	-0.664398	0.075037
C119	C	1.222944	-0.331065	0.408370
C120	C	1.556277	0.002269	0.741704
C121	C	0.890778	-0.591574	0.075038
C122	C	1.224111	-0.258240	0.408371
C123	C	1.557445	0.075093	0.741705
C124	C	0.891378	-0.555155	0.000085
C125	C	1.224711	-0.221822	0.333418
C126	C	1.558044	0.111511	0.666751
C127	C	1.032149	0.088703	0.000114
C128	C	1.365482	0.422036	0.333447
C129	C	1.698815	0.755370	0.666780
C130	C	1.116165	0.089938	0.000118
C131	C	1.449498	0.423271	0.333452
C132	C	1.782832	0.756604	0.666785
C133	C	0.887804	0.221695	0.000085
C134	C	1.221137	0.555029	0.333419
C135	C	1.554470	0.888362	0.666752
C136	C	0.889038	0.299202	0.000078
C137	C	1.222371	0.632535	0.333411
C138	C	1.555705	0.965868	0.666744
N139	N	0.893738	0.094025	0.195764
N140	N	1.227071	0.427358	0.529098
N141	N	1.560405	0.760692	0.862431
N142	N	0.893778	0.094040	-0.195568
N143	N	1.227112	0.427373	0.137766
N144	N	1.560445	0.760706	0.471099
C145	C	0.945366	0.046491	0.239039
C146	C	1.278699	0.379824	0.572373
C147	C	1.612033	0.713158	0.905706
C148	C	0.945370	0.046490	0.325586
C149	C	1.278703	0.379823	0.658920
C150	C	1.612037	0.713157	0.992253
C151	C	0.893749	0.094027	0.368857
C152	C	1.227082	0.427361	0.702190
C153	C	1.560415	0.760694	1.035524
C154	C	0.842115	0.141564	0.325576
C155	C	1.175448	0.474897	0.658909
C156	C	1.508782	0.808230	0.992243
C157	C	0.842108	0.141560	0.239030
C158	C	1.175442	0.474894	0.572364
C159	C	1.508775	0.808227	0.905697
C160	C	0.842141	0.141577	0.674604
C161	C	1.175474	0.474910	1.007938
C162	C	1.508808	0.808243	1.341271
C163	C	0.842153	0.141578	0.761156
C164	C	1.175487	0.474911	1.094489
C165	C	1.508820	0.808244	1.427822
C166	C	0.945403	0.046506	0.761160
C167	C	1.278736	0.379840	1.094494
C168	C	1.612069	0.713173	1.427827
C169	C	0.945396	0.046503	0.674615
C170	C	1.278729	0.379837	1.007948
C171	C	1.612063	0.713170	1.341281
C172	C	0.893760	0.094037	0.631341
C173	C	1.227093	0.427370	0.964675
C174	C	1.560427	0.760703	1.298008
C175	C	0.893755	0.094036	0.537497
C176	C	1.227089	0.427369	0.870830
C177	C	1.560422	0.760703	1.204164
C178	C	0.893756	0.094032	0.462700
C179	C	1.227090	0.427365	0.796033
C180	C	1.560423	0.760698	1.129366
H181	H	0.140259	-0.025384	0.000129
H182	H	0.473592	0.307949	0.333462
H183	H	0.806926	0.641282	0.666796
C184	C	0.694695	-0.035413	0.000097
C185	C	1.028028	0.297920	0.333430
C186	C	1.361362	0.631254	0.666763
H187	H	0.746039	-0.025525	0.000101
H188	H	1.079372	0.307809	0.333434
H189	H	1.412705	0.641142	0.666767
H190	H	0.685555	-0.061746	-0.047845
H191	H	1.018888	0.271588	0.285489
H192	H	1.352221	0.604921	0.618822
H193	H	0.685553	-0.061743	0.048055
H194	H	1.018887	0.271590	0.381388
H195	H	1.352220	0.604923	0.714722
C196	C	0.785351	0.193867	0.627014
C197	C	1.118684	0.527200	0.960347
C198	C	1.452017	0.860534	1.293681
H199	H	0.754616	0.222183	0.665182
H200	H	1.087949	0.555516	0.998515
H201	H	1.421283	0.888850	1.331849
H202	H	0.753926	0.168789	0.593263
H203	H	1.087259	0.502123	0.926596
H204	H	1.420592	0.835456	1.259929
H205	H	0.812479	0.222902	0.593244
H206	H	1.145812	0.556235	0.926577
H207	H	1.479145	0.889569	1.259910
H208	H	0.800080	0.180267	0.360812
H209	H	1.133414	0.513600	0.694145
H210	H	1.466747	0.846934	1.027478
H211	H	0.898391	-0.117880	-0.135869
H212	H	1.231724	0.215454	0.197464
H213	H	1.565058	0.548787	0.530798
C214	C	0.889001	-0.704415	-0.157313
C215	C	1.222334	-0.371082	0.176020
C216	C	1.555668	-0.037748	0.509353
H217	H	0.888213	-0.753001	-0.146583
H218	H	1.221547	-0.419668	0.186750
H219	H	1.554880	-0.086335	0.520084
H220	H	0.933324	-0.697879	-0.188100
H221	H	1.266658	-0.364546	0.145234
H222	H	1.599991	-0.031212	0.478567
H223	H	0.845066	-0.687072	-0.188116
H224	H	1.178400	-0.353739	0.145217
H225	H	1.511733	-0.020405	0.478550
H226	H	0.647250	0.213450	0.000055
H227	H	0.980583	0.546784	0.333388
H228	H	1.313917	0.880117	0.666722
C229	C	0.297387	-0.041281	0.000119
C230	C	0.630720	0.292053	0.333452
C231	C	0.964054	0.625386	0.666785
H232	H	0.348732	-0.031396	0.000122
H233	H	0.682066	0.301937	0.333455
H234	H	1.015399	0.635270	0.666789
H235	H	0.288242	-0.067607	-0.047826
H236	H	0.621575	0.265726	0.285508
H237	H	0.954908	0.599059	0.618841
H238	H	0.288245	-0.067615	0.048074
H239	H	0.621579	0.265719	0.381407
H240	H	0.954912	0.599052	0.714741
C241	C	0.888957	-0.704458	0.157476
C242	C	1.222291	-0.371125	0.490809
C243	C	1.555624	-0.037792	0.824143
H244	H	0.888185	-0.753043	0.146740
H245	H	1.221519	-0.419710	0.480074
H246	H	1.554852	-0.086376	0.813407
H247	H	0.845017	-0.687125	0.188264
H248	H	1.178351	-0.353792	0.521597
H249	H	1.511684	-0.020458	0.854930
H250	H	0.933275	-0.697932	0.188280
H251	H	1.266609	-0.364599	0.521613
H252	H	1.599942	-0.031266	0.854946
C253	C	0.891453	-0.551487	-0.157309
C254	C	1.224787	-0.218154	0.176025
C255	C	1.558120	0.115179	0.509358
H256	H	0.890936	-0.583595	-0.201947
H257	H	1.224270	-0.250262	0.131386
H258	H	1.557603	0.083072	0.464719
H259	H	0.936035	-0.528481	-0.160419
H260	H	1.269368	-0.195147	0.172915
H261	H	1.602702	0.138186	0.506248
H262	H	0.847777	-0.517676	-0.160426
H263	H	1.181110	-0.184343	0.172907
H264	H	1.514444	0.148990	0.506240
H265	H	0.896268	-0.249990	-0.135876
H266	H	1.229601	0.083343	0.197457
H267	H	1.562934	0.416677	0.530791
C268	C	0.896065	-0.260441	0.157499
C269	C	1.229398	0.072893	0.490832
C270	C	1.562731	0.406226	0.824165
H271	H	0.895299	-0.309026	0.146762
H272	H	1.228632	0.024308	0.480096
H273	H	1.561965	0.357641	0.813429
H274	H	0.852125	-0.243112	0.188290
H275	H	1.185458	0.090221	0.521623
H276	H	1.518792	0.423555	0.854956
H277	H	0.940383	-0.253910	0.188300
H278	H	1.273717	0.079423	0.521633
H279	H	1.607050	0.412757	0.854966
H280	H	0.891246	-0.561941	0.136069
H281	H	1.224580	-0.228607	0.469402
H282	H	1.557913	0.104726	0.802735
H283	H	0.898331	-0.117917	0.136098
H284	H	1.231665	0.215417	0.469432
H285	H	1.564998	0.548750	0.802765
C286	C	0.785321	0.193850	0.191428
C287	C	1.118654	0.527184	0.524761
C288	C	1.451987	0.860517	0.858095
H289	H	0.754582	0.222167	0.229592
H290	H	1.087916	0.555501	0.562925
H291	H	1.421249	0.888834	0.896259
H292	H	0.753899	0.168770	0.157676
H293	H	1.087232	0.502103	0.491009
H294	H	1.420566	0.835436	0.824343
H295	H	0.812449	0.222885	0.157657
H296	H	1.145782	0.556218	0.490991
H297	H	1.479116	0.889552	0.824324
H298	H	0.987409	0.007784	0.360821
H299	H	1.320742	0.341117	0.694154
H300	H	1.654076	0.674451	1.027487
H301	H	0.987405	0.007784	0.203814
H302	H	1.320738	0.341117	0.537147
H303	H	1.654072	0.674450	0.870481
C304	C	0.490125	0.229346	0.000066
C305	C	0.823458	0.562679	0.333399
C306	C	1.156792	0.896012	0.666733
H307	H	0.519438	0.267749	0.000048
H308	H	0.852771	0.601082	0.333382
H309	H	1.186104	0.934415	0.666715
H310	H	0.458949	0.231538	0.048015
H311	H	0.792282	0.564871	0.381348
H312	H	1.125615	0.898205	0.714682
H313	H	0.458945	0.231536	-0.047885
H314	H	0.792278	0.564869	0.285449
H315	H	1.125611	0.898203	0.618782
C316	C	1.002177	-0.005789	0.627021
C317	C	1.335510	0.327544	0.960355
C318	C	1.668843	0.660877	1.293688
H319	H	1.032921	-0.034105	0.665191
H320	H	1.366254	0.299229	0.998524
H321	H	1.699588	0.632562	1.331857
H322	H	1.033593	0.019287	0.593247
H323	H	1.366926	0.352620	0.926580
H324	H	1.700260	0.685953	1.259914
H325	H	0.975039	-0.034825	0.593274
H326	H	1.308372	0.298508	0.926607
H327	H	1.641706	0.631842	1.259941
H328	H	0.987445	0.007800	0.796403
H329	H	1.320779	0.341133	1.129736
H330	H	1.654112	0.674466	1.463069
C331	C	0.785354	0.193858	0.808752
C332	C	1.118687	0.527191	1.142086
C333	C	1.452020	0.860525	1.475419
H334	H	0.754592	0.222160	0.770586
H335	H	1.087925	0.555493	1.103919
H336	H	1.421259	0.888827	1.437252
H337	H	0.812471	0.222898	0.842508
H338	H	1.145804	0.556232	1.175842
H339	H	1.479137	0.889565	1.509175
H340	H	0.753945	0.168761	0.842518
H341	H	1.087278	0.502094	1.175852
H342	H	1.420611	0.835427	1.509185
H343	H	0.249953	0.207585	0.000084
H344	H	0.583287	0.540918	0.333417
H345	H	0.916620	0.874251	0.666750
C346	C	0.528919	-0.037861	0.000106
C347	C	0.862253	0.295473	0.333440
C348	C	1.195586	0.628806	0.666773
H349	H	0.474930	-0.029527	0.000099
H350	H	0.808263	0.303806	0.333433
H351	H	1.141596	0.637139	0.666766
H352	H	0.545652	-0.063814	0.048055
H353	H	0.878986	0.269519	0.381388
H354	H	1.212319	0.602852	0.714721
H355	H	0.545653	-0.063806	-0.047845
H356	H	0.878986	0.269528	0.285488
H357	H	1.212319	0.602861	0.618822
H358	H	0.106736	0.205471	0.000095
H359	H	0.440069	0.538804	0.333428
H360	H	0.773402	0.872138	0.666762
