data_functionalizedCrystal
_audit_creation_method	'MofGen! by Chris Wilmer'
_symmetry_space_group_name_H-M	'P1'
_symmetry_Int_Tables_number	1
_symmetry_cell_setting	triclinic
loop_
_symmetry_equiv_pos_as_xyz
  x,y,z
_cell_length_a	23.532407
_cell_length_b	17.038272
_cell_length_c	16.098538
_cell_angle_alpha	92.930266
_cell_angle_beta	92.700973
_cell_angle_gamma	93.019883
loop_
_atom_site_label
_atom_site_type_symbol
_atom_site_fract_x
_atom_site_fract_y
_atom_site_fract_z
O1	O	0.121251	-1.039966	-0.069166
O2	O	0.621251	-0.539966	0.430834
O3	O	0.119288	-0.812351	-0.069191
O4	O	0.619288	-0.312351	0.430809
O5	O	0.037699	-0.933021	-0.069163
O6	O	0.537699	-0.433021	0.430837
O7	O	0.202840	-0.919295	-0.069195
O8	O	0.702840	-0.419295	0.430805
O9	O	0.042445	-0.925973	0.069349
O10	O	0.542445	-0.425973	0.569349
O11	O	0.124034	-0.805302	0.069321
O12	O	0.624034	-0.305302	0.569321
O13	O	0.125997	-1.032917	0.069345
O14	O	0.625997	-0.532917	0.569345
Zn15	Zn	0.125769	-0.917990	0.091324
Zn16	Zn	0.625769	-0.417990	0.591324
Zn17	Zn	0.119516	-0.927278	-0.091170
Zn18	Zn	0.619516	-0.427278	0.408830
O19	O	0.207586	-0.912247	0.069317
O20	O	0.707586	-0.412247	0.569317
C21	C	0.018838	-0.929147	0.000095
C22	C	0.518838	-0.429147	0.500095
C23	C	-0.044434	-0.928096	0.000101
C24	C	0.455566	-0.428096	0.500101
C25	C	0.119875	-0.779712	0.000062
C26	C	0.619875	-0.279712	0.500062
C27	C	0.114548	-0.692959	0.000054
C28	C	0.614548	-0.192959	0.500054
C29	C	0.125410	-1.065556	0.000090
C30	C	0.625410	-0.565556	0.500090
C31	C	0.130737	-1.152310	0.000093
C32	C	0.630737	-0.652310	0.500093
C33	C	-0.440131	-0.992917	0.000063
C34	C	0.059869	-0.492917	0.500063
C35	C	-0.499583	-0.991941	0.000056
C36	C	0.000417	-0.491941	0.500056
O37	O	-0.533169	-1.052030	0.000032
O38	O	-0.033169	-0.552030	0.500032
N39	N	-0.525981	-0.920202	0.000049
N40	N	-0.025981	-0.420202	0.500049
C41	C	-0.492924	-0.849435	0.000040
C42	C	0.007076	-0.349435	0.500040
O43	O	-0.520836	-0.788325	0.000033
O44	O	-0.020836	-0.288325	0.500033
C45	C	-0.433473	-0.850412	0.000041
C46	C	0.066527	-0.350412	0.500041
C47	C	-0.407078	-0.922155	0.000056
C48	C	0.092922	-0.422155	0.500056
C49	C	-0.413736	-1.064654	0.000077
C50	C	0.086264	-0.564654	0.500077
C51	C	-0.354288	-1.065630	0.000085
C52	C	0.145712	-0.565630	0.500085
C53	C	-0.321236	-0.994868	0.000079
C54	C	0.178764	-0.494868	0.500079
C55	C	-0.347631	-0.923131	0.000064
C56	C	0.152369	-0.423131	0.500064
C57	C	-0.400418	-0.779646	0.000026
C58	C	0.099582	-0.279646	0.500026
C59	C	-0.340963	-0.780629	0.000025
C60	C	0.159037	-0.280629	0.500025
C61	C	-0.314569	-0.852372	0.000041
C62	C	0.185431	-0.352372	0.500041
C63	C	-0.255130	-0.853344	0.000066
C64	C	0.244870	-0.353344	0.500066
N65	N	-0.228732	-0.925083	0.000073
N66	N	0.271268	-0.425083	0.500073
C67	C	-0.261785	-0.995845	0.000079
C68	C	0.238215	-0.495845	0.500079
C69	C	-0.617774	-0.847388	0.000038
C70	C	-0.117774	-0.347388	0.500038
C71	C	-0.677223	-0.846410	0.000043
C72	C	-0.177223	-0.346410	0.500043
C73	C	-0.683878	-0.988917	0.000058
C74	C	-0.183878	-0.488917	0.500058
C75	C	-0.624428	-0.989894	0.000058
C76	C	-0.124428	-0.489894	0.500058
C77	C	-0.591376	-0.919127	0.000045
C78	C	-0.091376	-0.419127	0.500045
C79	C	-0.136940	-0.997889	0.000097
C80	C	0.363060	-0.497889	0.500097
C81	C	-0.077487	-0.998858	0.000108
C82	C	0.422513	-0.498858	0.500108
C83	C	-0.070837	-0.856352	0.000089
C84	C	0.429163	-0.356352	0.500089
C85	C	-0.130285	-0.855382	0.000082
C86	C	0.369715	-0.355382	0.500082
C87	C	-0.163336	-0.926157	0.000083
C88	C	0.336664	-0.426157	0.500083
O89	O	-0.221508	-0.793287	0.000086
O90	O	0.278492	-0.293287	0.500086
O91	O	-0.233865	-1.056945	0.000076
O92	O	0.266135	-0.556945	0.500076
C93	C	0.226447	-0.916121	0.000057
C94	C	0.726447	-0.416121	0.500057
C95	C	0.289719	-0.917172	0.000045
C96	C	0.789719	-0.417172	0.500045
N97	N	0.130036	-0.911658	0.215872
N98	N	0.630036	-0.411658	0.715872
C99	C	0.163453	-0.642483	0.000045
C100	C	0.663453	-0.142483	0.500045
C101	C	0.158445	-0.560969	0.000057
C102	C	0.658445	-0.060969	0.500057
C103	C	0.104532	-0.529932	0.000072
C104	C	0.604532	-0.029932	0.500072
C105	C	0.055624	-0.580415	0.000084
C106	C	0.555624	-0.080415	0.500084
C107	C	0.060632	-0.661927	0.000077
C108	C	0.560632	-0.161927	0.500077
C109	C	0.086837	-0.284304	0.000098
C110	C	0.586837	0.215696	0.500098
C111	C	0.081832	-0.202786	0.000102
C112	C	0.581832	0.297214	0.500102
C113	C	0.184654	-0.183345	0.000077
C114	C	0.684654	0.316655	0.500077
C115	C	0.189657	-0.264860	0.000066
C116	C	0.689657	0.235140	0.500066
C117	C	0.140750	-0.315335	0.000081
C118	C	0.640750	0.184665	0.500081
C119	C	0.099411	-0.446612	0.000083
C120	C	0.599411	0.053388	0.500083
C121	C	0.145871	-0.398653	0.000077
C122	C	0.645871	0.101347	0.500077
N123	N	0.115244	-0.933616	-0.215718
N124	N	0.615244	-0.433616	0.284282
C125	C	0.095421	-0.962894	0.259469
C126	C	0.595421	-0.462894	0.759469
C127	C	0.098412	-0.958471	0.346657
C128	C	0.598412	-0.458471	0.846657
C129	C	0.136022	-0.902816	0.390246
C130	C	0.636022	-0.402816	0.890246
C131	C	0.170639	-0.851574	0.346643
C132	C	0.670639	-0.351574	0.846643
C133	C	0.167644	-0.855994	0.259457
C134	C	0.667644	-0.355994	0.759457
C135	C	0.146867	-0.886795	0.653493
C136	C	0.646867	-0.386795	1.153493
C137	C	0.149860	-0.882380	0.740685
C138	C	0.649860	-0.382380	1.240685
C139	C	0.077632	-0.989277	0.740693
C140	C	0.577632	-0.489277	1.240693
C141	C	0.074644	-0.993694	0.653505
C142	C	0.574644	-0.493694	1.153505
C143	C	0.109258	-0.942450	0.609909
C144	C	0.609258	-0.442450	1.109909
C145	C	0.139081	-0.898295	0.479366
C146	C	0.639081	-0.398295	0.979366
C147	C	0.106195	-0.946968	0.520791
C148	C	0.606195	-0.446968	1.020791
H149	H	-0.055999	-1.057282	0.000123
H150	H	0.444001	-0.557282	0.500123
Cl151	Cl	-0.000850	-0.725383	0.000092
Cl152	Cl	0.499150	-0.225383	0.500092
Cl153	Cl	0.027363	-1.063663	0.598707
Cl154	Cl	0.527363	-0.563663	1.098707
H155	H	-0.710801	-1.046535	0.000060
H156	H	-0.210801	-0.546535	0.500060
Cl157	Cl	0.257436	-0.303871	0.000041
Cl158	Cl	0.757436	0.196129	0.500041
H159	H	0.224472	-0.142240	0.000066
H160	H	0.724472	0.357760	0.500066
Cl161	Cl	0.197146	-0.812408	0.795477
Cl162	Cl	0.697146	-0.312408	1.295477
Cl163	Cl	0.190383	-0.822378	0.598693
Cl164	Cl	0.690383	-0.322378	1.098693
Cl165	Cl	-0.178480	-1.086864	0.000099
Cl166	Cl	0.321520	-0.586864	0.500099
H167	H	0.075571	-0.992280	0.485298
H168	H	0.575571	-0.492280	0.985298
Cl169	Cl	-0.321116	-1.155828	0.000081
Cl170	Cl	0.178884	-0.655828	0.500081
Cl171	Cl	-0.591252	-1.080088	0.000077
Cl172	Cl	-0.091252	-0.580088	0.500077
Cl173	Cl	-0.576229	-0.758415	0.000030
Cl174	Cl	-0.076229	-0.258415	0.500030
Cl175	Cl	0.014051	-0.163770	0.000140
Cl176	Cl	0.514051	0.336230	0.500140
Cl177	Cl	0.025352	-0.347748	0.000117
Cl178	Cl	0.525352	0.152252	0.500117
Cl179	Cl	0.231232	-0.681491	0.000020
Cl180	Cl	0.731232	-0.181491	0.500020
H181	H	-0.698708	-0.787989	0.000045
H182	H	-0.198708	-0.287989	0.500045
Cl183	Cl	-0.455277	-1.153625	0.000087
Cl184	Cl	0.044723	-0.653625	0.500087
H185	H	0.169705	-0.852981	0.514864
H186	H	0.669705	-0.352981	1.014864
H187	H	-0.421898	-0.721225	0.000008
H188	H	0.078102	-0.221225	0.500008
H189	H	0.011727	-0.555138	0.000108
H190	H	0.511727	-0.055138	0.500108
H191	H	0.189766	-0.423926	0.000069
H192	H	0.689766	0.076074	0.500069
H193	H	0.055516	-0.421332	0.000119
H194	H	0.555516	0.078668	0.500119
Cl195	Cl	0.048141	-1.032868	0.204680
Cl196	Cl	0.548141	-0.532868	0.704680
Cl197	Cl	0.219928	-0.497516	0.000041
Cl198	Cl	0.719928	0.002484	0.500041
H199	H	-0.314056	-0.723001	0.000013
H200	H	0.185944	-0.223001	0.500013
Cl201	Cl	-0.163468	-0.765189	0.000078
Cl202	Cl	0.336532	-0.265189	0.500078
Cl203	Cl	0.054894	-1.022882	0.401466
Cl204	Cl	0.554894	-0.522882	0.901466
H205	H	-0.043915	-0.798739	0.000087
H206	H	0.456085	-0.298739	0.500087
H207	H	0.049450	-1.030996	0.776196
H208	H	0.549450	-0.530996	1.276196
Cl209	Cl	0.217917	-0.781603	0.401439
Cl210	Cl	0.717917	-0.281603	0.901439
Cl211	Cl	0.211161	-0.791577	0.204650
Cl212	Cl	0.711161	-0.291577	0.704650
