data_functionalizedCrystal
_audit_creation_method	'MofGen! by Chris Wilmer'
_symmetry_space_group_name_H-M	'P1'
_symmetry_Int_Tables_number	1
_symmetry_cell_setting	triclinic
loop_
_symmetry_equiv_pos_as_xyz
  x,y,z
_cell_length_a	17.019282
_cell_length_b	23.532407
_cell_length_c	22.610064
_cell_angle_alpha	90.000603
_cell_angle_beta	86.126997
_cell_angle_gamma	83.119776
loop_
_atom_site_label
_atom_site_type_symbol
_atom_site_fract_x
_atom_site_fract_y
_atom_site_fract_z
O1	O	1.046112	0.072516	-0.004110
O2	O	1.546112	0.572516	0.495890
O3	O	0.816375	0.081775	0.007597
O4	O	1.316375	0.581775	0.507597
O5	O	0.938172	-0.005764	0.001380
O6	O	1.438172	0.494236	0.501380
O7	O	0.924316	0.160055	0.002108
O8	O	1.424316	0.660055	0.502108
O9	O	0.938150	-0.005751	-0.096988
O10	O	1.438150	0.494249	0.403012
O11	O	0.816354	0.081788	-0.090771
O12	O	1.316354	0.581788	0.409229
O13	O	1.046091	0.072529	-0.102478
O14	O	1.546091	0.572529	0.397522
Zn15	Zn	0.931219	0.077160	-0.112242
Zn16	Zn	1.431219	0.577160	0.387758
Zn17	Zn	0.931247	0.077143	0.017362
Zn18	Zn	1.431247	0.577143	0.517362
O19	O	0.924295	0.160067	-0.096261
O20	O	1.424295	0.660067	0.403739
C21	C	0.786978	0.081431	-0.040089
C22	C	1.286978	0.581431	0.459911
C23	C	0.699417	0.080382	-0.035628
C24	C	1.199417	0.580382	0.464372
C25	C	0.658273	0.079894	-0.087153
C26	C	1.158273	0.579894	0.412847
C27	C	0.576002	0.078899	-0.082963
C28	C	1.076002	0.578899	0.417037
C29	C	0.534874	0.078396	-0.027246
C30	C	1.034874	0.578396	0.472754
C31	C	0.576024	0.078881	0.024283
C32	C	1.076024	0.578881	0.524283
C33	C	0.658295	0.079873	0.020092
C34	C	1.158295	0.579873	0.520092
C35	C	0.286470	0.075399	-0.011909
C36	C	0.786470	0.575399	0.488091
C37	C	0.204193	0.074409	-0.007722
C38	C	0.704193	0.574409	0.492278
C39	C	0.204176	0.074426	-0.114969
C40	C	0.704176	0.574426	0.385031
C41	C	0.286448	0.075421	-0.119155
C42	C	0.786448	0.575421	0.380845
C43	C	0.327591	0.075903	-0.067626
C44	C	0.827591	0.575903	0.432374
C45	C	0.450779	0.077380	-0.022962
C46	C	0.950779	0.577380	0.477038
C47	C	0.411686	0.076915	-0.071911
C48	C	0.911686	0.576915	0.428089
C49	C	0.937808	-0.026975	-0.047788
C50	C	1.437808	0.473025	0.452212
C51	C	0.936747	-0.090195	-0.047738
C52	C	1.436747	0.409805	0.452262
C53	C	1.002170	-0.489086	-0.051040
C54	C	1.502170	0.010914	0.448960
C55	C	1.001185	-0.548490	-0.050985
C56	C	1.501185	-0.048490	0.449015
O57	O	1.061832	-0.585038	-0.054054
O58	O	1.561832	-0.085038	0.445946
N59	N	0.928777	-0.571350	-0.047296
N60	N	1.428777	-0.071350	0.452704
C61	C	0.857350	-0.534804	-0.043655
C62	C	1.357350	-0.034804	0.456345
O63	O	0.795671	-0.559704	-0.040511
O64	O	1.295671	-0.059704	0.459489
C65	C	0.858336	-0.475402	-0.043705
C66	C	1.358336	0.024598	0.456295
C67	C	0.930749	-0.452545	-0.047401
C68	C	1.430749	0.047455	0.452599
C69	C	1.074576	-0.466228	-0.054735
C70	C	1.574576	0.033772	0.445265
C71	C	1.075562	-0.406829	-0.054790
C72	C	1.575562	0.093171	0.445210
C73	C	1.004140	-0.370287	-0.051151
C74	C	1.504140	0.129713	0.448849
C75	C	0.931734	-0.393145	-0.047457
C76	C	1.431734	0.106855	0.452543
C77	C	0.786910	-0.438857	-0.040060
C78	C	1.286910	0.061143	0.459940
C79	C	0.787903	-0.379451	-0.040110
C80	C	1.287903	0.120549	0.459890
C81	C	0.860315	-0.356594	-0.043806
C82	C	1.360315	0.143406	0.456194
C83	C	0.861297	-0.297204	-0.043874
C84	C	1.361297	0.202796	0.456126
N85	N	0.933705	-0.274344	-0.047563
N86	N	1.433705	0.225656	0.452437
C87	C	1.005126	-0.310885	-0.051202
C88	C	1.505126	0.189115	0.448798
C89	C	0.855284	-0.659553	-0.043548
C90	C	1.355284	-0.159553	0.456452
C91	C	0.854297	-0.718954	-0.043501
C92	C	1.354297	-0.218954	0.456499
C93	C	0.998132	-0.732636	-0.050831
C94	C	1.498132	-0.232636	0.449169
C95	C	0.999118	-0.673234	-0.050881
C96	C	1.499118	-0.173234	0.449119
C97	C	0.927692	-0.636693	-0.047237
C98	C	1.427692	-0.136693	0.452763
C99	C	1.007190	-0.186142	-0.051319
C100	C	1.507190	0.313858	0.448681
C101	C	1.008169	-0.126737	-0.051377
C102	C	1.508169	0.373263	0.448623
C103	C	0.864334	-0.113060	-0.044045
C104	C	1.364334	0.386940	0.455955
C105	C	0.863355	-0.172460	-0.043990
C106	C	1.363355	0.327540	0.456010
C107	C	0.934789	-0.209000	-0.047626
C108	C	1.434789	0.291000	0.452374
O109	O	0.800682	-0.260622	-0.040804
O110	O	1.300682	0.239378	0.459196
O111	O	1.066795	-0.285978	-0.054337
O112	O	1.566795	0.214022	0.445663
C113	C	1.075488	0.072872	-0.054790
C114	C	1.575488	0.572872	0.445210
C115	C	1.163049	0.073922	-0.059248
C116	C	1.663049	0.573922	0.440752
C117	C	0.924658	0.181278	-0.047092
C118	C	1.424658	0.681278	0.452908
C119	C	0.925719	0.244499	-0.047137
C120	C	1.425719	0.744499	0.452863
N121	N	0.931205	0.077171	-0.200694
N122	N	1.431205	0.577171	0.299306
C123	C	0.985181	0.038387	-0.612091
C124	C	1.485181	0.538387	-0.112091
C125	C	0.985185	0.038383	-0.674011
C126	C	1.485185	0.538383	-0.174011
O127	O	1.031043	0.005416	-0.708371
O128	O	1.531043	0.505416	-0.208371
N129	N	0.931247	0.077132	-0.702234
N130	N	1.431247	0.577132	-0.202234
C131	C	0.877295	0.115883	-0.668532
C132	C	1.377295	0.615883	-0.168532
O133	O	0.831417	0.148841	-0.698223
O134	O	1.331417	0.648841	-0.198223
C135	C	0.877288	0.115884	-0.606613
C136	C	1.377288	0.615884	-0.106613
C137	C	0.931235	0.077137	-0.578394
C138	C	1.431235	0.577137	-0.078394
C139	C	1.039123	-0.000357	-0.583872
C140	C	1.539123	0.499643	-0.083872
C141	C	1.039120	-0.000352	-0.521956
C142	C	1.539120	0.499648	-0.021956
C143	C	0.985174	0.038397	-0.488259
C144	C	1.485174	0.538397	0.011741
C145	C	0.931232	0.077142	-0.516478
C146	C	1.431232	0.577142	-0.016478
C147	C	0.823334	0.154632	-0.572913
C148	C	1.323334	0.654632	-0.072913
C149	C	0.823331	0.154629	-0.510989
C150	C	1.323331	0.654629	-0.010989
C151	C	0.877278	0.115882	-0.482771
C152	C	1.377278	0.615882	0.017229
C153	C	0.877283	0.115896	-0.420866
C154	C	1.377283	0.615896	0.079134
N155	N	0.931222	0.077148	-0.392643
N156	N	1.431222	0.577148	0.107357
C157	C	0.985167	0.038398	-0.426340
C158	C	1.485167	0.538398	0.073660
C159	C	0.877314	0.115877	-0.798567
C160	C	1.377314	0.615877	-0.298567
C161	C	0.877324	0.115880	-0.860485
C162	C	1.377324	0.615880	-0.360485
C163	C	0.985213	0.038379	-0.865960
C164	C	1.485213	0.538379	-0.365960
C165	C	0.985206	0.038380	-0.804040
C166	C	1.485206	0.538380	-0.304040
C167	C	0.931252	0.077129	-0.770344
C168	C	1.431252	0.577129	-0.270344
C169	C	0.985157	0.038412	-0.296312
C170	C	1.485157	0.538412	0.203688
C171	C	0.985151	0.038422	-0.234391
C172	C	1.485151	0.538422	0.265609
C173	C	0.877260	0.115920	-0.228922
C174	C	1.377260	0.615920	0.271078
C175	C	0.877268	0.115913	-0.290838
C176	C	1.377268	0.615913	0.209162
C177	C	0.931219	0.077154	-0.324532
C178	C	1.431219	0.577154	0.175468
O179	O	0.831446	0.148845	-0.386468
O180	O	1.331446	0.648845	0.113532
O181	O	1.031031	0.005441	-0.396641
O182	O	1.531031	0.505441	0.103359
N183	N	0.931267	0.077128	0.105813
N184	N	1.431267	0.577128	0.605813
H185	H	0.542532	0.078467	0.069649
H186	H	1.042532	0.578467	0.569649
H187	H	0.804391	-0.191071	-0.040997
H188	H	1.304391	0.308929	0.459003
C189	C	1.155222	-0.381695	-0.058850
C190	C	1.655222	0.118305	0.441150
N191	N	1.215226	-0.362767	-0.061905
N192	N	1.715226	0.137233	0.438095
H193	H	1.029088	0.006850	-0.323739
H194	H	1.529088	0.506850	0.176261
H195	H	0.417284	0.076970	0.022403
H196	H	0.917284	0.576970	0.522403
C197	C	1.076697	-0.772843	-0.054828
C198	C	1.576697	-0.272843	0.445172
N199	N	1.135869	-0.803129	-0.057837
N200	N	1.635869	-0.303129	0.442163
C201	C	0.763984	0.197263	-0.473928
C202	C	1.263984	0.697263	0.026072
N203	N	0.719289	0.229378	-0.446014
N204	N	1.219289	0.729378	0.053986
H205	H	0.691793	0.080271	0.062050
H206	H	1.191793	0.580271	0.562050
C207	C	0.709326	-0.339259	-0.036104
C208	C	1.209326	0.160741	0.463896
N209	N	0.650141	-0.308987	-0.033088
N210	N	1.150141	0.191013	0.466912
H211	H	0.806185	-0.083298	-0.041084
H212	H	1.306185	0.416702	0.458916
H213	H	1.067138	-0.108130	-0.054388
H214	H	1.567138	0.391870	0.445612
C215	C	0.817928	0.158540	-0.321879
C216	C	1.317928	0.658540	0.178121
N217	N	0.773227	0.190643	-0.345256
N218	N	1.273227	0.690643	0.154744
H219	H	1.083052	-0.031914	-0.611303
H220	H	1.583052	0.468086	-0.111303
H221	H	0.727944	-0.457456	-0.037047
H222	H	1.227944	0.042544	0.462953
C223	C	1.044496	-0.004207	-0.203354
C224	C	1.544496	0.495793	0.296646
N225	N	1.089193	-0.036315	-0.179979
N226	N	1.589193	0.463685	0.320021
C227	C	1.098458	-0.042984	-0.490924
C228	C	1.598458	0.457016	0.009076
N229	N	1.143151	-0.075099	-0.467554
N230	N	1.643151	0.424901	0.032446
C231	C	1.085771	-0.226327	-0.055324
C232	C	1.585771	0.273673	0.444676
N233	N	1.144959	-0.256595	-0.058345
N234	N	1.644959	0.243405	0.441655
H235	H	0.795332	-0.737559	-0.040502
H236	H	1.295332	-0.237559	0.459498
H237	H	1.029133	0.006828	-0.781069
H238	H	1.529133	0.506828	-0.281069
H239	H	1.029137	0.006826	-0.893407
H240	H	1.529137	0.506826	-0.393407
C241	C	0.817983	0.158508	-0.891518
C242	C	1.317983	0.658508	-0.391518
N243	N	0.773282	0.190615	-0.914891
N244	N	1.273282	0.690615	-0.414891
H245	H	0.833380	0.147436	-0.771134
H246	H	1.333380	0.647436	-0.271134
C247	C	1.153153	-0.506416	-0.058744
C248	C	1.653153	-0.006416	0.441256
N249	N	1.212342	-0.536682	-0.061771
N250	N	1.712342	-0.036682	0.438229
H251	H	0.170669	0.074032	-0.156921
H252	H	0.670669	0.574032	0.343079
C253	C	0.763981	0.197253	-0.603939
C254	C	1.263981	0.697253	-0.103939
N255	N	0.719269	0.229357	-0.627306
N256	N	1.219269	0.729357	-0.127306
C257	C	1.078777	-0.648097	-0.054942
C258	C	1.578777	-0.148097	0.445058
N259	N	1.138779	-0.629167	-0.057998
N260	N	1.638779	-0.129167	0.442002
C261	C	0.776704	-0.619363	-0.039546
C262	C	1.276704	-0.119363	0.460454
N263	N	0.717517	-0.589094	-0.036532
N264	N	1.217517	-0.089094	0.463468
C265	C	0.817920	0.158541	-0.191843
C266	C	1.317920	0.658541	0.308157
N267	N	0.773220	0.190640	-0.163914
N268	N	1.273220	0.690640	0.336086
H269	H	0.691752	0.080309	-0.132524
H270	H	1.191752	0.580309	0.367476
H271	H	0.170709	0.074001	0.037651
H272	H	0.670709	0.574001	0.537651
C273	C	0.331683	0.075972	-0.180448
C274	C	0.831683	0.575972	0.319552
N275	N	0.365754	0.076387	-0.226615
N276	N	0.865754	0.576387	0.273385
C277	C	0.530745	0.078376	-0.139646
C278	C	1.030745	0.578376	0.360354
N279	N	0.496657	0.077986	-0.182342
N280	N	0.996657	0.577986	0.317658
H281	H	0.319959	0.075790	0.030050
H282	H	0.819959	0.575790	0.530050
H283	H	0.445176	0.077322	-0.117275
H284	H	0.945176	0.577322	0.382725
