data_functionalizedCrystal
_audit_creation_method	'MofGen! by Chris Wilmer'
_symmetry_space_group_name_H-M	'P1'
_symmetry_Int_Tables_number	1
_symmetry_cell_setting	triclinic
loop_
_symmetry_equiv_pos_as_xyz
  x,y,z
_cell_length_a	23.096457
_cell_length_b	19.379189
_cell_length_c	23.096457
_cell_angle_alpha	52.485349
_cell_angle_beta	89.999736
_cell_angle_gamma	52.462468
loop_
_atom_site_label
_atom_site_type_symbol
_atom_site_fract_x
_atom_site_fract_y
_atom_site_fract_z
Zr1	Zr	0.337035	1.051626	-0.296460
O2	O	0.202516	1.252056	-0.430923
O3	O	0.407445	0.851195	-0.226103
O4	O	0.365373	1.051627	-0.388911
O5	O	0.244590	1.051623	-0.172834
O6	O	0.460653	1.051630	-0.388915
O7	O	0.244588	1.051623	-0.268115
O8	O	0.535912	0.693093	-0.097681
O9	O	0.169331	1.410160	-0.464068
O10	O	0.473335	0.933637	-0.231302
O11	O	0.402231	0.933635	-0.160191
O12	O	0.352696	1.169619	-0.351877
O13	O	0.281592	1.169616	-0.280766
Zr14	Zr	0.488999	1.051629	-0.144504
Zr15	Zr	0.488996	1.051630	-0.296467
Zr16	Zr	0.337039	1.051625	-0.144497
Zr17	Zr	0.284109	1.303784	-0.349321
Zr18	Zr	0.541925	0.799471	-0.091642
O19	O	0.418589	1.252061	-0.214861
O20	O	0.418584	1.252062	-0.430932
O21	O	0.202521	1.252055	-0.214852
O22	O	0.623519	0.851200	-0.010040
O23	O	0.623513	0.851201	-0.226112
O24	O	0.407451	0.851194	-0.010031
O25	O	0.581444	1.051633	-0.268130
O26	O	0.460662	1.051628	-0.052053
O27	O	0.365382	1.051626	-0.052049
O28	O	0.581447	1.051632	-0.172848
O29	O	0.290119	1.410163	-0.464073
O30	O	0.535915	0.693092	0.023109
O31	O	0.656704	0.693095	0.023104
O32	O	0.656700	0.693096	-0.097686
O33	O	0.169334	1.410159	-0.343277
O34	O	0.290122	1.410163	-0.343283
O35	O	0.473339	0.933637	-0.089087
O36	O	0.544443	0.933639	-0.160197
O37	O	0.423804	1.169620	-0.280772
O38	O	0.352700	1.169618	-0.209662
C39	C	0.479220	0.736216	-0.154360
C40	C	0.501688	0.629169	-0.131919
C41	C	0.221869	0.712109	-0.411534
C42	C	0.243025	0.611436	-0.390352
C43	C	0.384543	0.437361	-0.248884
C44	C	0.363397	0.538021	-0.270051
C45	C	0.282059	0.675390	-0.351378
C46	C	0.423587	0.501302	-0.209896
C47	C	0.402445	0.601954	-0.231064
C48	C	0.321112	0.739324	-0.312389
C49	C	0.260917	0.776042	-0.372547
C50	C	0.504928	0.363932	-0.128572
C51	C	0.565118	0.327214	-0.068417
C52	C	0.543973	0.427866	-0.089582
C53	C	0.462640	0.565236	-0.170906
C54	C	0.604169	0.391148	-0.029424
C55	C	0.583026	0.491799	-0.050593
C56	C	0.441498	0.665887	-0.192075
C57	C	0.222938	1.051622	-0.220474
C58	C	0.158427	1.051621	-0.220471
C59	C	0.191093	0.928445	-0.157540
C60	C	0.130478	0.928443	-0.157536
C61	C	0.037196	1.051624	-0.220479
C62	C	0.004529	1.174816	-0.283416
C63	C	0.065145	1.174814	-0.283412
N64	N	-0.104847	1.143314	-0.300112
N65	N	-0.162425	1.143307	-0.300113
C66	C	-0.145440	1.051636	-0.220495
N67	N	-0.068691	0.959951	-0.140872
N68	N	-0.011105	0.959954	-0.140872
C69	C	-0.028539	1.051639	-0.220491
C70	C	-0.178495	0.928449	-0.157554
C71	C	-0.239114	0.928452	-0.157550
C72	C	-0.365063	1.174829	-0.283437
C73	C	-0.304444	1.174823	-0.283434
C74	C	-0.211162	1.051629	-0.220493
C75	C	0.603097	1.051633	-0.220490
C76	C	0.667608	1.051635	-0.220493
C77	C	0.413012	1.051628	-0.410564
C78	C	0.413011	1.051629	-0.475076
C79	C	0.346815	1.367039	-0.286603
C80	C	0.324347	1.474087	-0.309044
C81	C	0.360525	1.051641	-0.935593
C82	C	0.360527	1.051632	-0.874972
C83	C	0.413017	1.051635	-0.844662
C84	C	0.465526	1.051612	-0.874960
C85	C	0.465530	1.051608	-0.935573
N86	N	0.412763	1.128556	-0.788794
N87	N	0.412755	1.128563	-0.731216
C88	C	0.413010	1.051644	-0.662037
N89	N	0.413257	0.974735	-0.652621
N90	N	0.413261	0.974734	-0.710207
C91	C	0.413019	1.051638	-0.778937
C92	C	0.360511	1.051646	-0.566010
C93	C	0.360519	1.051628	-0.505383
C94	C	0.465513	1.051622	-0.505380
C95	C	0.465510	1.051627	-0.565998
C96	C	0.413004	1.051645	-0.596312
C97	C	0.413022	1.051627	-0.030400
C98	C	0.413024	1.051627	0.034113
C99	C	0.669299	0.736222	-0.154369
C100	C	0.756278	0.629176	-0.131930
C101	C	0.479224	0.736216	0.035722
C102	C	0.501695	0.629168	0.122675
C103	C	0.669304	0.736221	0.035714
C104	C	0.756285	0.629175	0.122664
C105	C	0.156731	1.367034	-0.476678
C106	C	0.069750	1.474081	-0.563628
C107	C	0.156736	1.367034	-0.286595
C108	C	0.069756	1.474079	-0.309034
C109	C	0.346810	1.367040	-0.476686
C110	C	0.324340	1.474088	-0.563639
C111	C	0.760007	0.578905	-0.158515
C112	C	0.841725	0.478338	-0.137449
C113	C	0.919714	0.428037	-0.089793
C114	C	0.915982	0.478318	-0.063209
C115	C	0.834264	0.578890	-0.084280
C116	C	0.549364	0.578898	0.200631
C117	C	0.570472	0.478329	0.282336
C118	C	0.543914	0.428025	0.286084
C119	C	0.496238	0.478305	0.208118
C120	C	0.475125	0.578879	0.126414
C121	C	0.834254	0.578906	0.126378
C122	C	0.915985	0.478339	0.208069
C123	C	0.919746	0.428035	0.286046
C124	C	0.841768	0.478314	0.282328
C125	C	0.760037	0.578886	0.200637
C126	C	-0.008222	1.524362	-0.567345
C127	C	-0.089960	1.624960	-0.649042
C128	C	-0.093722	1.675269	-0.727020
C129	C	-0.015742	1.624984	-0.723301
C130	C	0.065992	1.524394	-0.641606
C131	C	0.066025	1.524361	-0.282457
C132	C	-0.015698	1.624956	-0.303546
C133	C	-0.093688	1.675260	-0.351205
C134	C	-0.089955	1.624975	-0.377785
C135	C	-0.008234	1.524389	-0.356702
C136	C	0.350912	1.524360	-0.567357
C137	C	0.329815	1.624929	-0.649050
C138	C	0.282142	1.675232	-0.727026
C139	C	0.255571	1.624950	-0.723304
C140	C	0.276673	1.524375	-0.641610
H141	H	0.155621	0.823967	-0.477743
Cl142	Cl	0.486793	0.264667	-0.146649
Cl143	Cl	-0.196481	1.801724	-0.829715
Cl144	Cl	1.022502	0.301597	0.388738
H145	H	0.831241	0.619807	-0.062624
H146	H	-0.005207	1.483453	-0.378344
Cl147	Cl	-0.020485	1.688238	-0.821338
H148	H	-0.018720	1.665881	-0.281894
H149	H	0.631345	0.215358	-0.002203
Cl150	Cl	0.167351	0.657610	-0.465989
Cl151	Cl	0.661974	0.642126	-0.218432
Cl152	Cl	1.014036	0.415061	-0.003293
Cl153	Cl	0.363220	1.688128	-0.653710
H154	H	0.844747	0.437412	-0.159101
H155	H	0.216753	1.665922	-0.786802
Cl156	Cl	0.415201	0.642055	0.028419
H157	H	0.317760	1.051655	-0.590689
H158	H	-0.153466	1.665949	-0.416592
Cl159	Cl	0.829547	0.642133	0.028360
H160	H	0.979471	0.437412	0.211080
Cl161	Cl	0.582764	0.642112	0.195944
Cl162	Cl	0.630411	0.415136	0.380337
H163	H	0.522150	0.281981	-0.111351
Cl164	Cl	0.024074	1.329678	-0.362533
H165	H	0.561111	0.346131	0.352618
Cl166	Cl	0.462859	0.415048	0.212846
Cl167	Cl	0.308359	0.773572	-0.078410
Cl168	Cl	0.846511	0.415059	0.380365
H169	H	0.129478	1.483456	-0.638589
H170	H	0.129521	1.483410	-0.243645
H171	H	-0.441014	1.275126	-0.334687
Cl172	Cl	0.662025	0.642061	0.195985
Cl173	Cl	-0.196417	1.801710	-0.377700
H174	H	0.264965	1.757127	-0.793540
H175	H	0.194668	0.887900	-0.438756
H176	H	0.255029	1.483455	-0.638595
H177	H	0.670397	0.279291	0.036787
Cl178	Cl	-0.003516	1.461137	-0.469327
Cl179	Cl	-0.187977	1.688150	-0.653695
Cl180	Cl	0.531533	1.051592	-0.973662
H181	H	0.389729	1.483419	-0.503875
H182	H	0.303901	0.821277	-0.329624
Cl183	Cl	0.339238	0.838588	-0.294312
Cl184	Cl	1.022441	0.301599	-0.063307
H185	H	0.157079	0.828135	-0.106289
Cl186	Cl	0.658698	0.445642	0.025029
H187	H	-0.071425	1.275111	-0.334664
Cl188	Cl	0.294524	1.051654	-0.973697
Cl189	Cl	-0.061225	0.773581	-0.078427
H190	H	-0.212507	0.828144	-0.106298
H191	H	0.508255	1.051617	-0.480698
Cl192	Cl	0.294522	1.051652	-0.836881
Cl193	Cl	-0.345512	1.329682	-0.362556
H194	H	0.508266	1.051611	-0.850277
H195	H	0.317772	1.051632	-0.480712
H196	H	0.508256	1.051623	-0.590670
