data_functionalizedCrystal
_audit_creation_method	'MofGen! by Chris Wilmer'
_symmetry_space_group_name_H-M	'P1'
_symmetry_Int_Tables_number	1
_symmetry_cell_setting	triclinic
loop_
_symmetry_equiv_pos_as_xyz
  x,y,z
_cell_length_a	15.944545
_cell_length_b	15.944493
_cell_length_c	14.421503
_cell_angle_alpha	90.002926
_cell_angle_beta	90.002446
_cell_angle_gamma	83.485608
loop_
_atom_site_label
_atom_site_type_symbol
_atom_site_fract_x
_atom_site_fract_y
_atom_site_fract_z
O1	O	1.114505	0.108315	0.077039
O2	O	0.869952	0.121677	0.077053
O3	O	0.998932	-0.007282	0.077053
O4	O	0.985525	0.237274	0.077039
O5	O	0.998920	-0.007296	-0.077170
O6	O	0.869940	0.121663	-0.077171
O7	O	1.114493	0.108301	-0.077184
Cu8	Cu	0.992216	0.114981	-0.091259
Cu9	Cu	0.992230	0.114997	0.091128
O10	O	0.985513	0.237260	-0.077185
C11	C	0.838652	0.121116	-0.000057
C12	C	0.745406	0.119456	-0.000051
C13	C	0.474791	0.034560	-0.000056
C14	C	0.525359	0.075483	-0.076101
C15	C	0.409764	0.113535	-0.000067
C16	C	0.525351	0.075518	0.075951
C17	C	0.574677	0.116440	-0.000057
C18	C	0.459103	0.154437	-0.076174
C19	C	0.459092	0.154460	0.075946
C20	C	0.509626	0.195442	-0.000117
C21	C	0.314762	0.111859	-0.000073
C22	C	0.669676	0.118122	-0.000058
C23	C	0.998378	-0.038584	-0.000054
C24	C	0.996735	-0.131833	-0.000042
C25	C	1.072656	-0.367594	-0.000064
C26	C	1.031721	-0.418155	0.075978
C27	C	0.993691	-0.302554	-0.000054
C28	C	1.031691	-0.418144	-0.076074
C29	C	0.990757	-0.467463	-0.000068
C30	C	0.952777	-0.351886	0.076051
C31	C	0.952759	-0.351872	-0.076069
C32	C	0.911766	-0.402400	-0.000009
C33	C	0.995384	-0.207554	-0.000044
C34	C	0.989058	-0.562460	-0.000071
C35	C	1.145793	0.108862	-0.000072
C36	C	1.239039	0.110522	-0.000072
C37	C	0.986067	0.268562	-0.000075
C38	C	0.987710	0.361811	-0.000081
N39	N	0.992212	0.114969	-0.219540
C40	C	1.051405	0.054863	-0.530969
C41	C	1.068377	0.130536	-0.469138
C42	C	0.992231	0.114993	-0.591429
C43	C	0.975290	0.039311	-0.469166
C44	C	0.992224	0.114977	-0.408708
C45	C	1.009240	0.190703	-0.530960
C46	C	0.916120	0.099429	-0.530993
C47	C	0.933060	0.175156	-0.469190
C48	C	0.992237	0.115001	-0.696690
C49	C	0.992217	0.114978	-0.303449
N50	N	0.992240	0.115002	0.219409
H51	H	0.430281	0.187760	-0.140533
C52	C	1.119051	-0.013740	-0.567624
H53	H	1.173095	-0.002543	-0.546443
H54	H	1.107551	-0.067394	-0.545559
H55	H	1.118251	-0.013589	-0.633492
H56	H	0.883012	0.226054	-0.442236
C57	C	0.955928	-0.047137	-0.432494
H58	H	0.905871	-0.040041	-0.396251
H59	H	0.948342	-0.083471	-0.483273
H60	H	1.001631	-0.071228	-0.395317
H61	H	0.525104	0.263508	-0.000166
C62	C	1.076775	-0.457260	0.162816
H63	H	1.133904	-0.445616	0.162722
H64	H	1.049292	-0.433691	0.216817
H65	H	1.074941	-0.516605	0.162467
H66	H	0.430143	0.187790	0.140234
H67	H	1.132739	0.143699	-0.441969
H68	H	0.554280	0.042157	0.140237
H69	H	0.843695	-0.417864	0.000037
C70	C	1.028699	0.277176	-0.567462
H71	H	1.036789	0.313266	-0.516602
H72	H	1.078491	0.270025	-0.604127
H73	H	0.982809	0.301591	-0.604169
C74	C	0.453654	-0.057315	-0.000149
H75	H	0.476462	-0.085256	-0.054244
H76	H	0.477327	-0.085635	0.053323
H77	H	0.394123	-0.057731	0.000397
H78	H	1.140674	-0.351967	0.000009
H79	H	0.919453	-0.323060	0.140407
C80	C	0.829203	0.081614	-0.567735
H81	H	0.817253	0.027794	-0.546616
H82	H	0.787050	0.123771	-0.545663
H83	H	0.829693	0.082262	-0.633602
C84	C	0.907746	-0.312747	-0.162914
H85	H	0.935891	-0.335546	-0.216895
H86	H	0.850903	-0.325265	-0.163459
H87	H	0.908692	-0.253286	-0.161977
C88	C	1.076749	-0.457227	-0.162921
H89	H	1.133872	-0.445566	-0.162823
H90	H	1.074919	-0.516569	-0.162603
H91	H	1.049261	-0.433642	-0.216918
H92	H	0.554291	0.042124	-0.140387
