data_functionalizedCrystal
_audit_creation_method	'MofGen! by Chris Wilmer'
_symmetry_space_group_name_H-M	'P1'
_symmetry_Int_Tables_number	1
_symmetry_cell_setting	triclinic
loop_
_symmetry_equiv_pos_as_xyz
  x,y,z
_cell_length_a	18.050589
_cell_length_b	18.050591
_cell_length_c	16.959447
_cell_angle_alpha	89.988920
_cell_angle_beta	89.973357
_cell_angle_gamma	90.027061
loop_
_atom_site_label
_atom_site_type_symbol
_atom_site_fract_x
_atom_site_fract_y
_atom_site_fract_z
Zn1	Zn	-0.295668	1.135296	-0.446861
Zn2	Zn	-0.419869	1.135206	-0.314690
Zn3	Zn	-0.295695	1.011114	-0.314705
Zn4	Zn	-0.419818	1.011064	-0.446837
O5	O	-0.357763	1.073170	-0.380773
O6	O	-0.312153	1.239209	-0.429332
O7	O	-0.403430	1.118728	-0.204082
O8	O	-0.191767	1.027647	-0.332252
O9	O	-0.403404	1.239143	-0.332227
O10	O	-0.191747	1.118883	-0.429346
O11	O	-0.312200	1.027559	-0.204093
O12	O	-0.312150	0.907183	-0.332229
O13	O	-0.403316	1.027560	-0.557451
O14	O	-0.403343	0.907146	-0.429305
O15	O	-0.312104	1.118833	-0.557468
O16	O	-0.523787	1.118679	-0.332204
O17	O	-0.523749	1.027472	-0.429291
C18	C	-0.357744	0.880218	-0.380767
C19	C	-0.357755	0.797672	-0.380783
C20	C	-0.407448	0.548848	-0.433501
C21	C	-0.425529	0.598217	-0.361355
C22	C	-0.357778	0.500552	-0.380781
C23	C	-0.339720	0.598264	-0.452923
C24	C	-0.357768	0.646537	-0.380786
C25	C	-0.375894	0.548834	-0.308597
C26	C	-0.290054	0.548877	-0.400214
C27	C	-0.308109	0.598224	-0.328019
C28	C	-0.357785	0.416454	-0.380780
C29	C	-0.357761	0.730633	-0.380779
C30	C	-0.550715	1.073080	-0.380760
C31	C	-0.633261	1.073110	-0.380781
C32	C	-0.832718	1.023561	-0.433558
C33	C	-0.882161	1.005462	-0.361433
C34	C	-0.784391	1.073183	-0.380791
C35	C	-0.882029	1.091318	-0.452925
C36	C	-0.930376	1.073252	-0.380808
C37	C	-0.832747	1.055049	-0.308627
C38	C	-0.832611	1.140936	-0.400169
C39	C	-0.882032	1.122864	-0.327993
C40	C	-0.700293	1.073141	-0.380783
C41	C	-1.014472	1.073294	-0.380808
C42	C	-0.164057	1.073280	-0.380804
C43	C	-0.081511	1.073327	-0.380817
C44	C	-0.357701	1.073201	-0.586942
C45	C	-0.357675	1.073214	-0.674798
C46	C	-0.357781	1.266876	-0.380780
C47	C	-0.357789	1.349421	-0.380783
C48	C	-0.405087	1.025781	-1.046267
C49	C	-0.310106	1.120825	-1.046281
C50	C	-0.310122	1.120805	-0.963735
C51	C	-0.357622	1.073273	-0.922451
C52	C	-0.405106	1.025761	-0.963714
C53	C	-0.262645	1.168321	-0.922466
C54	C	-0.262659	1.168304	-0.839915
C55	C	-0.310155	1.120768	-0.798630
C56	C	-0.357640	1.073254	-0.839898
C57	C	-0.405140	1.025722	-0.798614
C58	C	-0.452622	0.978203	-0.839880
C59	C	-0.452602	0.978225	-0.922429
C60	C	-0.310175	1.120746	-0.716082
C61	C	-0.405159	1.025702	-0.716061
C62	C	-0.357770	1.073182	-0.175407
C63	C	-0.357587	1.073313	-0.087551
H64	H	-0.449488	0.527168	-0.478026
N65	N	-0.501379	0.626940	-0.339571
H66	H	-0.515399	0.608185	-0.285470
H67	H	-0.538822	0.608981	-0.379468
H68	H	-0.223978	1.207024	-0.956085
H69	H	-0.232802	0.527186	-0.416676
H70	H	-0.223996	1.206996	-0.806323
H71	H	-0.491262	0.939541	-0.956035
H72	H	-0.266101	0.619766	-0.283386
N73	N	-0.910991	0.929605	-0.339732
H74	H	-0.966939	0.930314	-0.339397
H75	H	-0.892240	0.915585	-0.285654
H76	H	-0.271439	1.159527	-1.079899
N77	N	-0.258976	1.171996	-0.671573
H78	H	-0.228886	1.202113	-0.710252
H79	H	-0.224608	1.141781	-0.637333
H80	H	-0.324451	0.619977	-0.513931
N81	N	-0.396213	0.520196	-0.227765
H82	H	-0.447196	0.538581	-0.212971
H83	H	-0.358899	0.538582	-0.187951
N84	N	-0.804031	0.967900	-0.492588
H85	H	-0.822059	0.916759	-0.477850
H86	H	-0.748084	0.968664	-0.492496
N87	N	-0.804200	1.034683	-0.227805
H88	H	-0.748248	1.034761	-0.228303
H89	H	-0.822717	0.983709	-0.213103
H90	H	-0.443743	0.987090	-1.079870
H91	H	-0.810831	1.198188	-0.416578
N92	N	-0.910535	1.178489	-0.268828
H93	H	-0.942094	1.152330	-0.228259
H94	H	-0.941259	1.217087	-0.296894
N95	N	-0.910712	1.111602	-0.533717
H96	H	-0.892774	1.074055	-0.573522
H97	H	-0.891909	1.162401	-0.548689
N98	N	-0.456379	0.974423	-0.671535
H99	H	-0.486450	0.944323	-0.710205
H100	H	-0.490764	1.004616	-0.637272
H101	H	-0.491299	0.939506	-0.806256
