data_functionalizedCrystal
_audit_creation_method	'MofGen! by Chris Wilmer'
_symmetry_space_group_name_H-M	'P1'
_symmetry_Int_Tables_number	1
_symmetry_cell_setting	triclinic
loop_
_symmetry_equiv_pos_as_xyz
  x,y,z
_cell_length_a	19.377625
_cell_length_b	19.376995
_cell_length_c	14.560438
_cell_angle_alpha	72.115483
_cell_angle_beta	75.509344
_cell_angle_gamma	44.200954
loop_
_atom_site_label
_atom_site_type_symbol
_atom_site_fract_x
_atom_site_fract_y
_atom_site_fract_z
Zr1	Zr	0.544066	0.780195	-0.117896
O2	O	0.403068	0.928910	-0.182566
O3	O	0.606138	0.631485	-0.128639
O4	O	0.578956	0.780195	-0.276162
O5	O	0.430251	0.780198	0.116098
O6	O	0.696259	0.780189	-0.315221
O7	O	0.430250	0.780200	-0.035043
O8	O	0.744883	0.514173	-0.051329
O9	O	0.381627	1.046213	-0.147794
O10	O	0.697380	0.692645	-0.125439
O11	O	0.609839	0.692648	0.016505
O12	O	0.577836	0.867735	-0.157185
O13	O	0.490295	0.867738	-0.015242
Zr14	Zr	0.731151	0.780182	0.060861
Zr15	Zr	0.731150	0.780185	-0.180190
Zr16	Zr	0.544067	0.780191	0.123155
Zr17	Zr	0.509870	0.967280	-0.062440
Zr18	Zr	0.765347	0.593097	0.005404
O19	O	0.669078	0.928892	0.071603
O20	O	0.669077	0.928897	-0.271140
O21	O	0.403069	0.928905	0.160178
O22	O	0.872149	0.631467	0.125530
O23	O	0.872148	0.631471	-0.217213
O24	O	0.606140	0.631480	0.214105
O25	O	0.844966	0.780179	-0.173133
O26	O	0.696261	0.780182	0.219127
O27	O	0.578958	0.780188	0.258185
O28	O	0.844967	0.780177	-0.021993
O29	O	0.530334	1.046206	-0.197310
O30	O	0.744883	0.514171	0.140275
O31	O	0.893590	0.514163	0.090759
O32	O	0.893589	0.514166	-0.100844
O33	O	0.381628	1.046210	0.043809
O34	O	0.530334	1.046203	-0.005707
O35	O	0.697381	0.692642	0.100150
O36	O	0.784922	0.692639	-0.041794
O37	O	0.665378	0.867729	-0.073540
O38	O	0.577837	0.867732	0.068403
C39	C	0.680383	0.546173	-0.097885
C40	C	0.694900	0.466751	-0.121428
C41	C	0.761055	0.354805	-0.228697
C42	C	0.747408	0.429435	-0.206567
C43	C	0.656022	0.429442	-0.058382
C44	C	0.669665	0.354807	-0.080498
C45	C	0.722182	0.317495	-0.165657
C46	C	0.630792	0.317497	-0.017457
C47	C	0.644430	0.242873	-0.039574
C48	C	0.696941	0.205558	-0.124731
C49	C	0.735820	0.242871	-0.187774
C50	C	0.578271	0.354816	0.067698
C51	C	0.539397	0.317506	0.130738
C52	C	0.553041	0.242875	0.108626
C53	C	0.605552	0.205560	0.023469
C54	C	0.514163	0.205562	0.171668
C55	C	0.527801	0.130937	0.149552
C56	C	0.619190	0.130935	0.001352
C57	C	0.403595	0.780200	0.049403
C58	C	0.324173	0.780204	0.075849
C59	C	0.062963	0.780183	-0.253446
C60	C	-0.011661	0.780178	-0.228565
C61	C	-0.011640	0.780176	-0.062047
C62	C	0.062982	0.780185	-0.086915
C63	C	0.100278	0.780187	-0.182616
C64	C	0.100297	0.780190	-0.016085
C65	C	0.174916	0.780194	-0.040951
C66	C	0.212220	0.780193	-0.136647
C67	C	0.174897	0.780191	-0.207482
C68	C	0.063005	0.780181	0.079616
C69	C	0.100320	0.780186	0.150446
C70	C	0.174935	0.780196	0.125580
C71	C	0.212239	0.780195	0.029884
C72	C	0.212258	0.780198	0.196415
C73	C	0.286877	0.780202	0.171550
C74	C	0.286858	0.780199	0.005019
C75	C	0.871622	0.780177	-0.106438
C76	C	0.951044	0.780173	-0.132884
C77	C	0.637608	0.780192	-0.330036
C78	C	0.637607	0.780194	-0.432368
C79	C	0.594834	1.014203	0.040850
C80	C	0.580317	1.093626	0.064392
C81	C	0.575203	0.871587	-0.497015
C82	C	0.575206	0.871582	-0.593166
C83	C	0.700021	0.688782	-0.560013
C84	C	0.700022	0.688788	-0.463865
C85	C	0.512788	0.962992	-0.465518
C86	C	0.450378	1.054393	-0.530166
C87	C	0.450382	1.054388	-0.626317
C88	C	0.512795	0.962983	-0.657820
C89	C	0.637609	0.780184	0.273001
C90	C	0.637610	0.780183	0.375333
C91	C	0.914396	0.546162	-0.175806
C92	C	1.008335	0.466735	-0.225794
C93	C	0.680384	0.546169	0.203633
C94	C	0.694901	0.466745	0.282423
C95	C	0.914397	0.546158	0.125712
C96	C	1.008336	0.466730	0.178057
C97	C	0.360820	1.014219	-0.182748
C98	C	0.266881	1.093647	-0.235092
C99	C	0.360821	1.014215	0.118770
C100	C	0.266882	1.093641	0.168759
C101	C	0.594833	1.014207	-0.260669
C102	C	0.580316	1.093631	-0.339458
C103	C	1.006754	0.429439	-0.292941
C104	C	1.095011	0.354819	-0.339927
C105	C	1.184849	0.317493	-0.319760
C106	C	1.186427	0.354797	-0.252609
C107	C	1.098170	0.429420	-0.205629
C108	C	0.747415	0.429444	0.363096
C109	C	0.761050	0.354827	0.437141
C110	C	0.722178	0.317508	0.430508
C111	C	0.669657	0.354817	0.349828
C112	C	0.656016	0.429437	0.275788
C113	C	1.098155	0.429428	0.128543
C114	C	1.186426	0.354808	0.177717
C115	C	1.184878	0.317485	0.276404
C116	C	1.095050	0.354794	0.325921
C117	C	1.006779	0.429418	0.276748
C118	C	0.177060	1.130957	-0.185575
C119	C	0.088785	1.205601	-0.234743
C120	C	0.090332	1.242928	-0.333429
C121	C	0.180162	1.205614	-0.382947
C122	C	0.268434	1.130977	-0.333778
C123	C	0.268461	1.130946	0.235898
C124	C	0.180201	1.205585	0.282864
C125	C	0.090363	1.242915	0.262694
C126	C	0.088785	1.205607	0.195546
C127	C	0.177044	1.130974	0.148577
C128	C	0.619202	1.130926	-0.332800
C129	C	0.605580	1.205544	-0.406830
C130	C	0.553066	1.242869	-0.487516
C131	C	0.514180	1.205566	-0.494174
C132	C	0.527808	1.130945	-0.420148
H133	H	0.708039	0.144798	-0.142739
H134	H	0.181410	1.236015	-0.463303
H135	H	0.181505	1.235949	0.337537
H136	H	0.733292	0.256748	0.490803
Cl137	Cl	0.381388	1.084038	0.261266
H138	H	0.803819	0.324459	0.502825
H139	H	0.661962	1.100548	-0.267107
H140	H	1.256706	0.256729	-0.358020
Cl141	Cl	0.801871	0.195934	-0.294817
Cl142	Cl	0.512808	0.962980	-0.778702
Cl143	Cl	0.053431	0.780180	0.270753
Cl144	Cl	-0.024129	1.252490	-0.172475
Cl145	Cl	-0.020583	1.336739	0.321753
Cl146	Cl	1.295857	0.223668	0.338208
H147	H	0.015627	1.236012	0.179132
H148	H	1.259560	0.324438	0.137383
Cl149	Cl	0.175089	1.084048	-0.061512
Cl150	Cl	0.478904	1.084078	-0.428528
Cl151	Cl	0.620797	0.307888	0.341503
H152	H	0.471422	1.235968	-0.559878
H153	H	0.018448	1.303702	-0.373454
Cl154	Cl	0.535938	1.336683	-0.580569
Cl155	Cl	0.371929	1.169296	-0.490566
H156	H	1.093804	0.324395	0.406278
H157	H	0.181889	0.780187	0.274337
Cl158	Cl	0.590002	0.476316	0.174371
Cl159	Cl	0.561122	0.448636	0.095495
H160	H	0.661963	0.100547	-0.067989
Cl161	Cl	1.100176	0.476291	-0.121208
Cl162	Cl	0.827106	0.307868	-0.335740
H163	H	0.933611	0.459829	-0.309383
H164	H	0.317261	0.780204	0.229227
Cl165	Cl	0.796283	0.476336	-0.285828
Cl166	Cl	0.778494	0.573891	-0.382597
Cl167	Cl	1.299375	0.307857	-0.227262
Cl168	Cl	0.371933	1.169290	-0.707589
H169	H	0.272982	0.780191	-0.156889
Cl170	Cl	0.512777	0.963005	-0.344643
H171	H	0.613261	0.459834	0.010953
H172	H	1.099434	0.459805	0.048186
H173	H	0.496636	0.347898	0.200073
Cl174	Cl	0.893870	0.476297	0.339009
H175	H	0.341567	1.100599	-0.374109
H176	H	0.496144	0.100561	0.200884
Cl177	Cl	0.175042	1.084079	0.064179
H178	H	0.471397	0.235960	0.241000
H179	H	0.317219	0.780211	-0.072913
Cl180	Cl	0.221776	0.780209	-0.327798
H181	H	0.093323	0.780195	-0.331378
Cl182	Cl	-0.058564	0.780169	-0.317623
H183	H	-0.042013	0.780171	0.015874
Cl184	Cl	-0.030799	0.780169	0.110873
Cl185	Cl	0.654465	1.252429	-0.398436
H186	H	0.750833	0.614364	-0.585671
H187	H	0.779072	0.459821	0.368513
Cl188	Cl	1.093005	0.307934	-0.424336
