data_functionalizedCrystal
_audit_creation_method	'MofGen! by Chris Wilmer'
_symmetry_space_group_name_H-M	'P1'
_symmetry_Int_Tables_number	1
_symmetry_cell_setting	triclinic
loop_
_symmetry_equiv_pos_as_xyz
  x,y,z
_cell_length_a	10.654554
_cell_length_b	12.837942
_cell_length_c	9.730223
_cell_angle_alpha	89.998888
_cell_angle_beta	89.999030
_cell_angle_gamma	89.657891
loop_
_atom_site_label
_atom_site_type_symbol
_atom_site_fract_x
_atom_site_fract_y
_atom_site_fract_z
O1	O	1.683734	0.145742	-0.114314
O2	O	1.319771	0.159620	-0.114311
O3	O	1.493682	0.001720	-0.114304
O4	O	1.509823	0.303642	-0.114321
O5	O	1.493681	0.001724	0.114276
O6	O	1.319769	0.159624	0.114269
O7	O	1.683733	0.145746	0.114266
Zn8	Zn	1.501751	0.152686	0.150559
Zn9	Zn	1.501753	0.152681	-0.150605
O10	O	1.509822	0.303646	0.114259
C11	C	1.272861	0.158602	-0.000021
C12	C	1.133085	0.155551	-0.000020
C13	C	0.939752	0.056843	-0.000032
C14	C	1.071086	0.059709	-0.000018
C15	C	1.063743	0.248531	-0.000021
C16	C	0.932411	0.245663	-0.000025
C17	C	0.943993	-0.052172	-0.000036
C18	C	1.075327	-0.049305	-0.000022
C19	C	1.488229	-0.036938	-0.000015
C20	C	1.471966	-0.152132	-0.000017
C21	C	1.667471	-0.391682	-0.000047
C22	C	1.652197	-0.499918	-0.000049
C23	C	1.426145	-0.476841	-0.000033
C24	C	1.441419	-0.368606	-0.000031
C25	C	1.562086	-0.326030	-0.000036
C26	C	1.577359	-0.217792	-0.000024
C27	C	1.351309	-0.194718	-0.000018
C28	C	1.336034	-0.302954	-0.000020
C29	C	1.730643	0.146764	-0.000027
C30	C	1.870419	0.149816	-0.000038
C31	C	1.515275	0.342304	-0.000034
C32	C	1.531538	0.457498	-0.000040
N33	N	1.501758	0.152689	0.356096
N34	N	1.501755	0.152669	-0.356141
C35	C	1.578791	0.082795	0.428025
C36	C	1.578786	0.082782	0.571908
C37	C	1.424713	0.222567	0.571920
C38	C	1.424712	0.222574	0.428039
C39	C	1.667747	0.002094	0.428019
C40	C	1.667743	0.002081	0.571902
H41	H	0.875964	0.321371	-0.000014
H42	H	1.765722	-0.357017	-0.000038
H43	H	1.117370	-0.082246	0.098678
C44	C	1.615398	-0.099719	0.632189
N45	N	1.575964	-0.176389	0.677599
C46	C	0.898032	-0.109758	0.129196
N47	N	0.863414	-0.153127	0.226535
H48	H	1.237791	-0.337634	-0.000022
C49	C	1.339966	0.299435	0.651071
N50	N	1.276131	0.357333	0.710687
H51	H	1.112604	-0.090377	-0.095682
C52	C	1.710093	-0.170961	-0.000034
N53	N	1.810073	-0.135691	-0.000047
H54	H	0.904577	-0.086887	-0.098732
C55	C	1.293422	-0.523694	-0.000015
N56	N	1.193453	-0.558985	0.000009
C57	C	1.340077	0.299543	0.348922
N58	N	1.276368	0.357551	0.289332
C59	C	1.627015	-0.105635	0.375259
N60	N	1.596332	-0.186773	0.335520
C61	C	1.794659	0.036226	0.367721
N62	N	1.890250	0.061934	0.322304
C63	C	1.800721	0.026177	0.624662
N64	N	1.900869	0.044356	0.664400
H65	H	1.738012	-0.553369	-0.000063
H66	H	1.114232	0.326566	-0.000010
H67	H	1.265496	-0.141252	0.000002
