data_functionalizedCrystal
_audit_creation_method	'MofGen! by Chris Wilmer'
_symmetry_space_group_name_H-M	'P1'
_symmetry_Int_Tables_number	1
_symmetry_cell_setting	triclinic
loop_
_symmetry_equiv_pos_as_xyz
  x,y,z
_cell_length_a	13.635800
_cell_length_b	27.923496
_cell_length_c	27.924317
_cell_angle_alpha	82.401569
_cell_angle_beta	98.979858
_cell_angle_gamma	81.036054
loop_
_atom_site_label
_atom_site_type_symbol
_atom_site_fract_x
_atom_site_fract_y
_atom_site_fract_z
V1	V	1.977261	-0.067876	0.151590
V2	V	2.477261	0.432124	0.651590
O3	O	1.983135	0.002491	0.148388
O4	O	2.483135	0.502491	0.648388
O5	O	1.942275	-0.133845	0.150856
O6	O	2.442275	0.366155	0.650856
O7	O	1.942323	-0.067170	0.217565
O8	O	2.442323	0.432830	0.717565
O9	O	1.983086	-0.064646	0.081218
O10	O	2.483086	0.435354	0.581218
V11	V	2.221865	-0.059419	0.143136
V12	V	2.721865	0.440581	0.643136
O13	O	2.101657	-0.086426	0.170134
O14	O	2.601657	0.413574	0.670134
O15	O	2.322567	-0.040869	0.124592
O16	O	2.822567	0.459131	0.624592
O17	O	2.145248	0.006550	0.143869
O18	O	2.645248	0.506550	0.643869
O19	O	2.274689	-0.129786	0.146337
O20	O	2.774689	0.370214	0.646337
O21	O	2.274738	-0.062650	0.213507
O22	O	2.774738	0.437350	0.713507
O23	O	2.145199	-0.060125	0.077161
O24	O	2.645199	0.439875	0.577161
V25	V	2.477261	-0.067876	0.151590
V26	V	2.977261	0.432124	0.651590
O27	O	2.483135	0.002491	0.148388
O28	O	2.983135	0.502491	0.648388
O29	O	2.442275	-0.133845	0.150856
O30	O	2.942275	0.366155	0.650856
O31	O	2.442323	-0.067170	0.217565
O32	O	2.942323	0.432830	0.717565
O33	O	2.483086	-0.064646	0.081218
O34	O	2.983086	0.435354	0.581218
V35	V	2.721865	-0.059419	0.143136
V36	V	3.221865	0.440581	0.643136
O37	O	2.601657	-0.086426	0.170134
O38	O	3.101657	0.413574	0.670134
O39	O	2.822567	-0.040869	0.124592
O40	O	3.322567	0.459131	0.624592
O41	O	2.645248	0.006550	0.143869
O42	O	3.145248	0.506550	0.643869
O43	O	2.774689	-0.129786	0.146337
O44	O	3.274689	0.370214	0.646337
O45	O	2.774738	-0.062650	0.213507
O46	O	3.274738	0.437350	0.713507
O47	O	2.645199	-0.060125	0.077161
O48	O	3.145199	0.439875	0.577161
C49	C	1.862498	-0.149917	0.148543
C50	C	2.362498	0.350083	0.648543
C51	C	1.874464	-0.203850	0.148384
C52	C	2.374464	0.296150	0.648384
C53	C	2.039036	-0.540785	0.149878
C54	C	2.539036	-0.040785	0.649878
C55	C	2.084068	-0.743491	0.149301
C56	C	2.584068	-0.243491	0.649301
O57	O	2.166647	-0.771817	0.151316
O58	O	2.666647	-0.271817	0.651316
N59	N	1.999450	-0.766354	0.146794
N60	N	2.499450	-0.266354	0.646794
C61	C	1.903567	-0.738537	0.144435
C62	C	2.403567	-0.238537	0.644435
O63	O	1.832629	-0.762635	0.142295
O64	O	2.332629	-0.262635	0.642295
C65	C	1.858537	-0.535832	0.145016
C66	C	2.358537	-0.035832	0.645016
C67	C	1.943160	-0.512972	0.147518
C68	C	2.443160	-0.012972	0.647518
C69	C	2.123652	-0.517924	0.152381
C70	C	2.623652	-0.017924	0.652381
C71	C	2.112393	-0.467251	0.152522
C72	C	2.612393	0.032749	0.652522
C73	C	2.016517	-0.439437	0.150162
C74	C	2.516517	0.060563	0.650162
C75	C	1.931901	-0.462298	0.147660
C76	C	2.431901	0.037702	0.647660
C77	C	1.762656	-0.508017	0.142660
C78	C	2.262656	-0.008017	0.642660
C79	C	1.751406	-0.457338	0.142807
C80	C	2.251406	0.042662	0.642807
C81	C	1.836030	-0.434477	0.145309
C82	C	2.336030	0.065523	0.645309
C83	C	1.824767	-0.383810	0.145441
C84	C	2.324767	0.116190	0.645441
N85	N	1.909385	-0.360948	0.147947
N86	N	2.409385	0.139052	0.647947
C87	C	2.005260	-0.388761	0.150308
C88	C	2.505260	0.111239	0.650308
C89	C	1.927215	-0.844960	0.144129
C90	C	2.427215	-0.344960	0.644129
C91	C	1.938472	-0.895635	0.143983
C92	C	2.438472	-0.395635	0.643983
C93	C	2.118973	-0.900587	0.148850
C94	C	2.618973	-0.400587	0.648850
C95	C	2.107714	-0.849909	0.148993
C96	C	2.607714	-0.349909	0.648993
C97	C	2.011833	-0.822097	0.146636
C98	C	2.511833	-0.322097	0.646636
C99	C	1.981608	-0.282342	0.150605
C100	C	2.481608	0.217658	0.650605
C101	C	1.970340	-0.231663	0.150744
C102	C	2.470340	0.268337	0.650744
C103	C	1.789841	-0.226717	0.145880
C104	C	2.289841	0.273283	0.645880
C105	C	1.801107	-0.277391	0.145738
C106	C	2.301107	0.222609	0.645738
C107	C	1.896999	-0.305203	0.148102
C108	C	2.396999	0.194797	0.648102
O109	O	1.742223	-0.355455	0.143432
O110	O	2.242223	0.144545	0.643432
O111	O	2.076188	-0.364656	0.152459
O112	O	2.576188	0.135344	0.652459
C113	C	2.050295	-0.591459	0.149737
C114	C	2.550295	-0.091459	0.649737
C115	C	1.965679	-0.614320	0.147235
C116	C	2.465679	-0.114320	0.647235
C117	C	1.869803	-0.586506	0.144874
C118	C	2.369803	-0.086506	0.644874
C119	C	1.976936	-0.664995	0.147088
C120	C	2.476936	-0.164995	0.647088
C121	C	2.072811	-0.692809	0.149449
C122	C	2.572811	-0.192809	0.649449
C123	C	2.157429	-0.669946	0.151956
C124	C	2.657429	-0.169946	0.651956
C125	C	2.146170	-0.619272	0.152097
C126	C	2.646170	-0.119272	0.652097
C127	C	1.785185	-0.609369	0.142367
C128	C	2.285185	-0.109369	0.642367
C129	C	1.796451	-0.660043	0.142225
C130	C	2.296451	-0.160043	0.642225
C131	C	1.892327	-0.687856	0.144586
C132	C	2.392327	-0.187856	0.644586
C133	C	1.862560	-0.064865	0.233636
C134	C	2.362560	0.435135	0.733636
C135	C	1.874565	-0.064725	0.287573
C136	C	2.374565	0.435275	0.787573
C137	C	2.056695	0.022619	0.146181
C138	C	2.556695	0.522619	0.646181
C139	C	2.034348	0.076551	0.146344
C140	C	2.534348	0.576551	0.646344
C141	C	2.056634	-0.062432	0.061087
C142	C	2.556634	0.437568	0.561087
C143	C	2.034249	-0.062570	0.007150
C144	C	2.534249	0.437430	0.507150
C145	C	2.362498	-0.149917	0.148543
C146	C	2.862498	0.350083	0.648543
C147	C	2.374464	-0.203850	0.148384
C148	C	2.874464	0.296150	0.648384
C149	C	1.971622	-0.108042	0.679853
C150	C	2.471622	0.391958	1.179853
C151	C	1.926645	-0.108646	0.477152
C152	C	2.426645	0.391354	0.977152
O153	O	1.930659	-0.146538	0.457015
O154	O	2.430659	0.353462	0.957015
N155	N	1.909416	-0.064257	0.444664
N156	N	2.409416	0.435743	0.944664
C157	C	1.903424	-0.019712	0.462854
C158	C	2.403424	0.480288	0.962854
O159	O	1.887727	0.018030	0.430570
O160	O	2.387727	0.518030	0.930570
C161	C	1.948394	-0.019108	0.665554
C162	C	2.448394	0.480892	1.165554
C163	C	1.965634	-0.063501	0.698040
C164	C	2.465634	0.436499	1.198040
C165	C	1.988860	-0.152431	0.712338
C166	C	2.488860	0.347569	1.212338
C167	C	2.000109	-0.152280	0.763010
C168	C	2.500109	0.347720	1.263010
C169	C	1.994120	-0.107739	0.781197
C170	C	2.494120	0.392261	1.281197
C171	C	1.976883	-0.063349	0.748712
C172	C	2.476883	0.436651	1.248712
C173	C	1.942395	0.025436	0.683743
C174	C	2.442395	0.525436	1.183743
C175	C	1.953637	0.025584	0.734421
C176	C	2.453637	0.525584	1.234421
C177	C	1.970876	-0.018809	0.766907
C178	C	2.470876	0.481191	1.266907
C179	C	1.982143	-0.018657	0.817571
C180	C	2.482143	0.481343	1.317571
N181	N	1.999372	-0.063047	0.850059
N182	N	2.499372	0.436953	1.350059
C183	C	2.005361	-0.107588	0.831872
C184	C	2.505361	0.392412	1.331872
C185	C	1.879817	-0.020033	0.356434
C186	C	2.379817	0.479967	0.856434
C187	C	1.868576	-0.020184	0.305760
C188	C	2.368576	0.479816	0.805760
C189	C	1.891796	-0.109118	0.320061
C190	C	2.391796	0.390882	0.820061
C191	C	1.903044	-0.108967	0.370737
C192	C	2.403044	0.391033	0.870737
C193	C	1.897046	-0.064423	0.388922
C194	C	2.397046	0.435577	0.888922
C195	C	2.028985	-0.107266	0.938287
C196	C	2.528985	0.392734	1.438287
C197	C	2.040238	-0.107111	0.988963
C198	C	2.540238	0.392889	1.488963
C199	C	2.017011	-0.018177	0.974657
C200	C	2.517011	0.481823	1.474657
C201	C	2.005765	-0.018332	0.923985
C202	C	2.505765	0.481668	1.423985
C203	C	2.011749	-0.062880	0.905802
C204	C	2.511749	0.437120	1.405802
O205	O	1.978129	0.019216	0.837742
O206	O	2.478129	0.519216	1.337742
O207	O	2.021036	-0.145324	0.864163
O208	O	2.521036	0.354676	1.364163
C209	C	1.960373	-0.108193	0.629180
C210	C	2.460373	0.391807	1.129180
C211	C	1.943136	-0.063804	0.596695
C212	C	2.443136	0.436196	1.096695
C213	C	1.937147	-0.019263	0.614882
C214	C	2.437147	0.480737	1.114882
C215	C	1.931895	-0.063955	0.546020
C216	C	2.431895	0.436045	1.046020
C217	C	1.937884	-0.108496	0.527833
C218	C	2.437884	0.391504	1.027833
C219	C	1.955113	-0.152886	0.560321
C220	C	2.455113	0.347114	1.060321
C221	C	1.966362	-0.152734	0.610993
C222	C	2.466362	0.347266	1.110993
C223	C	1.919918	0.025127	0.582394
C224	C	2.419918	0.525127	1.082394
C225	C	1.908671	0.024972	0.531723
C226	C	2.408671	0.524972	1.031723
C227	C	1.914659	-0.019569	0.513536
C228	C	2.414659	0.480431	1.013536
C229	C	2.362560	-0.064865	0.233636
C230	C	2.862560	0.435135	0.733636
C231	C	2.374565	-0.064725	0.287573
C232	C	2.874565	0.435275	0.787573
C233	C	2.556695	0.022619	0.146181
C234	C	3.056695	0.522619	0.646181
C235	C	2.534348	0.076551	0.146344
C236	C	3.034348	0.576551	0.646344
C237	C	2.556634	-0.062432	0.061087
C238	C	3.056634	0.437568	0.561087
C239	C	2.534249	-0.062570	0.007150
C240	C	3.034249	0.437430	0.507150
C241	C	2.470340	-0.231663	0.150744
C242	C	2.970340	0.268337	0.650744
C243	C	2.481599	-0.282340	0.150602
C244	C	2.981599	0.217660	0.650602
C245	C	2.396981	-0.305203	0.148095
C246	C	2.896981	0.194797	0.648095
C247	C	2.301098	-0.277386	0.145736
C248	C	2.801098	0.222614	0.645736
C249	C	2.289841	-0.226710	0.145882
C250	C	2.789841	0.273290	0.645882
C251	C	2.470457	-0.067090	0.315386
C252	C	2.970457	0.432910	0.815386
C253	C	2.481749	-0.066951	0.366065
C254	C	2.981749	0.433049	0.866065
C255	C	2.397148	-0.064451	0.388930
C256	C	2.897148	0.435549	0.888930
C257	C	2.301248	-0.062084	0.361112
C258	C	2.801248	0.437916	0.861112
C259	C	2.289956	-0.062219	0.310434
C260	C	2.789956	0.437781	0.810434
C261	C	2.610966	0.104364	0.143984
C262	C	3.110966	0.604364	0.643984
C263	C	2.589978	0.155041	0.144129
C264	C	3.089978	0.655041	0.644129
C265	C	2.492373	0.177904	0.146637
C266	C	2.992373	0.677904	0.646637
C267	C	2.415749	0.150087	0.148995
C268	C	2.915749	0.650087	0.648995
C269	C	2.436736	0.099412	0.148847
C270	C	2.936736	0.599412	0.648847
C271	C	2.436618	-0.065065	-0.015702
C272	C	2.936618	0.434935	0.484298
C273	C	2.415569	-0.065189	-0.066383
C274	C	2.915569	0.434811	0.433617
C275	C	2.492153	-0.062821	-0.094210
C276	C	2.992153	0.437179	0.405790
C277	C	2.589791	-0.060325	-0.071354
C278	C	3.089791	0.439675	0.428646
C279	C	2.610838	-0.060197	-0.020675
C280	C	3.110838	0.439803	0.479325
H281	H	2.039254	-0.213053	0.152780
H282	H	2.539254	0.286947	0.652780
H283	H	2.475005	-0.062932	-0.135474
H284	H	2.975005	0.437068	0.364526
H285	H	2.232206	-0.296008	0.143695
H286	H	2.732206	0.203992	0.643695
H287	H	2.406161	-0.346467	0.147976
H288	H	2.906161	0.153533	0.647976
H289	H	2.181305	-0.448643	0.154563
H290	H	2.681305	0.051357	0.654563
H291	H	2.652140	-0.058396	-0.094019
H292	H	3.152140	0.441604	0.405981
H293	H	2.059691	-0.304981	0.152531
H294	H	2.559691	0.195019	0.652531
H295	H	2.211869	-0.060294	0.287792
H296	H	2.711869	0.439706	0.787792
H297	H	1.727532	-0.678650	0.140185
H298	H	2.227532	-0.178650	0.640185
H299	H	2.211766	-0.204068	0.143957
H300	H	2.711766	0.295932	0.643957
H301	H	2.232370	-0.060049	0.379737
H302	H	2.732370	0.439951	0.879737
H303	H	2.652381	0.177683	0.142210
H304	H	3.152381	0.677683	0.642210
H305	H	2.336062	-0.067221	-0.084984
H306	H	2.836062	0.432779	0.415016
H307	H	2.690447	0.085757	0.141943
H308	H	3.190447	0.585757	0.641943
H309	H	1.693743	-0.526620	0.140619
H310	H	2.193743	-0.026620	0.640619
H311	H	2.690341	-0.058169	-0.002073
H312	H	3.190341	0.441831	0.497927
H313	H	1.707112	-0.586728	0.140446
H314	H	2.207112	-0.086728	0.640446
H315	H	2.539355	-0.069127	0.296777
H316	H	3.039355	0.430873	0.796777
H317	H	2.559843	-0.068881	0.388707
H318	H	3.059843	0.431119	0.888707
H319	H	2.559678	-0.304982	0.152522
H320	H	3.059678	0.195018	0.652522
H321	H	2.406357	-0.064342	0.430196
H322	H	2.906357	0.435658	0.930196
H323	H	2.475298	0.219167	0.146757
H324	H	2.975298	0.719167	0.646757
H325	H	2.336278	0.168709	0.151036
H326	H	2.836278	0.668709	0.651036
H327	H	2.054277	-0.143263	1.015412
H328	H	2.554277	0.356737	1.515412
H329	H	2.374247	-0.066992	0.006948
H330	H	2.874247	0.433008	0.506948
H331	H	2.201728	-0.540565	0.154305
H332	H	2.701728	-0.040565	0.654305
H333	H	2.374341	0.076769	0.150772
H334	H	2.874341	0.576769	0.650772
H335	H	2.197039	-0.923240	0.150767
H336	H	2.697039	-0.423240	0.650767
H337	H	2.176623	-0.831300	0.151029
H338	H	2.676623	-0.331300	0.651029
H339	H	1.869560	-0.914243	0.141939
H340	H	2.369560	-0.414243	0.641939
H341	H	1.673329	-0.434696	0.140890
H342	H	2.173329	0.065304	0.640890
H343	H	1.849135	-0.822319	0.142209
H344	H	2.349135	-0.322319	0.642209
H345	H	1.732201	-0.296005	0.143704
H346	H	2.232201	0.203995	0.643704
H347	H	2.215081	-0.600664	0.154134
H348	H	2.715081	-0.100664	0.654134
H349	H	2.235495	-0.692600	0.153873
H350	H	2.735495	-0.192600	0.653873
H351	H	1.711779	-0.204062	0.143956
H352	H	2.211779	0.295938	0.643956
H353	H	2.014144	-0.188429	0.789456
H354	H	2.514144	0.311571	1.289456
H355	H	1.993735	-0.188703	0.697537
H356	H	2.493735	0.311297	1.197537
H357	H	1.917078	-0.145116	0.397184
H358	H	2.417078	0.354884	0.897184
H359	H	1.896671	-0.145385	0.305245
H360	H	2.396671	0.354615	0.805245
H361	H	1.854554	0.015965	0.279314
H362	H	2.354554	0.515965	0.779314
H363	H	1.874928	0.016243	0.371235
H364	H	2.374928	0.516243	0.871235
H365	H	1.928359	0.061586	0.657301
H366	H	2.428359	0.561586	1.157301
H367	H	1.948757	0.061858	0.749224
H368	H	2.448757	0.561858	1.249224
H369	H	1.991739	0.017816	0.897534
H370	H	2.491739	0.517816	1.397534
H371	H	2.012142	0.018087	0.989474
H372	H	2.512142	0.518087	1.489474
H373	H	1.980398	-0.188883	0.637440
H374	H	2.480398	0.311117	1.137440
H375	H	2.033856	-0.143542	0.923488
H376	H	2.533856	0.356458	1.423488
H377	H	1.959992	-0.189153	0.545505
H378	H	2.459992	0.310847	1.045505
H379	H	1.894641	0.061125	0.505276
H380	H	2.394641	0.561125	1.005276
H381	H	1.915034	0.061398	0.597196
H382	H	2.415034	0.561398	1.097196
H383	H	2.539251	-0.213055	0.152782
H384	H	3.039251	0.286945	0.652782
