data_functionalizedCrystal
_audit_creation_method	'MofGen! by Chris Wilmer'
_symmetry_space_group_name_H-M	'P1'
_symmetry_Int_Tables_number	1
_symmetry_cell_setting	triclinic
loop_
_symmetry_equiv_pos_as_xyz
  x,y,z
_cell_length_a	18.215405
_cell_length_b	18.215407
_cell_length_c	18.215399
_cell_angle_alpha	89.979405
_cell_angle_beta	90.026474
_cell_angle_gamma	89.978057
loop_
_atom_site_label
_atom_site_type_symbol
_atom_site_fract_x
_atom_site_fract_y
_atom_site_fract_z
Zn1	Zn	-0.292993	-1.125087	0.416138
Zn2	Zn	0.040340	-0.791753	0.749472
Zn3	Zn	0.373673	-0.458420	1.082805
Zn4	Zn	-0.416065	-1.125001	0.293075
Zn5	Zn	-0.082731	-0.791668	0.626409
Zn6	Zn	0.250602	-0.458334	0.959742
Zn7	Zn	-0.293016	-1.002019	0.293084
Zn8	Zn	0.040317	-0.668686	0.626417
Zn9	Zn	0.373650	-0.335352	0.959751
Zn10	Zn	-0.416023	-1.001991	0.416099
Zn11	Zn	-0.082689	-0.668658	0.749432
Zn12	Zn	0.250644	-0.335325	1.082765
O13	O	-0.354524	-1.063525	0.354599
O14	O	-0.021191	-0.730191	0.687932
O15	O	0.312142	-0.396858	1.021266
O16	O	-0.309327	-1.228060	0.399827
O17	O	0.024006	-0.894726	0.733160
O18	O	0.357340	-0.561393	1.066493
O19	O	-0.399769	-1.108663	0.190092
O20	O	-0.066436	-0.775330	0.523425
O21	O	0.266897	-0.441997	0.856759
O22	O	-0.190029	-1.018392	0.309428
O23	O	0.143304	-0.685058	0.642761
O24	O	0.476638	-0.351725	0.976095
O25	O	-0.399747	-1.227997	0.309413
O26	O	-0.066414	-0.894663	0.642746
O27	O	0.266920	-0.561330	0.976079
O28	O	-0.190012	-1.108809	0.399835
O29	O	0.143321	-0.775476	0.733169
O30	O	0.476655	-0.442142	1.066502
O31	O	-0.309366	-1.018309	0.190099
O32	O	0.023967	-0.684976	0.523432
O33	O	0.357301	-0.351642	0.856765
O34	O	-0.309325	-0.899031	0.309389
O35	O	0.024008	-0.565698	0.642723
O36	O	0.357341	-0.232365	0.976056
O37	O	-0.399675	-1.018344	0.519088
O38	O	-0.066342	-0.685011	0.852421
O39	O	0.266991	-0.351677	1.185755
O40	O	-0.399697	-0.899011	0.399767
O41	O	-0.066364	-0.565677	0.733101
O42	O	0.266969	-0.232344	1.066434
O43	O	-0.309286	-1.108782	0.519117
O44	O	0.024047	-0.775448	0.852451
O45	O	0.357380	-0.442115	1.185784
O46	O	-0.519043	-1.108636	0.309374
O47	O	-0.185710	-0.775303	0.642708
O48	O	0.147623	-0.441969	0.976041
O49	O	-0.519012	-1.018261	0.399759
O50	O	-0.185679	-0.684928	0.733092
O51	O	0.147654	-0.351595	1.066426
C52	C	-0.354510	-0.872318	0.354575
C53	C	-0.021177	-0.538985	0.687909
C54	C	0.312157	-0.205652	1.021242
C55	C	-0.354521	-0.790519	0.354583
C56	C	-0.021188	-0.457186	0.687916
C57	C	0.312145	-0.123853	1.021249
C58	C	-0.401650	-0.602334	0.401581
C59	C	-0.068317	-0.269001	0.734914
C60	C	0.265016	0.064333	1.068248
C61	C	-0.401652	-0.525475	0.401589
C62	C	-0.068319	-0.192142	0.734923
C63	C	0.265015	0.141191	1.068256
C64	C	-0.307402	-0.525467	0.307620
C65	C	0.025931	-0.192134	0.640953
C66	C	0.359265	0.141200	0.974286
C67	C	-0.307397	-0.602324	0.307616
C68	C	0.025936	-0.268991	0.640949
C69	C	0.359269	0.064342	0.974283
C70	C	-0.354526	-0.640756	0.354595
C71	C	-0.021192	-0.307423	0.687929
C72	C	0.312141	0.025911	1.021262
C73	C	-0.354532	-0.487040	0.354608
C74	C	-0.021199	-0.153706	0.687941
C75	C	0.312135	0.179627	1.021274
C76	C	-0.354533	-0.403706	0.354616
C77	C	-0.021200	-0.070373	0.687949
C78	C	0.312133	0.262961	1.021283
C79	C	-0.354524	-0.724095	0.354588
C80	C	-0.021190	-0.390762	0.687922
C81	C	0.312143	-0.057428	1.021255
C82	C	-0.545730	-1.063456	0.354577
C83	C	-0.212397	-0.730123	0.687911
C84	C	0.120936	-0.396790	1.021244
C85	C	-0.627529	-1.063495	0.354593
C86	C	-0.294196	-0.730161	0.687926
C87	C	0.039137	-0.396828	1.021259
C88	C	-0.892520	-1.110619	0.401740
C89	C	-0.559187	-0.777285	0.735073
C90	C	-0.225854	-0.443952	1.068406
C91	C	-0.815662	-1.110594	0.401728
C92	C	-0.482328	-0.777261	0.735062
C93	C	-0.148995	-0.443927	1.068395
C94	C	-0.815787	-1.016525	0.307501
C95	C	-0.482453	-0.683191	0.640834
C96	C	-0.149120	-0.349858	0.974168
C97	C	-0.892644	-1.016553	0.307509
C98	C	-0.559311	-0.683220	0.640842
C99	C	-0.225977	-0.349887	0.974176
C100	C	-0.931009	-1.063599	0.354633
C101	C	-0.597676	-0.730266	0.687966
C102	C	-0.264342	-0.396933	1.021299
C103	C	-0.777293	-1.063546	0.354613
C104	C	-0.443959	-0.730212	0.687947
C105	C	-0.110626	-0.396879	1.021280
C106	C	-0.693959	-1.063519	0.354601
C107	C	-0.360626	-0.730185	0.687934
C108	C	-0.027293	-0.396852	1.021267
C109	C	-1.014348	-1.063628	0.354644
C110	C	-0.681014	-0.730294	0.687978
C111	C	-0.347681	-0.396961	1.021311
C112	C	-0.162571	-1.063613	0.354637
C113	C	0.170762	-0.730280	0.687970
C114	C	0.504095	-0.396946	1.021304
C115	C	-0.080772	-1.063651	0.354653
C116	C	0.252561	-0.730317	0.687987
C117	C	0.585894	-0.396984	1.021320
C118	C	-0.354473	-1.063569	0.546552
C119	C	-0.021140	-0.730236	0.879885
C120	C	0.312193	-0.396903	1.213219
C121	C	-0.354452	-1.063588	0.628351
C122	C	-0.021118	-0.730255	0.961684
C123	C	0.312215	-0.396922	1.295018
C124	C	-0.354537	-0.255477	0.354620
C125	C	-0.021203	0.077856	0.687953
C126	C	0.312130	0.411189	1.021287
C127	C	-0.354536	-0.337276	0.354620
C128	C	-0.021203	-0.003943	0.687954
C129	C	0.312130	0.329390	1.021287
C130	C	-0.354522	-1.063522	0.163393
C131	C	-0.021188	-0.730189	0.496726
C132	C	0.312145	-0.396856	0.830060
C133	C	-0.354336	-1.063646	0.081594
C134	C	-0.021003	-0.730312	0.414928
C135	C	0.312331	-0.396979	0.748261
C136	C	-0.307342	-1.110696	0.816561
C137	C	0.025991	-0.777363	1.149895
C138	C	0.359324	-0.444030	1.483228
C139	C	-0.307321	-1.110705	0.893420
C140	C	0.026013	-0.777372	1.226754
C141	C	0.359346	-0.444038	1.560087
C142	C	-0.401448	-1.016533	0.893379
C143	C	-0.068114	-0.683199	1.226712
C144	C	0.265219	-0.349866	1.560045
C145	C	-0.401465	-1.016521	0.816521
C146	C	-0.068131	-0.683187	1.149854
C147	C	0.265202	-0.349854	1.483188
C148	C	-0.354413	-1.063607	0.778115
C149	C	-0.021080	-0.730273	1.111448
C150	C	0.312253	-0.396940	1.444781
C151	C	-0.354375	-1.063627	0.931831
C152	C	-0.021041	-0.730294	1.265164
C153	C	0.312292	-0.396961	1.598497
C154	C	-0.354352	-1.063637	1.015164
C155	C	-0.021018	-0.730303	1.348498
C156	C	0.312315	-0.396970	1.681831
C157	C	-0.354435	-1.063597	0.694776
C158	C	-0.021102	-0.730263	1.028109
C159	C	0.312232	-0.396930	1.361442
H160	H	-0.440024	-0.633623	0.439837
H161	H	-0.106690	-0.300289	0.773170
H162	H	0.226643	0.033044	1.106503
H163	H	-0.268990	-1.149049	0.924720
H164	H	0.064344	-0.815716	1.258054
H165	H	0.397677	-0.482382	1.591387
O166	O	-0.256589	-1.161477	0.775140
O167	O	0.076744	-0.828144	1.108474
O168	O	0.410077	-0.494810	1.441807
H169	H	-0.289537	-1.198906	0.740131
H170	H	0.043796	-0.865573	1.073464
H171	H	0.377129	-0.532240	1.406797
H172	H	-0.439757	-0.978199	0.924658
H173	H	-0.106424	-0.644865	1.257992
H174	H	0.226910	-0.311532	1.591325
O175	O	-0.934165	-0.965836	0.256700
O176	O	-0.600832	-0.632503	0.590034
O177	O	-0.267499	-0.299169	0.923367
H178	H	-0.894577	-0.933109	0.223939
H179	H	-0.561244	-0.599776	0.557273
H180	H	-0.227910	-0.266442	0.890606
H181	H	-0.439795	-0.978170	0.785217
H182	H	-0.106462	-0.644836	1.118550
H183	H	0.226872	-0.311503	1.451883
O184	O	-0.774146	-1.161308	0.452535
O185	O	-0.440813	-0.827974	0.785869
O186	O	-0.107479	-0.494641	1.119202
H187	H	-0.739130	-1.198761	0.419624
H188	H	-0.405796	-0.865428	0.752958
H189	H	-0.072463	-0.532094	1.086291
O190	O	-0.256568	-0.643776	0.256938
O191	O	0.076765	-0.310443	0.590271
O192	O	0.410099	0.022891	0.923604
H193	H	-0.289462	-0.678772	0.219446
H194	H	0.043871	-0.345438	0.552780
H195	H	0.377205	-0.012105	0.886113
H196	H	-0.440025	-0.494196	0.439851
H197	H	-0.106691	-0.160862	0.773184
H198	H	0.226642	0.172471	1.106517
O199	O	-0.256596	-0.484017	0.256926
O200	O	0.076737	-0.150684	0.590259
O201	O	0.410071	0.182649	0.923592
H202	H	-0.264528	-0.424118	0.264809
H203	H	0.068806	-0.090785	0.598142
H204	H	0.402139	0.242549	0.931475
O205	O	-0.774409	-0.965781	0.256678
O206	O	-0.441076	-0.632447	0.590011
O207	O	-0.107742	-0.299114	0.923345
H208	H	-0.739408	-0.928298	0.289574
H209	H	-0.406075	-0.594964	0.622908
H210	H	-0.072741	-0.261631	0.956241
O211	O	-0.933904	-1.161365	0.452556
O212	O	-0.600570	-0.828031	0.785889
O213	O	-0.267237	-0.494698	1.119223
H214	H	-0.894224	-1.194061	0.485305
H215	H	-0.560891	-0.860728	0.818638
H216	H	-0.227558	-0.527394	1.151972
