data_functionalizedCrystal
_audit_creation_method	'MofGen! by Chris Wilmer'
_symmetry_space_group_name_H-M	'P1'
_symmetry_Int_Tables_number	1
_symmetry_cell_setting	triclinic
loop_
_symmetry_equiv_pos_as_xyz
  x,y,z
_cell_length_a	19.121063
_cell_length_b	13.033293
_cell_length_c	13.032268
_cell_angle_alpha	89.079182
_cell_angle_beta	99.247498
_cell_angle_gamma	99.921715
loop_
_atom_site_label
_atom_site_type_symbol
_atom_site_fract_x
_atom_site_fract_y
_atom_site_fract_z
Zn1	Zn	-0.220865	1.482860	-0.793484
Zn2	Zn	-0.322885	1.497396	-0.627054
Zn3	Zn	-0.217116	1.332985	-0.599456
Zn4	Zn	-0.352479	1.301556	-0.778702
O5	O	-0.278336	1.403699	-0.699674
O6	O	-0.223582	1.629471	-0.789143
O7	O	-0.294900	1.494823	-0.478727
O8	O	-0.118269	1.359936	-0.619830
O9	O	-0.298535	1.640150	-0.666868
O10	O	-0.121023	1.470048	-0.762382
O11	O	-0.217193	1.374031	-0.458450
O12	O	-0.245889	1.184133	-0.605497
O13	O	-0.348974	1.306370	-0.925330
O14	O	-0.345339	1.161042	-0.737189
O15	O	-0.252278	1.439573	-0.936190
O16	O	-0.426155	1.464347	-0.652535
O17	O	-0.447898	1.320465	-0.763950
C18	C	-0.298419	1.135073	-0.666745
C19	C	-0.307030	1.020149	-0.652683
C20	C	-0.273860	0.963610	-0.707014
C21	C	-0.282759	0.844830	-0.692482
C22	C	-0.462786	1.390598	-0.709659
C23	C	-0.541690	1.385083	-0.713977
C24	C	-0.567418	1.457449	-0.658059
C25	C	-0.641558	1.452267	-0.662126
C26	C	-0.689969	1.374716	-0.722107
C27	C	-0.664237	1.302347	-0.778032
C28	C	-0.590099	1.307533	-0.773970
C29	C	-0.914388	1.355310	-0.737278
C30	C	-0.988531	1.350127	-0.741334
C31	C	-0.965846	1.500049	-0.625429
C32	C	-0.891707	1.505225	-0.621367
C33	C	-0.865982	1.432860	-0.677296
C34	C	-0.765752	1.369416	-0.726264
C35	C	-0.790200	1.438165	-0.673145
C36	C	-0.093167	1.416876	-0.689676
C37	C	-0.014258	1.422492	-0.685415
C38	C	-0.304345	1.367844	-0.969319
C39	C	-0.315429	1.352565	-1.084226
C40	C	-0.258176	1.673374	-0.732733
C41	C	-0.249584	1.788294	-0.746820
C42	C	-0.272527	1.411659	-1.140828
C43	C	-0.283982	1.395869	-1.259590
C44	C	-0.252372	1.439478	-0.431083
C45	C	-0.241074	1.454971	-0.316190
H46	H	-0.214591	0.827820	-0.804092
O47	O	-0.329101	0.792479	-0.616604
H48	H	-0.352040	0.851964	-0.579009
O49	O	-0.227515	1.015967	-0.782880
H50	H	-0.171618	1.001590	-0.759745
H51	H	-0.360635	1.290276	-1.123688
H52	H	-0.569153	1.248607	-0.819506
O53	O	-1.040741	1.266468	-0.806031
H54	H	-1.074015	1.217687	-0.755119
H55	H	-0.342014	0.980618	-0.595407
H56	H	-0.195857	1.517254	-1.276731
H57	H	-0.227315	1.473938	-1.101364
O58	O	-0.886656	1.277230	-0.797574
H59	H	-0.907366	1.283088	-0.881668
H60	H	-0.528005	1.520596	-0.609211
H61	H	-0.662501	1.511194	-0.616591
H62	H	-0.329190	1.333575	-1.299048
H63	H	-0.852291	1.568374	-0.572526
H64	H	-0.750781	1.501311	-0.624312
H65	H	-0.986800	1.558966	-0.579896
H66	H	-0.703660	1.239206	-0.826875
O67	O	-0.817973	1.285758	-0.790933
H68	H	-0.853335	1.322626	-0.851077
