data_functionalizedCrystal
_audit_creation_method	'MofGen! by Chris Wilmer'
_symmetry_space_group_name_H-M	'P1'
_symmetry_Int_Tables_number	1
_symmetry_cell_setting	triclinic
loop_
_symmetry_equiv_pos_as_xyz
  x,y,z
_cell_length_a	16.956995
_cell_length_b	15.995350
_cell_length_c	16.053802
_cell_angle_alpha	92.567808
_cell_angle_beta	87.607939
_cell_angle_gamma	79.773423
loop_
_atom_site_label
_atom_site_type_symbol
_atom_site_fract_x
_atom_site_fract_y
_atom_site_fract_z
O1	O	1.061404	0.030941	-0.069486
O2	O	1.561404	0.530941	0.430514
O3	O	0.829246	0.060336	-0.069474
O4	O	1.329246	0.560336	0.430526
O5	O	0.951671	-0.076688	-0.069479
O6	O	1.451671	0.423312	0.430521
O7	O	0.938979	0.167965	-0.069480
O8	O	1.438979	0.667965	0.430520
O9	O	0.944932	-0.069175	0.069380
O10	O	1.444932	0.430825	0.569380
O11	O	0.822507	0.067849	0.069386
O12	O	1.322507	0.567849	0.569386
O13	O	1.054665	0.038454	0.069374
O14	O	1.554665	0.538454	0.569374
Zn15	Zn	0.937516	0.054344	0.091427
Zn16	Zn	1.437516	0.554344	0.591427
Zn17	Zn	0.946395	0.044446	-0.091526
Zn18	Zn	1.446395	0.544446	0.408474
O19	O	0.932240	0.175478	0.069379
O20	O	1.432240	0.675478	0.569379
C21	C	0.796169	0.065598	-0.000042
C22	C	1.296169	0.565598	0.499958
C23	C	0.707648	0.070073	-0.000038
C24	C	1.207648	0.570073	0.499962
C25	C	0.208349	0.103545	-0.000069
C26	C	0.708349	0.603545	0.499931
C27	C	0.291524	0.099334	-0.000069
C28	C	0.791524	0.599334	0.499931
C29	C	0.342612	0.020295	-0.000062
C30	C	0.842612	0.520295	0.499938
C31	C	0.310522	-0.054539	-0.000064
C32	C	0.810522	0.445461	0.499936
C33	C	0.227348	-0.050327	-0.000071
C34	C	0.727348	0.449673	0.499929
C35	C	0.592384	-0.000550	-0.000047
C36	C	1.092384	0.499450	0.499953
C37	C	0.675562	-0.004755	-0.000038
C38	C	1.175562	0.495245	0.499962
C39	C	0.656559	0.149118	-0.000044
C40	C	1.156559	0.649118	0.499956
C41	C	0.573385	0.153323	-0.000045
C42	C	1.073385	0.653323	0.499955
C43	C	0.541302	0.078489	-0.000052
C44	C	1.041302	0.578489	0.499948
N45	N	0.427631	0.015989	-0.000059
N46	N	0.927631	0.515989	0.499941
N47	N	0.456285	0.082795	-0.000061
N48	N	0.956285	0.582795	0.499939
C49	C	0.947777	-0.104090	-0.000051
C50	C	1.447777	0.395910	0.499949
C51	C	0.946204	-0.196932	-0.000056
C52	C	1.446204	0.303068	0.499944
C53	C	0.940555	-0.534288	-0.000053
C54	C	1.440555	-0.034288	0.499947
C55	C	0.853381	-0.480837	-0.000360
C56	C	1.353381	0.019163	0.499640
C57	C	0.854939	-0.384239	-0.000047
C58	C	1.354939	0.115761	0.499953
C59	C	0.943357	-0.366922	-0.000055
C60	C	1.443357	0.133078	0.499945
C61	C	0.982514	-0.406685	0.079237
C62	C	1.482514	0.093315	0.579237
C63	C	0.980320	-0.503166	0.079304
C64	C	1.480320	-0.003166	0.579304
C65	C	0.989784	-0.512193	-0.078605
C66	C	1.489784	-0.012193	0.421395
C67	C	0.989814	-0.415302	-0.079653
C68	C	1.489814	0.084698	0.420347
C69	C	0.944945	-0.272334	-0.000053
C70	C	1.444945	0.227666	0.499947
C71	C	0.938969	-0.628876	-0.000049
C72	C	1.438969	-0.128876	0.499951
C73	C	1.087743	0.033192	-0.000059
C74	C	1.587743	0.533192	0.499941
C75	C	1.176264	0.028717	-0.000069
C76	C	1.676264	0.528717	0.499931
C77	C	0.936134	0.202880	-0.000051
C78	C	1.436134	0.702880	0.499949
C79	C	0.937707	0.295722	-0.000052
C80	C	1.437707	0.795722	0.499948
N81	N	0.931463	0.061099	0.216287
N82	N	1.431463	0.561099	0.716287
N83	N	0.952455	0.037684	-0.216387
N84	N	1.452455	0.537684	0.283613
C85	C	0.983574	0.002813	0.259979
C86	C	1.483574	0.502813	0.759979
C87	C	0.979347	0.007546	0.347386
C88	C	1.479347	0.507546	0.847386
C89	C	0.923012	0.070569	0.391099
C90	C	1.423012	0.570569	0.891099
C91	C	0.870895	0.128857	0.347402
C92	C	1.370895	0.628857	0.847402
C93	C	0.875119	0.124120	0.259996
C94	C	1.375119	0.624120	0.759996
C95	C	0.904562	0.091236	0.652510
C96	C	1.404562	0.591236	1.152510
C97	C	0.900343	0.095970	0.739921
C98	C	1.400343	0.595970	1.239921
C99	C	1.008794	-0.025343	0.739899
C100	C	1.508794	0.474657	1.239899
C101	C	1.013016	-0.030071	0.652492
C102	C	1.513016	0.469929	1.152492
C103	C	0.960897	0.028215	0.608802
C104	C	1.460897	0.528215	1.108802
N105	N	0.918692	0.075409	0.480443
N106	N	1.418692	0.575409	0.980443
N107	N	0.965214	0.023370	0.519460
N108	N	1.465214	0.523370	1.019460
H109	H	0.317644	0.160267	-0.000076
H110	H	0.817644	0.660267	0.499924
H111	H	0.964195	-0.534011	-0.138704
H112	H	1.464195	-0.034011	0.361296
O113	O	0.952002	-0.380470	-0.157362
O114	O	1.452002	0.119530	0.342638
H115	H	0.900339	-0.328911	-0.139377
H116	H	1.400339	0.171089	0.360623
H117	H	0.832684	0.171582	0.224424
H118	H	1.332684	0.671582	0.724424
H119	H	0.566272	-0.061485	-0.000051
H120	H	1.066272	0.438515	0.499949
H121	H	0.854466	0.147294	0.775509
H122	H	1.354466	0.647294	1.275509
H123	H	1.051227	-0.072798	0.775480
H124	H	1.551227	0.427202	1.275480
H125	H	0.862125	0.138696	0.616944
H126	H	1.362125	0.638696	1.116944
O127	O	0.806210	-0.340129	0.075384
O128	O	1.306210	0.159871	0.575384
H129	H	0.756236	-0.292203	0.054674
H130	H	1.256236	0.207797	0.554674
H131	H	0.166758	0.167908	-0.000068
H132	H	0.666758	0.667908	0.499932
O133	O	0.518288	0.238575	-0.000051
O134	O	1.018288	0.738575	0.499949
H135	H	0.482687	0.241110	-0.056646
H136	H	0.982687	0.741110	0.443354
O137	O	0.810138	0.196840	0.394544
O138	O	1.310138	0.696840	0.894544
H139	H	0.769463	0.166418	0.434392
H140	H	1.269463	0.666418	0.934392
O141	O	0.810861	-0.506257	-0.075673
O142	O	1.310861	-0.006257	0.424327
H143	H	0.755991	-0.529926	-0.054776
H144	H	1.255991	-0.029926	0.445224
O145	O	1.044322	-0.065181	0.212838
O146	O	1.544322	0.434819	0.712838
H147	H	1.038505	-0.058686	0.144718
H148	H	1.538505	0.441314	0.644718
H149	H	0.682691	0.210043	-0.000039
H150	H	1.182691	0.710043	0.499961
O151	O	1.074973	-0.560185	-0.079325
O152	O	1.574973	-0.060185	0.420675
H153	H	1.088224	-0.601907	-0.137169
H154	H	1.588224	-0.101907	0.362831
H155	H	0.949781	-0.373044	0.138249
H156	H	1.449781	0.126956	0.638249
O157	O	0.730670	-0.090009	-0.000041
O158	O	1.230670	0.409991	0.499959
H159	H	0.694389	-0.141339	-0.000056
H160	H	1.194389	0.358661	0.499944
H161	H	0.352124	-0.118894	-0.000064
H162	H	0.852124	0.381106	0.499936
H163	H	0.201226	-0.111260	-0.000073
H164	H	0.701226	0.388740	0.499927
H165	H	0.823893	-0.356552	-0.056886
H166	H	1.323893	0.143448	0.443114
H167	H	0.815943	-0.494970	0.056189
H168	H	1.315943	0.005030	0.556189
O169	O	0.934965	-0.520286	0.157819
O170	O	1.434965	-0.020286	0.657819
H171	H	0.974842	-0.565525	0.194819
H172	H	1.474842	-0.065525	0.694819
H173	H	1.044158	-0.539650	0.082896
H174	H	1.544158	-0.039650	0.582896
H175	H	1.047329	-0.396896	0.082180
H176	H	1.547329	0.103104	0.582180
O177	O	1.075535	-0.401220	-0.086010
O178	O	1.575535	0.098780	0.413990
H179	H	1.086415	-0.359337	-0.032291
H180	H	1.586415	0.140663	0.467709
H181	H	1.021779	-0.039916	0.382959
H182	H	1.521779	0.460084	0.882959
O183	O	1.073771	-0.098052	0.605343
O184	O	1.573771	0.401948	1.105343
H185	H	1.109292	-0.137794	0.650410
H186	H	1.609292	0.362206	1.150410
