data_functionalizedCrystal
_audit_creation_method	'MofGen! by Chris Wilmer'
_symmetry_space_group_name_H-M	'P1'
_symmetry_Int_Tables_number	1
_symmetry_cell_setting	triclinic
loop_
_symmetry_equiv_pos_as_xyz
  x,y,z
_cell_length_a	13.635800
_cell_length_b	13.563541
_cell_length_c	17.982968
_cell_angle_alpha	69.847093
_cell_angle_beta	102.451960
_cell_angle_gamma	75.295376
loop_
_atom_site_label
_atom_site_type_symbol
_atom_site_fract_x
_atom_site_fract_y
_atom_site_fract_z
V1	V	2.023037	-0.154798	0.270091
O2	O	2.000774	0.006367	0.231688
O3	O	2.013961	-0.305908	0.300233
O4	O	1.996100	-0.152887	0.373292
O5	O	2.018758	-0.147713	0.158123
V6	V	2.263246	-0.135465	0.252813
O7	O	2.157072	-0.197206	0.307992
O8	O	2.354310	-0.093057	0.214911
O9	O	2.160720	0.015645	0.222670
O10	O	2.344209	-0.296630	0.291216
O11	O	2.326224	-0.142550	0.364780
O12	O	2.178581	-0.137376	0.149611
V13	V	2.523037	-0.154798	0.270091
O14	O	2.500774	0.006367	0.231688
O15	O	2.513961	-0.305908	0.300233
O16	O	2.496100	-0.152887	0.373292
O17	O	2.518758	-0.147713	0.158123
V18	V	2.763246	-0.135465	0.252813
O19	O	2.657072	-0.197206	0.307992
O20	O	2.854310	-0.093057	0.214911
O21	O	2.660720	0.015645	0.222670
O22	O	2.844209	-0.296630	0.291216
O23	O	2.826224	-0.142550	0.364780
O24	O	2.678581	-0.137376	0.149611
C25	C	1.940229	-0.342730	0.304227
C26	C	1.973433	-0.466268	0.329560
C27	C	1.986908	-0.749790	0.108271
C28	C	1.955704	-0.633720	0.084468
C29	C	1.960135	-0.591851	0.145739
C30	C	1.995773	-0.666064	0.230817
C31	C	2.026972	-0.782145	0.254623
C32	C	2.000199	-0.624206	0.292090
C33	C	2.035837	-0.698419	0.377169
C34	C	2.067033	-0.814488	0.400970
C35	C	2.062602	-0.856357	0.339699
C36	C	1.969000	-0.508125	0.268285
C37	C	2.009064	-0.540480	0.414636
C38	C	2.040268	-0.656550	0.438440
C39	C	1.917445	-0.147535	0.397420
C40	C	1.936162	-0.146973	0.481997
C41	C	2.066123	0.052462	0.218676
C42	C	2.022538	0.175998	0.193348
C43	C	2.088907	-0.142731	0.125481
C44	C	2.059809	-0.143288	0.040901
C45	C	2.440229	-0.342730	0.304227
C46	C	2.473433	-0.466268	0.329560
C47	C	2.417445	-0.147535	0.397420
C48	C	2.436162	-0.146973	0.481997
C49	C	2.036473	-0.152277	0.526784
C50	C	2.054054	-0.151748	0.606254
C51	C	1.971325	-0.145922	0.640937
C52	C	1.871005	-0.140614	0.596143
C53	C	1.853423	-0.141135	0.516673
C54	C	1.941908	-0.138509	0.916638
C55	C	1.959499	-0.137991	0.996115
C56	C	2.142539	-0.149122	1.006218
C57	C	2.124957	-0.149643	0.926748
C58	C	2.024637	-0.144329	0.881959
C59	C	2.005575	-0.144901	0.795789
C60	C	1.990388	-0.145358	0.727108
C61	C	2.566123	0.052462	0.218676
C62	C	2.522538	0.175998	0.193348
C63	C	2.588907	-0.142731	0.125481
C64	C	2.559809	-0.143288	0.040901
C65	C	2.580568	-0.529965	0.346458
C66	C	2.611784	-0.646045	0.370274
C67	C	2.535863	-0.698424	0.377185
C68	C	2.428720	-0.634718	0.360287
C69	C	2.397507	-0.518642	0.336478
C70	C	2.536477	-0.152266	0.526768
C71	C	2.554074	-0.151723	0.606234
C72	C	2.471357	-0.145894	0.640930
C73	C	2.371033	-0.140597	0.596152
C74	C	2.353435	-0.141132	0.516686
C75	C	2.587897	0.239695	0.176452
C76	C	2.546953	0.355774	0.152640
C77	C	2.440651	0.408153	0.145731
C78	C	2.375287	0.344448	0.162626
C79	C	2.416230	0.228372	0.186432
C80	C	2.460294	-0.149104	0.006222
C81	C	2.432933	-0.149614	-0.073254
C82	C	2.505093	-0.144316	-0.118046
C83	C	2.604615	-0.138496	-0.083362
C84	C	2.631971	-0.137978	-0.003891
H85	H	1.939983	-0.447711	0.199013
H86	H	2.012670	-0.506391	0.464529
Br87	Br	2.385102	0.565688	0.113420
Br88	Br	2.683628	-0.458908	0.337091
H89	H	2.103845	-0.157029	0.498553
H90	H	1.926691	-0.573303	0.015197
H91	H	2.713009	-0.133248	0.024340
H92	H	2.363001	0.176517	0.200194
Br93	Br	2.104964	-1.013888	0.372002
H94	H	2.674457	0.197064	0.182075
H95	H	2.351894	-0.154353	-0.101481
H96	H	2.663359	-0.134179	-0.119845
Br97	Br	2.190199	-0.158960	0.667037
Br98	Br	2.757194	-0.732478	0.393199
Br99	Br	2.635678	0.442206	0.129716
H100	H	2.192327	-0.154393	0.898515
H101	H	2.561293	-0.792942	0.396573
Br102	Br	2.495258	-0.145171	0.748781
Br103	Br	2.231019	0.415552	0.153239
H104	H	1.934722	-0.497340	0.126353
H105	H	1.983298	-0.783891	0.058394
Br106	Br	2.115316	-0.915199	0.516429
Br107	Br	2.362343	-0.156296	0.066994
Br108	Br	2.088637	-0.757279	0.553901
H109	H	2.224224	-0.153444	1.042694
H110	H	1.892124	-0.133245	1.024351
H111	H	2.482810	-0.144753	-0.182751
Br112	Br	1.758727	-0.132705	0.643212
Br113	Br	1.805770	-0.131327	0.855872
Br114	Br	1.717277	-0.133920	0.455884
Br115	Br	2.252099	-0.432208	0.313542
Br116	Br	2.325695	-0.705821	0.369668
H117	H	2.603843	-0.157016	0.498530
H118	H	2.303690	-0.135852	0.624414
Br119	Br	2.690234	-0.158919	0.666988
H120	H	2.271747	-0.136824	0.480240
