data_functionalizedCrystal
_audit_creation_method	'MofGen! by Chris Wilmer'
_symmetry_space_group_name_H-M	'P1'
_symmetry_Int_Tables_number	1
_symmetry_cell_setting	triclinic
loop_
_symmetry_equiv_pos_as_xyz
  x,y,z
_cell_length_a	21.295420
_cell_length_b	29.839131
_cell_length_c	21.295411
_cell_angle_alpha	89.971982
_cell_angle_beta	89.975307
_cell_angle_gamma	90.033479
loop_
_atom_site_label
_atom_site_type_symbol
_atom_site_fract_x
_atom_site_fract_y
_atom_site_fract_z
Zn1	Zn	0.962335	-0.178925	-0.355886
Zn2	Zn	1.295668	0.154408	-0.022552
Zn3	Zn	1.629001	0.487741	0.310781
Zn4	Zn	0.962228	-0.254041	-0.250599
Zn5	Zn	1.295562	0.079292	0.082734
Zn6	Zn	1.628895	0.412626	0.416067
Zn7	Zn	0.857058	-0.178924	-0.250631
Zn8	Zn	1.190391	0.154410	0.082703
Zn9	Zn	1.523725	0.487743	0.416036
Zn10	Zn	0.857019	-0.254027	-0.355831
Zn11	Zn	1.190352	0.079306	-0.022498
Zn12	Zn	1.523685	0.412640	0.310836
O13	O	0.909660	-0.216479	-0.303237
O14	O	1.242993	0.116854	0.030097
O15	O	1.576327	0.450187	0.363430
O16	O	1.050410	-0.188896	-0.341929
O17	O	1.383743	0.144437	-0.008596
O18	O	1.717077	0.477770	0.324737
O19	O	0.948249	-0.244082	-0.162514
O20	O	1.281583	0.089252	0.170819
O21	O	1.614916	0.422585	0.504153
O22	O	0.871084	-0.116057	-0.264629
O23	O	1.204417	0.217277	0.068705
O24	O	1.537751	0.550610	0.402038
O25	O	1.050332	-0.244083	-0.264576
O26	O	1.383665	0.089250	0.068758
O27	O	1.716999	0.422583	0.402091
O28	O	0.948430	-0.116058	-0.341959
O29	O	1.281764	0.217275	-0.008626
O30	O	1.615097	0.550609	0.324707
O31	O	0.870981	-0.188893	-0.162537
O32	O	1.204314	0.144440	0.170796
O33	O	1.537648	0.477774	0.504130
O34	O	0.768963	-0.188879	-0.264576
O35	O	1.102297	0.144454	0.068758
O36	O	1.435630	0.477787	0.402091
O37	O	0.871017	-0.244059	-0.443928
O38	O	1.204350	0.089274	-0.110594
O39	O	1.537684	0.422607	0.222739
O40	O	0.768934	-0.244058	-0.341866
O41	O	1.102268	0.089276	-0.008533
O42	O	1.435601	0.422609	0.324801
O43	O	0.948392	-0.188883	-0.443968
O44	O	1.281726	0.144451	-0.110635
O45	O	1.615059	0.477784	0.222699
O46	O	0.948211	-0.316906	-0.264523
O47	O	1.281544	0.016427	0.068811
O48	O	1.614878	0.349760	0.402144
O49	O	0.870914	-0.316896	-0.341836
O50	O	1.204247	0.016437	-0.008502
O51	O	1.537581	0.349771	0.324831
C52	C	0.746108	-0.216467	-0.303219
C53	C	1.079442	0.116866	0.030115
C54	C	1.412775	0.450200	0.363448
C55	C	0.676140	-0.216473	-0.303226
C56	C	1.009474	0.116861	0.030108
C57	C	1.342807	0.450194	0.363441
C58	C	0.176684	-0.245263	-0.343443
C59	C	0.510017	0.088070	-0.010109
C60	C	0.843350	0.421403	0.323224
C61	C	0.242426	-0.245264	-0.343436
C62	C	0.575759	0.088070	-0.010103
C63	C	0.909093	0.421403	0.323231
C64	C	0.275301	-0.216489	-0.303256
C65	C	0.608634	0.116844	0.030077
C66	C	0.941967	0.450177	0.363410
C67	C	0.242427	-0.187721	-0.263069
C68	C	0.575761	0.145612	0.070264
C69	C	0.909094	0.478946	0.403598
C70	C	0.176686	-0.187725	-0.263072
C71	C	0.510019	0.145608	0.070261
C72	C	0.843353	0.478942	0.403594
N73	N	0.378546	-0.177154	-0.298530
N74	N	0.711879	0.156180	0.034803
N75	N	1.045213	0.489513	0.368137
N76	N	0.440997	-0.177151	-0.298530
N77	N	0.774331	0.156182	0.034803
N78	N	1.107664	0.489516	0.368136
C79	C	0.473375	-0.216477	-0.303243
C80	C	0.806709	0.116857	0.030090
C81	C	1.140042	0.450190	0.363424
N82	N	0.440943	-0.255806	-0.307967
N83	N	0.774276	0.077528	0.025366
N84	N	1.107609	0.410861	0.358699
N85	N	0.378486	-0.255808	-0.307970
N86	N	0.711819	0.077526	0.025363
N87	N	1.045152	0.410859	0.358697
C88	C	0.346586	-0.216482	-0.303248
C89	C	0.679919	0.116851	0.030085
C90	C	1.013253	0.450184	0.363419
C91	C	0.577526	-0.245246	-0.343418
C92	C	0.910860	0.088088	-0.010084
C93	C	1.244193	0.421421	0.323249
C94	C	0.643270	-0.245247	-0.343406
C95	C	0.976603	0.088087	-0.010073
C96	C	1.309937	0.421420	0.323260
C97	C	0.643270	-0.187700	-0.263043
C98	C	0.976603	0.145633	0.070291
C99	C	1.309937	0.478967	0.403624
C100	C	0.577528	-0.187703	-0.263051
C101	C	0.910861	0.145630	0.070283
C102	C	1.244194	0.478963	0.403616
C103	C	0.544660	-0.216475	-0.303241
C104	C	0.877993	0.116858	0.030092
C105	C	1.211326	0.450191	0.363425
C106	C	0.909564	-0.333202	-0.303184
C107	C	1.242897	0.000132	0.030150
C108	C	1.576231	0.333465	0.363483
C109	C	0.909580	-0.383136	-0.303182
C110	C	1.242914	-0.049803	0.030151
C111	C	1.576247	0.283530	0.363485
C112	C	0.949925	-0.692745	-0.343560
C113	C	1.283259	-0.359412	-0.010227
C114	C	1.616592	-0.026079	0.323107
C115	C	0.949994	-0.880419	-0.343598
C116	C	1.283327	-0.547085	-0.010265
C117	C	1.616660	-0.213752	0.323069
O118	O	0.984202	-0.904654	-0.377889
O119	O	1.317536	-0.571321	-0.044556
O120	O	1.650869	-0.237988	0.288777
N121	N	0.909767	-0.903921	-0.303306
N122	N	1.243100	-0.570588	0.030027
N123	N	1.576433	-0.237255	0.363360
C124	C	0.869517	-0.880503	-0.263006
C125	C	1.202850	-0.547170	0.070328
C126	C	1.536184	-0.213836	0.403661
O127	O	0.835299	-0.904800	-0.228741
O128	O	1.168632	-0.571466	0.104592
O129	O	1.501965	-0.238133	0.437926
C130	C	0.869446	-0.692831	-0.262972
C131	C	1.202779	-0.359497	0.070362
C132	C	1.536113	-0.026164	0.403695
C133	C	0.909680	-0.669330	-0.303261
C134	C	1.243013	-0.335997	0.030072
C135	C	1.576347	-0.002664	0.363406
C136	C	0.990156	-0.669245	-0.383847
C137	C	1.323489	-0.335912	-0.050513
C138	C	1.656822	-0.002578	0.282820
C139	C	0.990141	-0.622330	-0.383834
C140	C	1.323474	-0.288996	-0.050501
C141	C	1.656807	0.044337	0.282832
C142	C	0.949895	-0.598915	-0.343535
C143	C	1.283229	-0.265581	-0.010202
C144	C	1.616562	0.067752	0.323131
C145	C	0.909665	-0.622415	-0.303249
C146	C	1.242998	-0.289082	0.030085
C147	C	1.576332	0.044252	0.363418
C148	C	0.829193	-0.669413	-0.222674
C149	C	1.162527	-0.336080	0.110659
C150	C	1.495860	-0.002747	0.443992
C151	C	0.829178	-0.622492	-0.222671
C152	C	1.162512	-0.289159	0.110663
C153	C	1.495845	0.044174	0.443996
C154	C	0.869412	-0.598992	-0.262960
C155	C	1.202746	-0.265659	0.070373
C156	C	1.536079	0.067675	0.403707
C157	C	0.869405	-0.552084	-0.262937
C158	C	1.202738	-0.218751	0.070396
C159	C	1.536071	0.114582	0.403729
N160	N	0.909631	-0.528582	-0.303229
N161	N	1.242965	-0.195248	0.030104
N162	N	1.576298	0.138085	0.363438
C163	C	0.949877	-0.551997	-0.343528
C164	C	1.283210	-0.218663	-0.010194
C165	C	1.616543	0.114670	0.323139
C166	C	0.869558	-0.979034	-0.263026
C167	C	1.202891	-0.645700	0.070308
C168	C	1.536225	-0.312367	0.403641
C169	C	0.869576	-1.025951	-0.263033
C170	C	1.202910	-0.692618	0.070300
C171	C	1.536243	-0.359285	0.403633
C172	C	0.950052	-1.025864	-0.343626
C173	C	1.283386	-0.692530	-0.010293
C174	C	1.616719	-0.359197	0.323040
C175	C	0.950037	-0.978945	-0.343615
C176	C	1.283370	-0.645612	-0.010282
C177	C	1.616703	-0.312278	0.323052
C178	C	0.909785	-0.955531	-0.303317
C179	C	1.243118	-0.622197	0.030016
C180	C	1.576452	-0.288864	0.363350
C181	C	0.949843	-0.453471	-0.343499
C182	C	1.283176	-0.120138	-0.010165
C183	C	1.616509	0.213196	0.323168
C184	C	0.949826	-0.406551	-0.343481
C185	C	1.283159	-0.073218	-0.010148
C186	C	1.616492	0.260115	0.323186
C187	C	0.869348	-0.406643	-0.262890
C188	C	1.202681	-0.073310	0.070443
C189	C	1.536014	0.260024	0.403776
C190	C	0.869366	-0.453559	-0.262905
C191	C	1.202700	-0.120225	0.070428
C192	C	1.536033	0.213108	0.403761
C193	C	0.909616	-0.476971	-0.303215
C194	C	1.242949	-0.143638	0.030119
C195	C	1.576283	0.189695	0.363452
O196	O	0.835209	-0.527820	-0.228669
O197	O	1.168542	-0.194486	0.104664
O198	O	1.501875	0.138847	0.437998
O199	O	0.984080	-0.527692	-0.377797
O200	O	1.317414	-0.194359	-0.044464
O201	O	1.650747	0.138975	0.288869
C202	C	0.949940	-0.739661	-0.343572
C203	C	1.283274	-0.406328	-0.010239
C204	C	1.616607	-0.072994	0.323094
C205	C	0.909710	-0.763161	-0.303286
C206	C	1.243043	-0.429828	0.030048
C207	C	1.576377	-0.096495	0.363381
C208	C	0.869465	-0.739746	-0.262987
C209	C	1.202798	-0.406413	0.070347
C210	C	1.536131	-0.073080	0.403680
C211	C	0.909729	-0.810079	-0.303293
C212	C	1.243062	-0.476746	0.030040
C213	C	1.576395	-0.143412	0.363373
C214	C	0.949974	-0.833494	-0.343592
C215	C	1.283307	-0.500161	-0.010259
C216	C	1.616641	-0.166828	0.323074
C217	C	0.990201	-0.809991	-0.383884
C218	C	1.323534	-0.476658	-0.050550
C219	C	1.656867	-0.143325	0.282783
C220	C	0.990186	-0.763076	-0.383871
C221	C	1.323519	-0.429743	-0.050538
C222	C	1.656852	-0.096409	0.282795
C223	C	0.829238	-0.763249	-0.222695
C224	C	1.162571	-0.429916	0.110638
C225	C	1.495905	-0.096582	0.443971
C226	C	0.829257	-0.810164	-0.222710
C227	C	1.162590	-0.476831	0.110623
C228	C	1.495923	-0.143498	0.443956
C229	C	0.869502	-0.833580	-0.263009
C230	C	1.202835	-0.500246	0.070324
C231	C	1.536169	-0.166913	0.403657
C232	C	1.073850	-0.216492	-0.303255
C233	C	1.407183	0.116842	0.030078
C234	C	1.740517	0.450175	0.363412
C235	C	1.143818	-0.216497	-0.303263
C236	C	1.477152	0.116836	0.030070
C237	C	1.810485	0.450170	0.363404
C238	C	0.909712	-0.216470	-0.467427
C239	C	1.243045	0.116864	-0.134094
C240	C	1.576379	0.450197	0.199240
C241	C	0.909734	-0.216466	-0.537395
C242	C	1.243068	0.116868	-0.204062
C243	C	1.576401	0.450201	0.129272
C244	C	0.909773	-0.099301	-0.303304
C245	C	1.243107	0.234032	0.030030
C246	C	1.576440	0.567366	0.363363
C247	C	0.909822	-0.049366	-0.303332
C248	C	1.243155	0.283967	0.030001
C249	C	1.576488	0.617300	0.363334
C250	C	0.950022	-0.187734	-0.570284
C251	C	1.283355	0.145599	-0.236950
C252	C	1.616689	0.478933	0.096383
C253	C	0.950021	-0.187714	-0.636026
C254	C	1.283354	0.145619	-0.302693
C255	C	1.616688	0.478952	0.030640
C256	C	0.909739	-0.216435	-0.668878
C257	C	1.243073	0.116899	-0.335544
C258	C	1.576406	0.450232	-0.002211
C259	C	0.869444	-0.245169	-0.635981
C260	C	1.202777	0.088165	-0.302648
C261	C	1.536111	0.421498	0.030686
C262	C	0.869441	-0.245184	-0.570240
C263	C	1.202775	0.088149	-0.236906
C264	C	1.536108	0.421483	0.096427
N265	N	0.904878	-0.255735	-0.772087
N266	N	1.238211	0.077598	-0.438754
N267	N	1.571545	0.410932	-0.105420
N268	N	0.904884	-0.255719	-0.834538
N269	N	1.238217	0.077614	-0.501205
N270	N	1.571551	0.410948	-0.167872
C271	C	0.909743	-0.216389	-0.866953
C272	C	1.243077	0.116944	-0.533619
C273	C	1.576410	0.450277	-0.200286
N274	N	0.914609	-0.177075	-0.834556
N275	N	1.247942	0.156258	-0.501223
N276	N	1.581275	0.489592	-0.167889
N277	N	0.914606	-0.177091	-0.772099
N278	N	1.247939	0.156242	-0.438765
N279	N	1.581272	0.489575	-0.105432
C280	C	0.909737	-0.216421	-0.740163
C281	C	1.243070	0.116912	-0.406830
C282	C	1.576404	0.450246	-0.073496
C283	C	0.950032	-0.187634	-0.971127
C284	C	1.283365	0.145699	-0.637793
C285	C	1.616699	0.479033	-0.304460
C286	C	0.950027	-0.187614	-1.036871
C287	C	1.283360	0.145720	-0.703537
C288	C	1.616693	0.479053	-0.370204
C289	C	0.869453	-0.245072	-1.036824
C290	C	1.202786	0.088262	-0.703491
C291	C	1.536120	0.421595	-0.370157
C292	C	0.869455	-0.245088	-0.971082
C293	C	1.202788	0.088245	-0.637748
C294	C	1.536122	0.421579	-0.304415
C295	C	0.909748	-0.216370	-0.938237
C296	C	1.243081	0.116964	-0.604904
C297	C	1.576414	0.450297	-0.271570
C298	C	0.909644	-0.216456	-0.139685
C299	C	1.242977	0.116877	0.193648
C300	C	1.576311	0.450210	0.526982
C301	C	0.909744	-0.216334	-0.069717
C302	C	1.243077	0.117000	0.263616
C303	C	1.576410	0.450333	0.596949
H304	H	0.149927	-0.268693	-0.376167
H305	H	0.483260	0.064640	-0.042833
H306	H	0.816593	0.397973	0.290500
H307	H	1.022948	-0.743945	-0.416679
H308	H	1.356281	-0.410612	-0.083346
H309	H	1.689615	-0.077279	0.249988
H310	H	0.836648	-0.268452	-1.063571
H311	H	1.169982	0.064881	-0.730238
H312	H	1.503315	0.398215	-0.396904
C313	C	0.825121	-0.276794	-0.534061
C314	C	1.158455	0.056540	-0.200728
C315	C	1.491788	0.389873	0.132605
N316	N	0.791740	-0.300603	-0.506811
N317	N	1.125073	0.032730	-0.173477
N318	N	1.458406	0.366063	0.159856
C319	C	0.541374	-0.156052	-0.218857
C320	C	0.874708	0.177282	0.114476
C321	C	1.208041	0.510615	0.447809
N322	N	0.514144	-0.132210	-0.185569
N323	N	0.847477	0.201123	0.147764
N324	N	1.180810	0.534456	0.481097
H325	H	1.022972	-0.829064	-0.416694
H326	H	1.356306	-0.495731	-0.083361
H327	H	1.689639	-0.162398	0.249972
H328	H	0.550764	-0.268674	-0.376142
H329	H	0.884097	0.064659	-0.042809
H330	H	1.217431	0.397993	0.290524
C331	C	0.994349	-0.156039	-0.934995
C332	C	1.327682	0.177294	-0.601662
C333	C	1.661016	0.510627	-0.268329
N334	N	1.027728	-0.132242	-0.907783
N335	N	1.361061	0.201092	-0.574450
N336	N	1.694395	0.534425	-0.241116
H337	H	0.982833	-0.164214	-1.063647
H338	H	1.316166	0.169119	-0.730314
H339	H	1.649499	0.502453	-0.396981
H340	H	0.796398	-0.603431	-0.189856
H341	H	1.129732	-0.270097	0.143478
H342	H	1.463065	0.063236	0.476811
H343	H	0.836652	-0.268487	-0.944303
H344	H	1.169985	0.064846	-0.610970
H345	H	1.503319	0.398179	-0.277637
H346	H	0.982827	-0.164315	-0.662809
H347	H	1.316160	0.169018	-0.329476
H348	H	1.649493	0.502352	0.003857
C349	C	0.278585	-0.276907	-0.387643
C350	C	0.611919	0.056427	-0.054309
C351	C	0.945252	0.389760	0.279024
N352	N	0.305819	-0.300739	-0.420941
N353	N	0.639152	0.032594	-0.087608
N354	N	0.972485	0.365927	0.245725
C355	C	1.034404	-0.596485	-0.428154
C356	C	1.367737	-0.263152	-0.094821
C357	C	1.701070	0.070181	0.238512
N358	N	1.067746	-0.577022	-0.461538
N359	N	1.401079	-0.243689	-0.128205
N360	N	1.734412	0.089644	0.205129
H361	H	0.149927	-0.164299	-0.230353
H362	H	0.483261	0.169035	0.102980
H363	H	0.816594	0.502368	0.436314
C364	C	0.994319	-1.051629	-0.387959
C365	C	1.327653	-0.718296	-0.054626
C366	C	1.660986	-0.384962	0.278707
N367	N	1.027655	-1.071038	-0.421353
N368	N	1.360989	-0.737704	-0.088019
N369	N	1.694322	-0.404371	0.245314
H370	H	0.269198	-0.164294	-0.230354
H371	H	0.602531	0.169040	0.102980
H372	H	0.935865	0.502373	0.436313
H373	H	0.670028	-0.268675	-0.376124
H374	H	1.003361	0.064659	-0.042790
H375	H	1.336695	0.397992	0.290543
H376	H	0.670036	-0.164273	-0.230326
H377	H	1.003369	0.169060	0.103008
H378	H	1.336703	0.502393	0.436341
H379	H	0.982591	-0.387419	-0.376289
H380	H	1.315925	-0.054085	-0.042956
H381	H	1.649258	0.279248	0.290377
H382	H	0.796494	-0.829294	-0.189896
H383	H	1.129828	-0.495961	0.143438
H384	H	1.463161	-0.162628	0.476771
H385	H	0.982613	-0.472528	-0.376327
H386	H	1.315947	-0.139195	-0.042993
H387	H	1.649280	0.194139	0.290340
H388	H	1.022928	-0.688305	-0.416667
H389	H	1.356261	-0.354971	-0.083333
H390	H	1.689595	-0.021638	0.250000
C391	C	0.994337	-0.156137	-0.534158
C392	C	1.327670	0.177197	-0.200825
C393	C	1.661004	0.510530	0.132508
N394	N	1.027713	-0.132336	-0.506948
N395	N	1.361046	0.200998	-0.173614
N396	N	1.694380	0.534331	0.159719
H397	H	0.796431	-0.688539	-0.189866
H398	H	1.129764	-0.355206	0.143467
H399	H	1.463097	-0.021873	0.476801
H400	H	0.836821	-1.045081	-0.230219
H401	H	1.170154	-0.711748	0.103115
H402	H	1.503487	-0.378415	0.436448
H403	H	0.796464	-0.744188	-0.189880
H404	H	1.129798	-0.410855	0.143454
H405	H	1.463131	-0.077521	0.476787
C406	C	0.994294	-0.953099	-0.387939
C407	C	1.327628	-0.619766	-0.054605
C408	C	1.660961	-0.286432	0.278728
N409	N	1.027630	-0.933634	-0.421326
N410	N	1.360963	-0.600301	-0.087993
N411	N	1.694297	-0.266967	0.245340
H412	H	0.836779	-0.959973	-0.230208
H413	H	1.170113	-0.626639	0.103125
H414	H	1.503446	-0.293306	0.436458
H415	H	0.836610	-0.472694	-0.230094
H416	H	1.169943	-0.139360	0.103240
H417	H	1.503276	0.193973	0.436573
C418	C	0.825077	-0.380878	-0.218566
C419	C	1.158411	-0.047544	0.114767
C420	C	1.491744	0.285789	0.448100
N421	N	0.791728	-0.361469	-0.185185
N422	N	1.125062	-0.028136	0.148148
N423	N	1.458395	0.305197	0.481482
C424	C	0.825131	-0.276759	-0.672119
C425	C	1.158464	0.056574	-0.338786
C426	C	1.491798	0.389908	-0.005452
N427	N	0.791751	-0.300552	-0.699338
N428	N	1.125084	0.032781	-0.366005
N429	N	1.458417	0.366114	-0.032671
