data_functionalizedCrystal
_audit_creation_method	'MofGen! by Chris Wilmer'
_symmetry_space_group_name_H-M	'P1'
_symmetry_Int_Tables_number	1
_symmetry_cell_setting	triclinic
loop_
_symmetry_equiv_pos_as_xyz
  x,y,z
_cell_length_a	29.839125
_cell_length_b	21.295418
_cell_length_c	21.295417
_cell_angle_alpha	89.951286
_cell_angle_beta	89.981013
_cell_angle_gamma	90.035570
loop_
_atom_site_label
_atom_site_type_symbol
_atom_site_fract_x
_atom_site_fract_y
_atom_site_fract_z
Zn1	Zn	-0.254284	-0.962279	-0.250392
Zn2	Zn	-0.179152	-0.962204	-0.355639
Zn3	Zn	-0.179136	-0.857025	-0.250421
Zn4	Zn	-0.254223	-0.856972	-0.355660
O5	O	-0.216699	-0.909620	-0.303028
O6	O	-0.244350	-1.050359	-0.264332
O7	O	-0.116283	-0.948243	-0.341684
O8	O	-0.189123	-0.871041	-0.162327
O9	O	-0.189151	-1.050304	-0.341656
O10	O	-0.244334	-0.948371	-0.162306
O11	O	-0.116271	-0.870968	-0.264381
O12	O	-0.189064	-0.768929	-0.264402
O13	O	-0.317098	-0.870950	-0.341693
O14	O	-0.244230	-0.768890	-0.341721
O15	O	-0.317143	-0.948319	-0.264353
O16	O	-0.189092	-0.948191	-0.443731
O17	O	-0.244246	-0.870878	-0.443747
C18	C	-0.216639	-0.746069	-0.303068
C19	C	-0.216624	-0.676100	-0.303100
C20	C	-0.245304	-0.643230	-0.343415
C21	C	-0.245321	-0.577487	-0.343402
C22	C	-0.216649	-0.544618	-0.303081
C23	C	-0.187967	-0.577496	-0.262758
C24	C	-0.187954	-0.643238	-0.262768
N25	N	-0.177351	-0.441354	-0.298156
N26	N	-0.177364	-0.378902	-0.298150
C27	C	-0.216687	-0.346543	-0.303049
N28	N	-0.255996	-0.378995	-0.307966
N29	N	-0.255982	-0.441452	-0.307974
C30	C	-0.216660	-0.473333	-0.303066
C31	C	-0.245388	-0.242387	-0.343352
C32	C	-0.245405	-0.176644	-0.343335
C33	C	-0.188047	-0.176654	-0.262695
C34	C	-0.188034	-0.242396	-0.262709
C35	C	-0.216703	-0.275259	-0.303041
C36	C	-0.333877	-0.909637	-0.303022
C37	C	-0.383812	-0.909645	-0.303020
C38	C	-0.693481	-0.949973	-0.262643
C39	C	-0.881155	-0.950004	-0.262589
O40	O	-0.905442	-0.984246	-0.228319
N41	N	-0.904597	-0.909728	-0.302851
C42	C	-0.881118	-0.869438	-0.343126
O43	O	-0.905363	-0.835177	-0.377365
C44	C	-0.693446	-0.869404	-0.343176
C45	C	-0.670006	-0.909688	-0.302916
C46	C	-0.670042	-0.990252	-0.222386
C47	C	-0.623126	-0.990247	-0.222402
C48	C	-0.599651	-0.949961	-0.262676
C49	C	-0.623090	-0.909682	-0.302933
C50	C	-0.669968	-0.829112	-0.383448
C51	C	-0.623047	-0.829106	-0.383455
C52	C	-0.599607	-0.869389	-0.343196
C53	C	-0.552699	-0.869391	-0.343222
N54	N	-0.529257	-0.909667	-0.302960
C55	C	-0.552733	-0.949952	-0.262687
C56	C	-0.979649	-0.869460	-0.343098
C57	C	-1.026567	-0.869469	-0.343086
C58	C	-1.026600	-0.950034	-0.262549
C59	C	-0.979681	-0.950028	-0.262564
C60	C	-0.956206	-0.909736	-0.302836
C61	C	-0.454207	-0.949937	-0.262725
C62	C	-0.407287	-0.949930	-0.262746
C63	C	-0.407258	-0.869363	-0.343282
C64	C	-0.454173	-0.869372	-0.343262
C65	C	-0.477647	-0.909662	-0.302979
O66	O	-0.528383	-0.835162	-0.377469
O67	O	-0.528479	-0.984198	-0.228443
C68	C	-0.740397	-0.949979	-0.262627
C69	C	-0.763837	-0.909699	-0.302884
C70	C	-0.740361	-0.869414	-0.343157
C71	C	-0.810755	-0.909708	-0.302872
C72	C	-0.834230	-0.949994	-0.262599
C73	C	-0.810788	-0.990270	-0.222337
C74	C	-0.763873	-0.990264	-0.222353
C75	C	-0.763803	-0.829138	-0.383419
C76	C	-0.810719	-0.829147	-0.383400
C77	C	-0.834195	-0.869433	-0.343127
C78	C	-0.099976	-0.909640	-0.302988
C79	C	-0.050042	-0.909754	-0.302813
C80	C	-0.216674	-0.909538	-0.466579
C81	C	-0.216678	-0.909560	-0.536547
C82	C	-0.216746	-0.073811	-0.302999
C83	C	-0.216734	-0.143779	-0.303013
C84	C	-0.187989	-0.949853	-0.569385
C85	C	-0.187999	-0.949883	-0.635127
C86	C	-0.216694	-0.909608	-0.668030
C87	C	-0.245389	-0.869312	-0.635185
C88	C	-0.245381	-0.869288	-0.569443
N89	N	-0.220098	-0.854540	-0.771314
N90	N	-0.220103	-0.854564	-0.833766
C91	C	-0.216720	-0.909678	-0.866105
N92	N	-0.213322	-0.964768	-0.833633
N93	N	-0.213315	-0.964743	-0.771176
C94	C	-0.216706	-0.909630	-0.739315
C95	C	-0.188040	-0.950007	-0.970228
C96	C	-0.188053	-0.950037	-1.035971
C97	C	-0.245440	-0.869461	-1.036027
C98	C	-0.245429	-0.869436	-0.970285
C99	C	-0.216727	-0.909708	-0.937389
C100	C	-0.216734	-0.909720	-0.138837
C101	C	-0.216748	-0.909763	-0.068869
H102	H	-0.164599	-0.670001	-0.229937
N103	N	-0.276323	-0.825820	-0.534027
H104	H	-0.258033	-0.796656	-0.506801
H105	H	-0.297157	-0.851413	-0.506738
N106	N	-0.276309	-0.277838	-0.386848
H107	H	-0.294484	-0.247036	-0.412383
H108	H	-0.297127	-0.305169	-0.361273
H109	H	-0.604046	-1.023048	-0.189617
H110	H	-0.603936	-0.796288	-0.416244
H111	H	-0.960540	-0.836650	-0.375897
N112	N	-0.157038	-0.542046	-0.219277
H113	H	-0.164070	-0.553534	-0.174314
H114	H	-0.161412	-0.495423	-0.225447
N115	N	-0.276339	-0.141187	-0.386822
H116	H	-0.294496	-0.171984	-0.412374
H117	H	-0.258013	-0.113859	-0.415904
N118	N	-0.695357	-1.033700	-0.178938
H119	H	-0.673382	-1.059209	-0.153439
H120	H	-0.714832	-1.062825	-0.204543
N121	N	-0.381933	-0.825915	-0.386719
H122	H	-0.348655	-0.832026	-0.380615
H123	H	-0.390117	-0.780965	-0.376927
N124	N	-0.157045	-0.993332	-0.670553
H125	H	-0.161404	-0.987232	-0.717192
H126	H	-0.164070	-1.038283	-0.659010
H127	H	-0.268806	-0.836671	-1.062816
N128	N	-0.157105	-0.993496	-1.071390
H129	H	-0.161466	-0.987404	-1.118029
H130	H	-0.164134	-1.038443	-1.059837
H131	H	-0.829910	-1.023074	-0.189547
N132	N	-0.276370	-0.825972	-0.934862
H133	H	-0.294549	-0.800461	-0.965680
H134	H	-0.258050	-0.796850	-0.907635
N135	N	-0.954401	-0.993475	-0.219142
H136	H	-0.976397	-1.018996	-0.193631
H137	H	-0.934930	-0.967868	-0.190018
H138	H	-0.744792	-1.023067	-0.189569
N139	N	-0.276225	-0.678675	-0.386913
H140	H	-0.294397	-0.647871	-0.412451
H141	H	-0.297045	-0.706003	-0.361340
N142	N	-0.276256	-0.542023	-0.386885
H143	H	-0.294417	-0.572818	-0.412435
H144	H	-0.257933	-0.514696	-0.415970
N145	N	-0.276333	-0.825867	-0.670670
H146	H	-0.294507	-0.800336	-0.639889
H147	H	-0.297151	-0.851478	-0.697904
H148	H	-0.164704	-0.149892	-0.229862
H149	H	-0.164670	-0.982801	-0.943443
N150	N	-1.051924	-0.993486	-0.219111
H151	H	-1.085202	-0.987376	-0.225216
H152	H	-1.043726	-0.983710	-0.174158
N153	N	-0.479458	-0.825934	-0.386692
H154	H	-0.457465	-0.800415	-0.412209
H155	H	-0.498913	-0.796818	-0.361068
H156	H	-0.829800	-0.796345	-0.416190
H157	H	-0.164619	-0.982646	-0.542603
N158	N	-0.157102	-0.277855	-0.219222
H159	H	-0.138942	-0.247058	-0.193674
H160	H	-0.136271	-0.305083	-0.244799
N161	N	-1.051846	-0.826030	-0.386518
H162	H	-1.029850	-0.800509	-0.412029
H163	H	-1.071304	-0.796915	-0.360898
H164	H	-0.744694	-0.796333	-0.416216
H165	H	-0.388205	-0.982736	-0.229961
H166	H	-0.473313	-0.982743	-0.229920
H167	H	-0.689044	-0.796309	-0.416231
