data_functionalizedCrystal
_audit_creation_method	'MofGen! by Chris Wilmer'
_symmetry_space_group_name_H-M	'P1'
_symmetry_Int_Tables_number	1
_symmetry_cell_setting	triclinic
loop_
_symmetry_equiv_pos_as_xyz
  x,y,z
_cell_length_a	14.908571
_cell_length_b	18.050589
_cell_length_c	14.908854
_cell_angle_alpha	86.674519
_cell_angle_beta	89.795614
_cell_angle_gamma	86.724558
loop_
_atom_site_label
_atom_site_type_symbol
_atom_site_fract_x
_atom_site_fract_y
_atom_site_fract_z
Zn1	Zn	1.345260	-0.331729	-0.587611
Zn2	Zn	1.353813	-0.463481	-0.437254
Zn3	Zn	1.203569	-0.332572	-0.428605
Zn4	Zn	1.194848	-0.449140	-0.578908
O5	O	1.274372	-0.394231	-0.508095
O6	O	1.472220	-0.354856	-0.574928
O7	O	1.341112	-0.452470	-0.310279
O8	O	1.222436	-0.228538	-0.449720
O9	O	1.478504	-0.451653	-0.464461
O10	O	1.326535	-0.227919	-0.566541
O11	O	1.230729	-0.356292	-0.303925
O12	O	1.076587	-0.342386	-0.441282
O13	O	1.207571	-0.427211	-0.705890
O14	O	1.070179	-0.428028	-0.551709
O15	O	1.318078	-0.340950	-0.712284
O16	O	1.332655	-0.565501	-0.456022
O17	O	1.215864	-0.554965	-0.560095
C18	C	1.040758	-0.383743	-0.494613
C19	C	0.940816	-0.379273	-0.488866
C20	C	0.746398	-0.460207	-0.592902
C21	C	0.652493	-0.456010	-0.587506
C22	C	0.659099	-0.366676	-0.472683
C23	C	0.753004	-0.370874	-0.478079
C24	C	0.796650	-0.417642	-0.538190
C25	C	0.890557	-0.421843	-0.543581
C26	C	0.897161	-0.332506	-0.428764
C27	C	0.803256	-0.328309	-0.423368
C28	C	1.274265	-0.587179	-0.508073
C29	C	1.274299	-0.669725	-0.508099
C30	C	1.210849	-0.863477	-0.564676
C31	C	1.193663	-0.916061	-0.481365
C32	C	1.274387	-0.820858	-0.508116
C33	C	1.291616	-0.915358	-0.591439
C34	C	1.274469	-0.966846	-0.508139
C35	C	1.257161	-0.872356	-0.424759
C36	C	1.355148	-0.871647	-0.534890
C37	C	1.337998	-0.924213	-0.451524
C38	C	1.274337	-0.736758	-0.508104
C39	C	1.274520	-1.050945	-0.508143
C40	C	1.508899	-0.404760	-0.521630
C41	C	1.608840	-0.409247	-0.527398
C42	C	1.260897	-0.382387	-0.742625
C43	C	1.255155	-0.377339	-0.842568
C44	C	1.274504	-0.200529	-0.508137
C45	C	1.274560	-0.117985	-0.508155
C46	C	1.359327	-0.468004	-1.036991
C47	C	1.353935	-0.463264	-1.130896
C48	C	1.238983	-0.363117	-1.124286
C49	C	1.244375	-0.367857	-1.030381
C50	C	1.304548	-0.420303	-0.986736
C51	C	1.309936	-0.425046	-0.892829
C52	C	1.194989	-0.324895	-0.886221
C53	C	1.189596	-0.320155	-0.980126
C54	C	1.287847	-0.405977	-0.274480
C55	C	1.293764	-0.410823	-0.174547
H56	H	0.938086	-0.297848	-0.384211
C57	C	0.675048	-0.278788	-0.359734
C58	C	0.611113	-0.315268	-0.406620
H59	H	0.645421	-0.247047	-0.318954
H60	H	0.713627	-0.314478	-0.327373
H61	H	0.709448	-0.250089	-0.401080
H62	H	0.576717	-0.343971	-0.365274
H63	H	0.572519	-0.279573	-0.438982
C64	C	1.092948	-0.883543	-0.668313
C65	C	1.138221	-0.827721	-0.629143
H66	H	1.048108	-0.861467	-0.708104
H67	H	1.134488	-0.913602	-0.700779
H68	H	1.065533	-0.913410	-0.622618
H69	H	1.165642	-0.797857	-0.674838
H70	H	1.096674	-0.797649	-0.596676
C71	C	0.989243	-0.430921	-0.670576
C72	C	0.938539	-0.473246	-0.609653
H73	H	1.018867	-0.462657	-0.711365
H74	H	0.950650	-0.395236	-0.702926
H75	H	1.032610	-0.406177	-0.638752
H76	H	0.895167	-0.497986	-0.641477
H77	H	0.977135	-0.508945	-0.577301
C78	C	1.102808	-1.020164	-0.450358
C79	C	1.101516	-0.942518	-0.450798
H80	H	1.045920	-1.036494	-0.431487
H81	H	1.115450	-1.035565	-0.509149
H82	H	1.147922	-1.041093	-0.410127
H83	H	1.056406	-0.921589	-0.491035
H84	H	1.088863	-0.927110	-0.391999
H85	H	1.391769	-0.950562	-0.403644
H86	H	1.423390	-0.852037	-0.557555
C87	C	1.111994	-0.342030	-1.222940
C88	C	1.172857	-0.305465	-1.172276
H89	H	1.071172	-0.306435	-1.252564
H90	H	1.143851	-0.369759	-1.266299
H91	H	1.079672	-0.374684	-1.184312
H92	H	1.205184	-0.272814	-1.210906
H93	H	1.140996	-0.277723	-1.128913
C94	C	1.225356	-0.908976	-0.271057
C95	C	1.237423	-0.846842	-0.329611
H96	H	1.213174	-0.893223	-0.212319
H97	H	1.176332	-0.935039	-0.291122
H98	H	1.278385	-0.940799	-0.270011
H99	H	1.184391	-0.815022	-0.330663
H100	H	1.286451	-0.820768	-0.309541
C101	C	0.851258	-0.564221	-0.611251
C102	C	0.794379	-0.511618	-0.658967
H103	H	0.880872	-0.595962	-0.652039
H104	H	0.894623	-0.539467	-0.579452
H105	H	0.816848	-0.592916	-0.569912
H106	H	0.828790	-0.482918	-0.700302
H107	H	0.751008	-0.536374	-0.690782
H108	H	0.611581	-0.490669	-0.632060
C109	C	1.322522	-0.878892	-0.745382
C110	C	1.311254	-0.940997	-0.686550
H111	H	1.334647	-0.894721	-0.804098
H112	H	1.269221	-0.847408	-0.746331
H113	H	1.371352	-0.852435	-0.725622
H114	H	1.262420	-0.967451	-0.706306
H115	H	1.364562	-0.972493	-0.685603
H116	H	0.767706	-0.290230	-0.374430
H117	H	1.358936	-0.467746	-0.857296
C118	C	1.472398	-0.566530	-1.052952
C119	C	1.425459	-0.525656	-0.989010
H120	H	1.513227	-0.602120	-1.023330
H121	H	1.431098	-0.591324	-1.087312
H122	H	1.504715	-0.533864	-1.091571
H123	H	1.393137	-0.558322	-0.950396
H124	H	1.466765	-0.500861	-0.954636
C125	C	1.468819	-0.473673	-1.243463
C126	C	1.414153	-0.515698	-1.186134
H127	H	1.506002	-0.506046	-1.277559
H128	H	1.432212	-0.441773	-1.282897
H129	H	1.505329	-0.444708	-1.208810
H130	H	1.377638	-0.544659	-1.220788
H131	H	1.450764	-0.547611	-1.146696
C132	C	1.152205	-0.287692	-0.739337
C133	C	1.134770	-0.272458	-0.830979
H134	H	1.115030	-0.255319	-0.705235
H135	H	1.139900	-0.337771	-0.723185
H136	H	1.213510	-0.280306	-0.727440
H137	H	1.073466	-0.279849	-0.842877
H138	H	1.147069	-0.222367	-0.847137
C139	C	1.062591	-0.299085	-1.078757
C140	C	1.123454	-0.262511	-1.028105
H141	H	1.021753	-0.263497	-1.108370
H142	H	1.094446	-0.326807	-1.122124
H143	H	1.030286	-0.331748	-1.040123
H144	H	1.155763	-0.229852	-1.066740
H145	H	1.091595	-0.234776	-0.984733
