data_functionalizedCrystal
_audit_creation_method	'MofGen! by Chris Wilmer'
_symmetry_space_group_name_H-M	'P1'
_symmetry_Int_Tables_number	1
_symmetry_cell_setting	triclinic
loop_
_symmetry_equiv_pos_as_xyz
  x,y,z
_cell_length_a	19.121102
_cell_length_b	19.120786
_cell_length_c	19.120904
_cell_angle_alpha	90.133503
_cell_angle_beta	89.911827
_cell_angle_gamma	89.915559
loop_
_atom_site_label
_atom_site_type_symbol
_atom_site_fract_x
_atom_site_fract_y
_atom_site_fract_z
Zn1	Zn	1.040890	-0.342335	0.426845
Zn2	Zn	1.041233	-0.454595	0.304618
Zn3	Zn	0.929064	-0.332381	0.305071
Zn4	Zn	0.919063	-0.454124	0.416841
O5	O	0.982562	-0.395859	0.363344
O6	O	1.138863	-0.361590	0.414628
O7	O	1.030682	-0.434414	0.206750
O8	O	0.947940	-0.235771	0.325601
O9	O	1.139115	-0.444066	0.324828
O10	O	1.030098	-0.243084	0.415067
O11	O	0.948273	-0.344624	0.207082
O12	O	0.829810	-0.344168	0.315901
O13	O	0.930895	-0.443264	0.516097
O14	O	0.822462	-0.433612	0.398018
O15	O	1.020400	-0.361133	0.523446
O16	O	1.020985	-0.552463	0.315128
O17	O	0.931227	-0.552118	0.397578
C18	C	0.800745	-0.387759	0.355923
C19	C	0.722961	-0.384312	0.352765
C20	C	0.975076	-0.577684	0.355235
C21	C	0.971937	-0.655474	0.351792
C22	C	0.682611	-0.429326	0.393961
C23	C	0.609525	-0.426077	0.390997
C24	C	0.576790	-0.377818	0.346832
C25	C	0.617145	-0.332800	0.305634
C26	C	0.690230	-0.336045	0.308602
C27	C	0.356312	-0.365683	0.335738
C28	C	0.283222	-0.362442	0.332771
C29	C	0.275607	-0.455719	0.418136
C30	C	0.348693	-0.458963	0.421097
C31	C	0.389042	-0.413942	0.379902
C32	C	0.502085	-0.374498	0.343800
C33	C	0.463746	-0.417260	0.382938
C34	C	1.013202	-0.695766	0.396790
C35	C	1.010249	-0.768858	0.393556
C36	C	0.966034	-0.801655	0.345320
C37	C	0.924764	-0.761357	0.300320
C38	C	0.927714	-0.688267	0.303558
C39	C	0.954987	-1.022152	0.333214
C40	C	0.952042	-1.095247	0.329978
C41	C	1.037525	-1.102743	0.423215
C42	C	1.040474	-1.029652	0.426446
C43	C	0.999202	-0.989360	0.381449
C44	C	0.963016	-0.876366	0.342011
C45	C	1.002216	-0.914650	0.384761
C46	C	1.165090	-0.403991	0.370793
C47	C	1.242873	-0.407456	0.373968
C48	C	0.974494	-0.403257	0.545873
C49	C	0.971055	-0.406409	0.623656
C50	C	0.990096	-0.213325	0.371500
C51	C	0.993307	-0.135540	0.374976
C52	C	0.990642	-0.388441	0.181528
C53	C	0.994224	-0.385098	0.103760
C54	C	1.016038	-0.365131	0.664026
C55	C	1.012799	-0.368090	0.737112
C56	C	0.964579	-0.412331	0.769826
C57	C	0.919592	-0.453611	0.729450
C58	C	0.922828	-0.450648	0.656366
C59	C	0.952473	-0.423414	0.990300
C60	C	0.949242	-0.426376	1.063390
C61	C	1.042448	-0.340853	1.071046
C62	C	1.045683	-0.337897	0.997961
C63	C	1.000693	-0.379174	0.957592
C64	C	0.961269	-0.415359	0.844530
C65	C	1.004001	-0.376143	0.882888
H66	H	0.576675	-0.462733	0.424543
C67	C	0.539503	-0.315461	0.208619
C68	C	0.581164	-0.279750	0.257089
H69	H	0.517295	-0.282708	0.178647
H70	H	0.505016	-0.341799	0.232730
H71	H	0.567950	-0.346084	0.181601
H72	H	0.552717	-0.249130	0.284110
H73	H	0.615656	-0.253399	0.232976
H74	H	0.921382	-0.989352	0.296574
C75	C	0.333821	-0.550834	0.505183
C76	C	0.384673	-0.512010	0.469647
H77	H	0.356036	-0.583581	0.535157
H78	H	0.305561	-0.575050	0.472300
H79	H	0.305388	-0.520199	0.532202
H80	H	0.413103	-0.542644	0.442623
H81	H	0.412945	-0.487792	0.502534
C82	C	1.056008	-0.247236	0.648217
C83	C	1.069041	-0.316497	0.628071
H84	H	1.088727	-0.217210	0.626018
H85	H	1.060519	-0.243100	0.697515
H86	H	1.009940	-0.234424	0.634770
H87	H	1.115107	-0.329310	0.641523
H88	H	1.064535	-0.320636	0.578762
H89	H	0.709258	-0.468626	0.429923
C90	C	0.160192	-0.492159	0.451496
C91	C	0.231254	-0.505198	0.463423
H92	H	0.132812	-0.522703	0.479462
H93	H	0.149868	-0.499894	0.403527
H94	H	0.149702	-0.445038	0.463424
H95	H	0.241745	-0.552317	0.451490
H96	H	0.241583	-0.497468	0.511403
C97	C	0.298087	-0.270554	0.248696
C98	C	0.247239	-0.309388	0.284225
H99	H	0.275871	-0.237801	0.218730
H100	H	0.326521	-0.301177	0.221675
H101	H	0.326348	-0.246337	0.281588
H102	H	0.218981	-0.333609	0.251333
H103	H	0.218793	-0.278761	0.311247
C104	C	0.902343	-0.550647	0.807030
C105	C	0.866588	-0.502243	0.765407
H106	H	0.869620	-0.580673	0.829223
H107	H	0.928664	-0.526487	0.841530
H108	H	0.932988	-0.577615	0.778560
H109	H	0.835947	-0.475271	0.793877
H110	H	0.840255	-0.526405	0.730902
H111	H	0.909974	-0.462404	1.090023
H112	H	0.922012	-0.451384	0.871174
H113	H	0.475424	-0.335207	0.307839
H114	H	1.084950	-0.301873	0.971331
C115	C	0.442786	-0.274789	0.333706
C116	C	0.400661	-0.316202	0.290453
H117	H	0.470164	-0.244239	0.305746
H118	H	0.472737	-0.303993	0.360428
H119	H	0.414022	-0.248041	0.364270
H120	H	0.429425	-0.342954	0.259893
H121	H	0.370706	-0.286994	0.263719
H122	H	0.886192	-0.484254	0.623497
C123	C	0.878819	-0.861621	0.250169
C124	C	0.914418	-0.912419	0.288988
H125	H	0.848813	-0.883882	0.217440
H126	H	0.911663	-0.833373	0.225933
H127	H	0.851828	-0.833165	0.280810
H128	H	0.941413	-0.940871	0.258348
H129	H	0.881570	-0.940679	0.313225
C130	C	0.811659	-0.659225	0.265532
C131	C	0.882354	-0.643974	0.254095
H132	H	0.783655	-0.631883	0.234994
H133	H	0.799794	-0.648687	0.312650
H134	H	0.803585	-0.707450	0.256697
H135	H	0.890429	-0.595750	0.262936
H136	H	0.894224	-0.654507	0.206966
C137	C	0.690421	-0.243530	0.223914
C138	C	0.734586	-0.286571	0.263311
H139	H	0.717806	-0.212989	0.195951
H140	H	0.661675	-0.216778	0.254481
H141	H	0.661840	-0.271635	0.194584
H142	H	0.763164	-0.258465	0.292645
H143	H	0.763344	-0.313324	0.232741
H144	H	0.490402	-0.456549	0.418900
C145	C	1.097392	-0.710525	0.488633
C146	C	1.061800	-0.659719	0.449816
H147	H	1.127389	-0.688271	0.521374
H148	H	1.124384	-0.738974	0.457998
H149	H	1.064537	-0.738779	0.512861
H150	H	1.094655	-0.631469	0.425584
H151	H	1.034807	-0.631259	0.480456
C152	C	1.012437	-0.855245	0.484461
C153	C	1.055616	-0.813141	0.443018
H154	H	1.040449	-0.882578	0.515002
H155	H	0.985690	-0.885241	0.455278
H156	H	0.981896	-0.826468	0.511220
H157	H	1.086154	-0.841918	0.416256
H158	H	1.082375	-0.783142	0.472206
C159	C	0.861579	-0.425598	0.903837
C160	C	0.903025	-0.468783	0.945925
H161	H	0.831049	-0.453609	0.876440
H162	H	0.890761	-0.398830	0.873902
H163	H	0.834810	-0.395076	0.932627
H164	H	0.929799	-0.499302	0.917135
H165	H	0.873840	-0.495563	0.975863
C166	C	1.021245	-0.279113	0.805304
C167	C	1.057002	-0.327512	0.846931
H168	H	1.053968	-0.249095	0.783099
H169	H	0.990609	-0.252141	0.833768
H170	H	0.994916	-0.303282	0.770806
H171	H	1.083326	-0.303344	0.881432
H172	H	1.087650	-0.354488	0.818466
H173	H	1.079075	-0.307247	1.103923
C174	C	1.124677	-1.044406	0.518281
C175	C	1.089079	-0.993603	0.479467
H176	H	1.154683	-1.022149	0.551013
H177	H	1.151661	-1.072859	0.487642
H178	H	1.091826	-1.072656	0.542519
H179	H	1.121929	-0.965356	0.455224
H180	H	1.062093	-0.965138	0.510109
C181	C	1.070957	-1.218113	0.459658
C182	C	1.082883	-1.147034	0.472681
H183	H	1.098956	-1.245455	0.490202
H184	H	1.082836	-1.228649	0.412543
H185	H	1.022992	-1.228443	0.467409
H186	H	1.130848	-1.136703	0.464925
H187	H	1.071009	-1.136494	0.519807
H188	H	0.916033	-1.121948	0.290698
H189	H	0.888761	-0.788066	0.261048
H190	H	1.038213	-0.887945	0.424037
H191	H	1.049430	-0.334479	0.769978
