data_functionalizedCrystal
_audit_creation_method	'MofGen! by Chris Wilmer'
_symmetry_space_group_name_H-M	'P1'
_symmetry_Int_Tables_number	1
_symmetry_cell_setting	triclinic
loop_
_symmetry_equiv_pos_as_xyz
  x,y,z
_cell_length_a	13.339070
_cell_length_b	14.421503
_cell_length_c	13.339070
_cell_angle_alpha	89.992114
_cell_angle_beta	115.629294
_cell_angle_gamma	90.010332
loop_
_atom_site_label
_atom_site_type_symbol
_atom_site_fract_x
_atom_site_fract_y
_atom_site_fract_z
O1	O	1.496809	0.077136	0.550513
O2	O	1.182000	0.077132	0.478253
O3	O	1.303275	0.077131	0.356979
O4	O	1.375535	0.077137	0.671788
O5	O	1.303254	-0.077093	0.356996
O6	O	1.181979	-0.077092	0.478271
O7	O	1.496789	-0.077087	0.550530
Cu8	Cu	1.339382	-0.091171	0.514402
Cu9	Cu	1.339407	0.091216	0.514382
O10	O	1.375514	-0.077086	0.671805
C11	C	1.140874	0.000019	0.466056
C12	C	1.018360	0.000018	0.429672
N13	N	1.339372	-0.219453	0.514418
C14	C	0.732973	0.000038	0.712571
C15	C	0.848081	0.000043	0.746759
C16	C	0.890657	0.000036	0.667490
C17	C	0.818112	0.000026	0.554028
C18	C	0.702992	0.000029	0.519837
C19	C	0.860676	0.000027	0.474756
C20	C	0.788132	0.000016	0.361294
C21	C	0.673023	0.000018	0.327109
C22	C	0.630448	0.000025	0.406377
C23	C	0.975796	0.000024	0.508947
C24	C	0.945816	0.000014	0.316213
C25	C	0.830707	0.000010	0.282025
C26	C	1.283271	-0.469106	0.570456
C27	C	1.388481	-0.530907	0.619622
C28	C	1.339392	-0.408614	0.514399
C29	C	1.234215	-0.530907	0.465266
C30	C	1.339402	-0.591336	0.514381
C31	C	1.444666	-0.469054	0.563628
C32	C	1.290322	-0.469049	0.409211
C33	C	1.395591	-0.530822	0.458355
C34	C	1.339385	-0.303353	0.514412
C35	C	1.339420	-0.696594	0.514371
C36	C	1.537914	0.000027	0.562728
C37	C	1.660428	0.000035	0.599111
C38	C	1.291058	0.000020	0.315872
C39	C	1.254675	0.000023	0.193358
N40	N	1.339423	0.219497	0.514359
C41	C	1.537574	0.000027	-0.092030
C42	C	1.571761	0.000018	0.023079
C43	C	1.492492	0.000020	0.065654
C44	C	1.379030	0.000029	-0.006890
C45	C	1.344839	0.000030	-0.122010
C46	C	1.299758	0.000023	0.035674
C47	C	1.186296	0.000032	-0.036871
C48	C	1.152111	0.000034	-0.151979
C49	C	1.231380	0.000033	-0.194555
C50	C	1.333949	0.000022	0.150794
C51	C	1.141215	0.000026	0.120813
C52	C	1.107028	0.000034	0.005705
C53	C	1.387730	0.000026	0.712912
C54	C	1.424114	0.000029	0.835426
H55	H	0.984385	0.000042	0.695333
H56	H	1.443126	-0.557750	0.410958
O57	O	0.918391	0.000007	0.857011
C58	C	0.935972	0.000071	1.044567
C59	C	0.856220	0.000092	0.919735
H60	H	0.885739	0.000160	1.095315
H61	H	0.990586	-0.064486	1.065464
H62	H	0.990647	0.064598	1.065333
H63	H	0.801475	-0.064391	0.898880
H64	H	0.801683	0.064692	0.898904
H65	H	1.145263	-0.558079	0.423722
H66	H	1.426331	0.000015	0.209849
H67	H	1.520335	0.000013	0.159382
H68	H	1.248784	-0.441857	0.320279
H69	H	1.034852	0.000028	0.601328
H70	H	1.602102	0.000018	-0.126707
H71	H	0.698296	0.000052	0.777099
H72	H	0.536718	0.000021	0.378547
H73	H	0.613959	0.000020	0.234720
H74	H	0.771625	0.000009	0.189642
H75	H	1.664142	0.000009	0.082137
H76	H	1.203550	0.000043	-0.288284
H77	H	0.980479	0.000013	0.251665
O78	O	1.550858	-0.436806	0.613169
C79	C	1.730410	-0.432400	0.610807
C80	C	1.610186	-0.468984	0.554567
H81	H	1.778417	-0.458416	0.563465
H82	H	1.729559	-0.353352	0.610396
H83	H	1.772278	-0.458401	0.700256
H84	H	1.568246	-0.443051	0.465097
H85	H	1.611114	-0.548030	0.555067
H86	H	1.059723	0.000035	-0.211043
H87	H	1.014645	0.000041	-0.053377
H88	H	1.235894	-0.442008	0.617934
H89	H	1.076667	0.000022	0.155477
O90	O	1.437843	-0.563286	0.725761
C91	C	1.434554	-0.568531	0.904873
C92	C	1.378536	-0.531823	0.784699
H93	H	1.386642	-0.543092	0.952566
H94	H	1.434776	-0.647575	0.903872
H95	H	1.523776	-0.542046	0.947173
H96	H	1.289292	-0.558239	0.742328
H97	H	1.378402	-0.452780	0.785778
