data_functionalizedCrystal
_audit_creation_method	'MofGen! by Chris Wilmer'
_symmetry_space_group_name_H-M	'P1'
_symmetry_Int_Tables_number	1
_symmetry_cell_setting	triclinic
loop_
_symmetry_equiv_pos_as_xyz
  x,y,z
_cell_length_a	19.121063
_cell_length_b	12.645331
_cell_length_c	12.645324
_cell_angle_alpha	90.022962
_cell_angle_beta	92.401246
_cell_angle_gamma	87.532020
loop_
_atom_site_label
_atom_site_type_symbol
_atom_site_fract_x
_atom_site_fract_y
_atom_site_fract_z
Zn1	Zn	-0.279578	-1.602660	-0.617385
Zn2	Zn	-0.397050	-1.594947	-0.447663
Zn3	Zn	-0.279616	-1.425371	-0.440132
Zn4	Zn	-0.396990	-1.417766	-0.624874
O5	O	-0.338308	-1.510186	-0.532514
O6	O	-0.295170	-1.749984	-0.594889
O7	O	-0.381513	-1.572407	-0.298319
O8	O	-0.181327	-1.455300	-0.457359
O9	O	-0.381476	-1.744316	-0.470194
O10	O	-0.181299	-1.585553	-0.587586
O11	O	-0.295235	-1.447821	-0.292786
O12	O	-0.295176	-1.276016	-0.464621
O13	O	-0.381374	-1.442338	-0.772226
O14	O	-0.381411	-1.270428	-0.600350
O15	O	-0.295112	-1.578179	-0.766723
O16	O	-0.495326	-1.565032	-0.477456
O17	O	-0.495282	-1.434858	-0.607653
C18	C	-0.338292	-1.234757	-0.532482
C19	C	-0.338301	-1.116927	-0.532494
C20	C	-0.520788	-1.498312	-0.544207
C21	C	-0.598853	-1.493329	-0.549245
C22	C	-0.338232	-1.510270	-0.809014
C23	C	-0.338199	-1.510306	-0.926842
C24	C	-0.635528	-1.558815	-0.483882
C25	C	-0.708879	-1.554135	-0.488627
C26	C	-0.745553	-1.483963	-0.558730
C27	C	-0.708873	-1.418474	-0.624100
C28	C	-0.635524	-1.423160	-0.619360
C29	C	-0.967021	-1.466425	-0.576435
C30	C	-1.040376	-1.461741	-0.581168
C31	C	-1.040376	-1.597405	-0.445695
C32	C	-0.967026	-1.602080	-0.440957
C33	C	-0.930352	-1.536595	-0.506331
C34	C	-0.820530	-1.479175	-0.563579
C35	C	-0.855377	-1.541389	-0.501487
C36	C	-0.155116	-1.522136	-0.520797
C37	C	-0.077051	-1.527228	-0.515804
C38	C	-0.338326	-1.786690	-0.532546
C39	C	-0.338333	-1.904520	-0.532560
C40	C	-0.283802	-0.952859	-0.447543
C41	C	-0.283943	-1.075409	-0.447193
C42	C	-0.412291	-1.067623	-0.506727
C43	C	-0.411993	-0.945044	-0.506152
C44	C	-0.319516	-0.950992	-0.643573
C45	C	-0.317863	-1.073705	-0.642843
C46	C	-0.284089	-1.596073	-1.090955
C47	C	-0.283894	-1.595822	-0.968382
C48	C	-0.318085	-1.399925	-0.970030
C49	C	-0.317674	-1.400451	-1.092602
C50	C	-0.412503	-1.534010	-1.098808
C51	C	-0.412129	-1.536478	-0.976178
C52	C	-0.338334	-1.510166	-0.257085
C53	C	-0.338168	-1.510348	-0.139245
H54	H	-0.605673	-1.615952	-0.426792
F55	F	-0.365991	-1.110660	-0.729567
H56	H	-0.738736	-1.607460	-0.435400
F57	F	-0.246700	-1.116360	-0.668364
F58	F	-0.300197	-1.112631	-0.339538
H59	H	-0.359234	-0.919446	-0.706860
H60	H	-0.427950	-0.915366	-0.425137
H61	H	-0.937167	-1.659220	-0.383873
F62	F	-1.079412	-1.667098	-0.376129
H63	H	-1.070234	-1.404611	-0.638273
H64	H	-0.296102	-0.921215	-0.365661
H65	H	-0.825514	-1.598528	-0.444412
H66	H	-0.229328	-1.581007	-1.118265
F67	F	-0.246659	-1.373462	-1.125443
H68	H	-0.605664	-1.369835	-0.672588
F69	F	-0.367990	-1.314437	-0.935120
F70	F	-0.247851	-1.372347	-0.925412
F71	F	-0.300350	-1.703005	-0.930131
F72	F	-0.436412	-1.637092	-1.140769
F73	F	-0.928000	-1.396728	-0.646012
H74	H	-0.738739	-1.361342	-0.681185
F75	F	-0.859568	-1.404493	-0.638185
F76	F	-0.466899	-0.902744	-0.583891
F77	F	-0.212229	-1.119393	-0.467589
H78	H	-0.228771	-0.926952	-0.462933
F79	F	-0.466817	-1.102213	-0.585401
F80	F	-0.467631	-1.460293	-0.939683
H81	H	-0.428521	-1.097229	-0.426610
F82	F	-0.250225	-0.915092	-0.675400
H83	H	-0.296528	-1.678357	-1.121246
H84	H	-0.228828	-1.580533	-0.935536
H85	H	-0.427297	-1.617686	-0.948080
F86	F	-0.465170	-1.452322	-1.140067
H87	H	-0.355350	-1.334663	-1.124666
