data_functionalizedCrystal
_audit_creation_method	'MofGen! by Chris Wilmer'
_symmetry_space_group_name_H-M	'P1'
_symmetry_Int_Tables_number	1
_symmetry_cell_setting	triclinic
loop_
_symmetry_equiv_pos_as_xyz
  x,y,z
_cell_length_a	25.639242
_cell_length_b	25.639239
_cell_length_c	25.639233
_cell_angle_alpha	89.981253
_cell_angle_beta	89.977834
_cell_angle_gamma	90.034213
loop_
_atom_site_label
_atom_site_type_symbol
_atom_site_fract_x
_atom_site_fract_y
_atom_site_fract_z
Zn1	Zn	0.799225	-0.208277	-0.295742
Zn2	Zn	1.132558	0.125057	0.037591
Zn3	Zn	1.465892	0.458390	0.370924
Zn4	Zn	0.799149	-0.295696	-0.208307
Zn5	Zn	1.132482	0.037638	0.125027
Zn6	Zn	1.465815	0.370971	0.458360
Zn7	Zn	0.711801	-0.208269	-0.208306
Zn8	Zn	1.045135	0.125064	0.125027
Zn9	Zn	1.378468	0.458398	0.458360
Zn10	Zn	0.711746	-0.295676	-0.295696
Zn11	Zn	1.045080	0.037657	0.037637
Zn12	Zn	1.378413	0.370990	0.370970
O13	O	0.755480	-0.251979	-0.252013
O14	O	1.088814	0.081354	0.081320
O15	O	1.422147	0.414687	0.414654
O16	O	0.872380	-0.219884	-0.284163
O17	O	1.205713	0.113449	0.049170
O18	O	1.539047	0.446782	0.382504
O19	O	0.787553	-0.284103	-0.135141
O20	O	1.120886	0.049230	0.198192
O21	O	1.454219	0.382563	0.531525
O22	O	0.723453	-0.135105	-0.219924
O23	O	1.056787	0.198228	0.113409
O24	O	1.390120	0.531562	0.446743
O25	O	0.872324	-0.284111	-0.219924
O26	O	1.205657	0.049223	0.113409
O27	O	1.538991	0.382556	0.446742
O28	O	0.787683	-0.135111	-0.284163
O29	O	1.121016	0.198223	0.049171
O30	O	1.454350	0.531556	0.382504
O31	O	0.723379	-0.219871	-0.135141
O32	O	1.056712	0.113462	0.198192
O33	O	1.390046	0.446795	0.531526
O34	O	0.638629	-0.219853	-0.219880
O35	O	0.971962	0.113481	0.113454
O36	O	1.305296	0.446814	0.446787
O37	O	0.723360	-0.284078	-0.368868
O38	O	1.056693	0.049256	-0.035534
O39	O	1.390026	0.382589	0.297799
O40	O	0.638589	-0.284070	-0.284085
O41	O	0.971922	0.049263	0.049249
O42	O	1.305255	0.382597	0.382582
O43	O	0.787630	-0.219866	-0.368901
O44	O	1.120963	0.113468	-0.035568
O45	O	1.454297	0.446801	0.297765
O46	O	0.787499	-0.368858	-0.219880
O47	O	1.120833	-0.035525	0.113453
O48	O	1.454166	0.297808	0.446787
O49	O	0.723286	-0.368844	-0.284085
O50	O	1.056619	-0.035511	0.049248
O51	O	1.389952	0.297823	0.382582
C52	C	0.619638	-0.251959	-0.251977
C53	C	0.952971	0.081375	0.081356
C54	C	1.286304	0.414708	0.414689
C55	C	0.561524	-0.251963	-0.251975
C56	C	0.894857	0.081371	0.081359
C57	C	1.228190	0.414704	0.414692
C58	C	0.755392	-0.387822	-0.251989
C59	C	1.088726	-0.054489	0.081344
C60	C	1.422059	0.278845	0.414678
C61	C	0.755403	-0.445936	-0.251996
C62	C	1.088736	-0.112603	0.081337
C63	C	1.422069	0.220731	0.414670
C64	C	0.201149	-0.285473	-0.285413
C65	C	0.534482	0.047860	0.047920
C66	C	0.867815	0.381193	0.381254
C67	C	0.146544	-0.285477	-0.285421
C68	C	0.479878	0.047857	0.047912
C69	C	0.813211	0.381190	0.381246
O70	O	0.118297	-0.313943	-0.313821
O71	O	0.451631	0.019390	0.019512
O72	O	0.784964	0.352724	0.352845
N73	N	0.119241	-0.251994	-0.252047
N74	N	0.452575	0.081340	0.081286
N75	N	0.785908	0.414673	0.414620
C76	C	0.146545	-0.218502	-0.218666
C77	C	0.479879	0.114831	0.114667
C78	C	0.813212	0.448165	0.448000
O79	O	0.118308	-0.190022	-0.190280
O80	O	0.451641	0.143311	0.143053
O81	O	0.784975	0.476644	0.476387
C82	C	0.201149	-0.218496	-0.218661
C83	C	0.534482	0.114837	0.114672
C84	C	0.867815	0.448170	0.448006
C85	C	0.228449	-0.251985	-0.252034
C86	C	0.561782	0.081348	0.081300
C87	C	0.895116	0.414681	0.414633
C88	C	0.228449	-0.318959	-0.318783
C89	C	0.561782	0.014374	0.014550
C90	C	0.895115	0.347708	0.347884
C91	C	0.283049	-0.318956	-0.318774
C92	C	0.616383	0.014377	0.014559
C93	C	0.949716	0.347710	0.347893
C94	C	0.310350	-0.285468	-0.285395
C95	C	0.643683	0.047865	0.047939
C96	C	0.977016	0.381199	0.381272
C97	C	0.283049	-0.251983	-0.252024
C98	C	0.616383	0.081351	0.081309
C99	C	0.949716	0.414684	0.414642
C100	C	0.228452	-0.185002	-0.185283
C101	C	0.561785	0.148331	0.148050
C102	C	0.895119	0.481664	0.481383
C103	C	0.283059	-0.185000	-0.185281
C104	C	0.616392	0.148334	0.148052
C105	C	0.949726	0.481667	0.481385
C106	C	0.310359	-0.218488	-0.218654
C107	C	0.643692	0.114845	0.114680
C108	C	0.977026	0.448178	0.448013
C109	C	0.364950	-0.218492	-0.218636
C110	C	0.698284	0.114842	0.114697
C111	C	1.031617	0.448175	0.448031
N112	N	0.392253	-0.251974	-0.252010
N113	N	0.725587	0.081359	0.081323
N114	N	1.058920	0.414692	0.414656
C115	C	0.364953	-0.285463	-0.285389
C116	C	0.698286	0.047871	0.047944
C117	C	1.031620	0.381204	0.381277
C118	C	0.031875	-0.218515	-0.218680
C119	C	0.365208	0.114818	0.114653
C120	C	0.698541	0.448151	0.447986
C121	C	-0.022728	-0.218523	-0.218683
C122	C	0.310606	0.114810	0.114651
C123	C	0.643939	0.448144	0.447984
C124	C	-0.022725	-0.285497	-0.285438
C125	C	0.310608	0.047836	0.047895
C126	C	0.643942	0.381170	0.381228
C127	C	0.031878	-0.285492	-0.285433
C128	C	0.365212	0.047842	0.047900
C129	C	0.698545	0.381175	0.381234
C130	C	0.059178	-0.251998	-0.252054
C131	C	0.392511	0.081335	0.081279
C132	C	0.725844	0.414669	0.414612
C133	C	0.479618	-0.285455	-0.285368
C134	C	0.812951	0.047878	0.047966
C135	C	1.146285	0.381212	0.381299
C136	C	0.534223	-0.285451	-0.285354
C137	C	0.867557	0.047883	0.047979
C138	C	1.200890	0.381216	0.381313
C139	C	0.534216	-0.218475	-0.218601
C140	C	0.867549	0.114858	0.114733
C141	C	1.200883	0.448192	0.448066
C142	C	0.479615	-0.218481	-0.218612
C143	C	0.812949	0.114853	0.114721
C144	C	1.146282	0.448186	0.448055
C145	C	0.452318	-0.251972	-0.252000
C146	C	0.785651	0.081361	0.081334
C147	C	1.118984	0.414694	0.414667
O148	O	0.393232	-0.190038	-0.190252
O149	O	0.726565	0.143295	0.143082
O150	O	1.059899	0.476628	0.476415
O151	O	0.393197	-0.313933	-0.313776
O152	O	0.726530	0.019401	0.019558
O153	O	1.059864	0.352734	0.352891
C154	C	0.789004	-0.806294	-0.218638
C155	C	1.122337	-0.472961	0.114695
C156	C	1.455670	-0.139627	0.448028
C157	C	0.789024	-0.860898	-0.218645
C158	C	1.122357	-0.527565	0.114688
C159	C	1.455691	-0.194232	0.448021
O160	O	0.817502	-0.889131	-0.190257
O161	O	1.150835	-0.555797	0.143076
O162	O	1.484168	-0.222464	0.476410
N163	N	0.755572	-0.888218	-0.252048
N164	N	1.088906	-0.554885	0.081286
N165	N	1.422239	-0.221552	0.414619
C166	C	0.722102	-0.860932	-0.285449
C167	C	1.055435	-0.527598	0.047885
C168	C	1.388768	-0.194265	0.381218
O169	O	0.693651	-0.889184	-0.313861
O170	O	1.026984	-0.555850	0.019472
O171	O	1.360317	-0.222517	0.352806
C172	C	0.722085	-0.806328	-0.285444
C173	C	1.055418	-0.472995	0.047889
C174	C	1.388751	-0.139662	0.381223
C175	C	0.755535	-0.779011	-0.252036
C176	C	1.088868	-0.445678	0.081298
C177	C	1.422201	-0.112344	0.414631
C178	C	0.822452	-0.778976	-0.185233
C179	C	1.155785	-0.445643	0.148100
C180	C	1.489118	-0.112310	0.481433
C181	C	0.822431	-0.724376	-0.185226
C182	C	1.155764	-0.391043	0.148108
C183	C	1.489097	-0.057709	0.481441
C184	C	0.788962	-0.697093	-0.218623
C185	C	1.122295	-0.363760	0.114710
C186	C	1.455628	-0.030426	0.448043
C187	C	0.755514	-0.724410	-0.252028
C188	C	1.088847	-0.391077	0.081305
C189	C	1.422180	-0.057744	0.414638
C190	C	0.688617	-0.779042	-0.318847
C191	C	1.021950	-0.445709	0.014486
C192	C	1.355284	-0.112376	0.347819
C193	C	0.688603	-0.724435	-0.318840
C194	C	1.021936	-0.391102	0.014493
C195	C	1.355270	-0.057769	0.347827
C196	C	0.722053	-0.697118	-0.285432
C197	C	1.055387	-0.363785	0.047901
C198	C	1.388720	-0.030451	0.381235
C199	C	0.722024	-0.642527	-0.285418
C200	C	1.055357	-0.309193	0.047915
C201	C	1.388690	0.024140	0.381249
N202	N	0.755475	-0.615206	-0.252016
N203	N	1.088809	-0.281873	0.081317
N204	N	1.422142	0.051460	0.414651
C205	C	0.788944	-0.642490	-0.218618
C206	C	1.122278	-0.309156	0.114715
C207	C	1.455611	0.024177	0.448048
C208	C	0.722141	-0.975602	-0.285457
C209	C	1.055474	-0.642269	0.047877
C210	C	1.388808	-0.308936	0.381210
C211	C	0.722155	-1.030204	-0.285459
C212	C	1.055489	-0.696871	0.047874
C213	C	1.388822	-0.363538	0.381207
C214	C	0.789078	-1.030167	-0.218656
C215	C	1.122412	-0.696834	0.114677
C216	C	1.455745	-0.363501	0.448010
C217	C	0.789061	-0.975564	-0.218652
C218	C	1.122395	-0.642231	0.114682
C219	C	1.455728	-0.308897	0.448015
C220	C	0.755593	-0.948282	-0.252055
C221	C	1.088926	-0.614949	0.081279
C222	C	1.422260	-0.281615	0.414612
C223	C	0.788897	-0.527824	-0.218605
C224	C	1.122231	-0.194491	0.114728
C225	C	1.455564	0.138842	0.448062
C226	C	0.788872	-0.473219	-0.218599
C227	C	1.122205	-0.139886	0.114735
C228	C	1.455538	0.193448	0.448068
C229	C	0.721951	-0.473261	-0.285403
C230	C	1.055284	-0.139928	0.047930
C231	C	1.388617	0.193406	0.381263
C232	C	0.721974	-0.527862	-0.285408
C233	C	1.055307	-0.194528	0.047926
C234	C	1.388641	0.138805	0.381259
C235	C	0.755452	-0.555142	-0.252007
C236	C	1.088785	-0.221809	0.081327
C237	C	1.422118	0.111525	0.414660
O238	O	0.693562	-0.614260	-0.313793
O239	O	1.026895	-0.280926	0.019540
O240	O	1.360229	0.052407	0.352873
O241	O	0.817396	-0.614231	-0.190216
O242	O	1.150729	-0.280898	0.143117
O243	O	1.484062	0.052436	0.476451
C244	C	0.891853	-0.252000	-0.252049
C245	C	1.225187	0.081333	0.081285
C246	C	1.558520	0.414666	0.414618
C247	C	0.949967	-0.252009	-0.252064
C248	C	1.283301	0.081324	0.081269
C249	C	1.616634	0.414657	0.414603
C250	C	0.755497	-0.251970	-0.388386
C251	C	1.088831	0.081363	-0.055053
C252	C	1.422164	0.414696	0.278281
C253	C	0.755504	-0.251966	-0.446500
C254	C	1.088838	0.081367	-0.113167
C255	C	1.422171	0.414700	0.220167
C256	C	0.755583	-0.115606	-0.252048
C257	C	1.088916	0.217727	0.081285
C258	C	1.422250	0.551060	0.414618
C259	C	0.755627	-0.057492	-0.252064
C260	C	1.088960	0.275841	0.081270
C261	C	1.422293	0.609174	0.414603
C262	C	0.789012	-0.218432	-0.806886
C263	C	1.122346	0.114902	-0.473553
C264	C	1.455679	0.448235	-0.140220
C265	C	0.789019	-0.218417	-0.861491
C266	C	1.122352	0.114916	-0.528157
C267	C	1.455685	0.448249	-0.194824
O268	O	0.817466	-0.189967	-0.889747
O269	O	1.150799	0.143367	-0.556414
O270	O	1.484133	0.476700	-0.223080
N271	N	0.755562	-0.251844	-0.888783
N272	N	1.088895	0.081490	-0.555449
N273	N	1.422229	0.414823	-0.222116
C274	C	0.722093	-0.285283	-0.861468
C275	C	1.055426	0.048050	-0.528134
C276	C	1.388760	0.381384	-0.194801
O277	O	0.693636	-0.313713	-0.889695
O278	O	1.026969	0.019620	-0.556362
O279	O	1.360302	0.352954	-0.223029
C280	C	0.722084	-0.285294	-0.806864
C281	C	1.055418	0.048039	-0.473531
C282	C	1.388751	0.381372	-0.140198
C283	C	0.755547	-0.251870	-0.779575
C284	C	1.088880	0.081464	-0.446242
C285	C	1.422214	0.414797	-0.112908
C286	C	0.822472	-0.185009	-0.779597
C287	C	1.155805	0.148324	-0.446264
C288	C	1.489138	0.481657	-0.112930
C289	C	0.822466	-0.185025	-0.724997
C290	C	1.155799	0.148309	-0.391663
C291	C	1.489133	0.481642	-0.058330
C292	C	0.789000	-0.218462	-0.697685
C293	C	1.122334	0.114871	-0.364352
C294	C	1.455667	0.448204	-0.031019
C295	C	0.755541	-0.251885	-0.724974
C296	C	1.088874	0.081448	-0.391641
C297	C	1.422208	0.414782	-0.058308
C298	C	0.688613	-0.318731	-0.779550
C299	C	1.021946	0.014603	-0.446217
C300	C	1.355280	0.347936	-0.112883
C301	C	0.688607	-0.318739	-0.724943
C302	C	1.021940	0.014594	-0.391610
C303	C	1.355273	0.347928	-0.058276
C304	C	0.722069	-0.285314	-0.697654
C305	C	1.055403	0.048019	-0.364320
C306	C	1.388736	0.381352	-0.030987
C307	C	0.722070	-0.285338	-0.643063
C308	C	1.055403	0.047995	-0.309729
C309	C	1.388736	0.381329	0.023604
N310	N	0.755526	-0.251912	-0.615771
N311	N	1.088860	0.081422	-0.282437
N312	N	1.422193	0.414755	0.050896
C313	C	0.788992	-0.218474	-0.643082
C314	C	1.122325	0.114860	-0.309749
C315	C	1.455658	0.448193	0.023585
C316	C	0.722113	-0.285256	-0.976138
C317	C	1.055446	0.048077	-0.642805
C318	C	1.388780	0.381411	-0.309472
C319	C	0.722124	-0.285247	-1.030741
C320	C	1.055457	0.048086	-0.697407
C321	C	1.388791	0.381419	-0.364074
C322	C	0.789049	-0.218381	-1.030760
C323	C	1.122383	0.114952	-0.697427
C324	C	1.455716	0.448286	-0.364093
C325	C	0.789041	-0.218392	-0.976157
C326	C	1.122374	0.114941	-0.642823
C327	C	1.455707	0.448274	-0.309490
C328	C	0.755570	-0.251829	-0.948846
C329	C	1.088903	0.081504	-0.615513
C330	C	1.422237	0.414837	-0.282180
C331	C	0.788977	-0.218509	-0.528417
C332	C	1.122311	0.114825	-0.195083
C333	C	1.455644	0.448158	0.138250
C334	C	0.788970	-0.218529	-0.473811
C335	C	1.122303	0.114805	-0.140478
C336	C	1.455636	0.448138	0.192855
C337	C	0.722043	-0.285393	-0.473797
C338	C	1.055376	0.047940	-0.140463
C339	C	1.388710	0.381274	0.192870
C340	C	0.722052	-0.285375	-0.528397
C341	C	1.055385	0.047958	-0.195064
C342	C	1.388719	0.381291	0.138269
C343	C	0.755521	-0.251929	-0.555706
C344	C	1.088854	0.081404	-0.222373
C345	C	1.422187	0.414738	0.110961
O346	O	0.693635	-0.313773	-0.614771
O347	O	1.026969	0.019561	-0.281438
O348	O	1.360302	0.352894	0.051895
O349	O	0.817439	-0.190044	-0.614847
O350	O	1.150773	0.143290	-0.281514
O351	O	1.484106	0.476623	0.051819
C352	C	0.755494	-0.251951	-0.116170
C353	C	1.088827	0.081383	0.217163
C354	C	1.422160	0.414716	0.550496
C355	C	0.755588	-0.251807	-0.058057
C356	C	1.088921	0.081526	0.275277
C357	C	1.422254	0.414859	0.608610
H358	H	0.556449	-0.312723	-0.312530
H359	H	0.889782	0.020610	0.020803
H360	H	1.223115	0.353943	0.354136
H361	H	0.054103	-0.312760	-0.312609
H362	H	0.387436	0.020573	0.020725
H363	H	0.720769	0.353906	0.354058
N364	N	0.825001	-0.557237	-0.182573
N365	N	1.158334	-0.223904	0.150761
N366	N	1.491668	0.109429	0.484094
H367	H	0.803777	-0.579922	-0.158322
H368	H	1.137110	-0.246588	0.175011
H369	H	1.470444	0.086745	0.508345
H370	H	0.849224	-0.579830	-0.203877
H371	H	1.182557	-0.246497	0.129456
H372	H	1.515891	0.086836	0.462789
H373	H	0.206233	-0.157734	-0.158106
H374	H	0.539567	0.175600	0.175227
H375	H	0.872900	0.508933	0.508560
H376	H	0.206227	-0.346229	-0.345967
H377	H	0.539560	-0.012896	-0.012634
H378	H	0.872893	0.320437	0.320699
H379	H	0.694738	-0.550105	-0.312613
H380	H	1.028071	-0.216771	0.020720
H381	H	1.361405	0.116562	0.354054
N382	N	0.450180	-0.321578	-0.321376
N383	N	0.783514	0.011755	0.011957
N384	N	1.116847	0.345089	0.345290
H385	H	0.475767	-0.342789	-0.342511
H386	H	0.809100	-0.009456	-0.009178
H387	H	1.142434	0.323878	0.324156
H388	H	0.427502	-0.345745	-0.300053
H389	H	0.760835	-0.012412	0.033281
H390	H	1.094169	0.320922	0.366614
N391	N	0.858518	-0.694916	-0.149201
N392	N	1.191851	-0.361583	0.184132
N393	N	1.525185	-0.028249	0.517465
H394	H	0.850433	-0.704444	-0.111836
H395	H	1.183766	-0.371111	0.221498
H396	H	1.517100	-0.037778	0.554831
H397	H	0.895854	-0.704400	-0.157417
H398	H	1.229187	-0.371067	0.175917
H399	H	1.562521	-0.037733	0.509250
H400	H	0.305272	-0.346225	-0.345950
H401	H	0.638606	-0.012892	-0.012617
H402	H	0.971939	0.320441	0.320716
N403	N	-0.052176	-0.321618	-0.321442
N404	N	0.281158	0.011715	0.011892
N405	N	0.614491	0.345049	0.345225
H406	H	-0.090908	-0.316536	-0.316380
H407	H	0.242425	0.016798	0.016954
H408	H	0.575758	0.350131	0.350287
H409	H	-0.042610	-0.313534	-0.358797
H410	H	0.290723	0.019799	-0.025463
H411	H	0.624057	0.353132	0.307870
H412	H	0.694699	-0.451039	-0.312594
H413	H	1.028032	-0.117705	0.020740
H414	H	1.361366	0.215628	0.354073
N415	N	0.825145	-0.946101	-0.182626
N416	N	1.158478	-0.612767	0.150707
N417	N	1.491812	-0.279434	0.484040
H418	H	0.803911	-0.923474	-0.158370
H419	H	1.137244	-0.590140	0.174963
H420	H	1.470577	-0.256807	0.508296
H421	H	0.846341	-0.971707	-0.161506
H422	H	1.179675	-0.638374	0.171827
H423	H	1.513008	-0.305040	0.505160
H424	H	0.694881	-0.312471	-1.052955
H425	H	1.028214	0.020862	-0.719621
H426	H	1.361548	0.354196	-0.386288
N427	N	0.652499	-0.695015	-0.354867
N428	N	0.985832	-0.361682	-0.021534
N429	N	1.319165	-0.028349	0.311800
H430	H	0.628274	-0.672394	-0.333591
H431	H	0.961607	-0.339061	-0.000258
H432	H	1.294940	-0.005728	0.333075
H433	H	0.673756	-0.672358	-0.379111
H434	H	1.007089	-0.339025	-0.045778
H435	H	1.340422	-0.005692	0.287555
N436	N	0.825065	-0.182478	-0.444378
N437	N	1.158398	0.150855	-0.111045
N438	N	1.491732	0.484189	0.222289
H439	H	0.846264	-0.161293	-0.469969
H440	H	1.179597	0.172040	-0.136635
H441	H	1.512931	0.505374	0.196698
H442	H	0.803800	-0.158284	-0.421718
H443	H	1.137133	0.175049	-0.088384
H444	H	1.470466	0.508383	0.244949
H445	H	-0.044951	-0.191258	-0.191502
H446	H	0.288383	0.142075	0.141831
H447	H	0.621716	0.475408	0.475165
H448	H	0.556454	-0.191211	-0.191422
H449	H	0.889787	0.142122	0.141911
H450	H	1.223121	0.475455	0.475244
N451	N	0.825134	-0.182344	-0.946726
N452	N	1.158468	0.150989	-0.613392
N453	N	1.491801	0.484323	-0.280059
H454	H	0.803907	-0.158113	-0.924066
H455	H	1.137240	0.175220	-0.590733
H456	H	1.470573	0.508553	-0.257400
H457	H	0.849335	-0.203642	-0.924106
H458	H	1.182668	0.129691	-0.590773
H459	H	1.516002	0.463024	-0.257440
N460	N	0.824953	-0.443755	-0.182566
N461	N	1.158286	-0.110422	0.150768
N462	N	1.491619	0.222911	0.484101
H463	H	0.846159	-0.469328	-0.161413
H464	H	1.179493	-0.135995	0.171921
H465	H	1.512826	0.197339	0.505254
H466	H	0.849125	-0.421068	-0.203873
H467	H	1.182459	-0.087735	0.129460
H468	H	1.515792	0.245599	0.462794
N469	N	0.858554	-0.808398	-0.149209
N470	N	1.191887	-0.475065	0.184124
N471	N	1.525221	-0.141731	0.517457
H472	H	0.879737	-0.782799	-0.128050
H473	H	1.213070	-0.449466	0.205283
H474	H	1.546404	-0.116132	0.538616
H475	H	0.837296	-0.831081	-0.124990
H476	H	1.170629	-0.497747	0.208343
H477	H	1.503962	-0.164414	0.541677
N478	N	0.652545	-0.808501	-0.354885
N479	N	0.985879	-0.475168	-0.021552
N480	N	1.319212	-0.141835	0.311782
H481	H	0.628333	-0.831190	-0.333621
H482	H	0.961667	-0.497856	-0.000287
H483	H	1.295000	-0.164523	0.333046
H484	H	0.631380	-0.782894	-0.376035
H485	H	0.964713	-0.449561	-0.042702
H486	H	1.298047	-0.116228	0.290631
H487	H	0.694883	-0.953392	-0.312656
H488	H	1.028216	-0.620058	0.020677
H489	H	1.361550	-0.286725	0.354011
N490	N	0.825072	-0.182433	-0.557866
N491	N	1.158406	0.150900	-0.224533
N492	N	1.491739	0.484233	0.108800
H493	H	0.846265	-0.161265	-0.532287
H494	H	1.179598	0.172068	-0.198953
H495	H	1.512932	0.505401	0.134380
H496	H	0.849257	-0.203711	-0.580527
H497	H	1.182591	0.129623	-0.247194
H498	H	1.515924	0.462956	0.086139
N499	N	0.858556	-0.148972	-0.695567
N500	N	1.191890	0.184362	-0.362234
N501	N	1.525223	0.517695	-0.028900
H502	H	0.879753	-0.127789	-0.721161
H503	H	1.213087	0.205545	-0.387828
H504	H	1.546420	0.538878	-0.054494
H505	H	0.837290	-0.124776	-0.672910
H506	H	1.170623	0.208557	-0.339577
H507	H	1.503956	0.541891	-0.006243
H508	H	0.054099	-0.191241	-0.191496
H509	H	0.387432	0.142092	0.141838
H510	H	0.720765	0.475425	0.475171
N511	N	0.858564	-0.148936	-0.809049
N512	N	1.191897	0.184398	-0.475716
N513	N	1.525231	0.517731	-0.142383
H514	H	0.879754	-0.127766	-0.783468
H515	H	1.213087	0.205567	-0.450135
H516	H	1.546420	0.538901	-0.116802
H517	H	0.882752	-0.170212	-0.831708
H518	H	1.216085	0.163122	-0.498375
H519	H	1.549418	0.496455	-0.165042
H520	H	0.816333	-1.052391	-0.191464
H521	H	1.149666	-0.719058	0.141869
H522	H	1.482999	-0.385724	0.475203
N523	N	0.312503	-0.148870	-0.149283
N524	N	0.645836	0.184463	0.184051
N525	N	0.979170	0.517797	0.517384
H526	H	0.286920	-0.127658	-0.128145
H527	H	0.620253	0.205675	0.205188
H528	H	0.953586	0.539009	0.538521
H529	H	0.335135	-0.170111	-0.125042
H530	H	0.668468	0.163222	0.208292
H531	H	1.001802	0.496556	0.541625
H532	H	0.694809	-0.312597	-0.550617
H533	H	1.028142	0.020736	-0.217284
H534	H	1.361475	0.354069	0.116049
N535	N	0.450166	-0.182369	-0.182612
N536	N	0.783500	0.150965	0.150721
N537	N	1.116833	0.484298	0.484054
H538	H	0.475749	-0.161156	-0.161464
H539	H	0.809082	0.172178	0.171869
H540	H	1.142415	0.505511	0.505203
H541	H	0.427538	-0.158203	-0.203943
H542	H	0.760872	0.175130	0.129391
H543	H	1.094205	0.508463	0.462724
H544	H	0.694912	-1.052442	-0.312659
H545	H	1.028245	-0.719108	0.020675
H546	H	1.361579	-0.385775	0.354008
H547	H	0.694798	-0.312619	-0.451550
H548	H	1.028131	0.020715	-0.118217
H549	H	1.361464	0.354048	0.215117
H550	H	0.816298	-0.191153	-1.053007
H551	H	1.149631	0.142181	-0.719673
H552	H	1.482964	0.475514	-0.386340
H553	H	0.694857	-0.312487	-0.953905
H554	H	1.028190	0.020846	-0.620572
H555	H	1.361523	0.354180	-0.287239
N556	N	0.652520	-0.354782	-0.808975
N557	N	0.985853	-0.021448	-0.475641
N558	N	1.319187	0.311885	-0.142308
H559	H	0.631320	-0.375960	-0.783380
H560	H	0.964653	-0.042627	-0.450046
H561	H	1.297986	0.290707	-0.116713
H562	H	0.628342	-0.333489	-0.831624
H563	H	0.961676	-0.000155	-0.498290
H564	H	1.295009	0.333178	-0.164957
H565	H	0.661345	-0.345963	-0.702710
H566	H	0.994678	-0.012629	-0.369376
H567	H	1.328011	0.320704	-0.036043
