data_functionalizedCrystal
_audit_creation_method	'MofGen! by Chris Wilmer'
_symmetry_space_group_name_H-M	'P1'
_symmetry_Int_Tables_number	1
_symmetry_cell_setting	triclinic
loop_
_symmetry_equiv_pos_as_xyz
  x,y,z
_cell_length_a	14.853566
_cell_length_b	16.109301
_cell_length_c	14.586319
_cell_angle_alpha	90.005214
_cell_angle_beta	89.999342
_cell_angle_gamma	96.452052
loop_
_atom_site_label
_atom_site_type_symbol
_atom_site_fract_x
_atom_site_fract_y
_atom_site_fract_z
O1	O	1.196185	-0.108541	-0.076183
O2	O	0.933704	-0.121473	-0.076198
O3	O	1.072155	0.006014	-0.076181
O4	O	1.057734	-0.236028	-0.076200
O5	O	1.072145	0.006015	0.076300
O6	O	0.933694	-0.121471	0.076283
O7	O	1.196175	-0.108540	0.076298
Cu8	Cu	1.064934	-0.115005	0.090213
Cu9	Cu	1.064945	-0.115007	-0.090113
O10	O	1.057724	-0.236026	0.076281
C11	C	0.900111	-0.120886	0.000040
C12	C	0.800031	-0.119131	0.000035
C13	C	0.376863	-0.111708	-0.083066
C14	C	0.376874	-0.111706	0.083175
C15	C	0.470905	-0.113355	0.083172
C16	C	0.517920	-0.114181	0.000049
C17	C	0.470903	-0.113359	-0.083071
C18	C	0.517928	-0.114185	0.166290
C19	C	0.611965	-0.115835	0.166291
C20	C	0.658982	-0.116655	0.083166
C21	C	0.611960	-0.115832	0.000043
C22	C	0.658974	-0.116658	-0.083080
C23	C	0.611954	-0.115829	-0.166204
C24	C	0.517920	-0.114179	-0.166195
C25	C	0.753016	-0.118305	0.083158
C26	C	0.753014	-0.118309	-0.083085
C27	C	1.071566	0.036990	0.000060
C28	C	1.069815	0.129288	0.000061
C29	C	1.229768	-0.109126	0.000058
C30	C	1.329849	-0.110882	0.000057
C31	C	1.058313	-0.267003	0.000038
C32	C	1.060065	-0.359301	0.000030
N33	N	1.064933	-0.115003	0.217045
C34	C	1.147897	0.351451	0.000051
C35	C	1.146244	0.438174	0.000044
C36	C	0.981977	0.418529	0.000038
C37	C	0.983630	0.331808	0.000039
C38	C	1.066593	0.298272	0.000050
C39	C	1.063287	0.471716	0.000042
C40	C	1.061494	0.565744	0.000033
C41	C	1.068386	0.204237	0.000057
N42	N	1.064954	-0.115003	-0.216945
C43	C	1.126259	-0.058571	0.452059
C44	C	1.126262	-0.058569	0.548040
C45	C	1.003621	-0.171438	0.548034
C46	C	1.003615	-0.171435	0.452055
C47	C	1.064939	-0.115003	0.404070
C48	C	1.064948	-0.115003	0.596030
C49	C	1.064950	-0.115002	0.700097
C50	C	1.064936	-0.115003	0.299996
H51	H	0.791287	-0.118979	-0.150775
C52	C	0.804088	-0.119378	0.173369
C53	C	0.847893	-0.191806	0.178223
C54	C	0.894938	-0.192827	0.261322
H55	H	0.847724	-0.071634	0.176920
H56	H	0.762640	-0.118700	0.222900
H57	H	0.889337	-0.192477	0.128705
H58	H	0.804278	-0.239562	0.174687
H59	H	0.853490	-0.192149	0.310853
H60	H	0.938569	-0.145080	0.264866
H61	H	0.924658	-0.241972	0.264630
H62	H	0.650244	-0.116508	-0.233883
C63	C	0.895421	0.273965	0.000179
C64	C	0.891580	0.223593	0.078613
C65	C	0.810347	0.170290	0.078763
H66	H	0.845700	0.306251	0.000225
H67	H	0.892652	0.239675	-0.052968
H68	H	0.894341	0.257879	0.131747
H69	H	0.941283	0.191289	0.078584
H70	H	0.807577	0.136001	0.025615
H71	H	0.760632	0.202584	0.078806
H72	H	0.807734	0.136102	0.131975
C73	C	0.891840	0.454827	0.000175
C74	C	0.842679	0.427794	0.078609
C75	C	0.759634	0.461202	0.078762
H76	H	0.902368	0.514089	0.000224
H77	H	0.858319	0.436550	-0.052973
H78	H	0.876193	0.446076	0.131743
H79	H	0.832127	0.368537	0.078577
H80	H	0.726113	0.442925	0.025614
H81	H	0.770171	0.520463	0.078808
H82	H	0.726265	0.442859	0.131974
H83	H	1.215450	0.324149	0.000059
C84	C	0.466913	-0.113463	0.256564
C85	C	0.479602	-0.185349	0.306689
C86	C	0.432609	-0.184717	0.389852
H87	H	0.489171	-0.065347	0.290831
H88	H	0.404160	-0.112403	0.244704
H89	H	0.542341	-0.186402	0.318551
H90	H	0.457339	-0.233477	0.272449
H91	H	0.369856	-0.183657	0.377993
H92	H	0.454871	-0.136598	0.424112
H93	H	0.441204	-0.233494	0.423869
C94	C	1.192871	0.002796	0.400126
C95	C	1.246555	0.052232	0.462701
C96	C	1.307919	0.108783	0.414897
H97	H	1.230474	-0.027074	0.362673
H98	H	1.160471	0.037505	0.362712
H99	H	1.278953	0.017527	0.500099
H100	H	1.208977	0.082120	0.500156
H101	H	1.275520	0.143492	0.377483
H102	H	1.345516	0.078906	0.377446
H103	H	1.344346	0.142337	0.457347
C104	C	0.937151	-0.232674	0.600300
C105	C	0.950297	-0.220617	0.694627
C106	C	0.889091	-0.277023	0.742801
H107	H	0.876946	-0.223602	0.584690
H108	H	0.946933	-0.288196	0.584613
H109	H	0.940508	-0.165108	0.710309
H110	H	1.010490	-0.229696	0.710265
H111	H	0.898873	-0.332544	0.727113
H112	H	0.828890	-0.267945	0.727183
H113	H	0.898008	-0.268855	0.806806
H114	H	1.176193	-0.012616	0.587111
C115	C	0.325964	-0.110683	0.173485
C116	C	0.359014	-0.039621	0.223646
C117	C	0.312141	-0.038654	0.306853
H118	H	0.263219	-0.109541	0.161711
H119	H	0.334511	-0.159372	0.207684
H120	H	0.350459	0.009055	0.189454
H121	H	0.421753	-0.040748	0.235445
H122	H	0.320688	-0.087343	0.341053
H123	H	0.249398	-0.037515	0.295070
H124	H	0.334564	0.009556	0.340901
C125	C	0.937139	-0.232844	0.399995
C126	C	0.951749	-0.314570	0.423308
C127	C	0.890538	-0.371157	0.375360
H128	H	0.876937	-0.223829	0.415691
H129	H	0.945920	-0.224815	0.335952
H130	H	0.942960	-0.322597	0.487337
H131	H	1.011939	-0.323613	0.407610
H132	H	0.899319	-0.363128	0.311317
H133	H	0.830340	-0.362134	0.391060
H134	H	0.900448	-0.426614	0.391165
C135	C	0.466700	-0.113326	-0.256342
C136	C	0.374283	-0.111730	-0.238543
C137	C	0.327066	-0.110958	-0.321562
H138	H	0.488883	-0.065164	-0.290563
H139	H	0.475166	-0.162061	-0.290506
H140	H	0.365822	-0.063001	-0.204394
H141	H	0.352074	-0.159889	-0.204336
H142	H	0.335533	-0.159693	-0.355726
H143	H	0.349256	-0.062795	-0.355776
H144	H	0.264355	-0.109883	-0.309497
H145	H	1.212450	0.481469	0.000043
C146	C	0.663144	-0.116596	0.256469
C147	C	0.727303	-0.046078	0.261315
C148	C	0.774476	-0.046752	0.344368
H149	H	0.621784	-0.115826	0.306049
H150	H	0.692999	-0.165657	0.259931
H151	H	0.697450	0.002971	0.257861
H152	H	0.768683	-0.046833	0.211754
H153	H	0.804330	-0.095813	0.347831
H154	H	0.733108	-0.045984	0.393942
H155	H	0.818018	0.001089	0.347664
H156	H	0.338576	-0.111029	-0.150744
