data_functionalizedCrystal
_audit_creation_method	'MofGen! by Chris Wilmer'
_symmetry_space_group_name_H-M	'P1'
_symmetry_Int_Tables_number	1
_symmetry_cell_setting	triclinic
loop_
_symmetry_equiv_pos_as_xyz
  x,y,z
_cell_length_a	10.654546
_cell_length_b	10.654550
_cell_length_c	9.730223
_cell_angle_alpha	89.999807
_cell_angle_beta	89.998853
_cell_angle_gamma	84.484193
loop_
_atom_site_label
_atom_site_type_symbol
_atom_site_fract_x
_atom_site_fract_y
_atom_site_fract_z
O1	O	1.667836	0.176372	-0.114316
O2	O	1.302357	0.193183	-0.114312
O3	O	1.493500	0.002038	-0.114309
O4	O	1.476694	0.367517	-0.114319
O5	O	1.493498	0.002043	0.114271
O6	O	1.302355	0.193188	0.114268
O7	O	1.667834	0.176377	0.114264
Zn8	Zn	1.485094	0.184783	0.150558
Zn9	Zn	1.485097	0.184777	-0.150606
O10	O	1.476692	0.367522	0.114261
C11	C	1.255558	0.191952	-0.000022
C12	C	1.116115	0.188262	-0.000020
C13	C	1.050621	0.186513	-0.124625
C14	C	0.919601	0.183036	-0.124636
C15	C	0.919579	0.183051	0.124574
C16	C	1.050596	0.186538	0.124584
C17	C	1.116140	0.188238	-0.249229
C18	C	1.050646	0.186487	-0.373844
C19	C	0.919626	0.183010	-0.373855
C20	C	0.854098	0.181283	-0.249251
C21	C	1.492265	-0.044757	-0.000021
C22	C	1.488573	-0.184200	-0.000026
C23	C	1.601115	-0.263687	-0.000023
C24	C	1.597638	-0.394708	-0.000032
C25	C	1.369068	-0.366742	-0.000042
C26	C	1.372546	-0.235724	-0.000042
C27	C	1.717142	-0.212164	-0.000006
C28	C	1.829693	-0.291652	-0.000002
C29	C	1.826216	-0.422673	-0.000011
C30	C	1.710188	-0.474206	-0.000025
C31	C	1.714633	0.177608	-0.000030
C32	C	1.854077	0.181298	-0.000040
C33	C	1.477927	0.414317	-0.000031
C34	C	1.481619	0.553761	-0.000035
N35	N	1.485102	0.184787	0.356094
N36	N	1.485100	0.184763	-0.356143
C37	C	1.569762	0.100177	0.428021
C38	C	1.569758	0.100162	0.571904
C39	C	1.400431	0.269377	0.571920
C40	C	1.400429	0.269386	0.428040
C41	C	1.654434	0.015578	0.356076
C42	C	1.739102	-0.069038	0.428003
C43	C	1.739098	-0.069053	0.571886
C44	C	1.654427	0.015548	0.643842
H45	H	0.866303	0.181597	-0.475323
H46	H	1.654447	0.015586	0.238919
H47	H	1.808031	-0.137924	0.369410
H48	H	1.222824	0.191066	-0.249234
H49	H	0.747411	0.178465	-0.249270
H50	H	1.104006	0.187904	-0.475292
C51	C	1.122650	0.188460	0.261642
H52	H	1.210060	0.190797	0.243799
H53	H	1.110129	0.114785	0.312849
H54	H	1.092224	0.261011	0.312829
C55	C	1.307283	0.362414	0.651061
H56	H	1.256847	0.412794	0.587616
H57	H	1.352888	0.415121	0.707206
H58	H	1.254622	0.316712	0.707172
H59	H	1.719985	-0.105482	0.000006
C60	C	1.248757	-0.148278	-0.000041
H61	H	1.267449	-0.062870	-0.000054
H62	H	1.201223	-0.163999	0.079667
H63	H	1.201237	-0.164004	-0.079765
C64	C	1.957311	-0.234972	0.000012
H65	H	1.943267	-0.145557	0.000031
H66	H	2.003706	-0.262183	-0.079697
H67	H	2.003689	-0.262195	0.079735
H68	H	0.866217	0.181643	0.226021
H69	H	1.917860	-0.487390	-0.000022
C70	C	1.706366	-0.618326	-0.000043
H71	H	1.790010	-0.658289	-0.000036
H72	H	1.663372	-0.642797	-0.079755
H73	H	1.663373	-0.642804	0.079677
H74	H	1.274604	-0.408711	-0.000051
C75	C	1.832224	-0.162126	0.651003
H76	H	1.882654	-0.212498	0.587544
H77	H	1.786603	-0.214837	0.707128
H78	H	1.884893	-0.116452	0.707132
H79	H	1.654423	0.015520	0.761001
H80	H	1.331490	0.338282	0.369476
