data_functionalizedCrystal
_audit_creation_method	'MofGen! by Chris Wilmer'
_symmetry_space_group_name_H-M	'P1'
_symmetry_Int_Tables_number	1
_symmetry_cell_setting	triclinic
loop_
_symmetry_equiv_pos_as_xyz
  x,y,z
_cell_length_a	18.050591
_cell_length_b	21.295417
_cell_length_c	18.050582
_cell_angle_alpha	89.973245
_cell_angle_beta	89.979078
_cell_angle_gamma	90.026512
loop_
_atom_site_label
_atom_site_type_symbol
_atom_site_fract_x
_atom_site_fract_y
_atom_site_fract_z
Zn1	Zn	1.135281	-0.250716	-0.420010
Zn2	Zn	1.135186	-0.355977	-0.295811
Zn3	Zn	1.011100	-0.250719	-0.295821
Zn4	Zn	1.011043	-0.355944	-0.419946
O5	O	1.073153	-0.303339	-0.357897
O6	O	1.239193	-0.264692	-0.403557
O7	O	1.118710	-0.342030	-0.191887
O8	O	1.027636	-0.162629	-0.312326
O9	O	1.239124	-0.342027	-0.312308
O10	O	1.118871	-0.162627	-0.403567
O11	O	1.027545	-0.264697	-0.191895
O12	O	0.907168	-0.264664	-0.312264
O13	O	1.027539	-0.341971	-0.523879
O14	O	0.907126	-0.341973	-0.403458
O15	O	1.118816	-0.264660	-0.523926
O16	O	1.118655	-0.444062	-0.312247
O17	O	1.027448	-0.444038	-0.403449
C18	C	0.880200	-0.303316	-0.357856
C19	C	0.797655	-0.303321	-0.357856
C20	C	1.073055	-0.466891	-0.357856
C21	C	1.073081	-0.536859	-0.357863
C22	C	0.598205	-0.261232	-0.308379
C23	C	0.548783	-0.318646	-0.290098
C24	C	0.646524	-0.303340	-0.357889
C25	C	0.548865	-0.245945	-0.376169
C26	C	0.500539	-0.303353	-0.357920
C27	C	0.598189	-0.360785	-0.339573
C28	C	0.598276	-0.288045	-0.425676
C29	C	0.548875	-0.345499	-0.407420
C30	C	0.730623	-0.303331	-0.357870
C31	C	0.416443	-0.303368	-0.357940
C32	C	1.120615	-0.569717	-0.310423
C33	C	1.120650	-0.635460	-0.310440
C34	C	1.073138	-0.668341	-0.357889
C35	C	1.025600	-0.635475	-0.405338
C36	C	1.025572	-0.569734	-0.405325
N37	N	1.008171	-0.771604	-0.363536
N38	N	1.008200	-0.834055	-0.363544
C39	C	1.073221	-0.866416	-0.357931
N40	N	1.138214	-0.833966	-0.352296
N41	N	1.138184	-0.771509	-0.352284
C42	C	1.073163	-0.739627	-0.357908
C43	C	1.120797	-0.970560	-0.310507
C44	C	1.120833	-1.036304	-0.310529
C45	C	1.025776	-1.036318	-0.405423
C46	C	1.025747	-0.970575	-0.405405
C47	C	1.073256	-0.937700	-0.357943
C48	C	1.266858	-0.303363	-0.357939
C49	C	1.349404	-0.303373	-0.357956
C50	C	1.073182	-0.303311	-0.551603
C51	C	1.073194	-0.303299	-0.634148
C52	C	1.073270	-0.139149	-0.357954
C53	C	1.073321	-0.069181	-0.357979
C54	C	1.023596	-0.345283	-0.833574
C55	C	1.091350	-0.360675	-0.882971
C56	C	1.073231	-0.303251	-0.785279
C57	C	1.005513	-0.287842	-0.882964
C58	C	1.073260	-0.303206	-0.931264
C59	C	1.141021	-0.318673	-0.833589
C60	C	1.055138	-0.245814	-0.833577
C61	C	1.122940	-0.261183	-0.882952
C62	C	1.073213	-0.303279	-0.701181
C63	C	1.073286	-0.303178	-1.015361
C64	C	1.073166	-0.303322	-0.164945
C65	C	1.073298	-0.303156	-0.082399
H66	H	0.527044	-0.331593	-0.232786
H67	H	0.527159	-0.197408	-0.391591
C68	C	0.973278	-0.533585	-0.457508
C69	C	1.005399	-0.488332	-0.515835
C70	C	0.953103	-0.452181	-0.568017
C71	C	0.868686	-0.461283	-0.561872
C72	C	0.836560	-0.506537	-0.503543
C73	C	0.888856	-0.542688	-0.451361
H74	H	1.067894	-0.481593	-0.520386
H75	H	0.976886	-0.418681	-0.611196
H76	H	0.829973	-0.434522	-0.600500
H77	H	0.774065	-0.513277	-0.498992
H78	H	0.865073	-0.576189	-0.408182
H79	H	1.198317	-0.331742	-0.811991
C80	C	0.627329	-0.426384	-0.318608
C81	C	0.676562	-0.434690	-0.249645
C82	C	0.705702	-0.500286	-0.228678
C83	C	0.685610	-0.557577	-0.276674
C84	C	0.636374	-0.549273	-0.345641
C85	C	0.607233	-0.483676	-0.366609
H86	H	0.691437	-0.392278	-0.214112
H87	H	0.742150	-0.506433	-0.177623
H88	H	0.707181	-0.606135	-0.261152
H89	H	0.621498	-0.591685	-0.381175
H90	H	0.570786	-0.477530	-0.417663
H91	H	1.164975	-0.225619	-0.904496
H92	H	1.159302	-0.542953	-0.271778
C93	C	1.172933	-0.671615	-0.258245
C94	C	1.225188	-0.635454	-0.206037
C95	C	1.277467	-0.671607	-0.153840
C96	C	1.277492	-0.743919	-0.153851
C97	C	1.225236	-0.780084	-0.206061
C98	C	1.172956	-0.743931	-0.258258
H99	H	1.225171	-0.581920	-0.206027
H100	H	1.316151	-0.644835	-0.115191
H101	H	1.316193	-0.770682	-0.115212
H102	H	1.225253	-0.833618	-0.206071
H103	H	1.134273	-0.770703	-0.296907
H104	H	1.039798	-0.197273	-0.811864
C105	C	0.519794	-0.393666	-0.464002
C106	C	0.469992	-0.448171	-0.438149
C107	C	0.440910	-0.496339	-0.494727
C108	C	0.461630	-0.490002	-0.577158
C109	C	0.511435	-0.435494	-0.603015
C110	C	0.540517	-0.387326	-0.546437
H111	H	0.454651	-0.452864	-0.377125
H112	H	0.404041	-0.536689	-0.475585
H113	H	0.440102	-0.525659	-0.619040
H114	H	0.526776	-0.430801	-0.664039
H115	H	0.577386	-0.346976	-0.565579
C116	C	0.973336	-0.671642	-0.457532
C117	C	0.915068	-0.716893	-0.425301
C118	C	0.862805	-0.753060	-0.477501
C119	C	0.868809	-0.743975	-0.561931
C120	C	0.927079	-0.698722	-0.594166
C121	C	0.979342	-0.662555	-0.541967
H122	H	0.910621	-0.723620	-0.362797
H123	H	0.819669	-0.786559	-0.453637
H124	H	0.830121	-0.770747	-0.600572
H125	H	0.931526	-0.691995	-0.656671
H126	H	1.022478	-0.629056	-0.565830
H127	H	1.159484	-0.943792	-0.271862
C128	C	0.627475	-0.213178	-0.251759
C129	C	0.606918	-0.143302	-0.259405
C130	C	0.636189	-0.095252	-0.202784
C131	C	0.686018	-0.117079	-0.138518
C132	C	0.706579	-0.186959	-0.130870
C133	C	0.677307	-0.235008	-0.187490
H134	H	0.570029	-0.127141	-0.306981
H135	H	0.620968	-0.043522	-0.208446
H136	H	0.707687	-0.081510	-0.096605
H137	H	0.743467	-0.203120	-0.083294
H138	H	0.692528	-0.286738	-0.181828
H139	H	0.620032	-0.275080	-0.482970
H140	H	1.159545	-1.063056	-0.271899
C141	C	1.112047	-0.426266	-0.912288
C142	C	1.187196	-0.455684	-0.891710
C143	C	1.207886	-0.521276	-0.921024
C144	C	1.153427	-0.557452	-0.970915
C145	C	1.078274	-0.528035	-0.991495
C146	C	1.057583	-0.462442	-0.962182
H147	H	1.227514	-0.428904	-0.854776
H148	H	1.263520	-0.543052	-0.905789
H149	H	1.168743	-0.606007	-0.992614
H150	H	1.037956	-0.554814	-1.028430
H151	H	1.001949	-0.440666	-0.977417
C152	C	0.973509	-1.072479	-0.457617
C153	C	0.973536	-1.144792	-0.457633
C154	C	0.921268	-1.180957	-0.509830
C155	C	0.868974	-1.144809	-0.562010
C156	C	0.868945	-1.072492	-0.561996
C157	C	0.921213	-1.036327	-0.509799
H158	H	1.012249	-1.171554	-0.419004
H159	H	0.921289	-1.234490	-0.509840
H160	H	0.830282	-1.171580	-0.600649
H161	H	0.830232	-1.045729	-0.600624
H162	H	0.921192	-0.982793	-0.509789
C163	C	0.973452	-0.934428	-0.457586
C164	C	0.889034	-0.943529	-0.451442
C165	C	0.836739	-0.907383	-0.503629
C166	C	0.868861	-0.862136	-0.561961
C167	C	0.953284	-0.853033	-0.568108
C168	C	1.005579	-0.889179	-0.515921
H169	H	0.865251	-0.977026	-0.408259
H170	H	0.774244	-0.914122	-0.499078
H171	H	0.830149	-0.835378	-0.600593
H172	H	0.977067	-0.819536	-0.611291
H173	H	1.068074	-0.882440	-0.520471
C174	C	0.966945	-0.393361	-0.804276
C175	C	0.975298	-0.463391	-0.823783
C176	C	0.918652	-0.511469	-0.794484
C177	C	0.853652	-0.489518	-0.745677
C178	C	0.845296	-0.419485	-0.726167
C179	C	0.901942	-0.371406	-0.755467
H180	H	1.023417	-0.479643	-0.859915
H181	H	0.924838	-0.563312	-0.808927
H182	H	0.811719	-0.525108	-0.723988
H183	H	0.797177	-0.403232	-0.690036
H184	H	0.895756	-0.319563	-0.741024
H185	H	0.948233	-0.274828	-0.904653
