data_functionalizedCrystal
_audit_creation_method	'MofGen! by Chris Wilmer'
_symmetry_space_group_name_H-M	'P1'
_symmetry_Int_Tables_number	1
_symmetry_cell_setting	triclinic
loop_
_symmetry_equiv_pos_as_xyz
  x,y,z
_cell_length_a	19.188930
_cell_length_b	16.109301
_cell_length_c	15.186229
_cell_angle_alpha	90.000638
_cell_angle_beta	89.991143
_cell_angle_gamma	96.696869
loop_
_atom_site_label
_atom_site_type_symbol
_atom_site_fract_x
_atom_site_fract_y
_atom_site_fract_z
O1	O	0.089744	-1.102833	-0.073183
O2	O	0.100912	-0.860734	-0.073198
O3	O	-0.006311	-0.988770	-0.073173
O4	O	0.196967	-0.974797	-0.073208
O5	O	-0.006313	-0.988762	0.073284
O6	O	0.100911	-0.860726	0.073259
O7	O	0.089742	-1.102825	0.073274
Zn8	Zn	0.095326	-0.981774	0.096520
Zn9	Zn	0.095328	-0.981785	-0.096444
O10	O	0.196966	-0.974789	0.073249
C11	C	0.100459	-0.829757	0.000029
C12	C	0.099103	-0.737466	0.000024
C13	C	-0.032324	-0.988313	0.000058
C14	C	-0.109832	-0.986955	0.000066
N15	N	0.095325	-0.981772	0.228213
C16	C	-0.154580	-1.062082	0.000075
C17	C	-0.227407	-1.060806	0.000060
C18	C	-0.255482	-0.984399	0.000055
C19	C	-0.210724	-0.909261	0.000041
C20	C	-0.137899	-0.910540	0.000046
N21	N	-0.363624	-0.925991	0.049893
N22	N	-0.432805	-0.924782	0.049890
C23	C	-0.474900	-0.980543	0.000037
N24	N	-0.445200	-1.037571	-0.049802
N25	N	-0.376013	-1.038783	-0.049795
C26	C	-0.334448	-0.983004	0.000049
C27	C	-0.598616	-1.054292	0.000029
C28	C	-0.671443	-1.053012	0.000010
C29	C	-0.654759	-0.901465	-0.000001
C30	C	-0.581933	-0.902747	0.000010
C31	C	-0.553866	-0.979162	0.000029
C32	C	0.222979	-0.975246	0.000016
C33	C	0.300486	-0.976604	0.000003
C34	C	0.090196	-1.133802	0.000045
C35	C	0.091552	-1.226093	0.000045
C36	C	0.159573	-0.514993	0.000023
C37	C	0.158294	-0.428277	0.000029
C38	C	0.031076	-0.448573	0.000048
C39	C	0.032357	-0.535287	0.000048
C40	C	0.096608	-0.568495	0.000031
C41	C	0.094047	-0.395064	0.000037
C42	C	0.092659	-0.301043	0.000043
C43	C	0.097996	-0.662522	0.000027
N44	N	0.095325	-0.981793	-0.228137
C45	C	0.047862	-1.038486	0.453947
C46	C	0.047860	-1.038488	0.546136
C47	C	0.142790	-0.925074	0.546123
C48	C	0.142787	-0.925068	0.453935
C49	C	0.095324	-0.981779	0.407849
C50	C	0.095325	-0.981787	0.592227
C51	C	0.095323	-0.981790	0.692183
C52	C	0.095325	-0.981775	0.307887
H53	H	-0.263848	-1.121986	0.000064
H54	H	-0.233587	-0.847050	0.000035
O55	O	0.219413	-0.376222	-0.000101
C56	C	0.222488	-0.325470	-0.075964
H57	H	0.167070	-0.321286	-0.101239
H58	H	0.254368	-0.353883	-0.129085
C59	C	0.325706	-0.242438	-0.021884
C60	C	0.257640	-0.237294	-0.052924
H61	H	0.347393	-0.188048	-0.007675
H62	H	0.323637	-0.276632	0.029224
H63	H	0.352265	-0.266119	-0.066158
H64	H	0.231081	-0.213623	-0.008647
H65	H	0.259706	-0.203093	-0.104025
H66	H	0.009214	-1.084662	0.416426
O67	O	-0.094526	-0.837481	0.000081
C68	C	-0.134917	-0.769764	0.000046
H69	H	-0.189281	-0.791062	0.027768
H70	H	-0.140083	-0.746336	-0.070220
C71	C	-0.031855	-0.672515	0.023430
C72	C	-0.098623	-0.698671	0.057486
H73	H	-0.009466	-0.628659	0.058858
H74	H	-0.004641	-0.718136	0.023451
H75	H	-0.036168	-0.652997	-0.035125
H76	H	-0.094308	-0.718198	0.116035
H77	H	-0.125835	-0.653051	0.057476
O78	O	0.188871	-0.870074	0.591029
C79	C	0.178686	-0.882225	0.682282
H80	H	0.152606	-0.948418	0.694873
H81	H	0.143659	-0.835298	0.708458
C82	C	0.282142	-0.788176	0.714129
C83	C	0.250115	-0.869477	0.729594
H84	H	0.326201	-0.780308	0.743315
H85	H	0.289003	-0.779986	0.652651
H86	H	0.252945	-0.749079	0.735943
H87	H	0.279307	-0.908572	0.707771
H88	H	0.243261	-0.877673	0.791071
H89	H	-0.021234	-0.421524	0.000066
H90	H	0.181437	-0.878886	0.416400
H91	H	-0.131733	-1.124306	0.000087
H92	H	-0.575763	-1.116514	0.000041
H93	H	-0.677617	-0.839253	-0.000010
H94	H	-0.707878	-1.114193	0.000012
H95	H	-0.018920	-0.578851	0.000057
H96	H	-0.545497	-0.841570	0.000008
H97	H	0.211890	-0.542027	0.000016
O98	O	0.001730	-1.093656	0.590778
C99	C	-0.040172	-1.143690	0.530330
H100	H	-0.011544	-1.144520	0.464610
H101	H	-0.092046	-1.116887	0.520536
C102	C	-0.089701	-1.232411	0.647023
C103	C	-0.054537	-1.233436	0.566307
H104	H	-0.098565	-1.287769	0.669216
H105	H	-0.061473	-1.198700	0.687750
H106	H	-0.132925	-1.210071	0.638851
H107	H	-0.011310	-1.255765	0.574482
H108	H	-0.082758	-1.267152	0.525582
