data_functionalizedCrystal
_audit_creation_method	'MofGen! by Chris Wilmer'
_symmetry_space_group_name_H-M	'P1'
_symmetry_Int_Tables_number	1
_symmetry_cell_setting	triclinic
loop_
_symmetry_equiv_pos_as_xyz
  x,y,z
_cell_length_a	12.645330
_cell_length_b	11.169417
_cell_length_c	11.169409
_cell_angle_alpha	90.019824
_cell_angle_beta	89.967722
_cell_angle_gamma	89.981430
loop_
_atom_site_label
_atom_site_type_symbol
_atom_site_fract_x
_atom_site_fract_y
_atom_site_fract_z
Zn1	Zn	-0.421929	-1.834901	-0.678543
Zn2	Zn	0.078071	-1.334901	-0.178543
Zn3	Zn	-0.599240	-1.834765	-0.477860
Zn4	Zn	-0.099240	-1.334765	0.022140
Zn5	Zn	-0.421993	-1.634187	-0.477878
Zn6	Zn	0.078007	-1.134187	0.022122
Zn7	Zn	-0.599153	-1.634169	-0.678505
Zn8	Zn	-0.099153	-1.134169	-0.178505
O9	O	-0.510579	-1.734505	-0.578197
O10	O	-0.010579	-1.234505	-0.078197
O11	O	-0.445458	-2.002833	-0.651931
O12	O	0.054542	-1.502833	-0.151931
O13	O	-0.575791	-1.808108	-0.309913
O14	O	-0.075791	-1.308108	0.190087
O15	O	-0.273637	-1.660877	-0.504519
O16	O	0.226363	-1.160877	-0.004519
O17	O	-0.575728	-2.002732	-0.504490
O18	O	-0.075728	-1.502732	-0.004490
O19	O	-0.273590	-1.808341	-0.651948
O20	O	0.226410	-1.308341	-0.151948
O21	O	-0.445569	-1.660745	-0.309925
O22	O	0.054431	-1.160745	0.190075
O23	O	-0.445485	-1.466235	-0.504483
O24	O	0.054515	-0.966235	-0.004483
O25	O	-0.575581	-1.660846	-0.846460
O26	O	-0.075581	-1.160846	-0.346460
O27	O	-0.575644	-1.466221	-0.651883
O28	O	-0.075644	-0.966221	-0.151883
O29	O	-0.445375	-1.808323	-0.846488
O30	O	0.054625	-1.308323	-0.346488
O31	O	-0.747575	-1.808090	-0.504453
O32	O	-0.247575	-1.308090	-0.004453
O33	O	-0.747512	-1.660713	-0.651866
O34	O	-0.247512	-1.160713	-0.151866
C35	C	-0.786008	-1.734418	-0.578180
C36	C	-0.286008	-1.234418	-0.078180
C37	C	-0.903838	-1.734490	-0.578213
C38	C	-0.403838	-1.234490	-0.078213
C39	C	-0.510563	-1.422681	-0.578181
C40	C	-0.010563	-0.922681	-0.078181
C41	C	-0.510581	-1.289281	-0.578203
C42	C	-0.010581	-0.789281	-0.078203
C43	C	-0.510461	-1.734597	-0.891239
C44	C	-0.010461	-1.234597	-0.391239
C45	C	-0.510411	-1.734637	-1.024639
C46	C	-0.010411	-1.234637	-0.524639
C47	C	-1.071407	-1.642158	-0.671236
C48	C	-0.571407	-1.142158	-0.171236
C49	C	-0.948847	-1.641685	-0.670937
C50	C	-0.448847	-1.141685	-0.170937
C51	C	-0.948447	-1.700247	-0.451730
C52	C	-0.448447	-1.200247	0.048270
C53	C	-1.071046	-1.699683	-0.452295
C54	C	-0.571046	-1.199683	0.047705
C55	C	-1.070922	-1.861631	-0.610646
C56	C	-0.570922	-1.361631	-0.110646
C57	C	-0.948315	-1.860852	-0.613412
C58	C	-0.448315	-1.360852	-0.113412
C59	C	-0.234073	-1.734626	-0.578240
C60	C	0.265927	-1.234626	-0.078240
C61	C	-0.116243	-1.734677	-0.578258
C62	C	0.383757	-1.234677	-0.078258
C63	C	-0.510596	-2.047548	-0.578213
C64	C	-0.010596	-1.547548	-0.078213
C65	C	-0.510603	-2.180948	-0.578220
C66	C	-0.010603	-1.680948	-0.078220
C67	C	-0.510619	-1.734483	-0.266372
C68	C	-0.010619	-1.234483	0.233628
C69	C	-0.510371	-1.734676	-0.132972
C70	C	-0.010371	-1.234676	0.367028
H71	H	-0.918682	-1.663110	-0.764723
H72	H	-0.418682	-1.163110	-0.264723
C73	C	-1.110099	-1.954753	-0.519166
C74	C	-0.610099	-1.454753	-0.019166
N75	N	-1.139615	-2.024884	-0.450261
N76	N	-0.639615	-1.524884	0.049739
C77	C	-1.112569	-1.903826	-0.733133
C78	C	-0.612569	-1.403826	-0.233133
N79	N	-1.143937	-1.935594	-0.825396
N80	N	-0.643937	-1.435594	-0.325396
C81	C	-0.909059	-1.788388	-0.355579
C82	C	-0.409059	-1.288388	0.144421
N83	N	-0.879387	-1.854776	-0.283159
N84	N	-0.379387	-1.354776	0.216841
C85	C	-1.113142	-1.515799	-0.642611
C86	C	-0.613142	-1.015799	-0.142611
N87	N	-1.144575	-1.420625	-0.621043
N88	N	-0.644575	-0.920625	-0.121043
C89	C	-0.908875	-1.895770	-0.739140
C90	C	-0.408875	-1.395770	-0.239140
N91	N	-0.879148	-1.922075	-0.833831
N92	N	-0.379148	-1.422075	-0.333831
H93	H	-1.099742	-1.606879	-0.424857
H94	H	-0.599742	-1.106879	0.075143
C95	C	-1.111134	-1.670826	-0.798355
C96	C	-0.611134	-1.170826	-0.298355
N97	N	-1.141067	-1.692419	-0.894104
N98	N	-0.641067	-1.192419	-0.394104
C99	C	-0.909353	-1.514516	-0.642038
C100	C	-0.409353	-1.014516	-0.142038
N101	N	-0.879606	-1.418719	-0.620299
N102	N	-0.379606	-0.918719	-0.120299
C103	C	-1.111124	-1.786755	-0.355505
C104	C	-0.611124	-1.286755	0.144495
N105	N	-1.141307	-1.852329	-0.282597
N106	N	-0.641307	-1.352329	0.217403
H107	H	-0.917841	-1.608410	-0.423796
H108	H	-0.417841	-1.108410	0.076204
C109	C	-0.906921	-1.958883	-0.528583
C110	C	-0.406921	-1.458883	-0.028583
N111	N	-0.875744	-2.032717	-0.464679
N112	N	-0.375744	-1.532717	0.035321
