data_functionalizedCrystal
_audit_creation_method	'MofGen! by Chris Wilmer'
_symmetry_space_group_name_H-M	'P1'
_symmetry_Int_Tables_number	1
_symmetry_cell_setting	triclinic
loop_
_symmetry_equiv_pos_as_xyz
  x,y,z
_cell_length_a	19.805407
_cell_length_b	19.805405
_cell_length_c	18.215399
_cell_angle_alpha	90.027923
_cell_angle_beta	90.018864
_cell_angle_gamma	90.024042
loop_
_atom_site_label
_atom_site_type_symbol
_atom_site_fract_x
_atom_site_fract_y
_atom_site_fract_z
Zn1	Zn	1.034741	-0.269519	0.416097
Zn2	Zn	1.034653	-0.382710	0.293031
Zn3	Zn	0.921554	-0.269535	0.293046
Zn4	Zn	0.921519	-0.382666	0.416058
O5	O	0.978117	-0.326107	0.354558
O6	O	1.129446	-0.284545	0.399782
O7	O	1.019628	-0.367722	0.190048
O8	O	0.936620	-0.174816	0.309392
O9	O	1.129382	-0.367706	0.309366
O10	O	1.019778	-0.174804	0.399797
O11	O	0.936535	-0.284572	0.190060
O12	O	0.826833	-0.284530	0.309354
O13	O	0.936560	-0.367631	0.519047
O14	O	0.826807	-0.367647	0.399730
O15	O	1.019744	-0.284503	0.519076
O16	O	1.019594	-0.477420	0.309328
O17	O	0.936475	-0.477388	0.399715
C18	C	0.802261	-0.326086	0.354540
C19	C	0.727029	-0.326093	0.354550
C20	C	0.691719	-0.282868	0.401701
C21	C	0.621030	-0.282871	0.401704
C22	C	0.585653	-0.326104	0.354559
C23	C	0.620968	-0.369331	0.307402
C24	C	0.691655	-0.369324	0.307396
C25	C	0.335895	-0.369362	0.307425
C26	C	0.265203	-0.369367	0.307436
C27	C	0.265270	-0.282909	0.401733
C28	C	0.335957	-0.282902	0.401727
C29	C	0.371266	-0.326126	0.354568
C30	C	0.447914	-0.326121	0.354564
C31	C	0.509006	-0.326113	0.354565
C32	C	0.978040	-0.501963	0.354531
C33	C	0.978069	-0.577195	0.354545
C34	C	1.021344	-0.612475	0.401655
C35	C	1.021368	-0.683163	0.401669
C36	C	0.978120	-0.718571	0.354568
C37	C	0.934841	-0.683286	0.307455
C38	C	0.934813	-0.612599	0.307445
C39	C	0.934949	-0.968359	0.307493
C40	C	0.934981	-1.039051	0.307504
C41	C	1.021504	-1.038924	0.401716
C42	C	1.021477	-0.968237	0.401707
C43	C	0.978195	-0.932958	0.354597
C44	C	0.978168	-0.856310	0.354584
C45	C	0.978150	-0.795218	0.354577
C46	C	1.154659	-0.326129	0.354576
C47	C	1.229891	-0.326138	0.354584
C48	C	0.978158	-0.326060	0.546511
C49	C	0.978176	-0.326041	0.628310
C50	C	0.978213	-0.149564	0.354601
C51	C	0.978254	-0.074332	0.354619
C52	C	0.978115	-0.326105	0.163352
C53	C	0.978228	-0.325934	0.081553
C54	C	1.021505	-0.282715	0.816520
C55	C	1.021513	-0.282695	0.893379
C56	C	0.934894	-0.369261	0.893338
C57	C	0.934883	-0.369277	0.816480
C58	C	0.978192	-0.326005	0.778073
C59	C	0.978211	-0.325969	0.931790
C60	C	0.978220	-0.325948	1.015123
C61	C	0.978183	-0.326025	0.694734
H62	H	0.720518	-0.247664	0.440094
H63	H	0.899608	-0.404529	0.785176
O64	O	0.370352	-0.241002	0.447602
C65	C	0.411259	-0.279587	0.495044
H66	H	0.389942	-0.332903	0.499491
H67	H	0.464822	-0.281887	0.472280
C68	C	0.438568	-0.181125	0.566150
C69	C	0.412382	-0.246607	0.571617
H70	H	0.439264	-0.160780	0.613382
H71	H	0.411010	-0.155128	0.534185
H72	H	0.483201	-0.183050	0.547176
H73	H	0.367747	-0.244680	0.590581
H74	H	0.439933	-0.272602	0.603586
H75	H	1.056769	-0.247478	0.785252
H76	H	1.056695	-0.939410	0.440058
O77	O	0.892767	-0.411321	0.930534
C78	C	0.854547	-0.449545	0.880116
H79	H	0.852207	-0.421831	0.825338
H80	H	0.879308	-0.500953	0.871929
C81	C	0.785385	-0.493331	0.977376
C82	C	0.782506	-0.459290	0.910098
H83	H	0.740947	-0.499346	0.995872
H84	H	0.811136	-0.467581	1.011345
H85	H	0.806022	-0.536168	0.970545
H86	H	0.761877	-0.416451	0.916932
H87	H	0.756750	-0.485033	0.876132
O88	O	0.892733	-0.717649	0.261779
C89	C	0.825258	-0.700411	0.277782
H90	H	0.821801	-0.680950	0.336568
H91	H	0.807569	-0.659417	0.238304
C92	C	0.784363	-0.787150	0.196978
C93	C	0.780116	-0.763253	0.269183
H94	H	0.756516	-0.825912	0.191671
H95	H	0.829821	-0.798762	0.186194
H96	H	0.769623	-0.752982	0.164088
H97	H	0.794863	-0.797417	0.302071
H98	H	0.734658	-0.751648	0.279972
H99	H	1.056782	-0.247443	0.924679
H100	H	0.592284	-0.247674	0.440101
O101	O	0.370220	-0.411256	0.261546
C102	C	0.411116	-0.372664	0.214093
H103	H	0.389829	-0.319353	0.209648
H104	H	0.464698	-0.370353	0.236847
C105	C	0.438306	-0.471124	0.142987
C106	C	0.412158	-0.405648	0.137522
H107	H	0.438953	-0.491471	0.095755
H108	H	0.410757	-0.497125	0.174958
H109	H	0.482956	-0.469189	0.161951
H110	H	0.367507	-0.407584	0.118567
H111	H	0.439701	-0.379648	0.105546
O112	O	0.230895	-0.241009	0.447575
C113	C	0.190024	-0.279606	0.495047
H114	H	0.179405	-0.330868	0.468990
H115	H	0.217284	-0.287108	0.549567
C116	C	0.135939	-0.179424	0.540456
C117	C	0.122892	-0.242383	0.508450
H118	H	0.094530	-0.156462	0.548727
H119	H	0.163477	-0.153419	0.508475
H120	H	0.158658	-0.185685	0.585886
H121	H	0.100182	-0.236121	0.463017
H122	H	0.095349	-0.268385	0.540423
O123	O	0.892705	-0.578294	0.261787
C124	C	0.848964	-0.537407	0.303641
H125	H	0.844762	-0.558683	0.361600
H126	H	0.869869	-0.483816	0.306191
C127	C	0.783778	-0.510265	0.196433
C128	C	0.778614	-0.536399	0.267619
H129	H	0.740384	-0.509640	0.174212
H130	H	0.813249	-0.537809	0.168235
H131	H	0.801202	-0.465608	0.198568
H132	H	0.761198	-0.581058	0.265482
H133	H	0.749138	-0.508862	0.295816
H134	H	0.236400	-0.404574	0.269042
H135	H	0.720404	-0.404522	0.269000
O136	O	1.063375	-0.578188	0.447481
C137	C	1.101585	-0.624489	0.489054
H138	H	1.073880	-0.674898	0.491577
H139	H	1.153010	-0.631979	0.462160
C140	C	1.145311	-0.534938	0.564288
C141	C	1.111280	-0.596850	0.567392
H142	H	1.151295	-0.517889	0.612610
H143	H	1.119571	-0.503744	0.536278
H144	H	1.188162	-0.541188	0.541873
H145	H	1.068428	-0.590598	0.589798
H146	H	1.137014	-0.628043	0.595407
O147	O	1.063315	-0.717459	0.447508
C148	C	1.024782	-0.758364	0.495007
H149	H	0.971461	-0.737108	0.499503
H150	H	1.022486	-0.811954	0.472264
C151	C	1.123309	-0.785475	0.566018
C152	C	1.057820	-0.759365	0.571544
H153	H	1.143689	-0.786096	0.613229
H154	H	1.149270	-0.757919	0.534016
H155	H	1.121387	-0.830131	0.547063
H156	H	1.059744	-0.714707	0.590490
H157	H	1.031860	-0.786914	0.603551
H158	H	1.056744	-1.067656	0.440077
O159	O	0.892894	-0.934200	0.261654
C160	C	0.854724	-0.980612	0.220093
H161	H	0.882470	-1.030979	0.217588
H162	H	0.803303	-0.988155	0.246986
C163	C	0.810931	-0.891221	0.144827
C164	C	0.845012	-0.953081	0.141745
H165	H	0.804937	-0.874239	0.096500
H166	H	0.836645	-0.859952	0.172829
H167	H	0.768084	-0.897516	0.167241
H168	H	0.887860	-0.946784	0.119341
H169	H	0.819305	-0.984349	0.113738
O170	O	0.893060	-1.073478	0.261675
C171	C	0.931632	-1.114375	0.214195
H172	H	0.984933	-1.093028	0.209688
H173	H	0.933980	-1.167931	0.236962
C174	C	0.833130	-1.141757	0.143199
C175	C	0.898593	-1.115535	0.137658
H176	H	0.812750	-1.142475	0.095988
H177	H	0.807143	-1.114206	0.175188
H178	H	0.835096	-1.186384	0.162175
H179	H	0.896626	-1.070905	0.118692
H180	H	0.924580	-1.143078	0.105664
H181	H	0.592158	-0.404529	0.269012
