data_functionalizedCrystal
_audit_creation_method	'MofGen! by Chris Wilmer'
_symmetry_space_group_name_H-M	'P1'
_symmetry_Int_Tables_number	1
_symmetry_cell_setting	triclinic
loop_
_symmetry_equiv_pos_as_xyz
  x,y,z
_cell_length_a	19.805407
_cell_length_b	16.120484
_cell_length_c	19.805398
_cell_angle_alpha	92.872517
_cell_angle_beta	89.979507
_cell_angle_gamma	92.925090
loop_
_atom_site_label
_atom_site_type_symbol
_atom_site_fract_x
_atom_site_fract_y
_atom_site_fract_z
Zn1	Zn	1.021048	-0.331958	-0.396461
Zn2	Zn	1.521048	0.168042	0.103539
Zn3	Zn	1.015233	-0.471373	-0.289008
Zn4	Zn	1.515233	0.028627	0.210992
Zn5	Zn	0.907870	-0.331975	-0.283277
Zn6	Zn	1.407870	0.168025	0.216723
Zn7	Zn	0.902090	-0.471331	-0.402144
Zn8	Zn	1.402090	0.028669	0.097856
O9	O	0.961560	-0.401659	-0.342723
O10	O	1.461560	0.098341	0.157277
O11	O	1.114993	-0.350462	-0.382227
O12	O	1.614993	0.149538	0.117773
O13	O	1.000975	-0.452906	-0.193532
O14	O	1.500975	0.047094	0.306468
O15	O	0.927736	-0.215307	-0.293514
O16	O	1.427736	0.284693	0.206486
O17	O	1.110720	-0.452889	-0.303282
O18	O	1.610720	0.047111	0.196718
O19	O	1.010888	-0.215294	-0.376669
O20	O	1.510888	0.284706	0.123331
O21	O	0.922096	-0.350491	-0.189322
O22	O	1.422096	0.149509	0.310678
O23	O	0.812387	-0.350451	-0.299025
O24	O	1.312387	0.149549	0.200975
O25	O	0.917886	-0.452818	-0.496106
O26	O	1.417886	0.047182	0.003894
O27	O	0.808141	-0.452834	-0.386356
O28	O	1.308141	0.047166	0.113644
O29	O	1.005284	-0.350421	-0.491930
O30	O	1.505284	0.149579	0.008070
O31	O	0.995371	-0.588033	-0.308793
O32	O	1.495371	-0.088033	0.191207
O33	O	0.912246	-0.588002	-0.391914
O34	O	1.412246	-0.088002	0.108086
C35	C	0.785705	-0.401640	-0.342686
C36	C	1.285705	0.098360	0.157314
C37	C	0.710472	-0.401652	-0.342687
C38	C	1.210472	0.098348	0.157313
C39	C	0.246484	-0.455071	-0.388175
C40	C	0.746484	0.044929	0.111825
C41	C	0.317172	-0.455069	-0.388161
C42	C	0.817172	0.044931	0.111839
C43	C	0.354710	-0.401679	-0.342750
C44	C	0.854710	0.098321	0.157250
C45	C	0.321555	-0.348293	-0.297345
C46	C	0.821555	0.151707	0.202655
C47	C	0.250867	-0.348299	-0.297357
C48	C	0.750867	0.151701	0.202643
C49	C	0.606629	-0.348268	-0.297297
C50	C	1.106629	0.151732	0.202703
C51	C	0.677321	-0.348264	-0.297290
C52	C	1.177321	0.151736	0.202710
C53	C	0.672934	-0.455037	-0.388101
C54	C	1.172934	0.044963	0.111899
C55	C	0.602247	-0.455044	-0.388112
C56	C	1.102247	0.044956	0.111888
C57	C	0.569098	-0.401661	-0.342706
C58	C	1.069098	0.098339	0.157294
C59	C	0.492449	-0.401664	-0.342721
C60	C	0.992449	0.098336	0.157279
C61	C	0.431357	-0.401671	-0.342737
C62	C	0.931357	0.098329	0.157263
C63	C	0.952569	-0.618268	-0.351607
C64	C	1.452569	-0.118268	0.148393
C65	C	0.948784	-0.710934	-0.355430
C66	C	1.448784	-0.210934	0.144570
C67	C	0.941879	-0.880596	-0.362425
C68	C	1.441879	-0.380596	0.137575
C69	C	0.981363	-0.921881	-0.323032
C70	C	1.481363	-0.421881	0.176968
C71	C	0.977521	-1.016287	-0.326923
C72	C	1.477521	-0.516287	0.173077
C73	C	0.945720	-0.786182	-0.358534
C74	C	1.445720	-0.286182	0.141466
C75	C	1.138102	-0.401679	-0.342760
C76	C	1.638102	0.098321	0.157240
C77	C	1.213334	-0.401687	-0.342776
C78	C	1.713334	0.098313	0.157224
C79	C	0.961589	-0.401613	-0.519263
C80	C	1.461589	0.098387	-0.019263
C81	C	0.961601	-0.401593	-0.594495
C82	C	1.461601	0.098407	-0.094495
C83	C	0.970605	-0.184204	-0.333818
C84	C	1.470605	0.315796	0.166182
C85	C	0.974459	-0.091538	-0.330024
C86	C	1.474459	0.408462	0.169976
C87	C	1.007197	-0.348128	-1.054107
C88	C	1.507197	0.151872	-0.554107
C89	C	1.007185	-0.348153	-0.983419
C90	C	1.507185	0.151847	-0.483419
C91	C	0.961675	-0.401477	-0.950252
C92	C	1.461675	0.098523	-0.450252
C93	C	0.916178	-0.454785	-0.987776
C94	C	1.416178	0.045215	-0.487776
C95	C	0.916194	-0.454763	-1.058462
C96	C	1.416194	0.045237	-0.558462
C97	C	0.916116	-0.454876	-0.702706
C98	C	1.416116	0.045124	-0.202706
C99	C	0.916102	-0.454892	-0.632015
C100	C	1.416102	0.045108	-0.132015
C101	C	1.007107	-0.348266	-0.627663
C102	C	1.507107	0.151734	-0.127663
C103	C	1.007122	-0.348244	-0.698350
C104	C	1.507122	0.151756	-0.198350
C105	C	0.961628	-0.401554	-0.735868
C106	C	1.461628	0.098446	-0.235868
C107	C	0.961642	-0.401527	-0.812515
C108	C	1.461642	0.098473	-0.312515
C109	C	0.961657	-0.401501	-0.873606
C110	C	1.461657	0.098499	-0.373606
C111	C	0.961573	-0.401645	-0.166866
C112	C	1.461573	0.098355	0.333134
C113	C	0.961702	-0.401430	-0.091626
C114	C	1.461702	0.098570	0.408374
H115	H	0.344160	-0.498541	-0.425128
H116	H	0.844160	0.001459	0.074872
H117	H	0.879071	-0.498283	-0.733245
H118	H	1.379071	0.001717	-0.233245
O119	O	0.358120	-0.296457	-0.253297
O120	O	0.858120	0.203543	0.246703
C121	C	0.468958	-0.249155	-0.213006
C122	C	0.968958	0.250845	0.286994
C123	C	0.427634	-0.307892	-0.262936
C124	C	0.927634	0.192108	0.237064
H125	H	0.525167	-0.258392	-0.220772
H126	H	1.025167	0.241608	0.279228
H127	H	0.457902	-0.181933	-0.222227
H128	H	0.957902	0.318067	0.277773
H129	H	0.454389	-0.263698	-0.159015
H130	H	0.954389	0.236302	0.340985
H131	H	0.442178	-0.293424	-0.316946
H132	H	0.942178	0.206576	0.183054
H133	H	0.438694	-0.375097	-0.253657
H134	H	0.938694	0.124903	0.246343
O135	O	0.218771	-0.296362	-0.253232
O136	O	0.718771	0.203638	0.246768
C137	C	0.230577	-0.190490	-0.163127
C138	C	0.730577	0.309510	0.336873
C139	C	0.267011	-0.249250	-0.213077
C140	C	0.767011	0.250750	0.286923
H141	H	0.269562	-0.152397	-0.130638
H142	H	0.769562	0.347603	0.369362
H143	H	0.199323	-0.146895	-0.192442
H144	H	0.699323	0.353105	0.307558
H145	H	0.195862	-0.228728	-0.129288
H146	H	0.695862	0.271272	0.370712
H147	H	0.301759	-0.211080	-0.246927
H148	H	0.801759	0.288920	0.253073
H149	H	0.298221	-0.292848	-0.183719
H150	H	0.798221	0.207152	0.316281
H151	H	0.905192	-0.916150	-0.399070
H152	H	1.405192	-0.416150	0.100930
O153	O	1.051303	-0.296328	-0.730486
O154	O	1.551303	0.203672	-0.230486
C155	C	1.090037	-0.154509	-0.746337
C156	C	1.590037	0.345491	-0.246337
C157	C	1.039972	-0.213208	-0.709887
C158	C	1.539972	0.286792	-0.209887
H159	H	1.080884	-0.087293	-0.729707
H160	H	1.580884	0.412707	-0.229707
H161	H	1.144016	-0.169092	-0.733030
H162	H	1.644016	0.330908	-0.233030
H163	H	1.082244	-0.163689	-0.803302
H164	H	1.582244	0.336311	-0.303302
H165	H	1.047703	-0.204060	-0.652915
H166	H	1.547703	0.295940	-0.152915
H167	H	0.986011	-0.198610	-0.723249
H168	H	1.486011	0.301390	-0.223249
O169	O	0.871995	-0.506506	-0.955451
O170	O	1.371995	-0.006506	-0.455451
C171	C	0.831661	-0.553830	-0.848488
C172	C	1.331661	-0.053830	-0.348488
C173	C	0.881727	-0.495201	-0.885006
C174	C	1.381727	0.004799	-0.385006
H175	H	0.839522	-0.544723	-0.791528
H176	H	1.339522	-0.044723	-0.291528
H177	H	0.777681	-0.539179	-0.861729
H178	H	1.277681	-0.039179	-0.361729
H179	H	0.840747	-0.621043	-0.865182
H180	H	1.340747	-0.121043	-0.365182
H181	H	0.872702	-0.427968	-0.868333
H182	H	1.372702	0.072032	-0.368333
H183	H	0.935690	-0.509924	-0.871765
H184	H	1.435690	-0.009924	-0.371765
H185	H	1.018052	-0.886326	-0.286383
H186	H	1.518052	-0.386326	0.213617
H187	H	1.044252	-0.304700	-1.081106
H188	H	1.544252	0.195300	-0.581106
H189	H	1.044233	-0.304752	-0.952874
H190	H	1.544233	0.195248	-0.452874
H191	H	1.044152	-0.304860	-0.597108
H192	H	1.544152	0.195140	-0.097108
O193	O	0.565759	-0.506788	-0.432292
O194	O	1.065759	-0.006788	0.067708
C195	C	0.485493	-0.518168	-0.524109
C196	C	0.985493	-0.018168	-0.024109
C197	C	0.526788	-0.459468	-0.474127
C198	C	1.026788	0.040532	0.025873
H199	H	0.453964	-0.479934	-0.557937
H200	H	0.953964	0.020066	-0.057937
H201	H	0.521300	-0.556310	-0.556604
H202	H	1.021300	-0.056310	-0.056604
H203	H	0.450608	-0.561727	-0.494752
H204	H	0.950608	-0.061727	0.005248
H205	H	0.561676	-0.415858	-0.503430
H206	H	1.061676	0.084142	-0.003430
H207	H	0.490942	-0.421384	-0.441632
H208	H	0.990942	0.078616	0.058368
O209	O	0.705030	-0.506928	-0.432271
O210	O	1.205030	-0.006928	0.067729
C211	C	0.693214	-0.612868	-0.522323
C212	C	1.193214	-0.112868	-0.022323
C213	C	0.656783	-0.554137	-0.472348
C214	C	1.156783	-0.054137	0.027652
H215	H	0.654222	-0.651064	-0.554729
H216	H	1.154222	-0.151064	-0.054729
H217	H	0.727892	-0.574687	-0.556238
H218	H	1.227892	-0.074687	-0.056238
H219	H	0.724505	-0.656376	-0.492961
H220	H	1.224505	-0.156376	0.007039
H221	H	0.625456	-0.510617	-0.501655
H222	H	1.125456	-0.010617	-0.001655
H223	H	0.622145	-0.592369	-0.438433
H224	H	1.122145	-0.092369	0.061567
H225	H	0.879038	-0.498314	-0.605012
H226	H	1.379038	0.001686	-0.105012
O227	O	0.872027	-0.506655	-1.094840
O228	O	1.372027	-0.006655	-0.594840
C229	C	0.833310	-0.648464	-1.122304
C230	C	1.333310	-0.148464	-0.622304
C231	C	0.883354	-0.589784	-1.081057
C232	C	1.383354	-0.089784	-0.581057
H233	H	0.842459	-0.715687	-1.111186
H234	H	1.342459	-0.215687	-0.611186
H235	H	0.779324	-0.633892	-1.107789
H236	H	1.279324	-0.133892	-0.607789
H237	H	0.841129	-0.639248	-1.178517
H238	H	1.341129	-0.139248	-0.678517
H239	H	0.875596	-0.598967	-1.024834
H240	H	1.375596	-0.098967	-0.524834
H241	H	0.937322	-0.604370	-1.095630
H242	H	1.437322	-0.104370	-0.595630
O243	O	0.210098	-0.506890	-0.432383
O244	O	0.710098	-0.006890	0.067617
C245	C	0.186814	-0.547510	-0.549136
C246	C	0.686814	-0.047510	-0.049136
C247	C	0.228075	-0.488785	-0.499145
C248	C	0.728075	0.011215	0.000855
H249	H	0.201323	-0.532882	-0.603124
H250	H	0.701323	-0.032882	-0.103124
H251	H	0.197930	-0.614730	-0.539973
H252	H	0.697930	-0.114730	-0.039973
H253	H	0.130600	-0.538357	-0.541313
H254	H	0.630600	-0.038357	-0.041313
H255	H	0.284301	-0.497864	-0.506938
H256	H	0.784301	0.002136	-0.006938
H257	H	0.216902	-0.421587	-0.508320
H258	H	0.716902	0.078413	-0.008320
O259	O	0.713753	-0.296493	-0.253077
O260	O	1.213753	0.203507	0.246923
C261	C	0.736988	-0.255819	-0.136325
C262	C	1.236988	0.244181	0.363675
C263	C	0.695697	-0.314510	-0.186317
C264	C	1.195697	0.185490	0.313683
H265	H	0.722396	-0.270353	-0.082339
H266	H	1.222396	0.229647	0.417661
H267	H	0.793212	-0.264989	-0.144062
H268	H	1.293212	0.235011	0.355938
H269	H	0.725893	-0.188617	-0.145572
H270	H	1.225893	0.311383	0.354428
H271	H	0.706735	-0.381734	-0.177100
H272	H	1.206735	0.118266	0.322900
H273	H	0.639486	-0.305268	-0.178568
H274	H	1.139486	0.194732	0.321432
H275	H	0.579648	-0.304804	-0.260322
H276	H	1.079648	0.195196	0.239678
