data_functionalizedCrystal
_audit_creation_method	'MofGen! by Chris Wilmer'
_symmetry_space_group_name_H-M	'P1'
_symmetry_Int_Tables_number	1
_symmetry_cell_setting	triclinic
loop_
_symmetry_equiv_pos_as_xyz
  x,y,z
_cell_length_a	10.540539
_cell_length_b	10.540539
_cell_length_c	9.016244
_cell_angle_alpha	89.999933
_cell_angle_beta	89.994699
_cell_angle_gamma	84.525492
loop_
_atom_site_label
_atom_site_type_symbol
_atom_site_fract_x
_atom_site_fract_y
_atom_site_fract_z
O1	O	1.685893	0.178895	-0.123263
O2	O	1.316480	0.195751	-0.123280
O3	O	1.509614	0.002617	-0.123269
O4	O	1.492759	0.372030	-0.123274
O5	O	1.509586	0.002621	0.123411
O6	O	1.316452	0.195755	0.123400
O7	O	1.685865	0.178900	0.123418
Cu8	Cu	1.501156	0.187328	0.145933
Cu9	Cu	1.501189	0.187323	-0.145795
O10	O	1.492730	0.372034	0.123407
C11	C	1.269163	0.194489	0.000058
C12	C	1.128215	0.190707	0.000051
C13	C	0.944788	0.045790	0.000628
C14	C	1.091406	0.049624	0.000057
C15	C	1.066558	0.258600	-0.140811
C16	C	0.920014	0.253785	-0.140914
C17	C	0.919493	0.256660	0.139608
C18	C	1.066475	0.257960	0.141455
C19	C	1.508336	-0.044684	0.000068
C20	C	1.504554	-0.185632	0.000060
C21	C	1.359637	-0.369059	-0.000500
C22	C	1.363471	-0.222441	0.000055
C23	C	1.572434	-0.247287	0.140930
C24	C	1.567619	-0.393832	0.141049
C25	C	1.570520	-0.394355	-0.139473
C26	C	1.571820	-0.247373	-0.141336
C27	C	1.733182	0.180161	0.000077
C28	C	1.874130	0.183943	0.000074
C29	C	1.494008	0.419335	0.000066
C30	C	1.497790	0.560283	0.000064
N31	N	1.501141	0.187331	0.351119
N32	N	1.501213	0.187310	-0.350982
C33	C	1.397510	0.290298	0.586146
C34	C	1.397739	0.290684	0.414255
C35	C	1.633864	0.217464	0.413464
C36	C	1.633298	0.218193	0.585409
C37	C	1.473367	0.053892	0.585663
C38	C	1.470322	0.054757	0.413709
H39	H	1.133163	-0.004177	-0.101092
O40	O	1.122972	0.196123	-0.279680
H41	H	1.046188	0.158371	-0.345953
O42	O	0.877706	0.196169	0.281039
H43	H	0.815509	0.267225	0.345231
O44	O	1.267103	0.266704	0.358412
H45	H	1.274527	0.178875	0.289803
O46	O	1.120710	0.192274	0.279505
H47	H	1.191348	0.112065	0.247559
H48	H	1.657653	0.315531	0.625498
H49	H	0.914592	-0.009712	-0.099828
O50	O	1.098563	0.394209	0.152743
H51	H	1.159277	0.416222	0.057311
O52	O	0.882645	0.187309	-0.280379
H53	H	0.835336	0.101244	-0.250195
O54	O	0.856458	0.388177	-0.149415
H55	H	0.930432	0.456316	-0.153447
O56	O	1.292698	-0.165991	-0.133682
H57	H	1.255416	-0.243409	-0.199337
H58	H	1.548979	-0.022762	0.626319
H59	H	1.525258	-0.204686	0.245756
H60	H	1.134008	-0.003797	0.101034
H61	H	0.916191	-0.009944	0.101649
O62	O	1.420904	0.420681	0.643337
H63	H	1.506072	0.412451	0.716344
O64	O	0.856927	0.391638	0.140897
H65	H	0.793821	0.406921	0.042697
O66	O	1.501132	-0.431202	0.280518
H67	H	1.402897	-0.382818	0.282974
H68	H	1.669083	-0.441800	0.147444
H69	H	1.415639	0.389668	0.373108
H70	H	1.303918	-0.397661	-0.101521
O71	O	1.709670	-0.217671	0.147905
H72	H	1.731001	-0.158548	0.050812
H73	H	1.712919	0.144501	0.372564
H74	H	1.672424	-0.441581	-0.140416
O75	O	1.738676	0.122712	0.640511
H76	H	1.722548	0.026339	0.599277
O77	O	1.666851	0.344949	0.356433
H78	H	1.588933	0.387043	0.283703
H79	H	1.540849	-0.025564	0.370737
H80	H	1.674681	-0.223152	-0.149837
H81	H	1.088912	0.362208	-0.146054
H82	H	1.304121	-0.399265	0.099949
H83	H	1.309661	-0.180683	0.101200
H84	H	1.524871	-0.425910	-0.246244
H85	H	1.522153	-0.206517	-0.245547
H86	H	1.298584	0.272446	0.627535
H87	H	1.378630	0.025213	0.629106
H88	H	1.372684	0.031916	0.372962
