data_functionalizedCrystal
_audit_creation_method	'MofGen! by Chris Wilmer'
_symmetry_space_group_name_H-M	'P1'
_symmetry_Int_Tables_number	1
_symmetry_cell_setting	triclinic
loop_
_symmetry_equiv_pos_as_xyz
  x,y,z
_cell_length_a	13.897449
_cell_length_b	13.897447
_cell_length_c	12.759393
_cell_angle_alpha	90.028201
_cell_angle_beta	89.975751
_cell_angle_gamma	89.977978
loop_
_atom_site_label
_atom_site_type_symbol
_atom_site_fract_x
_atom_site_fract_y
_atom_site_fract_z
Zn1	Zn	1.474687	0.383947	-0.594130
Zn2	Zn	1.974687	0.883947	-0.094130
Zn3	Zn	1.474569	0.545273	-0.418457
Zn4	Zn	1.974569	1.045273	0.081543
Zn5	Zn	1.313374	0.383996	-0.418455
Zn6	Zn	1.813374	0.883996	0.081545
Zn7	Zn	1.313348	0.545204	-0.594084
Zn8	Zn	1.813348	1.045204	-0.094084
O9	O	1.393995	0.464605	-0.506281
O10	O	1.893995	0.964605	-0.006281
O11	O	1.609653	0.405356	-0.570846
O12	O	2.109653	0.905356	-0.070846
O13	O	1.453147	0.523929	-0.271435
O14	O	1.953147	1.023929	0.228565
O15	O	1.334833	0.249008	-0.441777
O16	O	1.834833	0.749008	0.058223
O17	O	1.609566	0.523881	-0.441780
O18	O	2.109566	1.023881	0.058220
O19	O	1.453349	0.248972	-0.570844
O20	O	1.953349	0.748972	-0.070844
O21	O	1.334718	0.405440	-0.271434
O22	O	1.834718	0.905440	0.228566
O23	O	1.178389	0.405372	-0.441732
O24	O	1.678389	0.905372	0.058268
O25	O	1.334789	0.523763	-0.741111
O26	O	1.834789	1.023763	-0.241111
O27	O	1.178370	0.523811	-0.570766
O28	O	1.678370	1.023811	-0.070766
O29	O	1.453324	0.405288	-0.741145
O30	O	1.953324	0.905288	-0.241145
O31	O	1.453123	0.680246	-0.441736
O32	O	1.953123	1.180246	0.058264
O33	O	1.334674	0.680195	-0.570768
O34	O	1.834674	1.180195	-0.070768
C35	C	1.143380	0.464590	-0.506245
C36	C	1.643380	0.964590	-0.006245
C37	C	1.036166	0.464607	-0.506254
C38	C	1.536166	0.964607	-0.006254
C39	C	1.393909	0.715219	-0.506270
C40	C	1.893909	1.215219	-0.006270
C41	C	1.393961	0.822433	-0.506301
C42	C	1.893961	1.322433	-0.006301
C43	C	0.949097	0.464610	-0.506271
C44	C	1.449097	0.964610	-0.006271
C45	C	0.839864	0.464617	-0.506303
C46	C	1.339864	0.964617	-0.006303
C47	C	1.394005	0.909503	-0.506329
C48	C	1.894005	1.409503	-0.006329
C49	C	1.394069	1.018736	-0.506362
C50	C	1.894069	1.518736	-0.006362
C51	C	1.645588	0.464621	-0.506319
C52	C	2.145588	0.964621	-0.006319
C53	C	1.752802	0.464627	-0.506335
C54	C	2.252802	0.964627	-0.006335
C55	C	1.394067	0.464512	-0.780315
C56	C	1.894067	0.964512	-0.280315
C57	C	1.394098	0.464473	-0.897091
C58	C	1.894098	0.964473	-0.397091
C59	C	1.394100	1.213012	-0.506329
C60	C	1.894100	1.713012	-0.006329
C61	C	1.394126	1.105798	-0.506383
C62	C	1.894126	1.605798	-0.006383
C63	C	1.455823	0.402773	-0.951973
C64	C	1.955823	0.902773	-0.451973
C65	C	1.455840	0.402732	-1.061697
C66	C	1.955840	0.902732	-0.561697
C67	C	1.332402	0.526098	-1.061649
C68	C	1.832402	1.026098	-0.561649
C69	C	1.332381	0.526134	-0.951927
C70	C	1.832381	1.026134	-0.451927
C71	C	1.393978	0.464628	-0.233314
C72	C	1.893978	0.964628	0.266686
C73	C	1.394134	0.464395	-0.116538
C74	C	1.894134	0.964395	0.383462
H75	H	1.506074	0.352562	-0.907329
H76	H	2.006074	0.852562	-0.407329
H77	H	1.506102	0.352488	-1.106376
H78	H	2.006102	0.852488	-0.606376
H79	H	1.282110	0.576376	-0.907241
H80	H	1.782110	1.076376	-0.407241
H81	H	1.282157	0.576302	-1.106309
H82	H	1.782157	1.076302	-0.606309
