data_functionalizedCrystal
_audit_creation_method	'MofGen! by Chris Wilmer'
_symmetry_space_group_name_H-M	'P1'
_symmetry_Int_Tables_number	1
_symmetry_cell_setting	triclinic
loop_
_symmetry_equiv_pos_as_xyz
  x,y,z
_cell_length_a	21.395362
_cell_length_b	18.215405
_cell_length_c	21.395356
_cell_angle_alpha	89.970979
_cell_angle_beta	89.957023
_cell_angle_gamma	90.040762
loop_
_atom_site_label
_atom_site_type_symbol
_atom_site_fract_x
_atom_site_fract_y
_atom_site_fract_z
Zn1	Zn	0.957879	-0.292691	-0.354580
Zn2	Zn	0.957794	-0.415759	-0.249800
Zn3	Zn	0.853096	-0.292745	-0.249781
Zn4	Zn	0.853074	-0.415754	-0.354505
O5	O	0.905460	-0.354237	-0.302166
O6	O	1.045546	-0.308996	-0.340720
O7	O	0.943879	-0.399465	-0.162119
O8	O	0.867040	-0.189753	-0.263706
O9	O	1.045483	-0.399413	-0.263739
O10	O	0.944024	-0.189714	-0.340702
O11	O	0.866958	-0.309087	-0.162106
O12	O	0.765415	-0.309083	-0.263634
O13	O	0.867003	-0.399405	-0.442193
O14	O	0.765399	-0.399458	-0.340573
O15	O	0.944003	-0.308991	-0.442248
O16	O	0.943858	-0.518743	-0.263666
O17	O	0.866920	-0.518739	-0.340592
C18	C	0.742673	-0.354276	-0.302094
C19	C	0.673032	-0.354311	-0.302077
C20	C	0.905394	-0.545444	-0.302136
C21	C	0.905423	-0.627243	-0.302144
C22	C	0.640326	-0.401431	-0.342080
C23	C	0.574891	-0.401413	-0.342108
C24	C	0.542163	-0.354282	-0.302122
C25	C	0.574876	-0.307153	-0.262117
C26	C	0.640310	-0.307167	-0.262094
C27	C	0.438439	-0.348364	-0.245717
C28	C	0.373006	-0.348355	-0.245738
C29	C	0.340343	-0.354234	-0.302191
C30	C	0.373120	-0.360138	-0.358625
C31	C	0.438554	-0.360152	-0.358602
C32	C	0.471211	-0.354261	-0.302142
C33	C	0.236685	-0.401338	-0.342228
C34	C	0.171248	-0.401314	-0.342256
C35	C	0.171235	-0.307058	-0.262260
C36	C	0.236670	-0.307077	-0.262236
C37	C	0.269391	-0.354221	-0.302219
C38	C	0.945579	-0.815414	-0.262163
C39	C	0.945607	-0.892272	-0.262178
C40	C	0.865422	-0.892309	-0.342215
C41	C	0.865398	-0.815452	-0.342203
C42	C	0.905475	-0.777006	-0.302173
C43	C	0.905528	-0.930722	-0.302201
C44	C	0.905558	-1.014056	-0.302217
C45	C	0.905446	-0.693667	-0.302157
C46	C	1.068884	-0.354199	-0.302240
C47	C	1.138525	-0.354182	-0.302271
C48	C	0.905510	-0.354192	-0.465590
C49	C	0.905531	-0.354172	-0.535231
C50	C	0.905544	-0.162284	-0.302210
C51	C	0.905580	-0.080485	-0.302229
C52	C	0.865489	-0.307107	-0.567927
C53	C	0.865486	-0.307094	-0.633363
C54	C	0.905538	-0.354137	-0.666099
C55	C	0.945583	-0.401211	-0.633395
C56	C	0.945579	-0.401229	-0.567961
C57	C	0.961990	-0.359905	-0.769805
C58	C	0.961995	-0.359882	-0.835238
C59	C	0.905548	-0.354088	-0.867920
C60	C	0.849095	-0.348300	-0.835162
C61	C	0.849092	-0.348318	-0.769728
C62	C	0.905546	-0.354124	-0.737052
C63	C	0.865500	-0.307005	-0.971569
C64	C	0.865497	-0.306997	-1.037006
C65	C	0.945599	-0.401111	-1.037037
C66	C	0.945596	-0.401123	-0.971602
C67	C	0.905548	-0.354066	-0.938872
C68	C	0.905447	-0.354230	-0.139379
C69	C	0.905548	-0.354042	-0.069738
H70	H	0.666964	-0.439818	-0.374638
Br71	Br	0.126826	-0.243087	-0.207998
H72	H	0.832880	-0.268764	-0.659989
Br73	Br	1.000039	-0.944395	-0.207879
H74	H	0.978213	-0.784113	-0.229569
H75	H	0.465239	-0.364957	-0.404553
H76	H	0.832792	-0.923621	-0.374805
Br77	Br	0.810973	-0.763322	-0.396512
Br78	Br	0.811128	-0.243142	-1.081380
H79	H	0.978193	-0.439515	-0.660054
Br80	Br	0.281096	-0.465313	-0.396491
Br81	Br	0.811136	-0.243247	-0.523510
H82	H	0.803126	-0.343607	-0.743058
H83	H	0.803131	-0.343577	-0.861770
H84	H	0.832890	-0.268689	-0.944919
H85	H	1.007962	-0.364591	-0.861905
H86	H	0.978211	-0.439413	-1.063691
H87	H	0.978205	-0.439447	-0.944980
H88	H	0.346527	-0.364924	-0.404594
Br89	Br	0.328529	-0.340345	-0.169151
Br90	Br	0.126861	-0.465263	-0.396556
Br91	Br	1.038603	-0.367778	-0.725456
H92	H	0.548257	-0.439784	-0.374685
Br93	Br	0.482761	-0.340386	-0.169095
Br94	Br	0.281059	-0.243125	-0.207944
Br95	Br	0.530462	-0.243183	-0.207855
Br96	Br	0.999926	-0.465108	-0.523585
H97	H	0.666939	-0.268794	-0.229519
