data_functionalizedCrystal
_audit_creation_method	'MofGen! by Chris Wilmer'
_symmetry_space_group_name_H-M	'P1'
_symmetry_Int_Tables_number	1
_symmetry_cell_setting	triclinic
loop_
_symmetry_equiv_pos_as_xyz
  x,y,z
_cell_length_a	27.780903
_cell_length_b	27.780864
_cell_length_c	27.781022
_cell_angle_alpha	90.003823
_cell_angle_beta	120.001209
_cell_angle_gamma	59.999919
loop_
_atom_site_label
_atom_site_type_symbol
_atom_site_fract_x
_atom_site_fract_y
_atom_site_fract_z
O1	O	0.344537	0.410270	0.014330
O2	O	0.245967	0.340272	-0.014243
O3	O	0.344532	0.340272	0.084324
O4	O	0.245972	0.410270	-0.084236
O5	O	0.424589	0.260213	0.084319
O6	O	0.326024	0.260213	-0.014248
O7	O	0.424594	0.330211	0.014325
Zn8	Zn	0.388019	0.282501	0.000038
Zn9	Zn	0.282541	0.387982	0.000044
O10	O	0.326028	0.330212	-0.084241
C11	C	0.492846	0.550043	0.029975
C12	C	0.459057	0.613537	0.025892
C13	C	0.551183	0.520809	0.030382
C14	C	0.492841	0.462879	0.029967
C15	C	0.459048	0.433176	0.025876
C16	C	0.551179	0.433777	0.030374
C17	C	0.580009	0.462879	0.029970
C18	C	0.639416	0.433176	0.025881
C19	C	0.464148	0.520809	0.030379
C20	C	0.687409	0.409179	0.022577
C21	C	0.431759	0.664834	0.022592
C22	C	0.431745	0.409180	0.022569
C23	C	0.747620	0.379074	0.018432
C24	C	0.397512	0.729187	0.018454
C25	C	0.397493	0.379075	0.018421
C26	C	0.090569	0.550047	-0.372301
C27	C	0.031164	0.613541	-0.402000
C28	C	0.119396	0.520812	-0.314373
C29	C	0.177730	0.462884	-0.372309
C30	C	0.211520	0.433182	-0.402015
C31	C	0.206426	0.433781	-0.314380
C32	C	0.177732	0.462882	-0.285142
C33	C	0.211523	0.433179	-0.221650
C34	C	0.119395	0.520814	-0.401407
C35	C	0.238823	0.409181	-0.170354
C36	C	-0.016827	0.664838	-0.425992
C37	C	0.238819	0.409186	-0.426015
C38	C	0.273072	0.379076	-0.106001
C39	C	-0.077036	0.729192	-0.456092
C40	C	0.273066	0.379081	-0.456123
C41	C	0.177737	0.120428	-0.029854
C42	C	0.211532	0.056932	-0.025760
C43	C	0.206431	0.149664	-0.030264
C44	C	0.090565	0.207598	-0.029862
C45	C	0.031156	0.237304	-0.025778
C46	C	0.119392	0.236701	-0.030273
C47	C	0.177732	0.207597	-0.029863
C48	C	0.211522	0.237302	-0.025778
C49	C	0.119397	0.149665	-0.030264
C50	C	0.238821	0.261300	-0.022477
C51	C	0.238835	0.005632	-0.022451
C52	C	-0.016840	0.261303	-0.022476
C53	C	0.273069	0.291407	-0.018337
C54	C	0.273088	-0.058724	-0.018301
C55	C	-0.077054	0.291411	-0.018336
O56	O	0.905273	0.260218	-0.014248
O57	O	0.765287	0.330211	0.014335
O58	O	0.765273	0.330218	-0.084235
O59	O	0.905287	0.260211	0.084323
O60	O	0.765278	0.410275	-0.084227
O61	O	0.765292	0.410268	0.014343
O62	O	0.905278	0.340276	-0.014240
Zn63	Zn	0.835286	0.387983	0.000053
Zn64	Zn	0.835280	0.282504	0.000042
O65	O	0.905292	0.340269	0.084331
O66	O	0.326043	0.919515	-0.014212
O67	O	0.424612	0.750951	0.014357
O68	O	0.326042	0.849505	-0.084208
O69	O	0.424613	0.820961	0.084353
O70	O	0.245989	0.849502	-0.084197
O71	O	0.344559	0.750948	0.014367
O72	O	0.245990	0.919512	-0.014201
Zn73	Zn	0.282564	0.835229	0.000085
Zn74	Zn	0.388038	0.835233	0.000071
O75	O	0.344560	0.820958	0.084363
O76	O	0.344522	0.340281	-0.574994
O77	O	0.245964	0.410277	-0.504985
O78	O	0.344528	0.410278	-0.504984
O79	O	0.245958	0.340280	-0.574994
O80	O	0.424586	0.330218	-0.424932
O81	O	0.326022	0.330217	-0.424932
O82	O	0.424580	0.260222	-0.494941
Zn83	Zn	0.388012	0.282509	-0.447227
Zn84	Zn	0.282532	0.387990	-0.552699
O85	O	0.326016	0.260221	-0.494942
O86	O	-0.234698	0.919514	-0.494883
O87	O	-0.094704	0.750953	-0.424895
O88	O	-0.094698	0.849515	-0.424886
O89	O	-0.234704	0.820953	-0.494893
O90	O	-0.094699	0.849515	-0.504945
O91	O	-0.094705	0.750953	-0.504955
O92	O	-0.234698	0.919514	-0.574943
Zn93	Zn	-0.164701	0.835234	-0.552660
Zn94	Zn	-0.164701	0.835234	-0.447178
O95	O	-0.234704	0.820953	-0.574952
C96	C	0.579984	0.120444	0.372386
C97	C	0.639388	0.056950	0.402086
C98	C	0.551156	0.149679	0.401489
C99	C	0.492822	0.207607	0.285225
C100	C	0.459033	0.237309	0.221732
C101	C	0.464127	0.236710	0.314461
C102	C	0.492820	0.207609	0.372390
C103	C	0.459029	0.237313	0.402094
C104	C	0.551158	0.149677	0.314457
C105	C	0.431728	0.261310	0.426091
C106	C	0.687380	0.005653	0.426080
C107	C	0.431734	0.261304	0.170436
C108	C	0.397478	0.291417	0.456198
C109	C	0.747589	-0.058700	0.456182
C110	C	0.397487	0.291408	0.106083
C111	C	0.492791	0.550073	-0.372280
C112	C	0.459000	0.613568	-0.401975
C113	C	0.464087	0.520842	-0.401383
C114	C	0.579964	0.462903	-0.285126
C115	C	0.639381	0.433194	-0.221636
C116	C	0.551128	0.433804	-0.314362
C117	C	0.492782	0.462911	-0.372287
C118	C	0.458983	0.433211	-0.401991
C119	C	0.551136	0.520834	-0.314354
C120	C	0.431676	0.409217	-0.425988
C121	C	0.431701	0.664865	-0.425966
C122	C	0.687382	0.409194	-0.170342
C123	C	0.397418	0.379116	-0.456094
C124	C	0.397452	0.729220	-0.456063
C125	C	0.747603	0.379083	-0.105993
C126	C	1.177780	0.207578	0.372383
C127	C	1.211576	0.237279	0.402088
C128	C	1.206479	0.149646	0.401479
C129	C	1.090601	0.207584	0.285221
C130	C	1.031185	0.237292	0.221731
C131	C	1.119432	0.149652	0.314449
C132	C	1.177778	0.120413	0.372374
C133	C	1.211571	0.056917	0.402068
C134	C	1.119434	0.236684	0.314458
C135	C	1.238873	0.005618	0.426058
C136	C	1.238881	0.261275	0.426086
C137	C	0.983183	0.261293	0.170438
C138	C	1.273125	-0.058738	0.456155
C139	C	1.273135	0.291378	0.456193
C140	C	0.922962	0.291403	0.106088
C141	C	0.090578	0.865096	-0.372266
C142	C	0.031174	0.861003	-0.401964
C143	C	0.119403	0.865501	-0.401373
C144	C	0.177743	0.865108	-0.285107
C145	C	0.211535	0.861027	-0.221614
C146	C	0.206435	0.865513	-0.314346
C147	C	0.177739	0.865099	-0.372275
C148	C	0.211527	0.861009	-0.401983
C149	C	0.119407	0.865510	-0.314337
C150	C	0.238825	0.857704	-0.425983
C151	C	-0.016818	0.857695	-0.425956
C152	C	0.238837	0.857730	-0.170318
C153	C	0.273071	0.853558	-0.456092
C154	C	-0.077027	0.853546	-0.456056
C155	C	0.273088	0.853593	-0.105964
O156	O	0.245929	0.919548	-0.574902
O157	O	0.344489	0.750985	-0.504922
O158	O	0.245944	0.849542	-0.504895
O159	O	0.344474	0.820991	-0.574928
O160	O	0.326017	0.849537	-0.424841
O161	O	0.424562	0.750980	-0.424868
O162	O	0.326002	0.919542	-0.494847
Zn163	Zn	0.387995	0.835260	-0.447147
Zn164	Zn	0.282496	0.835267	-0.552622
O165	O	0.424547	0.820985	-0.494874
C166	C	0.492865	0.805363	0.372432
C167	C	0.459078	0.809453	0.402139
C168	C	0.551201	0.804961	0.401529
C169	C	0.492860	0.805355	0.285263
C170	C	0.459067	0.809435	0.221770
C171	C	0.551196	0.804952	0.314493
C172	C	0.580025	0.805366	0.372422
C173	C	0.639430	0.809459	0.402119
C174	C	0.464169	0.804949	0.314502
C175	C	0.687422	0.812767	0.426111
C176	C	0.431780	0.812759	0.426140
C177	C	0.431765	0.812733	0.170473
C178	C	0.747630	0.816916	0.456210
C179	C	0.397535	0.816904	0.456250
C180	C	0.397514	0.816869	0.106120
H181	H	0.575309	0.544282	0.031039
C182	C	0.583755	0.117969	0.282749
N183	N	0.608306	0.094088	0.258867
C184	C	0.583785	0.804066	0.282779
N185	N	0.608331	0.803398	0.258893
H186	H	0.417202	0.544284	0.031031
C187	C	0.400710	0.301011	0.282754
N188	N	0.352946	0.349440	0.258874
H189	H	0.417226	0.804292	0.291037
C190	C	0.583749	0.117972	0.465790
N191	N	0.608295	0.094092	0.514220
C192	C	0.583734	0.552541	-0.282643
N193	N	0.608286	0.576422	-0.258757
C194	C	0.583714	0.369505	-0.282656
N195	N	0.608253	0.321078	-0.258776
H196	H	1.095302	0.126183	0.290972
C197	C	0.269841	0.369479	-0.282677
N198	N	0.317603	0.321049	-0.258799
H199	H	0.575321	0.804320	0.449123
H200	H	0.575299	0.386180	0.031022
H201	H	0.095267	0.544288	-0.449003
C202	C	0.086788	0.552511	-0.282670
N203	N	0.062223	0.576383	-0.258794
C204	C	0.269847	0.866408	-0.282644
N205	N	0.317606	0.867085	-0.258769
H206	H	0.095258	0.284302	-0.030935
H207	H	0.095270	0.126192	-0.030922
C208	C	0.269851	0.117953	-0.031146
N209	N	0.317618	0.094069	-0.031810
C210	C	0.400659	0.552556	-0.465680
N211	N	0.352885	0.576443	-0.514105
C212	C	1.269898	0.117936	0.465779
N213	N	1.317663	0.094054	0.514209
C214	C	1.086837	0.300989	0.282759
N215	N	1.062283	0.349423	0.258884
C216	C	0.086806	0.866381	-0.465674
N217	N	0.062256	0.867043	-0.514105
C218	C	0.086814	0.866402	-0.282626
N219	N	0.062264	0.867076	-0.258742
