data_functionalizedCrystal
_audit_creation_method	'MofGen! by Chris Wilmer'
_symmetry_space_group_name_H-M	'P1'
_symmetry_Int_Tables_number	1
_symmetry_cell_setting	triclinic
loop_
_symmetry_equiv_pos_as_xyz
  x,y,z
_cell_length_a	19.288864
_cell_length_b	23.532407
_cell_length_c	17.766277
_cell_angle_alpha	89.988964
_cell_angle_beta	89.976791
_cell_angle_gamma	82.992461
loop_
_atom_site_label
_atom_site_type_symbol
_atom_site_fract_x
_atom_site_fract_y
_atom_site_fract_z
O1	O	0.921134	0.071045	-0.062843
O2	O	1.421134	0.571045	0.437157
O3	O	0.718844	0.080629	-0.062793
O4	O	1.218844	0.580629	0.437207
O5	O	0.826089	-0.007082	-0.062806
O6	O	1.326089	0.492918	0.437194
O7	O	0.813889	0.158756	-0.062830
O8	O	1.313889	0.658756	0.437170
O9	O	0.826070	-0.007086	0.062383
O10	O	1.326070	0.492914	0.562383
O11	O	0.718825	0.080625	0.062396
O12	O	1.218825	0.580625	0.562396
O13	O	0.921115	0.071041	0.062345
O14	O	1.421115	0.571041	0.562345
Cu15	Cu	0.819968	0.075832	0.073801
Cu16	Cu	1.319968	0.575832	0.573801
Cu17	Cu	0.819991	0.075838	-0.074249
Cu18	Cu	1.319991	0.575838	0.425751
O19	O	0.813870	0.158752	0.062358
O20	O	1.313870	0.658752	0.562358
C21	C	0.692959	0.080319	-0.000192
C22	C	1.192959	0.580319	0.499808
C23	C	0.615858	0.079393	-0.000172
C24	C	1.115858	0.579393	0.499828
C25	C	0.571003	0.130858	-0.000191
C26	C	1.071003	0.630858	0.499809
C27	C	0.498559	0.129988	-0.000200
C28	C	0.998559	0.629988	0.499800
C29	C	0.470973	0.077651	-0.000203
C30	C	0.970973	0.577651	0.499797
C31	C	0.515838	0.026179	-0.000180
C32	C	1.015838	0.526179	0.499820
C33	C	0.588280	0.027050	-0.000164
C34	C	1.088280	0.527050	0.499836
C35	C	0.362844	0.036509	-0.044082
C36	C	0.862844	0.536509	0.455918
C37	C	0.290402	0.035640	-0.044102
C38	C	0.790402	0.535640	0.455898
C39	C	0.247535	0.074961	-0.000249
C40	C	0.747535	0.574961	0.499751
C41	C	0.277118	0.115162	0.043616
C42	C	0.777118	0.615162	0.543616
C43	C	0.349560	0.116033	0.043631
C44	C	0.849560	0.616033	0.543631
C45	C	0.392422	0.076700	-0.000220
C46	C	0.892422	0.576700	0.499780
C47	C	0.124127	0.125487	-0.000276
C48	C	0.624127	0.625487	0.499724
C49	C	0.051682	0.124615	-0.000279
C50	C	0.551682	0.624615	0.499721
C51	C	0.068962	0.020805	-0.000267
C52	C	0.568962	0.520805	0.499733
C53	C	0.141406	0.021678	-0.000256
C54	C	0.641406	0.521678	0.499744
C55	C	0.168984	0.074021	-0.000264
C56	C	0.668984	0.574021	0.499736
C57	C	0.825769	-0.028301	-0.000209
C58	C	1.325769	0.471699	0.499791
C59	C	0.824835	-0.091520	-0.000203
C60	C	1.324835	0.408480	0.499797
C61	C	0.882442	-0.490503	-0.000259
C62	C	1.382442	0.009497	0.499741
C63	C	0.881574	-0.549905	-0.000264
C64	C	1.381574	-0.049905	0.499736
O65	O	0.934976	-0.586539	-0.000306
O66	O	1.434976	-0.086539	0.499694
N67	N	0.817817	-0.572664	-0.000248
N68	N	1.317817	-0.072664	0.499752
C69	C	0.754923	-0.536017	-0.000234
C70	C	1.254923	-0.036017	0.499766
O71	O	0.700613	-0.560829	-0.000221
O72	O	1.200613	-0.060829	0.499779
C73	C	0.755792	-0.476616	-0.000234
C74	C	1.255792	0.023384	0.499766
C75	C	0.819553	-0.453861	-0.000242
C76	C	1.319553	0.046139	0.499758
C77	C	0.946198	-0.467748	-0.000269
C78	C	1.446198	0.032252	0.499731
C79	C	0.947065	-0.408350	-0.000262
C80	C	1.447065	0.091650	0.499738
C81	C	0.884177	-0.371707	-0.000245
C82	C	1.384177	0.128293	0.499755
C83	C	0.820420	-0.394463	-0.000236
C84	C	1.320420	0.105537	0.499764
C85	C	0.692899	-0.439970	-0.000225
C86	C	1.192899	0.060030	0.499775
C87	C	0.693773	-0.380565	-0.000225
C88	C	1.193773	0.119435	0.499775
C89	C	0.757534	-0.357810	-0.000234
C90	C	1.257534	0.142190	0.499766
C91	C	0.758399	-0.298422	-0.000212
C92	C	1.258399	0.201578	0.499788
N93	N	0.822156	-0.275664	-0.000229
N94	N	1.322156	0.224336	0.499771
C95	C	0.885045	-0.312307	-0.000245
C96	C	1.385045	0.187693	0.499755
C97	C	0.753104	-0.660763	-0.000235
C98	C	1.253104	-0.160763	0.499765
C99	C	0.752235	-0.720163	-0.000230
C100	C	1.252235	-0.220163	0.499770
C101	C	0.878886	-0.734047	-0.000262
C102	C	1.378886	-0.234047	0.499738
C103	C	0.879755	-0.674647	-0.000262
C104	C	1.379755	-0.174647	0.499738
C105	C	0.816861	-0.638005	-0.000252
C106	C	1.316861	-0.138005	0.499748
C107	C	0.886862	-0.187566	-0.000230
C108	C	1.386862	0.312434	0.499770
C109	C	0.887724	-0.128162	-0.000220
C110	C	1.387724	0.371838	0.499780
C111	C	0.761073	-0.114283	-0.000192
C112	C	1.261073	0.385717	0.499808
C113	C	0.760211	-0.173681	-0.000198
C114	C	1.260211	0.326319	0.499802
C115	C	0.823111	-0.210322	-0.000219
C116	C	1.323111	0.289678	0.499781
O117	O	0.705025	-0.261754	-0.000174
O118	O	1.205025	0.238246	0.499826
O119	O	0.939346	-0.287486	-0.000268
O120	O	1.439346	0.212514	0.499732
C121	C	0.947000	0.071351	-0.000257
C122	C	1.447000	0.571351	0.499743
C123	C	1.024101	0.072277	-0.000282
C124	C	1.524101	0.572277	0.499718
C125	C	0.814190	0.179971	-0.000240
C126	C	1.314190	0.679971	0.499760
C127	C	0.815124	0.243190	-0.000251
C128	C	1.315124	0.743190	0.499749
N129	N	0.819958	0.075828	0.177932
N130	N	1.319958	0.575828	0.677932
N131	N	0.820007	0.075837	-0.178379
N132	N	1.320007	0.575837	0.321621
C133	C	0.867461	0.037009	0.217313
C134	C	1.367461	0.537009	0.717313
C135	C	0.867465	0.037006	0.296115
C136	C	1.367465	0.537006	0.796115
C137	C	0.819973	0.075833	0.335532
C138	C	1.319973	0.575833	0.835532
C139	C	0.772460	0.114655	0.296142
C140	C	1.272460	0.614655	0.796142
C141	C	0.772453	0.114653	0.217341
C142	C	1.272453	0.614653	0.717341
C143	C	0.810514	0.127724	0.460364
C144	C	1.310514	0.627724	0.960364
C145	C	0.810526	0.127727	0.539163
C146	C	1.310526	0.627727	1.039163
C147	C	0.819991	0.075840	0.578579
C148	C	1.319991	0.575840	1.078579
C149	C	0.829459	0.023947	0.539186
C150	C	1.329459	0.523947	1.039186
C151	C	0.829452	0.023945	0.460385
C152	C	1.329452	0.523945	0.960385
C153	C	0.819975	0.075839	0.420978
C154	C	1.319975	0.575839	0.920978
C155	C	0.867501	0.037014	0.703406
C156	C	1.367501	0.537014	1.203406
C157	C	0.867501	0.037011	0.782209
C158	C	1.367501	0.537011	1.282209
C159	C	0.772499	0.114665	0.782234
C160	C	1.272499	0.614665	1.282234
C161	C	0.772496	0.114663	0.703433
C162	C	1.272496	0.614663	1.203433
C163	C	0.820001	0.075839	0.664023
C164	C	1.320001	0.575839	1.164023
H165	H	0.373643	0.148763	0.079350
H166	H	0.873643	0.648763	0.579350
N167	N	0.258498	-0.007718	-0.091406
N168	N	0.758498	0.492282	0.408594
H169	H	0.224984	0.012833	-0.128927
H170	H	0.724984	0.512833	0.371073
H171	H	0.296687	-0.032488	-0.119127
H172	H	0.796687	0.467512	0.380873
N173	N	0.189785	-0.033834	-0.000238
N174	N	0.689785	0.466166	0.499762
H175	H	0.180980	-0.056676	-0.046645
H176	H	0.680980	0.443324	0.453355
H177	H	0.239843	-0.025297	-0.000197
H178	H	0.739843	0.474703	0.499803
N179	N	0.800311	0.183694	0.581645
N180	N	1.300311	0.683694	1.081645
H181	H	0.757312	0.185022	0.614364
H182	H	1.257312	0.685022	1.114364
H183	H	0.842508	0.186958	0.614271
H184	H	1.342508	0.686958	1.114271
N185	N	0.486089	-0.030272	-0.000175
N186	N	0.986089	0.469728	0.499825
H187	H	0.433390	-0.023015	-0.000189
H188	H	0.933390	0.476985	0.499811
H189	H	0.502550	-0.052787	-0.046575
H190	H	1.002550	0.447213	0.453425
H191	H	0.146582	0.168107	-0.000271
H192	H	0.646582	0.668107	0.499729
H193	H	0.397741	0.004488	-0.079797
H194	H	0.897741	0.504488	0.420203
N195	N	0.839662	-0.032019	0.417897
N196	N	1.339662	0.467981	0.917897
H197	H	0.801219	-0.055684	0.431633
H198	H	1.301219	0.444316	0.931633
H199	H	0.838238	-0.024094	0.362012
H200	H	1.338238	0.475906	0.862012
H201	H	0.701886	-0.630931	-0.000220
H202	H	1.201886	-0.130931	0.499780
H203	H	0.046503	-0.021810	-0.000317
H204	H	0.546503	0.478190	0.499683
H205	H	0.624802	-0.014860	-0.000149
H206	H	1.124802	0.485140	0.499851
N207	N	0.800306	0.183691	0.417855
N208	N	1.300306	0.683691	0.917855
H209	H	0.794317	0.216564	0.454765
H210	H	1.294317	0.716564	0.954765
H211	H	0.842476	0.186925	0.385138
H212	H	1.342476	0.686925	0.885138
H213	H	0.733827	0.146276	0.814328
H214	H	1.233827	0.646276	1.314328
N215	N	0.918702	-0.004862	0.338608
N216	N	1.418702	0.495138	0.838608
H217	H	0.910991	-0.045269	0.324916
H218	H	1.410991	0.454731	0.824916
H219	H	0.967927	0.001648	0.324851
H220	H	1.467927	0.501648	0.824851
H221	H	0.640978	-0.458486	-0.000222
H222	H	1.140978	0.041514	0.499778
N223	N	0.691442	-0.198229	-0.000178
N224	N	1.191442	0.301771	0.499822
H225	H	0.651735	-0.166000	-0.000164
H226	H	1.151735	0.334000	0.499836
H227	H	0.688331	-0.222559	-0.046592
H228	H	1.188331	0.277441	0.453408
N229	N	0.230894	0.157580	0.090915
N230	N	0.730894	0.657580	0.590915
H231	H	0.180513	0.150928	0.084254
H232	H	0.680513	0.650928	0.584254
H233	H	0.244415	0.152407	0.145625
H234	H	0.744415	0.652407	0.645625
H235	H	0.930094	-0.763893	-0.000279
H236	H	1.430094	-0.263893	0.499721
N237	N	0.683465	-0.744702	-0.000200
N238	N	1.183465	-0.244702	0.499800
H239	H	0.643760	-0.712471	-0.000186
H240	H	1.143760	-0.212471	0.499814
H241	H	0.680344	-0.769037	-0.046609
H242	H	1.180344	-0.269037	0.453391
N243	N	0.918743	-0.004856	0.824691
N244	N	1.418743	0.495144	1.324691
H245	H	0.949336	0.016854	0.857362
H246	H	1.449336	0.516854	1.357362
H247	H	0.892334	-0.030009	0.857365
H248	H	1.392334	0.469991	1.357365
H249	H	0.733790	0.146268	0.328239
H250	H	1.233790	0.646268	0.828239
N251	N	0.839678	-0.032025	0.581680
N252	N	1.339678	0.467975	1.081680
H253	H	0.797522	-0.035325	0.614397
H254	H	1.297522	0.464675	1.114397
H255	H	0.845696	-0.064857	0.544713
H256	H	1.345696	0.435143	1.044713
N257	N	0.003320	0.180138	-0.000255
N258	N	0.503320	0.680138	0.499745
H259	H	0.012167	0.202996	-0.046654
H260	H	0.512167	0.702996	0.453346
H261	H	-0.046745	0.171617	-0.000218
H262	H	0.453255	0.671617	0.499782
N263	N	0.450166	0.185497	-0.000232
N264	N	0.950166	0.685497	0.499768
H265	H	0.419695	0.187452	0.046167
H266	H	0.919695	0.687452	0.546167
H267	H	0.478677	0.218756	-0.000263
H268	H	0.978677	0.718756	0.499737
N269	N	0.600739	0.187314	-0.000201
N270	N	1.100739	0.687314	0.499799
H271	H	0.584327	0.209854	0.046198
H272	H	1.084327	0.709854	0.546198
H273	H	0.653434	0.180016	-0.000219
H274	H	1.153434	0.680016	0.499781
H275	H	0.938081	-0.217393	-0.000250
H276	H	1.438081	0.282607	0.499750
H277	H	0.939648	-0.109639	-0.000225
H278	H	1.439648	0.390361	0.499775
N279	N	0.625936	-0.341044	-0.000218
N280	N	1.125936	0.158956	0.499782
H281	H	0.585417	-0.364477	-0.000213
H282	H	1.085417	0.135523	0.499787
H283	H	0.623525	-0.316104	0.046194
H284	H	1.123525	0.183896	0.546194
H285	H	0.733817	0.146276	0.671366
H286	H	1.233817	0.646276	1.171366
N287	N	1.015837	-0.383812	-0.000274
N288	N	1.515837	0.116188	0.499726
H289	H	1.055539	-0.416045	-0.000287
H290	H	1.555539	0.083955	0.499713
H291	H	1.018966	-0.359462	-0.046683
H292	H	1.518966	0.140538	0.453317
N293	N	1.014034	-0.507264	-0.000286
N294	N	1.514034	-0.007264	0.499714
H295	H	1.054548	-0.483826	-0.000291
H296	H	1.554548	0.016174	0.499709
H297	H	1.016426	-0.532216	0.046125
H298	H	1.516426	-0.032216	0.546125
H299	H	0.931675	-0.656124	-0.000270
H300	H	1.431675	-0.156124	0.499730
H301	H	0.709871	-0.084438	-0.000176
H302	H	1.209871	0.415562	0.499824
N303	N	0.721213	0.156522	0.174860
N304	N	1.221213	0.656522	0.674860
H305	H	0.691123	0.181118	0.211785
H306	H	1.191123	0.681118	0.711785
H307	H	0.747623	0.181645	0.142144
H308	H	1.247623	0.681645	0.642144
H309	H	0.906141	0.005394	0.185228
H310	H	1.406141	0.505394	0.685228
H311	H	0.906181	0.005399	0.671317
H312	H	1.406181	0.505399	1.171317
