data_functionalizedCrystal
_audit_creation_method	'MofGen! by Chris Wilmer'
_symmetry_space_group_name_H-M	'P1'
_symmetry_Int_Tables_number	1
_symmetry_cell_setting	triclinic
loop_
_symmetry_equiv_pos_as_xyz
  x,y,z
_cell_length_a	12.759401
_cell_length_b	12.759399
_cell_length_c	12.759393
_cell_angle_alpha	90.027481
_cell_angle_beta	89.981565
_cell_angle_gamma	89.985351
loop_
_atom_site_label
_atom_site_type_symbol
_atom_site_fract_x
_atom_site_fract_y
_atom_site_fract_z
Zn1	Zn	1.606247	0.418241	-0.594006
Zn2	Zn	1.606139	0.593957	-0.418336
Zn3	Zn	1.430550	0.418290	-0.418345
Zn4	Zn	1.430535	0.593876	-0.593977
O5	O	1.518368	0.506091	-0.506166
O6	O	1.753254	0.441564	-0.570711
O7	O	1.582808	0.570709	-0.271316
O8	O	1.453908	0.271262	-0.441663
O9	O	1.753175	0.570662	-0.441647
O10	O	1.582992	0.271226	-0.570720
O11	O	1.453803	0.441647	-0.271323
O12	O	1.283527	0.441568	-0.441635
O13	O	1.453883	0.570523	-0.741002
O14	O	1.283516	0.570570	-0.570671
O15	O	1.582978	0.441485	-0.741023
O16	O	1.582794	0.740967	-0.441619
O17	O	1.453778	0.740907	-0.570662
C18	C	1.245401	0.506066	-0.506152
C19	C	1.128624	0.506081	-0.506170
C20	C	1.073796	0.438987	-0.573478
C21	C	0.964072	0.439007	-0.573485
C22	C	0.964013	0.573225	-0.438873
C23	C	1.073735	0.573198	-0.438862
C24	C	1.073830	0.361500	-0.651199
C25	C	0.964105	0.361520	-0.651205
C26	C	1.518301	0.779058	-0.506159
C27	C	1.518369	0.895835	-0.506191
C28	C	1.585621	0.950693	-0.439076
C29	C	1.585684	1.060417	-0.439114
C30	C	1.451233	1.060415	-0.573386
C31	C	1.451177	0.950693	-0.573352
C32	C	1.663242	0.950695	-0.361552
C33	C	1.663304	1.060419	-0.361590
C34	C	1.792401	0.506116	-0.506181
C35	C	1.909178	0.506127	-0.506188
C36	C	1.518441	0.505989	-0.780200
C37	C	1.518472	0.505946	-0.896976
C38	C	1.518460	1.232058	-0.506210
C39	C	1.518488	1.115281	-0.506264
C40	C	1.585724	0.438699	-1.061576
C41	C	1.585699	0.438743	-0.951852
C42	C	1.451273	0.573117	-0.951830
C43	C	1.451304	0.573078	-1.061553
C44	C	1.663330	0.361116	-1.061588
C45	C	1.663305	0.361160	-0.951863
C46	C	1.518356	0.506116	-0.233199
C47	C	1.518528	0.505863	-0.116423
H48	H	0.930065	0.284192	-0.622201
H49	H	1.740582	0.390328	-0.917833
F50	F	1.118360	0.399712	-0.752154
H51	H	1.641531	0.279798	-0.922093
H52	H	1.641567	1.090280	-0.280211
H53	H	1.103598	0.280097	-0.629540
H54	H	0.934360	0.383417	-0.732542
H55	H	1.634215	0.283810	-1.095629
H56	H	1.634117	0.916746	-0.284224
F57	F	1.379612	0.892312	-0.644799
H58	H	1.740608	1.094366	-0.390804
F59	F	0.905588	0.644651	-0.367241
F60	F	1.379728	1.118808	-0.644861
H61	H	1.118372	0.627823	-0.384043
F62	F	1.769561	0.911666	-0.390111
H63	H	1.396597	0.627779	-1.106205
H64	H	1.396543	0.627842	-0.907142
H65	H	1.744702	0.382902	-1.091364
