data_functionalizedCrystal
_audit_creation_method	'MofGen! by Chris Wilmer'
_symmetry_space_group_name_H-M	'P1'
_symmetry_Int_Tables_number	1
_symmetry_cell_setting	triclinic
loop_
_symmetry_equiv_pos_as_xyz
  x,y,z
_cell_length_a	19.121112
_cell_length_b	19.120786
_cell_length_c	21.395355
_cell_angle_alpha	87.540705
_cell_angle_beta	87.537879
_cell_angle_gamma	89.915581
loop_
_atom_site_label
_atom_site_type_symbol
_atom_site_fract_x
_atom_site_fract_y
_atom_site_fract_z
Zn1	Zn	1.059895	-0.325008	-0.382160
Zn2	Zn	1.559895	0.174992	0.117840
Zn3	Zn	1.054796	-0.442229	-0.272726
Zn4	Zn	1.554796	0.057771	0.227274
Zn5	Zn	0.942648	-0.319998	-0.273133
Zn6	Zn	1.442648	0.180002	0.226867
Zn7	Zn	0.937624	-0.437203	-0.373205
Zn8	Zn	1.437624	0.062797	0.126795
O9	O	0.998741	-0.381110	-0.325306
O10	O	1.498741	0.118890	0.174694
O11	O	1.157324	-0.344759	-0.371221
O12	O	1.657324	0.155241	0.128779
O13	O	1.039887	-0.426021	-0.185100
O14	O	1.539887	0.073979	0.314900
O15	O	0.962438	-0.222554	-0.291513
O16	O	1.462438	0.277446	0.208487
O17	O	1.153578	-0.430880	-0.290820
O18	O	1.653578	0.069120	0.209180
O19	O	1.048579	-0.226235	-0.371616
O20	O	1.548579	0.273765	0.128384
O21	O	0.957493	-0.336218	-0.185399
O22	O	1.457493	0.163782	0.314601
O23	O	0.843876	-0.331345	-0.282830
O24	O	1.343876	0.168655	0.217170
O25	O	0.953875	-0.422314	-0.462072
O26	O	1.453875	0.077686	0.037928
O27	O	0.840185	-0.417455	-0.356353
O28	O	1.340185	0.082545	0.143647
O29	O	1.043707	-0.339885	-0.468652
O30	O	1.543707	0.160115	0.031348
O31	O	1.035016	-0.539671	-0.282136
O32	O	1.535016	-0.039671	0.217864
O33	O	0.948930	-0.535979	-0.355958
O34	O	1.448930	-0.035979	0.144042
C35	C	0.816593	-0.373311	-0.318664
C36	C	1.316593	0.126689	0.181336
C37	C	0.738668	-0.369992	-0.315837
C38	C	1.238668	0.130008	0.184163
C39	C	0.990893	-0.563264	-0.318046
C40	C	1.490893	-0.063264	0.181954
C41	C	0.987600	-0.641193	-0.314963
C42	C	1.487600	-0.141193	0.185037
C43	C	0.298040	-0.348934	-0.297931
C44	C	0.798040	0.151066	0.202069
C45	C	0.371258	-0.352057	-0.300591
C46	C	0.871258	0.147943	0.199409
C47	C	0.405958	-0.398525	-0.340132
C48	C	0.905958	0.101475	0.159868
C49	C	0.367436	-0.441868	-0.377021
C50	C	0.867436	0.058132	0.122979
C51	C	0.294220	-0.438741	-0.374364
C52	C	0.794220	0.061259	0.125636
C53	C	0.626930	-0.410209	-0.350069
C54	C	1.126930	0.089791	0.149931
C55	C	0.700152	-0.413334	-0.352721
C56	C	1.200152	0.086666	0.147279
C57	C	0.703968	-0.323521	-0.276292
C58	C	1.203968	0.176479	0.223708
C59	C	0.630750	-0.320401	-0.273636
C60	C	1.130750	0.179599	0.226364
C61	C	0.592235	-0.363742	-0.310527
C62	C	1.092235	0.136258	0.189473
C63	C	0.480799	-0.401719	-0.342850
C64	C	0.980799	0.098281	0.157150
C65	C	0.517396	-0.360543	-0.307812
C66	C	1.017396	0.139457	0.192188
C67	C	1.030869	-0.679660	-0.355251
C68	C	1.530869	-0.179660	0.144749
C69	C	1.027772	-0.752882	-0.352355
C70	C	1.527772	-0.252882	0.147645
C71	C	0.981410	-0.787637	-0.309169
C72	C	1.481410	-0.287637	0.190831
C73	C	0.938136	-0.749166	-0.268879
C74	C	1.438136	-0.249166	0.231121
C75	C	0.941230	-0.675944	-0.271778
C76	C	1.441230	-0.175944	0.228222
C77	C	0.969823	-1.008626	-0.298330
C78	C	1.469823	-0.508626	0.201670
C79	C	0.966734	-1.081853	-0.295433
C80	C	1.466734	-0.581853	0.204567
C81	C	1.056369	-1.085564	-0.378911
C82	C	1.556369	-0.585564	0.121089
C83	C	1.059462	-1.012341	-0.381803
C84	C	1.559462	-0.512341	0.118197
C85	C	1.016186	-0.973876	-0.341516
C86	C	1.516186	-0.473876	0.158484
C87	C	0.978245	-0.862483	-0.306206
C88	C	1.478245	-0.362483	0.193794
C89	C	1.019348	-0.899032	-0.344481
C90	C	1.519348	-0.399032	0.155519
C91	C	1.181600	-0.388939	-0.331974
C92	C	1.681600	0.111061	0.168026
C93	C	1.259523	-0.392275	-0.334816
C94	C	1.759523	0.107725	0.165184
C95	C	0.998799	-0.381098	-0.488732
C96	C	1.498799	0.118902	0.011268
C97	C	0.998824	-0.381093	-0.558374
C98	C	1.498824	0.118907	-0.058374
C99	C	1.006637	-0.198245	-0.332609
C100	C	1.506637	0.301755	0.167391
C101	C	1.010003	-0.120319	-0.335721
C102	C	1.510003	0.379681	0.164279
C103	C	1.045598	-0.338170	-0.594514
C104	C	1.545598	0.161830	-0.094514
C105	C	1.045599	-0.338140	-0.659951
C106	C	1.545599	0.161860	-0.159951
C107	C	0.998832	-0.381046	-0.689245
C108	C	1.498832	0.118954	-0.189245
C109	C	0.952049	-0.423971	-0.653096
C110	C	1.452049	0.076029	-0.153096
C111	C	0.952045	-0.423995	-0.587661
C112	C	1.452045	0.076005	-0.087661
C113	C	0.990577	-0.443936	-0.790202
C114	C	1.490577	0.056064	-0.290202
C115	C	0.990585	-0.443914	-0.855636
C116	C	1.490585	0.056086	-0.355636
C117	C	0.998839	-0.380972	-0.891069
C118	C	1.498839	0.119028	-0.391069
C119	C	1.007100	-0.318051	-0.861060
C120	C	1.507100	0.181949	-0.361060
C121	C	1.007096	-0.318075	-0.795624
C122	C	1.507096	0.181925	-0.295624
C123	C	0.998830	-0.381024	-0.760198
C124	C	1.498830	0.118976	-0.260198
C125	C	1.045616	-0.338012	-0.998163
C126	C	1.545616	0.161988	-0.498163
C127	C	1.045612	-0.337981	-1.063601
C128	C	1.545612	0.162019	-0.563601
C129	C	0.952066	-0.423818	-1.056745
C130	C	1.452066	0.076182	-0.556745
C131	C	0.952067	-0.423843	-0.991308
C132	C	1.452067	0.076157	-0.491308
C133	C	0.998846	-0.380942	-0.962021
C134	C	1.498846	0.119058	-0.462021
C135	C	0.998724	-0.381073	-0.162519
C136	C	1.498724	0.118927	0.337481
C137	C	0.998844	-0.380886	-0.092890
C138	C	1.498844	0.119114	0.407110
H139	H	0.402615	-0.316766	-0.270553
H140	H	0.902615	0.183234	0.229447
H141	H	1.083700	-0.303024	-1.093025
H142	H	1.583700	0.196976	-0.593025
H143	H	1.091601	-1.116890	-0.411711
H144	H	1.591601	-0.616890	0.088289
C145	C	0.916319	-1.119459	-0.248523
C146	C	1.416319	-0.619459	0.251477
C147	C	0.879067	-1.070101	-0.213873
C148	C	1.379067	-0.570101	0.286127
C149	C	0.832617	-1.104718	-0.170662
C150	C	1.332617	-0.604718	0.329338
H151	H	0.941867	-1.149157	-0.221031
H152	H	1.441867	-0.649157	0.278969
H153	H	0.884520	-1.146716	-0.270212
H154	H	1.384520	-0.646716	0.229788
H155	H	0.910862	-1.042855	-0.192185
H156	H	1.410862	-0.542855	0.307815
H157	H	0.853505	-1.040400	-0.241348
H158	H	1.353505	-0.540400	0.258652
H159	H	0.800817	-1.131975	-0.192351
H160	H	1.300817	-0.631975	0.307649
H161	H	0.858170	-1.134415	-0.143174
H162	H	1.358170	-0.634415	0.356826
H163	H	0.807331	-1.071234	-0.147150
H164	H	1.307331	-0.571234	0.352850
H165	H	1.083686	-0.303183	-0.689382
H166	H	1.583686	0.196817	-0.189382
C167	C	0.593191	-0.269993	-0.230588
C168	C	1.093191	0.230007	0.269412
C169	C	0.610354	-0.285924	-0.168627
C170	C	1.110354	0.214076	0.331373
C171	C	0.575787	-0.239500	-0.128945
C172	C	1.075787	0.260500	0.371055
H173	H	0.544056	-0.274278	-0.234185
H174	H	1.044056	0.225722	0.265815
H175	H	0.607247	-0.223404	-0.242100
H176	H	1.107247	0.276596	0.257900
H177	H	0.596294	-0.332501	-0.157119
H178	H	1.096294	0.167499	0.342881
H179	H	0.659483	-0.281634	-0.165011
H180	H	1.159483	0.218366	0.334989
H181	H	0.589843	-0.192911	-0.140457
H182	H	1.089843	0.307089	0.359543
H183	H	0.526654	-0.243788	-0.132547
H184	H	1.026654	0.256212	0.367453
H185	H	0.587432	-0.250299	-0.086901
H186	H	1.087432	0.249701	0.413099
C187	C	0.405077	-0.492231	-0.420059
C188	C	0.905077	0.007769	0.079941
C189	C	0.387973	-0.476300	-0.482036
C190	C	0.887973	0.023700	0.017964
C191	C	0.422639	-0.522675	-0.521700
C192	C	0.922639	-0.022675	-0.021700
H193	H	0.391072	-0.538835	-0.408590
H194	H	0.891072	-0.038835	0.091410
H195	H	0.454205	-0.487882	-0.416401
H196	H	0.954205	0.012118	0.083599
H197	H	0.338855	-0.480655	-0.485692
H198	H	0.838855	0.019345	0.014308
H199	H	0.401978	-0.429703	-0.493524
H200	H	0.901978	0.070297	0.006476
H201	H	0.471768	-0.518325	-0.518042
H202	H	0.971768	-0.018325	-0.018042
H203	H	0.408632	-0.569276	-0.510226
H204	H	0.908632	-0.069276	-0.010226
H205	H	0.411044	-0.511868	-0.563756
H206	H	0.911044	-0.011868	-0.063756
H207	H	0.934587	-0.977313	-0.265525
H208	H	1.434587	-0.477313	0.234475
C209	C	0.260459	-0.298525	-0.254898
C210	C	0.760459	0.201475	0.245102
C211	C	0.277598	-0.314434	-0.192926
C212	C	0.777598	0.185566	0.307074
C213	C	0.243003	-0.268004	-0.153268
C214	C	0.743003	0.231996	0.346732
H215	H	0.211328	-0.302823	-0.258510
H216	H	0.711328	0.197177	0.241490
H217	H	0.274509	-0.251937	-0.266416
H218	H	0.774509	0.248063	0.233584
H219	H	0.263544	-0.361010	-0.181412
H220	H	0.763544	0.138990	0.318588
H221	H	0.326723	-0.310132	-0.189294
H222	H	0.826723	0.189868	0.310706
H223	H	0.257053	-0.221416	-0.164786
H224	H	0.757053	0.278584	0.335214
H225	H	0.193873	-0.272305	-0.156885
H226	H	0.693873	0.227695	0.343115
H227	H	0.254632	-0.278787	-0.111217
H228	H	0.754632	0.221213	0.388783
H229	H	1.068625	-0.651367	-0.390416
H230	H	1.568625	-0.151367	0.109584
H231	H	0.913980	-0.458745	-1.080595
H232	H	1.413980	0.041255	-0.580595
C233	C	0.745699	-0.276347	-0.236280
C234	C	1.245699	0.223653	0.263720
C235	C	0.730869	-0.206244	-0.252134
C236	C	1.230869	0.293756	0.247866
C237	C	0.769289	-0.162764	-0.215281
C238	C	1.269289	0.337236	0.284719
H239	H	0.794289	-0.284766	-0.243486
H240	H	1.294289	0.215234	0.256514
H241	H	0.733220	-0.285981	-0.193316
H242	H	1.233220	0.214019	0.306684
H243	H	0.743353	-0.196613	-0.295088
H244	H	1.243353	0.303387	0.204912
H245	H	0.682286	-0.197803	-0.244925
H246	H	1.182286	0.302197	0.255075
H247	H	0.756810	-0.172398	-0.172317
H248	H	1.256810	0.327602	0.327683
H249	H	0.817877	-0.171189	-0.222491
H250	H	1.317877	0.328811	0.277509
H251	H	0.759228	-0.115195	-0.226029
H252	H	1.259228	0.384805	0.273971
H253	H	0.905995	-0.644626	-0.238972
H254	H	1.405995	-0.144626	0.261028
H255	H	0.509060	-0.439556	-0.375043
H256	H	1.009060	0.060444	0.124957
H257	H	0.262861	-0.474033	-0.404401
H258	H	0.762861	0.025967	0.095599
C259	C	0.887871	-0.787027	-0.222010
C260	C	1.387871	-0.287027	0.277990
C261	C	0.894436	-0.859386	-0.228080
C262	C	1.394436	-0.359386	0.271920
C263	C	0.848151	-0.894284	-0.184907
C264	C	1.348151	-0.394284	0.315093
H265	H	0.841234	-0.773135	-0.229856
H266	H	1.341234	-0.273135	0.270144
H267	H	0.898667	-0.775517	-0.180755
H268	H	1.398667	-0.275517	0.319245
H269	H	0.883635	-0.870891	-0.269325
H270	H	1.383635	-0.370891	0.230675
H271	H	0.941063	-0.873298	-0.220229
H272	H	1.441063	-0.373298	0.279771
H273	H	0.858947	-0.882774	-0.143652
H274	H	1.358947	-0.382774	0.356348
H275	H	0.801517	-0.880387	-0.192756
H276	H	1.301517	-0.380387	0.307244
H277	H	0.852603	-0.943383	-0.189015
H278	H	1.352603	-0.443383	0.310985
H279	H	1.083703	-0.303075	-0.974316
H280	H	1.583703	0.196925	-0.474316
H281	H	1.013822	-0.266797	-0.889908
H282	H	1.513822	0.233203	-0.389908
H283	H	1.057094	-0.870732	-0.379647
H284	H	1.557094	-0.370732	0.120353
H285	H	1.063012	-0.784199	-0.385158
H286	H	1.563012	-0.284199	0.114842
H287	H	0.913982	-0.458800	-0.961882
H288	H	1.413982	0.041200	-0.461882
H289	H	0.595579	-0.445503	-0.380106
H290	H	1.095579	0.054497	0.119894
H291	H	1.097214	-0.984045	-0.416970
H292	H	1.597214	-0.484045	0.083030
H293	H	0.489140	-0.322706	-0.275620
H294	H	0.989140	0.177294	0.224380
C295	C	1.096410	-0.291510	-0.562835
C296	C	1.596410	0.208490	-0.062835
C297	C	1.137360	-0.253900	-0.608496
C298	C	1.637360	0.246100	-0.108496
C299	C	1.184167	-0.210902	-0.579335
C300	C	1.684167	0.289098	-0.079335
H301	H	1.125862	-0.319569	-0.537367
H302	H	1.625862	0.180431	-0.037367
H303	H	1.070926	-0.259785	-0.537554
H304	H	1.570926	0.240215	-0.037554
H305	H	1.162842	-0.285621	-0.633766
H306	H	1.662842	0.214379	-0.133766
H307	H	1.107927	-0.225827	-0.633967
H308	H	1.607927	0.274173	-0.133967
H309	H	1.158683	-0.179177	-0.554055
H310	H	1.658683	0.320823	-0.054055
H311	H	1.213614	-0.238966	-0.553868
H312	H	1.713614	0.261034	-0.053868
H313	H	1.211953	-0.185373	-0.610312
H314	H	1.711953	0.314627	-0.110312
C315	C	0.737700	-0.463805	-0.395722
C316	C	1.237700	0.036195	0.104278
C317	C	0.688301	-0.501077	-0.427475
C318	C	1.188301	-0.001077	0.072525
C319	C	0.722866	-0.547567	-0.467096
C320	C	1.222866	-0.047567	0.032904
H321	H	0.764934	-0.495594	-0.371597
H322	H	1.264934	0.004406	0.128403
H323	H	0.767417	-0.438262	-0.425194
H324	H	1.267417	0.061738	0.074806
H325	H	0.658597	-0.526618	-0.398007
H326	H	1.158597	-0.026618	0.101993
H327	H	0.661066	-0.469306	-0.451612
H328	H	1.161066	0.030694	0.048388
H329	H	0.752582	-0.522024	-0.496568
H330	H	1.252582	-0.022024	0.003432
H331	H	0.750098	-0.579352	-0.442967
H332	H	1.250098	-0.079352	0.057033
H333	H	0.689354	-0.572858	-0.488650
H334	H	1.189354	-0.072858	0.011350
C335	C	1.016029	-0.249688	-0.763157
C336	C	1.516029	0.250312	-0.263157
C337	C	1.023242	-0.194554	-0.808186
C338	C	1.523242	0.305446	-0.308186
C339	C	1.031460	-0.131544	-0.778300
C340	C	1.531460	0.368456	-0.278300
H341	H	1.056627	-0.252247	-0.739087
H342	H	1.556627	0.247753	-0.239087
H343	H	0.976102	-0.241780	-0.736416
H344	H	1.476102	0.258220	-0.236416
H345	H	1.063165	-0.202460	-0.834916
H346	H	1.563165	0.297540	-0.334916
H347	H	0.982651	-0.191973	-0.832259
H348	H	1.482651	0.308027	-0.332259
H349	H	0.991533	-0.123636	-0.751559
H350	H	1.491533	0.376364	-0.251559
H351	H	1.072058	-0.134111	-0.754230
H352	H	1.572058	0.365889	-0.254230
H353	H	1.036349	-0.094128	-0.808846
H354	H	1.536349	0.405872	-0.308846
H355	H	0.983864	-0.495148	-0.880065
H356	H	1.483864	0.004852	-0.380065
H357	H	0.983668	-0.495170	-0.761352
H358	H	1.483668	0.004830	-0.261352
C359	C	0.901310	-0.470672	-0.684814
C360	C	1.401310	0.029328	-0.184814
C361	C	0.913566	-0.540696	-0.666687
C362	C	1.413566	-0.040696	-0.166687
C363	C	0.866828	-0.583736	-0.695885
C364	C	1.366828	-0.083736	-0.195885
H365	H	0.907963	-0.464607	-0.728966
H366	H	1.407963	0.035393	-0.228966
H367	H	0.854634	-0.458439	-0.672754
H368	H	1.354634	0.041561	-0.172754
H369	H	0.960230	-0.552926	-0.678752
H370	H	1.460230	-0.052926	-0.178752
H371	H	0.906908	-0.546784	-0.622541
H372	H	1.406908	-0.046784	-0.122541
H373	H	0.820153	-0.571502	-0.683825
H374	H	1.320153	-0.071502	-0.183825
H375	H	0.873485	-0.577664	-0.740036
H376	H	1.373485	-0.077664	-0.240036
H377	H	0.875133	-0.631251	-0.683586
H378	H	1.375133	-0.131251	-0.183586
C379	C	0.901293	-0.470529	-0.548310
C380	C	1.401293	0.029471	-0.048310
C381	C	0.911291	-0.461356	-0.484736
C382	C	1.411291	0.038644	0.015264
C383	C	0.864546	-0.504206	-0.448466
C384	C	1.364546	-0.004206	0.051534
H385	H	0.909473	-0.518096	-0.557463
H386	H	1.409473	-0.018096	-0.057463
H387	H	0.854617	-0.458239	-0.557673
H388	H	1.354617	0.041761	-0.057673
H389	H	0.957957	-0.473650	-0.475377
H390	H	1.457957	0.026350	0.024623
H391	H	0.903106	-0.413798	-0.475564
H392	H	1.403106	0.086202	0.024436
H393	H	0.817870	-0.491916	-0.457829
H394	H	1.317870	0.008084	0.042171
H395	H	0.872729	-0.551771	-0.457625
H396	H	1.372729	-0.051771	0.042375
H397	H	0.871319	-0.497984	-0.405328
H398	H	1.371319	0.002016	0.094672
H399	H	0.940498	-0.890789	-0.271042
H400	H	1.440498	-0.390789	0.228958
