data_functionalizedCrystal
_audit_creation_method	'MofGen! by Chris Wilmer'
_symmetry_space_group_name_H-M	'P1'
_symmetry_Int_Tables_number	1
_symmetry_cell_setting	triclinic
loop_
_symmetry_equiv_pos_as_xyz
  x,y,z
_cell_length_a	16.120530
_cell_length_b	16.120444
_cell_length_c	13.897441
_cell_angle_alpha	92.866378
_cell_angle_beta	87.080937
_cell_angle_gamma	90.168401
loop_
_atom_site_label
_atom_site_type_symbol
_atom_site_fract_x
_atom_site_fract_y
_atom_site_fract_z
Zn1	Zn	1.254488	-0.395575	-0.642103
Zn2	Zn	1.754488	0.104425	-0.142103
Zn3	Zn	1.247324	-0.534643	-0.488534
Zn4	Zn	1.747324	-0.034643	0.011466
Zn5	Zn	1.115422	-0.388551	-0.472257
Zn6	Zn	1.615422	0.111449	0.027743
Zn7	Zn	1.108338	-0.527528	-0.641222
Zn8	Zn	1.608338	-0.027528	-0.141222
O9	O	1.181393	-0.461574	-0.561029
O10	O	1.681393	0.038426	-0.061029
O11	O	1.369904	-0.419940	-0.628912
O12	O	1.869904	0.080060	-0.128912
O13	O	1.229793	-0.515301	-0.351393
O14	O	1.729793	-0.015301	0.148607
O15	O	1.139833	-0.273119	-0.488344
O16	O	1.639833	0.226881	0.011656
O17	O	1.364640	-0.522112	-0.516085
O18	O	1.864640	-0.022112	-0.016085
O19	O	1.242004	-0.278280	-0.613129
O20	O	1.742004	0.221720	-0.113129
O21	O	1.132886	-0.407968	-0.339435
O22	O	1.632886	0.092032	0.160565
O23	O	0.998117	-0.401069	-0.487490
O24	O	1.498117	0.098931	0.012510
O25	O	1.127759	-0.509987	-0.776320
O26	O	1.627759	-0.009987	-0.276320
O27	O	0.992912	-0.503176	-0.611628
O28	O	1.492912	-0.003176	-0.111628
O29	O	1.235135	-0.413041	-0.776967
O30	O	1.735135	0.086959	-0.276967
O31	O	1.222924	-0.650062	-0.515231
O32	O	1.722924	-0.150062	-0.015231
O33	O	1.120812	-0.644835	-0.627411
O34	O	1.620812	-0.144835	-0.127411
C35	C	0.965342	-0.450589	-0.547698
C36	C	1.465342	0.049411	-0.047698
C37	C	0.872914	-0.445909	-0.542019
C38	C	1.372914	0.054091	-0.042019
C39	C	0.703686	-0.437346	-0.531658
C40	C	1.203686	0.062654	-0.031658
C41	C	0.659937	-0.485864	-0.590474
C42	C	1.159937	0.014136	-0.090474
C43	C	0.565773	-0.481099	-0.584709
C44	C	1.065773	0.018901	-0.084709
C45	C	0.797859	-0.442110	-0.537421
C46	C	1.297859	0.057890	-0.037421
C47	C	1.170344	-0.677622	-0.573014
C48	C	1.670344	-0.177622	-0.073014
C49	C	1.165694	-0.770052	-0.578178
C50	C	1.665694	-0.270052	-0.078178
C51	C	1.205722	-0.983027	-0.534459
C52	C	1.705722	-0.483027	-0.034459
C53	C	1.157218	-0.939278	-0.587618
C54	C	1.657218	-0.439278	-0.087618
C55	C	1.161935	-0.845112	-0.582364
C56	C	1.661935	-0.345112	-0.082364
C57	C	1.201006	-1.077202	-0.539712
C58	C	1.701006	-0.577202	-0.039712
C59	C	1.398288	-0.472603	-0.574412
C60	C	1.898288	0.027397	-0.074412
C61	C	1.490715	-0.477303	-0.580116
C62	C	1.990715	0.022697	-0.080116
C63	C	1.181456	-0.461504	-0.812622
C64	C	1.681456	0.038496	-0.312622
C65	C	1.181483	-0.461474	-0.919835
C66	C	1.681483	0.038526	-0.419835
C67	C	1.192508	-0.244684	-0.549019
C68	C	1.692508	0.255316	-0.049019
C69	C	1.197244	-0.152259	-0.543902
C70	C	1.697244	0.347741	-0.043902
C71	C	1.181508	-0.461419	-1.116129
C72	C	1.681508	0.038581	-0.616129
C73	C	1.181491	-0.461451	-1.006897
C74	C	1.681491	0.038549	-0.506897
C75	C	1.181382	-0.461587	-0.310415
C76	C	1.681382	0.038413	0.189585
C77	C	1.181528	-0.461391	-0.203198
C78	C	1.681528	0.038609	0.296802
H79	H	0.670424	-0.392235	-0.476978
H80	H	1.170424	0.107765	0.023022
O81	O	1.103467	-0.979087	-0.646537
O82	O	1.603467	-0.479087	-0.146537
C83	C	1.049759	-1.110607	-0.705625
C84	C	1.549759	-0.610607	-0.205625
C85	C	1.110652	-1.065624	-0.638849
C86	C	1.610652	-0.565624	-0.138849
H87	H	1.055559	-1.180580	-0.699447
H88	H	1.555559	-0.680580	-0.199447
H89	H	0.983526	-1.090320	-0.683555
H90	H	1.483526	-0.590320	-0.183555
H91	H	1.065152	-1.094213	-0.783369
H92	H	1.565152	-0.594213	-0.283369
H93	H	1.095335	-1.081996	-0.561085
H94	H	1.595335	-0.581996	-0.061085
H95	H	1.176868	-1.085914	-0.661001
H96	H	1.676868	-0.585914	-0.161001
O97	O	0.699744	-0.539670	-0.655627
O98	O	1.199744	-0.039670	-0.155627
C99	C	0.831261	-0.593476	-0.720908
C100	C	1.331261	-0.093476	-0.220908
C101	C	0.786280	-0.532520	-0.647069
C102	C	1.286280	-0.032520	-0.147069
H103	H	0.901233	-0.587704	-0.714028
H104	H	1.401233	-0.087704	-0.214028
H105	H	0.810870	-0.659685	-0.706537
H106	H	1.310870	-0.159685	-0.206537
H107	H	0.814973	-0.578124	-0.796878
H108	H	1.314973	-0.078124	-0.296878
H109	H	0.802547	-0.547796	-0.571070
H110	H	1.302547	-0.047796	-0.071070
H111	H	0.806675	-0.466328	-0.661523
H112	H	1.306675	0.033672	-0.161523
H113	H	1.250788	-0.949765	-0.485004
H114	H	1.750788	-0.449765	0.014996
