data_functionalizedCrystal
_audit_creation_method	'MofGen! by Chris Wilmer'
_symmetry_space_group_name_H-M	'P1'
_symmetry_Int_Tables_number	1
_symmetry_cell_setting	triclinic
loop_
_symmetry_equiv_pos_as_xyz
  x,y,z
_cell_length_a	16.974800
_cell_length_b	12.811415
_cell_length_c	16.053802
_cell_angle_alpha	87.154093
_cell_angle_beta	91.074188
_cell_angle_gamma	84.065383
loop_
_atom_site_label
_atom_site_type_symbol
_atom_site_fract_x
_atom_site_fract_y
_atom_site_fract_z
O1	O	1.049997	0.133156	-0.008537
O2	O	0.820646	0.149147	-0.025251
O3	O	0.940543	-0.010893	-0.005026
O4	O	0.930099	0.293197	-0.028763
O5	O	0.933944	-0.002121	0.132723
O6	O	0.814046	0.157920	0.112497
O7	O	1.043397	0.141929	0.129212
Zn8	Zn	0.927674	0.151317	0.142725
Zn9	Zn	0.936369	0.139759	-0.038765
O10	O	0.923500	0.301970	0.108986
C11	C	0.787978	0.152765	0.041696
C12	C	0.700469	0.150461	0.035954
C13	C	0.655765	0.154159	0.108346
C14	C	0.573542	0.151978	0.102955
C15	C	0.536026	0.146107	0.025172
C16	C	0.580736	0.142406	-0.047225
C17	C	0.662958	0.144580	-0.041833
C18	C	0.290507	0.139087	0.000994
C19	C	0.208279	0.136917	-0.004393
C20	C	0.201091	0.146487	0.145788
C21	C	0.283313	0.148666	0.151173
C22	C	0.328018	0.144960	0.078777
N23	N	0.451981	0.143881	0.019659
N24	N	0.412061	0.147178	0.084290
C25	C	0.936456	-0.045426	0.066741
C26	C	0.934100	-0.161392	0.075360
C27	C	0.936855	-0.388859	-0.058637
C28	C	0.934642	-0.497819	-0.050543
C29	C	0.927455	-0.488276	0.099640
C30	C	0.929668	-0.379315	0.091546
C31	C	0.934370	-0.329611	0.012405
C32	C	0.936589	-0.220649	0.004313
C33	C	0.929396	-0.211106	0.154494
C34	C	0.927183	-0.320067	0.162588
C35	C	1.076066	0.138311	0.062263
C36	C	1.163574	0.140615	0.067998
C37	C	0.927587	0.336502	0.037217
C38	C	0.929943	0.452468	0.028593
N39	N	0.921745	0.159205	0.266587
N40	N	0.942304	0.131863	-0.162626
C41	C	0.972781	0.091132	0.318886
C42	C	0.968641	0.096659	0.405595
C43	C	0.913469	0.170266	0.440002
C44	C	0.862428	0.238342	0.387695
C45	C	0.866564	0.232809	0.300989
C46	C	0.895400	0.194406	0.698362
C47	C	0.891269	0.199936	0.785075
C48	C	0.997481	0.058252	0.802968
C49	C	1.001616	0.052729	0.716259
C50	C	0.950572	0.120801	0.663961
N51	N	0.909238	0.175920	0.528631
N52	N	0.954800	0.115142	0.575333
H53	H	0.164684	0.149503	0.204729
H54	H	0.686304	0.158948	0.171685
H55	H	1.046541	-0.007207	0.688247
H56	H	0.550184	0.137619	-0.110558
H57	H	0.940419	-0.180182	-0.060128
O58	O	1.046975	-0.007828	0.853891
C59	C	1.031510	0.012851	0.937799
H60	H	0.968556	0.052430	0.942497
H61	H	1.038162	-0.064124	0.977301
H62	H	1.075307	0.066968	0.961449
H63	H	0.936663	-0.546055	-0.108393
O64	O	0.837558	0.271325	0.818467
C65	C	0.760437	0.252717	0.793317
H66	H	0.760623	0.167562	0.775752
H67	H	0.718251	0.268213	0.846787
H68	H	0.740073	0.307327	0.737077
H69	H	0.853839	0.249835	0.655787
O70	O	0.941573	-0.340552	-0.135480
C71	C	1.011196	-0.289434	-0.139154
H72	H	1.056102	-0.327698	-0.090261
H73	H	1.037282	-0.296333	-0.203812
H74	H	0.996504	-0.202939	-0.126360
O75	O	0.530230	0.155630	0.173354
C76	C	0.580976	0.161260	0.243165
H77	H	0.637603	0.194447	0.222284
H78	H	0.550048	0.214650	0.289968
H79	H	0.596311	0.079238	0.273694
O80	O	0.922796	-0.536683	0.176455
C81	C	0.853161	-0.587772	0.180159
H82	H	0.833218	-0.604333	0.114348
H83	H	0.865421	-0.665005	0.218845
H84	H	0.804535	-0.535291	0.210281
O85	O	0.706436	0.140809	-0.112116
C86	C	0.762530	0.051407	-0.106076
H87	H	0.741517	-0.009708	-0.059911
H88	H	0.769431	0.016862	-0.169940
H89	H	0.822001	0.074773	-0.083492
O90	O	0.922515	-0.368457	0.239408
C91	C	0.852876	-0.419537	0.243115
H92	H	0.832941	-0.436119	0.177305
H93	H	0.865127	-0.496758	0.281817
H94	H	0.804248	-0.367040	0.273219
O95	O	0.808868	0.309978	0.421014
C96	C	0.823408	0.412080	0.392906
H97	H	0.856792	0.408042	0.332000
H98	H	0.764660	0.463120	0.382084
H99	H	0.860529	0.447643	0.441902
H100	H	1.010198	0.041228	0.448177
O101	O	0.816913	0.298791	0.250151
C102	C	0.770314	0.239473	0.200938
H103	H	0.767172	0.158755	0.233189
H104	H	0.708010	0.281807	0.192539
H105	H	0.798077	0.229892	0.137292
O106	O	0.319634	0.154324	0.226803
C107	C	0.262541	0.157149	0.289541
H108	H	0.208023	0.121152	0.266396
H109	H	0.288441	0.110459	0.347770
H110	H	0.244995	0.242116	0.305189
H111	H	0.927375	-0.162855	0.212342
H112	H	0.177735	0.132139	-0.067737
O113	O	0.333978	0.135315	-0.069289
C114	C	0.390073	0.045913	-0.063251
H115	H	0.369060	-0.015206	-0.017090
H116	H	0.396974	0.011373	-0.127118
H117	H	0.449543	0.069278	-0.040665
H118	H	1.017711	0.031198	0.290879
