data_functionalizedCrystal
_audit_creation_method	'MofGen! by Chris Wilmer'
_symmetry_space_group_name_H-M	'P1'
_symmetry_Int_Tables_number	1
_symmetry_cell_setting	triclinic
loop_
_symmetry_equiv_pos_as_xyz
  x,y,z
_cell_length_a	18.101397
_cell_length_b	21.395362
_cell_length_c	21.395355
_cell_angle_alpha	90.043940
_cell_angle_beta	89.980066
_cell_angle_gamma	89.963657
loop_
_atom_site_label
_atom_site_type_symbol
_atom_site_fract_x
_atom_site_fract_y
_atom_site_fract_z
Zn1	Zn	-0.294601	-0.957904	-0.354579
Zn2	Zn	0.205399	-0.457904	0.145421
Zn3	Zn	-0.418425	-0.957825	-0.249799
Zn4	Zn	0.081575	-0.457825	0.250201
Zn5	Zn	-0.294636	-0.853119	-0.249781
Zn6	Zn	0.205364	-0.353119	0.250219
Zn7	Zn	-0.418440	-0.853107	-0.354504
Zn8	Zn	0.081560	-0.353107	0.145496
O9	O	-0.356526	-0.905489	-0.302166
O10	O	0.143474	-0.405489	0.197834
O11	O	-0.311006	-1.045572	-0.340720
O12	O	0.188994	-0.545572	0.159280
O13	O	-0.402012	-0.943908	-0.162119
O14	O	0.097988	-0.443908	0.337881
O15	O	-0.190998	-0.867057	-0.263706
O16	O	0.309002	-0.367057	0.236294
O17	O	-0.401979	-1.045514	-0.263738
O18	O	0.098021	-0.545514	0.236262
O19	O	-0.190973	-0.944042	-0.340701
O20	O	0.309027	-0.444042	0.159299
O21	O	-0.311065	-0.866981	-0.162105
O22	O	0.188935	-0.366981	0.337895
O23	O	-0.311080	-0.765439	-0.263633
O24	O	0.188920	-0.265439	0.236367
O25	O	-0.402005	-0.867036	-0.442192
O26	O	0.097995	-0.367036	0.057808
O27	O	-0.402038	-0.765431	-0.340573
O28	O	0.097962	-0.265431	0.159427
O29	O	-0.311021	-0.944030	-0.442247
O30	O	0.188979	-0.444030	0.057753
O31	O	-0.522060	-0.943896	-0.263665
O32	O	-0.022060	-0.443896	0.236335
O33	O	-0.522071	-0.866960	-0.340591
O34	O	-0.022071	-0.366960	0.159409
C35	C	-0.356565	-0.742701	-0.302093
C36	C	0.143435	-0.242701	0.197907
C37	C	-0.356599	-0.673060	-0.302077
C38	C	0.143401	-0.173060	0.197923
C39	C	-0.548936	-0.905435	-0.302136
C40	C	-0.048936	-0.405435	0.197864
C41	C	-0.631250	-0.905470	-0.302144
C42	C	-0.131250	-0.405470	0.197856
C43	C	-0.356511	-0.905541	-0.465589
C44	C	0.143489	-0.405541	0.034411
C45	C	-0.356504	-0.905563	-0.535231
C46	C	0.143496	-0.405563	-0.035231
C47	C	-0.930341	-0.905550	-0.302201
C48	C	-0.430341	-0.405550	0.197799
C49	C	-0.898978	-0.953821	-0.253671
C50	C	-0.398978	-0.453821	0.246329
C51	C	-0.813359	-0.953988	-0.253797
C52	C	-0.313359	-0.453988	0.246203
C53	C	-0.781959	-0.905510	-0.302172
C54	C	-0.281959	-0.405510	0.197828
C55	C	-0.812974	-0.923415	-0.368221
C56	C	-0.312974	-0.423415	0.131779
C57	C	-0.898619	-0.923789	-0.367956
C58	C	-0.398619	-0.423789	0.132044
C59	C	-0.898868	-0.839245	-0.285253
C60	C	-0.398868	-0.339245	0.214747
C61	C	-0.813218	-0.839572	-0.283779
C62	C	-0.313218	-0.339572	0.216221
C63	C	-0.698099	-0.905486	-0.302159
C64	C	-0.198099	-0.405486	0.197841
C65	C	-1.014201	-0.905575	-0.302217
C66	C	-0.514201	-0.405575	0.197783
C67	C	-0.163364	-0.905560	-0.302210
C68	C	0.336636	-0.405560	0.197790
C69	C	-0.081050	-0.905590	-0.302229
C70	C	0.418950	-0.405590	0.197771
C71	C	-0.356487	-1.068912	-0.302239
C72	C	0.143513	-0.568912	0.197761
C73	C	-0.356470	-1.138553	-0.302271
C74	C	0.143530	-0.638553	0.197729
C75	C	-0.404024	-0.640359	-0.342080
C76	C	0.095976	-0.140359	0.157920
C77	C	-0.404006	-0.574923	-0.342107
C78	C	0.095994	-0.074923	0.157893
C79	C	-0.356571	-0.542192	-0.302122
C80	C	0.143429	-0.042192	0.197878
C81	C	-0.309137	-0.574901	-0.262116
C82	C	0.190863	-0.074901	0.237884
C83	C	-0.309151	-0.640335	-0.262094
C84	C	0.190849	-0.140335	0.237906
C85	C	-0.350605	-0.438466	-0.245717
C86	C	0.149395	0.061534	0.254283
C87	C	-0.350596	-0.373033	-0.245738
C88	C	0.149404	0.126967	0.254262
C89	C	-0.356522	-0.340371	-0.302191
C90	C	0.143478	0.159629	0.197809
C91	C	-0.362474	-0.373150	-0.358624
C92	C	0.137526	0.126850	0.141376
C93	C	-0.362488	-0.438584	-0.358602
C94	C	0.137512	0.061416	0.141398
C95	C	-0.356550	-0.471239	-0.302142
C96	C	0.143450	0.028761	0.197858
C97	C	-0.403930	-0.236717	-0.342227
C98	C	0.096070	0.263283	0.157773
C99	C	-0.403907	-0.171280	-0.342256
C100	C	0.096093	0.328720	0.157744
C101	C	-0.309042	-0.171259	-0.262259
C102	C	0.190958	0.328741	0.237741
C103	C	-0.309061	-0.236695	-0.262236
C104	C	0.190939	0.263305	0.237764
C105	C	-0.356509	-0.269420	-0.302219
C106	C	0.143491	0.230580	0.197781
C107	C	-0.309127	-0.945652	-0.567974
C108	C	0.190873	-0.445652	-0.067974
C109	C	-0.309095	-0.945651	-0.633409
C110	C	0.190905	-0.445651	-0.133409
C111	C	-0.356454	-0.905568	-0.666099
C112	C	0.143546	-0.405568	-0.166099
C113	C	-0.403834	-0.865471	-0.633348
C114	C	0.096166	-0.365471	-0.133348
C115	C	-0.403859	-0.865469	-0.567914
C116	C	0.096141	-0.365469	-0.067914
C117	C	-0.423137	-0.900602	-0.769761
C118	C	0.076863	-0.400602	-0.269761
C119	C	-0.423113	-0.900609	-0.835194
C120	C	0.076887	-0.400609	-0.335194
C121	C	-0.356375	-0.905572	-0.867920
C122	C	0.143625	-0.405572	-0.367920
C123	C	-0.289660	-0.910541	-0.835204
C124	C	0.210340	-0.410541	-0.335204
C125	C	-0.289685	-0.910539	-0.769770
C126	C	0.210315	-0.410539	-0.269770
C127	C	-0.356431	-0.905566	-0.737051
C128	C	0.143569	-0.405566	-0.237051
C129	C	-0.308960	-0.945662	-0.971615
C130	C	0.191040	-0.445662	-0.471615
C131	C	-0.308927	-0.945657	-1.037052
C132	C	0.191073	-0.445657	-0.537052
C133	C	-0.403672	-0.865480	-1.036990
C134	C	0.096328	-0.365480	-0.536990
C135	C	-0.403699	-0.865482	-0.971555
C136	C	0.096301	-0.365482	-0.471555
C137	C	-0.356344	-0.905576	-0.938871
C138	C	0.143656	-0.405576	-0.438871
C139	C	-0.356487	-0.905473	-0.139378
C140	C	0.143513	-0.405473	0.360622
C141	C	-0.356285	-0.905572	-0.069737
C142	C	0.143715	-0.405572	0.430263
H143	H	-0.792391	-0.942785	-0.204823
H144	H	-0.292391	-0.442785	0.295177
H145	H	-0.477436	-0.896566	-0.861826
H146	H	0.022564	-0.396566	-0.361826
Br147	Br	-0.244782	-0.684719	-0.207802
Br148	Br	0.255218	-0.184719	0.292198
Br149	Br	-0.931802	-1.004568	-0.391879
Br150	Br	-0.431802	-0.504568	0.108121
H151	H	-0.442283	-0.832841	-0.944895
H152	H	0.057717	-0.332841	-0.444895
Br153	Br	-0.244857	-1.000063	-0.523620
Br154	Br	0.255143	-0.500063	-0.023620
Br155	Br	-0.777109	-1.003291	-0.392551
Br156	Br	-0.277109	-0.503291	0.107449
Br157	Br	-0.513719	-0.893885	-0.725355
Br158	Br	-0.013719	-0.393885	-0.225355
H159	H	-0.919365	-0.890171	-0.405362
H160	H	-0.419365	-0.390171	0.094638
Br161	Br	-0.934733	-1.035237	-0.272146
Br162	Br	-0.434733	-0.535237	0.227854
Br163	Br	-0.468102	-0.811067	-0.677711
Br164	Br	0.031898	-0.311067	-0.177711
H165	H	-0.442439	-0.832820	-0.541255
H166	H	0.057561	-0.332820	-0.041255
Br167	Br	-0.779089	-1.035849	-0.272492
Br168	Br	-0.279089	-0.535849	0.227508
Br169	Br	-0.468371	-0.530533	-0.396402
Br170	Br	0.031629	-0.030533	0.103598
Br171	Br	-0.934963	-0.812095	-0.206370
Br172	Br	-0.434963	-0.312095	0.293630
Br173	Br	-0.779088	-0.866603	-0.430111
Br174	Br	-0.279088	-0.366603	0.069889
Br175	Br	-0.199082	-0.917282	-0.879608
Br176	Br	0.300918	-0.417282	-0.379608
H177	H	-0.792953	-0.826071	-0.235172
H178	H	-0.292953	-0.326071	0.264828
H179	H	-0.270513	-0.548247	-0.229561
H180	H	0.229487	-0.048247	0.270439
Br181	Br	-0.933375	-0.935380	-0.171797
Br182	Br	-0.433375	-0.435380	0.328203
Br183	Br	-0.244695	-0.281078	-0.207943
Br184	Br	0.255305	0.218922	0.292057
H185	H	-0.270415	-0.144610	-0.229705
H186	H	0.229585	0.355390	0.270295
H187	H	-0.270511	-0.978295	-0.660073
H188	H	0.229489	-0.478295	-0.160073
H189	H	-0.235363	-0.914583	-0.743136
H190	H	0.264637	-0.414583	-0.243136
H191	H	-0.791852	-0.801671	-0.316535
H192	H	-0.291852	-0.301671	0.183465
Br193	Br	-0.342521	-0.328554	-0.169151
Br194	Br	0.157479	0.171446	0.330849
Br195	Br	-0.468416	-0.684768	-0.396343
Br196	Br	0.031584	-0.184768	0.103657
Br197	Br	-0.370562	-0.483068	-0.435186
Br198	Br	0.129438	0.016932	0.064814
Br199	Br	-0.932678	-0.779299	-0.344163
Br200	Br	-0.432678	-0.279299	0.155837
H201	H	-0.367299	-0.346558	-0.404594
H202	H	0.132701	0.153442	0.095406
H203	H	-0.442561	-0.263363	-0.374787
H204	H	0.057439	0.236637	0.125213
H205	H	-0.442524	-0.144656	-0.374835
H206	H	0.057476	0.355344	0.125165
Br207	Br	-0.342562	-0.482786	-0.169095
Br208	Br	0.157438	0.017214	0.330905
H209	H	-0.270396	-0.978306	-0.945003
H210	H	0.229604	-0.478306	-0.445003
Br211	Br	-0.244634	-1.000078	-1.081491
Br212	Br	0.255366	-0.500078	-0.581491
H213	H	-0.442225	-0.832837	-1.063605
H214	H	0.057775	-0.332837	-0.563605
