data_functionalizedCrystal
_audit_creation_method	'MofGen! by Chris Wilmer'
_symmetry_space_group_name_H-M	'P1'
_symmetry_Int_Tables_number	1
_symmetry_cell_setting	triclinic
loop_
_symmetry_equiv_pos_as_xyz
  x,y,z
_cell_length_a	11.026607
_cell_length_b	16.109301
_cell_length_c	10.065875
_cell_angle_alpha	98.785292
_cell_angle_beta	100.697662
_cell_angle_gamma	83.976251
loop_
_atom_site_label
_atom_site_type_symbol
_atom_site_fract_x
_atom_site_fract_y
_atom_site_fract_z
O1	O	1.627788	-0.338566	0.113516
O2	O	1.274498	-0.298925	0.113515
O3	O	1.460846	-0.199170	0.113502
O4	O	1.441440	-0.438321	0.113530
O5	O	1.425312	-0.218289	-0.113484
O6	O	1.238963	-0.318044	-0.113471
O7	O	1.592254	-0.357686	-0.113470
Zn8	Zn	1.409967	-0.340901	-0.149509
Zn9	Zn	1.456785	-0.315710	0.149555
O10	O	1.405906	-0.457440	-0.113457
C11	C	1.211523	-0.301171	0.000022
C12	C	1.076817	-0.279370	0.000021
C13	C	1.002989	-0.339566	0.000029
C14	C	0.863763	-0.317035	0.000028
C15	C	1.442293	-0.177637	0.000008
C16	C	1.439935	-0.084989	0.000006
C17	C	1.655230	-0.355439	0.000026
C18	C	1.789937	-0.377239	0.000036
C19	C	1.424460	-0.478973	0.000040
C20	C	1.426819	-0.571621	0.000051
N21	N	1.378024	-0.358093	-0.353613
C22	C	1.545034	0.121537	0.000028
C23	C	1.542811	0.208592	0.000039
C24	C	1.321712	0.221849	0.000033
C25	C	1.323937	0.134796	0.000032
C26	C	1.435601	0.084642	0.000022
C27	C	1.431153	0.258749	0.000035
C28	C	1.428742	0.353137	0.000047
C29	C	1.438012	-0.009753	0.000013
C30	C	1.445663	-0.321685	-0.421396
C31	C	1.421088	-0.334925	-0.578562
N32	N	1.488737	-0.298512	0.353658
H33	H	0.823909	-0.248812	0.000055
C34	C	1.666133	0.066936	-0.000035
C35	C	1.644660	-0.017202	-0.000074
C36	C	1.756188	-0.067523	-0.000146
H37	H	1.723666	0.085036	0.079103
H38	H	1.698811	0.071765	-0.079218
H39	H	1.612000	-0.022027	0.079100
H40	H	1.587146	-0.035328	-0.079207
H41	H	1.788866	-0.062694	-0.079328
H42	H	1.813712	-0.049416	0.078993
H43	H	1.741631	-0.124617	-0.000185
H44	H	1.344977	-0.375897	-0.636877
H45	H	1.631923	0.238627	0.000047
H46	H	1.521761	-0.280709	-0.363078
C47	C	0.842969	-0.468240	-0.000228
C48	C	0.785267	-0.517524	-0.117015
C49	C	0.834105	-0.601353	-0.117311
H50	H	0.828741	-0.488584	0.078841
H51	H	0.929474	-0.471331	-0.000301
H52	H	0.698782	-0.514438	-0.116930
H53	H	0.799490	-0.497207	-0.196103
H54	H	0.920610	-0.604443	-0.117384
H55	H	0.819874	-0.621688	-0.038237
H56	H	0.794970	-0.634801	-0.196555
H57	H	1.230799	0.262694	0.000038
C58	C	1.589941	-0.243720	-0.568353
C59	C	1.594055	-0.241359	-0.427973
C60	C	1.687157	-0.190805	-0.356089
H61	H	1.572731	-0.188235	-0.591718
H62	H	1.667526	-0.266527	-0.591436
H63	H	1.516487	-0.218550	-0.404900
H64	H	1.611280	-0.296830	-0.404568
H65	H	1.764742	-0.213612	-0.379172
H66	H	1.669938	-0.135324	-0.379465
H67	H	1.689968	-0.189203	-0.260834
C68	C	1.204974	0.094885	-0.000044
C69	C	1.106700	0.157434	-0.000083
C70	C	0.997098	0.120697	-0.000165
H71	H	1.213463	0.067871	0.079090
H72	H	1.188788	0.054555	-0.079231
H73	H	1.122883	0.197748	0.079096
H74	H	1.098172	0.184452	-0.079211
H75	H	0.980912	0.080368	-0.079352
H76	H	1.005600	0.093684	0.078970
H77	H	0.930404	0.163129	-0.000204
C78	C	1.276643	-0.412730	-0.431610
C79	C	1.272452	-0.415023	-0.571989
C80	C	1.179084	-0.465356	-0.643878
H81	H	1.199153	-0.389805	-0.408444
H82	H	1.293658	-0.468254	-0.408332
H83	H	1.255429	-0.359510	-0.595258
H84	H	1.349918	-0.437955	-0.595196
H85	H	1.196099	-0.520879	-0.620600
H86	H	1.101601	-0.442426	-0.620701
H87	H	1.176235	-0.466924	-0.739132
H88	H	1.036957	-0.211152	0.000048
C89	C	1.056376	-0.430472	0.000101
C90	C	1.183860	-0.434742	0.000130
C91	C	1.233080	-0.518471	0.000212
H92	H	1.017477	-0.464119	-0.079029
H93	H	1.042202	-0.450721	0.079291
H94	H	1.198025	-0.414503	-0.079052
H95	H	1.222792	-0.401113	0.079255
H96	H	1.218906	-0.538721	0.079402
H97	H	1.194172	-0.552111	-0.078920
H98	H	1.319584	-0.521379	0.000244
