data_functionalizedCrystal
_audit_creation_method	'MofGen! by Chris Wilmer'
_symmetry_space_group_name_H-M	'P1'
_symmetry_Int_Tables_number	1
_symmetry_cell_setting	triclinic
loop_
_symmetry_equiv_pos_as_xyz
  x,y,z
_cell_length_a	9.065215
_cell_length_b	10.489741
_cell_length_c	8.140239
_cell_angle_alpha	89.996756
_cell_angle_beta	89.997810
_cell_angle_gamma	84.776936
loop_
_atom_site_label
_atom_site_type_symbol
_atom_site_fract_x
_atom_site_fract_y
_atom_site_fract_z
O1	O	1.959497	0.187025	-0.136594
O2	O	1.530137	0.202371	-0.136601
O3	O	1.754587	0.009135	-0.136587
O4	O	1.735047	0.380261	-0.136607
O5	O	1.754574	0.009133	0.136640
O6	O	1.530125	0.202369	0.136626
O7	O	1.959484	0.187023	0.136634
Zn8	Zn	1.744802	0.194695	0.180011
Zn9	Zn	1.744819	0.194699	-0.179978
O10	O	1.735034	0.380258	0.136620
C11	C	1.475151	0.200896	0.000012
C12	C	1.311330	0.196489	0.000009
C13	C	1.753105	-0.038403	0.000025
C14	C	1.748689	-0.180048	0.000022
C15	C	1.605879	-0.248703	0.000008
C16	C	1.673335	-0.340583	0.134724
C17	C	1.673381	-0.340555	-0.134656
C18	C	1.816205	-0.270063	0.134850
C19	C	1.816231	-0.270026	-0.134652
C20	C	1.883791	-0.361879	0.000097
C21	C	2.014470	0.188498	0.000017
C22	C	2.178292	0.192905	0.000009
C23	C	1.736517	0.427797	0.000004
C24	C	1.740932	0.569442	-0.000004
N25	N	1.744802	0.194693	0.425693
N26	N	1.744831	0.194691	-0.425660
H27	H	1.488461	-0.199474	0.000141
H28	H	1.612903	-0.371813	0.248615
H29	H	2.001315	-0.410879	0.000174
O30	O	1.888284	-0.232504	-0.270398
C31	C	1.892573	-0.098497	-0.267692
H32	H	1.879747	-0.062552	-0.135850
H33	H	1.798370	-0.051650	-0.345903
C34	C	2.057593	-0.108105	-0.499114
C35	C	2.041852	-0.063957	-0.337181
H36	H	2.149671	-0.086797	-0.541985
H37	H	2.054700	-0.198387	-0.500942
H38	H	1.979081	-0.069061	-0.564269
H39	H	2.120352	-0.103013	-0.272025
H40	H	2.044762	0.026319	-0.335344
O41	O	1.601083	-0.377601	-0.270485
C42	C	1.454595	-0.319463	-0.269947
H43	H	1.448472	-0.229338	-0.191076
H44	H	1.377343	-0.389066	-0.217373
C45	C	1.414728	-0.394374	-0.543790
C46	C	1.407210	-0.283674	-0.446931
H47	H	1.385493	-0.372302	-0.652962
H48	H	1.513417	-0.433547	-0.544152
H49	H	1.350350	-0.452366	-0.499959
H50	H	1.471599	-0.225691	-0.490751
H51	H	1.308529	-0.244490	-0.446581
H52	H	1.876573	-0.239014	0.248870
