data_functionalizedCrystal
_audit_creation_method	'MofGen! by Chris Wilmer'
_symmetry_space_group_name_H-M	'P1'
_symmetry_Int_Tables_number	1
_symmetry_cell_setting	triclinic
loop_
_symmetry_equiv_pos_as_xyz
  x,y,z
_cell_length_a	10.489711
_cell_length_b	10.489741
_cell_length_c	16.053802
_cell_angle_alpha	92.592148
_cell_angle_beta	87.391283
_cell_angle_gamma	84.533091
loop_
_atom_site_label
_atom_site_type_symbol
_atom_site_fract_x
_atom_site_fract_y
_atom_site_fract_z
O1	O	1.699410	0.174463	-0.069459
O2	O	1.328209	0.191396	-0.069454
O3	O	1.522256	-0.002669	-0.069452
O4	O	1.505364	0.368528	-0.069461
O5	O	1.511575	0.007969	0.069407
O6	O	1.317528	0.202033	0.069405
O7	O	1.688729	0.185101	0.069400
Zn8	Zn	1.501433	0.195256	0.091449
Zn9	Zn	1.515506	0.181241	-0.091503
O10	O	1.494682	0.379165	0.069397
C11	C	1.275336	0.195444	-0.000024
C12	C	1.133705	0.191642	-0.000022
C13	C	0.951319	0.308346	-0.000035
C14	C	1.048731	0.244806	-0.068496
C15	C	1.038173	0.255262	0.068407
C16	C	0.978785	0.121258	-0.068558
C17	C	0.968213	0.131736	0.068407
C18	C	1.065598	0.068105	-0.000071
C19	C	1.515639	-0.044882	-0.000023
C20	C	1.511822	-0.186511	-0.000024
C21	C	1.388356	-0.254638	-0.000029
C22	C	1.441414	-0.341522	0.068435
C23	C	1.451974	-0.351984	-0.068469
C24	C	1.564927	-0.271525	0.068496
C25	C	1.575474	-0.281983	-0.068469
C26	C	1.628621	-0.368838	0.000011
C27	C	1.741602	0.181053	-0.000032
C28	C	1.883234	0.184854	-0.000040
C29	C	1.501299	0.421378	-0.000033
C30	C	1.505116	0.563007	-0.000037
N31	N	1.491837	0.204820	0.216309
N32	N	1.525111	0.171666	-0.216364
C33	C	1.574435	0.122275	0.260004
C34	C	1.567735	0.128978	0.347411
C35	C	1.478443	0.218233	0.391121
C36	C	1.395836	0.300781	0.347420
C37	C	1.402531	0.294071	0.260015
C38	C	1.449199	0.247505	0.652530
C39	C	1.442513	0.254211	0.739941
C40	C	1.614411	0.082406	0.739926
C41	C	1.621103	0.075709	0.652520
C42	C	1.538492	0.158253	0.608826
N43	N	1.471595	0.225089	0.480465
N44	N	1.545335	0.151390	0.519484
H45	H	0.901634	0.409841	-0.000105
C46	C	1.358490	0.338474	0.604479
N47	N	1.290224	0.407056	0.568284
H48	H	1.115058	-0.033492	-0.000103
H49	H	1.384720	-0.368094	0.126318
C50	C	1.719325	-0.022484	0.604445
N51	N	1.793308	-0.096445	0.568235
H52	H	1.323126	0.373450	0.383014
H53	H	1.730222	-0.418270	0.000048
C54	C	1.073975	0.331868	0.146602
N55	N	1.100934	0.389576	0.205496
C56	C	0.920273	0.067201	0.146609
N57	N	0.884159	0.018604	0.205517
C58	C	1.629415	-0.223887	0.146781
N59	N	1.677981	-0.188001	0.205746
C60	C	1.652005	-0.246035	-0.146671
N61	N	1.709639	-0.218956	-0.205579
H62	H	1.286838	-0.204971	0.000042
C63	C	1.658569	0.038140	0.395471
N64	N	1.726978	-0.030295	0.431670
H65	H	1.335269	0.361287	0.224439
H66	H	1.404170	-0.387377	-0.126355
C67	C	0.943190	0.044737	-0.146843
N68	N	0.916376	-0.012892	-0.205809
H69	H	1.084178	0.292627	-0.126376
H70	H	1.647152	0.049600	0.224421
C71	C	1.705267	-0.008397	0.787996
N72	N	1.773698	-0.076798	0.824203
H73	H	1.369796	0.326898	0.775526
