data_functionalizedCrystal
_audit_creation_method	'MofGen! by Chris Wilmer'
_symmetry_space_group_name_H-M	'P1'
_symmetry_Int_Tables_number	1
_symmetry_cell_setting	triclinic
loop_
_symmetry_equiv_pos_as_xyz
  x,y,z
_cell_length_a	10.686220
_cell_length_b	16.120484
_cell_length_c	16.120297
_cell_angle_alpha	84.385569
_cell_angle_beta	82.988280
_cell_angle_gamma	97.070967
loop_
_atom_site_label
_atom_site_type_symbol
_atom_site_fract_x
_atom_site_fract_y
_atom_site_fract_z
Zn1	Zn	1.879493	-0.256272	0.389220
Zn2	Zn	2.379493	0.243728	0.889220
Zn3	Zn	1.879333	-0.388970	0.256539
Zn4	Zn	2.379333	0.111030	0.756539
Zn5	Zn	1.678100	-0.259974	0.260207
Zn6	Zn	2.178100	0.240026	0.760207
Zn7	Zn	1.655321	-0.407986	0.408208
Zn8	Zn	2.155321	0.092014	0.908208
O9	O	1.773062	-0.328300	0.328544
O10	O	2.273062	0.171700	0.828544
O11	O	2.057505	-0.264366	0.362138
O12	O	2.557505	0.235634	0.862138
O13	O	1.862105	-0.365449	0.139559
O14	O	2.362105	0.134551	0.639559
O15	O	1.714416	-0.142004	0.270909
O16	O	2.214416	0.357996	0.770909
O17	O	2.057388	-0.361859	0.264658
O18	O	2.557388	0.138141	0.764658
O19	O	1.862378	-0.139284	0.365694
O20	O	2.362378	0.360716	0.865694
O21	O	1.714260	-0.270676	0.142253
O22	O	2.214260	0.229324	0.642253
O23	O	1.497046	-0.289116	0.289321
O24	O	1.997046	0.210884	0.789321
O25	O	1.675592	-0.394270	0.523156
O26	O	2.175592	0.105730	1.023156
O27	O	1.480310	-0.397860	0.398057
O28	O	1.980310	0.102140	0.898057
O29	O	1.840291	-0.282806	0.509206
O30	O	2.340291	0.217194	1.009206
O31	O	1.840017	-0.508971	0.283070
O32	O	2.340017	-0.008971	0.783070
O33	O	1.675437	-0.522942	0.394501
O34	O	2.175437	-0.022942	0.894501
C35	C	1.442516	-0.345954	0.346148
C36	C	1.942516	0.154046	0.846148
C37	C	1.301103	-0.353528	0.353700
C38	C	1.801103	0.146472	0.853700
C39	C	1.755271	-0.546417	0.340464
C40	C	2.255271	-0.046417	0.840464
C41	C	1.747774	-0.639723	0.345586
C42	C	2.247774	-0.139723	0.845586
C43	C	1.734092	-0.810554	0.354954
C44	C	2.234092	-0.310554	0.854954
C45	C	1.812259	-0.845195	0.302135
C46	C	2.312259	-0.345195	0.802135
C47	C	1.804646	-0.940251	0.307347
C48	C	2.304646	-0.440251	0.807347
C49	C	1.741703	-0.715490	0.349743
C50	C	2.241703	-0.215490	0.849743
C51	C	2.104899	-0.310579	0.310871
C52	C	2.604899	0.189421	0.810871
C53	C	2.246308	-0.303026	0.303340
C54	C	2.746308	0.196974	0.803340
C55	C	1.755418	-0.340246	0.547490
C56	C	2.255418	0.159754	1.047490
C57	C	1.747900	-0.345337	0.640792
C58	C	2.247900	0.154663	1.140792
C59	C	1.790956	-0.109332	0.316593
C60	C	2.290956	0.390668	0.816593
C61	C	1.798581	-0.016020	0.311500
C62	C	2.298581	0.483980	0.811500
C63	C	1.790715	-0.316336	0.110441
C64	C	2.290715	0.183664	0.610441
C65	C	1.798500	-0.310996	0.017114
C66	C	2.298500	0.189004	0.517114
C67	C	1.734127	-0.354615	0.811617
C68	C	2.234127	0.145385	1.311617
C69	C	1.812268	-0.301721	0.846295
C70	C	2.312268	0.198279	1.346295
C71	C	1.804605	-0.306883	0.941347
C72	C	2.304605	0.193117	1.441347
C73	C	1.741789	-0.349454	0.716556
C74	C	2.241789	0.150546	1.216556
H75	H	1.307581	-0.253997	0.254447
H76	H	1.807581	0.246003	0.754447
H77	H	1.239823	-0.402566	0.402591
H78	H	1.739823	0.097434	0.902591
H79	H	1.661481	-0.403773	0.853313
H80	H	2.161481	0.096227	1.353313
H81	H	1.884895	-0.803461	0.253000
H82	H	2.384895	-0.303461	0.753000
C83	C	1.635956	-0.866932	0.421320
C84	C	2.135956	-0.366932	0.921320
N85	N	1.562035	-0.909405	0.471303
N86	N	2.062035	-0.409405	0.971303
H87	H	1.884920	-0.252559	0.804596
H88	H	2.384920	0.247441	1.304596
