data_functionalizedCrystal
_audit_creation_method	'MofGen! by Chris Wilmer'
_symmetry_space_group_name_H-M	'P1'
_symmetry_Int_Tables_number	1
_symmetry_cell_setting	triclinic
loop_
_symmetry_equiv_pos_as_xyz
  x,y,z
_cell_length_a	17.077404
_cell_length_b	19.077068
_cell_length_c	17.077396
_cell_angle_alpha	92.265421
_cell_angle_beta	89.982940
_cell_angle_gamma	92.327269
loop_
_atom_site_label
_atom_site_type_symbol
_atom_site_fract_x
_atom_site_fract_y
_atom_site_fract_z
Zn1	Zn	1.187456	-0.280186	-0.456375
Zn2	Zn	1.182083	-0.397893	-0.330374
Zn3	Zn	1.056192	-0.280214	-0.325125
Zn4	Zn	1.050873	-0.397848	-0.461596
O5	O	1.119151	-0.339035	-0.393367
O6	O	1.296590	-0.295807	-0.439673
O7	O	1.165361	-0.382313	-0.219832
O8	O	1.078079	-0.181719	-0.338153
O9	O	1.292643	-0.382286	-0.347101
O10	O	1.174518	-0.181698	-0.434583
O11	O	1.072869	-0.295855	-0.215975
O12	O	0.945640	-0.295811	-0.343215
O13	O	1.069013	-0.382209	-0.570749
O14	O	0.941732	-0.382236	-0.443480
O15	O	1.169360	-0.295763	-0.566913
O16	O	1.160204	-0.496378	-0.352163
O17	O	1.063804	-0.496344	-0.448571
C18	C	0.915204	-0.339022	-0.393345
C19	C	0.827953	-0.339034	-0.393355
C20	C	1.110865	-0.521899	-0.401520
C21	C	1.107392	-0.600128	-0.405034
C22	C	0.784946	-0.384103	-0.445486
C23	C	0.702965	-0.384105	-0.445498
C24	C	0.663994	-0.339040	-0.393376
C25	C	0.707007	-0.293965	-0.341243
C26	C	0.788986	-0.293961	-0.341235
C27	C	0.536136	-0.293979	-0.341263
C28	C	0.454152	-0.293984	-0.341270
C29	C	0.450115	-0.384123	-0.445526
C30	C	0.532095	-0.384118	-0.445518
C31	C	0.575102	-0.339045	-0.393384
C32	C	1.155989	-0.636875	-0.356532
C33	C	1.152727	-0.710380	-0.359842
C34	C	1.100863	-0.747138	-0.411650
C35	C	1.052264	-0.710386	-0.460158
C36	C	1.055530	-0.636882	-0.456851
C37	C	1.085712	-0.966972	-0.426921
C38	C	1.082447	-1.040481	-0.430222
C39	C	1.182912	-1.040470	-0.329907
C40	C	1.186171	-0.966964	-0.326602
C41	C	1.137574	-0.930219	-0.375112
N42	N	1.097526	-0.822272	-0.415033
N43	N	1.140916	-0.855086	-0.371733
C44	C	1.323894	-0.339048	-0.393390
C45	C	1.411144	-0.339054	-0.393400
C46	C	1.119192	-0.338978	-0.598109
C47	C	1.119210	-0.338954	-0.685358
C48	C	1.127491	-0.155457	-0.385200
C49	C	1.131045	-0.077227	-0.381720
C50	C	1.167445	-0.383890	-1.063180
C51	C	1.167425	-0.383911	-0.981200
C52	C	1.119263	-0.338904	-0.938205
C53	C	1.071112	-0.293878	-0.977194
C54	C	1.071129	-0.293862	-1.059172
C55	C	1.071081	-0.293915	-0.806325
C56	C	1.071065	-0.293930	-0.724341
C57	C	1.167376	-0.383964	-0.728353
C58	C	1.167394	-0.383947	-0.810332
C59	C	1.119244	-0.338921	-0.849315
C60	C	1.119157	-0.339041	-0.189420
C61	C	1.119301	-0.338867	-0.102163
H62	H	0.816670	-0.420803	-0.487927
H63	H	1.031894	-0.257236	-0.942180
H64	H	1.015958	-0.606964	-0.496348
H65	H	0.571151	-0.257269	-0.298816
H66	H	1.206668	-0.420537	-1.098181
C67	C	0.402811	-0.433701	-0.502880
C68	C	0.445677	-0.483275	-0.560209
C69	C	0.398369	-0.532853	-0.617558
C70	C	0.308195	-0.532857	-0.617578
C71	C	0.265324	-0.483281	-0.560246
C72	C	0.312632	-0.433703	-0.502897
H73	H	0.512433	-0.483273	-0.560197
H74	H	0.430105	-0.569552	-0.659999
H75	H	0.273174	-0.569558	-0.660031
H76	H	0.198568	-0.483283	-0.560258
H77	H	0.280896	-0.397004	-0.460456
C78	C	1.025399	-1.080912	-0.487224
C79	C	1.057143	-1.131379	-0.551146
C80	C	1.000099	-1.171808	-0.608147
C81	C	0.911311	-1.161771	-0.601225
C82	C	0.879563	-1.111301	-0.537299
C83	C	0.936607	-1.070872	-0.480299
H84	H	1.122873	-1.138811	-0.556273
H85	H	1.023601	-1.209169	-0.655468
H86	H	0.869083	-1.191699	-0.643420
H87	H	0.813832	-1.103869	-0.532173
H88	H	0.913104	-1.033511	-0.432977
C89	C	0.655660	-0.433685	-0.502842
C90	C	0.663308	-0.513688	-0.499849
C91	C	0.616004	-0.563271	-0.557197
C92	C	0.561054	-0.532850	-0.617539
C93	C	0.553404	-0.452843	-0.620535
C94	C	0.600707	-0.403261	-0.563187
H95	H	0.703987	-0.536211	-0.455178
H96	H	0.621668	-0.622498	-0.554979
H97	H	0.526037	-0.569554	-0.659992
H98	H	0.512724	-0.430320	-0.665206
H99	H	0.595044	-0.344034	-0.565405
C100	C	0.664138	-0.244393	-0.283910
C101	C	0.610288	-0.189181	-0.315572
C102	C	0.567419	-0.139609	-0.258236
C103	C	0.578399	-0.145249	-0.169239
C104	C	0.632251	-0.200462	-0.137572
C105	C	0.675120	-0.250034	-0.194908
H106	H	0.602158	-0.185005	-0.381457
H107	H	0.527555	-0.098737	-0.281678
H108	H	0.546665	-0.108553	-0.126796
H109	H	0.640381	-0.204639	-0.071687
H110	H	0.714984	-0.290907	-0.171466
C111	C	1.018118	-0.244386	-0.849210
C112	C	0.928618	-0.250118	-0.838185
C113	C	0.875659	-0.200589	-0.881071
C114	C	0.912201	-0.145327	-0.934981
C115	C	1.001706	-0.139592	-0.946008
C116	C	1.054664	-0.189122	-0.903123
H117	H	0.901563	-0.291028	-0.798275
H118	H	0.809401	-0.204834	-0.872907
H119	H	0.872998	-0.108662	-0.966728
H120	H	1.028760	-0.098682	-0.985918
H121	H	1.120922	-0.184876	-0.911286
C122	C	1.220405	-0.433409	-0.938302
C123	C	1.183896	-0.488674	-0.884374
C124	C	1.236886	-0.538163	-0.841468
C125	C	1.326385	-0.532388	-0.852490
C126	C	1.362899	-0.477121	-0.906419
C127	C	1.309909	-0.427632	-0.949326
H128	H	1.117640	-0.492951	-0.876213
H129	H	1.209856	-0.579075	-0.801546
H130	H	1.365612	-0.569022	-0.820728
H131	H	1.429155	-0.472844	-0.914580
H132	H	1.336939	-0.386720	-0.989248
C133	C	0.836296	-0.244384	-0.283889
C134	C	0.891256	-0.274805	-0.223556
C135	C	0.938565	-0.225223	-0.166211
C136	C	0.930913	-0.145220	-0.169199
C137	C	0.875951	-0.114795	-0.229534
C138	C	0.828642	-0.164377	-0.286879
H139	H	0.896922	-0.334031	-0.221342
H140	H	0.979251	-0.247746	-0.121547
H141	H	0.965934	-0.108517	-0.126749
H142	H	0.870285	-0.055568	-0.231749
H143	H	0.787956	-0.141853	-0.331544
H144	H	1.206615	-0.420592	-0.845336
H145	H	0.563823	-0.420818	-0.487956
H146	H	0.422424	-0.257280	-0.298836
H147	H	1.046141	-0.937059	-0.466418
H148	H	1.198219	-0.606952	-0.314341
H149	H	1.192300	-0.740296	-0.320346
C150	C	1.243227	-0.926533	-0.269616
C151	C	1.296689	-0.966953	-0.216267
C152	C	1.353745	-0.926522	-0.159280
C153	C	1.357339	-0.845670	-0.155642
C154	C	1.303875	-0.805246	-0.208993
C155	C	1.246819	-0.845677	-0.265980
H156	H	1.294031	-1.026808	-0.218959
H157	H	1.393322	-0.956447	-0.119786
H158	H	1.399575	-0.815740	-0.113456
H159	H	1.306533	-0.745391	-0.206301
H160	H	1.207242	-0.815752	-0.305474
C161	C	1.236371	-1.080891	-0.276555
C162	C	1.200151	-1.131491	-0.217171
C163	C	1.253615	-1.171913	-0.163819
C164	C	1.343300	-1.161734	-0.169850
C165	C	1.379525	-1.111132	-0.229237
C166	C	1.326061	-1.070710	-0.282589
H167	H	1.133757	-1.139028	-0.212703
H168	H	1.226798	-1.209372	-0.119857
H169	H	1.382877	-1.191656	-0.130356
H170	H	1.445919	-1.103595	-0.233704
H171	H	1.352878	-1.033251	-0.326551
H172	H	1.010038	-0.740320	-0.502344
H173	H	1.206582	-0.420626	-0.696610
H174	H	1.031926	-0.257198	-1.090911
H175	H	1.031850	-0.257279	-0.689336
