data_functionalizedCrystal
_audit_creation_method	'MofGen! by Chris Wilmer'
_symmetry_space_group_name_H-M	'P1'
_symmetry_Int_Tables_number	1
_symmetry_cell_setting	triclinic
loop_
_symmetry_equiv_pos_as_xyz
  x,y,z
_cell_length_a	15.995292
_cell_length_b	9.065218
_cell_length_c	8.140239
_cell_angle_alpha	89.998670
_cell_angle_beta	89.997358
_cell_angle_gamma	84.242251
loop_
_atom_site_label
_atom_site_type_symbol
_atom_site_fract_x
_atom_site_fract_y
_atom_site_fract_z
O1	O	-1.112451	-0.189750	0.136651
O2	O	-0.612451	0.310250	0.636651
O3	O	-0.868848	-0.213323	0.136644
O4	O	-0.368848	0.286677	0.636644
O5	O	-0.995685	0.013226	0.136645
O6	O	-0.495685	0.513226	0.636645
O7	O	-0.985615	-0.416299	0.136651
O8	O	-0.485615	0.083701	0.636651
O9	O	-0.995681	0.013228	-0.136583
O10	O	-0.495681	0.513228	0.363417
O11	O	-0.868844	-0.213321	-0.136583
O12	O	-0.368844	0.286679	0.363417
O13	O	-1.112447	-0.189749	-0.136576
O14	O	-0.612447	0.310251	0.363424
Zn15	Zn	-0.990645	-0.201535	-0.179960
Zn16	Zn	-0.490645	0.298465	0.320040
Zn17	Zn	-0.990650	-0.201537	0.180028
Zn18	Zn	-0.490650	0.298463	0.680028
O19	O	-0.985610	-0.416298	-0.136576
O20	O	-0.485610	0.083702	0.363424
C21	C	-0.837643	-0.212362	0.000030
C22	C	-0.337643	0.287638	0.500030
C23	C	-0.744669	-0.209486	0.000027
C24	C	-0.244669	0.290514	0.500027
C25	C	-0.994715	0.068191	0.000034
C26	C	-0.494715	0.568191	0.500034
C27	C	-0.991821	0.231964	0.000041
C28	C	-0.491821	0.731964	0.500041
N29	N	-0.990647	-0.201532	-0.425643
N30	N	-0.490647	0.298468	0.074357
C31	C	-1.143652	-0.190709	0.000042
C32	C	-0.643652	0.309291	0.500042
C33	C	-1.236627	-0.193585	0.000056
C34	C	-0.736627	0.306415	0.500056
C35	C	-0.406850	-0.198912	0.000045
C36	C	0.093150	0.301088	0.500045
C37	C	-0.431402	-0.362429	0.000658
C38	C	0.068598	0.137571	0.500658
C39	C	-0.528101	-0.365537	0.000035
C40	C	-0.028101	0.134463	0.500035
C41	C	-0.574446	-0.204159	0.000037
C42	C	-0.074446	0.295841	0.500037
C43	C	-0.544721	-0.122408	-0.155984
C44	C	-0.044721	0.377592	0.344016
C45	C	-0.447916	-0.120439	-0.156108
C46	C	0.052084	0.379561	0.343892
C47	C	-0.448040	-0.117102	0.154602
C48	C	0.051960	0.382898	0.654602
C49	C	-0.544578	-0.123161	0.156657
C50	C	-0.044578	0.376839	0.656657
C51	C	-0.669164	-0.207116	0.000027
C52	C	-0.169164	0.292884	0.500027
C53	C	-0.312132	-0.195951	0.000045
C54	C	0.187868	0.304049	0.500045
C55	C	-0.986580	-0.471262	0.000038
C56	C	-0.486580	0.028738	0.500038
C57	C	-0.989474	-0.635036	0.000041
C58	C	-0.489474	-0.135036	0.500041
N59	N	-0.990655	-0.201527	0.425711
N60	N	-0.490655	0.298473	0.925711
H61	H	-0.547615	-0.429553	0.111882
H62	H	-0.047615	0.070447	0.611882
H63	H	-0.403886	-0.425457	0.112549
H64	H	0.096114	0.074543	0.612549
H65	H	-0.402857	-0.425106	-0.110602
H66	H	0.097143	0.074894	0.389398
Cl67	Cl	-0.594094	0.058706	0.171206
Cl68	Cl	-0.094094	0.558706	0.671206
Cl69	Cl	-0.557273	-0.464969	-0.172942
Cl70	Cl	-0.057273	0.035031	0.327058
H71	H	-0.575689	-0.003655	-0.161785
H72	H	-0.075689	0.496345	0.338215
H73	H	-0.433134	0.003258	0.155658
H74	H	0.066866	0.503258	0.655658
Cl75	Cl	-0.407169	-0.207858	-0.336171
Cl76	Cl	0.092831	0.292142	0.163829
Cl77	Cl	-0.424043	0.064653	-0.167146
Cl78	Cl	0.075957	0.564653	0.332854
H79	H	-0.563601	-0.182685	0.272081
H80	H	-0.063601	0.317315	0.772081
Cl81	Cl	-0.576348	-0.210054	-0.335259
Cl82	Cl	-0.076348	0.289946	0.164741
H83	H	-0.420102	-0.168212	0.272858
H84	H	0.079898	0.331788	0.772858
