data_functionalizedCrystal
_audit_creation_method	'MofGen! by Chris Wilmer'
_symmetry_space_group_name_H-M	'P1'
_symmetry_Int_Tables_number	1
_symmetry_cell_setting	triclinic
loop_
_symmetry_equiv_pos_as_xyz
  x,y,z
_cell_length_a	19.077105
_cell_length_b	16.625545
_cell_length_c	19.076919
_cell_angle_alpha	87.727985
_cell_angle_beta	90.076224
_cell_angle_gamma	92.279587
loop_
_atom_site_label
_atom_site_type_symbol
_atom_site_fract_x
_atom_site_fract_y
_atom_site_fract_z
Zn1	Zn	1.058273	0.390077	-0.440419
Zn2	Zn	1.558273	0.890077	0.059581
Zn3	Zn	1.062913	0.519720	-0.322913
Zn4	Zn	1.562913	1.019720	0.177087
Zn5	Zn	0.945491	0.379276	-0.318213
Zn6	Zn	1.445491	0.879276	0.181787
Zn7	Zn	0.940735	0.519234	-0.435665
Zn8	Zn	1.440735	1.019234	0.064335
O9	O	1.001853	0.452077	-0.379303
O10	O	1.501853	0.952077	0.120697
O11	O	1.157220	0.411998	-0.428788
O12	O	1.657220	0.911998	0.071212
O13	O	1.051269	0.496773	-0.223958
O14	O	1.551269	0.996773	0.276042
O15	O	0.960499	0.267879	-0.334446
O16	O	1.460499	0.767879	0.165554
O17	O	1.160630	0.507247	-0.342457
O18	O	1.660630	1.007247	0.157543
O19	O	1.043360	0.275815	-0.424231
O20	O	1.543360	0.775815	0.075769
O21	O	0.964999	0.393589	-0.220505
O22	O	1.464999	0.893589	0.279495
O23	O	0.846528	0.393117	-0.329836
O24	O	1.346528	0.893117	0.170164
O25	O	0.952395	0.506418	-0.534627
O26	O	1.452395	1.006418	-0.034627
O27	O	0.843034	0.495944	-0.416129
O28	O	1.343034	0.995944	0.083871
O29	O	1.038749	0.411527	-0.538120
O30	O	1.538749	0.911527	-0.038120
O31	O	1.046658	0.632485	-0.337847
O32	O	1.546658	1.132485	0.162153
O33	O	0.956894	0.632127	-0.420686
O34	O	1.456894	1.132127	0.079314
C35	C	0.819285	0.443307	-0.371957
C36	C	1.319285	0.943307	0.128043
C37	C	0.741180	0.439575	-0.368831
C38	C	1.241180	0.939575	0.131169
C39	C	0.702689	0.491433	-0.412220
C40	C	1.202689	0.991433	0.087780
C41	C	0.629302	0.487916	-0.409286
C42	C	1.129302	0.987916	0.090714
C43	C	0.594407	0.432544	-0.362960
C44	C	1.094407	0.932544	0.137040
C45	C	0.632904	0.380681	-0.319570
C46	C	1.132904	0.880681	0.180430
C47	C	0.706290	0.384195	-0.322507
C48	C	1.206290	0.884195	0.177493
C49	C	0.375120	0.416284	-0.349367
C50	C	0.875120	0.916284	0.150633
C51	C	0.301729	0.412776	-0.346431
C52	C	0.801729	0.912776	0.153569
C53	C	0.298132	0.520010	-0.436149
C54	C	0.798132	1.020010	0.063851
C55	C	0.371520	0.523522	-0.439080
C56	C	0.871520	1.023522	0.060920
C57	C	0.410010	0.471656	-0.395692
C58	C	0.910010	0.971656	0.104308
N59	N	0.519394	0.428950	-0.359959
N60	N	1.019394	0.928950	0.140041
N61	N	0.485022	0.475247	-0.398697
N62	N	0.985022	0.975247	0.101303
C63	C	1.001782	0.661563	-0.379277
C64	C	1.501782	1.161563	0.120723
C65	C	1.001816	0.751186	-0.379292
C66	C	1.501816	1.251186	0.120708
C67	C	1.001927	1.079371	-0.379381
C68	C	1.501927	1.579371	0.120619
C69	C	1.001894	0.988060	-0.379358
C70	C	1.501894	1.488060	0.120642
C71	C	1.001871	0.915282	-0.379336
C72	C	1.501871	1.415282	0.120664
C73	C	1.001838	0.823965	-0.379314
C74	C	1.501838	1.323965	0.120686
C75	C	1.185134	0.460882	-0.386677
C76	C	1.685134	0.960882	0.113323
C77	C	1.263238	0.464634	-0.389820
C78	C	1.763238	0.964634	0.110180
C79	C	0.994524	0.460123	-0.562583
C80	C	1.494524	0.960123	-0.062583
C81	C	0.991400	0.463552	-0.640686
C82	C	1.491400	0.963552	-0.140686
C83	C	1.001936	1.241774	-0.379352
C84	C	1.501936	1.741774	0.120648
C85	C	1.001955	1.152155	-0.379394
C86	C	1.501955	1.652155	0.120606
C87	C	1.034891	0.415760	-0.679198
C88	C	1.534891	0.915760	-0.179198
C89	C	1.031947	0.418979	-0.752584
C90	C	1.531947	0.918979	-0.252584
C91	C	0.985517	0.469993	-0.787456
C92	C	1.485517	0.969993	-0.287456
C93	C	0.942022	0.517786	-0.748938
C94	C	1.442022	1.017786	-0.248938
C95	C	0.944962	0.514563	-0.675554
C96	C	1.444962	1.014563	-0.175554
C97	C	0.971899	0.484926	-1.006737
C98	C	1.471899	0.984926	-0.506737
C99	C	0.968963	0.488147	-1.080127
C100	C	1.468963	0.988147	-0.580127
C101	C	1.058889	0.389338	-1.083768
C102	C	1.558889	0.889338	-0.583768
C103	C	1.061828	0.386123	-1.010382
C104	C	1.561828	0.886123	-0.510382
C105	C	1.018330	0.433913	-0.971870
C106	C	1.518330	0.933913	-0.471870
N107	N	0.982509	0.473286	-0.862468
N108	N	1.482509	0.973286	-0.362468
N109	N	1.021335	0.430616	-0.896859
N110	N	1.521335	0.930616	-0.396859
C111	C	1.009194	0.444005	-0.196737
C112	C	1.509194	0.944005	0.303263
C113	C	1.012454	0.440356	-0.118640
C114	C	1.512454	0.940356	0.381360
H115	H	0.273320	0.367677	-0.308711
H116	H	0.773320	0.867677	0.191289
H117	H	0.909540	0.553472	-0.644198
H118	H	1.409540	1.053472	-0.144198
O119	O	0.409151	0.583255	-0.489040
O120	O	0.909151	1.083255	0.010960
H121	H	0.466648	0.576995	-0.483784
H122	H	0.966648	1.076995	0.016216
H123	H	1.094301	0.350429	-1.115132
H124	H	1.594301	0.850429	-0.615132
H125	H	0.731095	0.536525	-0.449941
H126	H	1.231095	1.036525	0.050059
H127	H	0.597965	0.530145	-0.444617
H128	H	1.097965	1.030145	0.055383
H129	H	0.266786	0.562235	-0.471474
H130	H	0.766786	1.062235	0.028526
H131	H	0.931152	0.529692	-1.108518
H132	H	1.431152	1.029692	-0.608518
H133	H	0.406450	0.374056	-0.314032
H134	H	0.906450	0.874056	0.185968
O135	O	0.595274	0.320976	-0.269584
O136	O	1.095274	0.820976	0.230416
H137	H	0.537777	0.327257	-0.274817
H138	H	1.037777	0.827257	0.225183
O139	O	0.747811	0.328272	-0.275702
O140	O	1.247811	0.828272	0.224298
H141	H	0.711220	0.289186	-0.242988
H142	H	1.211220	0.789186	0.257012
O143	O	1.084970	0.360737	-0.641587
O144	O	1.584970	0.860737	-0.141587
H145	H	1.114712	0.328040	-0.680699
H146	H	1.614712	0.828040	-0.180699
H147	H	1.067364	0.380064	-0.783938
H148	H	1.567364	0.880064	-0.283938
O149	O	1.111909	0.331104	-0.972769
O150	O	1.611909	0.831104	-0.472769
H151	H	1.141656	0.298409	-1.011879
H152	H	1.641656	0.798409	-0.511879
O153	O	0.924950	0.536426	-0.965202
O154	O	1.424950	1.036426	-0.465202
H155	H	0.892163	0.572428	-1.001782
H156	H	1.392163	1.072428	-0.501782
H157	H	0.904214	0.559321	-0.777337
H158	H	1.404214	1.059321	-0.277337
