data_functionalizedCrystal
_audit_creation_method	'MofGen! by Chris Wilmer'
_symmetry_space_group_name_H-M	'P1'
_symmetry_Int_Tables_number	1
_symmetry_cell_setting	triclinic
loop_
_symmetry_equiv_pos_as_xyz
  x,y,z
_cell_length_a	21.295420
_cell_length_b	15.297327
_cell_length_c	15.296720
_cell_angle_alpha	107.319222
_cell_angle_beta	80.338574
_cell_angle_gamma	80.294767
loop_
_atom_site_label
_atom_site_type_symbol
_atom_site_fract_x
_atom_site_fract_y
_atom_site_fract_z
Zn1	Zn	0.835364	0.461263	0.589844
Zn2	Zn	0.835292	0.589885	0.461238
Zn3	Zn	0.752131	0.434387	0.434361
Zn4	Zn	0.708049	0.616721	0.616681
O5	O	0.782709	0.525564	0.525531
O6	O	0.923440	0.478341	0.572801
O7	O	0.842679	0.546779	0.327549
O8	O	0.781650	0.307816	0.432506
O9	O	0.923387	0.572839	0.478315
O10	O	0.842801	0.327562	0.546739
O11	O	0.781581	0.432535	0.307802
O12	O	0.658198	0.458558	0.458529
O13	O	0.706519	0.618578	0.743245
O14	O	0.625811	0.592518	0.592479
O15	O	0.800057	0.504364	0.723528
O16	O	0.799935	0.723580	0.504338
O17	O	0.706449	0.743297	0.618541
C18	C	0.619165	0.525534	0.525500
C19	C	0.549193	0.525548	0.525513
C20	C	0.032876	0.595416	0.595240
C21	C	0.098620	0.595415	0.595230
C22	C	0.148343	0.525590	0.525564
C23	C	0.132317	0.455775	0.455888
C24	C	0.066574	0.455784	0.455894
N25	N	0.264106	0.442952	0.504483
N26	N	0.326558	0.442947	0.504483
C27	C	0.346424	0.525560	0.525540
N28	N	0.301475	0.608184	0.546615
N29	N	0.239017	0.608189	0.546619
C30	C	0.219632	0.525573	0.525549
C31	C	0.433730	0.595373	0.595197
C32	C	0.499475	0.595372	0.595181
C33	C	0.533171	0.455725	0.455842
C34	C	0.467426	0.455733	0.455854
C35	C	0.417709	0.525557	0.525537
C36	C	0.748415	0.767185	0.567288
C37	C	0.733797	0.870557	0.585183
C38	C	0.817151	0.283003	0.483631
C39	C	0.831828	0.179638	0.465776
C40	C	0.946892	0.525595	0.525563
C41	C	1.016856	0.525608	0.525576
C42	C	0.748378	0.567462	0.768069
C43	C	0.733749	0.585317	0.871425
C44	C	0.887400	1.120786	0.397950
C45	C	0.901134	1.023662	0.381132
C46	C	0.859302	0.985381	0.432143
C47	C	0.803731	1.044234	0.499975
C48	C	0.789992	1.141366	0.516790
C49	C	0.761894	1.005961	0.550984
C50	C	0.706324	1.064813	0.618816
C51	C	0.692588	1.161936	0.635628
C52	C	0.734421	1.200217	0.584616
C53	C	0.775633	0.908829	0.534169
C54	C	0.678225	0.929408	0.653010
C55	C	0.664491	1.026532	0.669828
C56	C	0.816952	0.483761	0.283925
C57	C	0.831740	0.465645	0.180525
C58	C	0.887316	0.397792	1.121705
C59	C	0.901065	0.381018	1.024598
C60	C	0.859237	0.432091	0.986300
C61	C	0.803658	0.499941	1.045119
C62	C	0.789910	0.516722	1.142236
C63	C	0.761831	0.551021	1.006831
C64	C	0.706252	0.618871	1.065649
C65	C	0.692507	0.635648	1.162757
C66	C	0.734335	0.584575	1.201056
C67	C	0.775579	0.534240	0.909713
C68	C	0.678173	0.653170	0.930244
C69	C	0.664424	0.669944	1.027351
H70	H	0.111667	0.652262	0.651962
H71	H	0.870435	0.418430	0.907230
H72	H	0.644115	0.694760	0.899063
C73	C	0.961384	0.959704	0.307368
C74	C	0.942093	0.893720	0.238065
C75	C	0.997580	0.834794	0.170089
H76	H	0.989158	0.927824	0.336284
H77	H	0.984331	0.996375	0.279339
H78	H	0.919157	0.857053	0.266091
H79	H	0.914326	0.925574	0.209125
H80	H	1.020526	0.871466	0.142060
H81	H	1.025350	0.802921	0.199013
H82	H	0.984498	0.790023	0.123054
H83	H	0.172805	0.398924	0.399164
C84	C	0.049311	0.379875	0.380206
C85	C	0.106924	0.318711	0.319201
C86	C	0.091045	0.248764	0.249475
H87	H	0.024385	0.408265	0.345677
H88	H	0.024391	0.345514	0.408824
H89	H	0.131833	0.353068	0.290586
H90	H	0.131856	0.290298	0.353703
H91	H	0.066126	0.214402	0.278093
H92	H	0.066119	0.277162	0.214953
H93	H	0.130133	0.207251	0.208080
C94	C	0.961416	0.307281	0.960891
C95	C	0.995095	0.266126	1.015209
C96	C	1.050692	0.198182	0.956551
H97	H	0.989224	0.336212	0.929137
H98	H	0.948472	0.260164	0.916015
H99	H	1.008040	0.313235	1.060068
H100	H	0.967306	0.237176	1.046962
H101	H	1.037748	0.151066	0.911675
H102	H	1.078494	0.227121	0.924800
H103	H	1.073546	0.170244	0.993396
H104	H	-0.007601	0.652275	0.651978
H105	H	0.921369	0.356221	1.152899
C106	C	0.932911	1.162256	0.342604
C107	C	0.995669	1.142067	0.358797
C108	C	1.037610	1.180249	0.307814
H109	H	0.916849	1.228531	0.362286
H110	H	0.934861	1.135560	0.277347
H111	H	0.993717	1.168766	0.424040
H112	H	1.011751	1.075798	0.339111
H113	H	1.039560	1.153553	0.242556
H114	H	1.021542	1.246523	0.327500
H115	H	1.080197	1.166549	0.318787
H116	H	0.619245	1.074463	0.725057
H117	H	0.723242	1.279303	0.598308
C118	C	0.379841	0.671284	0.670902
C119	C	0.407945	0.732439	0.731895
C120	C	0.358325	0.802383	0.801641
H121	H	0.353473	0.642892	0.705437
H122	H	0.353490	0.705654	0.642301
H123	H	0.434285	0.698073	0.760494
H124	H	0.434308	0.760854	0.697387
H125	H	0.331974	0.836752	0.773040
H126	H	0.331960	0.773981	0.836169
H127	H	0.377387	0.843889	0.843028
H128	H	0.512515	0.652225	0.651908
C129	C	0.719279	0.602894	1.306509
C130	C	0.661648	0.673235	1.349825
C131	C	0.647756	0.690125	1.446966
H132	H	0.754447	0.622831	1.331386
H133	H	0.713766	0.546697	1.318145
H134	H	0.667164	0.729421	1.338196
H135	H	0.626467	0.653317	1.324976
H136	H	0.642244	0.633927	1.458602
H137	H	0.682928	0.710058	1.471833
H138	H	0.608650	0.737846	1.476367
H139	H	0.573655	0.398875	0.399115
H140	H	0.647255	0.690904	1.210647
C141	C	0.835898	0.460640	0.845708
C142	C	0.838996	0.456884	0.752465
C143	C	0.894558	0.389095	0.693479
H144	H	0.833361	0.400851	0.850718
H145	H	0.874027	0.477004	0.863928
H146	H	0.800876	0.440515	0.734251
H147	H	0.841543	0.516656	0.747426
H148	H	0.932688	0.405459	0.711699
H149	H	0.892017	0.329311	0.698497
H150	H	0.896671	0.386543	0.630209
C151	C	0.604136	0.743607	1.091379
C152	C	0.601062	0.747382	1.184623
C153	C	0.545539	0.815238	1.243633
H154	H	0.565977	0.727319	1.073230
H155	H	0.606723	0.803374	1.086318
H156	H	0.598469	0.687629	1.189680
H157	H	0.639207	0.763682	1.202801
H158	H	0.548126	0.875004	1.238571
H159	H	0.507385	0.798943	1.225475
H160	H	0.543449	0.817814	1.306905
H161	H	0.647333	1.209850	0.690851
C162	C	0.632900	0.887684	0.708337
C163	C	0.656836	0.790032	0.679114
C164	C	0.615107	0.751559	0.730063
H165	H	0.590269	0.901190	0.697477
H166	H	0.630999	0.914313	0.773588
H167	H	0.658730	0.763412	0.613879
H168	H	0.699461	0.776499	0.689977
H169	H	0.613206	0.778187	0.795314
H170	H	0.572478	0.765071	0.719199
H171	H	0.631345	0.685299	0.710249
C172	C	0.450162	0.379824	0.380172
C173	C	0.507776	0.318657	0.319171
C174	C	0.491899	0.248709	0.249444
H175	H	0.425239	0.408212	0.345639
H176	H	0.425241	0.345464	0.408789
H177	H	0.532687	0.353012	0.290556
H178	H	0.532707	0.290246	0.353676
H179	H	0.466978	0.214350	0.278062
H180	H	0.466975	0.277106	0.214919
H181	H	0.530987	0.207195	0.208052
C182	C	0.835933	0.845032	0.460400
C183	C	0.831957	0.852833	0.372484
C184	C	0.887502	0.794087	0.304505
H185	H	0.838186	0.781667	0.457560
H186	H	0.874058	0.863269	0.476760
H187	H	0.793843	0.834590	0.356128
H188	H	0.829713	0.916184	0.375294
H189	H	0.925627	0.812324	0.320864
H190	H	0.889750	0.730726	0.301673
H191	H	0.884815	0.799378	0.244848
H192	H	0.870487	0.906298	0.418445
