data_functionalizedCrystal
_audit_creation_method	'MofGen! by Chris Wilmer'
_symmetry_space_group_name_H-M	'P1'
_symmetry_Int_Tables_number	1
_symmetry_cell_setting	triclinic
loop_
_symmetry_equiv_pos_as_xyz
  x,y,z
_cell_length_a	27.732066
_cell_length_b	18.266242
_cell_length_c	19.188930
_cell_angle_alpha	89.988525
_cell_angle_beta	97.102558
_cell_angle_gamma	90.000403
loop_
_atom_site_label
_atom_site_type_symbol
_atom_site_fract_x
_atom_site_fract_y
_atom_site_fract_z
O1	O	-0.641179	-0.060741	0.083140
O2	O	-0.391179	0.189259	0.333140
O3	O	-0.141179	0.439259	0.583140
O4	O	0.108821	0.689259	0.833140
O5	O	-0.500425	-0.060776	0.095758
O6	O	-0.250425	0.189224	0.345758
O7	O	-0.000425	0.439224	0.595758
O8	O	0.249575	0.689224	0.845758
O9	O	-0.574864	-0.060744	-0.012232
O10	O	-0.324864	0.189256	0.237768
O11	O	-0.074864	0.439256	0.487768
O12	O	0.175136	0.689256	0.737768
O13	O	-0.566740	-0.060774	0.191130
O14	O	-0.316740	0.189226	0.441130
O15	O	-0.066740	0.439226	0.691130
O16	O	0.183260	0.689226	0.941130
O17	O	-0.574851	0.061018	-0.012238
O18	O	-0.324851	0.311018	0.237762
O19	O	-0.074851	0.561018	0.487762
O20	O	0.175149	0.811018	0.737762
O21	O	-0.500412	0.060986	0.095753
O22	O	-0.250412	0.310986	0.345753
O23	O	-0.000412	0.560986	0.595753
O24	O	0.249588	0.810986	0.845753
O25	O	-0.641166	0.061021	0.083134
O26	O	-0.391166	0.311021	0.333134
O27	O	-0.141166	0.561021	0.583134
O28	O	0.108834	0.811021	0.833134
Zn29	Zn	-0.570787	0.080336	0.089443
Zn30	Zn	-0.320787	0.330336	0.339443
Zn31	Zn	-0.070787	0.580336	0.589443
Zn32	Zn	0.179213	0.830336	0.839443
Zn33	Zn	-0.570804	-0.080091	0.089450
Zn34	Zn	-0.320804	0.169909	0.339450
Zn35	Zn	-0.070804	0.419909	0.589450
Zn36	Zn	0.179196	0.669909	0.839450
O37	O	-0.566727	0.060988	0.191125
O38	O	-0.316727	0.310988	0.441125
O39	O	-0.066727	0.560988	0.691125
O40	O	0.183273	0.810988	0.941125
C41	C	-0.482411	0.000100	0.095489
C42	C	-0.232411	0.250100	0.345489
C43	C	0.017589	0.500100	0.595489
C44	C	0.267589	0.750100	0.845489
C45	C	-0.428754	0.000088	0.094685
C46	C	-0.178754	0.250088	0.344685
C47	C	0.071246	0.500088	0.594685
C48	C	0.321246	0.750088	0.844685
C49	C	-0.051470	0.000130	0.025398
C50	C	0.198530	0.250130	0.275398
C51	C	0.448530	0.500130	0.525398
C52	C	0.698530	0.750130	0.775398
C53	C	-0.253139	0.000116	0.028355
C54	C	-0.003139	0.250116	0.278355
C55	C	0.246861	0.500116	0.528355
C56	C	0.496861	0.750116	0.778355
O57	O	-0.284227	0.000152	-0.025407
O58	O	-0.034227	0.250152	0.224593
O59	O	0.215773	0.500152	0.474593
O60	O	0.465773	0.750152	0.724593
N61	N	-0.272462	0.000103	0.092392
N62	N	-0.022462	0.250103	0.342392
N63	N	0.227538	0.500103	0.592392
N64	N	0.477538	0.750103	0.842392
C65	C	-0.241365	0.000099	0.155694
C66	C	0.008635	0.250099	0.405694
C67	C	0.258635	0.500099	0.655694
C68	C	0.508635	0.750099	0.905694
O69	O	-0.262428	0.000096	0.210230
O70	O	-0.012428	0.250096	0.460230
O71	O	0.237572	0.500096	0.710230
O72	O	0.487572	0.750096	0.960230
C73	C	-0.039697	0.000119	0.152736
C74	C	0.210303	0.250119	0.402736
C75	C	0.460303	0.500119	0.652736
C76	C	0.710303	0.750119	0.902736
C77	C	-0.020376	0.000124	0.088695
C78	C	0.229624	0.250124	0.338695
C79	C	0.479624	0.500124	0.588695
C80	C	0.729624	0.750124	0.838695
C81	C	-0.032149	0.000135	-0.038638
C82	C	0.217851	0.250135	0.211362
C83	C	0.467851	0.500135	0.461362
C84	C	0.717851	0.750135	0.711362
C85	C	0.018265	0.000135	-0.039377
C86	C	0.268265	0.250135	0.210623
C87	C	0.518265	0.500135	0.460623
C88	C	0.768265	0.750135	0.710623
C89	C	0.049359	0.000129	0.023921
C90	C	0.299359	0.250129	0.273921
C91	C	0.549359	0.500129	0.523921
C92	C	0.799359	0.750129	0.773921
C93	C	0.030038	0.000123	0.087957
C94	C	0.280038	0.250123	0.337957
C95	C	0.530038	0.500123	0.587957
C96	C	0.780038	0.750123	0.837957
C97	C	-0.008600	0.000120	0.216038
C98	C	0.241400	0.250120	0.466038
C99	C	0.491400	0.500120	0.716038
C100	C	0.741400	0.750120	0.966038
C101	C	0.041820	0.000127	0.215292
C102	C	0.291820	0.250127	0.465292
C103	C	0.541820	0.500127	0.715292
C104	C	0.791820	0.750127	0.965292
C105	C	0.061140	0.000131	0.151251
C106	C	0.311140	0.250131	0.401251
C107	C	0.561140	0.500131	0.651251
C108	C	0.811140	0.750131	0.901251
C109	C	0.111546	0.000116	0.150515
C110	C	0.361546	0.250116	0.400515
C111	C	0.611546	0.500116	0.650515
C112	C	0.861546	0.750116	0.900515
N113	N	0.130869	0.000129	0.086478
N114	N	0.380869	0.250129	0.336478
N115	N	0.630869	0.500129	0.586478
N116	N	0.880869	0.750129	0.836478
C117	C	0.099775	0.000135	0.023181
C118	C	0.349775	0.250135	0.273181
C119	C	0.599775	0.500135	0.523181
C120	C	0.849775	0.750135	0.773181
C121	C	-0.347244	0.000088	0.157243
C122	C	-0.097244	0.250088	0.407243
C123	C	0.152756	0.500088	0.657243
C124	C	0.402756	0.750088	0.907243
C125	C	-0.397661	0.000082	0.157983
C126	C	-0.147661	0.250082	0.407983
C127	C	0.102339	0.500082	0.657983
C128	C	0.352339	0.750082	0.907983
C129	C	-0.409432	0.000099	0.030643
C130	C	-0.159432	0.250099	0.280643
C131	C	0.090568	0.500099	0.530643
C132	C	0.340568	0.750099	0.780643
C133	C	-0.359014	0.000100	0.029904
C134	C	-0.109014	0.250100	0.279904
C135	C	0.140986	0.500100	0.529904
C136	C	0.390986	0.750100	0.779904
C137	C	-0.327921	0.000100	0.093206
C138	C	-0.077921	0.250100	0.343206
C139	C	0.172079	0.500100	0.593206
C140	C	0.422079	0.750100	0.843206
C141	C	0.205650	0.000133	0.021635
C142	C	0.455650	0.250133	0.271635
C143	C	0.705650	0.500133	0.521635
C144	C	0.955650	0.750133	0.771635
C145	C	0.256069	0.000130	0.020902
C146	C	0.506069	0.250130	0.270902
C147	C	0.756069	0.500130	0.520902
C148	C	1.006069	0.750130	0.770902
C149	C	0.267835	0.000116	0.148240
C150	C	0.517835	0.250116	0.398240
C151	C	0.767835	0.500116	0.648240
C152	C	1.017835	0.750116	0.898240
C153	C	0.217420	0.000116	0.148974
C154	C	0.467420	0.250116	0.398974
C155	C	0.717420	0.500116	0.648974
C156	C	0.967420	0.750116	0.898974
C157	C	0.186328	0.000127	0.085665
C158	C	0.436328	0.250127	0.335665
C159	C	0.686328	0.500127	0.585665
C160	C	0.936328	0.750127	0.835665
O161	O	0.142662	0.000088	0.204248
O162	O	0.392662	0.250088	0.454248
O163	O	0.642662	0.500088	0.704248
O164	O	0.892662	0.750088	0.954248
O165	O	0.120848	0.000154	-0.031346
O166	O	0.370848	0.250154	0.218654
O167	O	0.620848	0.500154	0.468654
O168	O	0.870848	0.750154	0.718654
C169	C	-0.101884	0.000130	0.026137
C170	C	0.148116	0.250130	0.276137
C171	C	0.398116	0.500130	0.526137
C172	C	0.648116	0.750130	0.776137
C173	C	-0.121205	0.000124	0.090173
C174	C	0.128795	0.250124	0.340173
C175	C	0.378795	0.500124	0.590173
C176	C	0.628795	0.750124	0.840173
C177	C	-0.090112	0.000118	0.153470
C178	C	0.159888	0.250118	0.403470
C179	C	0.409888	0.500118	0.653470
C180	C	0.659888	0.750118	0.903470
C181	C	-0.171622	0.000118	0.090912
C182	C	0.078378	0.250118	0.340912
C183	C	0.328378	0.500118	0.590912
C184	C	0.578378	0.750118	0.840912
C185	C	-0.202715	0.000124	0.027615
C186	C	0.047285	0.250124	0.277615
C187	C	0.297285	0.500124	0.527615
C188	C	0.547285	0.750124	0.777615
C189	C	-0.183392	0.000137	-0.036422
C190	C	0.066608	0.250137	0.213578
C191	C	0.316608	0.500137	0.463578
C192	C	0.566608	0.750137	0.713578
C193	C	-0.132978	0.000136	-0.037161
C194	C	0.117022	0.250136	0.212839
C195	C	0.367022	0.500136	0.462839
C196	C	0.617022	0.750136	0.712839
C197	C	-0.109435	0.000106	0.217507
C198	C	0.140565	0.250106	0.467507
C199	C	0.390565	0.500106	0.717507
C200	C	0.640565	0.750106	0.967507
C201	C	-0.159850	0.000106	0.218240
C202	C	0.090150	0.250106	0.468240
C203	C	0.340150	0.500106	0.718240
C204	C	0.590150	0.750106	0.968240
C205	C	-0.190943	0.000112	0.154943
C206	C	0.059057	0.250112	0.404943
C207	C	0.309057	0.500112	0.654943
C208	C	0.559057	0.750112	0.904943
N209	N	-0.570779	0.189822	0.089437
N210	N	-0.320779	0.439822	0.339437
N211	N	-0.070779	0.689822	0.589437
N212	N	0.179221	0.939822	0.839437
C213	C	-0.574594	0.000140	-0.038244
C214	C	-0.324594	0.250140	0.211756
C215	C	-0.074594	0.500140	0.461756
C216	C	0.175406	0.750140	0.711756
C217	C	-0.573805	0.000146	-0.115744
C218	C	-0.323805	0.250146	0.134256
C219	C	-0.073805	0.500146	0.384256
C220	C	0.176195	0.750146	0.634256
C221	C	0.340820	0.000136	0.083402
C222	C	0.590820	0.250136	0.333402
C223	C	0.840820	0.500136	0.583402
C224	C	1.090820	0.750136	0.833402
C225	C	0.287162	0.000124	0.084199
C226	C	0.537162	0.250124	0.334199
C227	C	0.787162	0.500124	0.584199
C228	C	1.037162	0.750124	0.834199
N229	N	-0.570815	-0.189578	0.089450
N230	N	-0.320815	0.060422	0.339450
N231	N	-0.070815	0.310422	0.589450
N232	N	0.179185	0.560422	0.839450
C233	C	-0.603752	0.228146	0.041642
C234	C	-0.353752	0.478146	0.291642
C235	C	-0.103752	0.728146	0.541642
C236	C	0.146248	0.978146	0.791642
C237	C	-0.603755	0.304791	0.041639
C238	C	-0.353755	0.554791	0.291639
C239	C	-0.103755	0.804791	0.541639
C240	C	0.146245	1.054791	0.791639
C241	C	-0.570790	0.343109	0.089443
C242	C	-0.320790	0.593109	0.339443
C243	C	-0.070790	0.843109	0.589443
C244	C	0.179210	1.093109	0.839443
C245	C	-0.537812	0.304777	0.137242
C246	C	-0.287812	0.554777	0.387242
C247	C	-0.037812	0.804777	0.637242
C248	C	0.212188	1.054777	0.887242
C249	C	-0.537806	0.228133	0.137239
C250	C	-0.287806	0.478133	0.387239
C251	C	-0.037806	0.728133	0.637239
C252	C	0.212194	0.978133	0.887239
N253	N	-0.564507	0.463431	0.151290
N254	N	-0.314507	0.713431	0.401290
N255	N	-0.064507	0.963431	0.651290
N256	N	0.185493	1.213431	0.901290
N257	N	-0.564515	0.536240	0.151290
N258	N	-0.314515	0.786240	0.401290
N259	N	-0.064515	1.036240	0.651290
N260	N	0.185485	1.286240	0.901290
C261	C	-0.570804	0.574032	0.089453
C262	C	-0.320804	0.824032	0.339453
C263	C	-0.070804	1.074032	0.589453
C264	C	0.179196	1.324032	0.839453
N265	N	-0.577094	0.536265	0.027613
N266	N	-0.327094	0.786265	0.277613
N267	N	-0.077094	1.036265	0.527613
N268	N	0.172906	1.286265	0.777613
N269	N	-0.577088	0.463451	0.027613
N270	N	-0.327088	0.713451	0.277613
N271	N	-0.077088	0.963451	0.527613
N272	N	0.172912	1.213451	0.777613
C273	C	-0.570792	0.426216	0.089451
C274	C	-0.320792	0.676216	0.339451
C275	C	-0.070792	0.926216	0.589451
C276	C	0.179208	1.176216	0.839451
C277	C	-0.603781	0.695462	0.041650
C278	C	-0.353781	0.945462	0.291650
C279	C	-0.103781	1.195462	0.541650
C280	C	0.146219	1.445462	0.791650
C281	C	-0.603781	0.772109	0.041646
C282	C	-0.353781	1.022109	0.291646
C283	C	-0.103781	1.272109	0.541646
C284	C	0.146219	1.522109	0.791646
C285	C	-0.537840	0.772093	0.137255
C286	C	-0.287840	1.022093	0.387255
C287	C	-0.037840	1.272093	0.637255
C288	C	0.212160	1.522093	0.887255
C289	C	-0.537838	0.695448	0.137253
C290	C	-0.287838	0.945448	0.387253
C291	C	-0.037838	1.195448	0.637253
C292	C	0.212162	1.445448	0.887253
C293	C	-0.570811	0.657137	0.089451
C294	C	-0.320811	0.907137	0.339451
C295	C	-0.070811	1.157137	0.589451
C296	C	0.179189	1.407137	0.839451
C297	C	-0.617483	0.000160	-0.160942
C298	C	-0.367483	0.250160	0.089058
C299	C	-0.117483	0.500160	0.339058
C300	C	0.132517	0.750160	0.589058
C301	C	-0.616741	0.000148	-0.233761
C302	C	-0.366741	0.250148	0.016239
C303	C	-0.116741	0.500148	0.266239
C304	C	0.133259	0.750148	0.516239
C305	C	-0.572318	0.000137	-0.261379
C306	C	-0.322318	0.250137	-0.011379
C307	C	-0.072318	0.500137	0.238621
C308	C	0.177682	0.750137	0.488621
C309	C	-0.528634	0.000118	-0.216170
C310	C	-0.278634	0.250118	0.033830
C311	C	-0.028634	0.500118	0.283830
C312	C	0.221366	0.750118	0.533830
C313	C	-0.529377	0.000123	-0.143353
C314	C	-0.279377	0.250123	0.106647
C315	C	-0.029377	0.500123	0.356647
C316	C	0.220623	0.750123	0.606647
N317	N	-0.538358	0.041566	-0.369172
N318	N	-0.288358	0.291566	-0.119172
N319	N	-0.038358	0.541566	0.130828
N320	N	0.211642	0.791566	0.380828
N321	N	-0.537655	0.041563	-0.438346
N322	N	-0.287655	0.291563	-0.188346
N323	N	-0.037655	0.541563	0.061654
N324	N	0.212345	0.791563	0.311654
C325	C	-0.570076	0.000121	-0.480773
C326	C	-0.320076	0.250121	-0.230773
C327	C	-0.070076	0.500121	0.019227
C328	C	0.179924	0.750121	0.269227
N329	N	-0.603235	-0.041309	-0.451414
N330	N	-0.353235	0.208691	-0.201414
N331	N	-0.103235	0.458691	0.048586
N332	N	0.146765	0.708691	0.298586
N333	N	-0.603939	-0.041303	-0.382234
N334	N	-0.353939	0.208697	-0.132234
N335	N	-0.103939	0.458697	0.117766
N336	N	0.146061	0.708697	0.367766
C337	C	-0.571507	0.000131	-0.340336
C338	C	-0.321507	0.250131	-0.090336
C339	C	-0.071507	0.500131	0.159664
C340	C	0.178493	0.750131	0.409664
C341	C	-0.612953	0.000122	-0.604931
C342	C	-0.362953	0.250122	-0.354931
C343	C	-0.112953	0.500122	-0.104931
C344	C	0.137047	0.750122	0.145069
C345	C	-0.612209	0.000105	-0.677751
C346	C	-0.362209	0.250105	-0.427751
C347	C	-0.112209	0.500105	-0.177751
C348	C	0.137791	0.750105	0.072249
C349	C	-0.524102	0.000082	-0.660159
C350	C	-0.274102	0.250082	-0.410159
C351	C	-0.024102	0.500082	-0.160159
C352	C	0.225898	0.750082	0.089841
C353	C	-0.524847	0.000091	-0.587340
C354	C	-0.274847	0.250091	-0.337340
C355	C	-0.024847	0.500091	-0.087340
C356	C	0.225153	0.750091	0.162660
C357	C	-0.569274	0.000115	-0.559731
C358	C	-0.319274	0.250115	-0.309731
C359	C	-0.069274	0.500115	-0.059731
C360	C	0.180726	0.750115	0.190269
C361	C	-0.566997	0.000103	0.217137
C362	C	-0.316997	0.250103	0.467137
C363	C	-0.066997	0.500103	0.717137
C364	C	0.183003	0.750103	0.967137
C365	C	-0.567786	0.000092	0.294636
C366	C	-0.317786	0.250092	0.544636
C367	C	-0.067786	0.500092	0.794636
C368	C	0.182214	0.750092	1.044636
H369	H	-0.057461	0.000143	-0.090185
H370	H	0.192539	0.250143	0.159815
H371	H	0.442539	0.500143	0.409815
H372	H	0.692539	0.750143	0.659815
H373	H	-0.343287	0.000105	-0.022244
H374	H	-0.093287	0.250105	0.227756
H375	H	0.156713	0.500105	0.477756
H376	H	0.406713	0.750105	0.727756
H377	H	-0.492465	0.000107	-0.238661
H378	H	-0.242465	0.250107	0.011339
H379	H	0.007535	0.500107	0.261339
H380	H	0.257535	0.750107	0.511339
H381	H	-0.630599	0.196955	0.002718
H382	H	-0.380599	0.446955	0.252718
H383	H	-0.130599	0.696955	0.502718
H384	H	0.119401	0.946955	0.752718
H385	H	-0.652310	0.000157	-0.270569
H386	H	-0.402310	0.250157	-0.020569
H387	H	-0.152310	0.500157	0.229431
H388	H	0.097690	0.750157	0.479431
H389	H	-0.487932	0.000069	-0.682644
H390	H	-0.237932	0.250069	-0.432644
H391	H	0.012068	0.500069	-0.182644
H392	H	0.262068	0.750069	0.067356
F393	F	-0.482887	0.000107	-0.095247
F394	F	-0.232887	0.250107	0.154753
F395	F	0.017113	0.500107	0.404753
F396	F	0.267113	0.750107	0.654753
F397	F	-0.664766	0.000169	-0.131563
F398	F	-0.414766	0.250169	0.118437
F399	F	-0.164766	0.500169	0.368437
F400	F	0.085234	0.750169	0.618437
H401	H	-0.647779	0.000113	-0.714552
H402	H	-0.397779	0.250113	-0.464552
H403	H	-0.147779	0.500113	-0.214552
H404	H	0.102221	0.750113	0.035448
H405	H	-0.510956	0.196930	0.176160
H406	H	-0.260956	0.446930	0.426160
H407	H	-0.010956	0.696930	0.676160
H408	H	0.239044	0.946930	0.926160
H409	H	-0.649128	0.000137	-0.582451
H410	H	-0.399128	0.250137	-0.332451
H411	H	-0.149128	0.500137	-0.082451
H412	H	0.100872	0.750137	0.167549
F413	F	0.276628	0.000130	-0.047263
F414	F	0.526628	0.250130	0.202737
F415	F	0.776628	0.500130	0.452737
F416	F	1.026628	0.750130	0.702737
H417	H	-0.510971	0.335980	0.176163
H418	H	-0.260971	0.585980	0.426163
H419	H	-0.010971	0.835980	0.676163
H420	H	0.239029	1.085980	0.926163
F421	F	-0.418217	0.000062	0.226144
F422	F	-0.168217	0.250062	0.476144
F423	F	0.081783	0.500062	0.726144
F424	F	0.331783	0.750062	0.976144
H425	H	-0.510991	0.664243	0.176175
H426	H	-0.260991	0.914243	0.426175
H427	H	-0.010991	1.164243	0.676175
H428	H	0.239009	1.414243	0.926175
F429	F	-0.638872	0.654688	-0.009227
F430	F	-0.388872	0.904688	0.240773
F431	F	-0.138872	1.154688	0.490773
F432	F	0.111128	1.404688	0.740773
H433	H	-0.489279	0.000084	-0.550538
H434	H	-0.239279	0.250084	-0.300538
H435	H	0.010721	0.500084	-0.050538
H436	H	0.260721	0.750084	0.199462
F437	F	0.300936	0.000105	0.215602
F438	F	0.550936	0.250105	0.465602
F439	F	0.800936	0.500105	0.715602
F440	F	1.050936	0.750105	0.965602
H441	H	-0.630629	0.803312	0.002722
H442	H	-0.380629	1.053312	0.252722
H443	H	-0.130629	1.303312	0.502722
H444	H	0.119371	1.553312	0.752722
F445	F	-0.180405	0.000095	0.286406
F446	F	0.069595	0.250095	0.536406
F447	F	0.319595	0.500095	0.786406
F448	F	0.569595	0.750095	1.036406
F449	F	-0.216493	0.000140	-0.103788
F450	F	0.033507	0.250140	0.146212
F451	F	0.283507	0.500140	0.396212
F452	F	0.533507	0.750140	0.646212
H453	H	-0.510998	0.803291	0.176175
H454	H	-0.260998	1.053291	0.426175
H455	H	-0.010998	1.303291	0.676175
H456	H	0.239002	1.553291	0.926175
F457	F	0.172566	0.000145	-0.045746
F458	F	0.422566	0.250145	0.204254
F459	F	0.672566	0.500145	0.454254
F460	F	0.922566	0.750145	0.704254
H461	H	0.033991	0.000142	-0.091525
H462	H	0.283991	0.250142	0.158475
H463	H	0.533991	0.500142	0.408475
H464	H	0.783991	0.750142	0.658475
H465	H	-0.321932	0.000087	0.208794
H466	H	-0.071932	0.250087	0.458794
H467	H	0.178068	0.500087	0.708794
H468	H	0.428068	0.750087	0.958794
F469	F	-0.029151	0.000114	0.284200
F470	F	0.220849	0.250114	0.534200
F471	F	0.470849	0.500114	0.784200
F472	F	0.720849	0.750114	1.034200
F473	F	0.074909	0.000130	0.282669
F474	F	0.324909	0.250130	0.532669
F475	F	0.574909	0.500130	0.782669
F476	F	0.824909	0.750130	1.032669
F477	F	0.196858	0.000101	0.217133
F478	F	0.446858	0.250101	0.467133
F479	F	0.696858	0.500101	0.717133
F480	F	0.946858	0.750101	0.967133
F481	F	-0.112423	0.000139	-0.105322
F482	F	0.137577	0.250139	0.144678
F483	F	0.387577	0.500139	0.394678
F484	F	0.637577	0.750139	0.644678
F485	F	-0.076349	0.000097	0.284880
F486	F	0.173651	0.250097	0.534880
F487	F	0.423651	0.500097	0.784880
F488	F	0.673651	0.750097	1.034880
F489	F	-0.442532	0.000104	-0.036723
F490	F	-0.192532	0.250104	0.213277
F491	F	0.057468	0.500104	0.463277
F492	F	0.307468	0.750104	0.713277
F493	F	-0.638850	0.345584	-0.009233
F494	F	-0.388850	0.595584	0.240767
F495	F	-0.138850	0.845584	0.490767
F496	F	0.111150	1.095584	0.740767
