data_functionalizedCrystal
_audit_creation_method	'MofGen! by Chris Wilmer'
_symmetry_space_group_name_H-M	'P1'
_symmetry_Int_Tables_number	1
_symmetry_cell_setting	triclinic
loop_
_symmetry_equiv_pos_as_xyz
  x,y,z
_cell_length_a	16.992701
_cell_length_b	19.288865
_cell_length_c	18.366186
_cell_angle_alpha	90.011479
_cell_angle_beta	89.990974
_cell_angle_gamma	93.098291
loop_
_atom_site_label
_atom_site_type_symbol
_atom_site_fract_x
_atom_site_fract_y
_atom_site_fract_z
O1	O	1.039876	-0.147245	-0.060569
O2	O	1.539876	0.352755	0.439431
O3	O	0.811597	-0.145631	-0.060569
O4	O	1.311597	0.354369	0.439431
O5	O	0.932333	-0.045692	-0.060555
O6	O	1.432333	0.454308	0.439445
O7	O	0.919140	-0.247184	-0.060584
O8	O	1.419140	0.252816	0.439416
O9	O	0.932312	-0.045685	0.060545
O10	O	1.432312	0.454315	0.560545
O11	O	0.811576	-0.145625	0.060530
O12	O	1.311576	0.354375	0.560530
O13	O	1.039856	-0.147238	0.060530
O14	O	1.539856	0.352762	0.560530
Zn15	Zn	0.925713	-0.146430	0.079757
Zn16	Zn	1.425713	0.353570	0.579757
Zn17	Zn	0.925740	-0.146439	-0.079796
Zn18	Zn	1.425740	0.353561	0.420204
O19	O	0.919120	-0.247177	0.060516
O20	O	1.419120	0.252823	0.560516
C21	C	0.782381	-0.143550	-0.000019
C22	C	1.282381	0.356450	0.499981
C23	C	0.695359	-0.137350	-0.000019
C24	C	1.195359	0.362650	0.499981
C25	C	0.206547	-0.095691	-0.000016
C26	C	0.706547	0.404309	0.499984
C27	C	0.288312	-0.101522	-0.000012
C28	C	0.788312	0.398478	0.499988
C29	C	0.319624	-0.167182	-0.000025
C30	C	0.819624	0.332818	0.499975
C31	C	0.269164	-0.227014	-0.000034
C32	C	0.769164	0.272986	0.499966
C33	C	0.187400	-0.221183	-0.000032
C34	C	0.687400	0.278817	0.499968
C35	C	0.563135	-0.191351	-0.000026
C36	C	1.063135	0.308649	0.499974
C37	C	0.644906	-0.197178	-0.000030
C38	C	1.144906	0.302822	0.499970
C39	C	0.664049	-0.071685	-0.000007
C40	C	1.164049	0.428315	0.499993
C41	C	0.582282	-0.065860	-0.000010
C42	C	1.082282	0.434140	0.499990
C43	C	0.531830	-0.125692	-0.000015
C44	C	1.031830	0.374308	0.499985
N45	N	0.403201	-0.173144	-0.000023
N46	N	0.903201	0.326856	0.499977
N47	N	0.448254	-0.119730	-0.000011
N48	N	0.948254	0.380270	0.499989
C49	C	0.931898	-0.019788	-0.000003
C50	C	1.431898	0.480212	0.499997
C51	C	0.930624	0.057390	0.000004
C52	C	1.430624	0.557390	0.500004
C53	C	1.069071	-0.149319	-0.000021
C54	C	1.569071	0.350681	0.499979
C55	C	1.156094	-0.155519	-0.000027
C56	C	1.656094	0.344481	0.499973
C57	C	0.919555	-0.273082	-0.000038
C58	C	1.419555	0.226918	0.499962
C59	C	0.920829	-0.350260	-0.000049
C60	C	1.420829	0.149740	0.499951
N61	N	0.925700	-0.146425	0.188648
N62	N	1.425700	0.353575	0.688648
C63	C	1.001466	0.097958	0.000007
C64	C	1.501466	0.597958	0.500007
C65	C	1.000269	0.170475	-0.000004
C66	C	1.500269	0.670475	0.499996
C67	C	0.928226	0.202421	-0.000005
C68	C	1.428226	0.702421	0.499995
C69	C	0.857374	0.161844	-0.000013
C70	C	1.357374	0.661844	0.499987
C71	C	0.858573	0.089328	-0.000008
C72	C	1.358573	0.589328	0.499992
C73	C	0.871584	0.314011	0.042414
C74	C	1.371584	0.814011	0.542414
C75	C	0.870388	0.386525	0.042414
C76	C	1.370388	0.886525	0.542414
C77	C	0.924524	0.426082	-0.000021
C78	C	1.424524	0.926082	0.499979
C79	C	0.979870	0.393117	-0.042447
C80	C	1.479870	0.893117	0.457553
C81	C	0.981069	0.320602	-0.042443
C82	C	1.481069	0.820602	0.457557
C83	C	0.926917	0.281051	-0.000010
C84	C	1.426917	0.781051	0.499990
C85	C	0.994073	0.545282	-0.000031
C86	C	1.494073	1.045282	0.499969
C87	C	0.992873	0.617800	-0.000047
C88	C	1.492873	1.117800	0.499953
C89	C	0.849976	0.609166	-0.000048
C90	C	1.349976	1.109166	0.499952
C91	C	0.851178	0.536650	-0.000039
C92	C	1.351178	1.036650	0.499961
C93	C	0.923229	0.504712	-0.000027
C94	C	1.423229	1.004712	0.499973
N95	N	0.925759	-0.146440	-0.188687
N96	N	1.425759	0.353560	0.311313
C97	C	0.979180	-0.102196	0.226755
C98	C	1.479180	0.397804	0.726755
C99	C	0.979185	-0.102193	0.302983
C100	C	1.479185	0.397807	0.802983
C101	C	0.925718	-0.146431	0.341101
C102	C	1.425718	0.353569	0.841101
C103	C	0.872228	-0.190663	0.302985
C104	C	1.372228	0.309337	0.802985
C105	C	0.872220	-0.190660	0.226759
C106	C	1.372220	0.309340	0.726759
C107	C	0.915223	-0.209108	0.461853
C108	C	1.415223	0.290892	0.961853
C109	C	0.915237	-0.209112	0.538077
C110	C	1.415237	0.290888	1.038077
C111	C	0.925740	-0.146441	0.576209
C112	C	1.425740	0.353559	1.076209
C113	C	0.936245	-0.083764	0.538106
C114	C	1.436245	0.416236	1.038106
C115	C	0.936236	-0.083761	0.461879
C116	C	1.436236	0.416239	0.961879
C117	C	0.925721	-0.146440	0.423756
C118	C	1.425721	0.353560	0.923756
C119	C	0.979228	-0.102206	0.696970
C120	C	1.479228	0.397794	1.196970
C121	C	0.979227	-0.102202	0.773200
C122	C	1.479227	0.397798	1.273200
C123	C	0.872275	-0.190678	0.773200
C124	C	1.372275	0.309322	1.273200
C125	C	0.872271	-0.190676	0.696973
C126	C	1.372271	0.309324	1.196973
C127	C	0.925752	-0.146441	0.658862
C128	C	1.425752	0.353559	1.158862
H129	H	0.670396	-0.250648	-0.000030
H130	H	1.170396	0.249352	0.499970
H131	H	0.828738	-0.226695	0.804236
H132	H	1.328738	0.273305	1.304236
H133	H	0.146321	-0.269901	-0.000038
H134	H	0.646321	0.230099	0.499962
H135	H	1.052741	0.519277	-0.000025
H136	H	1.552741	1.019277	0.499975
H137	H	0.828669	-0.226677	0.195732
H138	H	1.328669	0.273323	0.695732
H139	H	1.026132	0.293765	-0.076989
H140	H	1.526132	0.793765	0.423011
H141	H	0.329389	-0.052804	0.000000
H142	H	0.829389	0.447196	0.500000
H143	H	0.522067	-0.240071	-0.000034
H144	H	1.022067	0.259929	0.499966
H145	H	0.181060	-0.042225	-0.000010
H146	H	0.681060	0.457775	0.499990
H147	H	0.791316	0.635176	-0.000052
H148	H	1.291316	1.135176	0.499948
H149	H	0.294664	-0.280476	-0.000039
H150	H	0.794664	0.219524	0.499961
H151	H	1.060136	0.071959	0.000014
H152	H	1.560136	0.571959	0.500014
H153	H	1.050564	0.650830	-0.000048
H154	H	1.550564	1.150830	0.499952
H155	H	0.556795	-0.012393	0.000001
H156	H	1.056795	0.487607	0.500001
H157	H	1.023953	0.425323	-0.077002
H158	H	1.523953	0.925323	0.422998
H159	H	0.793490	0.503619	-0.000038
H160	H	1.293490	1.003619	0.499962
H161	H	0.825318	0.413359	0.076955
H162	H	1.325318	0.913359	0.576955
H163	H	1.057959	0.203512	-0.000004
H164	H	1.557959	0.703512	0.499996
H165	H	1.022725	-0.066175	0.195728
H166	H	1.522725	0.433825	0.695728
H167	H	0.827497	0.281809	0.076973
H168	H	1.327497	0.781809	0.576973
H169	H	0.798715	0.187858	-0.000015
H170	H	1.298715	0.687858	0.499985
H171	H	0.828726	-0.226694	0.665944
H172	H	1.328726	0.273306	1.165944
H173	H	0.906689	-0.260148	0.569095
H174	H	1.406689	0.239852	1.069095
H175	H	0.800883	0.056297	-0.000011
H176	H	1.300883	0.556297	0.499989
H177	H	1.022773	-0.066184	0.665940
H178	H	1.522773	0.433816	1.165940
H179	H	1.022735	-0.066175	0.334015
H180	H	1.522735	0.433825	0.834015
H181	H	0.944787	-0.032727	0.430859
H182	H	1.444787	0.467273	0.930859
H183	H	0.944797	-0.032731	0.569150
H184	H	1.444797	0.467269	1.069150
H185	H	1.022774	-0.066181	0.804227
H186	H	1.522774	0.433819	1.304227
H187	H	0.906657	-0.260144	0.430812
H188	H	1.406657	0.239856	0.930812
H189	H	0.828693	-0.226682	0.334025
H190	H	1.328693	0.273318	0.834025
H191	H	0.705135	-0.022973	-0.000002
H192	H	1.205135	0.477027	0.499998
