data_functionalizedCrystal
_audit_creation_method	'MofGen! by Chris Wilmer'
_symmetry_space_group_name_H-M	'P1'
_symmetry_Int_Tables_number	1
_symmetry_cell_setting	triclinic
loop_
_symmetry_equiv_pos_as_xyz
  x,y,z
_cell_length_a	10.654556
_cell_length_b	9.130313
_cell_length_c	10.654550
_cell_angle_alpha	89.995631
_cell_angle_beta	95.513766
_cell_angle_gamma	90.001865
loop_
_atom_site_label
_atom_site_type_symbol
_atom_site_fract_x
_atom_site_fract_y
_atom_site_fract_z
O1	O	1.667835	0.121744	-0.176437
O2	O	2.167835	0.621744	0.323563
O3	O	1.302357	0.121759	-0.193235
O4	O	1.802357	0.621759	0.306765
O5	O	1.493499	0.121742	-0.002097
O6	O	1.993499	0.621742	0.497903
O7	O	1.476693	0.121761	-0.367575
O8	O	1.976693	0.621761	0.132425
O9	O	1.493486	-0.121857	-0.002091
O10	O	1.993486	0.378143	0.497909
O11	O	1.302344	-0.121840	-0.193229
O12	O	1.802344	0.378160	0.306771
O13	O	1.667822	-0.121855	-0.176431
O14	O	2.167822	0.378145	0.323569
Cu15	Cu	1.485082	-0.144090	-0.184830
Cu16	Cu	1.985082	0.355910	0.315170
Cu17	Cu	1.485097	0.143994	-0.184836
Cu18	Cu	1.985097	0.643994	0.315164
O19	O	1.476680	-0.121838	-0.367569
O20	O	1.976680	0.378162	0.132431
C21	C	1.255553	-0.000039	-0.191997
C22	C	1.755553	0.499961	0.308003
C23	C	1.116110	-0.000033	-0.188302
C24	C	1.616110	0.499967	0.311698
N25	N	1.485080	-0.346713	-0.184824
N26	N	1.985080	0.153287	0.315176
C27	C	0.919572	0.132741	-0.183102
C28	C	1.419572	0.632741	0.316898
C29	C	1.050594	0.132750	-0.186566
C30	C	1.550594	0.632750	0.313434
C31	C	1.050598	-0.132835	-0.186560
C32	C	1.550598	0.367165	0.313440
C33	C	0.919580	-0.132843	-0.183087
C34	C	1.419580	0.367157	0.316913
C35	C	1.569746	-0.423372	-0.100224
C36	C	2.069746	0.076628	0.399776
C37	C	1.569758	-0.576709	-0.100225
C38	C	2.069758	-0.076709	0.399775
C39	C	1.400433	-0.576714	-0.269436
C40	C	1.900433	-0.076714	0.230564
C41	C	1.400416	-0.423380	-0.269428
C42	C	1.900416	0.076620	0.230572
C43	C	1.714626	-0.000054	-0.177669
C44	C	2.214626	0.499946	0.322331
C45	C	1.854069	-0.000050	-0.181364
C46	C	2.354069	0.499950	0.318636
C47	C	1.492258	-0.000057	0.044704
C48	C	1.992258	0.499943	0.544704
C49	C	1.488567	-0.000055	0.184147
C50	C	1.988567	0.499945	0.684147
N51	N	1.485109	0.346616	-0.184832
N52	N	1.985109	0.846616	0.315168
C53	C	1.477920	-0.000036	-0.414370
C54	C	1.977920	0.499964	0.085630
C55	C	1.481612	-0.000029	-0.553813
C56	C	1.981612	0.499971	-0.053813
C57	C	1.601108	-0.000059	0.263630
C58	C	2.101108	0.499941	0.763630
C59	C	1.597631	-0.000041	0.394651
C60	C	2.097631	0.499959	0.894651
C61	C	1.369063	-0.000021	0.366693
C62	C	1.869063	0.499979	0.866693
C63	C	1.372540	-0.000028	0.235675
C64	C	1.872540	0.499972	0.735675
H65	H	0.866237	0.240869	-0.181698
H66	H	1.366237	0.740869	0.318302
Br67	Br	1.684644	-0.319330	0.014598
Br68	Br	2.184644	0.180670	0.514598
Br69	Br	0.830675	-0.313073	-0.180720
Br70	Br	1.330675	0.186927	0.319280
Br71	Br	1.211606	0.000020	0.436632
Br72	Br	1.711606	0.500020	0.936632
Br73	Br	1.684661	-0.680744	0.014600
Br74	Br	2.184661	-0.180744	0.514600
Br75	Br	1.758571	-0.000096	0.193703
Br76	Br	2.258571	0.499904	0.693703
H77	H	1.103953	-0.240949	-0.187965
H78	H	1.603953	0.259051	0.312035
Br79	Br	1.750373	-0.000038	0.502518
Br80	Br	2.250373	0.499962	1.002518
H81	H	1.103921	0.240882	-0.187979
H82	H	1.603921	0.740882	0.312021
Br83	Br	1.285540	-0.680766	-0.384254
Br84	Br	1.785540	-0.180766	0.115746
Br85	Br	1.219794	-0.000003	0.127795
Br86	Br	1.719794	0.499997	0.627795
H87	H	1.331465	-0.360959	-0.338320
H88	H	1.831465	0.139041	0.161680
