data_functionalizedCrystal
_audit_creation_method	'MofGen! by Chris Wilmer'
_symmetry_space_group_name_H-M	'P1'
_symmetry_Int_Tables_number	1
_symmetry_cell_setting	triclinic
loop_
_symmetry_equiv_pos_as_xyz
  x,y,z
_cell_length_a	18.215407
_cell_length_b	19.077068
_cell_length_c	18.215399
_cell_angle_alpha	87.731836
_cell_angle_beta	90.019833
_cell_angle_gamma	92.327501
loop_
_atom_site_label
_atom_site_type_symbol
_atom_site_fract_x
_atom_site_fract_y
_atom_site_fract_z
Zn1	Zn	1.113288	-0.280200	0.427869
Zn2	Zn	1.363288	-0.030200	0.677869
Zn3	Zn	1.613288	0.219800	0.927869
Zn4	Zn	1.863288	0.469800	1.177869
Zn5	Zn	1.108246	-0.397902	0.309739
Zn6	Zn	1.358246	-0.147902	0.559739
Zn7	Zn	1.608246	0.102098	0.809739
Zn8	Zn	1.858246	0.352098	1.059739
Zn9	Zn	0.990220	-0.280223	0.304817
Zn10	Zn	1.240220	-0.030223	0.554817
Zn11	Zn	1.490220	0.219777	0.804817
Zn12	Zn	1.740220	0.469777	1.054817
Zn13	Zn	0.985238	-0.397863	0.432763
Zn14	Zn	1.235238	-0.147863	0.682763
Zn15	Zn	1.485238	0.102137	0.932763
Zn16	Zn	1.735238	0.352137	1.182763
O17	O	1.049248	-0.339047	0.368797
O18	O	1.299248	-0.089047	0.618797
O19	O	1.549248	0.160953	0.868797
O20	O	1.799248	0.410953	1.118797
O21	O	1.215603	-0.295821	0.412210
O22	O	1.465603	-0.045821	0.662210
O23	O	1.715603	0.204179	0.912210
O24	O	1.965603	0.454179	1.162210
O25	O	1.092565	-0.382318	0.206103
O26	O	1.342565	-0.132318	0.456103
O27	O	1.592565	0.117682	0.706103
O28	O	1.842565	0.367682	0.956103
O29	O	1.010740	-0.181729	0.317032
O30	O	1.260740	0.068271	0.567032
O31	O	1.510740	0.318271	0.817032
O32	O	1.760740	0.568271	1.067032
O33	O	1.211899	-0.382295	0.325421
O34	O	1.461899	-0.132295	0.575421
O35	O	1.711899	0.117705	0.825421
O36	O	1.961899	0.367705	1.075421
O37	O	1.101157	-0.181712	0.407437
O38	O	1.351157	0.068288	0.657437
O39	O	1.601157	0.318288	0.907437
O40	O	1.851157	0.568288	1.157437
O41	O	1.005851	-0.295860	0.202487
O42	O	1.255851	-0.045860	0.452487
O43	O	1.505851	0.204140	0.702487
O44	O	1.755851	0.454140	0.952487
O45	O	0.886575	-0.295822	0.321777
O46	O	1.136575	-0.045822	0.571777
O47	O	1.386575	0.204178	0.821777
O48	O	1.636575	0.454178	1.071777
O49	O	1.002249	-0.382229	0.535097
O50	O	1.252249	-0.132229	0.785097
O51	O	1.502249	0.117771	1.035097
O52	O	1.752249	0.367771	1.285097
O53	O	0.882915	-0.382251	0.415778
O54	O	1.132915	-0.132251	0.665778
O55	O	1.382915	0.117749	0.915778
O56	O	1.632915	0.367749	1.165778
O57	O	1.096327	-0.295783	0.531501
O58	O	1.346327	-0.045783	0.781501
O59	O	1.596327	0.204217	1.031501
O60	O	1.846327	0.454217	1.281501
O61	O	1.087734	-0.496388	0.330167
O62	O	1.337734	-0.246388	0.580167
O63	O	1.587734	0.003612	0.830167
O64	O	1.837734	0.253612	1.080167
O65	O	0.997361	-0.496359	0.420551
O66	O	1.247361	-0.246359	0.670551
O67	O	1.497361	0.003641	0.920551
O68	O	1.747361	0.253641	1.170551
C69	C	0.858042	-0.339035	0.368775
C70	C	1.108042	-0.089035	0.618775
C71	C	1.358042	0.160965	0.868775
C72	C	1.608042	0.410965	1.118775
C73	C	0.776243	-0.339047	0.368784
C74	C	1.026243	-0.089047	0.618784
C75	C	1.276243	0.160953	0.868784
C76	C	1.526243	0.410953	1.118784
C77	C	1.041480	-0.521911	0.376440
C78	C	1.291480	-0.271911	0.626440
C79	C	1.541480	-0.021911	0.876440
C80	C	1.791480	0.228089	1.126440
C81	C	1.038224	-0.600141	0.379735
C82	C	1.288224	-0.350141	0.629735
C83	C	1.538224	-0.100141	0.879735
C84	C	1.788224	0.149859	1.129735
C85	C	0.586159	-0.384121	0.417674
C86	C	0.836159	-0.134121	0.667674
C87	C	1.086159	0.115879	0.917674
C88	C	1.336159	0.365879	1.167674
C89	C	0.509301	-0.384124	0.417684
C90	C	0.759301	-0.134124	0.667684
C91	C	1.009301	0.115876	0.917684
C92	C	1.259301	0.365876	1.167684
C93	C	0.513088	-0.293986	0.319936
C94	C	0.763088	-0.043986	0.569936
C95	C	1.013088	0.206014	0.819936
C96	C	1.263088	0.456014	1.069936
C97	C	0.589945	-0.293980	0.319931
C98	C	0.839945	-0.043980	0.569931
C99	C	1.089945	0.206020	0.819931
C100	C	1.339945	0.456020	1.069931
C101	C	0.626479	-0.339052	0.368799
C102	C	0.876479	-0.089052	0.618799
C103	C	1.126479	0.160948	0.868799
C104	C	1.376479	0.410948	1.118799
C105	C	0.472763	-0.339060	0.368814
C106	C	0.722763	-0.089060	0.618814
C107	C	0.972763	0.160940	0.868814
C108	C	1.222763	0.410940	1.118814
C109	C	0.389429	-0.339062	0.368823
C110	C	0.639429	-0.089062	0.618823
C111	C	0.889429	0.160938	0.868823
C112	C	1.139429	0.410938	1.118823
C113	C	0.709818	-0.339050	0.368791
C114	C	0.959818	-0.089050	0.618791
C115	C	1.209818	0.160950	0.868791
C116	C	1.459818	0.410950	1.118791
C117	C	1.083783	-0.636886	0.334263
C118	C	1.333783	-0.386886	0.584263
C119	C	1.583783	-0.136886	0.834263
C120	C	1.833783	0.113114	1.084263
C121	C	1.080725	-0.710391	0.337366
C122	C	1.330725	-0.460391	0.587366
C123	C	1.580725	-0.210391	0.837366
C124	C	1.830725	0.039609	1.087366
C125	C	1.032104	-0.747151	0.385937
C126	C	1.282104	-0.497151	0.635937
C127	C	1.532104	-0.247151	0.885937
C128	C	1.782104	0.002849	1.135937
C129	C	0.986542	-0.710401	0.431414
C130	C	1.236542	-0.460401	0.681414
C131	C	1.486542	-0.210401	0.931414
C132	C	1.736542	0.039599	1.181414
C133	C	0.989604	-0.636897	0.428314
C134	C	1.239604	-0.386897	0.678314
C135	C	1.489604	-0.136897	0.928314
C136	C	1.739604	0.113103	1.178314
C137	C	1.017899	-0.966985	0.400254
C138	C	1.267899	-0.716985	0.650254
C139	C	1.517899	-0.466985	0.900254
C140	C	1.767899	-0.216985	1.150254
C141	C	1.014839	-1.040495	0.403348
C142	C	1.264839	-0.790495	0.653348
C143	C	1.514839	-0.540495	0.903348
C144	C	1.764839	-0.290495	1.153348
C145	C	1.109023	-1.040479	0.309301
C146	C	1.359023	-0.790479	0.559301
C147	C	1.609023	-0.540479	0.809301
C148	C	1.859023	-0.290479	1.059301
C149	C	1.112078	-0.966974	0.306202
C150	C	1.362078	-0.716974	0.556202
C151	C	1.612078	-0.466974	0.806202
C152	C	1.862078	-0.216974	1.056202
C153	C	1.066520	-0.930231	0.351682
C154	C	1.316520	-0.680231	0.601682
C155	C	1.566520	-0.430231	0.851682
C156	C	1.816520	-0.180231	1.101682
N157	N	1.028975	-0.822285	0.389109
N158	N	1.278975	-0.572285	0.639109
N159	N	1.528975	-0.322285	0.889109
N160	N	1.778975	-0.072285	1.139109
N161	N	1.069652	-0.855098	0.348514
N162	N	1.319652	-0.605098	0.598514
N163	N	1.569652	-0.355098	0.848514
N164	N	1.819652	-0.105098	1.098514
C165	C	1.241200	-0.339060	0.368819
C166	C	1.491200	-0.089060	0.618819
C167	C	1.741200	0.160940	0.868819
C168	C	1.991200	0.410940	1.118819
C169	C	1.322999	-0.339065	0.368828
C170	C	1.572999	-0.089065	0.618828
C171	C	1.822999	0.160935	0.868828
C172	C	2.072999	0.410935	1.118828
C173	C	1.049295	-0.338999	0.560748
C174	C	1.299295	-0.088999	0.810748
C175	C	1.549295	0.161001	1.060748
C176	C	1.799295	0.411001	1.310748
C177	C	1.049315	-0.338978	0.642546
C178	C	1.299315	-0.088978	0.892546
C179	C	1.549315	0.161022	1.142546
C180	C	1.799315	0.411022	1.392546
C181	C	1.057067	-0.155469	0.361140
C182	C	1.307067	0.094531	0.611140
C183	C	1.557067	0.344531	0.861140
C184	C	1.807067	0.594531	1.111140
C185	C	1.060398	-0.077239	0.357877
C186	C	1.310398	0.172761	0.607877
C187	C	1.560398	0.422761	0.857877
C188	C	1.810398	0.672761	1.107877
C189	C	1.049246	-0.339045	0.177591
C190	C	1.299246	-0.089045	0.427591
C191	C	1.549246	0.160955	0.677591
C192	C	1.799246	0.410955	0.927591
C193	C	1.049377	-0.338867	0.095785
C194	C	1.299377	-0.088867	0.345785
C195	C	1.549377	0.161133	0.595785
C196	C	1.799377	0.411133	0.845785
C197	C	1.098320	-0.293923	0.828867
C198	C	1.348320	-0.043923	1.078867
C199	C	1.598320	0.206077	1.328867
C200	C	1.848320	0.456077	1.578867
C201	C	1.098329	-0.293903	0.905725
C202	C	1.348329	-0.043903	1.155725
C203	C	1.598329	0.206097	1.405725
C204	C	1.848329	0.456097	1.655725
C205	C	1.000366	-0.383924	0.909458
C206	C	1.250366	-0.133924	1.159458
C207	C	1.500366	0.116076	1.409458
C208	C	1.750366	0.366076	1.659458
C209	C	1.000354	-0.383940	0.832601
C210	C	1.250354	-0.133940	1.082601
C211	C	1.500354	0.116060	1.332601
C212	C	1.750354	0.366060	1.582601
C213	C	1.049335	-0.338941	0.792308
C214	C	1.299335	-0.088941	1.042308
C215	C	1.549335	0.161059	1.292308
C216	C	1.799335	0.411059	1.542308
C217	C	1.049357	-0.338904	0.946023
C218	C	1.299357	-0.088904	1.196023
C219	C	1.549357	0.161096	1.446023
C220	C	1.799357	0.411096	1.696023
C221	C	1.049367	-0.338882	1.029355
C222	C	1.299367	-0.088882	1.279355
C223	C	1.549367	0.161118	1.529355
C224	C	1.799367	0.411118	1.779355
C225	C	1.049324	-0.338962	0.708970
C226	C	1.299324	-0.088962	0.958970
C227	C	1.549324	0.161038	1.208970
C228	C	1.799324	0.411038	1.458970
H229	H	0.615903	-0.420820	0.457468
H230	H	0.865903	-0.170820	0.707468
H231	H	1.115903	0.079180	0.957468
H232	H	1.365903	0.329180	1.207468
Cl233	Cl	1.159920	-0.237313	0.951682
Cl234	Cl	1.409920	0.012687	1.201682
Cl235	Cl	1.659920	0.262687	1.451682
Cl236	Cl	1.909920	0.512687	1.701682
H237	H	0.476476	-0.420822	0.457484
H238	H	0.726476	-0.170822	0.707484
H239	H	0.976476	0.079178	0.957484
H240	H	1.226476	0.329178	1.207484
H241	H	0.483333	-0.257291	0.280148
H242	H	0.733333	-0.007291	0.530148
H243	H	0.983333	0.242709	0.780148
H244	H	1.233333	0.492709	1.030148
H245	H	0.975254	-1.070422	0.442914
H246	H	1.225254	-0.820422	0.692914
H247	H	1.475254	-0.570422	0.942914
H248	H	1.725254	-0.320422	1.192914
Cl249	Cl	0.640637	-0.237313	0.258487
Cl250	Cl	0.890637	0.012687	0.508487
Cl251	Cl	1.140637	0.262687	0.758487
Cl252	Cl	1.390637	0.512687	1.008487
Cl253	Cl	0.938798	-0.440495	0.960118
Cl254	Cl	1.188798	-0.190495	1.210118
Cl255	Cl	1.438798	0.059505	1.460118
Cl256	Cl	1.688798	0.309505	1.710118
Cl257	Cl	1.144907	-0.590681	0.273194
Cl258	Cl	1.394907	-0.340681	0.523194
Cl259	Cl	1.644907	-0.090681	0.773194
Cl260	Cl	1.894907	0.159319	1.023194
H261	H	1.117824	-0.740305	0.300338
H262	H	1.367824	-0.490305	0.550338
H263	H	1.617824	-0.240305	0.800338
H264	H	1.867824	0.009695	1.050338
H265	H	1.151670	-0.937045	0.266652
H266	H	1.401670	-0.687045	0.516652
H267	H	1.651670	-0.437045	0.766652
H268	H	1.901670	-0.187045	1.016652
Cl269	Cl	1.166298	-1.086674	0.252136
Cl270	Cl	1.416298	-0.836674	0.502136
Cl271	Cl	1.666298	-0.586674	0.752136
Cl272	Cl	1.916298	-0.336674	1.002136
H273	H	0.980802	-0.937075	0.437283
H274	H	1.230802	-0.687075	0.687283
H275	H	1.480802	-0.437075	0.937283
H276	H	1.730802	-0.187075	1.187283
H277	H	0.946956	-0.740337	0.470965
H278	H	1.196956	-0.490337	0.720965
H279	H	1.446956	-0.240337	0.970965
H280	H	1.696956	0.009663	1.220965
Cl281	Cl	0.932329	-0.590704	0.485484
Cl282	Cl	1.182329	-0.340704	0.735484
Cl283	Cl	1.432329	-0.090704	0.985484
Cl284	Cl	1.682329	0.159296	1.235484
Cl285	Cl	1.159893	-0.237350	0.778215
Cl286	Cl	1.409893	0.012650	1.028215
Cl287	Cl	1.659893	0.262650	1.278215
Cl288	Cl	1.909893	0.512650	1.528215
Cl289	Cl	0.938763	-0.440535	0.786637
Cl290	Cl	1.188763	-0.190535	1.036637
Cl291	Cl	1.438763	0.059465	1.286637
Cl292	Cl	1.688763	0.309465	1.536637
