data_functionalizedCrystal
_audit_creation_method	'MofGen! by Chris Wilmer'
_symmetry_space_group_name_H-M	'P1'
_symmetry_Int_Tables_number	1
_symmetry_cell_setting	triclinic
loop_
_symmetry_equiv_pos_as_xyz
  x,y,z
_cell_length_a	16.109301
_cell_length_b	16.992695
_cell_length_c	14.586319
_cell_angle_alpha	89.987402
_cell_angle_beta	89.993431
_cell_angle_gamma	87.064903
loop_
_atom_site_label
_atom_site_type_symbol
_atom_site_fract_x
_atom_site_fract_y
_atom_site_fract_z
O1	O	1.109862	0.100794	-0.076191
O2	O	0.868637	0.113336	-0.076204
O3	O	0.988282	-0.007077	-0.076190
O4	O	0.990217	0.221208	-0.076204
O5	O	0.988261	-0.007098	0.076291
O6	O	0.868616	0.113316	0.076277
O7	O	1.109841	0.100773	0.076290
Cu8	Cu	0.989227	0.107043	0.090206
Cu9	Cu	0.989251	0.107067	-0.090120
O10	O	0.990196	0.221187	0.076276
C11	C	0.837618	0.112818	0.000035
C12	C	0.745221	0.111295	0.000030
C13	C	0.440658	0.177766	0.000042
C14	C	0.527474	0.179205	0.000037
C15	C	0.537814	0.036338	0.000034
C16	C	0.450999	0.034900	0.000032
C17	C	0.402424	0.105617	0.000041
C18	C	0.576054	0.108493	0.000037
C19	C	0.670185	0.110052	0.000031
C20	C	0.308287	0.104058	0.000045
C21	C	0.985784	-0.036299	0.000050
C22	C	0.978361	-0.123342	0.000050
C23	C	1.049987	-0.173600	0.000054
C24	C	1.043007	-0.255385	0.000045
C25	C	0.964400	-0.286910	0.000038
C26	C	0.892768	-0.236645	0.000030
C27	C	0.899749	-0.154861	0.000033
C28	C	0.935467	-0.530500	0.000024
C29	C	0.928491	-0.612290	0.000024
C30	C	1.078730	-0.631025	0.000037
C31	C	1.085704	-0.549239	0.000045
C32	C	1.014073	-0.498981	0.000033
N33	N	0.957263	-0.370507	0.000032
N34	N	1.021210	-0.415386	0.000033
C35	C	1.140860	0.101292	0.000049
C36	C	1.233257	0.102815	0.000048
C37	C	0.992694	0.250409	0.000034
C38	C	1.000117	0.337451	0.000029
N39	N	0.989215	0.107025	0.217038
C40	C	0.935657	0.059488	0.548067
C41	C	0.935651	0.059478	0.452086
C42	C	1.042822	0.154615	0.452026
C43	C	1.042832	0.154621	0.548005
C44	C	0.989245	0.107059	0.596024
C45	C	0.989229	0.107042	0.404063
C46	C	0.989222	0.107031	0.299996
C47	C	0.989252	0.107069	0.700097
N48	N	0.989258	0.107076	0.783048
H49	H	0.558601	0.237956	0.000037
H50	H	0.864477	-0.637953	0.000033
H51	H	0.841423	-0.113941	0.000029
C52	C	0.387228	0.255556	0.000044
N53	N	0.346986	0.314150	0.000041
C54	C	0.876716	0.007163	0.600884
N55	N	0.832321	-0.032253	0.640663
H56	H	0.892015	0.020740	0.413044
C57	C	0.408939	-0.044474	0.000037
N58	N	0.377259	-0.104256	0.000041
H59	H	0.828765	-0.262318	0.000019
H60	H	0.577375	-0.021237	0.000028
C61	C	1.101765	0.206930	0.399197
N62	N	1.146162	0.246335	0.359407
H63	H	1.113997	-0.147940	0.000066
H64	H	1.101332	-0.296303	0.000051
H65	H	1.086474	0.193359	0.587052
C66	C	1.172178	-0.514569	0.000054
N67	N	1.237311	-0.488456	0.000065
H68	H	1.137048	-0.671953	0.000046
C69	C	0.856669	-0.475227	0.000005
N70	N	0.797315	-0.433591	-0.000012
