data_functionalizedCrystal
_audit_creation_method	'MofGen! by Chris Wilmer'
_symmetry_space_group_name_H-M	'P1'
_symmetry_Int_Tables_number	1
_symmetry_cell_setting	triclinic
loop_
_symmetry_equiv_pos_as_xyz
  x,y,z
_cell_length_a	14.971486
_cell_length_b	15.538191
_cell_length_c	14.048226
_cell_angle_alpha	89.996115
_cell_angle_beta	89.998499
_cell_angle_gamma	65.443111
loop_
_atom_site_label
_atom_site_type_symbol
_atom_site_fract_x
_atom_site_fract_y
_atom_site_fract_z
O1	O	1.146981	0.122716	-0.079045
O2	O	0.881795	0.137412	-0.079071
O3	O	1.066008	-0.007007	-0.079057
O4	O	0.962767	0.267135	-0.079058
O5	O	1.065995	-0.007016	0.079264
O6	O	0.881781	0.137403	0.079251
O7	O	1.146967	0.122708	0.079276
Zn8	Zn	1.014372	0.130054	0.104400
Zn9	Zn	1.014390	0.130065	-0.104195
O10	O	0.962753	0.267127	0.079263
C11	C	0.848677	0.136750	0.000087
C12	C	0.750021	0.134781	0.000077
C13	C	0.665165	0.219623	0.000078
C14	C	0.572470	0.217767	0.000092
C15	C	0.564634	0.131067	0.000099
C16	C	0.649500	0.046219	0.000100
C17	C	0.742193	0.048076	0.000093
C18	C	0.456296	0.042354	0.000113
C19	C	0.363597	0.040496	0.000119
C20	C	0.286573	0.212045	0.000113
C21	C	0.379266	0.213902	0.000105
C22	C	0.464126	0.129053	0.000105
C23	C	1.076803	-0.042095	0.000101
C24	C	1.108978	-0.146632	0.000095
C25	C	0.789329	-0.434783	0.000085
C26	C	0.819585	-0.533015	0.000090
C27	C	0.989766	-0.555266	0.000105
C28	C	0.959525	-0.457034	0.000096
C29	C	0.859305	-0.396800	0.000086
C30	C	1.029501	-0.419051	0.000098
C31	C	0.999261	-0.320828	0.000093
C32	C	0.899046	-0.260588	0.000086
C33	C	0.829066	-0.298577	0.000082
C34	C	1.129720	-0.479287	0.000114
C35	C	1.199696	-0.441304	0.000115
C36	C	1.169457	-0.343079	0.000104
C37	C	1.069242	-0.282839	0.000097
C38	C	1.239438	-0.305090	0.000109
C39	C	1.209198	-0.206867	0.000104
C40	C	1.039002	-0.184615	0.000093
C41	C	1.180085	0.123369	0.000117
C42	C	1.278740	0.125339	0.000120
C43	C	0.951958	0.302214	0.000102
C44	C	0.919784	0.406752	0.000103
N45	N	1.014366	0.130046	0.246761
N46	N	1.014405	0.130066	-0.246555
C47	C	1.095947	0.066124	0.296585
C48	C	1.095953	0.066123	0.396243
C49	C	1.014381	0.130050	0.446075
C50	C	0.932793	0.193975	0.396244
C51	C	0.932785	0.193971	0.296588
C52	C	0.932816	0.193982	0.603958
C53	C	0.932825	0.193988	0.703621
C54	C	1.095984	0.066135	0.703613
C55	C	1.095976	0.066130	0.603957
C56	C	1.014389	0.130057	0.554133
H57	H	0.385640	0.284500	0.000091
Cl58	Cl	0.830245	0.274347	0.541326
Cl59	Cl	0.830219	0.274331	0.233953
Cl60	Cl	1.325682	-0.517035	0.000135
H61	H	1.071366	-0.604322	0.000117
H62	H	0.866372	0.246023	0.436823
H63	H	1.266180	-0.175941	0.000107
H64	H	0.217474	0.281132	0.000117
H65	H	0.671534	0.290224	0.000072
H66	H	0.357223	-0.030102	0.000126
Cl67	Cl	0.465794	0.324431	0.000088
H68	H	1.162415	0.014083	0.744185
H69	H	0.866400	0.246043	0.744189
H70	H	1.162374	0.014071	0.256018
H71	H	0.957393	-0.135569	0.000078
H72	H	0.525390	-0.026740	0.000115
H73	H	0.643113	-0.024374	0.000119
Cl74	Cl	0.731603	-0.580761	0.000093
H75	H	0.811286	-0.021012	0.000092
Cl76	Cl	1.198512	-0.014239	0.458880
Cl77	Cl	1.365423	-0.380823	0.000139
H78	H	0.874427	-0.180608	0.000088
H79	H	0.747457	-0.249530	0.000067
Cl80	Cl	1.198528	-0.014230	0.541309
Cl81	Cl	1.167735	-0.602769	0.000126
H82	H	0.707720	-0.385736	0.000070
