data_functionalizedCrystal
_audit_creation_method	'MofGen! by Chris Wilmer'
_symmetry_space_group_name_H-M	'P1'
_symmetry_Int_Tables_number	1
_symmetry_cell_setting	triclinic
loop_
_symmetry_equiv_pos_as_xyz
  x,y,z
_cell_length_a	12.759399
_cell_length_b	18.215407
_cell_length_c	18.215399
_cell_angle_alpha	90.017813
_cell_angle_beta	90.024962
_cell_angle_gamma	90.009629
loop_
_atom_site_label
_atom_site_type_symbol
_atom_site_fract_x
_atom_site_fract_y
_atom_site_fract_z
Zn1	Zn	-0.418431	1.125122	0.416091
Zn2	Zn	-0.594128	1.125051	0.293032
Zn3	Zn	-0.418447	1.002054	0.293043
Zn4	Zn	-0.594052	1.002041	0.416061
O5	O	-0.506264	1.063567	0.354557
O6	O	-0.441763	1.228097	0.399775
O7	O	-0.570863	1.108711	0.190049
O8	O	-0.271424	1.018415	0.309383
O9	O	-0.570847	1.228045	0.309364
O10	O	-0.271412	1.108832	0.399786
O11	O	-0.441790	1.018346	0.190057
O12	O	-0.441716	0.899068	0.309354
O13	O	-0.570716	1.018392	0.519049
O14	O	-0.570732	0.899059	0.399734
O15	O	-0.441689	1.108819	0.519072
O16	O	-0.741139	1.108699	0.309334
O17	O	-0.741083	1.018324	0.399723
C18	C	-0.506218	0.872361	0.354542
C19	C	-0.506224	0.790562	0.354554
C20	C	-0.439180	0.525526	0.401709
C21	C	-0.439163	0.602385	0.401707
C22	C	-0.573383	0.602350	0.307420
C23	C	-0.573405	0.525492	0.307427
C24	C	-0.506297	0.487082	0.354570
C25	C	-0.506258	0.640799	0.354561
C26	C	-0.506241	0.724132	0.354559
C27	C	-0.506316	0.403744	0.354574
C28	C	-0.779232	1.063522	0.354540
C29	C	-0.896008	1.063570	0.354557
C30	C	-0.950865	1.110682	0.307545
C31	C	-1.060589	1.110729	0.307570
C32	C	-1.060590	1.016546	0.401621
C33	C	-0.950868	1.016503	0.401599
C34	C	-1.210476	1.197595	0.281381
C35	C	-1.265336	1.244701	0.234357
C36	C	-1.229787	1.256026	0.162552
C37	C	-1.139379	1.220235	0.137755
C38	C	-1.084524	1.173124	0.184775
C39	C	-1.120072	1.161813	0.256591
C40	C	-0.800980	0.929636	0.427781
C41	C	-0.746123	0.882521	0.474797
C42	C	-0.781670	0.871188	0.546604
C43	C	-0.872081	0.906966	0.571398
C44	C	-0.926938	0.954081	0.524382
C45	C	-0.891383	0.965415	0.452576
C46	C	-0.232231	1.063633	0.354590
C47	C	-0.115455	1.063660	0.354604
C48	C	-0.506192	1.063612	0.546510
C49	C	-0.506161	1.063631	0.628309
C50	C	-0.506312	1.255520	0.354572
C51	C	-0.506332	1.337319	0.354578
C52	C	-0.506261	1.063565	0.163351
C53	C	-0.505996	1.063688	0.081552
C54	C	-0.438914	1.110733	0.816516
C55	C	-0.438883	1.110742	0.893374
C56	C	-0.573246	1.016581	0.893340
C57	C	-0.573271	1.016569	0.816482
C58	C	-0.506106	1.063649	0.778072
C59	C	-0.506051	1.063670	0.931788
C60	C	-0.506018	1.063679	1.015122
C61	C	-0.506137	1.063639	0.694733
H62	H	-1.010915	1.143986	0.164586
H63	H	-0.627986	0.978223	0.785181
H64	H	-1.274461	1.294382	0.124265
C65	C	-0.647185	0.644603	0.255560
H66	H	-0.637552	0.695883	0.262301
H67	H	-0.717799	0.632015	0.266246
H68	H	-0.631716	0.631985	0.206131
H69	H	-0.384510	0.633682	0.440093
C70	C	-0.721329	0.819361	0.598321
H71	H	-0.662392	0.799673	0.573274
H72	H	-0.766068	0.780501	0.613389
H73	H	-0.698286	0.845944	0.640204
H74	H	-0.772022	0.938866	0.369311
H75	H	-0.627932	0.978252	0.924623
H76	H	-1.338946	1.273842	0.254554
H77	H	-0.906200	1.149008	0.269242
C78	C	-0.647235	0.483202	0.255570
H79	H	-0.687188	0.517084	0.227485
H80	H	-0.693067	0.453231	0.283672
H81	H	-0.606989	0.453207	0.223553
C82	C	-0.365031	1.162513	0.774263
H83	H	-0.374673	1.155768	0.722983
H84	H	-0.294435	1.151759	0.786868
H85	H	-0.380418	1.211961	0.786866
C86	C	-0.365378	0.483277	0.453573
H87	H	-0.325412	0.517183	0.481652
H88	H	-0.319557	0.453281	0.425483
H89	H	-0.405644	0.453312	0.485595
H90	H	-1.110448	1.229455	0.079281
H91	H	-1.239422	1.188386	0.339853
H92	H	-0.384166	1.149081	0.924672
H93	H	-1.105271	0.978225	0.439920
H94	H	-1.000553	0.983217	0.544576
H95	H	-0.901025	0.897739	0.629870
C96	C	-0.646673	0.843165	0.447525
H97	H	-0.633347	0.856669	0.398028
H98	H	-0.656537	0.791558	0.450445
H99	H	-0.588770	0.857003	0.477273
