data_functionalizedCrystal
_audit_creation_method	'MofGen! by Chris Wilmer'
_symmetry_space_group_name_H-M	'P1'
_symmetry_Int_Tables_number	1
_symmetry_cell_setting	triclinic
loop_
_symmetry_equiv_pos_as_xyz
  x,y,z
_cell_length_a	6.817900
_cell_length_b	14.858329
_cell_length_c	10.943624
_cell_angle_alpha	93.400022
_cell_angle_beta	108.838799
_cell_angle_gamma	104.519616
loop_
_atom_site_label
_atom_site_type_symbol
_atom_site_fract_x
_atom_site_fract_y
_atom_site_fract_z
V1	V	-4.093423	-0.128646	-0.402919
V2	V	-3.593423	0.371354	0.097081
O3	O	-4.074269	0.006207	-0.394870
O4	O	-3.574269	0.506207	0.105130
O5	O	-4.049676	-0.255108	-0.400528
O6	O	-3.549676	0.244892	0.099472
O7	O	-4.071727	-0.126656	-0.578480
O8	O	-3.571727	0.373344	-0.078480
O9	O	-4.052065	-0.123134	-0.215686
O10	O	-3.552065	0.376866	0.284314
V11	V	-4.572988	-0.112517	-0.380480
V12	V	-4.072988	0.387483	0.119520
O13	O	-4.363364	-0.164026	-0.452140
O14	O	-3.863364	0.335974	0.047860
O15	O	-4.753244	-0.077138	-0.331259
O16	O	-4.253244	0.422862	0.168741
O17	O	-4.393528	0.013944	-0.382872
O18	O	-3.893528	0.513944	0.117128
O19	O	-4.709539	-0.247370	-0.388529
O20	O	-4.209539	0.252630	0.111471
O21	O	-4.731742	-0.118030	-0.567713
O22	O	-4.231742	0.381970	-0.067713
O23	O	-4.371477	-0.114507	-0.204919
O24	O	-3.871477	0.385493	0.295081
C25	C	-3.894945	-0.285936	-0.394265
C26	C	-3.394945	0.214064	0.105735
C27	C	-3.940641	-0.389320	-0.393480
C28	C	-3.440641	0.110680	0.106520
C29	C	-3.977744	-0.473278	-0.392830
C30	C	-3.477744	0.026722	0.107170
C31	C	-4.024311	-0.578608	-0.392022
C32	C	-3.524311	-0.078608	0.107978
C33	C	-4.061443	-0.662560	-0.391378
C34	C	-3.561443	-0.162560	0.108622
C35	C	-4.108013	-0.767896	-0.390567
C36	C	-3.608013	-0.267896	0.109433
C37	C	-3.923072	-0.122083	-0.621259
C38	C	-3.423072	0.377917	-0.121259
C39	C	-3.986647	-0.121293	-0.764784
C40	C	-3.486647	0.378707	-0.264784
C41	C	-3.832390	-0.115972	-0.841916
C42	C	-3.332390	0.384028	-0.341916
C43	C	-4.008198	-0.194950	-0.948132
C44	C	-3.508198	0.305050	-0.448132
C45	C	-3.924145	-0.040915	-0.914305
C46	C	-3.424145	0.459085	-0.414305
C47	C	-4.161653	-0.200345	-0.869123
C48	C	-3.661653	0.299655	-0.369123
C49	C	-4.077531	-0.046240	-0.835272
C50	C	-3.577531	0.453760	-0.335272
C51	C	-4.253472	-0.125241	-0.941458
C52	C	-3.753472	0.374759	-0.441458
C53	C	-4.211601	0.044768	-0.389130
C54	C	-3.711601	0.544768	0.110870
C55	C	-4.145144	0.148151	-0.389924
C56	C	-3.645144	0.648151	0.110076
C57	C	-4.183474	-0.119084	-0.162133
C58	C	-3.683474	0.380916	0.337867
C59	C	-4.099137	-0.119869	-0.018608
C60	C	-3.599137	0.380131	0.481392
H61	H	-3.653844	-0.112158	-0.798457
H62	H	-3.153844	0.387842	-0.298457
H63	H	-4.106096	0.016632	-0.786109
H64	H	-3.606096	0.516632	-0.286109
O65	O	-3.974252	-0.269922	-1.006972
O66	O	-3.474252	0.230078	-0.506972
C67	C	-4.036981	-0.268569	-1.142725
C68	C	-3.536981	0.231431	-0.642725
H69	H	-4.158728	-0.226341	-1.172503
H70	H	-3.658728	0.273659	-0.672503
H71	H	-4.114159	-0.343660	-1.196989
H72	H	-3.614159	0.156340	-0.696989
H73	H	-3.888786	-0.234612	-1.168455
H74	H	-3.388786	0.265388	-0.668455
O75	O	-3.805224	0.039407	-0.939018
O76	O	-3.305224	0.539407	-0.439018
C77	C	-3.868727	0.039466	-1.075057
C78	C	-3.368727	0.539466	-0.575057
H79	H	-3.946510	-0.035949	-1.128058
H80	H	-3.446510	0.464051	-0.628058
H81	H	-3.720829	0.072626	-1.101506
H82	H	-3.220829	0.572626	-0.601506
H83	H	-3.990188	0.081767	-1.105611
H84	H	-3.490188	0.581767	-0.605611
O85	O	-4.280475	-0.280790	-0.844629
O86	O	-3.780475	0.219210	-0.344629
C87	C	-4.218588	-0.280591	-0.708580
C88	C	-3.718588	0.219409	-0.208580
H89	H	-4.047770	-0.231838	-0.658345
H90	H	-3.547770	0.268162	-0.158345
H91	H	-4.222683	-0.354980	-0.686762
H92	H	-3.722683	0.145020	-0.186762
H93	H	-4.335265	-0.254795	-0.670620
H94	H	-3.835265	0.245205	-0.170620
H95	H	-4.432111	-0.129179	-0.984714
H96	H	-3.932111	0.370821	-0.484714
