data_functionalizedCrystal
_audit_creation_method	'MofGen! by Chris Wilmer'
_symmetry_space_group_name_H-M	'P1'
_symmetry_Int_Tables_number	1
_symmetry_cell_setting	triclinic
loop_
_symmetry_equiv_pos_as_xyz
  x,y,z
_cell_length_a	18.101398
_cell_length_b	21.395355
_cell_length_c	21.395362
_cell_angle_alpha	89.982663
_cell_angle_beta	90.023647
_cell_angle_gamma	89.970130
loop_
_atom_site_label
_atom_site_type_symbol
_atom_site_fract_x
_atom_site_fract_y
_atom_site_fract_z
Zn1	Zn	1.132176	-0.354355	-0.249590
Zn2	Zn	1.632176	0.145645	0.250410
Zn3	Zn	1.132065	-0.249580	-0.354350
Zn4	Zn	1.632065	0.250420	0.145650
Zn5	Zn	1.008322	-0.249582	-0.249582
Zn6	Zn	1.508322	0.250418	0.250418
Zn7	Zn	1.008291	-0.354311	-0.354325
Zn8	Zn	1.508291	0.145689	0.145675
O9	O	1.070214	-0.301957	-0.301962
O10	O	1.570214	0.198043	0.198038
O11	O	1.235794	-0.340475	-0.263501
O12	O	1.735794	0.159525	0.236499
O13	O	1.115618	-0.161902	-0.340459
O14	O	1.615618	0.338098	0.159541
O15	O	1.024811	-0.263501	-0.161905
O16	O	1.524811	0.236499	0.338095
O17	O	1.235713	-0.263497	-0.340467
O18	O	1.735713	0.236503	0.159533
O19	O	1.115805	-0.340477	-0.161911
O20	O	1.615805	0.159523	0.338089
O21	O	1.024704	-0.161904	-0.263486
O22	O	1.524704	0.338096	0.236514
O23	O	0.904685	-0.263457	-0.263462
O24	O	1.404685	0.236543	0.236538
O25	O	1.024758	-0.441994	-0.340425
O26	O	1.524758	0.058006	0.159575
O27	O	0.904662	-0.340400	-0.340417
O28	O	1.404662	0.159600	0.159583
O29	O	1.115775	-0.442027	-0.263477
O30	O	1.615775	0.057973	0.236523
O31	O	1.115587	-0.263453	-0.442025
O32	O	1.615587	0.236547	0.057975
O33	O	1.024651	-0.340398	-0.442006
O34	O	1.524651	0.159602	0.057994
C35	C	0.877803	-0.301924	-0.301936
C36	C	1.377803	0.198076	0.198064
C37	C	0.795489	-0.301925	-0.301941
C38	C	1.295489	0.198075	0.198059
C39	C	1.070124	-0.301934	-0.464749
C40	C	1.570124	0.198066	0.035251
C41	C	1.070153	-0.301945	-0.534391
C42	C	1.570153	0.198055	-0.034391
C43	C	1.070275	-0.465380	-0.301949
C44	C	1.570275	0.034620	0.198051
C45	C	1.070301	-0.535022	-0.301944
C46	C	1.570301	-0.035022	0.198056
C47	C	0.496398	-0.301978	-0.301980
C48	C	0.996398	0.198022	0.198020
C49	C	0.527713	-0.253803	-0.253320
C50	C	1.027713	0.246197	0.246680
C51	C	0.613331	-0.253598	-0.253450
C52	C	1.113331	0.246402	0.246550
C53	C	0.644781	-0.301952	-0.301960
C54	C	1.144781	0.198048	0.198040
C55	C	0.613664	-0.283910	-0.367957
C56	C	1.113664	0.216090	0.132043
C57	C	0.528019	-0.283575	-0.367687
C58	C	1.028019	0.216425	0.132313
C59	C	0.528019	-0.368307	-0.285215
C60	C	1.028019	0.131693	0.214785
C61	C	0.613670	-0.367945	-0.283746
C62	C	1.113670	0.132055	0.216254
C63	C	0.728640	-0.301938	-0.301952
C64	C	1.228640	0.198062	0.198048
C65	C	0.412539	-0.301990	-0.301991
C66	C	0.912539	0.198010	0.198009
C67	C	1.263375	-0.301990	-0.301988
C68	C	1.763375	0.198010	0.198012
C69	C	1.345690	-0.302004	-0.301999
C70	C	1.845690	0.197996	0.198001
C71	C	1.117692	-0.567753	-0.261875
C72	C	1.617692	-0.067753	0.238125
C73	C	1.117691	-0.633188	-0.261848
C74	C	1.617691	-0.133188	0.238152
C75	C	1.070307	-0.665890	-0.301901
C76	C	1.570307	-0.165890	0.198099
C77	C	1.022907	-0.633151	-0.341973
C78	C	1.522907	-0.133151	0.158027
C79	C	1.022904	-0.567717	-0.341994
C80	C	1.522904	-0.067717	0.158006
C81	C	1.064428	-0.769556	-0.358316
C82	C	1.564428	-0.269556	0.141684
C83	C	1.064436	-0.834989	-0.358296
C84	C	1.564436	-0.334989	0.141704
C85	C	1.070312	-0.867711	-0.301835
C86	C	1.570312	-0.367711	0.198165
C87	C	1.076194	-0.834992	-0.245393
C88	C	1.576194	-0.334992	0.254607
C89	C	1.076191	-0.769557	-0.245414
C90	C	1.576191	-0.269557	0.254586
C91	C	1.070305	-0.736843	-0.301882
C92	C	1.570305	-0.236843	0.198118
C93	C	1.117704	-0.971395	-0.261733
C94	C	1.617704	-0.471395	0.238267
C95	C	1.117698	-1.036832	-0.261705
C96	C	1.617698	-0.536832	0.238295
C97	C	1.022918	-1.036793	-0.341836
C98	C	1.522918	-0.536793	0.158164
C99	C	1.022920	-0.971357	-0.341858
C100	C	1.522920	-0.471357	0.158142
C101	C	1.070317	-0.938662	-0.301808
C102	C	1.570317	-0.438662	0.198192
C103	C	1.070195	-0.139170	-0.301929
C104	C	1.570195	0.360830	0.198071
C105	C	1.070312	-0.069529	-0.301758
C106	C	1.570312	0.430471	0.198242
C107	C	1.117687	-0.342119	-1.036137
C108	C	1.617687	0.157881	-0.536137
C109	C	1.117665	-0.342109	-0.970702
C110	C	1.617665	0.157891	-0.470702
C111	C	1.070314	-0.301996	-0.938029
C112	C	1.570314	0.198004	-0.438029
C113	C	1.022996	-0.261879	-0.970797
C114	C	1.522996	0.238121	-0.470797
C115	C	1.023024	-0.261886	-1.036231
C116	C	1.523024	0.238114	-0.536231
C117	C	1.003551	-0.296981	-0.834408
C118	C	1.503551	0.203019	-0.334408
C119	C	1.003521	-0.296979	-0.768975
C120	C	1.503521	0.203021	-0.268975
C121	C	1.070228	-0.301972	-0.736208
C122	C	1.570228	0.198028	-0.236208
C123	C	1.136965	-0.306982	-0.768883
C124	C	1.636965	0.193018	-0.268883
C125	C	1.136994	-0.306988	-0.834317
C126	C	1.636994	0.193012	-0.334317
C127	C	1.070279	-0.301985	-0.867077
C128	C	1.570279	0.198015	-0.367077
C129	C	1.117523	-0.342074	-0.632495
C130	C	1.617523	0.157926	-0.132495
C131	C	1.117503	-0.342059	-0.567059
C132	C	1.617503	0.157941	-0.067059
C133	C	1.022827	-0.261832	-0.567155
C134	C	1.522827	0.238168	-0.067155
C135	C	1.022854	-0.261843	-0.632591
C136	C	1.522854	0.238157	-0.132591
C137	C	1.070201	-0.301967	-0.665257
C138	C	1.570201	0.198033	-0.165257
C139	C	1.070324	-0.301994	-0.138538
C140	C	1.570324	0.198006	0.361462
C141	C	1.070371	-0.302010	-0.068897
C142	C	1.570371	0.197990	0.431103
H143	H	0.634370	-0.264907	-0.204510
H144	H	1.134370	0.235093	0.295490
H145	H	0.949181	-0.292904	-0.742374
H146	H	1.449181	0.207096	-0.242374
H147	H	1.080980	-0.861632	-0.199417
H148	H	1.580980	-0.361632	0.300583
H149	H	1.059446	-0.742920	-0.404281
H150	H	1.559446	-0.242920	0.095719
Br151	Br	0.647420	-0.171677	-0.271915
Br152	Br	1.147420	0.328323	0.228085
H153	H	0.507303	-0.317133	-0.405169
H154	H	1.007303	0.182867	0.094831
H155	H	0.635081	-0.405762	-0.316605
H156	H	1.135081	0.094238	0.183395
Br157	Br	1.227561	-0.313784	-0.878659
Br158	Br	1.727561	0.186216	-0.378659
H159	H	0.984444	-0.229217	-0.944192
H160	H	1.484444	0.270783	-0.444192
Br161	Br	1.181729	-0.396494	-0.522597
Br162	Br	1.681729	0.103506	-0.022597
Br163	Br	0.494652	-0.202756	-0.391384
Br164	Br	0.994652	0.297244	0.108616
H165	H	0.507141	-0.264988	-0.204230
H166	H	1.007141	0.235012	0.295770
Br167	Br	0.958574	-0.207385	-0.522821
Br168	Br	1.458574	0.292615	-0.022821
Br169	Br	0.958595	-0.677530	-0.396326
Br170	Br	1.458595	-0.177530	0.103674
Br171	Br	1.182013	-0.523384	-0.207519
Br172	Br	1.682013	-0.023384	0.292481
Br173	Br	0.958582	-0.523292	-0.396376
Br174	Br	1.458582	-0.023292	0.103624
H175	H	0.949227	-0.292917	-0.861081
H176	H	1.449227	0.207083	-0.361081
Br177	Br	1.227502	-0.313760	-0.724423
Br178	Br	1.727502	0.186240	-0.224423
Br179	Br	1.181938	-0.396577	-1.080467
Br180	Br	1.681938	0.103423	-0.580467
Br181	Br	1.084171	-0.725154	-0.168818
Br182	Br	1.584171	-0.225154	0.331182
H183	H	0.634013	-0.381549	-0.235179
H184	H	1.134013	0.118451	0.264821
H185	H	1.156071	-0.374749	-0.659094
H186	H	1.656071	0.125251	-0.159094
H187	H	0.506159	-0.204940	-0.264276
H188	H	1.006159	0.295060	0.235724
Br189	Br	0.647602	-0.340567	-0.430005
Br190	Br	1.147602	0.159433	0.069995
Br191	Br	0.649345	-0.203963	-0.392071
Br192	Br	1.149345	0.296037	0.107929
Br193	Br	0.494269	-0.428134	-0.344287
Br194	Br	0.994269	0.071866	0.155713
Br195	Br	0.492067	-0.395647	-0.206399
Br196	Br	0.992067	0.104353	0.293601
Br197	Br	1.181993	-0.677620	-0.207450
Br198	Br	1.681993	-0.177620	0.292550
Br199	Br	1.182024	-0.927019	-0.207379
Br200	Br	1.682024	-0.427019	0.292621
Br201	Br	0.958602	-0.926933	-0.396241
Br202	Br	1.458602	-0.426933	0.103759
H203	H	0.984322	-0.229184	-0.659264
H204	H	1.484322	0.270816	-0.159264
H205	H	0.984493	-0.229223	-1.062904
H206	H	1.484493	0.270777	-0.562904
Br207	Br	1.182031	-1.081254	-0.207331
Br208	Br	1.682031	-0.581254	0.292669
Br209	Br	0.958600	-1.081166	-0.396186
Br210	Br	1.458600	-0.581166	0.103814
H211	H	1.059651	-0.861624	-0.404254
H212	H	1.559651	-0.361624	0.095746
Br213	Br	1.181885	-0.396546	-0.926231
Br214	Br	1.681885	0.103454	-0.426231
