data_functionalizedCrystal
_audit_creation_method	'MofGen! by Chris Wilmer'
_symmetry_space_group_name_H-M	'P1'
_symmetry_Int_Tables_number	1
_symmetry_cell_setting	triclinic
loop_
_symmetry_equiv_pos_as_xyz
  x,y,z
_cell_length_a	16.109301
_cell_length_b	8.559649
_cell_length_c	14.586319
_cell_angle_alpha	89.997976
_cell_angle_beta	89.999213
_cell_angle_gamma	76.620073
loop_
_atom_site_label
_atom_site_type_symbol
_atom_site_fract_x
_atom_site_fract_y
_atom_site_fract_z
O1	O	1.090046	0.205389	-0.076179
O2	O	0.846355	0.230950	-0.076193
O3	O	0.989670	-0.014444	-0.076183
O4	O	0.946731	0.450783	-0.076188
O5	O	0.989661	-0.014447	0.076297
O6	O	0.846347	0.230946	0.076288
O7	O	1.090037	0.205386	0.076302
Cu8	Cu	0.968191	0.218165	0.090218
Cu9	Cu	0.968201	0.218170	-0.090108
O10	O	0.946722	0.450779	0.076293
C11	C	0.815442	0.229912	0.000046
C12	C	0.723344	0.226808	0.000040
C13	C	0.492255	0.365202	0.000050
C14	C	0.405721	0.362273	0.000056
C15	C	0.444145	0.071122	0.000054
C16	C	0.530677	0.074053	0.000055
C17	C	0.554729	0.221098	0.000048
C18	C	0.381663	0.215238	0.000053
C19	C	0.287840	0.212061	0.000060
C20	C	0.648558	0.224275	0.000043
C21	C	0.992919	-0.073977	0.000055
C22	C	1.002605	-0.251362	0.000051
C23	C	1.120950	0.206423	0.000062
C24	C	1.213048	0.209527	0.000061
C25	C	0.943473	0.510312	0.000052
C26	C	0.933787	0.687697	0.000051
N27	N	0.968190	0.218161	0.217050
N28	N	0.968210	0.218161	-0.216940
C29	C	1.031666	0.109538	0.452060
C30	C	1.031669	0.109534	0.548041
C31	C	0.904727	0.326790	0.548043
C32	C	0.904722	0.326785	0.452063
C33	C	0.968196	0.218161	0.404074
C34	C	0.968204	0.218162	0.596035
C35	C	0.968206	0.218158	0.700102
C36	C	0.968193	0.218162	0.300001
H37	H	0.354857	0.479618	0.000059
H38	H	0.424550	-0.048597	0.000066
C39	C	0.835731	0.444474	0.399907
C40	C	0.790261	0.359322	0.344830
C41	C	0.726697	0.467673	0.296779
H42	H	0.861289	0.511042	0.362384
H43	H	0.797885	0.509155	0.442201
H44	H	0.828101	0.294668	0.302540
H45	H	0.764684	0.292760	0.382330
H46	H	0.688851	0.532354	0.339074
H47	H	0.752262	0.534235	0.259262
H48	H	0.695833	0.409913	0.259411
C49	C	0.518247	0.524962	-0.000092
C50	C	0.485587	0.612101	-0.078525
C51	C	0.509500	0.759292	-0.078678
H52	H	0.578713	0.506305	-0.000140
H53	H	0.496142	0.584372	0.053056
H54	H	0.507696	0.552704	-0.131659
H55	H	0.425124	0.630801	-0.078493
H56	H	0.487395	0.818703	-0.025530
H57	H	0.569965	0.740619	-0.078724
H58	H	0.487337	0.818441	-0.131889
C59	C	0.598603	-0.082292	-0.000092
C60	C	0.649419	-0.089085	-0.078527
C61	C	0.712007	-0.233067	-0.078684
H62	H	0.571999	-0.170417	-0.000142
H63	H	0.633206	-0.087214	0.053055
H64	H	0.614820	-0.084179	-0.131660
H65	H	0.676042	-0.000993	-0.078494
H66	H	0.746610	-0.237989	-0.025537
H67	H	0.685395	-0.321181	-0.078731
H68	H	0.746497	-0.237688	-0.131896
H69	H	0.867458	-0.228771	0.000050
H70	H	0.853049	0.415232	0.587125
H71	H	1.083351	0.021081	0.587109
H72	H	1.083349	0.021087	0.412990
C73	C	1.091035	-0.362816	-0.000130
C74	C	1.100706	-0.459591	-0.078585
C75	C	1.182158	-0.562265	-0.078789
H76	H	1.097831	-0.428770	0.052984
H77	H	1.132937	-0.300854	-0.000182
H78	H	1.058816	-0.521547	-0.078525
H79	H	1.093927	-0.393681	-0.131712
H80	H	1.224059	-0.500303	-0.078841
H81	H	1.188946	-0.628207	-0.025672
H82	H	1.188732	-0.627928	-0.132024
