data_functionalizedCrystal
_audit_creation_method	'MofGen! by Chris Wilmer'
_symmetry_space_group_name_H-M	'P1'
_symmetry_Int_Tables_number	1
_symmetry_cell_setting	triclinic
loop_
_symmetry_equiv_pos_as_xyz
  x,y,z
_cell_length_a	10.723024
_cell_length_b	10.654541
_cell_length_c	9.798715
_cell_angle_alpha	89.997081
_cell_angle_beta	89.996609
_cell_angle_gamma	84.475899
loop_
_atom_site_label
_atom_site_type_symbol
_atom_site_fract_x
_atom_site_fract_y
_atom_site_fract_z
O1	O	1.657212	0.176147	-0.113482
O2	O	1.294062	0.193008	-0.113486
O3	O	1.483988	0.001837	-0.113475
O4	O	1.467286	0.367318	-0.113492
O5	O	1.483974	0.001836	0.113507
O6	O	1.294048	0.193007	0.113496
O7	O	1.657198	0.176147	0.113501
Zn8	Zn	1.475620	0.184577	0.149537
Zn9	Zn	1.475639	0.184578	-0.149522
O10	O	1.467272	0.367318	0.113490
C11	C	1.247555	0.191781	0.000004
C12	C	1.109000	0.188109	0.000003
C13	C	1.034033	0.295079	-0.000003
C14	C	0.890829	0.291287	-0.000005
C15	C	1.482755	-0.044961	0.000015
C16	C	1.479088	-0.184404	0.000012
C17	C	1.706196	-0.212409	0.000033
C18	C	1.818022	-0.291921	0.000045
C19	C	1.814569	-0.422938	0.000041
C20	C	1.699277	-0.474446	0.000020
C21	C	1.587451	-0.394935	0.000007
C22	C	1.590917	-0.263916	0.000016
C23	C	1.360346	-0.366930	-0.000023
C24	C	1.363796	-0.235912	-0.000009
C25	C	1.245054	-0.418438	-0.000044
C26	C	1.133225	-0.338927	-0.000047
C27	C	1.136683	-0.207902	-0.000041
C28	C	1.251970	-0.156401	-0.000022
C29	C	1.703705	0.177374	0.000007
C30	C	1.842259	0.181045	-0.000000
C31	C	1.468504	0.414116	-0.000003
C32	C	1.472172	0.553559	-0.000010
N33	N	1.475617	0.184576	0.353636
N34	N	1.475653	0.184569	-0.353622
C35	C	1.555361	0.103954	0.421418
C36	C	1.555381	0.103950	0.578580
H37	H	0.826409	0.382861	-0.000015
O38	O	1.709394	-0.085121	-0.000135
C39	C	1.648314	-0.033656	-0.117714
H40	H	1.580022	-0.100977	-0.156928
H41	H	1.594799	0.060877	-0.091275
H42	H	1.720727	-0.019252	-0.200015
O43	O	1.394059	0.266965	0.422989
C44	C	1.319931	0.341950	0.329452
H45	H	1.317836	0.290558	0.227560
H46	H	1.220505	0.360428	0.370862
H47	H	1.361505	0.435495	0.314298
O48	O	1.255170	-0.029113	-0.000195
C49	C	1.194089	0.022346	-0.117777
H50	H	1.125796	-0.044976	-0.156985
H51	H	1.140576	0.116882	-0.091344
H52	H	1.266502	0.036744	-0.200081
H53	H	1.696475	-0.581129	-0.000000
O54	O	1.636843	0.021489	0.352065
C55	C	1.711017	-0.053450	0.445602
H56	H	1.659928	-0.055288	0.547506
H57	H	1.728879	-0.153562	0.404211
H58	H	1.804221	-0.012102	0.460725
H59	H	1.407381	0.253600	0.588098
H60	H	0.906672	0.089466	-0.000004
H61	H	1.067165	0.093722	-0.000028
H62	H	1.075868	0.389466	0.000000
H63	H	1.911891	-0.249968	0.000075
H64	H	1.242250	-0.525120	-0.000056
O65	O	1.923276	-0.500054	-0.000130
C66	C	1.993208	-0.476580	-0.117695
H67	H	1.963446	-0.377467	-0.156889
H68	H	2.097205	-0.484918	-0.091245
H69	H	1.975525	-0.548371	-0.200016
O70	O	1.021166	-0.388811	0.000109
C71	C	0.952922	-0.348327	0.117679
H72	H	0.987710	-0.257185	0.156892
H73	H	0.849162	-0.331035	0.091227
H74	H	0.966707	-0.424020	0.199986
O75	O	1.027970	-0.130796	-0.000238
C76	C	0.958083	-0.154265	-0.117826
H77	H	0.987873	-0.253369	-0.157020
H78	H	0.854077	-0.145946	-0.091407
H79	H	0.975784	-0.082459	-0.200135
H80	H	1.623659	0.034931	0.636869
