data_functionalizedCrystal
_audit_creation_method	'MofGen! by Chris Wilmer'
_symmetry_space_group_name_H-M	'P1'
_symmetry_Int_Tables_number	1
_symmetry_cell_setting	triclinic
loop_
_symmetry_equiv_pos_as_xyz
  x,y,z
_cell_length_a	16.120530
_cell_length_b	13.032721
_cell_length_c	13.032268
_cell_angle_alpha	103.289627
_cell_angle_beta	94.642656
_cell_angle_gamma	94.676741
loop_
_atom_site_label
_atom_site_type_symbol
_atom_site_fract_x
_atom_site_fract_y
_atom_site_fract_z
Zn1	Zn	1.140844	-0.582228	-0.737196
Zn2	Zn	1.140755	-0.737306	-0.582138
Zn3	Zn	1.023441	-0.551167	-0.551075
Zn4	Zn	0.983450	-0.748315	-0.748236
O5	O	1.072122	-0.654754	-0.654661
O6	O	1.255799	-0.611192	-0.725007
O7	O	1.141891	-0.695007	-0.430612
O8	O	1.055788	-0.407879	-0.558145
O9	O	1.255733	-0.725127	-0.611086
O10	O	1.142044	-0.430700	-0.694887
O11	O	1.055701	-0.558252	-0.407790
O12	O	0.903169	-0.568927	-0.568849
O13	O	0.987631	-0.743890	-0.894177
O14	O	0.873789	-0.713771	-0.713702
O15	O	1.103267	-0.621867	-0.886066
O16	O	1.103114	-0.886174	-0.621791
O17	O	0.987544	-0.894263	-0.743822
C18	C	1.040999	-0.928444	-0.687400
C19	C	1.027756	-1.045540	-0.701446
C20	C	0.858670	-0.639174	-0.639104
C21	C	0.767348	-0.632537	-0.632476
C22	C	1.079073	-1.093717	-0.647381
C23	C	1.065386	-1.214741	-0.661897
C24	C	0.600142	-0.620396	-0.620382
C25	C	0.544926	-0.689199	-0.689026
C26	C	0.451887	-0.682444	-0.682297
C27	C	0.693190	-0.627150	-0.627110
C28	C	1.286409	-0.670396	-0.670280
C29	C	1.377725	-0.677062	-0.676936
C30	C	1.040998	-0.687571	-0.929410
C31	C	1.027735	-0.701556	-1.046492
C32	C	1.103387	-0.379999	-0.621819
C33	C	1.116710	-0.262915	-0.607824
C34	C	1.079036	-0.647416	-1.094678
C35	C	1.065329	-0.661869	-1.215688
C36	C	1.103182	-0.621992	-0.380975
C37	C	1.116638	-0.607722	-0.263870
H38	H	1.133142	-1.045369	-0.590350
O39	O	1.181181	-1.205345	-0.539640
C40	C	1.172159	-1.218346	-0.436528
H41	H	1.131848	-1.295726	-0.441533
H42	H	1.140913	-1.149182	-0.390562
C43	C	1.308473	-1.126411	-0.373078
C44	C	1.258969	-1.221455	-0.379226
H45	H	1.362021	-1.128324	-0.337729
H46	H	1.314551	-1.117648	-0.442546
H47	H	1.282425	-1.068784	-0.334776
H48	H	1.285011	-1.279078	-0.417539
H49	H	1.252897	-1.230228	-0.309763
H50	H	1.011319	-1.263090	-0.718940
O51	O	0.571785	-0.765664	-0.765121
C52	C	0.541589	-0.866356	-0.752974
H53	H	0.483572	-0.859198	-0.708315
H54	H	0.591985	-0.898705	-0.706408
C55	C	0.590159	-0.951110	-0.917789
C56	C	0.518897	-0.942320	-0.862945
H57	H	0.576164	-0.997970	-0.985624
H58	H	0.610505	-0.883272	-0.925972
H59	H	0.632149	-0.978063	-0.878973
H60	H	0.476912	-0.915354	-0.901756
H61	H	0.498543	-1.010155	-0.854772
H62	H	1.170707	-0.550660	-1.215541
O63	O	0.963349	-1.103343	-0.769565
C64	C	0.995232	-1.178429	-0.848641
H65	H	1.059886	-1.194859	-0.818038
H66	H	1.000123	-1.146029	-0.922318
C67	C	0.856708	-1.261843	-0.914421
C68	C	0.936114	-1.282030	-0.876830
H69	H	0.820239	-1.325748	-0.931814
H70	H	0.835226	-1.211254	-0.861149
H71	H	0.860795	-1.234841	-0.975814
H72	H	0.932027	-1.309019	-0.815431
H73	H	0.957593	-1.332626	-0.930093
H74	H	1.133103	-0.590362	-1.046343
H75	H	0.577540	-0.556424	-0.556565
O76	O	1.000885	-0.729932	-1.273501
C77	C	1.001538	-0.729200	-1.381450
H78	H	1.067187	-0.701091	-1.396864
H79	H	0.955675	-0.673254	-1.402417
C80	C	0.894894	-0.876468	-1.431293
C81	C	0.975527	-0.841952	-1.450226
H82	H	0.878845	-0.946017	-1.473719
H83	H	0.894451	-0.876959	-1.358565
H84	H	0.856684	-0.829837	-1.448765
H85	H	1.013736	-0.888575	-1.432742
H86	H	0.975975	-0.841471	-1.522953
O87	O	0.963330	-0.769750	-1.104211
C88	C	0.995206	-0.848730	-1.179407
H89	H	1.062909	-0.856015	-1.151681
H90	H	0.992366	-0.826251	-1.259057
C91	C	0.859253	-0.946580	-1.225459
C92	C	0.942405	-0.955534	-1.191401
H93	H	0.826681	-1.012461	-1.232862
H94	H	0.837776	-0.893368	-1.174801
H95	H	0.856898	-0.927844	-1.291830
H96	H	0.944759	-0.974256	-1.125025
H97	H	0.963881	-1.008751	-1.242048
