data_functionalizedCrystal
_audit_creation_method	'MofGen! by Chris Wilmer'
_symmetry_space_group_name_H-M	'P1'
_symmetry_Int_Tables_number	1
_symmetry_cell_setting	triclinic
loop_
_symmetry_equiv_pos_as_xyz
  x,y,z
_cell_length_a	19.188925
_cell_length_b	19.188930
_cell_length_c	13.448316
_cell_angle_alpha	89.988273
_cell_angle_beta	89.992287
_cell_angle_gamma	83.143665
loop_
_atom_site_label
_atom_site_type_symbol
_atom_site_fract_x
_atom_site_fract_y
_atom_site_fract_z
O1	O	0.926149	0.087151	-0.082724
O2	O	1.259483	0.420484	0.250609
O3	O	1.592816	0.753818	0.583942
O4	O	0.722837	0.098889	-0.082723
O5	O	1.056171	0.432223	0.250610
O6	O	1.389504	0.765556	0.583944
O7	O	0.830361	-0.008636	-0.082704
O8	O	1.163694	0.324698	0.250629
O9	O	1.497027	0.658031	0.583962
O10	O	0.818626	0.194676	-0.082743
O11	O	1.151960	0.528009	0.250590
O12	O	1.485293	0.861343	0.583924
O13	O	0.830347	-0.008642	0.082679
O14	O	1.163680	0.324691	0.416013
O15	O	1.497014	0.658025	0.749346
O16	O	0.722824	0.098883	0.082661
O17	O	1.056157	0.432216	0.415994
O18	O	1.389491	0.765549	0.749327
O19	O	0.926136	0.087145	0.082659
O20	O	1.259469	0.420478	0.415993
O21	O	1.592803	0.753811	0.749326
Cu22	Cu	0.824479	0.093013	0.097761
Cu23	Cu	1.157812	0.426346	0.431094
Cu24	Cu	1.491145	0.759680	0.764428
Cu25	Cu	0.824495	0.093021	-0.097825
Cu26	Cu	1.157828	0.426354	0.235509
Cu27	Cu	1.491161	0.759687	0.568842
O28	O	0.818613	0.194669	0.082641
O29	O	1.151946	0.528003	0.415974
O30	O	1.485279	0.861336	0.749307
C31	C	0.696820	0.098507	-0.000031
C32	C	1.030153	0.431840	0.333303
C33	C	1.363486	0.765173	0.666636
C34	C	0.619315	0.097367	-0.000029
C35	C	0.952648	0.430701	0.333304
C36	C	1.285982	0.764034	0.666637
C37	C	0.057545	0.152831	-0.000042
C38	C	0.390878	0.486165	0.333291
C39	C	0.724211	0.819498	0.666624
C40	C	0.130368	0.153908	-0.000048
C41	C	0.463701	0.487241	0.333285
C42	C	0.797035	0.820575	0.666619
C43	C	0.175302	0.090816	-0.000034
C44	C	0.508636	0.424149	0.333299
C45	C	0.841969	0.757482	0.666633
C46	C	0.147408	0.026642	-0.000040
C47	C	0.480742	0.359976	0.333293
C48	C	0.814075	0.693309	0.666626
C49	C	0.074586	0.025568	-0.000045
C50	C	0.407920	0.358901	0.333289
C51	C	0.741253	0.692234	0.666622
N52	N	0.295975	0.045137	0.056272
N53	N	0.629308	0.378471	0.389606
N54	N	0.962642	0.711804	0.722939
N55	N	0.365152	0.046163	0.056279
N56	N	0.698486	0.379496	0.389612
N57	N	1.031819	0.712829	0.722945
C58	C	0.394712	0.094050	-0.000023
C59	C	0.728045	0.427383	0.333310
C60	C	1.061378	0.760716	0.666644
N61	N	0.352479	0.140884	-0.056319
N62	N	0.685812	0.474217	0.277014
N63	N	1.019145	0.807550	0.610348
N64	N	0.283295	0.139861	-0.056321
N65	N	0.616628	0.473194	0.277013
N66	N	0.949962	0.806527	0.610346
C67	C	0.254267	0.091974	-0.000030
C68	C	0.587600	0.425307	0.333303
C69	C	0.920933	0.758641	0.666637
C70	C	0.501561	0.159386	-0.000030
C71	C	0.834894	0.492720	0.333303
C72	C	1.168227	0.826053	0.666637
C73	C	0.574385	0.160460	-0.000042
C74	C	0.907719	0.493794	0.333292
C75	C	1.241052	0.827127	0.666625
C76	C	0.591425	0.033193	-0.000024
C77	C	0.924758	0.366526	0.333309
C78	C	1.258091	0.699859	0.666643
C79	C	0.518601	0.032121	-0.000022
C80	C	0.851934	0.365454	0.333311
C81	C	1.185268	0.698787	0.666644
C82	C	0.473673	0.095220	-0.000021
C83	C	0.807006	0.428553	0.333313
C84	C	1.140340	0.761886	0.666646
C85	C	0.829974	-0.034650	-0.000010
C86	C	1.163307	0.298683	0.333324
C87	C	1.496640	0.632017	0.666657
C88	C	0.828833	-0.112154	-0.000001
C89	C	1.162166	0.221179	0.333332
C90	C	1.495500	0.554512	0.666666
C91	C	0.891924	-0.157079	0.000003
C92	C	1.225257	0.176254	0.333337
C93	C	1.558591	0.509587	0.666670
C94	C	0.890852	-0.229903	-0.000013
C95	C	1.224186	0.103430	0.333321
C96	C	1.557519	0.436763	0.666654
C97	C	0.826686	-0.257799	-0.000013
C98	C	1.160020	0.075535	0.333320
C99	C	1.493353	0.408868	0.666654
C100	C	0.763587	-0.212864	-0.000023
C101	C	1.096920	0.120470	0.333310
C102	C	1.430254	0.453803	0.666644
C103	C	0.764660	-0.140041	-0.000017
C104	C	1.097994	0.193292	0.333316
C105	C	1.431327	0.526625	0.666650
N106	N	0.777634	-0.365805	0.056271
N107	N	1.110967	-0.032472	0.389604
N108	N	1.444301	0.300862	0.722937
N109	N	0.776619	-0.434983	0.056267
N110	N	1.109952	-0.101650	0.389600
N111	N	1.443285	0.231683	0.722934
C112	C	0.823448	-0.477207	-0.000033
C113	C	1.156781	-0.143874	0.333300
C114	C	1.490115	0.189459	0.666634
N115	N	0.871342	-0.447640	-0.056317
N116	N	1.204675	-0.114307	0.277016
N117	N	1.538008	0.219026	0.610350
N118	N	0.872359	-0.378456	-0.056309
N119	N	1.205693	-0.045122	0.277024
N120	N	1.539026	0.288211	0.610358
C121	C	0.825515	-0.336761	-0.000020
C122	C	1.158848	-0.003428	0.333313
C123	C	1.492182	0.329906	0.666647
C124	C	0.885381	-0.601097	-0.000047
C125	C	1.218715	-0.267763	0.333286
C126	C	1.552048	0.065570	0.666619
C127	C	0.884307	-0.673922	-0.000069
C128	C	1.217640	-0.340588	0.333264
C129	C	1.550974	-0.007255	0.666597
C130	C	0.757040	-0.656880	-0.000070
C131	C	1.090373	-0.323547	0.333264
C132	C	1.423706	0.009786	0.666597
C133	C	0.758116	-0.584057	-0.000058
C134	C	1.091449	-0.250724	0.333276
C135	C	1.424782	0.082610	0.666609
C136	C	0.822289	-0.556170	-0.000042
C137	C	1.155622	-0.222837	0.333292
C138	C	1.488955	0.110497	0.666625
C139	C	0.952154	0.087527	-0.000035
C140	C	1.285487	0.420861	0.333298
C141	C	1.618820	0.754194	0.666632
C142	C	1.029658	0.088666	-0.000043
C143	C	1.362992	0.422000	0.333290
C144	C	1.696325	0.755333	0.666624
C145	C	0.819000	0.220684	-0.000056
C146	C	1.152333	0.554017	0.333277
C147	C	1.485666	0.887350	0.666610
C148	C	0.820140	0.298188	-0.000071
C149	C	1.153474	0.631522	0.333262
C150	C	1.486807	0.964855	0.666595
N151	N	0.824473	0.093007	0.235325
N152	N	1.157806	0.426340	0.568659
N153	N	1.491139	0.759674	0.901992
N154	N	0.824506	0.093021	-0.235389
N155	N	1.157840	0.426354	0.097944
N156	N	1.491173	0.759688	0.431278
C157	C	0.872098	0.045415	0.287374
C158	C	1.205432	0.378748	0.620707
C159	C	1.538765	0.712081	0.954041
C160	C	0.872103	0.045414	0.391477
C161	C	1.205436	0.378747	0.724810
C162	C	1.538770	0.712081	1.058144
C163	C	0.824484	0.093010	0.443530
C164	C	1.157817	0.426343	0.776863
C165	C	1.491151	0.759677	1.110196
C166	C	0.776853	0.140605	0.391474
C167	C	1.110187	0.473938	0.724807
C168	C	1.443520	0.807271	1.058140
C169	C	0.776846	0.140601	0.287372
C170	C	1.110179	0.473935	0.620706
C171	C	1.443513	0.807268	0.954039
C172	C	0.776873	0.140609	0.608454
C173	C	1.110206	0.473943	0.941787
C174	C	1.443539	0.807276	1.275121
C175	C	0.776880	0.140614	0.712562
C176	C	1.110214	0.473947	1.045896
C177	C	1.443547	0.807280	1.379229
C178	C	0.872129	0.045422	0.712559
C179	C	1.205463	0.378755	1.045892
C180	C	1.538796	0.712089	1.379225
C181	C	0.872122	0.045419	0.608457
C182	C	1.205456	0.378752	0.941791
C183	C	1.538789	0.712085	1.275124
C184	C	0.824492	0.093015	0.556408
C185	C	1.157825	0.426348	0.889742
C186	C	1.491159	0.759681	1.223075
H187	H	0.183999	-0.024728	-0.000032
H188	H	0.517332	0.308606	0.333301
H189	H	0.850665	0.641939	0.666635
H190	H	0.713282	-0.103462	-0.000020
H191	H	1.046616	0.229871	0.333313
H192	H	1.379949	0.563204	0.666646
H193	H	0.738078	0.179356	0.433861
H194	H	1.071411	0.512689	0.767194
H195	H	1.404744	0.846023	1.100528
H196	H	0.910883	0.006660	0.433855
H197	H	1.244216	0.339993	0.767188
H198	H	1.577550	0.673327	1.100521
H199	H	0.738063	0.179355	0.244995
H200	H	1.071397	0.512689	0.578329
H201	H	1.404730	0.846022	0.911662
H202	H	0.020968	0.204211	-0.000046
H203	H	0.354302	0.537545	0.333288
H204	H	0.687635	0.870878	0.666621
H205	H	0.706740	-0.547478	-0.000056
H206	H	1.040073	-0.214144	0.333278
H207	H	1.373407	0.119189	0.666611
H208	H	0.944179	-0.134379	0.000013
H209	H	1.277512	0.198954	0.333346
H210	H	1.610845	0.532288	0.666680
N211	N	0.046099	-0.039979	-0.000015
N212	N	0.379433	0.293354	0.333319
N213	N	0.712766	0.626687	0.666652
N214	N	0.007363	-0.054779	0.069707
N215	N	0.340696	0.278554	0.403041
N216	N	0.674029	0.611888	0.736374
H217	H	-0.012757	-0.101073	0.069734
H218	H	0.320576	0.232260	0.403067
H219	H	0.653909	0.565594	0.736400
N220	N	0.158852	0.219460	-0.000047
N221	N	0.492185	0.552793	0.333286
N222	N	0.825518	0.886127	0.666620
N223	N	0.118730	0.275791	-0.000047
N224	N	0.452063	0.609124	0.333286
N225	N	0.785397	0.942457	0.666619
H226	H	0.138844	0.322088	-0.000044
H227	H	0.472177	0.655421	0.333289
H228	H	0.805511	0.988754	0.666622
N229	N	0.490100	-0.033417	0.000007
N230	N	0.823433	0.299916	0.333340
N231	N	1.156767	0.633250	0.666674
N232	N	0.425080	-0.034368	0.000011
N233	N	0.758413	0.298965	0.333345
N234	N	1.091747	0.632298	0.666678
H235	H	0.404950	-0.080657	0.000033
H236	H	0.738283	0.252676	0.333366
H237	H	1.071617	0.586010	0.666700
H238	H	0.937635	-0.578390	-0.000039
H239	H	1.270968	-0.245057	0.333294
H240	H	1.604301	0.088277	0.666628
H241	H	0.704794	-0.679592	-0.000075
H242	H	1.038128	-0.346258	0.333258
H243	H	1.371461	-0.012925	0.666592
H244	H	0.738085	0.179365	0.566079
H245	H	1.071418	0.512698	0.899413
H246	H	1.404751	0.846031	1.232746
H247	H	0.942230	-0.266488	-0.000013
H248	H	1.275564	0.066845	0.333320
H249	H	1.608897	0.400178	0.666654
H250	H	0.910878	0.006659	0.244999
H251	H	1.244211	0.339993	0.578333
H252	H	1.577545	0.673326	0.911666
N253	N	0.948765	-0.719803	-0.000056
N254	N	1.282098	-0.386469	0.333277
N255	N	1.615431	-0.053136	0.666611
N256	N	0.991478	-0.717384	0.069666
N257	N	1.324812	-0.384051	0.402999
N258	N	1.658145	-0.050717	0.736333
H259	H	1.037004	-0.749787	0.069677
H260	H	1.370337	-0.416454	0.403010
H261	H	1.703670	-0.083121	0.736344
N262	N	0.920804	-0.003167	0.555300
N263	N	1.254137	0.330167	0.888633
N264	N	1.587470	0.663500	1.221967
N265	N	0.963347	-0.045637	0.601781
N266	N	1.296681	0.287696	0.935114
N267	N	1.630014	0.621029	1.268447
H268	H	0.997741	-0.079941	0.564239
H269	H	1.331074	0.253392	0.897573
H270	H	1.664408	0.586726	1.230906
N271	N	0.920771	-0.003221	0.765701
N272	N	1.254104	0.330112	1.099034
N273	N	1.587437	0.663445	1.432367
N274	N	0.920003	-0.067752	0.754068
N275	N	1.253336	0.265582	1.087401
N276	N	1.586670	0.598915	1.420735
H277	H	0.954356	-0.102109	0.791596
H278	H	1.287689	0.231225	1.124929
H279	H	1.621022	0.564558	1.458263
N280	N	0.455673	0.223843	-0.000028
N281	N	0.789006	0.557176	0.333305
N282	N	1.122340	0.890509	0.666638
N283	N	0.480585	0.281131	-0.000036
N284	N	0.813918	0.614464	0.333297
N285	N	1.147251	0.947798	0.666631
H286	H	0.448179	0.326655	-0.000034
H287	H	0.781512	0.659988	0.333299
H288	H	1.114845	0.993321	0.666633
H289	H	0.597088	0.212713	-0.000049
H290	H	0.930421	0.546046	0.333284
H291	H	1.263755	0.879380	0.666617
H292	H	0.738104	0.179370	0.754938
H293	H	1.071437	0.512704	1.088272
H294	H	1.404770	0.846037	1.421605
H295	H	0.628010	-0.018178	-0.000020
H296	H	0.961343	0.315155	0.333313
H297	H	1.294676	0.648489	0.666646
H298	H	0.711342	-0.235581	-0.000025
H299	H	1.044676	0.097753	0.333308
H300	H	1.378009	0.431086	0.666641
