data_functionalizedCrystal
_audit_creation_method	'MofGen! by Chris Wilmer'
_symmetry_space_group_name_H-M	'P1'
_symmetry_Int_Tables_number	1
_symmetry_cell_setting	triclinic
loop_
_symmetry_equiv_pos_as_xyz
  x,y,z
_cell_length_a	23.532361
_cell_length_b	23.532407
_cell_length_c	22.010155
_cell_angle_alpha	90.000423
_cell_angle_beta	89.995873
_cell_angle_gamma	97.160827
loop_
_atom_site_label
_atom_site_type_symbol
_atom_site_fract_x
_atom_site_fract_y
_atom_site_fract_z
O1	O	0.755281	-0.069001	-0.050470
O2	O	0.589414	-0.079032	-0.050486
O3	O	0.677349	0.008916	-0.050466
O4	O	0.667346	-0.156949	-0.050490
O5	O	0.677333	0.008903	0.050584
O6	O	0.589398	-0.079045	0.050565
O7	O	0.755265	-0.069014	0.050580
Cu8	Cu	0.672330	-0.074030	0.059799
Cu9	Cu	0.672349	-0.074015	-0.059705
O10	O	0.667330	-0.156962	0.050561
C11	C	0.568189	-0.078787	0.000038
C12	C	0.504971	-0.078032	0.000032
C13	C	0.231736	-0.074721	-0.055046
C14	C	0.291136	-0.075436	-0.055048
O15	O	0.321869	-0.075780	-0.101892
N16	N	0.320832	-0.075804	0.000035
C17	C	0.291127	-0.075452	0.055123
O18	O	0.321841	-0.075830	0.101975
C19	C	0.231729	-0.074733	0.055124
C20	C	0.202035	-0.074370	0.000037
C21	C	0.202041	-0.074358	-0.110128
C22	C	0.142645	-0.073644	-0.110126
C23	C	0.112944	-0.073293	-0.055043
C24	C	0.142639	-0.073657	0.000039
C25	C	0.202026	-0.074376	0.110211
C26	C	0.142624	-0.073657	0.110207
C27	C	0.112929	-0.073294	0.055121
C28	C	0.053542	-0.072592	0.055125
N29	N	0.023845	-0.072224	0.000042
C30	C	0.053546	-0.072574	-0.055042
C31	C	0.415868	-0.076961	0.055117
C32	C	0.475264	-0.077684	0.055116
C33	C	0.475268	-0.077667	-0.055055
C34	C	0.415870	-0.076948	-0.055054
C35	C	0.386171	-0.076593	0.000034
C36	C	-0.071190	-0.071076	-0.055034
C37	C	-0.130591	-0.070364	-0.055027
C38	C	-0.130589	-0.070378	0.055144
C39	C	-0.071194	-0.071093	0.055137
C40	C	-0.041495	-0.071440	0.000044
O41	O	0.022771	-0.072245	0.101945
O42	O	0.022826	-0.072188	-0.101886
C43	C	0.677086	0.030126	0.000060
C44	C	0.676320	0.093343	0.000065
C45	C	0.776489	-0.069258	0.000055
C46	C	0.839708	-0.070014	0.000057
C47	C	0.667592	-0.178171	0.000033
C48	C	0.668358	-0.241388	0.000024
N49	N	0.672321	-0.074041	0.143851
C50	C	0.723555	0.492454	0.000036
C51	C	0.722844	0.551854	0.000031
O52	O	0.766630	0.588606	0.000013
N53	N	0.670566	0.574471	0.000027
C54	C	0.618997	0.537685	0.000021
O55	O	0.574465	0.562377	0.000016
C56	C	0.619709	0.478286	0.000021
C57	C	0.671990	0.455672	0.000032
C58	C	0.775832	0.469839	0.000046
C59	C	0.776543	0.410443	0.000052
C60	C	0.724977	0.373662	0.000048
C61	C	0.672701	0.396276	0.000038
C62	C	0.568140	0.441501	0.000011
C63	C	0.568857	0.382099	0.000011
C64	C	0.621137	0.359485	0.000021
C65	C	0.621847	0.300099	0.000039
N66	N	0.674124	0.277481	0.000044
C67	C	0.725690	0.314263	0.000048
C68	C	0.617505	0.662427	0.000019
C69	C	0.616793	0.721825	0.000023
C70	C	0.720640	0.735990	0.000032
C71	C	0.721352	0.676591	0.000033
C72	C	0.669783	0.639810	0.000024
C73	C	0.727179	0.189526	0.000061
C74	C	0.727886	0.130124	0.000069
C75	C	0.624039	0.115965	0.000057
C76	C	0.623332	0.175361	0.000051
C77	C	0.674907	0.212141	0.000051
O78	O	0.578083	0.263312	0.000055
O79	O	0.770214	0.289562	0.000045
N80	N	0.672362	-0.074000	-0.143757
C81	C	0.711289	-0.035077	0.563639
C82	C	0.711291	-0.035073	0.627247
O83	O	0.744400	-0.001952	0.660146
N84	N	0.672349	-0.074003	0.659059
C85	C	0.633397	-0.112935	0.627259
O86	O	0.600272	-0.146048	0.660158
C87	C	0.633392	-0.112936	0.563653
C88	C	0.672341	-0.074008	0.531845
C89	C	0.750235	0.003849	0.531831
C90	C	0.750232	0.003844	0.468228
C91	C	0.711285	-0.035087	0.436433
C92	C	0.672339	-0.074012	0.468241
C93	C	0.594437	-0.151866	0.531855
C94	C	0.594436	-0.151863	0.468244
C95	C	0.633385	-0.112934	0.436436
C96	C	0.633389	-0.112948	0.372843
N97	N	0.672332	-0.074018	0.341032
C98	C	0.711280	-0.035087	0.372827
C99	C	0.633409	-0.112930	0.760837
C100	C	0.633416	-0.112933	0.824442
C101	C	0.711311	-0.035069	0.824426
C102	C	0.711306	-0.035070	0.760819
C103	C	0.672352	-0.074000	0.729025
C104	C	0.711273	-0.035101	0.239255
C105	C	0.711269	-0.035110	0.175646
C106	C	0.633373	-0.112971	0.175669
C107	C	0.633378	-0.112964	0.239272
C108	C	0.672331	-0.074024	0.271064
O109	O	0.600295	-0.146051	0.339904
O110	O	0.744393	-0.001976	0.339920
H111	H	0.499462	-0.077952	-0.099907
H112	H	0.574220	0.740232	0.000025
N113	N	0.554646	-0.191619	0.564345
N114	N	0.554642	-0.191617	0.621136
H115	H	0.526536	-0.219693	0.644082
N116	N	0.564820	0.624866	0.000012
N117	N	0.518151	0.645074	0.000007
H118	H	0.480941	0.618550	0.000000
H119	H	0.525567	0.459902	-0.000001
H120	H	0.526862	0.352154	0.000003
N121	N	-0.040855	-0.071494	0.111400
N122	N	-0.052969	-0.111581	0.148264
H123	H	-0.031543	-0.111866	0.188000
N124	N	0.593634	-0.152693	0.856939
N125	N	0.593634	-0.152688	0.913730
H126	H	0.565534	-0.180768	0.936680
H127	H	0.601690	-0.144637	0.734954
H128	H	0.743021	-0.003371	0.734925
N129	N	0.828503	0.507414	0.000048
N130	N	0.839709	0.542143	-0.042542
H131	H	0.876911	0.568679	-0.042536
N132	N	0.385543	-0.076560	-0.111323
N133	N	0.357888	-0.036003	-0.123609
H134	H	0.336472	-0.035726	-0.163351
H135	H	-0.154766	-0.070071	-0.099887
H136	H	0.562713	-0.183564	0.442360
N137	N	0.593592	-0.152733	0.271757
N138	N	0.558820	-0.187489	0.243358
H139	H	0.530715	-0.215573	0.266297
N140	N	0.232373	-0.074704	-0.166402
N141	N	0.231215	-0.034468	-0.203276
H142	H	0.252632	-0.034715	-0.243024
N143	N	0.593596	-0.152735	0.143175
N144	N	0.593603	-0.152727	0.086384
H145	H	0.565509	-0.180808	0.063433
H146	H	0.391689	-0.076679	0.099978
N147	N	0.751092	0.004710	0.856901
N148	N	0.785861	0.039471	0.828499
H149	H	0.813956	0.067564	0.851435
H150	H	0.742990	-0.003391	0.265133
H151	H	0.742988	-0.003410	0.149750
H152	H	-0.154783	-0.070095	0.099991
N153	N	0.569925	0.198455	0.000059
N154	N	0.523889	0.165605	0.000065
H155	H	0.486168	0.181911	0.000069
H156	H	0.118474	-0.073346	-0.154983
N157	N	0.779866	0.227082	0.000071
N158	N	0.814699	0.225183	0.042675
H159	H	0.851909	0.251706	0.042687
H160	H	0.781947	0.035545	0.442333
N161	N	0.505582	-0.078068	0.111391
N162	N	0.479048	-0.077759	0.160566
H163	H	0.500458	-0.078029	0.200313
H164	H	-0.047016	-0.071359	-0.099896
H165	H	0.582056	0.086007	0.000055
N166	N	0.774760	0.653504	0.000046
N167	N	0.820794	0.686358	0.000055
H168	H	0.858516	0.670056	0.000064
N169	N	0.790024	0.043626	0.564293
N170	N	0.824789	0.078375	0.535873
H171	H	0.852895	0.106469	0.558794
H172	H	0.226193	-0.074670	0.155068
H173	H	0.770461	0.111716	0.000079
N174	N	0.112297	-0.073290	0.166485
N175	N	0.138822	-0.073612	0.215660
H176	H	0.117405	-0.073354	0.255407
H177	H	0.819115	0.392037	0.000058
N178	N	0.773309	0.773576	0.000040
N179	N	0.772660	0.826608	0.000039
H180	H	0.809855	0.853156	0.000046
