data_functionalizedCrystal
_audit_creation_method	'MofGen! by Chris Wilmer'
_symmetry_space_group_name_H-M	'P1'
_symmetry_Int_Tables_number	1
_symmetry_cell_setting	triclinic
loop_
_symmetry_equiv_pos_as_xyz
  x,y,z
_cell_length_a	18.050589
_cell_length_b	19.805407
_cell_length_c	19.805399
_cell_angle_alpha	89.978486
_cell_angle_beta	89.976299
_cell_angle_gamma	90.027468
loop_
_atom_site_label
_atom_site_type_symbol
_atom_site_fract_x
_atom_site_fract_y
_atom_site_fract_z
Zn1	Zn	-0.295681	1.034709	-0.382828
Zn2	Zn	-0.419876	1.034626	-0.269650
Zn3	Zn	-0.295703	0.921529	-0.269644
Zn4	Zn	-0.419832	0.921484	-0.382788
O5	O	-0.357773	0.978087	-0.326227
O6	O	-0.312165	1.129415	-0.367834
O7	O	-0.403432	1.019607	-0.174933
O8	O	-0.191776	0.936597	-0.284672
O9	O	-0.403411	1.129353	-0.284683
O10	O	-0.191760	1.019750	-0.367828
O11	O	-0.312203	0.936516	-0.174928
O12	O	-0.312160	0.826807	-0.284633
O13	O	-0.403336	0.936519	-0.477510
O14	O	-0.403357	0.826773	-0.367759
O15	O	-0.312122	1.019706	-0.477539
O16	O	-0.523795	1.019563	-0.284644
O17	O	-0.523763	0.936438	-0.367766
C18	C	-0.357757	0.802231	-0.326191
C19	C	-0.357767	0.726999	-0.326192
C20	C	-0.405349	0.265208	-0.369487
C21	C	-0.405348	0.335897	-0.369473
C22	C	-0.357791	0.371237	-0.326254
C23	C	-0.310238	0.335886	-0.283042
C24	C	-0.310244	0.265199	-0.283053
C25	C	-0.310215	0.620959	-0.282994
C26	C	-0.310212	0.691651	-0.282988
C27	C	-0.405319	0.691657	-0.369414
C28	C	-0.405325	0.620970	-0.369425
C29	C	-0.357775	0.585625	-0.326211
C30	C	-0.357778	0.508976	-0.326226
C31	C	-0.357784	0.447884	-0.326242
C32	C	-0.550725	0.978005	-0.326216
C33	C	-0.633271	0.978032	-0.326234
C34	C	-0.832731	0.932873	-0.371420
C35	C	-0.882171	0.916378	-0.309655
C36	C	-0.784402	0.978099	-0.326243
C37	C	-0.882043	0.994627	-0.388014
C38	C	-0.930387	0.978162	-0.326257
C39	C	-0.832755	0.961571	-0.264446
C40	C	-0.832622	1.039849	-0.342846
C41	C	-0.882040	1.023377	-0.281039
C42	C	-0.700303	0.978061	-0.326236
C43	C	-1.014483	0.978200	-0.326257
C44	C	-0.164068	0.978187	-0.326254
C45	C	-0.081522	0.978230	-0.326265
C46	C	-0.357722	0.978117	-0.502770
C47	C	-0.357700	0.978129	-0.578002
C48	C	-0.357791	1.154630	-0.326264
C49	C	-0.357798	1.229862	-0.326280
C50	C	-0.310192	0.934876	-0.613343
C51	C	-0.310178	0.934885	-0.684032
C52	C	-0.357668	0.978152	-0.719378
C53	C	-0.405181	1.021407	-0.684032
C54	C	-0.405198	1.021394	-0.613345
C55	C	-0.405111	1.021461	-0.969105
C56	C	-0.405088	1.021472	-1.039797
C57	C	-0.310091	0.934952	-1.039792
C58	C	-0.310108	0.934939	-0.969105
C59	C	-0.357624	0.978191	-0.933765
C60	C	-0.357640	0.978180	-0.857117
C61	C	-0.357648	0.978167	-0.796025
C62	C	-0.357771	0.978096	-0.150371
C63	C	-0.357584	0.978215	-0.075140
H64	H	-0.271500	0.592189	-0.247804
H65	H	-0.444048	0.592199	-0.404620
H66	H	-0.443878	1.056621	-0.584571
H67	H	-0.903554	1.061650	-0.242797
O68	O	-0.451238	1.063414	-0.934678
C69	C	-0.493346	1.101774	-0.825785
C70	C	-0.441081	1.054214	-0.864693
H71	H	-0.485141	1.094362	-0.769196
H72	H	-0.553240	1.089858	-0.839624
H73	H	-0.480313	1.156353	-0.839737
H74	H	-0.454047	0.999619	-0.850762
H75	H	-0.381202	1.066187	-0.850850
O76	O	-0.264045	0.892856	-1.074152
C77	C	-0.254020	0.801514	-1.153968
C78	C	-0.306250	0.849131	-1.115089
H79	H	-0.288120	0.766160	-1.187085
H80	H	-0.220093	0.770542	-1.116591
H81	H	-0.215168	0.832628	-1.187046
H82	H	-0.345146	0.818070	-1.082009
H83	H	-0.340125	0.880106	-1.152501
H84	H	-0.444039	0.720444	-0.404599
O85	O	-0.451458	0.370199	-0.411544
C86	C	-0.487691	0.391837	-0.526620
C87	C	-0.435410	0.352962	-0.479049
H88	H	-0.474745	0.377904	-0.581207
H89	H	-0.479524	0.448438	-0.519249
H90	H	-0.547554	0.377913	-0.514612
H91	H	-0.375527	0.366829	-0.491028
H92	H	-0.443642	0.296370	-0.486429
O93	O	-0.806667	1.102077	-0.359736
C94	C	-0.802325	1.189841	-0.443943
C95	C	-0.831755	1.119357	-0.424898
H96	H	-0.822609	1.203840	-0.496622
H97	H	-0.739173	1.189348	-0.443333
H98	H	-0.823448	1.228541	-0.405945
H99	H	-0.810686	1.080618	-0.462877
H100	H	-0.894905	1.119907	-0.425488
O101	O	-0.264065	0.370318	-0.241122
C102	C	-0.221932	0.479210	-0.202774
C103	C	-0.274251	0.440302	-0.250292
H104	H	-0.230160	0.535799	-0.210161
H105	H	-0.162051	0.465389	-0.214755
H106	H	-0.234890	0.465238	-0.148186
H107	H	-0.261360	0.454253	-0.304896
H108	H	-0.334117	0.454126	-0.238252
O109	O	-0.451297	1.063522	-1.074029
C110	C	-0.545504	1.149362	-1.066579
C111	C	-0.493229	1.101767	-1.027728
H112	H	-0.579409	1.180305	-1.029161
H113	H	-0.584368	1.118301	-1.099644
H114	H	-0.511392	1.184750	-1.099702
H115	H	-0.527281	1.066369	-0.994568
H116	H	-0.454363	1.132870	-0.994705
O117	O	-0.907785	1.011201	-0.450378
C118	C	-0.911959	0.982179	-0.568461
C119	C	-0.882747	0.963348	-0.497874
H120	H	-0.891740	0.943493	-0.606878
H121	H	-0.890706	1.034406	-0.583033
H122	H	-0.975109	0.982558	-0.567716
H123	H	-0.819599	0.962931	-0.498564
H124	H	-0.904057	0.911134	-0.483329
O125	O	-0.264037	0.892781	-0.579116
C126	C	-0.169782	0.806986	-0.586580
C127	C	-0.222025	0.854616	-0.625424
H128	H	-0.135791	0.776127	-0.624003
H129	H	-0.203849	0.771525	-0.553493
H130	H	-0.130991	0.838083	-0.553479
H131	H	-0.260826	0.823574	-0.658561
H132	H	-0.187912	0.890078	-0.658468
H133	H	-0.271483	0.720423	-0.247792
H134	H	-0.443852	1.056632	-0.712816
H135	H	-0.271521	0.236420	-0.247871
H136	H	-0.271495	0.899661	-0.712803
H137	H	-0.811080	0.894572	-0.409570
H138	H	-0.811193	0.947556	-0.212197
O139	O	-0.451438	0.230850	-0.411543
C140	C	-0.461564	0.151056	-0.502896
C141	C	-0.409281	0.189935	-0.455321
H142	H	-0.427502	0.117956	-0.538293
H143	H	-0.495539	0.188432	-0.533824
H144	H	-0.500369	0.117960	-0.471751
H145	H	-0.370431	0.223032	-0.486413
H146	H	-0.375359	0.152522	-0.424390
O147	O	-0.908105	0.854072	-0.293013
C148	C	-0.912367	0.735925	-0.321770
C149	C	-0.882967	0.806451	-0.340698
H150	H	-0.892042	0.697402	-0.360305
H151	H	-0.975519	0.736637	-0.321485
H152	H	-0.891261	0.721518	-0.269471
H153	H	-0.904018	0.820902	-0.393000
H154	H	-0.819816	0.805701	-0.340936
O155	O	-0.263953	0.892845	-0.934875
C156	C	-0.169696	0.807052	-0.942333
C157	C	-0.221939	0.854680	-0.981180
H158	H	-0.135702	0.776193	-0.979753
H159	H	-0.203763	0.771592	-0.909246
H160	H	-0.130907	0.838151	-0.909232
H161	H	-0.260738	0.823635	-1.014318
H162	H	-0.187825	0.890141	-1.014225
