data_functionalizedCrystal
_audit_creation_method	'MofGen! by Chris Wilmer'
_symmetry_space_group_name_H-M	'P1'
_symmetry_Int_Tables_number	1
_symmetry_cell_setting	triclinic
loop_
_symmetry_equiv_pos_as_xyz
  x,y,z
_cell_length_a	19.288864
_cell_length_b	23.532407
_cell_length_c	18.366186
_cell_angle_alpha	89.989089
_cell_angle_beta	89.977106
_cell_angle_gamma	82.992461
loop_
_atom_site_label
_atom_site_type_symbol
_atom_site_fract_x
_atom_site_fract_y
_atom_site_fract_z
O1	O	0.921134	0.071045	-0.060790
O2	O	1.421134	0.571045	0.439210
O3	O	0.718843	0.080629	-0.060742
O4	O	1.218843	0.580629	0.439258
O5	O	0.826089	-0.007082	-0.060754
O6	O	1.326089	0.492918	0.439246
O7	O	0.813889	0.158756	-0.060778
O8	O	1.313889	0.658756	0.439222
O9	O	0.826071	-0.007086	0.060345
O10	O	1.326071	0.492914	0.560345
O11	O	0.718825	0.080625	0.060358
O12	O	1.218825	0.580625	0.560358
O13	O	0.921116	0.071041	0.060309
O14	O	1.421116	0.571041	0.560309
Zn15	Zn	0.819968	0.075832	0.079560
Zn16	Zn	1.319968	0.575832	0.579560
Zn17	Zn	0.819991	0.075838	-0.079993
Zn18	Zn	1.319991	0.575838	0.420007
O19	O	0.813870	0.158752	0.060321
O20	O	1.313870	0.658752	0.560321
C21	C	0.692959	0.080319	-0.000186
C22	C	1.192959	0.580319	0.499814
C23	C	0.615858	0.079393	-0.000166
C24	C	1.115858	0.579393	0.499834
C25	C	0.825769	-0.028301	-0.000203
C26	C	1.325769	0.471699	0.499797
C27	C	0.824835	-0.091520	-0.000197
C28	C	1.324835	0.408480	0.499803
C29	C	0.571003	0.130858	-0.000185
C30	C	1.071003	0.630858	0.499815
C31	C	0.498559	0.129988	-0.000193
C32	C	0.998559	0.629988	0.499807
C33	C	0.470973	0.077651	-0.000197
C34	C	0.970973	0.577651	0.499803
C35	C	0.515838	0.026179	-0.000174
C36	C	1.015838	0.526179	0.499826
C37	C	0.588280	0.027050	-0.000159
C38	C	1.088280	0.527050	0.499841
C39	C	0.362844	0.036509	-0.042642
C40	C	0.862844	0.536509	0.457358
C41	C	0.290402	0.035640	-0.042662
C42	C	0.790402	0.535640	0.457338
C43	C	0.247535	0.074961	-0.000240
C44	C	0.747535	0.574961	0.499760
C45	C	0.277118	0.115162	0.042191
C46	C	0.777118	0.615162	0.542191
C47	C	0.349561	0.116033	0.042206
C48	C	0.849561	0.616033	0.542206
C49	C	0.392422	0.076700	-0.000213
C50	C	0.892422	0.576700	0.499787
C51	C	0.124127	0.125487	-0.000267
C52	C	0.624127	0.625487	0.499733
C53	C	0.051682	0.124615	-0.000270
C54	C	0.551682	0.624615	0.499730
C55	C	0.068962	0.020805	-0.000258
C56	C	0.568962	0.520805	0.499742
C57	C	0.141406	0.021678	-0.000248
C58	C	0.641406	0.521678	0.499752
C59	C	0.168984	0.074021	-0.000255
C60	C	0.668984	0.574021	0.499745
C61	C	0.882442	-0.490503	-0.000251
C62	C	1.382442	0.009497	0.499749
C63	C	0.881574	-0.549905	-0.000256
C64	C	1.381574	-0.049905	0.499744
O65	O	0.934976	-0.586539	-0.000296
O66	O	1.434976	-0.086539	0.499704
N67	N	0.817817	-0.572664	-0.000240
N68	N	1.317817	-0.072664	0.499760
C69	C	0.754923	-0.536017	-0.000226
C70	C	1.254923	-0.036017	0.499774
O71	O	0.700613	-0.560829	-0.000214
O72	O	1.200613	-0.060829	0.499786
C73	C	0.755792	-0.476616	-0.000226
C74	C	1.255792	0.023384	0.499774
C75	C	0.819553	-0.453861	-0.000235
C76	C	1.319553	0.046139	0.499765
C77	C	0.946198	-0.467748	-0.000260
C78	C	1.446198	0.032252	0.499740
C79	C	0.947065	-0.408350	-0.000253
C80	C	1.447065	0.091650	0.499747
C81	C	0.884177	-0.371707	-0.000237
C82	C	1.384177	0.128293	0.499763
C83	C	0.820420	-0.394463	-0.000228
C84	C	1.320420	0.105537	0.499772
C85	C	0.692899	-0.439970	-0.000217
C86	C	1.192899	0.060030	0.499783
C87	C	0.693773	-0.380565	-0.000218
C88	C	1.193773	0.119435	0.499782
C89	C	0.757534	-0.357810	-0.000226
C90	C	1.257534	0.142190	0.499774
C91	C	0.758399	-0.298422	-0.000205
C92	C	1.258399	0.201578	0.499795
N93	N	0.822156	-0.275664	-0.000221
N94	N	1.322156	0.224336	0.499779
C95	C	0.885045	-0.312307	-0.000237
C96	C	1.385045	0.187693	0.499763
C97	C	0.753104	-0.660763	-0.000228
C98	C	1.253104	-0.160763	0.499772
C99	C	0.752235	-0.720163	-0.000223
C100	C	1.252235	-0.220163	0.499777
C101	C	0.878886	-0.734047	-0.000254
C102	C	1.378886	-0.234047	0.499746
C103	C	0.879755	-0.674647	-0.000254
C104	C	1.379755	-0.174647	0.499746
C105	C	0.816861	-0.638005	-0.000244
C106	C	1.316861	-0.138005	0.499756
C107	C	0.886862	-0.187566	-0.000222
C108	C	1.386862	0.312434	0.499778
C109	C	0.887724	-0.128162	-0.000213
C110	C	1.387724	0.371838	0.499787
C111	C	0.761073	-0.114283	-0.000185
C112	C	1.261073	0.385717	0.499815
C113	C	0.760211	-0.173681	-0.000191
C114	C	1.260211	0.326319	0.499809
C115	C	0.823111	-0.210322	-0.000212
C116	C	1.323111	0.289678	0.499788
O117	O	0.705025	-0.261754	-0.000168
O118	O	1.205025	0.238246	0.499832
O119	O	0.939346	-0.287486	-0.000259
O120	O	1.439346	0.212514	0.499741
C121	C	0.947000	0.071351	-0.000249
C122	C	1.447000	0.571351	0.499751
C123	C	1.024101	0.072277	-0.000273
C124	C	1.524101	0.572277	0.499727
C125	C	0.814190	0.179971	-0.000232
C126	C	1.314190	0.679971	0.499768
C127	C	0.815124	0.243190	-0.000242
C128	C	1.315124	0.743190	0.499758
N129	N	0.819956	0.075828	0.188452
N130	N	1.319956	0.575828	0.688452
N131	N	0.820008	0.075837	-0.188884
N132	N	1.320008	0.575837	0.311116
C133	C	0.867460	0.037009	0.226546
C134	C	1.367460	0.537009	0.726546
C135	C	0.867464	0.037006	0.302774
C136	C	1.367464	0.537006	0.802774
C137	C	0.819972	0.075833	0.340904
C138	C	1.319972	0.575833	0.840904
C139	C	0.772459	0.114655	0.302800
C140	C	1.272459	0.614655	0.802800
C141	C	0.772452	0.114653	0.226574
C142	C	1.272452	0.614653	0.726574
C143	C	0.810514	0.127724	0.461659
C144	C	1.310514	0.627724	0.961659
C145	C	0.810526	0.127727	0.537884
C146	C	1.310526	0.627727	1.037884
C147	C	0.819991	0.075840	0.576012
C148	C	1.319991	0.575840	1.076012
C149	C	0.829459	0.023947	0.537906
C150	C	1.329459	0.523947	1.037906
C151	C	0.829451	0.023945	0.461679
C152	C	1.329451	0.523945	0.961679
C153	C	0.819975	0.075839	0.423559
C154	C	1.319975	0.575839	0.923559
C155	C	0.867502	0.037014	0.696762
C156	C	1.367502	0.537014	1.196762
C157	C	0.867502	0.037011	0.772991
C158	C	1.367502	0.537011	1.272991
C159	C	0.772500	0.114665	0.773015
C160	C	1.272500	0.614665	1.273015
C161	C	0.772497	0.114663	0.696788
C162	C	1.272497	0.614663	1.196788
C163	C	0.820002	0.075839	0.658665
C164	C	1.320002	0.575839	1.158665
H165	H	0.462031	0.171898	-0.000206
H166	H	0.962031	0.671898	0.499794
H167	H	0.708291	-0.192209	-0.000164
H168	H	1.208291	0.307791	0.499836
H169	H	0.733789	0.146267	0.333850
H170	H	1.233789	0.646267	0.833850
N171	N	0.625941	-0.341038	-0.000203
N172	N	1.125941	0.158962	0.499797
H173	H	0.598112	-0.348330	-0.045090
H174	H	1.098112	0.151670	0.454910
H175	H	0.598153	-0.348367	0.044723
H176	H	1.098153	0.151633	0.544723
H177	H	0.837166	-0.018304	0.568948
H178	H	1.337166	0.481696	1.068948
N179	N	0.685268	-0.621240	-0.000195
N180	N	1.185268	-0.121240	0.499805
H181	H	0.682802	-0.596275	-0.045083
H182	H	1.182802	-0.096275	0.454917
H183	H	0.644788	-0.644712	-0.000154
H184	H	1.144788	-0.144712	0.499846
N185	N	0.409073	-0.005904	-0.088402
N186	N	0.909073	0.494096	0.411598
H187	H	0.459454	0.000746	-0.081953
H188	H	0.959454	0.500746	0.418047
H189	H	0.403067	-0.046108	-0.072539
H190	H	0.903067	0.453892	0.427461
H191	H	0.709871	-0.084438	-0.000170
H192	H	1.209871	0.415562	0.499830
N193	N	0.230894	0.157580	0.087945
N194	N	0.730894	0.657580	0.587945
H195	H	0.180513	0.150929	0.081502
H196	H	0.680513	0.650929	0.581502
H197	H	0.244416	0.152407	0.140868
H198	H	0.744416	0.652407	0.640868
H199	H	0.266322	0.002909	-0.077215
H200	H	0.766322	0.502909	0.422785
H201	H	0.493372	-0.016435	-0.000187
H202	H	0.993372	0.483565	0.499813
H203	H	0.146582	0.168107	-0.000262
H204	H	0.646582	0.668107	0.499738
N205	N	0.003298	0.180126	-0.000232
N206	N	0.503298	0.680126	0.499768
H207	H	0.031765	0.213415	-0.000219
H208	H	0.531765	0.713415	0.499781
H209	H	-0.027137	0.182053	-0.045113
H210	H	0.472863	0.682053	0.454887
N211	N	0.624131	-0.464508	-0.000218
N212	N	1.124131	0.035492	0.499782
H213	H	0.620930	-0.488852	0.044671
H214	H	1.120930	0.011148	0.544671
H215	H	0.584466	-0.432247	-0.000241
H216	H	1.084466	0.067753	0.499759
N217	N	0.636665	-0.028460	-0.000135
N218	N	1.136665	0.471540	0.499865
H219	H	0.608200	-0.061750	-0.000135
H220	H	1.108200	0.438250	0.499865
H221	H	0.667123	-0.030360	-0.045022
H222	H	1.167123	0.469640	0.454978
H223	H	0.939648	-0.109639	-0.000218
H224	H	1.439648	0.390361	0.499782
N225	N	1.014032	-0.507267	-0.000272
N226	N	1.514032	-0.007267	0.499728
H227	H	1.041878	-0.499956	-0.045167
H228	H	1.541878	0.000044	0.454833
H229	H	1.041797	-0.499945	0.044646
H230	H	1.541797	0.000055	0.544646
N231	N	0.954702	-0.227081	-0.000245
N232	N	1.454702	0.272919	0.499755
H233	H	0.995218	-0.203644	-0.000248
H234	H	1.495218	0.296356	0.499752
H235	H	0.957096	-0.252037	0.044646
H236	H	1.457096	0.247963	0.544646
N237	N	0.918693	-0.004866	0.185429
N238	N	1.418693	0.495134	0.685429
H239	H	0.948786	-0.029460	0.221134
H240	H	1.448786	0.470540	0.721134
H241	H	0.892275	-0.029991	0.153825
H242	H	1.392275	0.470009	0.653825
N243	N	0.683461	-0.744696	-0.000197
N244	N	1.183461	-0.244696	0.499803
H245	H	0.655933	-0.731311	-0.045079
H246	H	1.155933	-0.231311	0.454921
H247	H	0.692500	-0.787883	-0.000173
H248	H	1.192500	-0.287883	0.499827
H249	H	0.046503	-0.021810	-0.000307
H250	H	0.546503	0.478190	0.499693
H251	H	0.733768	0.146265	0.195556
H252	H	1.233768	0.646265	0.695556
N253	N	0.918700	-0.004866	0.343875
N254	N	1.418700	0.495134	0.843875
H255	H	0.948791	-0.029462	0.308158
H256	H	1.448791	0.470538	0.808158
H257	H	0.949253	0.016879	0.375478
H258	H	1.449253	0.516879	0.875478
N259	N	0.839660	-0.032019	0.420578
N260	N	1.339660	0.467981	0.920578
H261	H	0.845658	-0.064892	0.456293
H262	H	1.345658	0.435108	0.956293
H263	H	0.797484	-0.035255	0.388975
H264	H	1.297484	0.464745	0.888975
H265	H	0.906182	0.005399	0.665721
H266	H	1.406182	0.505399	1.165721
N267	N	0.918744	-0.004856	0.814086
N268	N	1.418744	0.495144	1.314086
H269	H	0.949337	0.016854	0.845690
H270	H	1.449337	0.516854	1.345690
H271	H	0.892336	-0.030009	0.845692
H272	H	1.392336	0.469991	1.345692
H273	H	0.733828	0.146276	0.804060
H274	H	1.233828	0.646276	1.304060
H275	H	0.733818	0.146276	0.665769
H276	H	1.233818	0.646276	1.165769
N277	N	1.015837	-0.383812	-0.000265
N278	N	1.515837	0.116188	0.499735
H279	H	1.055539	-0.416045	-0.000278
H280	H	1.555539	0.083955	0.499722
H281	H	1.018965	-0.359462	-0.045158
H282	H	1.518965	0.140538	0.454842
N283	N	0.381468	0.159380	0.087980
N284	N	0.881468	0.659380	0.587980
H285	H	0.433864	0.153962	0.081552
H286	H	0.933864	0.653962	0.581552
H287	H	0.362153	0.199282	0.072117
H288	H	0.862153	0.699282	0.572117
N289	N	0.948524	-0.650106	-0.000262
N290	N	1.448524	-0.150106	0.499738
H291	H	0.988229	-0.682337	-0.000270
H292	H	1.488229	-0.182337	0.499730
H293	H	0.951655	-0.625758	-0.045156
H294	H	1.451655	-0.125758	0.454844
H295	H	0.177928	-0.020230	-0.000236
H296	H	0.677928	0.479770	0.499764
H297	H	0.930094	-0.763893	-0.000269
H298	H	1.430094	-0.263893	0.499731
N299	N	0.800311	0.183693	0.578981
N300	N	1.300311	0.683693	1.078981
H301	H	0.794302	0.216562	0.543262
H302	H	1.294302	0.716562	1.043262
H303	H	0.757318	0.184967	0.610628
H304	H	1.257318	0.684967	1.110628
N305	N	0.800305	0.183692	0.420541
N306	N	1.300305	0.683692	0.920541
H307	H	0.838754	0.207353	0.433778
H308	H	1.338754	0.707353	0.933778
H309	H	0.801718	0.175769	0.366483
H310	H	1.301718	0.675769	0.866483
N311	N	0.600748	0.187310	-0.000199
N312	N	1.100748	0.687310	0.499801
H313	H	0.561335	0.219781	-0.000214
H314	H	1.061335	0.719781	0.499786
H315	H	0.630405	0.189937	0.044698
H316	H	1.130405	0.689937	0.544698
