data_functionalizedCrystal
_audit_creation_method	'MofGen! by Chris Wilmer'
_symmetry_space_group_name_H-M	'P1'
_symmetry_Int_Tables_number	1
_symmetry_cell_setting	triclinic
loop_
_symmetry_equiv_pos_as_xyz
  x,y,z
_cell_length_a	16.120530
_cell_length_b	16.120484
_cell_length_c	19.805399
_cell_angle_alpha	87.128957
_cell_angle_beta	92.915522
_cell_angle_gamma	90.167327
loop_
_atom_site_label
_atom_site_type_symbol
_atom_site_fract_x
_atom_site_fract_y
_atom_site_fract_z
Zn1	Zn	1.254461	-0.395626	0.450560
Zn2	Zn	1.587795	-0.062293	0.783893
Zn3	Zn	1.921128	0.271041	1.117227
Zn4	Zn	1.247307	-0.534681	0.342799
Zn5	Zn	1.580641	-0.201348	0.676133
Zn6	Zn	1.913974	0.131986	1.009466
Zn7	Zn	1.115404	-0.388588	0.331379
Zn8	Zn	1.448737	-0.055255	0.664713
Zn9	Zn	1.782071	0.278079	0.998046
Zn10	Zn	1.108313	-0.527579	0.449941
Zn11	Zn	1.441647	-0.194246	0.783274
Zn12	Zn	1.774980	0.139088	1.116607
O13	O	1.181372	-0.461619	0.393670
O14	O	1.514705	-0.128285	0.727003
O15	O	1.848038	0.205048	1.060337
O16	O	1.369878	-0.419990	0.441304
O17	O	1.703211	-0.086656	0.774637
O18	O	2.036544	0.246677	1.107970
O19	O	1.229784	-0.515328	0.246568
O20	O	1.563117	-0.181995	0.579901
O21	O	1.896450	0.151338	0.913234
O22	O	1.139812	-0.273158	0.342669
O23	O	1.473145	0.060175	0.676002
O24	O	1.806478	0.393508	1.009336
O25	O	1.364622	-0.522153	0.362132
O26	O	1.697955	-0.188820	0.695466
O27	O	2.031288	0.144514	1.028799
O28	O	1.241976	-0.278329	0.430230
O29	O	1.575310	0.055004	0.763564
O30	O	1.908643	0.388338	1.096897
O31	O	1.132875	-0.407994	0.238178
O32	O	1.466208	-0.074661	0.571511
O33	O	1.799542	0.258672	0.904844
O34	O	0.998098	-0.401108	0.342068
O35	O	1.331431	-0.067774	0.675402
O36	O	1.664765	0.265559	1.008735
O37	O	1.127727	-0.510048	0.544739
O38	O	1.461060	-0.176715	0.878073
O39	O	1.794393	0.156618	1.211406
O40	O	0.992889	-0.503224	0.429175
O41	O	1.326222	-0.169891	0.762508
O42	O	1.659555	0.163443	1.095842
O43	O	1.235101	-0.413103	0.545194
O44	O	1.568434	-0.079770	0.878528
O45	O	1.901768	0.253564	1.211861
O46	O	1.222908	-0.650102	0.361532
O47	O	1.556242	-0.316769	0.694865
O48	O	1.889575	0.016564	1.028199
O49	O	1.120790	-0.644885	0.440248
O50	O	1.454123	-0.311551	0.773582
O51	O	1.787457	0.021782	1.106915
C52	C	0.965321	-0.450632	0.384316
C53	C	1.298654	-0.117299	0.717649
C54	C	1.631988	0.216035	1.050982
C55	C	0.872893	-0.445952	0.380331
C56	C	1.206226	-0.112619	0.713664
C57	C	1.539559	0.220715	1.046997
C58	C	1.170326	-0.677666	0.402078
C59	C	1.503659	-0.344333	0.735411
C60	C	1.836993	-0.011000	1.068745
C61	C	1.165677	-0.770096	0.405701
C62	C	1.499010	-0.436763	0.739034
C63	C	1.832343	-0.103430	1.072367
C64	C	0.703666	-0.437388	0.373060
C65	C	1.036999	-0.104055	0.706394
C66	C	1.370333	0.229279	1.039727
C67	C	0.659915	-0.485910	0.414331
C68	C	0.993248	-0.152577	0.747665
C69	C	1.326581	0.180756	1.080998
C70	C	0.565751	-0.481145	0.410286
C71	C	0.899084	-0.147812	0.743619
C72	C	1.232418	0.185521	1.076953
C73	C	0.797838	-0.442152	0.377105
C74	C	1.131171	-0.108819	0.710438
C75	C	1.464505	0.224515	1.043771
C76	C	1.157193	-0.939328	0.412329
C77	C	1.490526	-0.605994	0.745663
C78	C	1.823860	-0.272661	1.078996
C79	C	1.205699	-0.983077	0.375028
C80	C	1.539032	-0.649743	0.708361
C81	C	1.872366	-0.316410	1.041695
C82	C	1.200979	-1.077243	0.378716
C83	C	1.534312	-0.743909	0.712050
C84	C	1.867645	-0.410576	1.045383
C85	C	1.161912	-0.845153	0.408642
C86	C	1.495246	-0.511820	0.741975
C87	C	1.828579	-0.178486	1.075309
C88	C	1.398266	-0.472649	0.403061
C89	C	1.731599	-0.139315	0.736394
C90	C	2.064932	0.194018	1.069728
C91	C	1.490693	-0.477349	0.407063
C92	C	1.824026	-0.144015	0.740396
C93	C	2.157360	0.189318	1.073730
C94	C	1.181421	-0.461569	0.570213
C95	C	1.514754	-0.128235	0.903546
C96	C	1.848088	0.205098	1.236879
C97	C	1.181442	-0.461547	0.645445
C98	C	1.514775	-0.128214	0.978778
C99	C	1.848109	0.205119	1.312111
C100	C	1.192483	-0.244728	0.385245
C101	C	1.525816	0.088605	0.718578
C102	C	1.859150	0.421938	1.051912
C103	C	1.197218	-0.152303	0.381655
C104	C	1.530551	0.181031	0.714988
C105	C	1.863885	0.514364	1.048321
C106	C	1.181373	-0.461611	0.217814
C107	C	1.514707	-0.128277	0.551147
C108	C	1.848040	0.205056	0.884480
C109	C	1.181525	-0.461406	0.142580
C110	C	1.514859	-0.128073	0.475913
C111	C	1.848192	0.205261	0.809247
C112	C	1.237353	-0.411065	0.681027
C113	C	1.570686	-0.077732	1.014360
C114	C	1.904020	0.255601	1.347693
C115	C	1.237363	-0.411041	0.751715
C116	C	1.570696	-0.077708	1.085048
C117	C	1.904029	0.255625	1.418381
C118	C	1.181465	-0.461505	0.786819
C119	C	1.514798	-0.128171	1.120153
C120	C	1.848131	0.205162	1.453486
C121	C	1.125548	-0.511989	0.751232
C122	C	1.458881	-0.178656	1.084566
C123	C	1.792214	0.154678	1.417899
C124	C	1.125535	-0.512008	0.680545
C125	C	1.458868	-0.178674	1.013879
C126	C	1.792201	0.154659	1.347212
C127	C	1.125599	-0.511914	1.036305
C128	C	1.458932	-0.178580	1.369638
C129	C	1.792265	0.154753	1.702971
C130	C	1.125618	-0.511893	1.106997
C131	C	1.458951	-0.178560	1.440330
C132	C	1.792284	0.154774	1.773663
C133	C	1.237427	-0.410948	1.107474
C134	C	1.570760	-0.077614	1.440807
C135	C	1.904093	0.255719	1.774141
C136	C	1.237414	-0.410966	1.036787
C137	C	1.570747	-0.077633	1.370120
C138	C	1.904080	0.255700	1.703454
C139	C	1.181494	-0.461447	1.001206
C140	C	1.514827	-0.128113	1.334539
C141	C	1.848161	0.205220	1.667872
C142	C	1.181483	-0.461471	0.924558
C143	C	1.514816	-0.128137	1.257891
C144	C	1.848150	0.205196	1.591225
C145	C	1.181479	-0.461486	0.863466
C146	C	1.514812	-0.128153	1.196800
C147	C	1.848146	0.205181	1.530133
H148	H	0.693177	-0.531029	0.452703
H149	H	1.026511	-0.197696	0.786037
H150	H	1.359844	0.135638	1.119370
H151	H	1.282956	-0.369841	1.136453
H152	H	1.616290	-0.036508	1.469786
H153	H	1.949623	0.296826	1.803119
H154	H	1.080095	-0.552988	1.135577
H155	H	1.413428	-0.219654	1.468910
H156	H	1.746762	0.113679	1.802244
H157	H	1.079998	-0.553106	0.651575
H158	H	1.413331	-0.219773	0.984908
H159	H	1.746665	0.113560	1.318241
H160	H	0.670405	-0.392273	0.334692
H161	H	1.003739	-0.058939	0.668025
H162	H	1.337072	0.274394	1.001358
H163	H	1.250771	-0.949810	0.340323
H164	H	1.584104	-0.616477	0.673656
H165	H	1.917437	-0.283143	1.006990
H166	H	1.112124	-0.972592	0.447030
H167	H	1.445457	-0.639258	0.780364
H168	H	1.778790	-0.305925	1.113697
H169	H	1.282874	-0.369975	0.652450
H170	H	1.616207	-0.036641	0.985783
H171	H	1.949541	0.296692	1.319116
H172	H	1.282893	-0.369936	0.780683
H173	H	1.616226	-0.036603	1.114016
H174	H	1.949560	0.296731	1.447349
H175	H	1.282934	-0.369877	1.008208
H176	H	1.616267	-0.036543	1.341542
H177	H	1.949601	0.296790	1.674875
H178	H	1.080077	-0.553031	1.007344
H179	H	1.413410	-0.219698	1.340677
H180	H	1.746744	0.113636	1.674011
H181	H	1.080032	-0.553074	0.779820
H182	H	1.413365	-0.219741	1.113153
H183	H	1.746698	0.113593	1.446487
