data_functionalizedCrystal
_audit_creation_method	'MofGen! by Chris Wilmer'
_symmetry_space_group_name_H-M	'P1'
_symmetry_Int_Tables_number	1
_symmetry_cell_setting	triclinic
loop_
_symmetry_equiv_pos_as_xyz
  x,y,z
_cell_length_a	18.266242
_cell_length_b	14.853567
_cell_length_c	19.188930
_cell_angle_alpha	96.610144
_cell_angle_beta	90.011475
_cell_angle_gamma	89.993938
loop_
_atom_site_label
_atom_site_type_symbol
_atom_site_fract_x
_atom_site_fract_y
_atom_site_fract_z
O1	O	0.060839	-1.195864	0.091157
O2	O	0.060853	-0.933344	0.102015
O3	O	0.060831	-1.072180	-0.005044
O4	O	0.060860	-1.057028	0.198216
O5	O	-0.060931	-1.072156	-0.005050
O6	O	-0.060909	-0.933320	0.102010
O7	O	-0.060923	-1.195840	0.091151
Zn8	Zn	-0.080249	-1.064577	0.096580
Zn9	Zn	0.080178	-1.064607	0.096587
O10	O	-0.060901	-1.057005	0.198211
C11	C	-0.000027	-0.899746	0.101521
C12	C	-0.000022	-0.799671	0.100046
N13	N	-0.189735	-1.064562	0.096574
C14	C	-0.000052	-1.071677	-0.031060
C15	C	-0.000058	-1.070204	-0.108569
C16	C	-0.228054	-1.126059	0.049191
C17	C	-0.304699	-1.126064	0.049188
C18	C	-0.343022	-1.064582	0.096580
C19	C	-0.304695	-1.003074	0.143966
C20	C	-0.228051	-1.003064	0.143963
N21	N	-0.463345	-1.052863	0.158348
N22	N	-0.536154	-1.052878	0.158349
C23	C	-0.573945	-1.064607	0.096590
N24	N	-0.536177	-1.076339	0.034829
N25	N	-0.463363	-1.076328	0.034829
C26	C	-0.426129	-1.064586	0.096588
C27	C	-0.695370	-1.126113	0.049200
C28	C	-0.772017	-1.126113	0.049196
C29	C	-0.772011	-1.003127	0.143980
C30	C	-0.695366	-1.003123	0.143978
C31	C	-0.657050	-1.064621	0.096589
N32	N	0.189665	-1.064629	0.096587
C33	C	-0.000042	-1.229438	0.091646
C34	C	-0.000042	-1.329513	0.093120
C35	C	-0.000049	-0.387525	0.030218
C36	C	-0.000030	-0.365537	0.157407
C37	C	-0.000027	-0.459563	0.158794
C38	C	-0.000034	-0.517574	0.095891
C39	C	-0.000044	-0.481560	0.031602
C40	C	-0.000010	-0.495585	0.223081
C41	C	-0.000007	-0.589616	0.224470
C42	C	-0.000019	-0.647629	0.161567
C43	C	-0.000030	-0.611610	0.097276
C44	C	-0.000037	-0.669621	0.034373
C45	C	-0.000053	-0.633603	-0.029919
C46	C	-0.000056	-0.539574	-0.031301
C47	C	-0.000015	-0.741659	0.162949
C48	C	-0.000032	-0.763656	0.035757
C49	C	-0.000066	-1.151668	-0.153221
C50	C	-0.000054	-1.150285	-0.226050
C51	C	-0.000049	-1.067432	-0.254223
C52	C	-0.000037	-0.985957	-0.209561
C53	C	-0.000042	-0.987343	-0.136734
N54	N	-0.041484	-1.004093	-0.362441
N55	N	-0.041481	-1.002782	-0.431624
C56	C	-0.000034	-1.063251	-0.473645
N57	N	0.041401	-1.125094	-0.443872
N58	N	0.041395	-1.126408	-0.374683
C59	C	-0.000044	-1.065920	-0.333190
C60	C	-0.000028	-1.143220	-0.597267
C61	C	-0.000012	-1.141833	-0.670096
C62	C	-0.000003	-0.977503	-0.653606
C63	C	-0.000011	-0.978893	-0.580778
C64	C	-0.000028	-1.061754	-0.552613
C65	C	-0.000017	-1.057507	0.224226
C66	C	-0.000006	-1.058980	0.301736
H67	H	-0.196859	-1.176132	0.010603
H68	H	-0.000004	-0.770981	0.215294
F69	F	-0.000013	-0.303795	0.224348
F70	F	-0.000006	-0.892186	-0.533253
F71	F	-0.000069	-0.349192	-0.038203
H72	H	-0.803214	-0.953064	0.182564
F73	F	-0.000049	-1.231407	-0.567290
H74	H	-0.335902	-0.953013	0.182552
H75	H	-0.000057	-1.216625	-0.262413
F76	F	-0.000045	-0.825390	-0.031194
F77	F	-0.654582	-0.937674	0.194412
H78	H	-0.000053	-0.680849	-0.081134
H79	H	0.000003	-0.448345	0.274293
F80	F	-0.000033	-0.900634	-0.089210
F81	F	0.000009	-0.627940	0.292895
F82	F	-0.000067	-1.239857	-0.123251
H83	H	-0.803216	-1.176188	0.010607
F84	F	-0.000070	-0.501234	-0.099719
F85	F	-0.000015	-1.228544	-0.717620
F86	F	-0.000028	-0.897779	-0.239545
H87	H	-0.335903	-1.176144	0.010602
F88	F	-0.187268	-0.937609	0.194397
H89	H	-0.664172	-1.176186	0.010610
H90	H	0.000005	-0.910043	-0.676543
