data_functionalizedCrystal
_audit_creation_method	'MofGen! by Chris Wilmer'
_symmetry_space_group_name_H-M	'P1'
_symmetry_Int_Tables_number	1
_symmetry_cell_setting	triclinic
loop_
_symmetry_equiv_pos_as_xyz
  x,y,z
_cell_length_a	14.971486
_cell_length_b	15.995350
_cell_length_c	14.048226
_cell_angle_alpha	89.995798
_cell_angle_beta	89.998499
_cell_angle_gamma	83.553252
loop_
_atom_site_label
_atom_site_type_symbol
_atom_site_fract_x
_atom_site_fract_y
_atom_site_fract_z
O1	O	1.186822	0.109116	-0.079046
O2	O	0.926407	0.122183	-0.079072
O3	O	1.063733	-0.006231	-0.079057
O4	O	1.049496	0.237530	-0.079061
O5	O	1.063717	-0.006238	0.079264
O6	O	0.926391	0.122176	0.079250
O7	O	1.186806	0.109109	0.079275
Zn8	Zn	1.056596	0.115641	0.104399
Zn9	Zn	1.056617	0.115651	-0.104196
O10	O	1.049480	0.237523	0.079261
C11	C	0.893075	0.121595	0.000086
C12	C	0.793780	0.119844	0.000076
C13	C	0.736468	0.195284	0.000076
C14	C	0.643171	0.193633	0.000090
C15	C	0.607187	0.116542	0.000098
C16	C	0.664505	0.041097	0.000100
C17	C	0.757801	0.042748	0.000093
C18	C	0.470047	0.037660	0.000113
C19	C	0.376745	0.036008	0.000119
C20	C	0.355417	0.188545	0.000111
C21	C	0.448712	0.190197	0.000104
C22	C	0.506025	0.114751	0.000104
C23	C	1.063137	-0.037430	0.000101
C24	C	1.061372	-0.130382	0.000096
C25	C	1.055035	-0.468136	0.000098
C26	C	0.957234	-0.420800	-0.000266
C27	C	0.958999	-0.324108	0.000091
C28	C	1.058178	-0.300572	0.000097
C29	C	1.106408	-0.341606	0.090509
C30	C	1.103951	-0.438244	0.090584
C31	C	1.105990	-0.438591	-0.089456
C32	C	1.105967	-0.341646	-0.090651
C33	C	1.059960	-0.205873	0.000099
C34	C	1.053256	-0.562835	0.000103
C35	C	1.220138	0.109697	0.000116
C36	C	1.319433	0.111448	0.000119
C37	C	1.050077	0.268722	0.000100
C38	C	1.051841	0.361674	0.000099
N39	N	1.056587	0.115634	0.246760
N40	N	1.056633	0.115652	-0.246557
C41	C	1.117414	0.058795	0.296584
C42	C	1.117421	0.058795	0.396242
C43	C	1.056603	0.115637	0.446073
C44	C	0.995769	0.172478	0.396242
C45	C	0.995760	0.172474	0.296586
C46	C	0.995795	0.172484	0.603956
C47	C	0.995806	0.172490	0.703619
C48	C	1.117456	0.058805	0.703612
C49	C	1.117446	0.058801	0.603956
C50	C	1.056614	0.115643	0.554132
H51	H	0.921086	-0.295721	-0.064720
H52	H	1.072896	-0.313261	0.157786
N53	N	0.933678	0.230536	0.754537
N54	N	0.933700	0.230527	0.843515
H55	H	0.889821	0.271522	0.879478
N56	N	0.485489	0.268933	0.000088
N57	N	0.535171	0.286867	-0.066652
H58	H	0.561147	0.342475	-0.066662
H59	H	0.308748	0.249976	0.000115
H60	H	0.946256	0.218769	0.563393
H61	H	0.804464	-0.018683	0.000092
H62	H	0.946246	0.218758	0.436821
N63	N	0.933629	0.230547	0.245703
N64	N	0.934850	0.307943	0.256823
H65	H	0.890967	0.348958	0.220889
N66	N	0.340000	-0.042744	0.000128
N67	N	0.391179	-0.110099	0.000138
H68	H	0.365229	-0.165720	0.000146
N69	N	1.179592	0.000726	0.754486
N70	N	1.233890	-0.050020	0.709983
H71	H	1.277775	-0.091036	0.745915
N72	N	0.528579	-0.039413	0.000126
N73	N	0.496441	-0.108240	0.000134
H74	H	0.537779	-0.162672	0.000142
H75	H	0.596511	0.255064	0.000090
H76	H	1.166973	0.012520	0.563384
H77	H	0.635200	-0.021672	0.000119
N78	N	0.773206	0.274039	0.000060
N79	N	0.722020	0.341390	0.000063
H80	H	0.747963	0.397014	0.000054
H81	H	0.918150	-0.439368	-0.065103
H82	H	0.920818	-0.296284	0.065005
N83	N	0.908410	-0.445439	0.080609
N84	N	0.945330	-0.497709	0.138514
H85	H	0.910851	-0.515113	0.195633
N86	N	1.059796	-0.461241	0.175356
N87	N	0.980386	-0.431598	0.191393
H88	H	0.949198	-0.447835	0.251264
N89	N	1.194029	-0.478602	0.095748
N90	N	1.258506	-0.435370	0.099292
H91	H	1.322123	-0.463868	0.102946
N92	N	1.197815	-0.323794	0.094723
N93	N	1.228506	-0.280554	0.030987
H94	H	1.293063	-0.267974	0.033960
H95	H	1.178098	-0.470280	-0.090060
N96	N	1.065904	-0.464405	-0.175427
N97	N	1.062186	-0.540815	-0.191382
H98	H	1.033870	-0.559047	-0.252096
N99	N	1.061781	-0.307438	-0.174554
N100	N	0.995342	-0.253008	-0.167617
H101	H	0.964132	-0.228844	-0.226872
H102	H	1.178293	-0.326211	-0.096106
N103	N	1.179498	0.000681	0.245702
N104	N	1.233766	-0.050098	0.290205
H105	H	1.277593	-0.091164	0.254273
H106	H	1.166950	0.012513	0.436809
