data_functionalizedCrystal
_audit_creation_method	'MofGen! by Chris Wilmer'
_symmetry_space_group_name_H-M	'P1'
_symmetry_Int_Tables_number	1
_symmetry_cell_setting	triclinic
loop_
_symmetry_equiv_pos_as_xyz
  x,y,z
_cell_length_a	12.594516
_cell_length_b	12.827893
_cell_length_c	12.827885
_cell_angle_alpha	89.980728
_cell_angle_beta	90.028054
_cell_angle_gamma	89.983977
loop_
_atom_site_label
_atom_site_type_symbol
_atom_site_fract_x
_atom_site_fract_y
_atom_site_fract_z
Zn1	Zn	-0.423691	-1.597665	0.590861
Zn2	Zn	0.076309	-1.097665	1.090861
Zn3	Zn	-0.601707	-1.597557	0.416127
Zn4	Zn	-0.101707	-1.097557	0.916127
Zn5	Zn	-0.423743	-1.422906	0.416135
Zn6	Zn	0.076257	-0.922906	0.916135
Zn7	Zn	-0.601628	-1.422889	0.590827
Zn8	Zn	-0.101628	-0.922889	1.090827
O9	O	-0.512693	-1.510254	0.503487
O10	O	-0.012693	-1.010254	1.003487
O11	O	-0.447317	-1.743887	0.567693
O12	O	0.052683	-1.243887	1.067693
O13	O	-0.578155	-1.574351	0.269892
O14	O	-0.078155	-1.074351	0.769892
O15	O	-0.274791	-1.446140	0.439330
O16	O	0.225209	-0.946140	0.939330
O17	O	-0.578105	-1.743807	0.439317
O18	O	-0.078105	-1.243807	0.939317
O19	O	-0.274752	-1.574535	0.567701
O20	O	0.225248	-1.074535	1.067701
O21	O	-0.447405	-1.446036	0.269898
O22	O	0.052595	-0.946036	0.769898
O23	O	-0.447329	-1.276668	0.439297
O24	O	0.052671	-0.776668	0.939297
O25	O	-0.577970	-1.446112	0.737067
O26	O	-0.077970	-0.946112	1.237067
O27	O	-0.578020	-1.276656	0.567642
O28	O	-0.078020	-0.776656	1.067642
O29	O	-0.447240	-1.574519	0.737093
O30	O	0.052760	-1.074519	1.237093
O31	O	-0.750643	-1.574335	0.439283
O32	O	-0.250643	-1.074335	0.939283
O33	O	-0.750584	-1.446007	0.567635
O34	O	-0.250584	-0.946007	1.067635
C35	C	-0.512672	-1.238744	0.503468
C36	C	-0.012672	-0.738744	1.003468
C37	C	-0.512689	-1.122591	0.503484
C38	C	-0.012689	-0.622591	1.003484
C39	C	-0.789234	-1.510186	0.503477
C40	C	-0.289234	-1.010186	1.003477
C41	C	-0.907539	-1.510252	0.503508
C42	C	-0.407539	-1.010252	1.003508
C43	C	-0.512590	-1.510325	0.776058
C44	C	-0.012590	-1.010325	1.276058
C45	C	-0.512547	-1.510356	0.892211
C46	C	-0.012547	-1.010356	1.392211
C47	C	-0.976799	-1.440448	0.573269
C48	C	-0.476799	-0.940448	1.073269
C49	C	-1.047668	-1.414986	0.477914
C50	C	-0.547668	-0.914986	0.977914
C51	C	-1.047469	-1.535809	0.598879
C52	C	-0.547469	-1.035809	1.098879
C53	C	-0.976849	-1.484740	0.408102
C54	C	-0.476849	-0.984740	0.908102
C55	C	-0.976645	-1.605607	0.529132
C56	C	-0.476645	-1.105607	1.029132
C57	C	-1.047481	-1.580182	0.433711
C58	C	-0.547481	-1.080182	0.933711
C59	C	-0.235072	-1.510352	0.503521
C60	C	0.264928	-1.010352	1.003521
C61	C	-0.116766	-1.510393	0.503535
C62	C	0.383234	-1.010393	1.003535
C63	C	-0.512714	-1.782824	0.503508
C64	C	-0.012714	-1.282824	1.003508
C65	C	-0.512723	-1.898978	0.503517
C66	C	-0.012723	-1.398978	1.003517
C67	C	-0.577460	-1.070828	0.566895
C68	C	-0.077460	-0.570828	1.066895
C69	C	-0.577479	-0.950778	0.566914
C70	C	-0.077479	-0.450778	1.066914
C71	C	-0.512718	-1.510244	0.231978
C72	C	-0.012718	-1.010244	0.731978
C73	C	-0.512461	-1.510416	0.115825
C74	C	-0.012461	-1.010416	0.615825
C75	C	-0.447845	-1.573902	0.944008
C76	C	0.052155	-1.073902	1.444008
C77	C	-0.447799	-1.573935	1.064059
C78	C	0.052201	-1.073935	1.564059
H79	H	-0.945763	-1.381312	0.632178
H80	H	-0.445763	-0.881312	1.132178
F81	F	-0.649929	-1.129066	0.637837
F82	F	-0.149929	-0.629066	1.137837
H83	H	-0.457271	-0.943486	0.449221
H84	H	0.042729	-0.443486	0.949221
F85	F	-0.936474	-1.456441	0.302664
F86	F	-0.436474	-0.956441	0.802664
F87	F	-0.649968	-0.892597	0.637871
F88	F	-0.149968	-0.392597	1.137871
H89	H	-0.457246	-1.078031	0.449213
H90	H	0.042754	-0.578031	0.949213
H91	H	-0.392482	-1.628279	0.899477
H92	H	0.107518	-1.128279	1.399477
F93	F	-0.375398	-1.645054	1.122278
F94	F	0.124602	-1.145054	1.622278
H95	H	-0.567862	-1.456012	1.071287
H96	H	-0.067862	-0.956012	1.571287
H97	H	-0.567899	-1.455969	0.936742
H98	H	-0.067899	-0.955969	1.436742
F99	F	-1.088441	-1.309664	0.449590
F100	F	-0.588441	-0.809664	0.949590
F101	F	-1.087792	-1.657421	0.356530
F102	F	-0.587792	-1.157421	0.856530
H103	H	-1.078491	-1.557369	0.679523
H104	H	-0.578491	-1.057369	1.179523
F105	F	-0.935839	-1.710901	0.557491
F106	F	-0.435839	-1.210901	1.057491
