data_functionalizedCrystal
_audit_creation_method	'MofGen! by Chris Wilmer'
_symmetry_space_group_name_H-M	'P1'
_symmetry_Int_Tables_number	1
_symmetry_cell_setting	triclinic
loop_
_symmetry_equiv_pos_as_xyz
  x,y,z
_cell_length_a	14.519709
_cell_length_b	14.519709
_cell_length_c	12.996460
_cell_angle_alpha	89.994177
_cell_angle_beta	90.012367
_cell_angle_gamma	83.680145
loop_
_atom_site_label
_atom_site_type_symbol
_atom_site_fract_x
_atom_site_fract_y
_atom_site_fract_z
O1	O	-1.223852	-0.120893	0.085435
O2	O	-0.723852	0.379107	0.585435
O3	O	-0.955375	-0.135130	0.085467
O4	O	-0.455375	0.364870	0.585467
O5	O	-1.096732	0.006227	0.085441
O6	O	-0.596732	0.506227	0.585441
O7	O	-1.082496	-0.262250	0.085461
O8	O	-0.582496	0.237750	0.585461
O9	O	-1.096750	0.006235	-0.085693
O10	O	-0.596750	0.506235	0.414307
O11	O	-0.955394	-0.135122	-0.085667
O12	O	-0.455394	0.364878	0.414333
O13	O	-1.223871	-0.120885	-0.085699
O14	O	-0.723871	0.379115	0.414301
Cu15	Cu	-1.089634	-0.128002	-0.101309
Cu16	Cu	-0.589634	0.371998	0.398691
Cu17	Cu	-1.089612	-0.128012	0.101077
Cu18	Cu	-0.589612	0.371988	0.601077
O19	O	-1.082514	-0.262242	-0.085673
O20	O	-0.582514	0.237758	0.414327
C21	C	-1.096078	0.040591	-0.000126
C22	C	-0.596078	0.540591	0.499874
C23	C	-1.094090	0.142972	-0.000126
C24	C	-0.594090	0.642972	0.499874
C25	C	-0.921025	-0.134462	-0.000096
C26	C	-0.421025	0.365538	0.499904
C27	C	-0.818643	-0.132474	-0.000084
C28	C	-0.318643	0.367526	0.499916
C29	C	-1.258221	-0.121553	-0.000134
C30	C	-0.758221	0.378447	0.499866
C31	C	-1.360602	-0.123541	-0.000139
C32	C	-0.860602	0.376459	0.499861
C33	C	-0.443748	-0.125154	-0.000132
C34	C	0.056252	0.374846	0.499868
C35	C	-0.548056	-0.127187	-0.000118
C36	C	-0.048056	0.372813	0.499882
C37	C	-0.631192	-0.128814	-0.000107
C38	C	-0.131192	0.371186	0.499893
C39	C	-0.735507	-0.130847	-0.000095
C40	C	-0.235507	0.369153	0.499905
C41	C	-1.083168	-0.296605	-0.000103
C42	C	-0.583168	0.203395	0.499897
C43	C	-1.085156	-0.398987	-0.000096
C44	C	-0.585156	0.101013	0.499904
N45	N	-1.089656	-0.127995	-0.243656
N46	N	-0.589656	0.372005	0.256344
C47	C	-1.086770	0.517868	-0.000099
C48	C	-0.586770	1.017868	0.499901
C49	C	-1.088803	0.413560	-0.000107
C50	C	-0.588803	0.913560	0.499893
C51	C	-1.090430	0.330423	-0.000114
C52	C	-0.590430	0.830423	0.499886
C53	C	-1.092463	0.226109	-0.000120
C54	C	-0.592463	0.726109	0.499880
N55	N	-1.089598	-0.128012	0.243424
N56	N	-0.589598	0.371988	0.743424
C57	C	-1.089600	-0.128013	0.336530
C58	C	-0.589600	0.371987	0.836530
C59	C	-1.089613	-0.128011	0.453335
C60	C	-0.589613	0.371989	0.953335
C61	C	-1.089628	-0.128005	0.546433
C62	C	-0.589628	0.371995	1.046433
C63	C	-1.089640	-0.128002	0.663246
C64	C	-0.589640	0.371998	1.163246
