data_functionalizedCrystal
_audit_creation_method	'MofGen! by Chris Wilmer'
_symmetry_space_group_name_H-M	'P1'
_symmetry_Int_Tables_number	1
_symmetry_cell_setting	triclinic
loop_
_symmetry_equiv_pos_as_xyz
  x,y,z
_cell_length_a	11.026607
_cell_length_b	23.532407
_cell_length_c	9.482900
_cell_angle_alpha	99.270833
_cell_angle_beta	78.636152
_cell_angle_gamma	95.717347
loop_
_atom_site_label
_atom_site_type_symbol
_atom_site_fract_x
_atom_site_fract_y
_atom_site_fract_z
O1	O	1.626299	0.231212	-0.120952
O2	O	1.273319	0.204090	-0.120948
O3	O	1.460449	0.135841	-0.120924
O4	O	1.439169	0.299462	-0.120976
O5	O	1.422438	0.149775	0.120864
O6	O	1.235308	0.218025	0.120840
O7	O	1.588288	0.245146	0.120835
Cu8	Cu	1.408327	0.232858	0.142915
Cu9	Cu	1.453280	0.216379	-0.143027
O10	O	1.401158	0.313396	0.120811
C11	C	1.209163	0.206054	-0.000053
C12	C	1.074628	0.191139	-0.000050
C13	C	1.000328	0.232323	-0.000064
C14	C	0.861279	0.216908	-0.000061
C15	C	1.440901	0.121535	-0.000026
C16	C	1.439269	0.058147	-0.000015
C17	C	1.539801	-0.330388	-0.000096
C18	C	1.538288	-0.389948	-0.000107
O19	O	1.631479	-0.416896	-0.000162
N20	N	1.427037	-0.424275	-0.000104
C21	C	1.317293	-0.399040	-0.000106
O22	O	1.222527	-0.433707	-0.000106
C23	C	1.318809	-0.339482	-0.000105
C24	C	1.430065	-0.305157	-0.000093
C25	C	1.651048	-0.296064	-0.000085
C26	C	1.652560	-0.236507	-0.000072
C27	C	1.542824	-0.211276	-0.000068
C28	C	1.431576	-0.245601	-0.000079
C29	C	1.209068	-0.314249	-0.000117
C30	C	1.210593	-0.254686	-0.000117
C31	C	1.321849	-0.220361	-0.000105
C32	C	1.323351	-0.160813	-0.000062
N33	N	1.434603	-0.126486	-0.000065
C34	C	1.544339	-0.151718	-0.000068
C35	C	1.314120	-0.524117	-0.000109
C36	C	1.312602	-0.583674	-0.000100
C37	C	1.533598	-0.574578	-0.000104
C38	C	1.535113	-0.515019	-0.000103
C39	C	1.425371	-0.489790	-0.000112
C40	C	1.547504	-0.026646	-0.000038
C41	C	1.549005	0.032916	-0.000018
C42	C	1.328011	0.023814	-0.000022
C43	C	1.326508	-0.035742	-0.000034
C44	C	1.436266	-0.060970	-0.000047
O45	O	1.230210	-0.133827	-0.000013
O46	O	1.639093	-0.117045	-0.000087
C47	C	1.652445	0.243183	-0.000063
C48	C	1.786981	0.258098	-0.000075
C49	C	1.420707	0.327702	-0.000090
C50	C	1.422340	0.391089	-0.000110
N51	N	1.376719	0.244449	0.344031
N52	N	1.484898	0.204785	-0.344143
C53	C	1.443948	0.219794	0.416239
C54	C	1.417658	0.229443	0.583653
H55	H	1.035303	0.144465	-0.000072
N56	N	1.540450	0.184277	0.338346
N57	N	1.603582	0.161043	0.406147
H58	H	1.671689	0.135929	0.351140
N59	N	0.811977	0.158352	-0.000027
N60	N	0.820076	0.132070	0.101904
H61	H	0.785257	0.090715	0.101930
N62	N	1.098482	-0.228926	-0.000144
N63	N	0.999165	-0.259585	-0.000163
H64	H	0.919986	-0.241394	-0.000182
N65	N	1.321014	0.264883	0.661541
N66	N	1.211596	0.251764	0.644679
H67	H	1.143340	0.276793	0.699687
H68	H	1.622952	-0.595132	-0.000112
H69	H	1.743157	-0.208565	-0.000068
H70	H	1.561919	0.176529	0.593742
H71	H	1.299693	0.272698	0.406151
H72	H	1.224747	-0.503579	-0.000104
N73	N	1.049651	0.290875	-0.000051
N74	N	1.100841	0.315759	0.101871
H75	H	1.135674	0.357113	0.101884
H76	H	1.740415	-0.316600	-0.000093
N77	N	0.836316	0.316650	-0.000073
N78	N	0.949199	0.329091	-0.000065
H79	H	0.984044	0.370443	-0.000060
N80	N	1.215932	0.049604	-0.000006
N81	N	1.217313	0.102782	0.000001
H82	H	1.138158	0.120998	0.000005
H83	H	1.639606	0.060862	-0.000004
H84	H	1.625708	-0.487075	-0.000094
N85	N	1.659629	-0.052401	-0.000055
N86	N	1.758941	-0.021738	-0.000045
H87	H	1.838128	-0.039926	-0.000050
N88	N	1.198958	-0.618733	-0.000125
N89	N	1.189474	-0.658844	-0.102056
H90	H	1.109210	-0.683604	-0.102084
N91	N	1.095410	-0.349293	-0.000132
N92	N	0.997454	-0.326746	-0.000145
H93	H	0.917176	-0.351496	-0.000162
N94	N	1.212848	-0.070796	-0.000001
N95	N	1.114875	-0.048256	0.000024
H96	H	1.034600	-0.073010	0.000043
