data_functionalizedCrystal
_audit_creation_method	'MofGen! by Chris Wilmer'
_symmetry_space_group_name_H-M	'P1'
_symmetry_Int_Tables_number	1
_symmetry_cell_setting	triclinic
loop_
_symmetry_equiv_pos_as_xyz
  x,y,z
_cell_length_a	17.639617
_cell_length_b	16.959454
_cell_length_c	17.646359
_cell_angle_alpha	101.197825
_cell_angle_beta	87.679650
_cell_angle_gamma	101.205930
loop_
_atom_site_label
_atom_site_type_symbol
_atom_site_fract_x
_atom_site_fract_y
_atom_site_fract_z
Zn1	Zn	1.075642	-0.232075	-0.664131
Zn2	Zn	1.575642	0.267925	-0.164131
Zn3	Zn	1.100950	-0.333443	-0.537208
Zn4	Zn	1.600950	0.166557	-0.037208
Zn5	Zn	0.973983	-0.221711	-0.511527
Zn6	Zn	1.473983	0.278289	-0.011527
Zn7	Zn	0.948573	-0.384652	-0.638390
Zn8	Zn	1.448573	0.115348	-0.138390
O9	O	1.024787	-0.292970	-0.587814
O10	O	1.524787	0.207030	-0.087814
O11	O	1.185314	-0.228428	-0.668815
O12	O	1.685314	0.271572	-0.168815
O13	O	1.105334	-0.292854	-0.427591
O14	O	1.605334	0.207146	0.072409
O15	O	0.987510	-0.112472	-0.531796
O16	O	1.487510	0.387528	-0.031796
O17	O	1.203908	-0.302903	-0.575565
O18	O	1.703908	0.197097	-0.075565
O19	O	1.062199	-0.120086	-0.643913
O20	O	1.562199	0.379914	-0.143913
O21	O	1.012051	-0.210765	-0.408723
O22	O	1.512051	0.289235	0.091277
O23	O	0.864297	-0.260419	-0.506836
O24	O	1.364297	0.239581	-0.006836
O25	O	0.944203	-0.390180	-0.748015
O26	O	1.444203	0.109820	-0.248015
O27	O	0.845629	-0.380131	-0.600041
O28	O	1.345629	0.119869	-0.100041
O29	O	1.037560	-0.278083	-0.766927
O30	O	1.537560	0.221917	-0.266927
O31	O	1.080695	-0.450851	-0.550605
O32	O	1.580695	0.049149	-0.050605
O33	O	0.968744	-0.488473	-0.624943
O34	O	1.468744	0.011527	-0.124943
C35	C	1.024726	-0.498344	-0.587789
C36	C	1.524726	0.001656	-0.087789
C37	C	1.024764	-0.586198	-0.587817
C38	C	1.524764	-0.086198	-0.087817
C39	C	0.827397	-0.324708	-0.547859
C40	C	1.327397	0.175292	-0.047859
C41	C	0.742949	-0.338309	-0.530784
C42	C	1.242949	0.161691	-0.030784
C43	C	0.966566	-0.977276	-0.626531
C44	C	1.466566	-0.477276	-0.126531
C45	C	1.083205	-0.938046	-0.549218
C46	C	1.583205	-0.438046	-0.049218
C47	C	1.083179	-0.855503	-0.549205
C48	C	1.583179	-0.355503	-0.049205
C49	C	1.024846	-0.833843	-0.587856
C50	C	1.524846	-0.333843	-0.087856
C51	C	0.966538	-0.894726	-0.626518
C52	C	1.466538	-0.394726	-0.126518
C53	C	1.141482	-0.794613	-0.510537
C54	C	1.641482	-0.294613	-0.010537
C55	C	1.141459	-0.712064	-0.510522
C56	C	1.641459	-0.212064	-0.010522
C57	C	1.083128	-0.690403	-0.549178
C58	C	1.583128	-0.190403	-0.049178
C59	C	1.024818	-0.751292	-0.587842
C60	C	1.524818	-0.251292	-0.087842
C61	C	0.966484	-0.729632	-0.626493
C62	C	1.466484	-0.229632	-0.126493
C63	C	0.908176	-0.790520	-0.665163
C64	C	1.408176	-0.290520	-0.165163
C65	C	0.908206	-0.873065	-0.665173
C66	C	1.408206	-0.373065	-0.165173
C67	C	1.083098	-0.607859	-0.549167
C68	C	1.583098	-0.107859	-0.049167
C69	C	0.966456	-0.647081	-0.626480
C70	C	1.466456	-0.147081	-0.126480
C71	C	0.416707	-0.189674	-0.717720
C72	C	0.916707	0.310326	-0.217720
C73	C	0.337358	-0.202470	-0.701660
C74	C	0.837358	0.297530	-0.201660
C75	C	0.356770	-0.279819	-0.604419
C76	C	0.856770	0.220181	-0.104419
C77	C	0.436122	-0.267033	-0.620474
C78	C	0.936122	0.232967	-0.120474
C79	C	0.466084	-0.221959	-0.677125
C80	C	0.966084	0.278041	-0.177125
C81	C	0.485498	-0.299318	-0.579878
C82	C	0.985498	0.200682	-0.079878
C83	C	0.564844	-0.286529	-0.595929
C84	C	1.064844	0.213471	-0.095929
C85	C	0.594812	-0.241454	-0.652575
C86	C	1.094812	0.258546	-0.152575
C87	C	0.545429	-0.209169	-0.693175
C88	C	1.045429	0.290831	-0.193175
C89	C	0.455536	-0.344387	-0.523224
C90	C	0.955536	0.155613	-0.023224
C91	C	0.504912	-0.376672	-0.482628
C92	C	1.004912	0.123328	0.017372
C93	C	0.584258	-0.363888	-0.498682
C94	C	1.084258	0.136112	0.001318
C95	C	0.614227	-0.318814	-0.555329
C96	C	1.114227	0.181186	-0.055329
C97	C	0.633642	-0.396173	-0.458082
C98	C	1.133642	0.103827	0.041918
C99	C	0.712987	-0.383383	-0.474133
C100	C	1.212987	0.116617	0.025867
C101	C	0.693572	-0.306024	-0.571379
C102	C	1.193572	0.193976	-0.071379
C103	C	1.222948	-0.261109	-0.627926
C104	C	1.722948	0.238891	-0.127926
C105	C	1.307393	-0.247532	-0.645020
C106	C	1.807393	0.252468	-0.145020
C107	C	0.985224	-0.341000	-0.785781
C108	C	1.485224	0.159000	-0.285781
C109	C	0.968365	-0.361467	-0.870142
C110	C	1.468365	0.138533	-0.370142
C111	C	1.024866	-0.086796	-0.587861
C112	C	1.524866	0.413204	-0.087861
C113	C	1.024899	0.001064	-0.587881
C114	C	1.524899	0.501064	-0.087881
C115	C	1.064240	-0.245064	-0.390627
C116	C	1.564240	0.254936	0.109373
C117	C	1.081246	-0.224351	-0.306296
C118	C	1.581246	0.275649	0.193704
C119	C	0.896170	-0.449293	0.020998
C120	C	1.396170	0.050707	0.520998
C121	C	0.912172	-0.429811	0.100235
C122	C	1.412172	0.070189	0.600235
C123	C	1.008582	-0.312581	0.080248
C124	C	1.508582	0.187419	0.580248
C125	C	0.992591	-0.332055	0.001006
C126	C	1.492591	0.167945	0.501006
C127	C	0.936383	-0.400412	-0.028612
C128	C	1.436383	0.099588	0.471388
C129	C	1.032804	-0.283175	-0.048603
C130	C	1.532804	0.216825	0.451397
C131	C	1.016811	-0.302646	-0.127837
C132	C	1.516811	0.197354	0.372163
C133	C	0.960605	-0.370998	-0.157461
C134	C	1.460605	0.129002	0.342539
C135	C	0.920390	-0.419883	-0.107846
C136	C	1.420390	0.080117	0.392154
C137	C	1.089007	-0.214815	-0.018983
C138	C	1.589007	0.285185	0.481017
C139	C	1.129221	-0.165934	-0.068592
C140	C	1.629221	0.334066	0.431408
C141	C	1.113232	-0.185408	-0.147829
C142	C	1.613232	0.314592	0.352171
C143	C	1.057026	-0.253760	-0.177453
C144	C	1.557026	0.246240	0.322547
C145	C	1.153446	-0.136523	-0.197444
C146	C	1.653446	0.363477	0.302556
C147	C	1.137454	-0.155994	-0.276678
C148	C	1.637454	0.344006	0.223322
C149	C	1.041033	-0.273232	-0.256686
C150	C	1.541033	0.226768	0.243314
H151	H	0.918956	-0.629453	-0.657957
H152	H	1.418956	-0.129453	-0.157957
Cl153	Cl	0.731243	-0.249367	-0.642605
Cl154	Cl	1.231243	0.250633	-0.142605
Cl155	Cl	0.893271	-1.053817	-0.675146
Cl156	Cl	1.393271	-0.553817	-0.175146
H157	H	1.170196	-0.116187	-0.317071
H158	H	1.670196	0.383813	0.182929
H159	H	0.753191	-0.409673	-0.441076
H160	H	1.253191	0.090327	0.058924
Cl161	Cl	1.156534	-0.965278	-0.500632
Cl162	Cl	1.656534	-0.465278	-0.000632
Cl163	Cl	1.199863	-0.079989	-0.031347
Cl164	Cl	1.699863	0.420011	0.468653
Cl165	Cl	0.467239	-0.433332	-0.411411
Cl166	Cl	0.967239	0.066668	0.088589
H167	H	0.332365	-0.316516	-0.558292
H168	H	0.832365	0.183484	-0.058292
H169	H	0.947579	-0.386845	-0.221978
H170	H	1.447579	0.113155	0.278022
Cl171	Cl	1.214814	-0.821848	-0.461957
Cl172	Cl	1.714814	-0.321848	0.038043
H173	H	0.860678	-0.772875	-0.696628
H174	H	1.360678	-0.272875	-0.196628
H175	H	0.659421	-0.231039	-0.665640
H176	H	1.159421	0.268961	-0.165640
H177	H	0.860735	-0.922646	-0.696655
H178	H	1.360735	-0.422646	-0.196655
Cl179	Cl	1.224083	-0.050574	-0.160195
Cl180	Cl	1.724083	0.449426	0.339805
Cl181	Cl	1.079224	-0.226636	0.117493
Cl182	Cl	1.579224	0.273364	0.617493
Cl183	Cl	1.214764	-0.635528	-0.461918
Cl184	Cl	1.714764	-0.135528	0.038082
Cl185	Cl	0.275286	-0.161872	-0.752698
Cl186	Cl	0.775286	0.338128	-0.252698
Cl187	Cl	0.583100	-0.152512	-0.764401
Cl188	Cl	1.083100	0.347488	-0.264401
H189	H	1.130568	-0.558287	-0.517678
H190	H	1.630568	-0.058287	-0.017678
H191	H	0.879406	-0.469608	0.140629
H192	H	1.379406	0.030392	0.640629
H193	H	0.441103	-0.152973	-0.763854
H194	H	0.941103	0.347027	-0.263854
Cl195	Cl	0.355787	-0.360459	-0.503042
Cl196	Cl	0.855787	0.139541	-0.003042
H197	H	0.609235	-0.432865	-0.411952
H198	H	1.109235	0.067135	0.088048
Cl199	Cl	0.825512	-0.535233	-0.016243
Cl200	Cl	1.325512	-0.035233	0.483757
Cl201	Cl	0.849733	-0.505823	-0.145087
Cl202	Cl	1.349733	-0.005823	0.354913
Cl203	Cl	0.970375	-0.359171	-0.293928
Cl204	Cl	1.470375	0.140829	0.206072
H205	H	1.102029	-0.198965	0.045535
H206	H	1.602029	0.301035	0.545535
