data_functionalizedCrystal
_audit_creation_method	'MofGen! by Chris Wilmer'
_symmetry_space_group_name_H-M	'P1'
_symmetry_Int_Tables_number	1
_symmetry_cell_setting	triclinic
loop_
_symmetry_equiv_pos_as_xyz
  x,y,z
_cell_length_a	23.532355
_cell_length_b	10.654551
_cell_length_c	22.610064
_cell_angle_alpha	89.983100
_cell_angle_beta	89.995136
_cell_angle_gamma	96.343620
loop_
_atom_site_label
_atom_site_type_symbol
_atom_site_fract_x
_atom_site_fract_y
_atom_site_fract_z
O1	O	0.756266	-0.152155	0.049101
O2	O	1.256266	0.347845	0.549101
O3	O	0.590542	-0.174280	0.049120
O4	O	1.090542	0.325720	0.549120
O5	O	0.677214	0.019644	0.049110
O6	O	1.177214	0.519644	0.549110
O7	O	0.669594	-0.346079	0.049112
O8	O	1.169594	0.153921	0.549112
O9	O	0.677215	0.019705	-0.049260
O10	O	1.177215	0.519705	0.450740
O11	O	0.590543	-0.174219	-0.049249
O12	O	1.090543	0.325781	0.450751
O13	O	0.756267	-0.152095	-0.049268
O14	O	1.256267	0.347905	0.450732
Zn15	Zn	0.673405	-0.163147	-0.064877
Zn16	Zn	1.173405	0.336853	0.435123
Zn17	Zn	0.673404	-0.163227	0.064729
Zn18	Zn	1.173404	0.336773	0.564729
O19	O	0.669595	-0.346018	-0.049258
O20	O	1.169595	0.153982	0.450742
C21	C	0.569323	-0.173697	-0.000062
C22	C	1.069323	0.326303	0.499938
C23	C	0.506093	-0.172034	-0.000055
C24	C	1.006093	0.327966	0.499945
C25	C	0.676655	0.066454	-0.000074
C26	C	1.176655	0.566454	0.499926
C27	C	0.674981	0.205844	-0.000070
C28	C	1.174981	0.705844	0.499930
C29	C	0.114012	-0.161554	-0.053701
C30	C	0.614012	0.338446	0.446299
C31	C	0.054602	-0.159972	-0.053703
C32	C	0.554602	0.340028	0.446297
O33	O	0.023878	-0.159083	-0.099306
O34	O	0.523878	0.340917	0.400694
N35	N	0.024888	-0.159220	-0.000083
N36	N	0.524888	0.340780	0.499917
C37	C	0.054587	-0.160038	0.053544
C38	C	0.554587	0.339962	0.553544
O39	O	0.023858	-0.159252	0.099153
O40	O	0.523858	0.340748	0.599153
C41	C	0.113997	-0.161611	0.053546
C42	C	0.613997	0.338389	0.553546
C43	C	0.143707	-0.162375	-0.000079
C44	C	0.643707	0.337625	0.499921
C45	C	0.143722	-0.162316	-0.107321
C46	C	0.643722	0.337684	0.392679
C47	C	0.203128	-0.163900	-0.107319
C48	C	0.703128	0.336100	0.392681
C49	C	0.232823	-0.164722	-0.053696
C50	C	0.732823	0.335278	0.446304
C51	C	0.203112	-0.163959	-0.000076
C52	C	0.703112	0.336041	0.499924
C53	C	0.143695	-0.162420	0.107172
C54	C	0.643695	0.337580	0.607172
C55	C	0.203109	-0.163992	0.107169
C56	C	0.703109	0.336008	0.607169
C57	C	0.232819	-0.164756	0.053544
C58	C	0.732819	0.335244	0.553544
C59	C	0.292213	-0.166365	0.053549
C60	C	0.792213	0.333635	0.553549
N61	N	0.321927	-0.167116	-0.000072
N62	N	0.821927	0.332884	0.499928
C63	C	0.292232	-0.166295	-0.053694
C64	C	0.792232	0.333705	0.446306
C65	C	-0.070176	-0.156733	0.053536
C66	C	0.429824	0.343267	0.553536
C67	C	-0.129584	-0.155169	0.053535
C68	C	0.370416	0.344831	0.553535
C69	C	-0.129565	-0.155100	-0.053712
C70	C	0.370435	0.344900	0.446288
C71	C	-0.070156	-0.156673	-0.053711
C72	C	0.429844	0.343327	0.446289
C73	C	-0.040462	-0.157484	-0.000084
C74	C	0.459538	0.342516	0.499916
C75	C	0.416988	-0.169623	-0.053685
C76	C	0.916988	0.330377	0.446315
C77	C	0.476398	-0.171212	-0.053678
C78	C	0.976398	0.328788	0.446322
C79	C	0.476374	-0.171274	0.053570
C80	C	0.976374	0.328726	0.553570
C81	C	0.416969	-0.169691	0.053563
C82	C	0.916969	0.330309	0.553563
C83	C	0.387277	-0.168862	-0.000070
C84	C	0.887277	0.331138	0.499930
O85	O	0.322975	-0.167249	0.099128
O86	O	0.822975	0.332751	0.599128
O87	O	0.322970	-0.167064	-0.099295
O88	O	0.822970	0.332936	0.400705
C89	C	0.674194	0.271289	0.053552
C90	C	1.174194	0.771289	0.553552
C91	C	0.672617	0.402259	0.053553
C92	C	1.172617	0.902259	0.553553
C93	C	0.672614	0.402327	-0.053695
C94	C	1.172614	0.902327	0.446305
C95	C	0.674188	0.271358	-0.053695
C96	C	1.174188	0.771358	0.446305
C97	C	0.637161	0.571154	0.117980
C98	C	1.137161	1.071154	0.617980
C99	C	0.636384	0.636607	0.171605
C100	C	1.136384	1.136607	0.671605
C101	C	0.670207	0.604123	0.218944
C102	C	1.170207	1.104123	0.718944
C103	C	0.704821	0.506192	0.212660
C104	C	1.204821	1.006192	0.712660
C105	C	0.705602	0.440747	0.159035
C106	C	1.205602	0.940747	0.659035
C107	C	0.671766	0.473225	0.111698
C108	C	1.171766	0.973225	0.611698
C109	C	0.709648	0.102463	-0.118119
C110	C	1.209648	0.602463	0.381881
C111	C	0.710434	0.037017	-0.171745
C112	C	1.210434	0.537017	0.328255
C113	C	0.676614	0.069499	-0.219089
C114	C	1.176614	0.569499	0.280911
C115	C	0.642009	0.167437	-0.212811
C116	C	1.142009	0.667437	0.287189
C117	C	0.641224	0.232883	-0.159185
C118	C	1.141224	0.732883	0.340815
C119	C	0.675042	0.200391	-0.111841
C120	C	1.175042	0.700391	0.388159
C121	C	0.777486	-0.152678	-0.000084
C122	C	1.277486	0.347322	0.499916
C123	C	0.840716	-0.154341	-0.000088
C124	C	1.340716	0.345659	0.499912
C125	C	0.670154	0.607171	-0.000072
C126	C	1.170154	1.107171	0.499928
C127	C	0.671829	0.467782	-0.000068
C128	C	1.171829	0.967782	0.499932
N129	N	0.673403	-0.163272	0.153181
N130	N	1.173403	0.336728	0.653181
C131	C	0.638643	-0.087229	0.561826
C132	C	1.138643	0.412771	1.061826
C133	C	0.638644	-0.087214	0.623746
C134	C	1.138644	0.412786	1.123746
O135	O	0.609094	-0.022606	0.655768
O136	O	1.109094	0.477394	1.155768
N137	N	0.673406	-0.163136	0.654718
N138	N	1.173406	0.336864	1.154718
C139	C	0.708175	-0.239068	0.623768
C140	C	1.208175	0.260932	1.123768
O141	O	0.737744	-0.303644	0.655798
O142	O	1.237744	0.196356	1.155798
C143	C	0.708176	-0.239076	0.561849
C144	C	1.208176	0.260924	1.061849
C145	C	0.673407	-0.163159	0.530880
C146	C	1.173407	0.336841	1.030880
C147	C	0.603876	-0.011317	0.530857
C148	C	1.103876	0.488683	1.030857
C149	C	0.603875	-0.011334	0.468941
C150	C	1.103875	0.488666	0.968941
C151	C	0.638639	-0.087264	0.437995
C152	C	1.138639	0.412736	0.937995
C153	C	0.673405	-0.163176	0.468964
C154	C	1.173405	0.336824	0.968964
C155	C	0.742947	-0.315001	0.530899
C156	C	1.242947	0.184999	1.030899
C157	C	0.742946	-0.315002	0.468976
C158	C	1.242946	0.184998	0.968976
C159	C	0.708177	-0.239084	0.438007
C160	C	1.208177	0.260916	0.938007
C161	C	0.708168	-0.239123	0.376102
C162	C	1.208168	0.260877	0.876102
N163	N	0.673405	-0.163201	0.345130
N164	N	1.173405	0.336799	0.845130
C165	C	0.638641	-0.087271	0.376076
C166	C	1.138641	0.412729	0.876076
C167	C	0.708169	-0.239045	0.753801
C168	C	1.208169	0.260955	1.253801
C169	C	0.708165	-0.239045	0.815719
C170	C	1.208165	0.260955	1.315719
C171	C	0.638635	-0.087188	0.815693
C172	C	1.138635	0.412812	1.315693
C173	C	0.638636	-0.087195	0.753774
C174	C	1.138636	0.412805	1.253774
C175	C	0.673407	-0.163123	0.722829
C176	C	1.173407	0.336877	1.222829
C177	C	0.638639	-0.087314	0.246049
C178	C	1.138639	0.412686	0.746049
C179	C	0.638639	-0.087343	0.184128
C180	C	1.138639	0.412657	0.684128
C181	C	0.708171	-0.239194	0.184159
C182	C	1.208171	0.260806	0.684159
C183	C	0.708170	-0.239171	0.246075
C184	C	1.208170	0.260829	0.746075
C185	C	0.673402	-0.163222	0.277018
C186	C	1.173402	0.336778	0.777018
O187	O	0.737704	-0.303693	0.344041
O188	O	1.237704	0.196307	0.844041
O189	O	0.609082	-0.022694	0.344038
O190	O	1.109082	0.477306	0.844038
N191	N	0.673403	-0.163109	0.846671
N192	N	1.173403	0.336891	1.346671
H193	H	0.392819	-0.168958	-0.097357
H194	H	0.892819	0.331042	0.402643
H195	H	0.119515	-0.161796	0.150839
H196	H	0.619515	0.338204	0.650839
H197	H	0.119551	-0.161645	-0.150989
H198	H	0.619551	0.338355	0.349011
N199	N	0.744198	0.069263	-0.069761
N200	N	1.244198	0.569263	0.430239
N201	N	0.775099	-0.018170	-0.075377
N202	N	1.275099	0.481830	0.424623
H203	H	0.799504	-0.041616	-0.041227
H204	H	1.299504	0.458384	0.458773
H205	H	0.610323	-0.025522	0.158915
H206	H	1.110323	0.474478	0.658915
H207	H	0.669574	0.657424	0.262606
H208	H	1.169574	1.157424	0.762606
N209	N	0.568359	0.066228	0.562471
N210	N	1.068359	0.566228	1.062471
N211	N	0.568350	0.066236	0.617755
N212	N	1.068350	0.566236	1.117755
H213	H	0.543260	0.120999	0.640079
H214	H	1.043260	0.620999	1.140079
H215	H	0.677262	0.016210	-0.262756
H216	H	1.177262	0.516210	0.237244
N217	N	0.233448	-0.164837	0.161943
N218	N	0.733448	0.335163	0.661943
N219	N	0.286490	-0.166253	0.161943
N220	N	0.786490	0.333747	0.661943
H221	H	0.307917	-0.166853	0.200627
H222	H	0.807917	0.333147	0.700627
N223	N	0.743669	-0.316604	0.847358
N224	N	1.243669	0.183396	1.347358
N225	N	0.721695	-0.399808	0.881928
N226	N	1.221695	0.100192	1.381928
H227	H	0.746772	-0.454583	0.904272
H228	H	1.246772	0.045417	1.404272
H229	H	-0.153770	-0.154567	0.097202
H230	H	0.346230	0.345433	0.597202
H231	H	0.738615	-0.042726	-0.176854
H232	H	1.238615	0.457274	0.323146
H233	H	0.674839	0.217951	0.097217
H234	H	1.174839	0.717951	0.597217
H235	H	0.227313	-0.164515	-0.150985
H236	H	0.727313	0.335485	0.349015
N237	N	0.743690	-0.316620	0.722203
N238	N	1.243690	0.183380	1.222203
N239	N	0.774724	-0.384396	0.749870
N240	N	1.274724	0.115604	1.249870
H241	H	0.799812	-0.439183	0.727557
H242	H	1.299812	0.060817	1.227557
N243	N	0.607451	0.200606	-0.261166
N244	N	1.107451	0.700606	0.238834
N245	N	0.554344	0.193481	-0.255593
N246	N	1.054344	0.693481	0.244407
H247	H	0.529937	0.216905	-0.289745
H248	H	1.029937	0.716905	0.210255
N249	N	0.603132	-0.009707	0.277641
N250	N	1.103132	0.490293	0.777641
N251	N	0.572101	0.058072	0.249973
N252	N	1.072101	0.558072	0.749973
H253	H	0.547024	0.112885	0.272285
H254	H	1.047024	0.612885	0.772285
N255	N	0.740963	0.340737	0.152610
N256	N	1.240963	0.840737	0.652610
N257	N	0.793895	0.362487	0.159005
N258	N	1.293895	0.862487	0.659005
H259	H	0.818868	0.291851	0.154470
H260	H	1.318868	0.791851	0.654470
N261	N	-0.039855	-0.157567	0.108324
N262	N	0.460145	0.342433	0.608324
N263	N	-0.066398	-0.156894	0.156192
N264	N	0.433602	0.343106	0.656192
H265	H	-0.044987	-0.157481	0.194886
H266	H	0.455013	0.342519	0.694886
H267	H	0.736474	-0.301017	0.158951
H268	H	1.236474	0.198983	0.658951
N269	N	0.386625	-0.168927	0.108342
N270	N	0.886625	0.331073	0.608342
N271	N	0.413148	-0.169665	0.156215
N272	N	0.913148	0.330335	0.656215
H273	H	0.391722	-0.169113	0.194905
H274	H	0.891722	0.330887	0.694905
N275	N	0.778457	-0.392580	0.562514
N276	N	1.278457	0.107420	1.062514
N277	N	0.809488	-0.460367	0.534864
N278	N	1.309488	0.039633	1.034864
H279	H	0.834567	-0.515169	0.557190
H280	H	1.334567	-0.015169	1.057190
H281	H	0.732367	0.479762	0.251209
H282	H	1.232367	0.979762	0.751209
H283	H	0.500563	-0.171948	0.097228
H284	H	1.000563	0.328052	0.597228
H285	H	0.575564	0.050491	0.443732
H286	H	1.075564	0.550491	0.943732
N287	N	0.601029	0.736640	0.178013
N288	N	1.101029	1.236640	0.678013
N289	N	0.570825	0.765627	0.135743
N290	N	1.070825	1.265627	0.635743
H291	H	0.545860	0.836281	0.140268
H292	H	1.045860	1.336281	0.640268
N293	N	0.603115	-0.009662	0.722142
N294	N	1.103115	0.490338	1.222142
N295	N	0.550102	-0.025101	0.729065
N296	N	1.050102	0.474899	1.229065
H297	H	0.525013	0.029660	0.706728
H298	H	1.025013	0.529660	1.206728
H299	H	0.610328	-0.025362	0.840901
H300	H	1.110328	0.474638	1.340901
N301	N	0.778471	-0.392563	0.437377
N302	N	1.278471	0.107437	0.937377
N303	N	0.809510	-0.460331	0.465040
N304	N	1.309510	0.039669	0.965040
H305	H	0.834599	-0.515110	0.442725
H306	H	1.334599	-0.015110	0.942725
H307	H	0.609611	0.597601	0.079439
H308	H	1.109611	1.097601	0.579439
H309	H	0.736474	-0.301007	0.271291
H310	H	1.236474	0.198993	0.771291
N311	N	0.671818	0.469253	-0.108469
N312	N	1.171818	0.969253	0.391531
N313	N	0.712066	0.466738	-0.144378
N314	N	1.212066	0.966738	0.355622
H315	H	0.711506	0.514002	-0.183065
H316	H	1.211506	1.014002	0.316935
N317	N	0.606063	0.333253	-0.152728
N318	N	1.106063	0.833253	0.347272
N319	N	0.613552	0.427704	-0.185776
N320	N	1.113552	0.927704	0.314224
H321	H	0.588790	0.498711	-0.181199
H322	H	1.088790	0.998711	0.318801
N323	N	0.506736	-0.172006	-0.108462
N324	N	1.006736	0.327994	0.391538
N325	N	0.480211	-0.171274	-0.156334
N326	N	0.980211	0.328726	0.343666
H327	H	0.501635	-0.171835	-0.195024
H328	H	1.001635	0.328165	0.304976
H329	H	-0.153754	-0.154429	-0.097375
H330	H	0.346246	0.345571	0.402625
H331	H	-0.045970	-0.157297	-0.097376
H332	H	0.454030	0.342703	0.402624
