data_functionalizedCrystal
_audit_creation_method	'MofGen! by Chris Wilmer'
_symmetry_space_group_name_H-M	'P1'
_symmetry_Int_Tables_number	1
_symmetry_cell_setting	triclinic
loop_
_symmetry_equiv_pos_as_xyz
  x,y,z
_cell_length_a	13.897449
_cell_length_b	29.839131
_cell_length_c	13.897441
_cell_angle_alpha	89.965828
_cell_angle_beta	89.981404
_cell_angle_gamma	90.042700
loop_
_atom_site_label
_atom_site_type_symbol
_atom_site_fract_x
_atom_site_fract_y
_atom_site_fract_z
Zn1	Zn	1.474523	-0.178828	-0.545351
Zn2	Zn	1.974523	0.321172	-0.045351
Zn3	Zn	1.474356	-0.253962	-0.384039
Zn4	Zn	1.974356	0.246038	0.115961
Zn5	Zn	1.313218	-0.178848	-0.384069
Zn6	Zn	1.813218	0.321152	0.115931
Zn7	Zn	1.313127	-0.253933	-0.545292
Zn8	Zn	1.813127	0.246067	-0.045292
O9	O	1.393806	-0.216393	-0.464688
O10	O	1.893806	0.283607	0.035312
O11	O	1.609483	-0.188798	-0.523965
O12	O	2.109483	0.311202	-0.023965
O13	O	1.452949	-0.244018	-0.249061
O14	O	1.952949	0.255982	0.250939
O15	O	1.334724	-0.115978	-0.405500
O16	O	1.834724	0.384022	0.094500
O17	O	1.609360	-0.243998	-0.405450
O18	O	2.109360	0.256002	0.094550
O19	O	1.453234	-0.115964	-0.523993
O20	O	1.953234	0.384036	-0.023993
O21	O	1.334562	-0.188832	-0.249083
O22	O	1.834562	0.311168	0.250917
O23	O	1.178225	-0.188805	-0.405443
O24	O	1.678225	0.311195	0.094557
O25	O	1.334569	-0.243950	-0.680281
O26	O	1.834569	0.256050	-0.180281
O27	O	1.178158	-0.243970	-0.523893
O28	O	1.678158	0.256030	-0.023893
O29	O	1.453145	-0.188771	-0.680325
O30	O	1.953145	0.311229	-0.180325
O31	O	1.452861	-0.316825	-0.405393
O32	O	1.952861	0.183175	0.094607
O33	O	1.334407	-0.316804	-0.523864
O34	O	1.834407	0.183196	-0.023864
C35	C	1.143192	-0.216387	-0.464666
C36	C	1.643192	0.283613	0.035334
C37	C	1.035978	-0.216395	-0.464679
C38	C	1.535978	0.283605	0.035321
C39	C	0.839683	-0.216397	-0.464704
C40	C	1.339683	0.283603	0.035296
C41	C	0.948915	-0.216394	-0.464688
C42	C	1.448915	0.283606	0.035312
C43	C	1.393632	-0.333115	-0.464640
C44	C	1.893632	0.166885	0.035360
C45	C	1.393646	-0.383050	-0.464652
C46	C	1.893646	0.116950	0.035348
C47	C	1.455598	-0.692691	-0.403090
C48	C	1.955598	-0.192691	0.096910
C49	C	1.455717	-0.880364	-0.403127
C50	C	1.955717	-0.380364	0.096873
O51	O	1.508252	-0.904628	-0.350748
O52	O	2.008252	-0.404628	0.149252
N53	N	1.394006	-0.903835	-0.464760
N54	N	1.894006	-0.403835	0.035240
C55	C	1.332266	-0.880384	-0.526393
C56	C	1.832266	-0.380384	-0.026393
O57	O	1.279788	-0.904653	-0.578824
O58	O	1.779788	-0.404653	-0.078824
C59	C	1.332153	-0.692712	-0.526360
C60	C	1.832153	-0.192712	-0.026360
C61	C	1.393860	-0.669244	-0.464716
C62	C	1.893860	-0.169244	0.035284
C63	C	1.517301	-0.669223	-0.341451
C64	C	2.017301	-0.169223	0.158549
C65	C	1.517267	-0.622308	-0.341439
C66	C	2.017267	-0.122308	0.158561
C67	C	1.455529	-0.598860	-0.403065
C68	C	1.955529	-0.098860	0.096935
C69	C	1.393826	-0.622328	-0.464703
C70	C	1.893826	-0.122328	0.035297
C71	C	1.270418	-0.669262	-0.587997
C72	C	1.770418	-0.169262	-0.087997
C73	C	1.270397	-0.622341	-0.587985
C74	C	1.770397	-0.122341	-0.087985
C75	C	1.332105	-0.598873	-0.526341
C76	C	1.832105	-0.098873	-0.026341
C77	C	1.332055	-0.551966	-0.526317
C78	C	1.832055	-0.051966	-0.026317
N79	N	1.393765	-0.528495	-0.464684
N80	N	1.893765	-0.028495	0.035316
C81	C	1.455503	-0.551943	-0.403057
C82	C	1.955503	-0.051943	0.096943
C83	C	1.332329	-0.978915	-0.526405
C84	C	1.832329	-0.478915	-0.026405
C85	C	1.332356	-1.025833	-0.526412
C86	C	1.832356	-0.525833	-0.026412
C87	C	1.455808	-1.025810	-0.403147
C88	C	1.955808	-0.525810	0.096853
C89	C	1.455775	-0.978891	-0.403136
C90	C	1.955775	-0.478891	0.096864
C91	C	1.394039	-0.955444	-0.464772
C92	C	1.894039	-0.455444	0.035228
C93	C	1.455426	-0.453417	-0.403035
C94	C	1.955426	0.046583	0.096965
C95	C	1.455383	-0.406497	-0.403026
C96	C	1.955383	0.093503	0.096974
C97	C	1.331935	-0.406524	-0.526294
C98	C	1.831935	0.093476	-0.026294
C99	C	1.331974	-0.453440	-0.526301
C100	C	1.831974	0.046560	-0.026301
C101	C	1.393727	-0.476885	-0.464668
C102	C	1.893727	0.023115	0.035332
O103	O	1.279555	-0.527674	-0.578676
O104	O	1.779555	-0.027674	-0.078676
O105	O	1.507988	-0.527665	-0.350650
O106	O	2.007988	-0.027665	0.149350
C107	C	1.455632	-0.739607	-0.403102
C108	C	1.955632	-0.239607	0.096898
C109	C	1.393929	-0.763075	-0.464741
C110	C	1.893929	-0.263075	0.035259
C111	C	1.332191	-0.739627	-0.526367
C112	C	1.832191	-0.239627	-0.026367
C113	C	1.393955	-0.809993	-0.464748
C114	C	1.893955	-0.309993	0.035252
C115	C	1.455693	-0.833440	-0.403122
C116	C	1.955693	-0.333440	0.096878
C117	C	1.517403	-0.809970	-0.341489
C118	C	2.017403	-0.309970	0.158511
C119	C	1.517369	-0.763054	-0.341476
C120	C	2.017369	-0.263054	0.158524
C121	C	1.270481	-0.763098	-0.588000
C122	C	1.770481	-0.263098	-0.088000
C123	C	1.270519	-0.810013	-0.588007
C124	C	1.770519	-0.310013	-0.088007
C125	C	1.332256	-0.833461	-0.526381
C126	C	1.832256	-0.333461	-0.026381
C127	C	1.645399	-0.216399	-0.464710
C128	C	2.145399	0.283601	0.035290
C129	C	1.752613	-0.216402	-0.464720
C130	C	2.252613	0.283598	0.035280
C131	C	1.393865	-0.216355	-0.716281
C132	C	1.893865	0.283645	-0.216281
C133	C	1.393891	-0.216339	-0.823495
C134	C	1.893891	0.283661	-0.323495
C135	C	1.394007	-0.099214	-0.464757
C136	C	1.894007	0.400786	0.035243
C137	C	1.394093	-0.049280	-0.464786
C138	C	1.894093	0.450720	0.035214
C139	C	1.393910	-0.216326	-0.910565
C140	C	1.893910	0.283674	-0.410565
C141	C	1.393938	-0.216306	-1.019797
C142	C	1.893938	0.283694	-0.519797
C143	C	1.393803	-0.216398	-0.214073
C144	C	1.893803	0.283602	0.285927
C145	C	1.393965	-0.216287	-0.106860
C146	C	1.893965	0.283713	0.393140
H147	H	1.505633	-0.387391	-0.352824
H148	H	2.005633	0.112609	0.147176
Cl149	Cl	1.192860	-0.733628	-0.665481
Cl150	Cl	1.692860	-0.233628	-0.165481
Cl151	Cl	1.192782	-0.592868	-0.665477
Cl152	Cl	1.692782	-0.092868	-0.165477
H153	H	1.281729	-0.472548	-0.576499
H154	H	1.781729	0.027452	-0.076499
Cl155	Cl	1.533354	-0.949393	-0.325639
Cl156	Cl	2.033354	-0.449393	0.174361
Cl157	Cl	1.533057	-0.482883	-0.325552
Cl158	Cl	2.033057	0.017117	0.174448
H159	H	1.220261	-0.829117	-0.638204
H160	H	1.720261	-0.329117	-0.138204
Cl161	Cl	1.254332	-0.377039	-0.603768
Cl162	Cl	1.754332	0.122961	-0.103768
Cl163	Cl	1.594953	-0.733558	-0.263980
Cl164	Cl	2.094953	-0.233558	0.236020
H165	H	1.567517	-0.603203	-0.291246
H166	H	2.067517	-0.103203	0.208754
H167	H	1.567669	-0.829069	-0.291308
H168	H	2.067669	-0.329069	0.208692
H169	H	1.506077	-1.044908	-0.352969
H170	H	2.006077	-0.544908	0.147031
Cl171	Cl	1.594925	-0.698691	-0.263968
Cl172	Cl	2.094925	-0.198691	0.236032
H173	H	1.282054	-0.959828	-0.576598
H174	H	1.782054	-0.459828	-0.076598
Cl175	Cl	1.254766	-1.055329	-0.603900
Cl176	Cl	1.754766	-0.555329	-0.103900
H177	H	1.220165	-0.688362	-0.638190
H178	H	1.720165	-0.188362	-0.138190
