data_functionalizedCrystal
_audit_creation_method	'MofGen! by Chris Wilmer'
_symmetry_space_group_name_H-M	'P1'
_symmetry_Int_Tables_number	1
_symmetry_cell_setting	triclinic
loop_
_symmetry_equiv_pos_as_xyz
  x,y,z
_cell_length_a	11.792254
_cell_length_b	11.792254
_cell_length_c	10.868271
_cell_angle_alpha	89.994692
_cell_angle_beta	89.995741
_cell_angle_gamma	84.198598
loop_
_atom_site_label
_atom_site_type_symbol
_atom_site_fract_x
_atom_site_fract_y
_atom_site_fract_z
O1	O	1.506907	0.155636	-0.102322
O2	O	1.840240	0.488969	0.231012
O3	O	2.173574	0.822303	0.564345
O4	O	1.176568	0.171654	-0.102325
O5	O	1.509902	0.504987	0.231009
O6	O	1.843235	0.838321	0.564342
O7	O	1.349747	-0.001524	-0.102314
O8	O	1.683080	0.331809	0.231019
O9	O	2.016413	0.665142	0.564352
O10	O	1.333729	0.328814	-0.102332
O11	O	1.667062	0.662148	0.231001
O12	O	2.000395	0.995481	0.564335
O13	O	1.349732	-0.001531	0.102330
O14	O	1.683066	0.331802	0.435664
O15	O	2.016399	0.665136	0.768997
O16	O	1.176554	0.171647	0.102320
O17	O	1.509887	0.504980	0.435653
O18	O	1.843221	0.838314	0.768987
O19	O	1.506893	0.155629	0.102323
O20	O	1.840226	0.488963	0.435656
O21	O	2.173559	0.822296	0.768990
Zn22	Zn	1.341721	0.163637	0.134813
Zn23	Zn	1.675054	0.496970	0.468147
Zn24	Zn	2.008388	0.830304	0.801480
Zn25	Zn	1.341740	0.163646	-0.134815
Zn26	Zn	1.675073	0.496979	0.198518
Zn27	Zn	2.008407	0.830313	0.531852
O28	O	1.333714	0.328807	0.102313
O29	O	1.667048	0.662141	0.435646
O30	O	2.000381	0.995474	0.768979
C31	C	1.134271	0.170642	-0.000003
C32	C	1.467604	0.503975	0.333331
C33	C	1.800937	0.837308	0.666664
C34	C	1.008257	0.167621	-0.000003
C35	C	1.341591	0.500955	0.333330
C36	C	1.674924	0.834288	0.666663
C37	C	1.348730	-0.043818	0.000008
C38	C	1.682064	0.289515	0.333341
C39	C	2.015397	0.622848	0.666674
C40	C	1.345710	-0.169832	0.000006
C41	C	1.679044	0.163502	0.333340
C42	C	2.012377	0.496835	0.666673
C43	C	0.905921	0.165168	-0.000008
C44	C	1.239254	0.498501	0.333325
C45	C	1.572587	0.831834	0.666658
C46	C	0.777534	0.162099	-0.000009
C47	C	1.110867	0.495432	0.333324
C48	C	1.444201	0.828766	0.666658
C49	C	1.343256	-0.272168	0.000002
C50	C	1.676590	0.061165	0.333335
C51	C	2.009923	0.394498	0.666669
C52	C	1.340188	-0.400555	-0.000009
C53	C	1.673521	-0.067222	0.333324
C54	C	2.006855	0.266112	0.666657
C55	C	1.549190	0.156642	-0.000002
C56	C	1.882524	0.489975	0.333331
C57	C	2.215857	0.823308	0.666665
C58	C	1.675204	0.159662	-0.000009
C59	C	2.008537	0.492995	0.333324
C60	C	2.341870	0.826329	0.666658
C61	C	1.334731	0.371102	-0.000012
C62	C	1.668064	0.704435	0.333321
C63	C	2.001397	1.037768	0.666655
C64	C	1.337751	0.497115	-0.000019
C65	C	1.671084	0.830448	0.333314
C66	C	2.004417	1.163781	0.666648
N67	N	1.341716	0.163630	0.318827
N68	N	1.675050	0.496964	0.652161
N69	N	2.008383	0.830297	0.985494
N70	N	1.341753	0.163644	-0.318829
N71	N	1.675087	0.496977	0.014504
N72	N	2.008420	0.830311	0.347838
C73	C	1.341734	0.163644	0.569833
C74	C	1.675067	0.496977	0.903167
C75	C	2.008401	0.830310	1.236500
C76	C	1.341721	0.163640	0.430156
C77	C	1.675054	0.496973	0.763489
C78	C	2.008387	0.830306	1.096822
