data_functionalizedCrystal
_audit_creation_method	'MofGen! by Chris Wilmer'
_symmetry_space_group_name_H-M	'P1'
_symmetry_Int_Tables_number	1
_symmetry_cell_setting	triclinic
loop_
_symmetry_equiv_pos_as_xyz
  x,y,z
_cell_length_a	6.817900
_cell_length_b	11.452834
_cell_length_c	19.452420
_cell_angle_alpha	83.155818
_cell_angle_beta	78.303285
_cell_angle_gamma	71.302722
loop_
_atom_site_label
_atom_site_type_symbol
_atom_site_fract_x
_atom_site_fract_y
_atom_site_fract_z
V1	V	4.048719	-0.380960	-0.050614
O2	O	4.044824	-0.373094	0.050278
O3	O	3.991421	-0.378945	-0.146375
O4	O	4.013848	-0.546840	-0.028842
O5	O	4.022241	-0.204036	-0.068069
V6	V	4.531747	-0.359727	-0.041027
O7	O	4.311064	-0.427537	-0.071644
O8	O	4.719600	-0.313150	-0.019996
O9	O	4.365839	-0.361741	0.054734
O10	O	4.653039	-0.367593	-0.141918
O11	O	4.675621	-0.536650	-0.023571
O12	O	4.343411	-0.193846	-0.062799
C13	C	3.833819	-0.373088	-0.170375
C14	C	3.868348	-0.372546	-0.248526
C15	C	3.836208	-0.260497	-0.288852
C16	C	3.868720	-0.259951	-0.362285
C17	C	3.933333	-0.371458	-0.395389
C18	C	3.965486	-0.483522	-0.355054
C19	C	3.932994	-0.484066	-0.281622
N20	N	3.906536	-0.449991	-0.506237
N21	N	3.937394	-0.449467	-0.575995
C22	C	4.031238	-0.369827	-0.616634
N23	N	4.093023	-0.290711	-0.584881
N24	N	4.062151	-0.291232	-0.515118
C25	C	3.968572	-0.370881	-0.475013
C26	C	4.034351	-0.257178	-0.736585
C27	C	4.066877	-0.256636	-0.810020
C28	C	4.163624	-0.480210	-0.802787
C29	C	4.131117	-0.480749	-0.729354
C30	C	4.066471	-0.369229	-0.696257
C31	C	3.862426	-0.587253	-0.020449
C32	C	3.915140	-0.722865	-0.003282
C33	C	3.972677	-0.800259	-0.054687
C34	C	4.027160	-0.940421	-0.036945
C35	C	4.186782	-0.367596	0.078730
C36	C	4.131492	-0.368145	0.156881
C37	C	4.158175	-0.153427	-0.071194
C38	C	4.084699	-0.017814	-0.088359
H39	H	3.783584	-0.169689	-0.261910
C40	C	4.036544	-0.606180	-0.391469
N41	N	4.090067	-0.698570	-0.418897
H42	H	4.093634	-0.980316	-0.145508
H43	H	4.216234	-0.571002	-0.829739
C44	C	3.833348	-0.136683	-0.406652
N45	N	3.806697	-0.043837	-0.440067
C46	C	4.166433	-0.604012	-0.684992
N47	N	4.193033	-0.696859	-0.651580
C48	C	3.984756	-0.749597	-0.131891
N49	N	3.993860	-0.711440	-0.190042
H50	H	3.981711	-0.166371	-0.709637
C51	C	4.031519	-0.133367	-0.854379
N52	N	4.004883	-0.040518	-0.887791
C53	C	3.903076	-0.773527	0.073922
N54	N	3.893983	-0.811684	0.132073
H55	H	3.959175	-0.575313	-0.248788
H56	H	4.018243	-0.977922	0.020204
