data_functionalizedCrystal
_audit_creation_method	'MofGen! by Chris Wilmer'
_symmetry_space_group_name_H-M	'P1'
_symmetry_Int_Tables_number	1
_symmetry_cell_setting	triclinic
loop_
_symmetry_equiv_pos_as_xyz
  x,y,z
_cell_length_a	19.805407
_cell_length_b	13.032721
_cell_length_c	19.805399
_cell_angle_alpha	97.155902
_cell_angle_beta	89.980427
_cell_angle_gamma	97.204665
loop_
_atom_site_label
_atom_site_type_symbol
_atom_site_fract_x
_atom_site_fract_y
_atom_site_fract_z
Zn1	Zn	1.000535	-0.416068	-0.416943
Zn2	Zn	0.986084	-0.590828	-0.318130
Zn3	Zn	0.887347	-0.416097	-0.303770
Zn4	Zn	0.872952	-0.590772	-0.431272
O5	O	0.936729	-0.503441	-0.367529
O6	O	1.093333	-0.439261	-0.403849
O7	O	0.972963	-0.567684	-0.221512
O8	O	0.914433	-0.269853	-0.306777
O9	O	1.082717	-0.567656	-0.331251
O10	O	0.997592	-0.269832	-0.389925
O11	O	0.900421	-0.439310	-0.210962
O12	O	0.790722	-0.439257	-0.320671
O13	O	0.889899	-0.567562	-0.524085
O14	O	0.780146	-0.567590	-0.414346
O15	O	0.983634	-0.439207	-0.513558
O16	O	0.959005	-0.737060	-0.345145
O17	O	0.875887	-0.737019	-0.428270
C18	C	0.760875	-0.503421	-0.367506
C19	C	0.685642	-0.503438	-0.367514
C20	C	0.644800	-0.570361	-0.416228
C21	C	0.574112	-0.570363	-0.416238
C22	C	0.544265	-0.503446	-0.367529
C23	C	0.585113	-0.436515	-0.318812
C24	C	0.655800	-0.436508	-0.318806
C25	C	0.300037	-0.436538	-0.318836
C26	C	0.229344	-0.436551	-0.318845
C27	C	0.218349	-0.570393	-0.416269
C28	C	0.289036	-0.570386	-0.416262
C29	C	0.329878	-0.503452	-0.367548
C30	C	0.406526	-0.503449	-0.367538
C31	C	0.467618	-0.503453	-0.367535
C32	C	0.914334	-0.774958	-0.389835
C33	C	0.904816	-0.891114	-0.399401
C34	C	0.941733	-0.942886	-0.362567
C35	C	0.931896	-1.062939	-0.372453
C36	C	1.113270	-0.503462	-0.367553
C37	C	1.188502	-0.503471	-0.367563
C38	C	0.936773	-0.503375	-0.544066
C39	C	0.936791	-0.503347	-0.619296
C40	C	0.959230	-0.230864	-0.345151
C41	C	0.968819	-0.114708	-0.335614
C42	C	0.985600	-0.436510	-0.649160
C43	C	0.985609	-0.436479	-0.719846
C44	C	0.936813	-0.503293	-0.760667
C45	C	0.887999	-0.570133	-0.730799
C46	C	0.887987	-0.570157	-0.660114
C47	C	0.888045	-0.570036	-1.015865
C48	C	0.888062	-0.570008	-1.086555
C49	C	0.985668	-0.436358	-1.075596
C50	C	0.985656	-0.436382	-1.004911
C51	C	0.936840	-0.503218	-0.975049
C52	C	0.936830	-0.503249	-0.898403
C53	C	0.936825	-0.503268	-0.837312
C54	C	0.936731	-0.503431	-0.191672
C55	C	0.936868	-0.503165	-0.116419
H56	H	0.980626	-0.898333	-0.323717
H57	H	0.893007	-1.107490	-0.411311
O58	O	0.178655	-0.635255	-0.463657
C59	C	0.142674	-0.575851	-0.502550
H60	H	0.170766	-0.493552	-0.500056
H61	H	0.089392	-0.572211	-0.481334
C62	C	0.102895	-0.728133	-0.580128
C63	C	0.137401	-0.627054	-0.577069
H64	H	0.099639	-0.759719	-0.626095
H65	H	0.127134	-0.768156	-0.553924
H66	H	0.058497	-0.725086	-0.562444
H67	H	0.181801	-0.630104	-0.594745
H68	H	0.113169	-0.587033	-0.603279
H69	H	1.007714	-1.070157	-0.296761
H70	H	0.848265	-0.624530	-0.764042
O71	O	0.858505	-0.944372	-0.445797
C72	C	0.891888	-1.007395	-0.494714
H73	H	0.941879	-1.023593	-0.472215
H74	H	0.902716	-0.965334	-0.541441
C75	C	0.784800	-1.091279	-0.543054
C76	C	0.846197	-1.111181	-0.515418
H77	H	0.756614	-1.155298	-0.555828
H78	H	0.762308	-1.048817	-0.510099
H79	H	0.793832	-1.056226	-0.581989
H80	H	0.837164	-1.146222	-0.476478
H81	H	0.868686	-1.153652	-0.548366
O82	O	0.317921	-0.635423	-0.463645
C83	C	0.266712	-0.694511	-0.506636
H84	H	0.219853	-0.651718	-0.505513
H85	H	0.252645	-0.773832	-0.488284
C86	C	0.350632	-0.762270	-0.581283
C87	C	0.293080	-0.709707	-0.579908
H88	H	0.366896	-0.771648	-0.626480
H89	H	0.385132	-0.722464	-0.552318
H90	H	0.338901	-0.828365	-0.565986
H91	H	0.304813	-0.643609	-0.595196
H92	H	0.258582	-0.749502	-0.608877
H93	H	0.848322	-0.624418	-1.119791
H94	H	0.205047	-0.382053	-0.279180
H95	H	0.333282	-0.382044	-0.279165
H96	H	0.848236	-0.624573	-0.635800
H97	H	1.025356	-0.382056	-0.744157
O98	O	0.556010	-0.371603	-0.271529
C99	C	0.484863	-0.385939	-0.281990
H100	H	0.468562	-0.466636	-0.310697
H101	H	0.469925	-0.324031	-0.313019
C102	C	0.469364	-0.277101	-0.177462
C103	C	0.449343	-0.376219	-0.212716
H104	H	0.447452	-0.271101	-0.134732
H105	H	0.517297	-0.267439	-0.170415
H106	H	0.456914	-0.225523	-0.203327
H107	H	0.461800	-0.427795	-0.186855
H108	H	0.401410	-0.385889	-0.219757
H109	H	0.669095	-0.624857	-0.455891
O110	O	0.534534	-0.635484	-0.463582
C111	C	0.576035	-0.694537	-0.506577
H112	H	0.626121	-0.698079	-0.479137
H113	H	0.586718	-0.656389	-0.554894
C114	C	0.477766	-0.801437	-0.559040
C115	C	0.539280	-0.805796	-0.525336
H116	H	0.455093	-0.870065	-0.570615
H117	H	0.449805	-0.761650	-0.530076
H118	H	0.486677	-0.769643	-0.599301
H119	H	0.530368	-0.837577	-0.485072
H120	H	0.567238	-0.845591	-0.554294
O121	O	0.695374	-0.371471	-0.271414
C122	C	0.653876	-0.312393	-0.228432
H123	H	0.599957	-0.355196	-0.229565
H124	H	0.652911	-0.233074	-0.246784
C125	C	0.748912	-0.244617	-0.153767
C126	C	0.682688	-0.297193	-0.155155
H127	H	0.766685	-0.235236	-0.108567
H128	H	0.776870	-0.284416	-0.182726
H129	H	0.748098	-0.178523	-0.169064
H130	H	0.683503	-0.363290	-0.139866
H131	H	0.654730	-0.257405	-0.126191
H132	H	1.025393	-0.381979	-0.971677
O133	O	1.033032	-0.371508	-0.609605
C134	C	1.076123	-0.312527	-0.651126
H135	H	1.048706	-0.308890	-0.701209
H136	H	1.124371	-0.350799	-0.661796
C137	C	1.128729	-0.205780	-0.552899
C138	C	1.095053	-0.201306	-0.614410
H139	H	1.140409	-0.137175	-0.530250
H140	H	1.099700	-0.245519	-0.524924
H141	H	1.168931	-0.237678	-0.561799
H142	H	1.054847	-0.169421	-0.605508
H143	H	1.124075	-0.161559	-0.642382
O144	O	1.033017	-0.371455	-1.104712
C145	C	1.022576	-0.385769	-1.175855
H146	H	0.967518	-0.419982	-1.188309
H147	H	1.058132	-0.441417	-1.200493
C148	C	1.105139	-0.237994	-1.188165
C149	C	1.037514	-0.280008	-1.203461
H150	H	1.114356	-0.172758	-1.205195
H151	H	1.112175	-0.228352	-1.140235
H152	H	1.134761	-0.284378	-1.208698
H153	H	1.007893	-0.233631	-1.182922
H154	H	1.030473	-0.289640	-1.251389
O155	O	0.840591	-0.635043	-0.986974
C156	C	0.797513	-0.693981	-1.038162
H157	H	0.824954	-0.697607	-1.088847
H158	H	0.749280	-0.655678	-1.042539
C159	C	0.744839	-0.800749	-0.957444
C160	C	0.778545	-0.805210	-1.019696
H161	H	0.733135	-0.869359	-0.946053
H162	H	0.773859	-0.761040	-0.922957
H163	H	0.704649	-0.768826	-0.961100
H164	H	0.818738	-0.837121	-1.016037
H165	H	0.749530	-0.844928	-1.054183
