data_functionalizedCrystal
_audit_creation_method	'MofGen! by Chris Wilmer'
_symmetry_space_group_name_H-M	'P1'
_symmetry_Int_Tables_number	1
_symmetry_cell_setting	triclinic
loop_
_symmetry_equiv_pos_as_xyz
  x,y,z
_cell_length_a	19.077409
_cell_length_b	12.827892
_cell_length_c	19.076919
_cell_angle_alpha	92.275345
_cell_angle_beta	94.476475
_cell_angle_gamma	92.317040
loop_
_atom_site_label
_atom_site_type_symbol
_atom_site_fract_x
_atom_site_fract_y
_atom_site_fract_z
Zn1	Zn	1.061712	-0.373872	-0.355463
Zn2	Zn	1.066385	-0.541318	-0.237589
Zn3	Zn	0.948568	-0.373907	-0.242311
Zn4	Zn	0.943815	-0.555891	-0.360152
O5	O	1.005120	-0.461247	-0.298879
O6	O	1.160980	-0.389971	-0.335888
O7	O	1.054700	-0.513026	-0.139568
O8	O	0.963610	-0.227665	-0.257335
O9	O	1.164412	-0.512993	-0.249287
O10	O	1.046737	-0.227640	-0.340467
O11	O	0.968141	-0.390030	-0.143038
O12	O	0.849290	-0.404161	-0.261882
O13	O	0.955510	-0.537830	-0.458177
O14	O	0.845798	-0.537863	-0.348459
O15	O	1.042129	-0.404102	-0.454732
O16	O	1.050092	-0.689488	-0.253833
O17	O	0.960041	-0.700195	-0.343880
C18	C	0.821966	-0.472598	-0.306192
C19	C	0.743611	-0.477480	-0.309337
C20	C	0.302362	-0.512415	-0.331929
C21	C	0.375985	-0.507835	-0.328961
C22	C	0.414588	-0.435831	-0.282475
C23	C	0.379565	-0.368409	-0.238950
C24	C	0.305943	-0.372995	-0.241916
C25	C	0.634966	-0.414645	-0.268778
C26	C	0.708593	-0.410062	-0.265817
C27	C	0.705008	-0.549490	-0.355827
C28	C	0.631385	-0.554065	-0.358791
C29	C	0.596368	-0.486647	-0.315264
N30	N	0.489843	-0.431145	-0.279441
N31	N	0.521115	-0.491339	-0.318294
C32	C	1.005076	-0.732759	-0.298867
C33	C	1.005121	-0.848910	-0.298884
C34	C	1.046235	-0.900603	-0.340059
C35	C	1.046282	-1.020651	-0.340077
C36	C	1.188989	-0.449852	-0.291537
C37	C	1.267343	-0.444997	-0.288409
C38	C	0.997768	-0.472587	-0.482748
C39	C	0.994635	-0.477420	-0.561102
C40	C	1.005182	-0.188675	-0.298905
C41	C	1.005209	-0.072521	-0.298916
C42	C	1.038259	-0.410069	-0.596120
C43	C	1.035306	-0.414606	-0.669743
C44	C	0.988734	-0.486500	-0.708345
C45	C	0.945106	-0.553855	-0.673321
C46	C	0.948055	-0.549312	-0.599701
C47	C	0.975074	-0.507549	-0.928720
C48	C	0.972130	-0.512089	-1.002346
C49	C	1.062330	-0.372838	-0.998762
C50	C	1.065278	-0.368306	-0.925140
C51	C	1.021647	-0.435656	-0.890123
N52	N	0.985717	-0.491142	-0.783599
N53	N	1.024662	-0.431009	-0.814870
C54	C	1.012484	-0.449873	-0.115723
C55	C	1.015753	-0.444737	-0.037364
H56	H	0.277432	-0.318093	-0.206479
C57	C	1.082831	-0.341270	-0.481676
C58	C	1.089451	-0.331036	-0.553691
H59	H	1.114438	-0.292478	-0.455485
H60	H	1.035959	-0.328168	-0.471504
H61	H	1.093620	-0.410101	-0.469197
H62	H	1.078657	-0.262206	-0.566171
H63	H	1.136335	-0.344130	-0.563867
C64	C	0.910822	-0.977189	-0.292891
C65	C	0.957648	-0.909135	-0.251311
H66	H	0.881516	-1.014370	-0.263519
H67	H	0.882566	-0.938191	-0.324622
H68	H	0.936630	-1.025171	-0.318723
H69	H	0.931840	-0.861148	-0.225482
H70	H	0.985906	-0.948136	-0.219568
C71	C	0.645915	-0.276356	-0.179519
C72	C	0.596482	-0.340529	-0.220940
H73	H	0.622152	-0.230593	-0.149990
H74	H	0.675695	-0.318368	-0.151346
H75	H	0.673416	-0.236572	-0.209135
H76	H	0.568985	-0.380319	-0.191325
H77	H	0.566690	-0.298513	-0.249116
C78	C	1.075658	-0.871911	-0.458065
C79	C	1.093701	-0.840374	-0.387637
H80	H	1.104960	-0.834723	-0.487438
H81	H	1.081925	-0.944674	-0.464313
H82	H	1.027854	-0.857705	-0.470209
H83	H	1.141504	-0.854587	-0.375491
H84	H	1.087440	-0.767594	-0.381385
H85	H	0.907182	-0.612389	-0.704757
H86	H	0.270936	-0.571044	-0.369786
C87	C	0.858620	-0.687438	-0.610632
C88	C	0.900115	-0.623364	-0.561205
H89	H	0.829028	-0.733161	-0.586865
H90	H	0.830508	-0.645355	-0.640421
H91	H	0.888185	-0.727265	-0.638124
H92	H	0.870550	-0.583530	-0.533716
H93	H	0.928229	-0.665452	-0.531404
H94	H	1.070831	-0.359763	-0.698251
C95	C	1.180802	-0.315935	-1.016678
C96	C	1.110282	-0.298803	-1.037255
H97	H	1.210404	-0.270228	-1.040446
H98	H	1.189218	-0.302938	-0.967314
H99	H	1.190612	-0.386256	-1.028330
H100	H	1.100470	-0.228483	-1.025598
H101	H	1.101862	-0.311792	-1.086630
C102	C	0.883254	-0.649271	-0.998498
C103	C	0.920930	-0.591117	-1.044779
H104	H	0.851646	-0.698053	-1.024697
H105	H	0.915104	-0.685572	-0.968554
H106	H	0.857451	-0.603626	-0.970863
H107	H	0.946738	-0.636762	-1.072411
H108	H	0.889076	-0.554814	-1.074735
C109	C	1.100544	-0.187815	-0.901155
C110	C	1.116467	-0.289251	-0.882726
H111	H	1.132145	-0.139007	-0.874971
H112	H	1.105025	-0.180908	-0.950010
H113	H	1.053665	-0.174732	-0.890971
H114	H	1.163344	-0.302337	-0.892915
H115	H	1.111992	-0.296161	-0.833860
C116	C	0.968544	-0.643626	-0.846316
C117	C	0.927115	-0.581587	-0.890242
H118	H	0.938932	-0.689332	-0.822559
H119	H	0.998097	-0.683462	-0.873805
H120	H	0.996694	-0.600153	-0.812784
H121	H	0.898969	-0.625059	-0.923777
H122	H	0.897550	-0.541747	-0.862751
C123	C	0.466126	-0.342668	-0.140816
C124	C	0.422000	-0.289263	-0.187853
H125	H	0.492326	-0.293802	-0.109275
H126	H	0.438472	-0.388246	-0.114955
H127	H	0.497514	-0.382162	-0.166321
H128	H	0.390609	-0.249775	-0.162348
H129	H	0.449657	-0.243666	-0.213717
C130	C	1.052178	-1.148695	-0.434466
C131	C	1.093799	-1.080655	-0.387671
H132	H	1.081515	-1.185736	-0.463852
H133	H	1.026423	-1.196792	-0.408642
H134	H	1.020375	-1.109697	-0.462649
H135	H	1.125599	-1.119655	-0.359485
H136	H	1.119566	-1.032553	-0.413497
H137	H	0.404493	-0.562737	-0.364398
H138	H	0.599959	-0.612701	-0.396643
H139	H	0.740022	-0.351414	-0.227968
C140	C	0.784044	-0.564926	-0.447295
C141	C	0.743502	-0.623599	-0.403664
H142	H	0.807811	-0.610684	-0.476824
H143	H	0.754257	-0.522926	-0.475470
H144	H	0.817568	-0.521390	-0.419180
H145	H	0.709974	-0.667130	-0.431780
H146	H	0.773291	-0.665617	-0.375486
H147	H	0.970011	-1.028074	-0.263659
