data_functionalizedCrystal
_audit_creation_method	'MofGen! by Chris Wilmer'
_symmetry_space_group_name_H-M	'P1'
_symmetry_Int_Tables_number	1
_symmetry_cell_setting	triclinic
loop_
_symmetry_equiv_pos_as_xyz
  x,y,z
_cell_length_a	12.759401
_cell_length_b	12.594516
_cell_length_c	12.759393
_cell_angle_alpha	90.028398
_cell_angle_beta	89.979062
_cell_angle_gamma	89.971744
loop_
_atom_site_label
_atom_site_type_symbol
_atom_site_fract_x
_atom_site_fract_y
_atom_site_fract_z
Zn1	Zn	1.606179	0.423647	-0.594035
Zn2	Zn	1.606033	0.601663	-0.418362
Zn3	Zn	1.430477	0.423704	-0.418371
Zn4	Zn	1.430432	0.601589	-0.593999
O5	O	1.518280	0.512651	-0.506192
O6	O	1.753180	0.447269	-0.570744
O7	O	1.582703	0.578111	-0.271342
O8	O	1.453864	0.274751	-0.441692
O9	O	1.753073	0.578057	-0.441677
O10	O	1.582951	0.274709	-0.570752
O11	O	1.453723	0.447365	-0.271348
O12	O	1.283450	0.447293	-0.441657
O13	O	1.453788	0.577930	-0.741025
O14	O	1.283417	0.577985	-0.570690
O15	O	1.582908	0.447197	-0.741052
O16	O	1.582659	0.750599	-0.441642
O17	O	1.453646	0.750545	-0.570682
C18	C	1.245313	0.512638	-0.506171
C19	C	1.128536	0.512658	-0.506187
C20	C	1.073685	0.580813	-0.573269
C21	C	0.963960	0.580817	-0.573290
C22	C	0.963949	0.444509	-0.439138
C23	C	1.073672	0.444500	-0.439123
C24	C	0.814057	0.619009	-0.697152
C25	C	0.759201	0.687180	-0.764224
C26	C	0.794777	0.791053	-0.780176
C27	C	0.885207	0.826776	-0.729040
C28	C	0.940057	0.758611	-0.661959
C29	C	0.904482	0.654723	-0.646027
C30	C	1.223577	0.406319	-0.315259
C31	C	1.278429	0.338158	-0.248173
C32	C	1.242855	0.234283	-0.232210
C33	C	1.152422	0.198564	-0.283328
C34	C	1.097570	0.266725	-0.350415
C35	C	1.133152	0.370598	-0.366379
C36	C	1.518160	0.789192	-0.506180
C37	C	1.518205	0.907497	-0.506210
C38	C	1.448016	0.976759	-0.576345
C39	C	1.422402	1.047629	-0.480477
C40	C	1.543877	1.047427	-0.602093
C41	C	1.492541	0.976808	-0.410291
C42	C	1.614060	0.976601	-0.531971
C43	C	1.588483	1.047438	-0.436038
C44	C	1.792313	0.512665	-0.506213
C45	C	1.909090	0.512671	-0.506223
C46	C	1.518359	0.512549	-0.780225
C47	C	1.518392	0.512505	-0.897002
C48	C	1.518383	1.235030	-0.506225
C49	C	1.518308	1.116725	-0.506236
C50	C	1.585630	0.444422	-0.951879
C51	C	1.585648	0.444376	-1.061604
C52	C	1.451187	0.580506	-1.061563
C53	C	1.451165	0.580546	-0.951841
C54	C	1.623286	0.318796	-1.211577
C55	C	1.690540	0.250722	-1.266458
C56	C	1.793056	0.234401	-1.230866
C57	C	1.828339	0.286169	-1.140395
C58	C	1.761091	0.354251	-1.085519
C59	C	1.658560	0.370552	-1.121110
C60	C	1.413538	0.706127	-0.801865
C61	C	1.346294	0.774215	-0.746988
C62	C	1.243776	0.790547	-0.782578
C63	C	1.208497	0.738798	-0.873053
C64	C	1.275741	0.670710	-0.927930
C65	C	1.378258	0.654375	-0.892333
C66	C	1.518262	0.512676	-0.233224
C67	C	1.518432	0.512420	-0.116448
H68	H	0.919265	0.389018	-0.384535
H69	H	1.470776	0.945916	-0.329193
N70	N	1.298872	0.164643	-0.163684
N71	N	1.267092	0.071899	-0.149447
H72	H	1.306649	0.022713	-0.101052
H73	H	1.539807	0.332071	-1.240560
N74	N	0.738754	0.860705	-0.848678
N75	N	0.701459	0.945625	-0.814227
H76	H	0.661890	0.994815	-0.862609
H77	H	1.647884	1.078276	-0.376669
N78	N	1.382525	0.649997	-1.117598
N79	N	1.382553	0.649954	-1.215563
H80	H	1.334061	0.699034	-1.255138
H81	H	0.914160	0.911365	-0.742024
N82	N	1.239692	0.617858	-1.020350
N83	N	1.148156	0.632450	-1.052124
H84	H	1.122696	0.595125	-1.117396
N85	N	0.666833	0.650677	-0.816447
N86	N	0.635083	0.557922	-0.802210
H87	H	0.569846	0.532146	-0.839089
H88	H	0.785089	0.534423	-0.684181
H89	H	1.125019	0.752100	-0.902034
N90	N	1.005206	0.230218	-0.402640
N91	N	0.973455	0.137465	-0.388392
H92	H	0.908228	0.111679	-0.425281
N93	N	1.518253	0.689441	-0.765485
N94	N	1.549740	0.735656	-0.684707
H95	H	1.623695	0.723875	-0.659011
H96	H	1.352064	0.367250	-0.206549
H97	H	1.123444	0.113987	-0.270315
N98	N	1.175070	0.860090	-0.726530
N99	N	1.083535	0.874653	-0.758321
H100	H	1.035008	0.923764	-0.718740
H101	H	1.695055	0.945381	-0.553785
H102	H	1.341388	1.078851	-0.458710
H103	H	1.375031	0.816362	-0.673325
H104	H	1.565548	1.078448	-0.683169
H105	H	1.252557	0.490900	-0.328260
N106	N	1.373436	0.937834	-0.650639
N107	N	1.278577	0.960650	-0.640901
H108	H	1.225902	0.933158	-0.693367
N109	N	1.654304	0.374915	-0.895878
N110	N	1.714331	0.314130	-0.944895
H111	H	1.762833	0.265036	-0.905347
N112	N	1.797136	0.407125	-0.993116
N113	N	1.888677	0.392552	-0.961349
H114	H	1.914137	0.429889	-0.896084
H115	H	1.911822	0.272882	-1.111429
H116	H	1.847815	0.178972	-1.275559
H117	H	1.661803	0.208573	-1.340121
H118	H	1.118352	0.636308	-0.627880
H119	H	1.013683	0.787696	-0.620324
