data_functionalizedCrystal
_audit_creation_method	'MofGen! by Chris Wilmer'
_symmetry_space_group_name_H-M	'P1'
_symmetry_Int_Tables_number	1
_symmetry_cell_setting	triclinic
loop_
_symmetry_equiv_pos_as_xyz
  x,y,z
_cell_length_a	10.654545
_cell_length_b	15.625429
_cell_length_c	9.130313
_cell_angle_alpha	71.918332
_cell_angle_beta	89.996934
_cell_angle_gamma	84.351614
loop_
_atom_site_label
_atom_site_type_symbol
_atom_site_fract_x
_atom_site_fract_y
_atom_site_fract_z
O1	O	1.666525	0.126605	-0.189017
O2	O	1.300920	0.138673	-0.195432
O3	O	1.493491	0.001463	-0.122555
O4	O	1.473954	0.263815	-0.261893
O5	O	1.493478	0.001459	0.121046
O6	O	1.300907	0.138669	0.048169
O7	O	1.666512	0.126601	0.054584
Cu8	Cu	1.483708	0.132635	0.073620
Cu9	Cu	1.483724	0.132640	-0.214467
O10	O	1.473941	0.263811	-0.018292
C11	C	1.254125	0.137786	-0.073162
C12	C	1.114709	0.135137	-0.071757
C13	C	1.049210	0.133888	0.061693
C14	C	0.918216	0.131385	0.063022
C15	C	0.918231	0.131383	-0.202562
C16	C	1.049224	0.133880	-0.203886
C17	C	1.492600	-0.032132	0.017084
C18	C	1.489950	-0.132229	0.070237
C19	C	1.481235	-0.461424	-0.418830
C20	C	1.478739	-0.555480	-0.368839
C21	C	1.478725	-0.555470	-0.103283
C22	C	1.481227	-0.461413	-0.153251
C23	C	1.482481	-0.414398	-0.311026
C24	C	1.482473	-0.414387	-0.045447
C25	C	1.484968	-0.320338	-0.095412
C26	C	1.486217	-0.273315	-0.253181
C27	C	1.484976	-0.320348	-0.360991
C28	C	1.481211	-0.461404	0.112327
C29	C	1.482456	-0.414377	0.220131
C30	C	1.484960	-0.320327	0.170167
C31	C	1.486210	-0.273304	0.012398
C32	C	1.486202	-0.273294	0.277977
C33	C	1.488697	-0.179244	0.228012
C34	C	1.488705	-0.179255	-0.037567
C35	C	1.713307	0.127488	-0.067689
C36	C	1.852723	0.130137	-0.069103
C37	C	1.474831	0.297406	-0.157934
C38	C	1.477481	0.397503	-0.211097
N39	N	1.483706	0.132631	0.276244
N40	N	1.483735	0.132636	-0.417088
C41	C	1.569005	0.071900	0.385152
C42	C	1.569017	0.071900	0.538489
C43	C	1.398427	0.193370	0.473992
C44	C	1.398410	0.193365	0.320661
H45	H	0.864893	0.130368	0.171690
C46	C	0.846190	0.130011	-0.347902
C47	C	0.770265	0.050152	-0.342006
C48	C	0.698225	0.048782	-0.487351
C49	C	0.702111	0.127272	-0.638591
C50	C	0.778039	0.207137	-0.644492
C51	C	0.850079	0.208506	-0.499147
H52	H	0.767386	-0.007957	-0.230044
H53	H	0.642018	-0.010339	-0.482981
H54	H	0.648782	0.126259	-0.746184
H55	H	0.780918	0.265245	-0.756454
H56	H	0.906286	0.267628	-0.503517
H57	H	1.482267	-0.423142	-0.547306
H58	H	1.638474	0.022447	0.627161
C59	C	1.490071	-0.127505	0.346588
C60	C	1.382818	-0.053288	0.343675
C61	C	1.384186	-0.001547	0.462250
C62	C	1.492806	-0.024023	0.583739
C63	C	1.600067	-0.098244	0.586657
C64	C	1.598699	-0.149985	0.468081
H65	H	1.302404	-0.036647	0.253737
H66	H	1.304783	0.053397	0.460090
H67	H	1.493818	0.014279	0.671516
H68	H	1.680481	-0.114885	0.676595
H69	H	1.678102	-0.204929	0.470242
H70	H	1.102524	0.134912	0.169281
H71	H	1.477714	-0.593764	-0.456639
H72	H	1.638457	0.022446	0.348994
C73	C	1.477344	-0.607200	0.070262
C74	C	1.366660	-0.662296	0.136043
C75	C	1.365279	-0.714027	0.309588
C76	C	1.474582	-0.710663	0.417352
C77	C	1.585275	-0.655565	0.351573
C78	C	1.586655	-0.603834	0.178028
H79	H	1.285739	-0.664788	0.056267
H80	H	1.283336	-0.754814	0.358281
H81	H	1.473560	-0.748957	0.545821
H82	H	1.666195	-0.653073	0.431348
H83	H	1.668598	-0.563047	0.129334
C84	C	1.304614	0.260182	0.522848
C85	C	1.304698	0.260248	0.691475
C86	C	1.210884	0.327065	0.740324
C87	C	1.116987	0.393816	0.620546
C88	C	1.116899	0.393753	0.451909
C89	C	1.210713	0.326936	0.403060
H90	H	1.374209	0.210833	0.780151
H91	H	1.210949	0.327112	0.865161
H92	H	1.047540	0.443278	0.656707
H93	H	1.047387	0.443168	0.363232
H94	H	1.210647	0.326890	0.278223
H95	H	1.481431	-0.452670	0.348592
H96	H	1.102555	0.134895	-0.312563
H97	H	1.489736	-0.140973	-0.166043
H98	H	1.488235	-0.196733	-0.293861
H99	H	1.486007	-0.282066	-0.489467
H100	H	1.328943	0.242820	0.231980
H101	H	1.479165	-0.537984	0.153003
H102	H	1.485169	-0.311587	0.406438
