data_functionalizedCrystal
_audit_creation_method	'MofGen! by Chris Wilmer'
_symmetry_space_group_name_H-M	'P1'
_symmetry_Int_Tables_number	1
_symmetry_cell_setting	triclinic
loop_
_symmetry_equiv_pos_as_xyz
  x,y,z
_cell_length_a	9.065215
_cell_length_b	13.596369
_cell_length_c	14.519709
_cell_angle_alpha	90.006934
_cell_angle_beta	84.347421
_cell_angle_gamma	90.004765
loop_
_atom_site_label
_atom_site_type_symbol
_atom_site_fract_x
_atom_site_fract_y
_atom_site_fract_z
O1	O	1.957871	0.081783	0.135215
O2	O	1.528378	0.081787	0.146310
O3	O	1.754512	0.081776	0.006608
O4	O	1.731737	0.081794	0.274918
O5	O	1.754490	-0.081807	0.006600
O6	O	1.528356	-0.081796	0.146302
O7	O	1.957849	-0.081800	0.135208
Zn8	Zn	1.743099	-0.107770	0.140754
Zn9	Zn	1.743128	0.107757	0.140764
O10	O	1.731715	-0.081789	0.274910
C11	C	1.473400	-0.000004	0.145241
C12	C	1.309617	-0.000002	0.142054
N13	N	1.743089	-0.254862	0.140746
C14	C	1.743126	-0.656153	0.140765
C15	C	1.743112	-0.544502	0.140763
C16	C	1.743108	-0.455511	0.140756
C17	C	1.743092	-0.343853	0.140753
C18	C	2.012827	-0.000007	0.136277
C19	C	2.176610	-0.000002	0.139464
C20	C	1.753439	-0.000016	-0.027764
C21	C	1.750259	-0.000016	-0.130168
N22	N	1.743150	0.254849	0.140764
C23	C	1.738550	0.000009	-0.505150
C24	C	1.741801	0.000002	-0.400818
C25	C	1.744404	-0.000004	-0.317662
C26	C	1.747656	-0.000010	-0.213324
C27	C	1.732788	0.000005	0.309282
C28	C	1.735968	0.000012	0.411686
