data_functionalizedCrystal
_audit_creation_method	'MofGen! by Chris Wilmer'
_symmetry_space_group_name_H-M	'P1'
_symmetry_Int_Tables_number	1
_symmetry_cell_setting	triclinic
loop_
_symmetry_equiv_pos_as_xyz
  x,y,z
_cell_length_a	10.540510
_cell_length_b	10.540539
_cell_length_c	12.503572
_cell_angle_alpha	93.560877
_cell_angle_beta	86.446316
_cell_angle_gamma	84.519401
loop_
_atom_site_label
_atom_site_type_symbol
_atom_site_fract_x
_atom_site_fract_y
_atom_site_fract_z
O1	O	1.693163	0.171442	-0.089322
O2	O	1.323745	0.188337	-0.089322
O3	O	1.516882	-0.004818	-0.089321
O4	O	1.500026	0.364597	-0.089323
O5	O	1.502357	0.009733	0.089321
O6	O	1.309221	0.202888	0.089320
O7	O	1.678638	0.185993	0.089320
Cu8	Cu	1.492603	0.195769	0.105631
Cu9	Cu	1.509781	0.178561	-0.105634
O10	O	1.485502	0.379148	0.089318
C11	C	1.269179	0.194354	-0.000001
C12	C	1.128230	0.190587	-0.000002
C13	C	0.910808	0.324737	-0.000413
C14	C	1.057370	0.328789	-0.000004
C15	C	1.075176	0.128150	0.102010
C16	C	0.928408	0.125117	0.102089
C17	C	0.945119	0.105692	-0.101061
C18	C	1.091570	0.112138	-0.102402
C19	C	1.508356	-0.044845	-0.000002
C20	C	1.504575	-0.185794	-0.000008
C21	C	1.359688	-0.369238	-0.000409
C22	C	1.363489	-0.222587	-0.000007
C23	C	1.564177	-0.239149	0.102006
C24	C	1.559355	-0.385686	0.102092
C25	C	1.578741	-0.402752	-0.101058
C26	C	1.580151	-0.255880	-0.102406
C27	C	1.733205	0.179976	-0.000003
C28	C	1.874155	0.183742	-0.000010
C29	C	1.494028	0.419175	-0.000003
C30	C	1.497810	0.560123	-0.000004
N31	N	1.480531	0.207871	0.254223
N32	N	1.521863	0.166449	-0.254226
C33	C	1.462772	0.225685	0.473338
C34	C	1.539618	0.148639	0.526666
C35	C	1.529736	0.158551	0.648589
C36	C	1.472652	0.215775	0.351404
H37	H	1.099857	0.183465	0.177926
H38	H	1.122257	0.026717	0.105804
H39	H	1.126324	0.157465	-0.177870
H40	H	1.141138	0.010738	-0.108562
H41	H	1.309904	-0.403790	-0.073564
N42	N	1.282628	-0.399623	0.090869
N43	N	1.168926	-0.352695	0.105295
H44	H	1.114507	-0.374142	0.169768
H45	H	1.680702	-0.450044	-0.101744
N46	N	1.370954	0.317789	0.530922
N47	N	1.374958	0.434123	0.518468
H48	H	1.310114	0.499174	0.559147
H49	H	0.908858	0.142977	-0.178380
N50	N	1.497259	-0.177942	0.197235
N51	N	1.405665	-0.095021	0.190237
H52	H	1.358396	-0.051794	0.257490
H53	H	0.905036	0.022128	0.106723
N54	N	1.686167	-0.445394	0.107932
N55	N	1.748873	-0.418343	0.186400
H56	H	1.838432	-0.460505	0.190534
H57	H	1.536607	-0.221163	-0.177873
N58	N	1.631506	0.056563	0.469115
N59	N	1.627571	-0.059778	0.481572
H60	H	1.692481	-0.124795	0.440931
N61	N	0.865640	0.384841	-0.092175
N62	N	0.885901	0.497747	-0.106190
H63	H	0.853998	0.540197	-0.171001
N64	N	1.101632	0.390753	-0.091743
N65	N	1.024240	0.431305	-0.156519
H66	H	1.055492	0.475075	-0.221312
H67	H	0.923021	0.001874	-0.101749
H68	H	0.861386	0.384194	0.072330
H69	H	1.079818	0.390437	0.073244
H70	H	0.881992	0.179676	0.178343
H71	H	1.539366	-0.440598	-0.178377
N72	N	1.303921	-0.176617	-0.091744
N73	N	1.259241	-0.252872	-0.156514
H74	H	1.217161	-0.220412	-0.221305
N75	N	1.288527	-0.162721	0.091887
N76	N	1.233244	-0.229249	0.155929
H77	H	1.180300	-0.186970	0.220835
N78	N	1.488626	-0.413253	0.197757
N79	N	1.443161	-0.324342	0.263994
H80	H	1.393205	-0.343803	0.331560
N81	N	1.693757	-0.210705	0.106763
N82	N	1.719288	-0.097183	0.111259
H83	H	1.810805	-0.077088	0.114616
N84	N	1.709809	-0.226109	-0.110139
N85	N	1.748801	-0.152431	-0.039989
H86	H	1.840375	-0.131398	-0.045445
