data_functionalizedCrystal
_audit_creation_method	'MofGen! by Chris Wilmer'
_symmetry_space_group_name_H-M	'P1'
_symmetry_Int_Tables_number	1
_symmetry_cell_setting	triclinic
loop_
_symmetry_equiv_pos_as_xyz
  x,y,z
_cell_length_a	27.731994
_cell_length_b	19.288865
_cell_length_c	18.366186
_cell_angle_alpha	89.987206
_cell_angle_beta	89.993010
_cell_angle_gamma	97.121609
loop_
_atom_site_label
_atom_site_type_symbol
_atom_site_fract_x
_atom_site_fract_y
_atom_site_fract_z
O1	O	0.641189	-0.082473	0.060454
O2	O	1.141189	0.417527	0.560454
O3	O	0.500430	-0.095079	0.060479
O4	O	1.000430	0.404921	0.560479
O5	O	0.574877	0.012381	0.060452
O6	O	1.074877	0.512381	0.560452
O7	O	0.566743	-0.189932	0.060482
O8	O	1.066743	0.310068	0.560482
O9	O	0.574879	0.012392	-0.060648
O10	O	1.074879	0.512392	0.439352
O11	O	0.500432	-0.095068	-0.060620
O12	O	1.000432	0.404932	0.439380
O13	O	0.641191	-0.082462	-0.060645
O14	O	1.141191	0.417538	0.439355
Zn15	Zn	0.570812	-0.088764	-0.079860
Zn16	Zn	1.070812	0.411236	0.420140
Zn17	Zn	0.570810	-0.088777	0.079694
Zn18	Zn	1.070810	0.411223	0.579694
O19	O	0.566744	-0.189922	-0.060618
O20	O	1.066744	0.310078	0.439382
C21	C	0.482423	-0.094815	-0.000067
C22	C	0.982423	0.405185	0.499933
C23	C	0.428764	-0.094035	-0.000058
C24	C	0.928764	0.405965	0.499942
C25	C	0.096032	-0.089122	-0.066098
C26	C	0.596032	0.410878	0.433902
C27	C	-0.105635	-0.086159	-0.066107
C28	C	0.394365	0.413841	0.433893
O29	O	-0.131708	-0.085741	-0.122247
O30	O	0.368292	0.414259	0.377753
N31	N	-0.130852	-0.085797	-0.000096
N32	N	0.369148	0.414203	0.499904
C33	C	-0.105649	-0.086171	0.065922
C34	C	0.394351	0.413829	0.565922
O35	O	-0.131724	-0.085787	0.122068
O36	O	0.368276	0.414213	0.622068
C37	C	0.096018	-0.089128	0.065930
C38	C	0.596018	0.410872	0.565930
C39	C	0.121232	-0.089497	-0.000085
C40	C	0.621232	0.410503	0.499915
C41	C	0.121246	-0.089490	-0.132108
C42	C	0.621246	0.410510	0.367892
C43	C	0.171659	-0.090234	-0.132106
C44	C	0.671659	0.409766	0.367894
C45	C	0.196859	-0.090610	-0.066093
C46	C	0.696859	0.409390	0.433907
C47	C	0.171645	-0.090242	-0.000083
C48	C	0.671645	0.409758	0.499917
C49	C	0.121221	-0.089497	0.131947
C50	C	0.621221	0.410503	0.631947
C51	C	0.171641	-0.090234	0.131944
C52	C	0.671641	0.409766	0.631944
C53	C	0.196855	-0.090604	0.065928
C54	C	0.696855	0.409396	0.565928
C55	C	0.247258	-0.091362	0.065933
C56	C	0.747258	0.408638	0.565933
N57	N	0.272475	-0.091724	-0.000078
N58	N	0.772475	0.408276	0.499922
C59	C	0.247275	-0.091348	-0.066091
C60	C	0.747275	0.408652	0.433909
C61	C	-0.211527	-0.084619	0.065913
C62	C	0.288473	0.415381	0.565913
C63	C	-0.261943	-0.083881	0.065912
C64	C	0.238057	0.416119	0.565912
C65	C	-0.261926	-0.083868	-0.066118
C66	C	0.238074	0.416132	0.433882
C67	C	-0.211509	-0.084612	-0.066115
C68	C	0.288491	0.415388	0.433885
C69	C	-0.186310	-0.084982	-0.000098
C70	C	0.313690	0.415018	0.499902
C71	C	0.353147	-0.092912	-0.066080
C72	C	0.853147	0.407088	0.433920
C73	C	0.403565	-0.093660	-0.066071
C74	C	0.903565	0.406340	0.433929
C75	C	0.403543	-0.093669	0.065958
C76	C	0.903543	0.406331	0.565958
C77	C	0.353130	-0.092925	0.065950
C78	C	0.853130	0.407075	0.565950
C79	C	0.327933	-0.092544	-0.000075
C80	C	0.827933	0.407456	0.499925
O81	O	0.273363	-0.091772	0.122044
O82	O	0.773363	0.408228	0.622044
O83	O	0.273361	-0.091716	-0.122229
O84	O	0.773361	0.408284	0.377771
C85	C	0.045619	-0.088377	-0.066101
C86	C	0.545619	0.411623	0.433899
C87	C	0.020405	-0.088009	-0.000091
C88	C	0.520405	0.411991	0.499909
C89	C	0.045604	-0.088384	0.065922
C90	C	0.545604	0.411616	0.565922
C91	C	-0.030012	-0.087271	-0.000093
C92	C	0.469988	0.412729	0.499907
C93	C	-0.055211	-0.086895	-0.066106
C94	C	0.444789	0.413105	0.433894
C95	C	-0.029994	-0.087257	-0.132117
C96	C	0.470006	0.412743	0.367883
C97	C	0.020419	-0.088001	-0.132114
C98	C	0.520419	0.411999	0.367886
C99	C	0.020388	-0.088022	0.131933
C100	C	0.520388	0.411978	0.631933
C101	C	-0.030026	-0.087279	0.131925
C102	C	0.469974	0.412721	0.631925
C103	C	-0.055226	-0.086903	0.065912
C104	C	0.444774	0.413097	0.565912
C105	C	0.574616	0.038261	-0.000100
C106	C	1.074616	0.538261	0.499900
C107	C	0.573831	0.115360	-0.000107
C108	C	1.073831	0.615360	0.499893
C109	C	0.659198	-0.082726	-0.000097
C110	C	1.159198	0.417274	0.499903
C111	C	0.712857	-0.083505	-0.000101
C112	C	1.212857	0.416495	0.499899
N113	N	0.570817	-0.088754	-0.188751
N114	N	1.070817	0.411246	0.311249
C115	C	0.567005	-0.215802	-0.000064
C116	C	1.067005	0.284198	0.499936
C117	C	0.567791	-0.292900	-0.000053
C118	C	1.067791	0.207100	0.499947
C119	C	0.617513	0.160341	-0.000118
C120	C	1.117513	0.660341	0.499882
C121	C	0.616774	0.232783	-0.000106
C122	C	1.116774	0.732783	0.499894
C123	C	0.572352	0.260241	-0.000098
C124	C	1.072352	0.760241	0.499902
C125	C	0.528664	0.215250	-0.000082
C126	C	1.028664	0.715250	0.499918
C127	C	0.529403	0.142809	-0.000087
C128	C	1.029403	0.642809	0.499913
C129	C	0.537431	0.368304	-0.042510
C130	C	1.037431	0.868304	0.457490
C131	C	0.536693	0.440744	-0.042510
C132	C	1.036693	0.940744	0.457490
C133	C	0.570069	0.483672	-0.000081
C134	C	1.070069	0.983672	0.499919
C135	C	0.604191	0.454152	0.042339
C136	C	1.104191	0.954152	0.542339
C137	C	0.604931	0.381712	0.042334
C138	C	1.104931	0.881712	0.542334
C139	C	0.571545	0.338790	-0.000093
C140	C	1.071545	0.838790	0.499907
C141	C	0.612954	0.607203	-0.000079
C142	C	1.112954	1.107203	0.499921
C143	C	0.612214	0.679647	-0.000063
C144	C	1.112214	1.179647	0.499937
C145	C	0.524102	0.662112	-0.000046
C146	C	1.024102	1.162112	0.499954
C147	C	0.524844	0.589671	-0.000055
C148	C	1.024844	1.089671	0.499945
C149	C	0.569271	0.562221	-0.000075
C150	C	1.069271	1.062221	0.499925
N151	N	0.570808	-0.088781	0.188585
N152	N	1.070808	0.411219	0.688585
C153	C	0.603832	-0.041290	0.226673
C154	C	1.103832	0.458710	0.726673
C155	C	0.603836	-0.041288	0.302901
C156	C	1.103836	0.458712	0.802901
C157	C	0.570808	-0.088772	0.341038
C158	C	1.070808	0.411228	0.841038
C159	C	0.537782	-0.136272	0.302940
C160	C	1.037782	0.363728	0.802940
C161	C	0.537782	-0.136277	0.226714
C162	C	1.037782	0.363723	0.726714
C163	C	0.526765	-0.098204	0.461814
C164	C	1.026765	0.401796	0.961814
C165	C	0.526764	-0.098194	0.538039
C166	C	1.026764	0.401806	1.038039
C167	C	0.570809	-0.088761	0.576145
C168	C	1.070809	0.411239	1.076145
C169	C	0.614856	-0.079323	0.538018
C170	C	1.114856	0.420677	1.038018
C171	C	0.614856	-0.079328	0.461791
C172	C	1.114856	0.420672	0.961791
C173	C	0.570805	-0.088772	0.423692
C174	C	1.070805	0.411228	0.923692
C175	C	0.603840	-0.041266	0.696888
C176	C	1.103840	0.458734	1.196888
C177	C	0.603845	-0.041269	0.773117
C178	C	1.103845	0.458731	1.273117
C179	C	0.537786	-0.136250	0.773156
C180	C	1.037786	0.363750	1.273156
C181	C	0.537786	-0.136250	0.696928
C182	C	1.037786	0.363750	1.196928
C183	C	0.570812	-0.088754	0.658799
C184	C	1.070812	0.411246	1.158799
H185	H	0.424070	-0.093978	0.119704
H186	H	0.924070	0.406022	0.619704
N187	N	0.639466	0.009948	0.655759
N188	N	1.139466	0.509948	1.155759
H189	H	0.634454	0.002742	0.601690
H190	H	1.134454	0.502742	1.101690
H191	H	0.634061	0.059196	0.669071
H192	H	1.134061	0.559196	1.169071
N193	N	-0.289134	-0.083484	0.137115
N194	N	0.210866	0.416516	0.637115
H195	H	-0.324897	-0.082958	0.127104
H196	H	0.175103	0.417042	0.627104
H197	H	-0.284337	-0.126690	0.165951
H198	H	0.215663	0.373310	0.665951
N199	N	0.482289	0.094285	-0.000088
N200	N	0.982289	0.594285	0.499912
H201	H	0.480631	0.063822	0.044799
H202	H	0.980631	0.563822	0.544799
H203	H	0.454060	0.122714	-0.000109
H204	H	0.954060	0.622714	0.499891
N205	N	0.639464	0.009925	0.185558
N206	N	1.139464	0.509925	0.685558
H207	H	0.621115	0.040556	0.153921
H208	H	1.121115	0.540556	0.653921
H209	H	0.660375	0.039955	0.221313
H210	H	1.160375	0.539955	0.721313
N211	N	0.047557	-0.088433	0.203141
N212	N	0.547557	0.411567	0.703141
H213	H	0.064456	-0.131818	0.206095
H214	H	0.564456	0.368182	0.706095
H215	H	0.072466	-0.045640	0.206048
H216	H	0.572466	0.454360	0.706048
H217	H	-0.282452	-0.083564	-0.119868
H218	H	0.217548	0.416436	0.380132
H219	H	0.632713	0.357680	0.076875
H220	H	1.132713	0.857680	0.576875
H221	H	-0.191014	-0.084920	0.119676
H222	H	0.308986	0.415080	0.619676
H223	H	0.631369	0.489103	0.076889
H224	H	1.131369	0.989103	0.576889
N225	N	0.502160	-0.187463	0.655841
N226	N	1.002160	0.312537	1.155841
H227	H	0.481235	-0.217541	0.691565
H228	H	0.981235	0.282459	1.191565
H229	H	0.480893	-0.161016	0.624215
H230	H	0.980893	0.338984	1.124215
N231	N	0.094034	-0.089089	0.203150
N232	N	0.594034	0.410911	0.703150
H233	H	0.098793	-0.132289	0.232025
H234	H	0.598793	0.367711	0.732025
H235	H	0.106842	-0.046112	0.231932
H236	H	0.606842	0.453888	0.731932
H237	H	0.630729	-0.002614	0.333918
H238	H	1.130729	0.497386	0.833918
H239	H	-0.190984	-0.084913	-0.119871
H240	H	0.309016	0.415087	0.380129
H241	H	0.650721	-0.071647	0.569042
H242	H	1.150721	0.428353	1.069042
H243	H	0.653689	0.137996	-0.000132
H244	H	1.153689	0.637996	0.499868
H245	H	0.100734	-0.089182	-0.185867
H246	H	0.600734	0.410818	0.314133
H247	H	-0.050521	-0.086954	-0.185867
H248	H	0.449479	0.413046	0.314133
N249	N	0.662360	-0.069164	0.420669
N250	N	1.162360	0.430836	0.920669
H251	H	0.655674	-0.070600	0.366599
H252	H	1.155674	0.429400	0.866599
H253	H	0.680842	-0.022447	0.433971
H254	H	1.180842	0.477553	0.933971
H255	H	0.424091	-0.093963	-0.119831
H256	H	0.924091	0.406037	0.380169
H257	H	0.192156	-0.090536	0.185704
H258	H	0.692156	0.409464	0.685704
H259	H	0.492495	0.237611	-0.000074
H260	H	0.992495	0.737611	0.499926
N261	N	0.663890	0.281310	-0.000117
N262	N	1.163890	0.781310	0.499883
H263	H	0.692146	0.252929	-0.000129
H264	H	1.192146	0.752929	0.499871
H265	H	0.665498	0.311758	-0.045010
H266	H	1.165498	0.811758	0.454990
H267	H	0.510891	-0.174935	0.333995
H268	H	1.010891	0.325065	0.833995
N269	N	0.639468	0.009952	0.814202
N270	N	1.139468	0.509952	1.314202
H271	H	0.660387	0.040038	0.778478
H272	H	1.160387	0.540038	1.278478
H273	H	0.621074	0.040527	0.845826
H274	H	1.121074	0.540527	1.345826
N275	N	0.660869	0.577590	-0.000097
N276	N	1.160869	1.077590	0.499903
H277	H	0.688430	0.617081	-0.000097
H278	H	1.188430	1.117081	0.499903
H279	H	0.663094	0.547900	0.044791
H280	H	1.163094	1.047900	0.544791
H281	H	0.510890	-0.174951	0.195702
H282	H	1.010890	0.325049	0.695702
H283	H	0.332637	-0.092609	-0.119844
H284	H	0.832637	0.407391	0.380156
H285	H	0.332599	-0.092636	0.119705
H286	H	0.832599	0.407364	0.619705
H287	H	0.510897	-0.174914	0.804206
H288	H	1.010897	0.325086	1.304206
N289	N	0.047610	-0.088402	-0.203317
N290	N	0.547610	0.411598	0.296683
H291	H	0.023990	-0.088051	-0.245130
H292	H	0.523990	0.411949	0.254870
H293	H	0.072544	-0.045635	-0.206206
H294	H	0.572544	0.454365	0.293794
N295	N	0.198850	-0.090633	-0.203308
N296	N	0.698850	0.409367	0.296692
H297	H	0.175230	-0.090281	-0.245122
H298	H	0.675230	0.409719	0.254878
H299	H	0.223784	-0.047864	-0.206195
H300	H	0.723784	0.452136	0.293805
H301	H	0.490896	-0.105889	0.430793
H302	H	0.990896	0.394111	0.930793
N303	N	-0.057220	-0.086879	0.203130
N304	N	0.442780	0.413121	0.703130
H305	H	-0.052465	-0.130082	0.232003
H306	H	0.447535	0.369918	0.732003
H307	H	-0.044414	-0.043905	0.231918
H308	H	0.455586	0.456095	0.731918
N309	N	0.659330	0.728166	-0.000072
N310	N	1.159330	1.228166	0.499928
H311	H	0.687585	0.699781	-0.000088
H312	H	1.187585	1.199781	0.499912
H313	H	0.660939	0.758617	-0.044963
H314	H	1.160939	1.258617	0.455037
H315	H	0.487932	0.684468	-0.000036
H316	H	0.987932	1.184468	0.499964
H317	H	0.490899	-0.105871	0.569076
H318	H	0.990899	0.394129	1.069076
N319	N	0.477731	0.541146	-0.000051
N320	N	0.977731	1.041146	0.499949
H321	H	0.458340	0.549908	0.044844
H322	H	0.958340	1.049908	0.544844
H323	H	0.458381	0.549955	-0.044969
H324	H	0.958381	1.049955	0.455031
N325	N	0.499898	0.472582	-0.088269
N326	N	0.999898	0.972582	0.411731
H327	H	0.478864	0.434396	-0.115143
H328	H	0.978864	0.934396	0.384857
H329	H	0.478865	0.498509	-0.055724
H330	H	0.978865	0.998509	0.444276
H331	H	0.510251	0.333358	-0.077065
H332	H	1.010251	0.833358	0.422935
