data_functionalizedCrystal
_audit_creation_method	'MofGen! by Chris Wilmer'
_symmetry_space_group_name_H-M	'P1'
_symmetry_Int_Tables_number	1
_symmetry_cell_setting	triclinic
loop_
_symmetry_equiv_pos_as_xyz
  x,y,z
_cell_length_a	10.685976
_cell_length_b	10.686285
_cell_length_c	19.077174
_cell_angle_alpha	87.730334
_cell_angle_beta	92.244680
_cell_angle_gamma	81.631153
loop_
_atom_site_label
_atom_site_type_symbol
_atom_site_fract_x
_atom_site_fract_y
_atom_site_fract_z
Zn1	Zn	2.001377	-0.675988	-0.283278
Zn2	Zn	2.007705	-0.878367	-0.156676
Zn3	Zn	1.780779	-0.651418	-0.176105
Zn4	Zn	1.805410	-0.871929	-0.283283
O5	O	1.898817	-0.769425	-0.224836
O6	O	2.179198	-0.715811	-0.258351
O7	O	1.969942	-0.840674	-0.061416
O8	O	1.797085	-0.477696	-0.198451
O9	O	2.183847	-0.864498	-0.165337
O10	O	1.959157	-0.495747	-0.277191
O11	O	1.803221	-0.673935	-0.075690
O12	O	1.607064	-0.667692	-0.198455
O13	O	1.839066	-0.853525	-0.381120
O14	O	1.625161	-0.829701	-0.277199
O15	O	1.983041	-0.709568	-0.381117
O16	O	1.993827	-1.054495	-0.165342
O17	O	1.845202	-1.049765	-0.258359
C18	C	1.570223	-0.745333	-0.239936
C19	C	1.429653	-0.735057	-0.246411
C20	C	1.922909	-1.098023	-0.209756
C21	C	1.933333	-1.238608	-0.203323
C22	C	2.228695	-0.793613	-0.209676
C23	C	2.369269	-0.803921	-0.203216
C24	C	1.913095	-0.783569	-0.407196
C25	C	1.919180	-0.789596	-0.484907
C26	C	1.874667	-0.439549	-0.239987
C27	C	1.864376	-0.298975	-0.246444
C28	C	1.835239	-0.705618	-0.528847
C29	C	1.840952	-0.711291	-0.601864
C30	C	1.930612	-0.800938	-0.630941
C31	C	2.014557	-0.884925	-0.586995
C32	C	2.008837	-0.879257	-0.513979
C33	C	1.957021	-0.827205	-0.848518
C34	C	1.962737	-0.832864	-0.921540
C35	C	1.789129	-0.659231	-0.936404
C36	C	1.783422	-0.653565	-0.863386
C37	C	1.867362	-0.737557	-0.819447
N38	N	1.936456	-0.806736	-0.705576
N39	N	1.861511	-0.731763	-0.744813
C40	C	1.884661	-0.755251	-0.043186
C41	C	1.878796	-0.748886	0.034520
H42	H	1.373809	-0.668242	-0.288350
H43	H	2.000340	-1.294483	-0.161476
H44	H	1.762234	-0.632611	-0.505179
Cl45	Cl	1.760913	-1.212721	-0.311045
Cl46	Cl	1.455490	-0.907101	-0.138467
Cl47	Cl	1.735366	-0.605767	-0.657101
H48	H	1.710408	-0.580568	-0.839718
Cl49	Cl	2.075472	-0.945561	-0.958091
H50	H	1.720789	-0.590851	-0.972187
H51	H	2.025358	-0.895609	-0.812751
H52	H	2.087555	-0.957924	-0.610675
H53	H	2.077200	-0.947632	-0.478203
