data_functionalizedCrystal
_audit_creation_method	'MofGen! by Chris Wilmer'
_symmetry_space_group_name_H-M	'P1'
_symmetry_Int_Tables_number	1
_symmetry_cell_setting	triclinic
loop_
_symmetry_equiv_pos_as_xyz
  x,y,z
_cell_length_a	17.038272
_cell_length_b	10.654541
_cell_length_c	9.130307
_cell_angle_alpha	89.994959
_cell_angle_beta	89.998253
_cell_angle_gamma	92.202257
loop_
_atom_site_label
_atom_site_type_symbol
_atom_site_fract_x
_atom_site_fract_y
_atom_site_fract_z
O1	O	1.038889	-0.272866	0.121615
O2	O	0.811234	-0.268533	0.121658
O3	O	0.930297	-0.088446	0.121627
O4	O	0.919826	-0.452953	0.121647
O5	O	0.930287	-0.088437	-0.121972
O6	O	0.811225	-0.268524	-0.121941
O7	O	1.038880	-0.272857	-0.121984
Cu8	Cu	0.925051	-0.270690	-0.144205
Cu9	Cu	0.925062	-0.270701	0.143879
O10	O	0.919817	-0.452944	-0.121952
C11	C	0.782079	-0.264588	-0.000136
C12	C	0.695221	-0.252831	-0.000119
N13	N	0.925050	-0.270682	-0.346827
C14	C	0.929524	-0.041572	-0.000172
C15	C	0.927225	0.098085	-0.000169
C16	C	0.645709	-0.360775	-0.000115
C17	C	0.564097	-0.349721	-0.000135
C18	C	0.531998	-0.230721	-0.000151
C19	C	0.581516	-0.122768	-0.000160
C20	C	0.663127	-0.133824	-0.000149
C21	C	0.286022	-0.191663	-0.000192
C22	C	0.204405	-0.180615	-0.000198
C23	C	0.186991	-0.407569	-0.000176
C24	C	0.268604	-0.418614	-0.000157
C25	C	0.318115	-0.310662	-0.000174
C26	C	0.448577	-0.219418	-0.000167
C27	C	0.401534	-0.321965	-0.000168
C28	C	1.068034	-0.276802	-0.000186
C29	C	1.154893	-0.288559	-0.000193
C30	C	0.920590	-0.499818	-0.000150
C31	C	0.922889	-0.639475	-0.000144
C32	C	1.069596	0.112836	-0.000214
C33	C	1.139699	0.185820	-0.000240
C34	C	1.137534	0.317040	-0.000235
C35	C	1.065259	0.375276	-0.000200
C36	C	0.995156	0.302291	-0.000174
C37	C	0.997329	0.171070	-0.000184
C38	C	0.852786	0.287540	-0.000118
C39	C	0.854949	0.156321	-0.000134
C40	C	0.780511	0.345776	-0.000083
C41	C	0.710407	0.272791	-0.000068
C42	C	0.712575	0.141565	-0.000075
C43	C	0.784847	0.083336	-0.000108
C44	C	0.829346	-0.108019	-0.346877
C45	C	0.781502	-0.026686	-0.423568
C46	C	0.781514	-0.026687	-0.576902
C47	C	0.829372	-0.108032	-0.653547
C48	C	0.877215	-0.189365	-0.576856
C49	C	0.877201	-0.189353	-0.423519
C50	C	0.972914	-0.352032	-0.576806
C51	C	0.972908	-0.352027	-0.423473
C52	C	1.020772	-0.433378	-0.653452
C53	C	1.068621	-0.514706	-0.576760
C54	C	1.068608	-0.514702	-0.423418
C55	C	1.020751	-0.433361	-0.346781
N56	N	0.925070	-0.270699	0.346502
H57	H	0.671837	-0.457678	-0.000101
F58	F	0.829339	-0.107999	-0.183685
F59	F	0.134293	-0.522451	-0.000162
H60	H	0.742552	0.039536	-0.639344
F61	F	1.119528	-0.601274	-0.341808
H62	H	1.107579	-0.580937	-0.639177
F63	F	1.020737	-0.433344	-0.183590
F64	F	1.062959	0.514932	-0.000114
F65	F	0.778209	0.485432	-0.000003
F66	F	0.511405	-0.464611	-0.000124
H67	H	0.651566	0.320218	-0.000031
H68	H	0.427672	-0.418854	-0.000164
F69	F	1.071906	-0.026819	-0.000248
F70	F	0.637960	0.063898	-0.000038
F71	F	0.547352	0.003881	-0.000185
F72	F	1.216616	0.123833	-0.000269
F73	F	0.170245	-0.053953	-0.000239
H74	H	0.422433	-0.122528	-0.000221
F75	F	0.829371	-0.108044	-0.816739
F76	F	1.212144	0.394718	-0.000250
F77	F	1.020777	-0.433384	-0.816643
H78	H	0.326324	-0.103760	-0.000207
H79	H	0.786619	-0.023509	-0.000123
H80	H	0.294732	-0.515516	-0.000128
F81	F	0.715821	-0.018935	-0.000160
H82	H	0.742536	0.039541	-0.361147
