data_functionalizedCrystal
_audit_creation_method	'MofGen! by Chris Wilmer'
_symmetry_space_group_name_H-M	'P1'
_symmetry_Int_Tables_number	1
_symmetry_cell_setting	triclinic
loop_
_symmetry_equiv_pos_as_xyz
  x,y,z
_cell_length_a	6.817900
_cell_length_b	17.253917
_cell_length_c	17.078481
_cell_angle_alpha	99.951811
_cell_angle_beta	99.306161
_cell_angle_gamma	102.659311
loop_
_atom_site_label
_atom_site_type_symbol
_atom_site_fract_x
_atom_site_fract_y
_atom_site_fract_z
V1	V	-3.979160	-0.111101	-0.254878
O2	O	-3.968069	0.005532	-0.242279
O3	O	-3.930531	-0.220480	-0.260587
O4	O	-3.910213	-0.109307	-0.362640
O5	O	-3.988528	-0.106410	-0.139519
V6	V	-4.465480	-0.097160	-0.240175
O7	O	-4.234283	-0.141680	-0.287131
O8	O	-4.660554	-0.066580	-0.207923
O9	O	-4.290902	0.012219	-0.234467
O10	O	-4.593967	-0.213793	-0.252775
O11	O	-4.573508	-0.101850	-0.355535
O12	O	-4.311220	-0.098954	-0.132414
C13	C	-3.776141	-0.247147	-0.258489
C14	C	-3.817531	-0.336565	-0.263875
C15	C	-3.810620	-0.367142	-0.192979
C16	C	-3.849529	-0.451160	-0.198042
C17	C	-3.895337	-0.504600	-0.274002
C18	C	-3.902254	-0.474019	-0.344903
C19	C	-3.863359	-0.390002	-0.339839
C20	C	-4.014503	-0.757102	-0.297020
C21	C	-4.053393	-0.841124	-0.302078
C22	C	-4.000669	-0.818260	-0.155217
C23	C	-3.961764	-0.734242	-0.150159
C24	C	-3.968695	-0.703668	-0.221061
N25	N	-3.935103	-0.590481	-0.279179
N26	N	-3.928943	-0.617789	-0.215883
C27	C	-3.750223	-0.105334	-0.388667
C28	C	-3.775133	-0.104591	-0.476811
C29	C	-3.968160	-0.108257	-0.522535
C30	C	-3.991554	-0.107559	-0.605356
C31	C	-3.821922	-0.103200	-0.642453
C32	C	-3.628878	-0.099531	-0.596722
C33	C	-3.605484	-0.100223	-0.513902
C34	C	-3.872443	-0.100692	-0.889686
C35	C	-3.895854	-0.100002	-0.972514
C36	C	-4.258528	-0.108029	-0.981141
C37	C	-4.235119	-0.108726	-0.898320
C38	C	-4.042077	-0.105053	-0.852596
N39	N	-3.845831	-0.102488	-0.727109
N40	N	-4.018167	-0.105758	-0.767939
C41	C	-4.108634	0.038882	-0.236563
C42	C	-4.046481	0.128299	-0.231182
C43	C	-4.134553	-0.102930	-0.106383
C44	C	-4.088881	-0.103668	-0.018237
H45	H	-3.869010	-0.365108	-0.397571
N46	N	-3.841909	-0.484134	-0.121570
H47	H	-3.873461	-0.545466	-0.136301
H48	H	-3.946866	-0.467252	-0.091457
H49	H	-3.939567	-0.517537	-0.406751
N50	N	-3.397283	-0.096264	-0.464585
H51	H	-3.347725	-0.144476	-0.488199
H52	H	-3.408350	-0.097333	-0.406500
N53	N	-3.993332	-0.851258	-0.078762
H54	H	-3.885014	-0.882842	-0.074691
H55	H	-4.131741	-0.888342	-0.080561
H56	H	-3.490760	-0.095977	-0.626932
N57	N	-3.761218	-0.309499	-0.111054
H58	H	-3.620583	-0.271350	-0.102802
H59	H	-3.762862	-0.341675	-0.066957
N60	N	-4.021951	-0.724133	-0.373490
H61	H	-3.990371	-0.662801	-0.358762
H62	H	-4.163584	-0.746597	-0.409321
N63	N	-4.199757	-0.111526	-0.654673
H64	H	-4.188843	-0.110424	-0.712769
H65	H	-4.249214	-0.063315	-0.630990
H66	H	-3.924479	-0.690736	-0.088305
N67	N	-4.418078	-0.113424	-0.858309
H68	H	-4.543912	-0.115638	-0.899842
H69	H	-4.390604	-0.063796	-0.813043
N70	N	-4.102792	-0.898766	-0.384010
H71	H	-4.101283	-0.866649	-0.428158
H72	H	-4.243397	-0.936909	-0.392185
N73	N	-4.151135	-0.112954	-0.482534
H74	H	-4.123853	-0.063332	-0.437273
H75	H	-4.175098	-0.163538	-0.459506
N76	N	-4.466727	-0.111988	-1.030456
H77	H	-4.455816	-0.110886	-1.088552
H78	H	-4.516160	-0.063770	-1.006770
H79	H	-3.757707	-0.096450	-1.002714
H80	H	-3.715274	-0.097730	-0.852474
