data_functionalizedCrystal
_audit_creation_method	'MofGen! by Chris Wilmer'
_symmetry_space_group_name_H-M	'P1'
_symmetry_Int_Tables_number	1
_symmetry_cell_setting	triclinic
loop_
_symmetry_equiv_pos_as_xyz
  x,y,z
_cell_length_a	15.297475
_cell_length_b	17.637651
_cell_length_c	15.296720
_cell_angle_alpha	93.472074
_cell_angle_beta	88.382886
_cell_angle_gamma	89.678268
loop_
_atom_site_label
_atom_site_type_symbol
_atom_site_fract_x
_atom_site_fract_y
_atom_site_fract_z
Zn1	Zn	1.146788	-0.576164	0.575099
Zn2	Zn	1.152326	-0.682764	0.400585
Zn3	Zn	1.033362	-0.534575	0.414276
Zn4	Zn	0.981899	-0.675487	0.523627
O5	O	1.078594	-0.617248	0.478397
O6	O	1.266317	-0.610756	0.567761
O7	O	1.160400	-0.648747	0.283602
O8	O	1.067628	-0.436507	0.462880
O9	O	1.270385	-0.689074	0.439546
O10	O	1.150962	-0.467063	0.581037
O11	O	1.072998	-0.539873	0.293661
O12	O	0.907741	-0.532817	0.412969
O13	O	0.979917	-0.676672	0.649254
O14	O	0.869932	-0.636344	0.493309
O15	O	1.101060	-0.603699	0.687070
O16	O	1.110498	-0.785384	0.389636
O17	O	0.985286	-0.780037	0.480034
C18	C	0.858034	-0.579279	0.449040
C19	C	0.763671	-0.563055	0.436496
C20	C	1.042928	-0.809575	0.427785
C21	C	1.027742	-0.891870	0.406173
C22	C	0.419041	-0.733202	0.568047
C23	C	0.507700	-0.748450	0.579829
C24	C	0.571696	-0.702103	0.543997
C25	C	0.547026	-0.640505	0.496381
C26	C	0.458359	-0.625260	0.484593
C27	C	0.611015	-0.594160	0.460543
C28	C	0.586345	-0.532562	0.412927
C29	C	0.497685	-0.517319	0.401141
C30	C	0.433689	-0.563667	0.436973
C31	C	0.699682	-0.609405	0.472331
C32	C	0.739000	-0.501463	0.388876
C33	C	0.650341	-0.486215	0.377095
C34	C	1.194457	-1.241772	0.642929
C35	C	1.180164	-1.319095	0.622602
C36	C	1.093482	-1.287385	0.499470
C37	C	1.107771	-1.210058	0.519784
C38	C	1.158259	-1.187259	0.591515
C39	C	1.071573	-1.155544	0.468370
C40	C	1.085858	-1.078224	0.488686
C41	C	1.136341	-1.055418	0.560415
C42	C	1.172544	-1.109939	0.611830
C43	C	1.021080	-1.178345	0.396644
C44	C	0.984882	-1.123831	0.345230
C45	C	0.999172	-1.046510	0.365541
C46	C	1.049655	-1.023704	0.437271
C47	C	0.962969	-0.991990	0.314126
C48	C	0.977254	-0.914670	0.334442
C49	C	1.063940	-0.946384	0.457586
C50	C	1.300014	-0.655366	0.507868
C51	C	1.394370	-0.671609	0.520427
C52	C	1.034130	-0.644013	0.699826
C53	C	1.015183	-0.655419	0.794186
C54	C	1.114418	-0.424176	0.529227
C55	C	1.129684	-0.341900	0.550888
C56	C	1.122943	-0.590542	0.257849
C57	C	1.142093	-0.578956	0.163566
C58	C	1.214071	-0.535605	1.138928
C59	C	1.231878	-0.524891	1.050272
C60	C	1.177706	-0.557522	0.986247
C61	C	1.105723	-0.600869	1.010885
C62	C	1.087918	-0.611589	1.099549
C63	C	1.051553	-0.633506	0.946868
C64	C	0.979570	-0.676853	0.971506
C65	C	0.961768	-0.687570	1.060162
C66	C	1.015940	-0.654940	1.124187
C67	C	1.069358	-0.622785	0.858204
C68	C	0.943205	-0.698769	0.818825
C69	C	0.925398	-0.709483	0.907480
H70	H	0.719759	-0.659558	0.511101
H71	H	0.366929	-0.770935	0.597210
H72	H	1.105060	-0.927821	0.515991
Cl73	Cl	0.899486	-1.020662	0.223965
H74	H	0.943772	-1.142406	0.286828
H75	H	0.630242	-0.436062	0.338326
H76	H	0.643885	-0.714521	0.553593
Cl77	Cl	1.200092	-0.544049	0.874793
Cl78	Cl	0.871287	-0.742079	1.091132
H79	H	0.527779	-0.798604	0.618595
H80	H	1.127967	-0.587491	0.838153
Cl81	Cl	1.030006	-1.316055	0.409303
H82	H	1.209630	-1.363479	0.664485
H83	H	0.791108	-0.463724	0.359698
H84	H	0.947777	-0.870283	0.292576
Cl85	Cl	0.875103	-0.739798	0.738341
Cl86	Cl	0.322225	-0.544497	0.422170
Cl87	Cl	1.322366	-0.470400	1.019304
H88	H	0.477603	-0.467169	0.362359
Cl89	Cl	1.153980	-0.958202	0.586188
Cl90	Cl	1.236028	-1.081271	0.701999
Cl91	Cl	1.003275	-1.275555	0.370994
H92	H	1.235577	-1.223210	0.701334
H93	H	0.866789	-0.744777	0.927554
H94	H	1.258174	-0.509047	1.191063
Cl95	Cl	0.993561	-0.668412	1.235646
