data_functionalizedCrystal
_audit_creation_method	'MofGen! by Chris Wilmer'
_symmetry_space_group_name_H-M	'P1'
_symmetry_Int_Tables_number	1
_symmetry_cell_setting	triclinic
loop_
_symmetry_equiv_pos_as_xyz
  x,y,z
_cell_length_a	19.288856
_cell_length_b	19.288865
_cell_length_c	18.366186
_cell_angle_alpha	90.011479
_cell_angle_beta	89.988961
_cell_angle_gamma	96.865496
loop_
_atom_site_label
_atom_site_type_symbol
_atom_site_fract_x
_atom_site_fract_y
_atom_site_fract_z
O1	O	-0.921356	0.086620	0.060591
O2	O	-0.421356	0.586620	0.560591
O3	O	-0.719095	0.098315	0.060586
O4	O	-0.219095	0.598315	0.560586
O5	O	-0.826070	-0.008663	0.060575
O6	O	-0.326070	0.491337	0.560575
O7	O	-0.814381	0.193598	0.060603
O8	O	-0.314381	0.693598	0.560603
O9	O	-0.826052	-0.008668	-0.060525
O10	O	-0.326052	0.491332	0.439475
O11	O	-0.719077	0.098310	-0.060513
O12	O	-0.219077	0.598310	0.439487
O13	O	-0.921338	0.086615	-0.060508
O14	O	-0.421338	0.586615	0.439492
Zn15	Zn	-0.820205	0.092462	-0.079738
Zn16	Zn	-0.320205	0.592462	0.420262
Zn17	Zn	-0.820229	0.092469	0.079816
Zn18	Zn	-0.320229	0.592469	0.579816
O19	O	-0.814363	0.193593	-0.060496
O20	O	-0.314363	0.693593	0.439504
C21	C	-0.693209	0.097937	0.000036
C22	C	-0.193209	0.597937	0.500036
C23	C	-0.616106	0.096811	0.000034
C24	C	-0.116106	0.596811	0.500034
C25	C	-0.052064	0.151959	0.000031
C26	C	0.447936	0.651959	0.500031
C27	C	-0.124511	0.153024	0.000036
C28	C	0.375489	0.653024	0.500036
C29	C	-0.169218	0.090254	0.000027
C30	C	0.330782	0.590254	0.500027
C31	C	-0.141472	0.026415	0.000031
C32	C	0.358528	0.526415	0.500031
C33	C	-0.069027	0.025352	0.000033
C34	C	0.430973	0.525352	0.500033
C35	C	-0.290482	0.043438	-0.042406
C36	C	0.209518	0.543438	0.457594
C37	C	-0.362925	0.044504	-0.042413
C38	C	0.137075	0.544504	0.457587
C39	C	-0.392664	0.093530	0.000025
C40	C	0.107336	0.593530	0.500025
C41	C	-0.349948	0.141502	0.042459
C42	C	0.150052	0.641502	0.542459
C43	C	-0.277502	0.140439	0.042461
C44	C	0.222498	0.640439	0.542461
C45	C	-0.247773	0.091399	0.000025
C46	C	0.252227	0.591399	0.500025
C47	C	-0.498955	0.158519	0.000032
C48	C	0.001045	0.658519	0.500032
C49	C	-0.571404	0.159581	0.000042
C50	C	-0.071404	0.659581	0.500042
C51	C	-0.588364	0.032971	0.000029
C52	C	-0.088364	0.532971	0.500029
C53	C	-0.515917	0.031910	0.000026
C54	C	-0.015917	0.531910	0.500026
C55	C	-0.471217	0.094687	0.000024
C56	C	0.028783	0.594687	0.500024
C57	C	-0.825685	-0.034542	0.000023
C58	C	-0.325685	0.465458	0.500023
C59	C	-0.824556	-0.111645	0.000016
C60	C	-0.324556	0.388355	0.500016
C61	C	-0.887324	-0.156343	0.000014
C62	C	-0.387324	0.343657	0.500014
C63	C	-0.886263	-0.228790	0.000026
C64	C	-0.386263	0.271210	0.500026
C65	C	-0.822431	-0.256536	0.000025
C66	C	-0.322431	0.243464	0.500025
C67	C	-0.759655	-0.211828	0.000031
C68	C	-0.259655	0.288172	0.500031
C69	C	-0.760717	-0.139383	0.000027
C70	C	-0.260717	0.360617	0.500027
C71	C	-0.772245	-0.364824	-0.042395
C72	C	-0.272245	0.135176	0.457605
C73	C	-0.771185	-0.437268	-0.042395
C74	C	-0.271185	0.062732	0.457605
C75	C	-0.819151	-0.479982	0.000041
C76	C	-0.319151	0.020018	0.500041
C77	C	-0.868189	-0.450243	0.042468
C78	C	-0.368189	0.049757	0.542468
C79	C	-0.869252	-0.377798	0.042464
C80	C	-0.369252	0.122202	0.542464
C81	C	-0.821272	-0.335090	0.000030
C82	C	-0.321272	0.164910	0.500030
C83	C	-0.880774	-0.603236	0.000052
C84	C	-0.380774	-0.103236	0.500052
C85	C	-0.879710	-0.675684	0.000068
C86	C	-0.379710	-0.175684	0.500068
C87	C	-0.753100	-0.658720	0.000066
C88	C	-0.253100	-0.158720	0.500066
C89	C	-0.754165	-0.586273	0.000057
C90	C	-0.254165	-0.086273	0.500057
C91	C	-0.818004	-0.558536	0.000047
C92	C	-0.318004	-0.058536	0.500047
C93	C	0.052776	0.086995	0.000039
C94	C	0.552776	0.586995	0.500039
C95	C	-0.024327	0.088128	0.000031
C96	C	0.475673	0.588128	0.500031
C97	C	-0.814748	0.219472	0.000057
C98	C	-0.314748	0.719472	0.500057
C99	C	-0.815877	0.296576	0.000068
C100	C	-0.315877	0.796576	0.500068
N101	N	-0.820194	0.092457	-0.188629
N102	N	-0.320194	0.592457	0.311371
C103	C	-0.867578	0.045110	-0.226734
C104	C	-0.367578	0.545110	0.273266
C105	C	-0.867582	0.045107	-0.302962
C106	C	-0.367582	0.545107	0.197038
C107	C	-0.820209	0.092462	-0.341082
C108	C	-0.320209	0.592462	0.158918
C109	C	-0.772816	0.139813	-0.302967
C110	C	-0.272816	0.639813	0.197033
C111	C	-0.772808	0.139810	-0.226740
C112	C	-0.272808	0.639810	0.273260
C113	C	-0.810911	0.155751	-0.461833
C114	C	-0.310911	0.655751	0.038167
C115	C	-0.810923	0.155754	-0.538058
C116	C	-0.310923	0.655754	-0.038058
C117	C	-0.820229	0.092471	-0.576189
C118	C	-0.320229	0.592471	-0.076189
C119	C	-0.829536	0.029181	-0.538086
C120	C	-0.329536	0.529181	-0.038086
C121	C	-0.829529	0.029178	-0.461859
C122	C	-0.329529	0.529178	0.038141
C123	C	-0.820212	0.092471	-0.423736
C124	C	-0.320212	0.592471	0.076264
C125	C	-0.867620	0.045117	-0.696950
C126	C	-0.367620	0.545117	-0.196950
C127	C	-0.867620	0.045113	-0.773179
C128	C	-0.367620	0.545113	-0.273179
C129	C	-0.772857	0.139825	-0.773182
C130	C	-0.272857	0.639825	-0.273182
C131	C	-0.772854	0.139823	-0.696954
C132	C	-0.272854	0.639823	-0.196954
C133	C	-0.820239	0.092470	-0.658843
C134	C	-0.320239	0.592470	-0.158843
N135	N	-0.820245	0.092468	0.188707
N136	N	-0.320245	0.592468	0.688707
H137	H	-0.266276	0.003512	-0.076965
H138	H	0.233724	0.503512	0.423035
H139	H	-0.374158	0.181425	0.077013
H140	H	0.125842	0.681425	0.577013
N141	N	-0.687895	-0.687052	0.000051
N142	N	-0.187895	-0.187052	0.500051
N143	N	-0.645622	-0.673295	-0.050998
N144	N	-0.145622	-0.173295	0.449002
H145	H	-0.599569	-0.693307	-0.051007
H146	H	-0.099569	-0.193307	0.448993
N147	N	-0.950376	-0.274469	0.000011
N148	N	-0.450376	0.225531	0.500011
N149	N	-0.949415	-0.339150	0.000010
N150	N	-0.449415	0.160850	0.500010
H151	H	-0.994694	-0.371411	-0.000002
H152	H	-0.494694	0.128589	0.499998
H153	H	-0.709602	-0.102988	0.000028
H154	H	-0.209602	0.397012	0.500028
H155	H	-0.731253	-0.461475	-0.076938
H156	H	-0.231253	0.038525	0.423062
N157	N	-0.724464	0.188187	-0.812121
N158	N	-0.224464	0.688187	-0.312121
N159	N	-0.724472	0.188181	-0.880180
N160	N	-0.224472	0.688181	-0.380180
H161	H	-0.690291	0.222335	-0.907685
H162	H	-0.190291	0.722335	-0.407685
N163	N	-0.599752	0.224779	0.000048
N164	N	-0.099752	0.724779	0.500048
N165	N	-0.638294	0.239504	0.051096
N166	N	-0.138294	0.739504	0.551096
H167	H	-0.658318	0.285550	0.051100
H168	H	-0.158318	0.785550	0.551100
N169	N	-0.945979	-0.574895	0.000034
N170	N	-0.445979	-0.074895	0.500034
N171	N	-0.988237	-0.588677	-0.051013
N172	N	-0.488237	-0.088677	0.448987
H173	H	-1.034288	-0.568662	-0.051028
H174	H	-0.534288	-0.068662	0.448972
N175	N	-0.724398	0.188179	-0.187824
N176	N	-0.224398	0.688179	0.312176
N177	N	-0.682098	0.230454	-0.221863
N178	N	-0.182098	0.730454	0.278137
H179	H	-0.647908	0.264616	-0.194377
H180	H	-0.147908	0.764616	0.305623
N181	N	-0.916005	-0.003263	-0.812117
N182	N	-0.416005	0.496737	-0.312117
N183	N	-0.915992	-0.003269	-0.880175
N184	N	-0.415992	0.496731	-0.380175
H185	H	-0.950158	-0.037442	-0.907677
H186	H	-0.450158	0.462558	-0.407677
N187	N	-0.916041	-0.003205	-0.187817
N188	N	-0.416041	0.496795	0.312183
N189	N	-0.958385	-0.045437	-0.221856
N190	N	-0.458385	0.454563	0.278144
H191	H	-0.992635	-0.079539	-0.194370
H192	H	-0.492635	0.420461	0.305630
H193	H	-0.703052	-0.549879	0.000055
H194	H	-0.203052	-0.049879	0.500055
H195	H	-0.906169	0.006550	-0.333994
H196	H	-0.406169	0.506550	0.166006
H197	H	-0.930826	-0.712077	0.000071
H198	H	-0.430826	-0.212077	0.500071
N199	N	-0.406557	-0.004504	-0.085744
N200	N	0.093443	0.495496	0.414256
N201	N	-0.452653	-0.046188	-0.056105
N202	N	0.047347	0.453812	0.443895
H203	H	-0.483468	-0.080802	-0.086708
H204	H	0.016532	0.419198	0.413292
H205	H	-0.015673	0.203076	0.000033
H206	H	0.484327	0.703076	0.500033
N207	N	-0.187146	-0.037697	0.000027
N208	N	0.312854	0.462303	0.500027
N209	N	-0.251827	-0.036740	0.000025
N210	N	0.248173	0.463260	0.500025
H211	H	-0.284085	-0.082020	0.000026
H212	H	0.215915	0.417980	0.500026
H213	H	-0.733183	-0.330052	-0.076956
H214	H	-0.233183	0.169948	0.423044
N215	N	-0.839035	-0.035471	-0.422949
N216	N	-0.339035	0.464529	0.077051
N217	N	-0.847345	-0.091972	-0.456995
N218	N	-0.347345	0.408028	0.043005
H219	H	-0.854057	-0.137632	-0.429515
H220	H	-0.354057	0.362368	0.070485
H221	H	-0.147099	0.205004	0.000030
H222	H	0.352901	0.705004	0.500030
H223	H	-0.046445	-0.026628	0.000033
H224	H	0.453555	0.473372	0.500033
H225	H	-0.909179	-0.353588	0.077011
H226	H	-0.409179	0.146412	0.577011
N227	N	-0.917193	-0.493875	0.085806
N228	N	-0.417193	0.006125	0.585806
N229	N	-0.916241	-0.558557	0.085805
N230	N	-0.416241	-0.058557	0.585805
H231	H	-0.950851	-0.589376	0.116407
H232	H	-0.450851	-0.089376	0.616407
H233	H	-0.939307	-0.133765	0.000008
H234	H	-0.439307	0.366235	0.500008
N235	N	-0.724416	0.188176	-0.341902
N236	N	-0.224416	0.688176	0.158098
N237	N	-0.681380	0.166245	-0.384456
N238	N	-0.181380	0.666245	0.115544
H239	H	-0.647193	0.200400	-0.411954
H240	H	-0.147193	0.700400	0.088046
H241	H	-0.707682	-0.234423	0.000032
H242	H	-0.207682	0.265577	0.500032
H243	H	-0.734272	0.178380	-0.665926
H244	H	-0.234272	0.678380	-0.165926
H245	H	-0.837113	-0.022350	-0.569130
H246	H	-0.337113	0.477650	-0.069130
N247	N	-0.915929	-0.003309	-0.657975
N248	N	-0.415929	0.496691	-0.157975
N249	N	-0.915079	-0.067495	-0.666506
N250	N	-0.415079	0.432505	-0.166506
H251	H	-0.949165	-0.101715	-0.638964
H252	H	-0.449165	0.398285	-0.138964
N253	N	-0.233880	0.189442	0.085806
N254	N	0.266120	0.689442	0.585806
N255	N	-0.260432	0.233215	0.123693
N256	N	0.239568	0.733215	0.623693
H257	H	-0.229624	0.267824	0.154309
H258	H	0.270376	0.767824	0.654309
N259	N	-0.801425	0.220406	-0.576964
N260	N	-0.301425	0.720406	-0.076964
N261	N	-0.793110	0.276904	-0.542913
N262	N	-0.293110	0.776904	-0.042913
H263	H	-0.786403	0.322567	-0.570389
H264	H	-0.286403	0.822567	-0.070389
N265	N	-0.801412	0.220404	-0.422899
N266	N	-0.301412	0.720404	0.077101
N267	N	-0.793118	0.276905	-0.456925
N268	N	-0.293118	0.776905	0.043075
H269	H	-0.786414	0.322566	-0.429429
H270	H	-0.286414	0.822566	0.070571
H271	H	-0.624764	-0.018138	0.000027
H272	H	-0.124764	0.481862	0.500027
N273	N	-0.453300	0.222646	0.000030
N274	N	0.046700	0.722646	0.500030
N275	N	-0.478079	0.279636	0.000036
N276	N	0.021921	0.779636	0.500036
H277	H	-0.445837	0.324927	0.000034
H278	H	0.054163	0.824927	0.500034
N279	N	-0.487592	-0.033298	0.000025
N280	N	0.012408	0.466702	0.500025
N281	N	-0.527513	-0.089339	0.000021
N282	N	-0.027513	0.410661	0.500021
H283	H	-0.507509	-0.135397	0.000023
H284	H	-0.007509	0.364603	0.500023
