data_functionalizedCrystal
_audit_creation_method	'MofGen! by Chris Wilmer'
_symmetry_space_group_name_H-M	'P1'
_symmetry_Int_Tables_number	1
_symmetry_cell_setting	triclinic
loop_
_symmetry_equiv_pos_as_xyz
  x,y,z
_cell_length_a	15.944545
_cell_length_b	16.974813
_cell_length_c	16.053802
_cell_angle_alpha	83.778934
_cell_angle_beta	87.418915
_cell_angle_gamma	96.554213
loop_
_atom_site_label
_atom_site_type_symbol
_atom_site_fract_x
_atom_site_fract_y
_atom_site_fract_z
O1	O	1.110487	-0.105623	0.076511
O2	O	1.610487	0.394377	0.576511
O3	O	0.865877	-0.118242	0.077377
O4	O	1.365877	0.381758	0.577377
O5	O	0.995399	0.003545	0.069137
O6	O	1.495399	0.503545	0.569137
O7	O	0.980964	-0.227410	0.084750
O8	O	1.480964	0.272590	0.584750
O9	O	1.002520	0.010228	-0.070174
O10	O	1.502520	0.510228	0.429826
O11	O	0.872998	-0.111559	-0.061934
O12	O	1.372998	0.388441	0.438066
O13	O	1.117608	-0.098940	-0.062800
O14	O	1.617608	0.401060	0.437200
Zn15	Zn	0.996434	-0.104188	-0.084486
Zn16	Zn	1.496434	0.395812	0.415514
Zn17	Zn	0.987051	-0.112994	0.099062
Zn18	Zn	1.487051	0.387006	0.599062
O19	O	0.988085	-0.220727	-0.054561
O20	O	1.488085	0.279273	0.445439
C21	C	0.838146	-0.114378	0.007688
C22	C	1.338146	0.385622	0.507688
C23	C	0.744906	-0.112810	0.007587
C24	C	1.244906	0.387190	0.507587
C25	C	0.474648	-0.032636	0.002158
C26	C	0.974648	0.467364	0.502158
C27	C	0.528561	-0.067994	-0.063919
C28	C	1.028561	0.432006	0.436081
C29	C	0.409289	-0.107218	0.007194
C30	C	0.909289	0.392782	0.507194
C31	C	0.521520	-0.074603	0.073432
C32	C	1.021520	0.425397	0.573432
C33	C	0.574190	-0.109962	0.007388
C34	C	1.074190	0.390038	0.507388
C35	C	0.461976	-0.142554	-0.058940
C36	C	0.961976	0.357446	0.441060
C37	C	0.454929	-0.149155	0.078472
C38	C	0.954929	0.350845	0.578472
C39	C	0.508810	-0.184567	0.012382
C40	C	1.008810	0.315433	0.512382
C41	C	0.314295	-0.105635	0.007082
C42	C	0.814295	0.394365	0.507082
C43	C	0.669182	-0.111550	0.007495
C44	C	1.169182	0.388450	0.507495
C45	C	0.998543	0.036441	-0.002514
C46	C	1.498543	0.536441	0.497486
C47	C	0.997292	0.124503	-0.008462
C48	C	1.497292	0.624503	0.491538
C49	C	1.145339	-0.102804	0.006891
C50	C	1.645339	0.397196	0.506891
C51	C	1.238578	-0.104372	0.006997
C52	C	1.738578	0.395628	0.506997
C53	C	0.984941	-0.253623	0.017093
C54	C	1.484941	0.246377	0.517093
C55	C	0.986192	-0.341685	0.023046
C56	C	1.486192	0.158315	0.523046
C57	C	0.992824	0.162227	0.064682
C58	C	1.492824	0.662227	0.564682
C59	C	0.991643	0.244970	0.059091
C60	C	1.491643	0.744970	0.559091
C61	C	0.994936	0.289988	-0.019645
C62	C	1.494936	0.789988	0.480355
C63	C	0.999402	0.252258	-0.092794
C64	C	1.499402	0.752258	0.407206
C65	C	1.000576	0.169516	-0.087202
C66	C	1.500576	0.669516	0.412798
C67	C	0.991833	0.537842	-0.044512
C68	C	1.491833	1.037842	0.455488
C69	C	0.990660	0.620590	-0.050098
C70	C	1.490660	1.120590	0.449902
C71	C	0.982900	0.613296	0.101788
C72	C	1.482900	1.113296	0.601788
C73	C	0.984080	0.530553	0.107372
C74	C	1.484080	1.030553	0.607372
C75	C	0.988541	0.492830	0.034223
C76	C	1.488541	0.992830	0.534223
N77	N	0.993732	0.374566	-0.025362
N78	N	1.493732	0.874566	0.474638
N79	N	0.989740	0.408253	0.039941
N80	N	1.489740	0.908253	0.539941
N81	N	0.980648	-0.118998	0.224329
N82	N	1.480648	0.381002	0.724329
N83	N	1.002843	-0.098178	-0.209753
N84	N	1.502843	0.401822	0.290247
C85	C	1.035865	-0.067276	0.264524
C86	C	1.535865	0.432724	0.764524
C87	C	1.031384	-0.071474	0.352214
C88	C	1.531384	0.428526	0.852214
C89	C	0.971682	-0.127390	0.399709
C90	C	1.471682	0.372610	0.899709
C91	C	0.916463	-0.179117	0.359508
C92	C	1.416463	0.320883	0.859508
C93	C	0.920948	-0.174923	0.271819
C94	C	1.420948	0.325077	0.771819
C95	C	0.952109	-0.145711	0.662358
C96	C	1.452109	0.354289	1.162358
C97	C	0.947626	-0.149900	0.750052
C98	C	1.447626	0.350100	1.250052
C99	C	1.062549	-0.042257	0.742753
C100	C	1.562549	0.457743	1.242753
C101	C	1.067026	-0.038064	0.655062
C102	C	1.567026	0.461936	1.155062
C103	C	1.011810	-0.089794	0.614869
C104	C	1.511810	0.410206	1.114869
N105	N	0.967099	-0.131681	0.489343
N106	N	1.467099	0.368319	0.989343
N107	N	1.016398	-0.085506	0.525237
N108	N	1.516398	0.414494	1.025237
H109	H	0.560607	-0.033710	-0.124120
H110	H	1.060607	0.466290	0.375880
H111	H	0.981400	0.493905	0.171487
H112	H	1.481400	0.993905	0.671487
H113	H	1.004203	0.138801	-0.146764
H114	H	1.504203	0.638801	0.353236
H115	H	0.899006	-0.195436	0.788719
H116	H	1.399006	0.304564	1.288719
H117	H	1.002078	0.288918	-0.156902
H118	H	1.502078	0.788918	0.343098
H119	H	0.524003	-0.248846	0.016688
H120	H	1.024003	0.251154	0.516688
H121	H	0.422867	-0.183412	0.138673
H122	H	0.922867	0.316588	0.638673
H123	H	0.435992	-0.171240	-0.114946
H124	H	0.935992	0.328760	0.385054
H125	H	0.990147	0.125579	0.128797
H126	H	1.490147	0.625579	0.628797
H127	H	0.867855	-0.224650	0.398183
H128	H	1.367855	0.275350	0.898183
H129	H	0.979266	0.644020	0.161341
H130	H	1.479266	1.144020	0.661341
H131	H	0.459299	0.031599	-0.002251
H132	H	0.959299	0.531599	0.497749
H133	H	0.547617	-0.045878	0.129370
H134	H	1.047617	0.454122	0.629370
H135	H	0.995482	0.507140	-0.104075
H136	H	1.495482	1.007140	0.395925
H137	H	1.115640	0.007468	0.616394
H138	H	1.615640	0.507468	1.116394
H139	H	0.988009	0.275682	0.118652
H140	H	1.488009	0.775682	0.618652
H141	H	0.993337	0.657242	-0.114217
H142	H	1.493337	1.157242	0.385783
H143	H	1.084477	-0.021740	0.225859
H144	H	1.584477	0.478260	0.725859
H145	H	1.076346	-0.029359	0.384940
H146	H	1.576346	0.470641	0.884940
H147	H	0.875986	-0.217041	0.239094
H148	H	1.375986	0.282959	0.739094
H149	H	1.107505	-0.000142	0.775486
H150	H	1.607505	0.499858	1.275486
H151	H	0.907149	-0.187830	0.629640
H152	H	1.407149	0.312170	1.129640
