data_functionalizedCrystal
_audit_creation_method	'MofGen! by Chris Wilmer'
_symmetry_space_group_name_H-M	'P1'
_symmetry_Int_Tables_number	1
_symmetry_cell_setting	triclinic
loop_
_symmetry_equiv_pos_as_xyz
  x,y,z
_cell_length_a	10.654562
_cell_length_b	10.654550
_cell_length_c	9.730223
_cell_angle_alpha	89.996763
_cell_angle_beta	89.993899
_cell_angle_gamma	84.487503
loop_
_atom_site_label
_atom_site_type_symbol
_atom_site_fract_x
_atom_site_fract_y
_atom_site_fract_z
O1	O	1.667830	0.176474	-0.114377
O2	O	1.302353	0.193264	-0.114359
O3	O	1.493495	0.002130	-0.114363
O4	O	1.476689	0.367608	-0.114373
O5	O	1.493482	0.002125	0.114217
O6	O	1.302341	0.193258	0.114221
O7	O	1.667817	0.176469	0.114203
Zn8	Zn	1.485077	0.184863	0.150504
Zn9	Zn	1.485094	0.184870	-0.150660
O10	O	1.476676	0.367603	0.114207
C11	C	1.255549	0.192025	-0.000067
C12	C	1.116107	0.188327	-0.000060
C13	C	1.050569	0.186599	0.124528
C14	C	0.919547	0.183134	0.124505
C15	C	0.919611	0.183130	-0.124705
C16	C	1.050632	0.186586	-0.124681
C17	C	1.050531	0.186606	0.268408
C18	C	0.919509	0.183142	0.268385
C19	C	1.492254	-0.044671	-0.000075
C20	C	1.488563	-0.184114	-0.000079
C21	C	1.601103	-0.263595	-0.000081
C22	C	1.597627	-0.394615	-0.000090
C23	C	1.369059	-0.366662	-0.000091
C24	C	1.372537	-0.235644	-0.000092
C25	C	1.733066	-0.279734	-0.000074
C26	C	1.729589	-0.410755	-0.000083
C27	C	1.714621	0.177708	-0.000092
C28	C	1.854064	0.181406	-0.000108
C29	C	1.477916	0.414403	-0.000084
C30	C	1.481608	0.553847	-0.000088
N31	N	1.485075	0.184857	0.356040
N32	N	1.485105	0.184865	-0.356196
C33	C	1.569742	0.100260	0.427965
C34	C	1.569754	0.100260	0.571848
C35	C	1.400430	0.269467	0.571870
C36	C	1.400412	0.269460	0.427989
H37	H	1.080103	0.278201	0.313049
C38	C	1.802794	-0.240060	-0.129303
N39	N	1.855310	-0.210176	-0.226638
C40	C	1.241437	-0.423359	-0.000089
N41	N	1.145309	-0.466061	-0.000081
C42	C	0.847575	0.181221	-0.261781
N43	N	0.793319	0.179786	-0.365029
C44	C	1.113028	0.069349	0.343047
N45	N	1.160100	-0.018969	0.399260
C46	C	1.122722	0.188456	-0.261737
N47	N	1.177021	0.189860	-0.364974
C48	C	0.879525	0.059413	0.328724
N49	N	0.849407	-0.033777	0.374174
H50	H	1.769475	-0.456394	-0.098780
H51	H	0.873220	0.269937	0.323618
C52	C	1.248733	-0.148219	-0.000121
N53	N	1.155479	-0.082370	-0.000147
H54	H	1.775082	-0.244108	0.098620
C55	C	1.796740	-0.467175	0.129147
N56	N	1.847314	-0.509670	0.226482
H57	H	1.638678	0.031369	0.369387
C58	C	1.662884	0.007185	0.650958
N59	N	1.733029	-0.062927	0.710542
H60	H	1.331501	0.338351	0.630465
C61	C	1.307325	0.362587	0.348868
N62	N	1.237234	0.432746	0.289274
