data_functionalizedCrystal
_audit_creation_method	'MofGen! by Chris Wilmer'
_symmetry_space_group_name_H-M	'P1'
_symmetry_Int_Tables_number	1
_symmetry_cell_setting	triclinic
loop_
_symmetry_equiv_pos_as_xyz
  x,y,z
_cell_length_a	15.698487
_cell_length_b	20.016444
_cell_length_c	20.016444
_cell_angle_alpha	90.003000
_cell_angle_beta	60.003646
_cell_angle_gamma	59.998798
loop_
_atom_site_label
_atom_site_type_symbol
_atom_site_fract_x
_atom_site_fract_y
_atom_site_fract_z
Zr1	Zr	0.932353	0.643610	-0.087623
O2	O	1.110064	0.536932	-0.194297
O3	O	0.754643	0.676312	-0.054924
O4	O	0.932345	0.676312	-0.194293
O5	O	0.932369	0.536933	0.055013
O6	O	0.932338	0.786257	-0.194288
O7	O	0.932362	0.536933	-0.054927
O8	O	0.614461	0.786258	0.055019
O9	O	1.250245	0.536932	-0.194295
O10	O	0.827733	0.772310	-0.040971
O11	O	0.827743	0.690260	0.041072
O12	O	1.036964	0.690259	-0.123018
O13	O	1.036974	0.608208	-0.040975
Zr14	Zr	0.932353	0.818960	0.087727
Zr15	Zr	0.932343	0.818960	-0.087614
Zr16	Zr	0.932364	0.643610	0.087719
Zr17	Zr	1.155926	0.643610	-0.087619
Zr18	Zr	0.708780	0.818960	0.087723
O19	O	1.110064	0.786258	0.055028
O20	O	1.110049	0.786257	-0.194285
O21	O	1.110079	0.536933	0.055016
O22	O	0.754643	0.925638	0.194401
O23	O	0.754627	0.925637	-0.054911
O24	O	0.754658	0.676313	0.194389
O25	O	0.932338	0.925637	-0.054908
O26	O	0.932362	0.786258	0.194398
O27	O	0.932369	0.676313	0.194392
O28	O	0.932345	0.925637	0.055032
O29	O	1.250237	0.676311	-0.194288
O30	O	0.614470	0.786259	0.194392
O31	O	0.614461	0.925638	0.194399
O32	O	0.614453	0.925638	0.055026
O33	O	1.250254	0.536932	-0.054921
O34	O	1.250245	0.676312	-0.054915
O35	O	0.827743	0.772311	0.123123
O36	O	0.827733	0.854361	0.041080
O37	O	1.036964	0.772310	-0.040967
O38	O	1.036974	0.690260	0.041076
C39	C	0.652698	0.731285	0.000047
C40	C	0.557785	0.731285	0.000046
C41	C	0.932367	0.731286	0.219378
C42	C	0.932371	0.731286	0.293815
C43	C	0.932340	0.950621	0.000063
C44	C	0.932335	1.025061	0.000066
C45	C	0.384002	0.731283	0.000060
C46	C	0.480707	0.731283	0.000054
C47	C	1.212009	0.731285	0.000057
C48	C	1.306922	0.731285	0.000059
C49	C	0.932367	0.511949	0.000042
C50	C	0.932371	0.437509	0.000038
C51	C	0.823133	1.239148	0.042881
C52	C	0.823138	1.309089	0.042875
C53	C	1.041582	1.223414	-0.042782
C54	C	1.041576	1.153475	-0.042780
C55	C	0.932348	1.161345	0.000056
C56	C	0.932359	1.301225	0.000048
C57	C	0.932365	1.377058	0.000041
C58	C	0.932341	1.085507	0.000062
C59	C	0.932340	0.731284	-0.219273
C60	C	0.932335	0.731284	-0.293710
C61	C	1.041574	0.688453	0.422254
C62	C	1.041569	0.688451	0.492199
C63	C	0.823124	0.774118	0.577849
C64	C	0.823131	0.774115	0.507904
C65	C	0.932359	0.731285	0.430107
C66	C	0.932348	0.731285	0.569997
C67	C	0.932341	0.731283	0.645835
C68	C	0.932366	0.731286	0.354264
C69	C	0.652684	0.950621	0.000058
C70	C	0.557767	1.025062	0.000060
C71	C	0.652711	0.731286	0.219373
C72	C	0.557803	0.731286	0.293808
C73	C	0.652698	0.950622	0.219383
C74	C	0.557785	1.025063	0.293822
C75	C	1.212009	0.511948	-0.219279
C76	C	1.306922	0.437507	-0.293718
C77	C	1.212022	0.511949	0.000047
C78	C	1.306940	0.437508	0.000045
C79	C	1.211996	0.731284	-0.219268
C80	C	1.306904	0.731283	-0.293703
C81	C	0.513193	1.017190	-0.042776
C82	C	0.424021	1.087128	-0.042791
C83	C	0.379418	1.164937	0.000036
C84	C	0.424001	1.172808	0.042873
C85	C	0.513178	1.102870	0.042883
C86	C	0.513233	0.774116	0.371601
C87	C	0.424069	0.774114	0.441547
C88	C	0.379471	0.731285	0.433699
C89	C	0.424050	0.688450	0.355898
C90	C	0.513218	0.688448	0.285954
C91	C	0.513208	1.102858	0.285954
C92	C	0.424040	1.172810	0.355891
C93	C	0.379444	1.164965	0.433695
C94	C	0.424030	1.087161	0.441561
C95	C	0.513203	1.017211	0.371625
C96	C	1.351510	0.359712	-0.285850
C97	C	1.440705	0.289760	-0.355786
C98	C	1.485305	0.297605	-0.433590
C99	C	1.440714	0.375408	-0.441457
C100	C	1.351526	0.445359	-0.371521
C101	C	1.351523	0.445380	0.042873
C102	C	1.440720	0.375442	0.042869
C103	C	1.485326	0.297633	0.000039
C104	C	1.440739	0.289762	-0.042795
C105	C	1.351549	0.359700	-0.042794
C106	C	1.351474	0.774120	-0.285829
C107	C	1.440638	0.774136	-0.355763
C108	C	1.485237	0.731310	-0.433569
C109	C	1.440658	0.688471	-0.441442
C110	C	1.351489	0.688461	-0.371509
H111	H	0.734192	1.245560	0.077759
H112	H	1.130512	1.217017	-0.077656
H113	H	0.549458	1.109291	0.077770
H114	H	1.477008	0.381866	0.077752
H115	H	1.557949	0.240692	0.000046
C116	C	0.281359	1.241912	0.510619
H117	H	0.261185	1.226104	0.558087
H118	H	0.211782	1.273557	0.510619
H119	H	0.310613	1.273543	0.510612
C120	C	1.302471	0.530961	0.089990
H121	H	1.341816	0.525620	0.115487
H122	H	1.218279	0.560027	0.130522
H123	H	1.317086	0.560027	0.053021
C124	C	0.703001	1.394669	0.089987
H125	H	0.637953	1.389335	0.115502
H126	H	0.698455	1.423735	0.053021
H127	H	0.698469	1.423732	0.130518
H128	H	0.387708	1.080786	0.504919
C129	C	1.161718	1.067887	-0.089887
H130	H	1.226772	1.073215	-0.115389
H131	H	1.166256	1.038820	-0.130414
H132	H	1.166251	1.038828	-0.052910
H133	H	0.549486	0.953870	0.378043
C134	C	1.161719	0.641331	0.336682
H135	H	1.226762	0.615815	0.342025
H136	H	1.166272	0.678293	0.307613
H137	H	1.166255	0.600798	0.307619
H138	H	0.549508	0.953840	-0.077661
H139	H	1.476984	0.653603	-0.504801
H140	H	1.130503	0.653571	0.485797
H141	H	1.315201	0.353309	-0.222504
C142	C	0.281381	0.731299	0.510643
H143	H	0.261221	0.762950	0.558095
H144	H	0.310602	0.676735	0.510656
H145	H	0.211786	0.754240	0.510655
C146	C	0.562291	0.821219	0.380249
H147	H	0.522979	0.846713	0.436602
H148	H	0.547675	0.861755	0.354754
H149	H	0.646491	0.784236	0.354742
H150	H	0.387784	0.808998	0.504889
C151	C	1.489805	0.204170	-0.089896
H152	H	1.549296	0.163652	-0.083749
H153	H	1.524598	0.198019	-0.146244
H154	H	1.425783	0.198031	-0.068736
H155	H	0.734189	0.808994	0.514305
C156	C	0.702983	0.821240	0.663424
H157	H	0.718619	0.815116	0.703956
H158	H	0.658098	0.800097	0.669561
H159	H	0.658118	0.877591	0.669551
H160	H	1.476997	0.226416	-0.349365
C161	C	0.374983	1.078457	-0.089904
H162	H	0.414307	1.022099	-0.115393
H163	H	0.389600	1.103948	-0.130442
H164	H	0.290783	1.103962	-0.052932
C165	C	0.374970	0.641353	0.347276
H166	H	0.315471	0.647503	0.400079
H167	H	0.438973	0.585002	0.318215
H168	H	0.340156	0.662519	0.318227
H169	H	1.315252	0.353279	-0.077668
H170	H	0.306803	1.221878	0.000022
H171	H	1.477039	0.381786	-0.504813
H172	H	1.557928	0.240641	-0.490530
H173	H	0.387672	1.236169	0.077741
H174	H	0.549495	0.653574	0.222614
C175	C	0.562250	1.111504	0.200379
H176	H	0.522930	1.167859	0.205721
H177	H	0.547631	1.086005	0.171310
H178	H	0.646451	1.085996	0.171317
C179	C	1.302441	0.530931	-0.380182
H180	H	1.242930	0.571474	-0.327392
H181	H	1.267667	0.537028	-0.409249
H182	H	1.366445	0.537086	-0.409242
C183	C	0.375000	1.258383	0.347223
H184	H	0.414319	1.253030	0.290868
H185	H	0.389621	1.287456	0.372715
H186	H	0.290799	1.287448	0.372727
C187	C	1.302427	0.821236	-0.200251
H188	H	1.341742	0.846754	-0.205590
H189	H	1.317049	0.784272	-0.171185
H190	H	1.218226	0.861768	-0.171190
C191	C	1.489672	0.821249	-0.347088
H192	H	1.450352	0.846738	-0.290733
H193	H	1.475049	0.861790	-0.372577
H194	H	1.573873	0.784274	-0.372593
C195	C	1.583329	0.731320	-0.510487
H196	H	1.603489	0.762961	-0.494647
H197	H	1.554110	0.754251	-0.542134
H198	H	1.652923	0.676749	-0.542126
H199	H	1.315210	0.653575	-0.377932
