data_functionalizedCrystal
_audit_creation_method	'MofGen! by Chris Wilmer'
_symmetry_space_group_name_H-M	'P1'
_symmetry_Int_Tables_number	1
_symmetry_cell_setting	triclinic
loop_
_symmetry_equiv_pos_as_xyz
  x,y,z
_cell_length_a	10.723024
_cell_length_b	10.489716
_cell_length_c	9.198806
_cell_angle_alpha	90.000858
_cell_angle_beta	89.996352
_cell_angle_gamma	84.498503
loop_
_atom_site_label
_atom_site_type_symbol
_atom_site_fract_x
_atom_site_fract_y
_atom_site_fract_z
O1	O	1.657282	0.178908	-0.120869
O2	O	1.294138	0.196033	-0.120872
O3	O	1.483989	0.001865	-0.120876
O4	O	1.467431	0.373076	-0.120865
O5	O	1.483974	0.001865	0.120909
O6	O	1.294123	0.196033	0.120913
O7	O	1.657267	0.178908	0.120916
Cu8	Cu	1.475694	0.187470	0.142991
Cu9	Cu	1.475711	0.187471	-0.142948
O10	O	1.467416	0.373075	0.120920
C11	C	1.247631	0.194787	0.000019
C12	C	1.109074	0.191058	0.000017
C13	C	1.034149	0.299704	0.000020
C14	C	0.890943	0.295853	0.000017
C15	C	1.482738	-0.045666	0.000012
C16	C	1.479015	-0.187295	-0.000001
C17	C	1.595438	-0.285043	0.000013
C18	C	1.533925	-0.362364	-0.119196
C19	C	1.533883	-0.362329	0.119185
C20	C	1.417551	-0.262750	-0.119309
C21	C	1.417526	-0.262710	0.119179
C22	C	1.355928	-0.339982	-0.000059
C23	C	1.703774	0.180154	0.000021
C24	C	1.842331	0.183883	0.000014
C25	C	1.468668	0.420607	0.000028
C26	C	1.472390	0.562235	0.000032
N27	N	1.475690	0.187469	0.344105
N28	N	1.475725	0.187462	-0.344061
C29	C	1.555403	0.105584	0.416301
C30	C	1.555422	0.105579	0.583713
H31	H	0.906707	0.090868	0.000003
C32	C	0.827028	0.492596	0.124309
C33	C	0.804041	0.421423	0.000017
H34	H	0.773380	0.570124	0.124299
H35	H	0.811426	0.444304	0.208607
H36	H	0.911867	0.511647	0.124297
H37	H	0.719204	0.402364	0.000033
H38	H	0.819633	0.469725	-0.084303
C39	C	1.626124	-0.114673	0.630827
C40	C	1.647554	0.010930	0.667514
H41	H	1.683009	-0.173105	0.682559
H42	H	1.542649	-0.129028	0.655725
H43	H	1.638201	-0.127071	0.529315
H44	H	1.635468	0.023332	0.769025
H45	H	1.731049	0.025292	0.642625
H46	H	1.407480	0.257575	0.593863
H47	H	1.368417	-0.219160	0.219967
C48	C	0.978547	0.052629	-0.124288
C49	C	1.052565	0.061631	0.000007
H50	H	0.943671	-0.027280	-0.124297
H51	H	0.912989	0.120284	-0.124273
H52	H	1.028791	0.058759	-0.208593
H53	H	1.002319	0.055511	0.084312
H54	H	1.118132	-0.006042	0.000005
C55	C	1.306300	0.213890	0.515502
C56	C	1.383576	0.282107	0.427968
H57	H	1.249437	0.272320	0.567278
H58	H	1.260732	0.160582	0.456128
H59	H	1.356328	0.162518	0.582481
H60	H	1.333549	0.333472	0.360981
H61	H	1.429148	0.335437	0.487347
C62	C	1.221588	0.407892	0.000028
C63	C	1.090661	0.429129	0.000027
H64	H	1.256470	0.487798	0.000025
H65	H	1.248536	0.360750	0.084338
H66	H	1.248548	0.360743	-0.084295
H67	H	1.063700	0.476271	0.084355
H68	H	1.063702	0.476291	-0.084292
C69	C	1.792813	-0.302271	-0.125195
C70	C	1.732120	-0.251744	-0.000182
H71	H	1.877184	-0.281686	-0.125333
H72	H	1.791408	-0.392667	-0.126032
H73	H	1.751017	-0.266707	-0.209005
H74	H	1.773912	-0.287315	0.083629
H75	H	1.733533	-0.161330	0.000668
H76	H	1.583078	-0.405890	-0.219980
C77	C	1.355468	-0.071261	-0.254355
C78	C	1.351279	-0.204265	-0.255537
H79	H	1.314569	-0.035158	-0.338465
H80	H	1.314396	-0.036284	-0.169826
H81	H	1.440285	-0.052141	-0.253998
H82	H	1.266462	-0.223385	-0.255883
H83	H	1.392349	-0.239253	-0.340089
C84	C	1.595023	-0.553918	0.254477
C85	C	1.600243	-0.421051	0.255243
H86	H	1.636004	-0.590167	0.338465
H87	H	1.510008	-0.572341	0.254639
H88	H	1.635536	-0.589357	0.169816
H89	H	1.559722	-0.385610	0.339899
H90	H	1.685274	-0.402618	0.255095
C91	C	1.770588	0.032168	0.369188
C92	C	1.647548	0.010942	0.332484
H93	H	1.827482	-0.026269	0.317462
H94	H	1.785089	0.117375	0.344293
H95	H	1.782640	0.019770	0.470701
H96	H	1.635492	0.023349	0.230972
H97	H	1.633041	-0.074286	0.357369
H98	H	1.254584	-0.364347	-0.000125
