data_functionalizedCrystal
_audit_creation_method	'MofGen! by Chris Wilmer'
_symmetry_space_group_name_H-M	'P1'
_symmetry_Int_Tables_number	1
_symmetry_cell_setting	triclinic
loop_
_symmetry_equiv_pos_as_xyz
  x,y,z
_cell_length_a	19.077105
_cell_length_b	19.077068
_cell_length_c	19.076919
_cell_angle_alpha	85.529249
_cell_angle_beta	89.923776
_cell_angle_gamma	90.115316
loop_
_atom_site_label
_atom_site_type_symbol
_atom_site_fract_x
_atom_site_fract_y
_atom_site_fract_z
Zn1	Zn	1.044048	-0.340450	0.453500
Zn2	Zn	1.544048	0.159550	0.953500
Zn3	Zn	1.043962	-0.453600	0.340340
Zn4	Zn	1.543962	0.046400	0.840340
Zn5	Zn	0.931660	-0.331023	0.330931
Zn6	Zn	1.431660	0.168977	0.830931
Zn7	Zn	0.921801	-0.453176	0.453077
Zn8	Zn	1.421801	0.046824	0.953077
O9	O	0.985368	-0.394562	0.394462
O10	O	1.485368	0.105438	0.894462
O11	O	1.142196	-0.359583	0.442604
O12	O	1.642196	0.140417	0.942604
O13	O	1.033154	-0.433572	0.240616
O14	O	1.533154	0.066428	0.740616
O15	O	0.950731	-0.233799	0.343429
O16	O	1.450731	0.266201	0.843429
O17	O	1.142133	-0.442714	0.359466
O18	O	1.642133	0.057286	0.859466
O19	O	1.033302	-0.240725	0.433479
O20	O	1.533302	0.259275	0.933479
O21	O	0.950647	-0.343516	0.233703
O22	O	1.450647	0.156484	0.733703
O23	O	0.832193	-0.343104	0.343019
O24	O	1.332193	0.156896	0.843019
O25	O	0.933928	-0.441990	0.551609
O26	O	1.433928	0.058010	1.051609
O27	O	0.824949	-0.432849	0.432759
O28	O	1.324949	0.067151	0.932759
O29	O	1.023742	-0.359171	0.551919
O30	O	1.523742	0.140829	1.051919
O31	O	1.023594	-0.552019	0.359056
O32	O	1.523594	-0.052019	0.859056
O33	O	0.933844	-0.551707	0.441883
O34	O	1.433844	-0.051707	0.941883
C35	C	0.803119	-0.386908	0.386822
C36	C	1.303119	0.113092	0.886822
C37	C	0.725151	-0.383651	0.383571
C38	C	1.225151	0.116349	0.883571
C39	C	0.684769	-0.428912	0.428699
C40	C	1.184769	0.071088	0.928699
C41	C	0.611510	-0.425842	0.425647
C42	C	1.111510	0.074158	0.925647
C43	C	0.578634	-0.377515	0.377464
C44	C	1.078634	0.122485	0.877464
C45	C	0.619022	-0.332250	0.332335
C46	C	1.119022	0.167750	0.832335
C47	C	0.692280	-0.335317	0.335390
C48	C	1.192280	0.164683	0.835390
C49	C	0.359940	-0.363323	0.363326
C50	C	0.859940	0.136677	0.863326
C51	C	0.286677	-0.360262	0.360273
C52	C	0.786677	0.139738	0.860273
C53	C	0.279170	-0.453853	0.453586
C54	C	0.779170	0.046147	0.953586
C55	C	0.352429	-0.456918	0.456635
C56	C	0.852429	0.043082	0.956635
C57	C	0.392810	-0.411651	0.411508
C58	C	0.892810	0.088349	0.911508
N59	N	0.503752	-0.374378	0.374342
N60	N	1.003752	0.125622	0.874342
N61	N	0.467691	-0.414785	0.414634
N62	N	0.967691	0.085215	0.914634
C63	C	0.977658	-0.577398	0.401461
C64	C	1.477658	-0.077398	0.901461
C65	C	0.974423	-0.655619	0.404482
C66	C	1.474423	-0.155619	0.904482
C67	C	1.019665	-0.692509	0.362816
C68	C	1.519665	-0.192509	0.862816
C69	C	1.016626	-0.766007	0.365661
C70	C	1.516626	-0.266007	0.865661
C71	C	0.968342	-0.802612	0.410169
C72	C	1.468342	-0.302612	0.910169
C73	C	0.923098	-0.765717	0.451839
C74	C	1.423098	-0.265717	0.951839
C75	C	0.926141	-0.692221	0.448997
C76	C	1.426141	-0.192221	0.948997
C77	C	0.954231	-1.022406	0.423292
C78	C	1.454231	-0.522406	0.923292
C79	C	0.951190	-1.095907	0.426130
C80	C	1.451190	-0.595907	0.926130
C81	C	1.044720	-1.096192	0.339952
C82	C	1.544720	-0.596192	0.839952
C83	C	1.047755	-1.022695	0.337111
C84	C	1.547755	-0.522695	0.837111
C85	C	1.002514	-0.985806	0.378784
C86	C	1.502514	-0.485806	0.878784
N87	N	0.965233	-0.877738	0.413077
N88	N	1.465233	-0.377738	0.913077
N89	N	1.005627	-0.910681	0.375880
N90	N	1.505627	-0.410681	0.875880
C91	C	1.168328	-0.402247	0.402132
C92	C	1.668328	0.097753	0.902132
C93	C	1.246295	-0.405522	0.405400
C94	C	1.746295	0.094478	0.905400
C95	C	0.977745	-0.401585	0.578012
C96	C	1.477745	0.098415	1.078012
C97	C	0.974497	-0.404578	0.656230
C98	C	1.474497	0.095422	1.156230
C99	C	0.993126	-0.211015	0.387451
C100	C	1.493126	0.288985	0.887451
C101	C	0.996432	-0.132798	0.384464
C102	C	1.496432	0.367202	0.884464
C103	C	0.993003	-0.387518	0.211626
C104	C	1.493003	0.112482	0.711626
C105	C	0.996396	-0.384333	0.133406
C106	C	1.496396	0.115667	0.633406
C107	C	1.019730	-0.362866	0.693140
C108	C	1.519730	0.137134	1.193140
C109	C	1.016669	-0.365675	0.766634
C110	C	1.516669	0.134325	1.266634
C111	C	0.968378	-0.410200	0.803216
C112	C	1.468378	0.089800	1.303216
C113	C	0.923140	-0.451913	0.766301
C114	C	1.423140	0.048087	1.266301
C115	C	0.926198	-0.449100	0.692809
C116	C	1.426198	0.050900	1.192809
C117	C	0.954216	-0.423233	1.022998
C118	C	1.454216	0.076767	1.522998
C119	C	0.951163	-0.426044	1.096496
C120	C	1.451163	0.073956	1.596496
C121	C	1.044691	-0.339805	1.096823
C122	C	1.544691	0.160195	1.596823
C123	C	1.047748	-0.337000	1.023329
C124	C	1.547748	0.163000	1.523329
C125	C	1.002507	-0.378710	0.986421
C126	C	1.502507	0.121290	1.486421
N127	N	0.965250	-0.413073	0.878339
N128	N	1.465250	0.086927	1.378339
N129	N	1.005632	-0.375832	0.911299
N130	N	1.505632	0.124168	1.411299
H131	H	0.379191	-0.496273	0.495869
H132	H	0.879191	0.003727	0.995869
H133	H	0.889301	-0.662185	0.482927
H134	H	1.389301	-0.162185	0.982927
C135	C	1.072129	-0.652686	0.314603
C136	C	1.572129	-0.152686	0.814603
C137	C	1.117138	-0.613833	0.354731
C138	C	1.617138	-0.113833	0.854731
C139	C	1.165473	-0.577135	0.310341
C140	C	1.665473	-0.077135	0.810341
H141	H	1.098709	-0.685108	0.290181
H142	H	1.598709	-0.185108	0.790181
H143	H	1.047801	-0.621714	0.281698
H144	H	1.547801	-0.121714	0.781698
H145	H	1.141464	-0.644802	0.387624
H146	H	1.641464	-0.144802	0.887624
H147	H	1.090578	-0.581399	0.379152
H148	H	1.590578	-0.081399	0.879152
H149	H	1.141146	-0.546163	0.277436
H150	H	1.641146	-0.046163	0.777436
H151	H	1.192048	-0.609561	0.285922
H152	H	1.692048	-0.109561	0.785922
H153	H	1.196014	-0.550763	0.337561
H154	H	1.696014	-0.050763	0.837561
C155	C	0.877209	-0.494431	0.652644
C156	C	1.377209	0.005569	1.152644
C157	C	0.916779	-0.539571	0.613827
C158	C	1.416779	-0.039571	1.113827
C159	C	0.871673	-0.581332	0.576810
C160	C	1.371673	-0.081332	1.076810
H161	H	0.847993	-0.521418	0.684873
H162	H	1.347993	-0.021418	1.184873
H163	H	0.848990	-0.465146	0.621623
H164	H	1.348990	0.034854	1.121623
H165	H	0.944986	-0.568852	0.644844
H166	H	1.444986	-0.068852	1.144844
H167	H	0.945993	-0.512603	0.581586
H168	H	1.445993	-0.012603	1.081586
H169	H	0.843454	-0.552048	0.545790
H170	H	1.343454	-0.052048	1.045790
H171	H	0.842460	-0.608315	0.609044
H172	H	1.342460	-0.108315	1.109044
H173	H	0.898515	-0.611961	0.550464
H174	H	1.398515	-0.111961	1.050464
H175	H	1.087072	-0.992892	0.300869
H176	H	1.587072	-0.492892	0.800869
H177	H	1.081554	-1.126235	0.306026
H178	H	1.581554	-0.626235	0.806026
H179	H	0.246283	-0.490707	0.490327
H180	H	0.746283	0.009293	0.990327
H181	H	0.392810	-0.326468	0.326576
H182	H	0.892810	0.173532	0.826576
H183	H	0.711530	-0.468267	0.467932
H184	H	1.211530	0.031733	0.967932
H185	H	0.911879	-1.125710	0.462386
H186	H	1.411879	-0.625710	0.962386
C187	C	0.250933	-0.307889	0.307893
C188	C	0.750933	0.192111	0.807893
C189	C	0.209071	-0.344161	0.262476
C190	C	0.709071	0.155839	0.762476
C191	C	0.176135	-0.295939	0.214220
C192	C	0.676135	0.204061	0.714220
H193	H	0.222480	-0.277101	0.332437
H194	H	0.722480	0.222899	0.832437
H195	H	0.285444	-0.281366	0.281412
H196	H	0.785444	0.218634	0.781412
H197	H	0.174564	-0.370672	0.288954
H198	H	0.674564	0.129328	0.788954
H199	H	0.237507	-0.374946	0.237916
H200	H	0.737507	0.125054	0.737916
H201	H	0.210647	-0.269417	0.187739
H202	H	0.710647	0.230583	0.687739
H203	H	0.147686	-0.265154	0.238769
H204	H	0.647686	0.234846	0.738769
H205	H	0.147734	-0.320544	0.183395
H206	H	0.647734	0.179456	0.683395
H207	H	0.592249	-0.292898	0.293106
H208	H	1.092249	0.207102	0.793106
H209	H	0.725159	-0.298457	0.298646
H210	H	1.225159	0.201543	0.798646
C211	C	0.870566	-0.805360	0.500116
C212	C	1.370566	-0.305360	1.000116
C213	C	0.802553	-0.784033	0.481152
C214	C	1.302553	-0.284033	0.981152
C215	C	0.754141	-0.820528	0.525614
C216	C	1.254141	-0.320528	1.025614
H217	H	0.875133	-0.854424	0.495883
H218	H	1.375133	-0.354424	0.995883
H219	H	0.879290	-0.795508	0.547377
H220	H	1.379290	-0.295508	1.047377
H221	H	0.793832	-0.793891	0.433902
H222	H	1.293832	-0.293891	0.933902
H223	H	0.797964	-0.734974	0.485388
H224	H	1.297964	-0.234974	0.985388
H225	H	0.762865	-0.810675	0.572876
H226	H	1.262865	-0.310675	1.072876
H227	H	0.758714	-0.869590	0.521378
H228	H	1.258714	-0.369590	1.021378
H229	H	0.707989	-0.806058	0.512757
H230	H	1.207989	-0.306058	1.012757
C231	C	1.065780	-0.805930	0.320340
C232	C	1.565780	-0.305930	0.820340
C233	C	1.108700	-0.758141	0.280737
C234	C	1.608700	-0.258141	0.780737
C235	C	1.153984	-0.794892	0.238971
C236	C	1.653984	-0.294892	0.738971
H237	H	1.094086	-0.836877	0.349594
H238	H	1.594086	-0.336877	0.849594
H239	H	1.039073	-0.832324	0.289607
H240	H	1.539073	-0.332324	0.789607
H241	H	1.135404	-0.731759	0.311466
H242	H	1.635404	-0.231759	0.811466
H243	H	1.080413	-0.727193	0.251470
H244	H	1.580413	-0.227193	0.751470
H245	H	1.127278	-0.821285	0.208238
H246	H	1.627278	-0.321285	0.708238
H247	H	1.182285	-0.825837	0.268229
H248	H	1.682285	-0.325837	0.768229
H249	H	1.183106	-0.762472	0.212090
H250	H	1.683106	-0.262472	0.712090
H251	H	0.917388	-0.457207	0.992957
H252	H	1.417388	0.042793	1.492957
C253	C	1.100052	-0.288576	0.983532
C254	C	1.600052	0.211424	1.483532
C255	C	1.063974	-0.240202	0.937955
C256	C	1.563974	0.259798	1.437955
C257	C	1.112129	-0.195578	0.901282
C258	C	1.612129	0.304422	1.401282
H259	H	1.126560	-0.264066	1.015970
H260	H	1.626560	0.235934	1.515970
H261	H	1.130678	-0.315632	0.957120
H262	H	1.630678	0.184368	1.457120
H263	H	1.033360	-0.213149	0.964365
H264	H	1.533360	0.286851	1.464365
H265	H	1.037469	-0.264692	0.905502
H266	H	1.537469	0.235308	1.405502
H267	H	1.142755	-0.222633	0.874870
H268	H	1.642755	0.277367	1.374870
H269	H	1.138634	-0.171073	0.933726
H270	H	1.638634	0.328927	1.433726
H271	H	1.087657	-0.162755	0.870349
H272	H	1.587657	0.337245	1.370349
C273	C	0.870780	-0.500234	0.806146
C274	C	1.370780	-0.000234	1.306146
C275	C	0.877796	-0.493786	0.878410
C276	C	1.377796	0.006214	1.378410
C277	C	0.829580	-0.538298	0.915136
C278	C	1.329580	-0.038298	1.415136
H279	H	0.824552	-0.487540	0.791816
H280	H	1.324552	0.012460	1.291816
H281	H	0.879552	-0.547503	0.796379
H282	H	1.379552	-0.047503	1.296379
H283	H	0.869018	-0.446527	0.888173
H284	H	1.369018	0.053473	1.388173
H285	H	0.924013	-0.506486	0.892761
H286	H	1.424013	-0.006486	1.392761
H287	H	0.838351	-0.585567	0.905368
H288	H	1.338351	-0.085567	1.405368
H289	H	0.783355	-0.525600	0.900799
H290	H	1.283355	-0.025600	1.400799
H291	H	0.834337	-0.533934	0.964170
H292	H	1.334337	-0.033934	1.464170
H293	H	0.917392	-0.992377	0.457223
H294	H	1.417392	-0.492377	0.957223
C295	C	1.072186	-0.314453	0.653550
C296	C	1.572186	0.185547	1.153550
C297	C	1.111130	-0.278511	0.701607
C298	C	1.611130	0.221489	1.201607
C299	C	1.159452	-0.233897	0.665164
C300	C	1.659452	0.266103	1.165164
H301	H	1.102871	-0.341481	0.627188
H302	H	1.602871	0.158519	1.127188
H303	H	1.047858	-0.281531	0.622597
H304	H	1.547858	0.218469	1.122597
H305	H	1.135457	-0.311429	0.732547
H306	H	1.635457	0.188571	1.232547
H307	H	1.080464	-0.251470	0.727970
H308	H	1.580464	0.248530	1.227970
H309	H	1.135124	-0.200975	0.634212
H310	H	1.635124	0.299025	1.134212
H311	H	1.190132	-0.260931	0.638804
H312	H	1.690132	0.239069	1.138804
H313	H	1.185877	-0.209501	0.697765
H314	H	1.685877	0.290499	1.197765
H315	H	1.053504	-0.331711	0.796682
H316	H	1.553504	0.168289	1.296682
C317	C	1.093769	-0.294397	1.136800
C318	C	1.593769	0.205603	1.636800
C319	C	1.082191	-0.223448	1.115608
C320	C	1.582191	0.276552	1.615608
C321	C	1.127395	-0.181593	1.152412
C322	C	1.627395	0.318407	1.652412
H323	H	1.085082	-0.302353	1.185818
H324	H	1.585082	0.197647	1.685818
H325	H	1.140980	-0.306171	1.127112
H326	H	1.640980	0.193829	1.627112
H327	H	1.034992	-0.211678	1.125302
H328	H	1.534992	0.288322	1.625302
H329	H	1.090884	-0.215470	1.066596
H330	H	1.590884	0.284530	1.566596
H331	H	1.174606	-0.193367	1.142723
H332	H	1.674606	0.306633	1.642723
H333	H	1.118704	-0.189555	1.201428
H334	H	1.618704	0.310445	1.701428
H335	H	1.119550	-0.133450	1.138033
H336	H	1.619550	0.366550	1.638033
C337	C	0.898655	-0.474405	1.136087
C338	C	1.398655	0.025595	1.636087
C339	C	0.859677	-0.510318	1.088034
C340	C	1.359677	-0.010318	1.588034
C341	C	0.811299	-0.554866	1.124479
C342	C	1.311299	-0.054866	1.624479
H343	H	0.922920	-0.507351	1.167054
H344	H	1.422920	-0.007351	1.667054
H345	H	0.868004	-0.447311	1.162433
H346	H	1.368004	0.052689	1.662433
H347	H	0.890324	-0.537411	1.061701
H348	H	1.390324	-0.037411	1.561701
H349	H	0.835398	-0.477390	1.057066
H350	H	1.335398	0.022610	1.557066
H351	H	0.780648	-0.527772	1.150824
H352	H	1.280648	-0.027772	1.650824
H353	H	0.835570	-0.587807	1.155444
H354	H	1.335570	-0.087807	1.655444
H355	H	0.784842	-0.579233	1.091881
H356	H	1.284842	-0.079233	1.591881
H357	H	0.578633	-0.462699	0.462394
H358	H	1.078633	0.037301	0.962394
