data_functionalizedCrystal
_audit_creation_method	'MofGen! by Chris Wilmer'
_symmetry_space_group_name_H-M	'P1'
_symmetry_Int_Tables_number	1
_symmetry_cell_setting	triclinic
loop_
_symmetry_equiv_pos_as_xyz
  x,y,z
_cell_length_a	14.853567
_cell_length_b	11.792241
_cell_length_c	13.930277
_cell_angle_alpha	89.995317
_cell_angle_beta	89.995755
_cell_angle_gamma	83.914173
loop_
_atom_site_label
_atom_site_type_symbol
_atom_site_fract_x
_atom_site_fract_y
_atom_site_fract_z
O1	O	1.196945	0.148181	-0.079765
O2	O	0.934554	0.165833	-0.079782
O3	O	1.072117	-0.008203	-0.079766
O4	O	1.059382	0.322217	-0.079780
O5	O	1.072098	-0.008206	0.079896
O6	O	0.934535	0.165829	0.079880
O7	O	1.196926	0.148177	0.079897
Zn8	Zn	1.065728	0.157003	0.105238
Zn9	Zn	1.065753	0.157008	-0.105123
O10	O	1.059363	0.322213	0.079881
C11	C	0.900953	0.165032	0.000047
C12	C	0.800860	0.162635	0.000041
C13	C	1.071308	-0.050491	0.000064
C14	C	1.068913	-0.176489	0.000063
C15	C	0.387884	0.049122	0.000068
C16	C	0.367408	0.255880	0.000058
C17	C	0.461451	0.258134	0.000055
C18	C	0.518715	0.155880	0.000056
C19	C	0.481936	0.051372	0.000062
C20	C	0.498237	0.362640	0.000040
C21	C	0.592285	0.364898	0.000035
C22	C	0.649550	0.262642	0.000044
C23	C	0.612766	0.158131	0.000050
C24	C	0.670030	0.055877	0.000052
C25	C	0.633248	-0.048637	0.000065
C26	C	0.539201	-0.050883	0.000070
C27	C	0.743596	0.264889	0.000039
C28	C	0.764081	0.058127	0.000046
C29	C	1.064511	-0.407174	0.000047
C30	C	1.066957	-0.278804	0.000056
C31	C	1.230527	0.148979	0.000066
C32	C	1.330621	0.151376	0.000066
C33	C	1.060173	0.364501	0.000049
C34	C	1.062567	0.490500	0.000044
N35	N	1.065717	0.156999	0.248804
N36	N	1.065771	0.157003	-0.248689
C37	C	1.004838	0.234041	0.701067
C38	C	1.126693	0.079966	0.701050
C39	C	1.126682	0.079963	0.600554
C40	C	1.065749	0.157000	0.550310
C41	C	1.004827	0.234042	0.600562
C42	C	1.187610	0.002930	0.550295
C43	C	1.187602	0.002925	0.449793
C44	C	1.126664	0.079958	0.399547
C45	C	1.065738	0.157001	0.449805
C46	C	1.004805	0.234039	0.399561
C47	C	0.943875	0.311078	0.449817
C48	C	0.943889	0.311075	0.550316
C49	C	1.126650	0.079961	0.299048
C50	C	1.004794	0.234040	0.299056
H51	H	0.810700	-0.025142	0.000052
C52	C	0.783410	0.378427	-0.000125
C53	C	0.754343	0.440257	-0.082262
C54	C	0.790990	0.544865	-0.082438
H55	H	0.847619	0.365285	-0.000175
H56	H	0.763762	0.420601	0.055519
H57	H	0.773997	0.398093	-0.137892
H58	H	0.690139	0.453429	-0.082229
H59	H	0.771342	0.587038	-0.026793
H60	H	0.855198	0.531712	-0.082485
H61	H	0.771267	0.586834	-0.138161
H62	H	1.237224	-0.059786	0.591207
H63	H	0.955172	0.296770	0.258153
C64	C	1.253786	-0.080849	0.395408
C65	C	1.307134	-0.148332	0.460921
C66	C	1.368101	-0.225529	0.410855
H67	H	1.291592	-0.040071	0.356184
H68	H	1.221142	-0.128235	0.356238
H69	H	1.339776	-0.100952	0.500074
H70	H	1.269353	-0.189135	0.500147
H71	H	1.335458	-0.272915	0.371686
H72	H	1.405901	-0.184741	0.371633
H73	H	1.404300	-0.271332	0.455298
H74	H	0.894266	0.373808	0.408897
C75	C	0.695575	-0.159530	0.000114
C76	C	0.785807	-0.135179	0.000123
C77	C	0.843251	-0.237302	0.000179
H78	H	0.684488	-0.202461	-0.055543
H79	H	0.684431	-0.202386	0.055819
H80	H	0.796947	-0.092342	-0.055577
H81	H	0.796922	-0.092265	0.055776
H82	H	0.832107	-0.280157	0.055885
H83	H	0.832156	-0.280225	-0.055479
H84	H	0.904479	-0.220794	0.000194
H85	H	0.894282	0.373798	0.591241
C86	C	0.938583	0.317727	0.755450
C87	C	0.885206	0.385170	0.689934
C88	C	0.824152	0.462262	0.739997
H89	H	0.971133	0.365160	0.794654
H90	H	0.900812	0.276833	0.794639
H91	H	0.922972	0.426061	0.650762
H92	H	0.852636	0.337769	0.650728
H93	H	0.786381	0.421368	0.779186
H94	H	0.856710	0.509686	0.779199
H95	H	0.787923	0.508024	0.695552
C96	C	0.499091	-0.164230	0.000028
C97	C	0.404474	-0.144312	0.000003
C98	C	0.367490	-0.248698	-0.000052
H99	H	0.518605	-0.206430	0.055692
H100	H	0.518662	-0.206347	-0.055671
H101	H	0.384911	-0.102213	0.055696
H102	H	0.384934	-0.102130	-0.055657
H103	H	0.387061	-0.290815	-0.055751
H104	H	0.387011	-0.290890	0.055612
H105	H	0.303289	-0.235197	-0.000078
H106	H	0.451606	0.445889	0.000028
C107	C	0.632085	0.478450	-0.000123
C108	C	0.603010	0.540281	-0.082256
C109	C	0.639643	0.644899	-0.082427
H110	H	0.696294	0.465321	-0.000173
H111	H	0.612431	0.520616	0.055524
H112	H	0.622668	0.498125	-0.137889
H113	H	0.538805	0.553441	-0.082224
H114	H	0.619989	0.687065	-0.026780
H115	H	0.703851	0.631759	-0.082474
H116	H	0.619914	0.686868	-0.138148
C117	C	0.305131	0.366805	-0.000095
C118	C	0.250529	0.371541	-0.082224
C119	C	0.193135	0.473705	-0.082388
H120	H	0.340391	0.429463	-0.000146
H121	H	0.267962	0.370226	0.055555
H122	H	0.287693	0.368132	-0.137859
H123	H	0.215250	0.308908	-0.082190
H124	H	0.155966	0.477126	-0.026739
H125	H	0.228403	0.536355	-0.082437
H126	H	0.156075	0.476928	-0.138107
H127	H	1.176308	0.017250	0.741962
C128	C	1.192663	-0.003698	0.244348
C129	C	1.144320	-0.073278	0.186635
C130	C	1.205109	-0.150340	0.136217
H131	H	1.228995	-0.049686	0.288544
H132	H	1.230354	0.037222	0.205085
H133	H	1.106646	-0.114195	0.225895
H134	H	1.107992	-0.027321	0.142421
H135	H	1.242800	-0.109420	0.096953
H136	H	1.241437	-0.196321	0.180419
H137	H	1.172318	-0.197553	0.097046
H138	H	0.357932	-0.035970	0.000082
