data_functionalizedCrystal
_audit_creation_method	'MofGen! by Chris Wilmer'
_symmetry_space_group_name_H-M	'P1'
_symmetry_Int_Tables_number	1
_symmetry_cell_setting	triclinic
loop_
_symmetry_equiv_pos_as_xyz
  x,y,z
_cell_length_a	17.699083
_cell_length_b	13.262508
_cell_length_c	16.176319
_cell_angle_alpha	105.911538
_cell_angle_beta	89.998611
_cell_angle_gamma	83.879892
loop_
_atom_site_label
_atom_site_type_symbol
_atom_site_fract_x
_atom_site_fract_y
_atom_site_fract_z
O1	O	1.004670	0.132726	-0.038785
O2	O	1.504670	0.632726	0.461215
O3	O	0.784368	0.149994	-0.034929
O4	O	1.284368	0.649994	0.465071
O5	O	0.900065	-0.011440	-0.071210
O6	O	1.400065	0.488560	0.428790
O7	O	0.888973	0.294161	-0.002504
O8	O	1.388973	0.794161	0.497496
O9	O	0.900049	-0.011450	0.066280
O10	O	1.400049	0.488550	0.566280
O11	O	0.784352	0.149984	0.102561
O12	O	1.284352	0.649984	0.602561
O13	O	1.004654	0.132716	0.098706
O14	O	1.504654	0.632716	0.598706
Cu15	Cu	0.894502	0.141349	0.113188
Cu16	Cu	1.394502	0.641349	0.613188
Cu17	Cu	0.894521	0.141361	-0.049411
Cu18	Cu	1.394521	0.641361	0.450589
O19	O	0.888957	0.294151	0.134987
O20	O	1.388957	0.794151	0.634987
C21	C	0.756161	0.149371	0.033673
C22	C	1.256161	0.649371	0.533673
C23	C	0.672134	0.147514	0.033246
C24	C	1.172134	0.647514	0.533246
C25	C	0.623935	0.242273	0.054550
C26	C	1.123935	0.742273	0.554550
C27	C	0.544984	0.240523	0.054167
C28	C	1.044984	0.740523	0.554167
C29	C	0.514234	0.144012	0.032474
C30	C	1.014234	0.644012	0.532474
C31	C	0.562439	0.049246	0.011171
C32	C	1.062439	0.549246	0.511171
C33	C	0.641388	0.050998	0.011560
C34	C	1.141388	0.550998	0.511560
C35	C	0.244044	0.042181	0.009603
C36	C	0.744044	0.542181	0.509603
C37	C	0.165088	0.040437	0.009213
C38	C	0.665088	0.540437	0.509213
C39	C	0.147640	0.231705	0.052210
C40	C	0.647640	0.731705	0.552210
C41	C	0.226590	0.233457	0.052599
C42	C	0.726590	0.733457	0.552599
C43	C	0.274788	0.138692	0.031300
C44	C	0.774788	0.638692	0.531300
C45	C	0.360396	0.140591	0.031717
C46	C	0.860396	0.640591	0.531717
C47	C	0.428627	0.142112	0.032051
C48	C	0.928627	0.642112	0.532051
C49	C	0.899437	-0.050546	-0.011258
C50	C	1.399437	0.449454	0.488742
C51	C	0.897579	-0.167055	-0.037458
C52	C	1.397579	0.332945	0.462542
C53	C	0.892304	-0.495510	0.188484
C54	C	1.392304	0.004490	0.688484
C55	C	0.894044	-0.386043	0.213101
C56	C	1.394044	0.113957	0.713101
C57	C	0.894928	-0.331291	0.150463
C58	C	1.394928	0.168709	0.650463
C59	C	0.894072	-0.386016	0.063204
C60	C	1.394072	0.113984	0.563204
C61	C	0.892327	-0.495493	0.038585
C62	C	1.392327	0.004507	0.538585
C63	C	0.894950	-0.331273	0.000565
C64	C	1.394950	0.168727	0.500565
C65	C	0.894094	-0.385999	-0.086694
C66	C	1.394094	0.114001	0.413306
C67	C	0.892350	-0.495465	-0.111309
C68	C	1.392350	0.004535	0.388691
C69	C	0.891466	-0.550217	-0.048672
C70	C	1.391466	-0.050217	0.451328
C71	C	0.896696	-0.221797	0.025184
C72	C	1.396696	0.278203	0.525184
C73	C	0.896718	-0.221780	-0.124715
C74	C	1.396718	0.278220	0.375285
C75	C	0.894979	-0.331247	-0.149332
C76	C	1.394979	0.168753	0.350668
C77	C	1.032862	0.133340	0.030101
C78	C	1.532862	0.633340	0.530101
C79	C	1.116888	0.135196	0.030523
C80	C	1.616888	0.635196	0.530523
C81	C	0.889586	0.333257	0.075032
C82	C	1.389586	0.833257	0.575032
C83	C	0.891443	0.449766	0.101227
C84	C	1.391443	0.949766	0.601227
N85	N	0.894494	0.141340	0.227551
N86	N	1.394494	0.641340	0.727551
N87	N	0.894534	0.141362	-0.163776
N88	N	1.394534	0.641362	0.336224
C89	C	0.945740	0.069886	0.254756
C90	C	1.445740	0.569886	0.754756
C91	C	0.945744	0.069885	0.341303
C92	C	1.445744	0.569885	0.841303
C93	C	0.894505	0.141344	0.400644
C94	C	1.394505	0.641344	0.900644
C95	C	0.843253	0.212801	0.373433
C96	C	1.343253	0.712801	0.873433
C97	C	0.843246	0.212796	0.286887
C98	C	1.343246	0.712796	0.786887
C99	C	0.843279	0.212821	0.722466
C100	C	1.343279	0.712821	1.222466
C101	C	0.843291	0.212822	0.809018
C102	C	1.343291	0.712822	1.309018
C103	C	0.945777	0.069909	0.776882
C104	C	1.445777	0.569909	1.276882
C105	C	0.945770	0.069905	0.690336
C106	C	1.445770	0.569905	1.190336
C107	C	0.894516	0.141358	0.663132
C108	C	1.394516	0.641358	1.163132
C109	C	0.894511	0.141357	0.569287
C110	C	1.394511	0.641357	1.069287
C111	C	0.894512	0.141351	0.494488
C112	C	1.394512	0.641351	0.994488
H113	H	0.537395	-0.029334	-0.006481
H114	H	1.037395	0.470666	0.493519
H115	H	0.680632	-0.026165	-0.005789
H116	H	1.180632	0.473835	0.494211
Br117	Br	1.015314	-0.027072	0.609805
Br118	Br	1.515314	0.472928	1.109805
H119	H	0.987468	0.011700	0.206445
H120	H	1.487468	0.511700	0.706445
H121	H	0.897385	-0.177249	0.096231
H122	H	1.397385	0.322751	0.596231
H123	H	0.987508	0.011725	0.799039
H124	H	1.487508	0.511725	1.299039
H125	H	0.140055	-0.038158	-0.008452
H126	H	0.640055	0.461842	0.491548
Br127	Br	0.309446	-0.086430	-0.019301
Br128	Br	0.809446	0.413570	0.480699
Br129	Br	0.773724	0.309792	0.685550
Br130	Br	1.273724	0.809792	1.185550
H131	H	0.891579	-0.540098	0.239474
H132	H	1.391579	-0.040098	0.739474
Br133	Br	0.895188	-0.311777	0.331519
Br134	Br	1.395188	0.188223	0.831519
Br135	Br	0.082224	0.360319	0.081117
Br136	Br	0.582224	0.860319	0.581117
H137	H	0.890053	-0.639355	-0.068711
H138	H	1.390053	-0.139355	0.431289
H139	H	0.896343	-0.242157	0.170512
H140	H	1.396343	0.257843	0.670512
H141	H	0.891646	-0.540018	-0.182361
H142	H	1.391646	-0.040018	0.317639
H143	H	0.505743	0.317685	0.071514
H144	H	1.005743	0.817685	0.571514
Br145	Br	0.893822	-0.405530	-0.267752
Br146	Br	1.393822	0.094470	0.232248
H147	H	0.897432	-0.177200	-0.175719
H148	H	1.397432	0.322800	0.324281
H149	H	0.987471	0.011701	0.363452
H150	H	1.487471	0.511701	0.863452
Br151	Br	0.773749	0.309810	0.889554
Br152	Br	1.273749	0.809810	1.389554
Br153	Br	0.773707	0.309776	0.453963
Br154	Br	1.273707	0.809776	0.953963
Br155	Br	0.773690	0.309767	0.249964
Br156	Br	1.273690	0.809767	0.749964
H157	H	0.648966	0.320863	0.072215
H158	H	1.148966	0.820863	0.572215
H159	H	0.251622	0.312045	0.070260
H160	H	0.751622	0.812045	0.570260
