data_functionalizedCrystal
_audit_creation_method	'MofGen! by Chris Wilmer'
_symmetry_space_group_name_H-M	'P1'
_symmetry_Int_Tables_number	1
_symmetry_cell_setting	triclinic
loop_
_symmetry_equiv_pos_as_xyz
  x,y,z
_cell_length_a	10.685976
_cell_length_b	18.101397
_cell_length_c	18.101389
_cell_angle_alpha	90.021047
_cell_angle_beta	85.636328
_cell_angle_gamma	85.657616
loop_
_atom_site_label
_atom_site_type_symbol
_atom_site_fract_x
_atom_site_fract_y
_atom_site_fract_z
Zn1	Zn	1.928986	-0.381566	0.331668
Zn2	Zn	1.928848	-0.505386	0.207827
Zn3	Zn	1.717988	-0.372090	0.217363
Zn4	Zn	1.717943	-0.495889	0.341145
O5	O	1.823441	-0.438733	0.274501
O6	O	2.105536	-0.405931	0.307284
O7	O	1.900838	-0.487712	0.105461
O8	O	1.746054	-0.269717	0.232550
O9	O	2.105435	-0.496901	0.216298
O10	O	1.901074	-0.276680	0.316530
O11	O	1.745920	-0.389780	0.112467
O12	O	1.541413	-0.380572	0.241740
O13	O	1.745977	-0.480716	0.443519
O14	O	1.541380	-0.471527	0.332682
O15	O	1.901030	-0.396723	0.436556
O16	O	1.900795	-0.607755	0.225488
O17	O	1.745843	-0.600779	0.323436
C18	C	1.495615	-0.423991	0.289274
C19	C	1.355369	-0.417702	0.295612
C20	C	1.823333	-0.631138	0.274470
C21	C	1.823403	-0.713456	0.274476
C22	C	1.823564	-1.012554	0.274536
C23	C	1.920783	-0.985575	0.212769
C24	C	1.921120	-0.899972	0.212903
C25	C	1.823484	-0.864168	0.274506
C26	C	1.859529	-0.896807	0.350940
C27	C	1.860281	-0.982486	0.350593
C28	C	1.690040	-0.975061	0.260557
C29	C	1.690699	-0.889441	0.258785
C30	C	1.823436	-0.780306	0.274493
C31	C	1.823614	-1.096416	0.274554
C32	C	2.152548	-0.453533	0.259670
C33	C	2.292794	-0.459839	0.253350
C34	C	1.823514	-0.438717	0.467660
C35	C	1.823545	-0.438711	0.549972
C36	C	1.823584	-0.245577	0.274547
C37	C	1.823645	-0.163266	0.274566
C38	C	1.823441	-0.438698	0.082090
C39	C	1.823655	-0.438507	-0.000233
C40	C	1.823619	-0.438575	0.849060
C41	C	1.725728	-0.491224	0.822131
C42	C	1.725992	-0.491501	0.736500
C43	C	1.823581	-0.438642	0.700679
C44	C	1.956526	-0.465799	0.725777
C45	C	1.955981	-0.466149	0.811447
C46	C	1.789720	-0.358695	0.819020
C47	C	1.786762	-0.359015	0.733502
C48	C	1.823568	-0.438679	0.616820
C49	C	1.823641	-0.438540	0.932919
H50	H	1.301650	-0.376817	0.336647
F51	F	1.665206	-0.327874	0.852858
H52	H	1.346519	-0.500734	0.212319
F53	F	1.754632	-0.567968	0.848999
H54	H	1.898569	-0.877988	0.156039
H55	H	1.898505	-1.005208	0.155720
H56	H	1.688926	-0.338644	0.717592
F57	F	1.987851	-1.014258	0.366984
F58	F	2.049358	-1.019411	0.224068
H59	H	1.852857	-0.317225	0.709134
F60	F	2.050397	-0.878927	0.224373
H61	H	1.792573	-1.000178	0.397875
H62	H	1.790884	-0.873371	0.397940
F63	F	1.985671	-0.874368	0.367773
H64	H	2.031422	-0.428919	0.702049
F65	F	1.647177	-1.001435	0.189381
H66	H	1.663520	-0.867952	0.202565
H67	H	1.861019	-0.319395	0.836076
F68	F	1.590924	-0.857015	0.313913
H69	H	1.617604	-0.992080	0.305618
F70	F	1.597138	-0.468381	0.714830
F71	F	1.596478	-0.468265	0.854871
F72	F	1.755306	-0.568726	0.708397
F73	F	1.994737	-0.541589	0.696022
F74	F	1.993537	-0.542705	0.835868
H75	H	2.031391	-0.429790	0.828782
