data_functionalizedCrystal
_audit_creation_method	'MofGen! by Chris Wilmer'
_symmetry_space_group_name_H-M	'P1'
_symmetry_Int_Tables_number	1
_symmetry_cell_setting	triclinic
loop_
_symmetry_equiv_pos_as_xyz
  x,y,z
_cell_length_a	17.077404
_cell_length_b	17.639999
_cell_length_c	17.077396
_cell_angle_alpha	78.772349
_cell_angle_beta	90.015921
_cell_angle_gamma	101.196076
loop_
_atom_site_label
_atom_site_type_symbol
_atom_site_fract_x
_atom_site_fract_y
_atom_site_fract_z
Zn1	Zn	1.263249	0.314698	0.380708
Zn2	Zn	1.289714	0.446884	0.222933
Zn3	Zn	1.131992	0.314724	0.249453
Zn4	Zn	1.158490	0.446828	0.354170
O5	O	1.210861	0.380784	0.301816
O6	O	1.376609	0.332245	0.359786
O7	O	1.268778	0.429387	0.116597
O8	O	1.127238	0.204115	0.289069
O9	O	1.396053	0.429362	0.243869
O10	O	1.223672	0.204096	0.385502
O11	O	1.152900	0.332290	0.136081
O12	O	1.025657	0.332236	0.263337
O13	O	1.172400	0.429266	0.467544
O14	O	1.045125	0.429292	0.340272
O15	O	1.249366	0.332191	0.487041
O16	O	1.294472	0.557483	0.218136
O17	O	1.198062	0.557442	0.314556
C18	C	1.006909	0.380761	0.301803
C19	C	0.919661	0.380771	0.301812
C20	C	0.868565	0.330292	0.362228
C21	C	0.786586	0.330297	0.362231
C22	C	0.755704	0.380785	0.301820
C23	C	0.806806	0.431266	0.241397
C24	C	0.888783	0.431257	0.241392
C25	C	0.635940	0.431284	0.241413
C26	C	0.553957	0.431295	0.241419
C27	C	0.533742	0.330325	0.362252
C28	C	0.615719	0.330315	0.362247
C29	C	0.666816	0.380797	0.301825
C30	C	1.252035	0.586141	0.260606
C31	C	1.269722	0.673994	0.243002
C32	C	1.076699	0.962961	0.435817
C33	C	1.093320	1.045512	0.419250
C34	C	1.193774	1.045490	0.318950
C35	C	1.177164	0.962937	0.335511
C36	C	1.118625	0.921679	0.393944
C37	C	1.219090	0.921655	0.293638
C38	C	1.202479	0.839109	0.310195
C39	C	1.143942	0.797846	0.368624
C40	C	1.102014	0.839134	0.410501
C41	C	1.277625	0.962914	0.235201
C42	C	1.319551	0.921632	0.193329
C43	C	1.302944	0.839085	0.209889
C44	C	1.244407	0.797821	0.268318
C45	C	1.344872	0.797797	0.168012
C46	C	1.328260	0.715251	0.184569
C47	C	1.227795	0.715276	0.284875
C48	C	1.415610	0.380807	0.301829
C49	C	1.502862	0.380817	0.301835
C50	C	1.210887	0.380720	0.506573
C51	C	1.210898	0.380692	0.593828
C52	C	1.169523	1.174624	0.343200
C53	C	1.151844	1.086772	0.360827
C54	C	1.210869	0.380790	0.097867
C55	C	1.210965	0.380595	0.010656
C56	C	1.271288	0.431159	0.959518
C57	C	1.271273	0.431182	0.877533
C58	C	1.210937	0.380637	0.846689
C59	C	1.150608	0.330071	0.897833
C60	C	1.150621	0.330052	0.979816
C61	C	1.150587	0.330111	0.726955
C62	C	1.150575	0.330129	0.644966
C63	C	1.271239	0.431241	0.624672
C64	C	1.271252	0.431223	0.706655
C65	C	1.210923	0.380655	0.757794
H66	H	0.677541	0.472390	0.192209
Br67	Br	1.353113	0.499869	0.555270
Br68	Br	1.353183	0.499753	1.001371
H69	H	0.930385	0.472361	0.192194
H70	H	0.640861	0.289208	0.411443
Br71	Br	1.148359	0.659275	0.364188
H72	H	1.320387	0.472366	0.835897
Br73	Br	1.068689	0.261532	0.603106
Br74	Br	1.068721	0.261472	0.796360
H75	H	1.054352	0.805540	0.458089
H76	H	0.781655	0.472371	0.192206
Br77	Br	0.997263	0.906961	0.515130
H78	H	1.101479	0.288919	0.872712
Br79	Br	1.353140	0.499817	0.748516
Br80	Br	1.424306	0.853799	0.088706
Br81	Br	1.385150	0.659220	0.127731
Br82	Br	1.068753	0.261425	1.049220
H83	H	0.893702	0.289181	0.411424
H84	H	0.492135	0.289219	0.411448
H85	H	1.059183	1.079121	0.453362
Br86	Br	0.717244	0.261788	0.444229
H87	H	1.130412	0.730632	0.382098
Br88	Br	0.512051	0.499838	0.159449
H89	H	1.291150	1.030128	0.221725
Br90	Br	1.273217	1.101489	0.239651
H91	H	1.367211	0.955235	0.145750
