data_functionalizedCrystal
_audit_creation_method	'MofGen! by Chris Wilmer'
_symmetry_space_group_name_H-M	'P1'
_symmetry_Int_Tables_number	1
_symmetry_cell_setting	triclinic
loop_
_symmetry_equiv_pos_as_xyz
  x,y,z
_cell_length_a	15.455313
_cell_length_b	16.109301
_cell_length_c	16.109301
_cell_angle_alpha	83.461481
_cell_angle_beta	92.662870
_cell_angle_gamma	87.322220
loop_
_atom_site_label
_atom_site_type_symbol
_atom_site_fract_x
_atom_site_fract_y
_atom_site_fract_z
O1	O	0.072078	-1.106774	-0.103232
O2	O	0.072093	-0.864713	-0.116531
O3	O	0.072076	-0.992393	0.011149
O4	O	0.072095	-0.979095	-0.230912
O5	O	-0.072185	-0.985092	0.003878
O6	O	-0.072169	-0.857412	-0.123802
O7	O	-0.072183	-1.099473	-0.110503
Cu8	Cu	-0.085348	-0.977776	-0.117817
Cu9	Cu	0.085258	-0.986410	-0.109218
O10	O	-0.072166	-0.971793	-0.238183
C11	C	-0.000036	-0.830088	-0.119628
C12	C	-0.000031	-0.737793	-0.118012
N13	N	-0.205343	-0.971709	-0.123864
C14	C	-0.000055	-0.988204	0.038488
C15	C	-0.000056	-0.986588	0.130784
C16	C	-0.250744	-1.025970	-0.069641
C17	C	-0.341551	-1.021390	-0.074223
C18	C	-0.386956	-0.962551	-0.133031
C19	C	-0.341548	-0.908283	-0.187257
C20	C	-0.250743	-0.912861	-0.182671
C21	C	-0.658534	-0.942794	-0.152803
C22	C	-0.749346	-0.938222	-0.157386
C23	C	-0.749343	-1.051328	-0.044351
C24	C	-0.658536	-1.055904	-0.039773
C25	C	-0.613136	-1.001633	-0.093996
N26	N	-0.479775	-0.957869	-0.137717
N27	N	-0.520318	-1.006312	-0.089305
N28	N	0.205252	-0.992484	-0.103163
C29	C	-0.000052	-1.134099	-0.107406
C30	C	-0.000051	-1.226394	-0.109022
C31	C	-0.000036	-0.515520	-0.190020
C32	C	-0.000041	-0.428799	-0.188496
C33	C	-0.000049	-0.448673	-0.037008
C34	C	-0.000050	-0.535392	-0.038533
C35	C	-0.000039	-0.568813	-0.115041
C36	C	-0.000044	-0.395374	-0.111993
C37	C	-0.000050	-0.301347	-0.110340
C38	C	-0.000034	-0.662845	-0.116694
C39	C	-0.000034	-0.975983	-0.265522
C40	C	-0.000027	-0.977598	-0.357817
C41	C	-0.000046	-1.058597	0.353056
C42	C	-0.000039	-1.057073	0.439777
C43	C	-0.000034	-0.905584	0.419903
C44	C	-0.000035	-0.907109	0.333184
C45	C	-0.000045	-0.983618	0.299763
C46	C	-0.000037	-0.980569	0.473203
C47	C	-0.000029	-0.978916	0.567229
C48	C	-0.000052	-0.985271	0.205731
H49	H	-0.378516	-1.065573	-0.030069
O50	O	-0.206776	-1.083152	-0.012440
C51	C	-0.216367	-1.194883	0.099161
C52	C	-0.266265	-1.130152	0.034430
H53	H	-0.264442	-1.232912	0.137061
H54	H	-0.173893	-1.161188	0.142910
H55	H	-0.173816	-1.238512	0.065386
H56	H	-0.308863	-1.086506	0.068135
H57	H	-0.308684	-1.163902	-0.009315
H58	H	-0.000027	-0.843294	0.447125
H59	H	-0.786311	-0.890306	-0.205279
O60	O	-0.206771	-0.860115	-0.235432
C61	C	-0.216352	-0.747414	-0.347998
C62	C	-0.266256	-0.807115	-0.288312
H63	H	-0.264424	-0.704537	-0.390755
H64	H	-0.173847	-0.785392	-0.387456
H65	H	-0.173832	-0.708076	-0.309924
H66	H	-0.308823	-0.846467	-0.326320
H67	H	-0.308706	-0.769089	-0.248852
H68	H	-0.621577	-0.898606	-0.196954
O69	O	-0.000071	-0.547846	-0.264412
C70	C	-0.000018	-0.518979	-0.414504
C71	C	0.000005	-0.482262	-0.330313
H72	H	0.000062	-0.465973	-0.467806
H73	H	-0.060405	-0.555998	-0.422103
H74	H	0.060342	-0.562161	-0.415922
H75	H	-0.060313	-0.439044	-0.328836
H76	H	0.060432	-0.445292	-0.322748
O77	O	-0.000002	-1.129832	0.491666
C78	C	-0.000046	-1.194624	0.634065
C79	C	-0.000071	-1.112159	0.575398
H80	H	-0.000120	-1.180363	0.701774
H81	H	0.060339	-1.235339	0.625013
H82	H	-0.060408	-1.229222	0.618830
H83	H	0.060250	-1.077492	0.590596
H84	H	-0.060495	-1.071505	0.584461
H85	H	-0.786316	-1.095512	-0.000204
O86	O	-0.614567	-1.113082	0.017430
C87	C	-0.624149	-1.224816	0.129030
C88	C	-0.674052	-1.160086	0.064303
H89	H	-0.672221	-1.262848	0.166932
H90	H	-0.581675	-1.191120	0.172778
H91	H	-0.581598	-1.268442	0.095252
H92	H	-0.716650	-1.116442	0.098010
H93	H	-0.716472	-1.193836	0.020558
O94	O	-0.385786	-0.851200	-0.244359
C95	C	-0.525675	-0.793991	-0.301491
C96	C	-0.475687	-0.858689	-0.236793
H97	H	-0.598369	-0.800012	-0.295384
H98	H	-0.507868	-0.805700	-0.367206
H99	H	-0.507785	-0.728317	-0.289741
H100	H	-0.493551	-0.924388	-0.248466
H101	H	-0.493499	-0.846907	-0.171100
H102	H	-0.000041	-0.385411	-0.249552
O103	O	-0.000015	-0.416070	0.037238
C104	C	-0.000065	-0.291281	0.106724
C105	C	-0.000087	-0.328091	0.022582
H106	H	-0.000142	-0.220145	0.094903
H107	H	0.060320	-0.316227	0.146829
H108	H	-0.060426	-0.310229	0.140734
H109	H	0.060233	-0.309159	-0.011498
H110	H	-0.060512	-0.303148	-0.017462
O111	O	-0.000013	-0.587050	0.034385
C112	C	-0.000074	-0.597616	0.184799
C113	C	-0.000091	-0.539020	0.102289
H114	H	-0.000156	-0.558806	0.239720
H115	H	0.060311	-0.641752	0.190971
H116	H	-0.060435	-0.635675	0.184782
H117	H	0.060229	-0.500906	0.102249
H118	H	-0.060517	-0.494939	0.096150
O119	O	0.000081	-0.834221	0.281500
C120	C	0.074852	-0.709019	0.241703
C121	C	0.074814	-0.791523	0.300300
H122	H	0.135276	-0.674483	0.256870
H123	H	0.014521	-0.668256	0.250822
H124	H	0.074811	-0.723270	0.173988
H125	H	0.074885	-0.777349	0.368038
H126	H	0.135139	-0.832262	0.291108
H127	H	-0.000053	-1.120895	0.325848
