data_functionalizedCrystal
_audit_creation_method	'MofGen! by Chris Wilmer'
_symmetry_space_group_name_H-M	'P1'
_symmetry_Int_Tables_number	1
_symmetry_cell_setting	triclinic
loop_
_symmetry_equiv_pos_as_xyz
  x,y,z
_cell_length_a	16.109318
_cell_length_b	16.109301
_cell_length_c	14.048226
_cell_angle_alpha	89.992144
_cell_angle_beta	89.997121
_cell_angle_gamma	83.465022
loop_
_atom_site_label
_atom_site_type_symbol
_atom_site_fract_x
_atom_site_fract_y
_atom_site_fract_z
O1	O	1.103125	0.106938	-0.079084
O2	O	0.861065	0.120222	-0.079104
O3	O	0.988745	-0.007451	-0.079084
O4	O	0.975445	0.234610	-0.079105
O5	O	0.988729	-0.007458	0.079237
O6	O	0.861050	0.120214	0.079217
O7	O	1.103110	0.106930	0.079237
Zn8	Zn	0.982077	0.113571	0.104364
Zn9	Zn	0.982097	0.113581	-0.104231
O10	O	0.975430	0.234603	0.079217
C11	C	0.830083	0.119677	0.000054
C12	C	0.737788	0.118057	0.000047
C13	C	0.988198	-0.038430	0.000077
C14	C	0.986583	-0.130725	0.000078
C15	C	0.438723	0.112826	-0.086237
C16	C	0.525444	0.114343	-0.086243
C17	C	0.525446	0.114324	0.086368
C18	C	0.438727	0.112800	0.086373
C19	C	0.395367	0.112056	0.000068
C20	C	0.568807	0.115096	0.000057
C21	C	0.662835	0.116742	0.000051
C22	C	0.301334	0.110409	0.000073
C23	C	1.058590	-0.352993	0.000069
C24	C	1.057066	-0.439713	0.000061
C25	C	0.905579	-0.419848	0.000053
C26	C	0.907104	-0.333130	0.000054
C27	C	0.983612	-0.299704	0.000067
C28	C	0.980563	-0.473144	0.000058
C29	C	0.978910	-0.567170	0.000049
C30	C	0.985265	-0.205672	0.000074
C31	C	1.134092	0.107474	0.000077
C32	C	1.226387	0.109095	0.000077
C33	C	0.975976	0.265581	0.000054
C34	C	0.977592	0.357877	0.000046
N35	N	0.982070	0.113564	0.246725
N36	N	0.982112	0.113582	-0.246592
C37	C	1.038624	0.057054	0.296552
C38	C	1.038629	0.057053	0.396209
C39	C	0.982084	0.113567	0.446038
C40	C	0.925524	0.170080	0.396204
C41	C	0.925515	0.170076	0.296548
C42	C	0.925548	0.170086	0.603918
C43	C	0.925558	0.170092	0.703581
C44	C	1.038662	0.057063	0.703579
C45	C	1.038653	0.057059	0.603923
C46	C	0.982094	0.113573	0.554096
H47	H	0.403422	0.112218	-0.156512
O48	O	1.093656	0.002137	0.444463
C49	C	1.143556	-0.047750	0.379113
H50	H	1.144465	-0.013665	0.308066
H51	H	1.209958	-0.060391	0.407894
H52	H	1.116596	-0.109533	0.368537
O53	O	1.132835	-0.320384	0.000114
C54	C	1.118107	-0.232417	0.000091
H55	H	1.053221	-0.212039	0.030066
H56	H	1.167059	-0.205809	0.046055
H57	H	1.122131	-0.208269	-0.075864
O58	O	0.567460	0.115163	0.170262
C59	C	0.536847	0.186757	0.222755
H60	H	0.470738	0.209644	0.198217
H61	H	0.536001	0.170511	0.301708
H62	H	0.579046	0.238007	0.210790
H63	H	0.879488	0.216103	0.563353
O64	O	0.870549	0.225053	0.248291
C65	C	0.820629	0.274922	0.313638
H66	H	0.854720	0.275879	0.384669
H67	H	0.807919	0.341313	0.284830
H68	H	0.758881	0.247901	0.324255
H69	H	1.118121	-0.483098	0.000061
H70	H	0.843288	-0.447074	0.000044
H71	H	1.084673	0.011037	0.255987
H72	H	0.846043	-0.289740	0.000049
H73	H	0.403426	0.112172	0.156657
H74	H	0.879512	0.216111	0.744147
H75	H	0.560740	0.114969	-0.156521
H76	H	1.084701	0.011045	0.563353
O77	O	1.093521	0.002192	0.752123
C78	C	1.081418	0.014321	0.850767
H79	H	1.015311	0.045367	0.864383
H80	H	1.090694	-0.048639	0.888650
H81	H	1.128460	0.056042	0.879033
H82	H	0.879479	0.216093	0.436781
