data_functionalizedCrystal
_audit_creation_method	'MofGen! by Chris Wilmer'
_symmetry_space_group_name_H-M	'P1'
_symmetry_Int_Tables_number	1
_symmetry_cell_setting	triclinic
loop_
_symmetry_equiv_pos_as_xyz
  x,y,z
_cell_length_a	12.837943
_cell_length_b	16.109301
_cell_length_c	14.586319
_cell_angle_alpha	90.005214
_cell_angle_beta	89.997399
_cell_angle_gamma	90.854790
loop_
_atom_site_label
_atom_site_type_symbol
_atom_site_fract_x
_atom_site_fract_y
_atom_site_fract_z
O1	O	1.375379	-0.216129	-0.076235
O2	O	1.875379	0.283871	0.423765
O3	O	1.073577	-0.205453	-0.076239
O4	O	1.573577	0.294547	0.423761
O5	O	1.232769	-0.090419	-0.076227
O6	O	1.732769	0.409581	0.423773
O7	O	1.216188	-0.331163	-0.076246
O8	O	1.716188	0.168837	0.423754
O9	O	1.232758	-0.090416	0.076254
O10	O	1.732758	0.409584	0.576254
O11	O	1.073566	-0.205450	0.076242
O12	O	1.573566	0.294550	0.576242
O13	O	1.375368	-0.216126	0.076246
O14	O	1.875368	0.283874	0.576246
Cu15	Cu	1.224466	-0.210788	0.090167
Cu16	Cu	1.724466	0.289212	0.590167
Cu17	Cu	1.224479	-0.210791	-0.090159
Cu18	Cu	1.724479	0.289209	0.409841
O19	O	1.216177	-0.331161	0.076235
O20	O	1.716177	0.168839	0.576235
C21	C	1.034953	-0.201845	0.000001
C22	C	1.534953	0.298155	0.500001
C23	C	0.919879	-0.191088	0.000000
C24	C	1.419879	0.308912	0.500000
C25	C	1.413993	-0.219735	0.000004
C26	C	1.913993	0.280265	0.500004
C27	C	1.529067	-0.230491	-0.000000
C28	C	2.029067	0.269509	0.500000
C29	C	1.232092	-0.059389	0.000014
C30	C	1.732092	0.440611	0.500014
C31	C	1.230078	0.033066	0.000015
C32	C	1.730078	0.533066	0.500015
C33	C	1.770069	-0.101174	0.000019
C34	C	2.270069	0.398826	0.500019
C35	C	1.878191	-0.111278	0.000015
C36	C	2.378191	0.388722	0.500015
C37	C	1.853436	-0.260800	-0.000007
C38	C	2.353436	0.239200	0.499993
C39	C	1.745314	-0.250697	-0.000003
C40	C	2.245314	0.249303	0.499997
C41	C	1.703634	-0.170882	0.000009
C42	C	2.203634	0.329118	0.500009
C43	C	1.595510	-0.160779	0.000007
C44	C	2.095510	0.339221	0.500007
C45	C	1.570757	-0.310301	-0.000009
C46	C	2.070757	0.189699	0.499991
C47	C	1.678879	-0.320404	-0.000013
C48	C	2.178879	0.179596	0.499987
C49	C	1.216854	-0.362190	-0.000008
C50	C	1.716854	0.137810	0.499992
C51	C	1.218868	-0.454645	-0.000015
C52	C	1.718868	0.045355	0.499985
N53	N	1.224465	-0.210786	0.216999
N54	N	1.724465	0.289214	0.716999
C55	C	1.319857	0.248206	0.000002
C56	C	1.819857	0.748206	0.500002
C57	C	1.317957	0.335078	-0.000006
C58	C	1.817957	0.835078	0.499994
C59	C	1.129081	0.330208	-0.000005
C60	C	1.629081	0.830208	0.499995
C61	C	1.130983	0.243338	-0.000004
C62	C	1.630983	0.743338	0.499996
C63	C	1.226374	0.202340	0.000004
C64	C	1.726374	0.702340	0.500004
C65	C	1.222572	0.376081	-0.000004
C66	C	1.722572	0.876081	0.499996
C67	C	1.220511	0.470271	-0.000013
C68	C	1.720511	0.970271	0.499987
C69	C	1.228435	0.108144	0.000011
C70	C	1.728435	0.608144	0.500011
N71	N	1.224489	-0.210787	-0.216991
N72	N	1.724489	0.289213	0.283009
C73	C	1.294978	-0.159869	0.452010
C74	C	1.794978	0.340131	0.952010
C75	C	1.294981	-0.159868	0.547991
C76	C	1.794981	0.340132	1.047991
C77	C	1.153968	-0.261706	0.547991
C78	C	1.653968	0.238294	1.047991
C79	C	1.153961	-0.261703	0.452011
C80	C	1.653961	0.238297	0.952011
C81	C	1.224472	-0.210786	0.404023
C82	C	1.724472	0.289214	0.904023
C83	C	1.224482	-0.210787	0.595984
C84	C	1.724482	0.289213	1.095984
C85	C	1.224485	-0.210786	0.700051
C86	C	1.724485	0.289214	1.200051
C87	C	1.224468	-0.210786	0.299950
C88	C	1.724468	0.289214	0.799950
H89	H	1.736133	-0.036186	0.000020
H90	H	2.236133	0.463814	0.500020
H91	H	1.352391	-0.118409	0.412941
H92	H	1.852391	0.381591	0.912941
C93	C	1.372542	-0.103863	0.600773
C94	C	1.872542	0.396137	1.100773
H95	H	1.414536	-0.073545	0.558444
H96	H	1.914536	0.426455	1.058444
H97	H	1.335274	-0.066282	0.638223
H98	H	1.835274	0.433718	1.138223
H99	H	1.415684	-0.137216	0.638205
H100	H	1.915684	0.362784	1.138205
C101	C	1.420789	0.385528	-0.000003
C102	C	1.920789	0.885528	0.499997
H103	H	1.477868	0.348666	0.000009
H104	H	1.977868	0.848666	0.500009
H105	H	1.423981	0.419512	-0.053177
H106	H	1.923981	0.919512	0.446823
H107	H	1.423967	0.419521	0.053177
H108	H	1.923967	0.919521	0.553177
C109	C	1.076423	-0.317718	0.600780
C110	C	1.576423	0.182282	1.100780
H111	H	1.086531	-0.310435	0.664815
H112	H	1.586531	0.189565	1.164815
H113	H	1.007245	-0.303181	0.585062
H114	H	1.507245	0.196819	1.085062
H115	H	1.087669	-0.374104	0.585038
H116	H	1.587669	0.125896	1.085038
C117	C	1.024160	0.375309	-0.000001
C118	C	1.524160	0.875309	0.499999
H119	H	1.036415	0.433615	0.000009
H120	H	1.536415	0.933615	0.500009
H121	H	0.985666	0.360070	-0.053172
H122	H	1.485666	0.860070	0.446828
H123	H	0.985674	0.360074	0.053182
H124	H	1.485674	0.860074	0.553182
C125	C	1.028146	0.192882	0.000002
C126	C	1.528146	0.692882	0.500002
H127	H	0.971062	0.229739	0.000010
H128	H	1.471062	0.729739	0.500010
H129	H	1.024965	0.158887	-0.053171
H130	H	1.524965	0.658887	0.446829
H131	H	1.024964	0.158899	0.053183
H132	H	1.524964	0.658899	0.553183
C133	C	1.076403	-0.317716	0.399222
C134	C	1.576403	0.182284	0.899222
H135	H	1.034421	-0.348049	0.441547
H136	H	1.534421	0.151951	0.941547
H137	H	1.033265	-0.284370	0.361788
H138	H	1.533265	0.215630	0.861788
H139	H	1.113684	-0.355296	0.361773
H140	H	1.613684	0.144704	0.861773
H141	H	1.561577	-0.095790	0.000013
H142	H	2.061577	0.404210	0.500013
C143	C	1.724733	-0.408193	-0.000031
C144	C	2.224733	0.091807	0.499969
H145	H	1.798642	-0.404228	-0.000038
H146	H	2.298642	0.095772	0.499962
H147	H	1.701926	-0.437263	0.053135
H148	H	2.201926	0.062737	0.553135
H149	H	1.701930	-0.437247	-0.053219
H150	H	2.201930	0.062753	0.446781
C151	C	1.951266	-0.034600	0.000017
C152	C	2.451266	0.465400	0.500017
H153	H	1.910954	0.014379	0.000017
H154	H	2.410954	0.514379	0.500017
H155	H	1.993963	-0.035432	0.053187
H156	H	2.493963	0.464568	0.553187
H157	H	1.993954	-0.035434	-0.053167
H158	H	2.493954	0.464566	0.446833
C159	C	1.899297	-0.348587	-0.000013
C160	C	2.399297	0.151413	0.499987
H161	H	1.973205	-0.344617	-0.000016
H162	H	2.473205	0.155383	0.499984
H163	H	1.876488	-0.377651	0.053156
H164	H	2.376488	0.122349	0.553156
H165	H	1.876501	-0.377649	-0.053197
H166	H	2.376501	0.122351	0.446803
C167	C	1.497676	-0.386982	-0.000022
C168	C	1.997676	0.113018	0.499978
H169	H	1.427312	-0.369536	-0.000015
H170	H	1.927312	0.130464	0.499985
H171	H	1.510317	-0.419352	-0.053201
H172	H	2.010317	0.080648	0.446799
H173	H	1.510305	-0.419358	0.053153
H174	H	2.010305	0.080642	0.553153
H175	H	1.397531	0.214828	0.000006
H176	H	1.897531	0.714828	0.500006
