data_functionalizedCrystal
_audit_creation_method	'MofGen! by Chris Wilmer'
_symmetry_space_group_name_H-M	'P1'
_symmetry_Int_Tables_number	1
_symmetry_cell_setting	triclinic
loop_
_symmetry_equiv_pos_as_xyz
  x,y,z
_cell_length_a	16.974829
_cell_length_b	14.044190
_cell_length_c	16.053802
_cell_angle_alpha	92.795827
_cell_angle_beta	83.771117
_cell_angle_gamma	88.284627
loop_
_atom_site_label
_atom_site_type_symbol
_atom_site_fract_x
_atom_site_fract_y
_atom_site_fract_z
O1	O	1.063887	0.112705	-0.141320
O2	O	0.834083	0.128977	-0.125796
O3	O	0.945532	-0.017125	-0.133308
O4	O	0.952438	0.258807	-0.133808
O5	O	0.939395	-0.009117	0.005964
O6	O	0.827946	0.136985	0.013476
O7	O	1.057750	0.120713	-0.002047
Zn8	Zn	0.941874	0.130121	0.027827
Zn9	Zn	0.949959	0.119569	-0.155671
O10	O	0.946301	0.266816	0.005465
C11	C	0.801427	0.132510	-0.054161
C12	C	0.713264	0.131094	-0.048205
C13	C	0.216641	0.123626	-0.006527
C14	C	0.299480	0.124956	-0.012126
C15	C	0.344244	0.121248	-0.090844
C16	C	0.306166	0.116220	-0.163968
C17	C	0.223329	0.114897	-0.158369
C18	C	0.592349	0.124743	-0.115730
C19	C	0.675192	0.126063	-0.121323
C20	C	0.668499	0.134801	0.030520
C21	C	0.585661	0.133472	0.036112
C22	C	0.547590	0.128449	-0.037013
N23	N	0.428919	0.122604	-0.096568
N24	N	0.462917	0.127100	-0.031288
C25	C	0.939443	-0.048420	-0.063466
C26	C	0.930433	-0.153599	-0.062850
C27	C	0.977862	-0.404132	-0.066086
C28	C	0.913975	-0.346173	-0.061765
C29	C	0.923134	-0.239015	-0.062368
C30	C	0.968704	-0.511300	-0.065483
C31	C	1.090406	0.117180	-0.073684
C32	C	1.178569	0.118595	-0.079646
C33	C	0.952390	0.298110	-0.064380
C34	C	0.961401	0.403289	-0.065001
N35	N	0.936361	0.137322	0.153059
N36	N	0.955477	0.112361	-0.280903
C37	C	0.983804	0.075177	0.193555
C38	C	0.979956	0.080223	0.281221
C39	C	0.928669	0.147419	0.328389
C40	C	0.881222	0.209567	0.287888
C41	C	0.885066	0.204515	0.200223
C42	C	0.911874	0.169457	0.590931
C43	C	0.908035	0.174505	0.678601
C44	C	1.006769	0.045160	0.671929
C45	C	1.010612	0.040119	0.584263
C46	C	0.963161	0.102263	0.543769
N47	N	0.924736	0.152581	0.417998
N48	N	0.967090	0.097096	0.454162
H49	H	0.180199	0.126650	0.057573
Cl50	Cl	1.039597	0.002096	0.332132
Cl51	Cl	0.818908	-0.393811	-0.055344
H52	H	0.561362	0.120649	-0.175273
Cl53	Cl	0.347338	0.131286	0.079800
H54	H	1.039431	-0.373275	-0.070237
H55	H	1.025570	0.020463	0.155156
Cl56	Cl	1.075088	-0.044356	0.524965
H57	H	1.045400	-0.005436	0.704907
Cl58	Cl	0.843556	0.258990	0.737893
Cl59	Cl	0.362442	0.111559	-0.262928
Cl60	Cl	0.816742	0.294039	0.347183
H61	H	0.873240	0.220059	0.557968
H62	H	0.711637	0.123051	-0.185428
Cl63	Cl	0.825418	0.282641	0.149315
Cl64	Cl	0.175467	0.108577	-0.250294
Cl65	Cl	0.716364	0.141124	0.122441
Cl66	Cl	0.529391	0.138156	0.135076
