data_functionalizedCrystal
_audit_creation_method	'MofGen! by Chris Wilmer'
_symmetry_space_group_name_H-M	'P1'
_symmetry_Int_Tables_number	1
_symmetry_cell_setting	triclinic
loop_
_symmetry_equiv_pos_as_xyz
  x,y,z
_cell_length_a	6.817900
_cell_length_b	7.076148
_cell_length_c	14.858572
_cell_angle_alpha	90.598754
_cell_angle_beta	104.524003
_cell_angle_gamma	117.702381
loop_
_atom_site_label
_atom_site_type_symbol
_atom_site_fract_x
_atom_site_fract_y
_atom_site_fract_z
V1	V	-4.115448	-0.296438	-0.289311
V2	V	-3.615448	0.203562	0.210689
O3	O	-4.022266	0.012864	-0.284469
O4	O	-3.522266	0.512864	0.215531
O5	O	-4.142344	-0.586458	-0.286692
O6	O	-3.642344	-0.086458	0.213308
O7	O	-4.071059	-0.292484	-0.415781
O8	O	-3.571059	0.207516	0.084219
O9	O	-4.094044	-0.283145	-0.154486
O10	O	-3.594044	0.216855	0.345514
V11	V	-4.588799	-0.259370	-0.273262
V12	V	-4.088799	0.240630	0.226738
O13	O	-4.399018	-0.377749	-0.324514
O14	O	-3.899018	0.122251	0.175486
O15	O	-4.755426	-0.178059	-0.238059
O16	O	-4.255426	0.321941	0.261941
O17	O	-4.338696	0.030650	-0.275881
O18	O	-3.838696	0.530650	0.224119
O19	O	-4.799378	-0.568672	-0.278104
O20	O	-4.299378	-0.068672	0.221896
O21	O	-4.727599	-0.272663	-0.408087
O22	O	-4.227599	0.227337	0.091913
O23	O	-4.409981	-0.263324	-0.146792
O24	O	-3.909981	0.236676	0.353208
C25	C	-3.914599	-0.282144	-0.446627
C26	C	-3.414599	0.217856	0.053373
C27	C	-3.960089	-0.280830	-0.550013
C28	C	-3.460089	0.219170	-0.050013
C29	C	-4.138866	0.101321	-0.280608
C30	C	-3.638866	0.601321	0.219392
C31	C	-4.012480	0.342870	-0.281950
C32	C	-3.512480	0.842870	0.218050
C33	C	-4.126582	-0.276030	-0.928592
C34	C	-3.626582	0.223970	-0.428592
C35	C	-4.080250	-0.277366	-0.823260
C36	C	-3.580250	0.222634	-0.323260
C37	C	-4.043337	-0.278432	-0.739306
C38	C	-3.543337	0.221568	-0.239306
C39	C	-3.997001	-0.279764	-0.633967
C40	C	-3.497001	0.220236	-0.133967
C41	C	-4.229784	-0.273671	-0.115940
C42	C	-3.729784	0.226329	0.384060
C43	C	-4.163531	-0.274974	-0.012554
C44	C	-3.663531	0.225026	0.487446
