data_functionalizedCrystal
_audit_creation_method	'MofGen! by Chris Wilmer'
_symmetry_space_group_name_H-M	'P1'
_symmetry_Int_Tables_number	1
_symmetry_cell_setting	triclinic
loop_
_symmetry_equiv_pos_as_xyz
  x,y,z
_cell_length_a	18.215407
_cell_length_b	12.759399
_cell_length_c	12.759393
_cell_angle_alpha	89.969094
_cell_angle_beta	90.020870
_cell_angle_gamma	89.990371
loop_
_atom_site_label
_atom_site_type_symbol
_atom_site_fract_x
_atom_site_fract_y
_atom_site_fract_z
Zn1	Zn	1.125144	0.418369	0.594015
Zn2	Zn	1.625144	0.918369	1.094015
Zn3	Zn	1.125067	0.594085	0.418334
Zn4	Zn	1.625067	1.094085	0.918334
Zn5	Zn	1.002070	0.418404	0.418350
Zn6	Zn	1.502070	0.918404	0.918350
Zn7	Zn	1.002064	0.593990	0.593971
Zn8	Zn	1.502064	1.093990	1.093971
O9	O	1.063586	0.506212	0.506168
O10	O	1.563586	1.006212	1.006168
O11	O	1.228118	0.441704	0.570722
O12	O	1.728118	0.941704	1.070722
O13	O	1.108722	0.570834	0.271315
O14	O	1.608722	1.070834	0.771315
O15	O	1.018431	0.271378	0.441678
O16	O	1.518431	0.771378	0.941678
O17	O	1.228061	0.570801	0.441650
O18	O	1.728061	1.070801	0.941650
O19	O	1.108853	0.271353	0.570738
O20	O	1.608853	0.771353	1.070738
O21	O	1.018356	0.441762	0.271327
O22	O	1.518356	0.941762	0.771327
O23	O	0.899085	0.441670	0.441636
O24	O	1.399085	0.941670	0.941636
O25	O	1.018420	0.570639	0.740998
O26	O	1.518420	1.070639	1.240998
O27	O	0.899080	0.570673	0.570664
O28	O	1.399080	1.070673	1.070664
O29	O	1.108847	0.441612	0.741030
O30	O	1.608847	0.941612	1.241030
O31	O	1.108715	0.741093	0.441607
O32	O	1.608715	1.241093	0.941607
O33	O	1.018345	0.741024	0.570648
O34	O	1.518345	1.241024	1.070648
C35	C	0.872380	0.506166	0.506147
C36	C	1.372380	1.006166	1.006147
C37	C	0.790581	0.506171	0.506163
C38	C	1.290581	1.006171	1.006163
C39	C	1.063541	0.779179	0.506144
C40	C	1.563541	1.279179	1.006144
C41	C	1.063589	0.895956	0.506169
C42	C	1.563589	1.395956	1.006169
C43	C	1.063641	0.506111	0.780201
C44	C	1.563641	1.006111	1.280201
C45	C	1.063665	0.506068	0.896978
C46	C	1.563665	1.006068	1.396978
C47	C	0.525547	0.439120	0.573483
C48	C	1.025547	0.939120	1.073483
C49	C	0.602406	0.439103	0.573479
C50	C	1.102406	0.939103	1.073479
C51	C	0.602366	0.573338	0.438876
C52	C	1.102366	1.073338	0.938876
C53	C	0.525509	0.573359	0.438885
C54	C	1.025509	1.073359	0.938885
C55	C	0.487101	0.506244	0.506187
C56	C	0.987101	1.006244	1.006187
C57	C	0.640818	0.506206	0.506174
C58	C	1.140818	1.006206	1.006174
C59	C	0.724151	0.506188	0.506170
C60	C	1.224151	1.006188	1.006170
C61	C	0.403762	0.506264	0.506193
C62	C	0.903762	1.006264	1.006193
C63	C	1.255539	0.506259	0.506189
C64	C	1.755539	1.006259	1.006189
C65	C	1.337338	0.506279	0.506198
C66	C	1.837338	1.006279	1.006198
C67	C	1.063651	0.232179	0.506215
C68	C	1.563651	0.732179	1.006215
C69	C	1.063679	0.115402	0.506235
C70	C	1.563679	0.615402	1.006235
C71	C	1.110698	0.950819	0.439054
C72	C	1.610698	1.450819	0.939054
C73	C	1.110746	1.060543	0.439089
C74	C	1.610746	1.560543	0.939089
C75	C	1.016568	1.060531	0.573357
C76	C	1.516568	1.560531	1.073357
C77	C	1.016525	0.950809	0.573326
C78	C	1.516525	1.450809	1.073326
C79	C	1.063574	0.506237	0.233200
C80	C	1.563574	1.006237	0.733200
C81	C	1.063693	0.505984	0.116424
C82	C	1.563693	1.005984	0.616424
C83	C	1.110753	0.438873	0.951858
C84	C	1.610753	0.938873	1.451858
C85	C	1.110766	0.438827	1.061582
C86	C	1.610766	0.938827	1.561582
C87	C	1.016599	0.573182	1.061536
C88	C	1.516599	1.073182	1.561536
C89	C	1.016583	0.573221	0.951814
C90	C	1.516583	1.073221	1.451814
H91	H	0.494278	0.384471	0.628284
H92	H	0.994278	0.884471	1.128284
H93	H	1.149022	0.906161	0.384372
H94	H	1.649022	1.406161	0.884372
O95	O	0.970865	0.897461	0.638637
O96	O	1.470865	1.397461	1.138637
C97	C	1.012718	0.833876	0.706508
C98	C	1.512718	1.333876	1.206508
H99	H	1.070689	0.866881	0.713078
H100	H	1.570689	1.366881	1.213078
H101	H	0.986073	0.832588	0.787329
H102	H	1.486073	1.332588	1.287329
H103	H	1.015235	0.750745	0.674002
H104	H	1.515235	1.250745	1.174002
H105	H	1.149088	0.384189	0.907214
H106	H	1.649088	0.884189	1.407214
H107	H	0.978268	0.627858	1.106197
H108	H	1.478268	1.127858	1.606197
O109	O	0.970816	0.638600	0.898659
O110	O	1.470816	1.138600	1.398659
C111	C	0.929256	0.697851	0.970584
C112	C	1.429256	1.197851	1.470584
H113	H	0.959408	0.701474	1.048805
H114	H	1.459408	1.201474	1.548805
H115	H	0.921381	0.780636	0.938860
H116	H	1.421381	1.280636	1.438860
H117	H	0.873375	0.659358	0.982246
H118	H	1.373375	1.159358	1.482246
O119	O	1.156628	1.113689	0.373945
O120	O	1.656628	1.613689	0.873945
C121	C	1.229944	1.086751	0.397037
C122	C	1.729944	1.586751	0.897037
H123	H	1.231387	1.007061	0.437426
H124	H	1.731387	1.507061	0.937426
H125	H	1.262979	1.082979	0.321264
H126	H	1.762979	1.582979	0.821264
H127	H	1.254751	1.148430	0.451091
H128	H	1.754751	1.648430	0.951091
O129	O	0.639638	0.373797	0.638882
O130	O	1.139638	0.873797	1.138882
C131	C	0.589255	0.314590	0.698302
C132	C	1.089255	0.814590	1.198302
H133	H	0.534456	0.310920	0.655277
H134	H	1.034456	0.810920	1.155277
H135	H	0.611464	0.231819	0.709643
H136	H	1.111464	0.731819	1.209643
H137	H	0.581103	0.353152	0.778033
H138	H	1.081103	0.853152	1.278033
H139	H	0.633647	0.627978	0.384079
H140	H	1.133647	1.127978	0.884079
H141	H	0.978249	1.105206	0.628033
H142	H	1.478249	1.605206	1.128033
H143	H	0.494205	0.628026	0.384084
H144	H	0.994205	1.128026	0.884084
H145	H	1.149109	0.384108	1.106261
H146	H	1.649109	0.884108	1.606261
