data_functionalizedCrystal
_audit_creation_method	'MofGen! by Chris Wilmer'
_symmetry_space_group_name_H-M	'P1'
_symmetry_Int_Tables_number	1
_symmetry_cell_setting	triclinic
loop_
_symmetry_equiv_pos_as_xyz
  x,y,z
_cell_length_a	15.944551
_cell_length_b	16.992695
_cell_length_c	16.053802
_cell_angle_alpha	87.258926
_cell_angle_beta	92.576940
_cell_angle_gamma	87.083481
loop_
_atom_site_label
_atom_site_type_symbol
_atom_site_fract_x
_atom_site_fract_y
_atom_site_fract_z
O1	O	-1.124624	-0.097830	-0.069342
O2	O	-0.624624	0.402170	0.430658
O3	O	-0.880912	-0.110297	-0.069363
O4	O	-0.380912	0.389703	0.430637
O5	O	-1.001791	0.010079	-0.069346
O6	O	-0.501791	0.510079	0.430654
O7	O	-1.003745	-0.218206	-0.069359
O8	O	-0.503745	0.281794	0.430641
O9	O	-0.995135	0.003480	0.069512
O10	O	-0.495135	0.503480	0.569512
O11	O	-0.874256	-0.116896	0.069495
O12	O	-0.374256	0.383104	0.569495
O13	O	-1.117969	-0.104429	0.069516
O14	O	-0.617969	0.395571	0.569516
Zn15	Zn	-0.995056	-0.111710	0.091552
Zn16	Zn	-0.495056	0.388290	0.591552
Zn17	Zn	-1.003825	-0.103016	-0.091399
Zn18	Zn	-0.503825	0.396984	0.408601
O19	O	-0.997090	-0.224805	0.069499
O20	O	-0.497090	0.275195	0.569499
C21	C	-0.846256	-0.113079	0.000063
C22	C	-0.346256	0.386921	0.500063
C23	C	-0.752906	-0.111527	0.000055
C24	C	-0.252906	0.388473	0.500055
C25	C	-0.995949	0.035992	0.000083
C26	C	-0.495949	0.535992	0.500083
C27	C	-0.988449	0.123037	0.000082
C28	C	-0.488449	0.623037	0.500082
C29	C	-1.152625	-0.101647	0.000087
C30	C	-0.652625	0.398353	0.500087
C31	C	-1.245975	-0.103199	0.000090
C32	C	-0.745975	0.396801	0.500090
C33	C	-0.532795	-0.033203	0.000076
C34	C	-0.032795	0.466797	0.500076
C35	C	-0.477496	-0.066321	-0.068390
C36	C	0.022504	0.433679	0.431610
C37	C	-0.581991	-0.108720	0.000065
C38	C	-0.081991	0.391280	0.500065
C39	C	-0.470958	-0.072845	0.068513
C40	C	0.029042	0.427155	0.568513
C41	C	-0.416896	-0.106003	0.000079
C42	C	0.083104	0.393997	0.500079
C43	C	-0.527924	-0.141855	-0.068457
C44	C	-0.027924	0.358145	0.431543
C45	C	-0.521389	-0.148371	0.068507
C46	C	-0.021389	0.351629	0.568507
C47	C	-0.466111	-0.181543	0.000024
C48	C	0.033889	0.318457	0.500024
C49	C	-0.677099	-0.110283	0.000057
C50	C	-0.177099	0.389717	0.500057
C51	C	-0.321790	-0.104446	0.000081
C52	C	0.178210	0.395554	0.500081
C53	C	-1.002931	-0.250718	0.000068
C54	C	-0.502931	0.249282	0.500068
C55	C	-1.010432	-0.337762	0.000064
C56	C	-0.510432	0.162238	0.500064
N57	N	-0.989078	-0.117643	0.216411
N58	N	-0.489078	0.382357	0.716411
C59	C	-1.060814	0.173273	0.000089
C60	C	-0.560814	0.673273	0.500089
C61	C	-1.053762	0.255060	0.000080
C62	C	-0.553762	0.755060	0.500080
C63	C	-0.974345	0.286610	0.000071
C64	C	-0.474345	0.786610	0.500071
C65	C	-0.901975	0.236367	0.000061
C66	C	-0.401975	0.736367	0.500061
C67	C	-0.909028	0.154581	0.000064
C68	C	-0.409028	0.654581	0.500064
C69	C	-0.945114	0.530210	0.000057
C70	C	-0.445114	1.030210	0.500057
C71	C	-0.938067	0.612001	0.000057
C72	C	-0.438067	1.112001	0.500057
C73	C	-1.089855	0.630689	0.000074
C74	C	-0.589855	1.130689	0.500074
C75	C	-1.096901	0.548901	0.000082
C76	C	-0.596901	1.048901	0.500082
C77	C	-1.024531	0.498666	0.000068
C78	C	-0.524531	0.998666	0.500068
N79	N	-0.967135	0.370209	0.000065
N80	N	-0.467135	0.870209	0.500065
N81	N	-1.031742	0.415068	0.000068
N82	N	-0.531742	0.915068	0.500068
N83	N	-1.009809	-0.097077	-0.216259
N84	N	-0.509809	0.402923	0.283741
C85	C	-1.040533	-0.066441	0.260113
C86	C	-0.540533	0.433559	0.760113
C87	C	-1.036359	-0.070598	0.347519
C88	C	-0.536359	0.429402	0.847519
C89	C	-0.980734	-0.125962	0.391222
C90	C	-0.480734	0.374038	0.891222
C91	C	-0.929273	-0.177166	0.347515
C92	C	-0.429273	0.322834	0.847515
C93	C	-0.933443	-0.173004	0.260110
C94	C	-0.433443	0.326996	0.760110
C95	C	-0.962518	-0.144119	0.652629
C96	C	-0.462518	0.355881	1.152629
C97	C	-0.958354	-0.148279	0.740040
C98	C	-0.458354	0.351721	1.240040
C99	C	-1.065439	-0.041710	0.740038
C100	C	-0.565439	0.458290	1.240038
C101	C	-1.069608	-0.037556	0.652632
C102	C	-0.569608	0.462444	1.152632
C103	C	-1.018144	-0.088757	0.608932
C104	C	-0.518144	0.411243	1.108932
N105	N	-0.976469	-0.130215	0.480565
N106	N	-0.476469	0.369785	0.980565
N107	N	-1.022406	-0.084500	0.519590
N108	N	-0.522406	0.415500	1.019590
H109	H	-0.561929	0.029473	-0.000005
H110	H	-0.061929	0.529473	0.499995
H111	H	-0.445954	-0.043641	0.126394
H112	H	0.054046	0.456359	0.626394
H113	H	-0.837312	0.262061	0.000048
H114	H	-0.337312	0.762061	0.500048
Cl115	Cl	-0.897825	-0.208488	0.597698
Cl116	Cl	-0.397825	0.291512	1.097698
H117	H	-1.107338	-0.000023	0.775626
H118	H	-0.607338	0.499977	1.275626
Cl119	Cl	-1.196745	0.509247	0.000067
Cl120	Cl	-0.696745	1.009247	0.500067
Cl121	Cl	-0.566371	-0.186880	-0.157924
Cl122	Cl	-0.066371	0.313120	0.342076
Cl123	Cl	-1.110470	0.003160	0.205180
Cl124	Cl	-0.610470	0.503160	0.705180
H125	H	-0.883977	-0.222242	0.383103
H126	H	-0.383977	0.277758	0.883103
H127	H	-0.850101	0.113679	0.000058
H128	H	-0.350101	0.613679	0.500058
H129	H	-0.891541	-0.214697	0.224530
H130	H	-0.391541	0.285303	0.724530
H131	H	-0.458018	-0.031630	-0.126270
H132	H	0.041982	0.468370	0.373730
Cl133	Cl	-1.180828	0.693846	0.000089
Cl134	Cl	-0.680828	1.193846	0.500089
H135	H	-0.873392	0.637684	0.000062
H136	H	-0.373392	1.137684	0.500062
Cl137	Cl	-0.888419	-0.217887	0.794976
Cl138	Cl	-0.388419	0.282113	1.294976
H139	H	-0.437162	-0.244278	-0.000018
H140	H	0.062838	0.255722	0.499982
H141	H	-1.125484	0.147592	0.000102
H142	H	-0.625484	0.647592	0.500102
Cl143	Cl	-1.101046	-0.006228	0.402459
Cl144	Cl	-0.601046	0.493772	0.902459
Cl145	Cl	-1.144740	0.318212	0.000092
Cl146	Cl	-0.644740	0.818212	0.500092
Cl147	Cl	-0.854134	0.467067	0.000037
Cl148	Cl	-0.354134	0.967067	0.500037
Cl149	Cl	-0.551496	-0.201891	0.157874
Cl150	Cl	-0.051496	0.298109	0.657874
H151	H	-1.114903	0.007526	0.617050
H152	H	-0.614903	0.507526	1.117050
