data_functionalizedCrystal
_audit_creation_method	'MofGen! by Chris Wilmer'
_symmetry_space_group_name_H-M	'P1'
_symmetry_Int_Tables_number	1
_symmetry_cell_setting	triclinic
loop_
_symmetry_equiv_pos_as_xyz
  x,y,z
_cell_length_a	12.811445
_cell_length_b	10.540510
_cell_length_c	11.892095
_cell_angle_alpha	93.930478
_cell_angle_beta	80.666316
_cell_angle_gamma	84.278624
loop_
_atom_site_label
_atom_site_type_symbol
_atom_site_fract_x
_atom_site_fract_y
_atom_site_fract_z
O1	O	1.410824	0.150512	-0.238616
O2	O	1.103146	0.171806	-0.207079
O3	O	1.264021	-0.023651	-0.223568
O4	O	1.249949	0.345969	-0.222127
O5	O	1.250607	-0.007380	-0.034186
O6	O	1.089733	0.188078	-0.017696
O7	O	1.397411	0.166784	-0.049234
Zn8	Zn	1.241442	0.180014	-0.003397
Zn9	Zn	1.259115	0.158575	-0.252916
O10	O	1.236536	0.362241	-0.032744
C11	C	1.057042	0.179246	-0.108349
C12	C	0.939650	0.177157	-0.096317
C13	C	0.733677	0.155515	-0.280192
C14	C	0.623377	0.153552	-0.268891
C15	C	0.608746	0.171279	-0.062415
C16	C	0.719046	0.173241	-0.073716
C17	C	0.781508	0.165357	-0.182608
C18	C	0.891812	0.167310	-0.193908
C19	C	0.877178	0.185046	0.012567
C20	C	0.766877	0.183083	0.023868
C21	C	1.256266	-0.062804	-0.128772
C22	C	1.253129	-0.203709	-0.128457
C23	C	1.364857	-0.422740	-0.139479
C24	C	1.368235	-0.276229	-0.140255
C25	C	1.201866	-0.256910	-0.230562
C26	C	1.199340	-0.403642	-0.230387
C27	C	1.181689	-0.384912	-0.014778
C28	C	1.187048	-0.238527	-0.013914
C29	C	1.443515	0.159344	-0.147966
C30	C	1.560908	0.161432	-0.160006
C31	C	1.244291	0.401394	-0.127543
C32	C	1.247429	0.542298	-0.127865
N33	N	1.229388	0.194645	0.166893
N34	N	1.271177	0.143935	-0.423207
C35	C	1.355051	0.042055	0.390660
C36	C	1.346634	0.052291	0.509865
C37	C	1.204131	0.225346	0.524510
C38	C	1.212549	0.215110	0.405305
C39	C	1.288012	0.123463	0.338384
C40	C	1.296434	0.113234	0.219177
C41	C	1.153927	0.286282	0.233824
C42	C	1.145510	0.296518	0.353029
H43	H	0.584437	0.145541	-0.348354
N44	N	1.090001	-0.192978	-0.224410
H45	H	1.038439	-0.259680	-0.218067
H46	H	1.071524	-0.128752	-0.155211
N47	N	1.081611	0.374101	0.177453
H48	H	1.125926	0.425942	0.123805
H49	H	1.037937	0.321407	0.132901
H50	H	1.142683	0.299954	0.579012
N51	N	1.431145	-0.489983	-0.247691
H52	H	1.460326	-0.424396	-0.298627
H53	H	1.492027	-0.547617	-0.227638
H54	H	1.084066	0.371132	0.407529
N55	N	1.418947	-0.035501	0.566251
H56	H	1.468031	-0.095105	0.505764
H57	H	1.462555	0.017219	0.610864
N58	N	0.541370	0.179801	0.055026
H59	H	0.464069	0.178836	0.047401
H60	H	0.564468	0.104399	0.096734
H61	H	0.916133	0.193058	0.092027
H62	H	0.942667	0.160890	-0.282573
H63	H	1.224256	-0.203659	0.061695
N64	N	1.085769	-0.433026	-0.225216
H65	H	1.057451	-0.401650	-0.294027
H66	H	1.083331	-0.528488	-0.225026
N67	N	1.260280	-0.466891	-0.342924
H68	H	1.259256	-0.562648	-0.343936
H69	H	1.226030	-0.434120	-0.407645
H70	H	0.716006	0.189507	0.112525
N71	N	0.801057	0.146992	-0.397631
H72	H	0.754019	0.140452	-0.457737
H73	H	0.839159	0.226088	-0.406002
N74	N	1.067151	-0.412534	-0.002062
H75	H	1.025305	-0.365520	0.070734
H76	H	1.035703	-0.383040	-0.069683
H77	H	1.357883	0.038614	0.164690
H78	H	1.408847	-0.240890	-0.067460
N79	N	1.416990	-0.470328	-0.042835
H80	H	1.364999	-0.515019	0.009414
H81	H	1.481922	-0.532291	-0.075188
N82	N	1.436939	-0.248335	-0.249421
H83	H	1.406009	-0.281096	-0.317270
H84	H	1.439409	-0.152931	-0.250288
H85	H	1.248486	-0.233559	-0.315237
N86	N	1.222179	-0.432480	0.088871
H87	H	1.215376	-0.526955	0.091083
H88	H	1.299389	-0.417776	0.084438
N89	N	1.075104	-0.171231	0.006134
H90	H	1.065597	-0.116976	-0.059041
H91	H	1.022648	-0.236914	0.010583
H92	H	1.416504	-0.032559	0.336172
