data_functionalizedCrystal
_audit_creation_method	'MofGen! by Chris Wilmer'
_symmetry_space_group_name_H-M	'P1'
_symmetry_Int_Tables_number	1
_symmetry_cell_setting	triclinic
loop_
_symmetry_equiv_pos_as_xyz
  x,y,z
_cell_length_a	16.120530
_cell_length_b	25.639239
_cell_length_c	16.120297
_cell_angle_alpha	92.868703
_cell_angle_beta	90.128140
_cell_angle_gamma	87.134054
loop_
_atom_site_label
_atom_site_type_symbol
_atom_site_fract_x
_atom_site_fract_y
_atom_site_fract_z
Zn1	Zn	1.247330	-0.264883	-0.534536
Zn2	Zn	1.580663	0.068450	-0.201203
Zn3	Zn	1.913996	0.401784	0.132131
Zn4	Zn	1.254246	-0.348114	-0.395469
Zn5	Zn	1.587579	-0.014781	-0.062136
Zn6	Zn	1.920913	0.318552	0.271197
Zn7	Zn	1.115324	-0.256048	-0.388455
Zn8	Zn	1.448657	0.077285	-0.055122
Zn9	Zn	1.781990	0.410619	0.278212
Zn10	Zn	1.108202	-0.347633	-0.527439
Zn11	Zn	1.441536	-0.014300	-0.194105
Zn12	Zn	1.774869	0.319034	0.139228
O13	O	1.181275	-0.304170	-0.461475
O14	O	1.514609	0.029164	-0.128141
O15	O	1.847942	0.362497	0.205192
O16	O	1.364612	-0.279823	-0.521994
O17	O	1.697945	0.053511	-0.188661
O18	O	2.031279	0.386844	0.144672
O19	O	1.241692	-0.332406	-0.278174
O20	O	1.575026	0.000928	0.055160
O21	O	1.908359	0.334261	0.388493
O22	O	1.132921	-0.184058	-0.407868
O23	O	1.466254	0.149275	-0.074534
O24	O	1.799587	0.482608	0.258799
O25	O	1.369693	-0.340973	-0.419823
O26	O	1.703026	-0.007639	-0.086489
O27	O	2.036360	0.325694	0.246844
O28	O	1.229905	-0.190549	-0.515193
O29	O	1.563238	0.142784	-0.181859
O30	O	1.896572	0.476117	0.151474
O31	O	1.139627	-0.264765	-0.273020
O32	O	1.472960	0.068569	0.060313
O33	O	1.806294	0.401902	0.393646
O34	O	0.998015	-0.264298	-0.400986
O35	O	1.331348	0.069035	-0.067652
O36	O	1.664681	0.402369	0.265681
O37	O	1.120783	-0.340152	-0.644745
O38	O	1.454117	-0.006819	-0.311412
O39	O	1.787450	0.326515	0.021922
O40	O	0.992782	-0.331585	-0.503096
O41	O	1.326116	0.001748	-0.169763
O42	O	1.659449	0.335082	0.163570
O43	O	1.223000	-0.279356	-0.649960
O44	O	1.556333	0.053978	-0.316626
O45	O	1.889666	0.387311	0.016707
O46	O	1.234787	-0.421212	-0.412941
O47	O	1.568120	-0.087879	-0.079607
O48	O	1.901454	0.245455	0.253726
O49	O	1.127489	-0.420858	-0.509898
O50	O	1.460823	-0.087525	-0.176565
O51	O	1.794156	0.245808	0.156769
C52	C	0.965226	-0.296931	-0.450510
C53	C	1.298560	0.036402	-0.117177
C54	C	1.631893	0.369736	0.216157
C55	C	0.872799	-0.293847	-0.445839
C56	C	1.206132	0.039486	-0.112506
C57	C	1.539465	0.372819	0.220827
C58	C	1.181138	-0.440006	-0.461430
C59	C	1.514471	-0.106673	-0.128096
C60	C	1.847804	0.226660	0.205237
C61	C	1.181153	-0.498121	-0.461442
C62	C	1.514487	-0.164788	-0.128109
C63	C	1.847820	0.168545	0.205225
C64	C	0.703571	-0.288206	-0.437318
C65	C	1.036905	0.045128	-0.103985
C66	C	1.370238	0.378461	0.229348
C67	C	0.659817	-0.320174	-0.485692
C68	C	0.993150	0.013160	-0.152358
C69	C	1.326484	0.346493	0.180975
C70	C	0.565653	-0.317035	-0.480951
C71	C	0.898986	0.016299	-0.147617
C72	C	1.232320	0.349632	0.185716
C73	C	0.797744	-0.291344	-0.442058
C74	C	1.131077	0.041989	-0.108725
C75	C	1.464411	0.375323	0.224608
C76	C	1.237279	-0.858668	-0.411087
C77	C	1.570613	-0.525335	-0.077753
C78	C	1.903946	-0.192002	0.255580
C79	C	1.237311	-0.913274	-0.411099
C80	C	1.570644	-0.579941	-0.077766
C81	C	1.903978	-0.246607	0.255567
O82	O	1.284889	-0.941661	-0.368236
O83	O	1.618222	-0.608328	-0.034903
O84	O	1.951555	-0.274994	0.298430
N85	N	1.181419	-0.940415	-0.461537
N86	N	1.514752	-0.607082	-0.128204
N87	N	1.848085	-0.273748	0.205129
C88	C	1.125497	-0.912948	-0.511972
C89	C	1.458830	-0.579615	-0.178638
C90	C	1.792164	-0.246281	0.154695
O91	O	1.077960	-0.941048	-0.554875
O92	O	1.411293	-0.607715	-0.221541
O93	O	1.744626	-0.274381	0.111792
C94	C	1.125470	-0.858344	-0.511963
C95	C	1.458803	-0.525010	-0.178629
C96	C	1.792137	-0.191677	0.154704
C97	C	1.181360	-0.831205	-0.461515
C98	C	1.514694	-0.497872	-0.128182
C99	C	1.848027	-0.164538	0.205151
C100	C	1.293166	-0.831529	-0.360644
C101	C	1.626499	-0.498196	-0.027311
C102	C	1.959832	-0.164863	0.306023
C103	C	1.293133	-0.776927	-0.360630
C104	C	1.626466	-0.443594	-0.027297
C105	C	1.959799	-0.110261	0.306036
C106	C	1.237214	-0.749464	-0.411059
C107	C	1.570547	-0.416131	-0.077726
C108	C	1.903880	-0.082797	0.255607
C109	C	1.181327	-0.776603	-0.461502
C110	C	1.514661	-0.443270	-0.128168
C111	C	1.847994	-0.109936	0.205165
C112	C	1.069553	-0.830878	-0.562401
C113	C	1.402886	-0.497545	-0.229068
C114	C	1.736219	-0.164211	0.104265
C115	C	1.069531	-0.776270	-0.562388
C116	C	1.402864	-0.442937	-0.229055
C117	C	1.736198	-0.109603	0.104278
C118	C	1.125421	-0.749131	-0.511941
C119	C	1.458754	-0.415798	-0.178608
C120	C	1.792088	-0.082464	0.154726
C121	C	1.125375	-0.694538	-0.511917
C122	C	1.458708	-0.361204	-0.178584
C123	C	1.792042	-0.027871	0.154750
N124	N	1.181267	-0.667396	-0.461479
N125	N	1.514601	-0.334063	-0.128146
N126	N	1.847934	-0.000730	0.205188
C127	C	1.237187	-0.694860	-0.411050
C128	C	1.570520	-0.361526	-0.077717
C129	C	1.903853	-0.028193	0.255616
C130	C	1.125559	-1.027621	-0.511988
C131	C	1.458892	-0.694288	-0.178654
C132	C	1.792226	-0.360955	0.154679
C133	C	1.125581	-1.082224	-0.511993
C134	C	1.458915	-0.748891	-0.178660
C135	C	1.792248	-0.415558	0.154674
C136	C	1.237397	-1.082546	-0.411121
C137	C	1.570730	-0.749213	-0.077788
C138	C	1.904063	-0.415880	0.255545
C139	C	1.237370	-1.027942	-0.411113
C140	C	1.570703	-0.694609	-0.077779
C141	C	1.904036	-0.361275	0.255554
C142	C	1.181451	-1.000480	-0.461550
C143	C	1.514785	-0.667147	-0.128217
C144	C	1.848118	-0.333813	0.205117
C145	C	1.237113	-0.580191	-0.411025
C146	C	1.570446	-0.246858	-0.077691
C147	C	1.903779	0.086475	0.255642
C148	C	1.237072	-0.525584	-0.411013
C149	C	1.570406	-0.192251	-0.077680
C150	C	1.903739	0.141082	0.255654
C151	C	1.125260	-0.525267	-0.511887
C152	C	1.458594	-0.191934	-0.178554
C153	C	1.791927	0.141399	0.154779
C154	C	1.125297	-0.579869	-0.511896
C155	C	1.458631	-0.246536	-0.178563
C156	C	1.791964	0.086797	0.154770
C157	C	1.181230	-0.607330	-0.461463
C158	C	1.514564	-0.273997	-0.128129
C159	C	1.847897	0.059336	0.205204
O160	O	1.077824	-0.666116	-0.554760
O161	O	1.411157	-0.332783	-0.221427
O162	O	1.744491	0.000550	0.111906
O163	O	1.284723	-0.666754	-0.368163
O164	O	1.618056	-0.333420	-0.034829
O165	O	1.951390	-0.000087	0.298504
C166	C	1.398168	-0.311437	-0.472483
C167	C	1.731501	0.021896	-0.139149
C168	C	2.064835	0.355230	0.194184
C169	C	1.490595	-0.314534	-0.477173
C170	C	1.823928	0.018800	-0.143840
C171	C	2.157262	0.352133	0.189493
C172	C	1.170326	-0.310686	-0.678368
C173	C	1.503659	0.022648	-0.345035
C174	C	1.836992	0.355981	-0.011701
C175	C	1.165659	-0.313462	-0.770795
C176	C	1.498993	0.019871	-0.437462
C177	C	1.832326	0.353204	-0.104129
C178	C	1.181436	-0.167804	-0.461539
C179	C	1.514769	0.165530	-0.128206
C180	C	1.848102	0.498863	0.205127
C181	C	1.181504	-0.109693	-0.461567
C182	C	1.514837	0.223641	-0.128234
C183	C	1.848171	0.556974	0.205100
C184	C	1.157110	-0.318520	-0.940019
C185	C	1.490443	0.014814	-0.606686
C186	C	1.823776	0.348147	-0.273353
C187	C	1.205605	-0.289668	-0.983790
C188	C	1.538939	0.043665	-0.650457
C189	C	1.872272	0.376998	-0.317124
C190	C	1.200848	-0.292482	-1.077952
C191	C	1.534181	0.040851	-0.744619
C192	C	1.867515	0.374184	-0.411286
C193	C	1.161866	-0.315706	-0.845849
C194	C	1.495199	0.017627	-0.512515
C195	C	1.828532	0.350960	-0.179182
C196	C	1.192231	-0.297643	-0.245427
C197	C	1.525564	0.035691	0.087906
C198	C	1.858897	0.369024	0.421239
C199	C	1.197058	-0.294724	-0.153009
C200	C	1.530391	0.038609	0.180324
C201	C	1.863725	0.371943	0.513658
H202	H	0.693077	-0.349899	-0.530667
H203	H	1.026410	-0.016566	-0.197334
H204	H	1.359743	0.316767	0.136000
F205	F	1.296643	-0.609410	-0.357347
F206	F	1.629976	-0.276076	-0.024014
F207	F	1.963309	0.057257	0.309319
F208	F	1.066086	-1.111101	-0.565676
F209	F	1.399420	-0.777768	-0.232343
F210	F	1.732753	-0.444434	0.100991
H211	H	1.112023	-0.345331	-0.973262
H212	H	1.445356	-0.011998	-0.639928
H213	H	1.778689	0.321335	-0.306595
F214	F	0.660101	-0.249354	-0.378537
F215	F	0.993435	0.083979	-0.045203
F216	F	1.326768	0.417313	0.288130
H217	H	1.080017	-1.005264	-0.553057
H218	H	1.413350	-0.671931	-0.219724
H219	H	1.746683	-0.338597	0.113609
F220	F	1.352629	-0.748052	-0.306947
F221	F	1.685962	-0.414718	0.026386
F222	F	2.019295	-0.081385	0.359720
H223	H	1.338706	-0.853884	-0.319579
H224	H	1.672040	-0.520551	0.013754
H225	H	2.005373	-0.187218	0.347088
F226	F	1.296910	-1.111784	-0.357449
F227	F	1.630244	-0.778451	-0.024116
F228	F	1.963577	-0.445118	0.309218
F229	F	1.296561	-0.496704	-0.357317
F230	F	1.629894	-0.163371	-0.023984
F231	F	1.963227	0.169962	0.309349
H232	H	1.024037	-0.852965	-0.603477
H233	H	1.357370	-0.519631	-0.270143
H234	H	1.690704	-0.186298	0.063190
H235	H	1.282881	-1.005849	-0.370035
H236	H	1.616214	-0.672516	-0.036701
H237	H	1.949547	-0.339182	0.296632
H238	H	1.023996	-0.753913	-0.603463
H239	H	1.357329	-0.420580	-0.270130
H240	H	1.690663	-0.087246	0.063203
F241	F	1.264558	-0.254630	-0.940340
F242	F	1.597891	0.078703	-0.607007
F243	F	1.931224	0.412036	-0.273674
F244	F	1.065799	-0.608753	-0.565571
F245	F	1.399132	-0.275419	-0.232238
F246	F	1.732465	0.057914	0.101095
H247	H	1.079729	-0.502898	-0.552943
H248	H	1.413062	-0.169565	-0.219610
H249	H	1.746396	0.163768	0.113723
