data_functionalizedCrystal
_audit_creation_method	'MofGen! by Chris Wilmer'
_symmetry_space_group_name_H-M	'P1'
_symmetry_Int_Tables_number	1
_symmetry_cell_setting	triclinic
loop_
_symmetry_equiv_pos_as_xyz
  x,y,z
_cell_length_a	18.215407
_cell_length_b	16.625546
_cell_length_c	18.215407
_cell_angle_alpha	90.013442
_cell_angle_beta	90.010236
_cell_angle_gamma	90.022916
loop_
_atom_site_label
_atom_site_type_symbol
_atom_site_fract_x
_atom_site_fract_y
_atom_site_fract_z
Zn1	Zn	1.125015	-0.321125	0.416109
Zn2	Zn	1.625015	0.178875	0.916109
Zn3	Zn	1.124949	-0.455929	0.293040
Zn4	Zn	1.624949	0.044071	0.793040
Zn5	Zn	1.001968	-0.321115	0.293057
Zn6	Zn	1.501968	0.178885	0.793057
Zn7	Zn	1.001918	-0.455921	0.416065
Zn8	Zn	1.501918	0.044079	0.916065
O9	O	1.063462	-0.388522	0.354568
O10	O	1.563462	0.111478	0.854568
O11	O	1.227990	-0.339015	0.399796
O12	O	1.727990	0.160985	0.899796
O13	O	1.108628	-0.438044	0.190058
O14	O	1.608628	0.061956	0.690058
O15	O	1.018338	-0.208284	0.309405
O16	O	1.518338	0.291716	0.809405
O17	O	1.227942	-0.438055	0.309377
O18	O	1.727942	0.061945	0.809377
O19	O	1.108740	-0.208292	0.399811
O20	O	1.608740	0.291708	0.899811
O21	O	1.018275	-0.338997	0.190070
O22	O	1.518275	0.161003	0.690070
O23	O	0.898977	-0.338989	0.309363
O24	O	1.398977	0.161011	0.809363
O25	O	1.018254	-0.438041	0.519055
O26	O	1.518254	0.061959	1.019055
O27	O	0.898941	-0.438031	0.399736
O28	O	1.398941	0.061969	0.899736
O29	O	1.108692	-0.339008	0.519088
O30	O	1.608692	0.160992	1.019088
O31	O	1.108580	-0.568760	0.309335
O32	O	1.608580	-0.068760	0.809335
O33	O	1.018190	-0.568754	0.399721
O34	O	1.518190	-0.068754	0.899721
C35	C	0.872256	-0.388509	0.354547
C36	C	1.372256	0.111491	0.854547
C37	C	0.790457	-0.388522	0.354555
C38	C	1.290457	0.111478	0.854555
C39	C	0.602264	-0.440174	0.401554
C40	C	1.102264	0.059826	0.901554
C41	C	0.525405	-0.440177	0.401563
C42	C	1.025405	0.059823	0.901563
C43	C	0.525413	-0.336885	0.307598
C44	C	1.025413	0.163115	0.807598
C45	C	0.602270	-0.336879	0.307593
C46	C	1.102270	0.163121	0.807593
C47	C	0.640694	-0.388528	0.354570
C48	C	1.140694	0.111472	0.854570
C49	C	0.486978	-0.388537	0.354584
C50	C	0.986978	0.111463	0.854584
C51	C	0.403644	-0.388539	0.354594
C52	C	0.903644	0.111461	0.854594
C53	C	0.724033	-0.388525	0.354562
C54	C	1.224033	0.111475	0.854562
C55	C	1.063393	-0.598013	0.354537
C56	C	1.563393	-0.098013	0.854537
C57	C	1.063430	-0.687634	0.354549
C58	C	1.563430	-0.187634	0.854549
C59	C	1.063559	-1.015810	0.354625
C60	C	1.563559	-0.515810	0.854625
C61	C	1.063521	-0.924502	0.354606
C62	C	1.563521	-0.424502	0.854606
C63	C	1.063494	-0.851725	0.354587
C64	C	1.563494	-0.351725	0.854587
C65	C	1.063457	-0.760411	0.354568
C66	C	1.563457	-0.260411	0.854568
C67	C	1.255415	-0.388537	0.354590
C68	C	1.755415	0.111463	0.854590
C69	C	1.337214	-0.388543	0.354599
C70	C	1.837214	0.111457	0.854599
C71	C	1.063475	-0.388525	0.546521
C72	C	1.563475	0.111475	1.046521
C73	C	1.063480	-0.388526	0.628320
C74	C	1.563480	0.111474	1.128320
C75	C	1.063552	-0.178214	0.354615
C76	C	1.563552	0.321786	0.854615
C77	C	1.063591	-0.088592	0.354635
C78	C	1.563591	0.411408	0.854635
C79	C	1.110557	-0.336967	0.816532
C80	C	1.610557	0.163033	1.316532
C81	C	1.110553	-0.336967	0.893390
C82	C	1.610553	0.163033	1.393390
C83	C	1.016380	-0.440096	0.893346
C84	C	1.516380	0.059904	1.393346
C85	C	1.016381	-0.440091	0.816488
C86	C	1.516381	0.059909	1.316488
C87	C	1.063474	-0.388528	0.778083
C88	C	1.563474	0.111472	1.278083
C89	C	1.063469	-0.388532	0.931799
C90	C	1.563469	0.111468	1.431799
C91	C	1.063464	-0.388532	1.015133
C92	C	1.563464	0.111468	1.515133
C93	C	1.063478	-0.388527	0.694744
C94	C	1.563478	0.111473	1.194744
C95	C	1.063450	-0.388538	1.163362
C96	C	1.563450	0.111462	1.663362
C97	C	1.063462	-0.388535	1.081563
C98	C	1.563462	0.111465	1.581563
H99	H	0.633545	-0.482228	0.439807
H100	H	1.133545	0.017772	0.939807
N101	N	0.483964	-0.281199	0.256921
N102	N	0.983964	0.218801	0.756921
H103	H	0.497349	-0.223602	0.268435
H104	H	0.997349	0.276398	0.768435
H105	H	0.429458	-0.289118	0.264078
H106	H	0.929458	0.210882	0.764078
N107	N	1.161327	-0.281346	0.934861
N108	N	1.661327	0.218654	1.434861
H109	H	1.191156	-0.248680	0.898867
H110	H	1.691156	0.251320	1.398867
H111	H	1.195372	-0.314162	0.966753
H112	H	1.695372	0.185838	1.466753
N113	N	0.483954	-0.495883	0.452235
N114	N	0.983954	0.004117	0.952235
H115	H	0.519960	-0.528601	0.481990
H116	H	1.019960	-0.028601	0.981990
H117	H	0.452048	-0.533146	0.422216
H118	H	0.952048	-0.033146	0.922216
N119	N	1.161351	-0.281358	0.775110
N120	N	1.661351	0.218642	1.275110
H121	H	1.154214	-0.289182	0.720587
H122	H	1.654214	0.210818	1.220587
H123	H	1.213901	-0.293921	0.788559
H124	H	1.713901	0.206079	1.288559
H125	H	0.978034	-0.482078	0.785183
H126	H	1.478034	0.017922	1.285183
N127	N	0.643727	-0.281163	0.256925
N128	N	1.143727	0.218837	0.756925
H129	H	0.607725	-0.248446	0.227165
H130	H	1.107725	0.251554	0.727165
H131	H	0.675603	-0.313917	0.222812
H132	H	1.175603	0.186083	0.722812
N133	N	0.965578	-0.495696	0.934768
N134	N	1.465578	0.004304	1.434768
H135	H	0.972718	-0.487873	0.989291
H136	H	1.472718	0.012127	1.489291
H137	H	0.976997	-0.553286	0.921327
H138	H	1.476997	-0.053286	1.421327
