data_functionalizedCrystal
_audit_creation_method	'MofGen! by Chris Wilmer'
_symmetry_space_group_name_H-M	'P1'
_symmetry_Int_Tables_number	1
_symmetry_cell_setting	triclinic
loop_
_symmetry_equiv_pos_as_xyz
  x,y,z
_cell_length_a	8.559649
_cell_length_b	15.944551
_cell_length_c	7.681481
_cell_angle_alpha	84.256492
_cell_angle_beta	94.913240
_cell_angle_gamma	76.638701
loop_
_atom_site_label
_atom_site_type_symbol
_atom_site_fract_x
_atom_site_fract_y
_atom_site_fract_z
O1	O	2.105021	-0.019570	-0.146399
O2	O	1.639821	0.023810	-0.146411
O3	O	1.885126	-0.120976	-0.146389
O4	O	1.859716	0.125215	-0.146421
O5	O	1.915319	-0.138833	0.146471
O6	O	1.670014	0.005953	0.146450
O7	O	2.135214	-0.037427	0.146461
Zn8	Zn	1.907408	-0.018572	0.192953
Zn9	Zn	1.867627	0.004955	-0.192903
O10	O	1.889909	0.107359	0.146439
C11	C	1.595387	0.018169	0.000018
C12	C	1.418008	0.027954	0.000014
C13	C	1.899168	-0.161130	0.000042
C14	C	1.896006	-0.254172	0.000042
C15	C	1.736394	-0.458726	0.000014
C16	C	1.825398	-0.533331	0.144414
C17	C	1.890284	-0.424528	0.000029
C18	C	1.795667	-0.515712	-0.144323
C19	C	1.884744	-0.589082	0.000008
C20	C	1.979342	-0.497915	0.144548
C21	C	1.949576	-0.480280	-0.144319
C22	C	2.038696	-0.554877	0.000116
C23	C	1.893471	-0.329732	0.000042
C24	C	1.881571	-0.683878	0.000007
C25	C	2.179647	-0.031786	0.000028
C26	C	2.357025	-0.041570	0.000021
C27	C	1.875866	0.147513	0.000005
C28	C	1.879027	0.240556	-0.000008
N29	N	1.934569	-0.034630	0.456290
N30	N	1.840479	0.021005	-0.456240
H31	H	1.440515	-0.108579	0.000021
C32	C	2.064337	-0.111347	0.557877
H33	H	2.120654	-0.144642	0.476693
H34	H	2.014128	-0.146919	0.629817
H35	H	2.138310	-0.089805	0.629775
H36	H	1.334507	0.094969	-0.000004
H37	H	1.608675	-0.417184	0.000155
H38	H	1.772895	-0.556682	0.266489
C39	C	2.211354	-0.610914	0.000322
H40	H	2.217376	-0.639692	-0.102264
H41	H	2.237653	-0.652779	0.102001
H42	H	2.285536	-0.574859	0.001361
C43	C	2.020422	-0.448689	-0.309235
H44	H	1.955021	-0.454243	-0.411739
H45	H	2.127099	-0.482813	-0.310272
H46	H	2.022813	-0.389507	-0.307458
H47	H	1.717971	-0.524143	-0.266411
C48	C	2.084206	-0.486652	0.309655
H49	H	2.085521	-0.427191	0.308688
H50	H	2.191309	-0.520516	0.310084
H51	H	2.040448	-0.505285	0.412064
H52	H	1.744432	0.077792	0.468555
