data_functionalizedCrystal
_audit_creation_method	'MofGen! by Chris Wilmer'
_symmetry_space_group_name_H-M	'P1'
_symmetry_Int_Tables_number	1
_symmetry_cell_setting	triclinic
loop_
_symmetry_equiv_pos_as_xyz
  x,y,z
_cell_length_a	19.188929
_cell_length_b	15.995300
_cell_length_c	17.666332
_cell_angle_alpha	89.992587
_cell_angle_beta	90.026346
_cell_angle_gamma	96.691706
loop_
_atom_site_label
_atom_site_type_symbol
_atom_site_fract_x
_atom_site_fract_y
_atom_site_fract_z
O1	O	-0.089828	1.110684	-0.063013
O2	O	0.410172	1.610684	0.436987
O3	O	-0.100979	0.866863	-0.063013
O4	O	0.399021	1.366863	0.436987
O5	O	0.006235	0.995810	-0.062966
O6	O	0.506235	1.495810	0.437034
O7	O	-0.197042	0.981737	-0.063060
O8	O	0.302958	1.481737	0.436940
O9	O	0.006238	0.995795	0.062930
O10	O	0.506238	1.495795	0.562930
O11	O	-0.100976	0.866848	0.062884
O12	O	0.399024	1.366848	0.562884
O13	O	-0.089826	1.110670	0.062884
O14	O	0.410174	1.610670	0.562884
Cu15	Cu	-0.095401	0.988758	0.074379
Cu16	Cu	0.404599	1.488758	0.574379
Cu17	Cu	-0.095404	0.988775	-0.074509
Cu18	Cu	0.404596	1.488775	0.425491
O19	O	-0.197040	0.981723	0.062837
O20	O	0.302960	1.481723	0.562837
C21	C	-0.100522	0.835662	-0.000064
C22	C	0.399478	1.335662	0.499936
C23	C	-0.099159	0.742714	-0.000062
C24	C	0.400841	1.242714	0.499938
C25	C	-0.096641	0.572540	-0.000066
C26	C	0.403359	1.072540	0.499934
C27	C	-0.172980	0.524795	-0.000100
C28	C	0.327020	1.024795	0.499900
C29	C	-0.171587	0.428112	-0.000387
C30	C	0.328413	0.928112	0.499613
C31	C	-0.094163	0.404992	-0.000070
C32	C	0.405837	0.904992	0.499930
C33	C	-0.056290	0.446272	-0.071804
C34	C	0.443710	0.946272	0.428196
C35	C	-0.058222	0.542899	-0.071863
C36	C	0.441778	1.042899	0.428137
C37	C	-0.057089	0.543165	0.071311
C38	C	0.442911	1.043165	0.571311
C39	C	-0.057096	0.446221	0.072252
C40	C	0.442904	0.946221	0.572252
C41	C	-0.092759	0.310302	-0.000075
C42	C	0.407241	0.810302	0.499925
C43	C	-0.098044	0.667231	-0.000067
C44	C	0.401956	1.167231	0.499933
C45	C	-0.223053	0.982186	-0.000124
C46	C	0.276947	1.482186	0.499876
C47	C	-0.300561	0.983554	-0.000160
C48	C	0.199439	1.483554	0.499840
C49	C	-0.345304	0.907892	-0.000144
C50	C	0.154696	1.407892	0.499856
C51	C	-0.418130	0.909177	-0.000127
C52	C	0.081870	1.409177	0.499873
C53	C	-0.446211	0.986129	-0.000110
C54	C	0.053789	1.486129	0.499890
C55	C	-0.401459	1.061800	-0.000130
C56	C	0.098541	1.561800	0.499870
C57	C	-0.328634	1.060513	-0.000154
C58	C	0.171366	1.560513	0.499846
N59	N	-0.554320	1.044943	0.042783
N60	N	-0.054320	1.544943	0.542783
N61	N	-0.623501	1.046161	0.042808
N62	N	-0.123501	1.546161	0.542808
C63	C	-0.665629	0.990012	-0.000037
C64	C	-0.165629	1.490012	0.499963
N65	N	-0.635964	0.932586	-0.042900
N66	N	-0.135964	1.432586	0.457100
N67	N	-0.566776	0.931366	-0.042921
N68	N	-0.066776	1.431366	0.457079
C69	C	-0.525177	0.987533	-0.000084
C70	C	-0.025177	1.487533	0.499916
C71	C	-0.789340	0.915738	-0.000005
C72	C	-0.289340	1.415738	0.499995
C73	C	-0.862168	0.917027	0.000008
C74	C	-0.362168	1.417027	0.500008
C75	C	-0.845494	1.069652	0.000013
C76	C	-0.345494	1.569652	0.500013
C77	C	-0.772668	1.068362	-0.000007
C78	C	-0.272668	1.568362	0.499993
C79	C	-0.744595	0.991402	-0.000012
C80	C	-0.244595	1.491402	0.499988
C81	C	0.032249	0.995347	-0.000008
C82	C	0.532249	1.495347	0.499992
C83	C	0.109757	0.993979	0.000023
C84	C	0.609757	1.493979	0.500023
C85	C	-0.090282	1.141871	-0.000067
C86	C	0.409718	1.641871	0.499933
C87	C	-0.091645	1.234819	-0.000075
C88	C	0.408355	1.734819	0.499925
N89	N	-0.095398	0.988752	0.179098
N90	N	0.404602	1.488752	0.679098
N91	N	-0.095401	0.988787	-0.179228
N92	N	0.404599	1.488787	0.320772
C93	C	-0.047940	1.045887	0.781169
C94	C	0.452060	1.545887	1.281169
C95	C	-0.047941	1.045888	0.701922
C96	C	0.452059	1.545888	1.201922
C97	C	-0.095397	0.988776	0.662280
C98	C	0.404603	1.488776	1.162280
C99	C	-0.142868	0.931672	0.701892
C100	C	0.357132	1.431672	1.201892
C101	C	-0.142869	0.931678	0.781138
C102	C	0.357131	1.431678	1.281138
N103	N	-0.104268	0.914648	0.537865
N104	N	0.395732	1.414648	1.037865
N105	N	-0.104262	0.914645	0.462584
N106	N	0.395738	1.414645	0.962584
C107	C	-0.095396	0.988756	0.423516
C108	C	0.404604	1.488756	0.923516
N109	N	-0.086522	1.062873	0.462572
N110	N	0.413478	1.562873	0.962572
N111	N	-0.086525	1.062875	0.537859
N112	N	0.413475	1.562875	1.037859
C113	C	-0.095401	0.988763	0.576351
C114	C	0.404599	1.488763	1.076351
C115	C	-0.047934	1.045861	0.297984
C116	C	0.452066	1.545861	0.797984
C117	C	-0.047941	1.045864	0.218735
C118	C	0.452059	1.545864	0.718735
C119	C	-0.142864	0.931641	0.218707
C120	C	0.357136	1.431641	0.718707
C121	C	-0.142860	0.931646	0.297954
C122	C	0.357140	1.431646	0.797954
C123	C	-0.095392	0.988755	0.337588
C124	C	0.404608	1.488755	0.837588
H125	H	-0.203657	0.543168	0.051331
H126	H	0.296343	1.043168	0.551331
H127	H	-0.322452	0.845226	-0.000155
H128	H	0.177548	1.345226	0.499845
Cl129	Cl	0.011726	1.117657	0.168945
Cl130	Cl	0.511726	1.617657	0.668945
H131	H	-0.181506	0.885142	0.186431
H132	H	0.318494	1.385142	0.686431
Cl133	Cl	-0.217540	0.383985	0.078980
Cl134	Cl	0.282460	0.883985	0.578980
H135	H	-0.181505	0.885147	0.330201
H136	H	0.318495	1.385147	0.830201
Cl137	Cl	-0.096438	0.402393	-0.154577
Cl138	Cl	0.403562	0.902393	0.345423
H139	H	-0.181508	0.885172	0.669612
H140	H	0.318492	1.385172	1.169612
H141	H	-0.009284	1.092366	0.330255
H142	H	0.490716	1.592366	0.830255
H143	H	-0.082221	0.563567	0.125700
H144	H	0.417779	1.063567	0.625700
H145	H	-0.203202	0.544298	-0.051490
H146	H	0.296798	1.044298	0.448510
Cl147	Cl	-0.754045	0.818992	-0.000016
Cl148	Cl	-0.254045	1.318992	0.499984
H149	H	-0.201220	0.400162	-0.052135
H150	H	0.298780	0.900162	0.447865
Cl151	Cl	-0.272382	1.155639	-0.000172
Cl152	Cl	0.227618	1.655639	0.499828
H153	H	-0.002166	0.575377	-0.074903
H154	H	0.497834	1.075377	0.425097
Cl155	Cl	-0.100366	0.571041	-0.155005
Cl156	Cl	0.399634	1.071041	0.344995
H157	H	0.000599	0.432381	-0.074245
H158	H	0.500599	0.932381	0.425755
Cl159	Cl	-0.099792	0.403844	0.154190
Cl160	Cl	0.400208	0.903844	0.654190
H161	H	-0.736237	1.129974	-0.000015
H162	H	-0.236237	1.629974	0.499985
Cl163	Cl	0.030055	0.422855	0.079315
Cl164	Cl	0.530055	0.922855	0.579315
Cl165	Cl	0.011731	1.117676	0.652127
Cl166	Cl	0.511731	1.617676	1.152127
H167	H	-0.000806	0.575152	0.072027
H168	H	0.499194	1.075152	0.572027
H169	H	-0.454567	0.847562	-0.000113
H170	H	0.045433	1.347562	0.499887
H171	H	-0.868357	1.132308	-0.000028
H172	H	-0.368357	1.632308	0.499972
H173	H	-0.009290	1.092390	0.813437
H174	H	0.490710	1.592390	1.313437
H175	H	-0.424327	1.124455	-0.000130
H176	H	0.075673	1.624455	0.499870
H177	H	-0.181519	0.885180	0.813384
H178	H	0.318481	1.385180	1.313384
Cl179	Cl	-0.918417	0.821899	0.000017
Cl180	Cl	-0.418417	1.321899	0.500017
