data_functionalizedCrystal
_audit_creation_method	'MofGen! by Chris Wilmer'
_symmetry_space_group_name_H-M	'P1'
_symmetry_Int_Tables_number	1
_symmetry_cell_setting	triclinic
loop_
_symmetry_equiv_pos_as_xyz
  x,y,z
_cell_length_a	13.635800
_cell_length_b	19.452420
_cell_length_c	9.582880
_cell_angle_alpha	86.180836
_cell_angle_beta	68.792966
_cell_angle_gamma	101.696715
loop_
_atom_site_label
_atom_site_type_symbol
_atom_site_fract_x
_atom_site_fract_y
_atom_site_fract_z
V1	V	-2.053975	-0.096886	0.467331
O2	O	-2.051415	0.004961	0.457682
O3	O	-2.025169	-0.192402	0.464860
O4	O	-2.049434	-0.095262	0.670820
O5	O	-2.026982	-0.092852	0.250296
V6	V	-2.293838	-0.084720	0.441284
O7	O	-2.188768	-0.123574	0.524468
O8	O	-2.384143	-0.058032	0.384147
O9	O	-2.211040	0.010796	0.443756
O10	O	-2.355095	-0.186567	0.450933
O11	O	-2.379529	-0.088754	0.658320
O12	O	-2.186775	-0.086344	0.237795
V13	V	-1.553975	-0.096886	0.467331
O14	O	-1.551415	0.004961	0.457682
O15	O	-1.525169	-0.192402	0.464860
O16	O	-1.549434	-0.095262	0.670820
O17	O	-1.526982	-0.092852	0.250296
V18	V	-1.793838	-0.084720	0.441284
O19	O	-1.688768	-0.123574	0.524468
O20	O	-1.884143	-0.058032	0.384147
O21	O	-1.711040	0.010796	0.443756
O22	O	-1.855095	-0.186567	0.450933
O23	O	-1.879529	-0.088754	0.658320
O24	O	-1.686775	-0.086344	0.237795
C25	C	-1.945913	-0.215691	0.457674
C26	C	-1.963135	-0.293776	0.457010
C27	C	-1.938355	-0.320492	0.319557
C28	C	-1.954568	-0.393859	0.318887
C29	C	-1.995543	-0.440507	0.455675
C30	C	-2.020331	-0.413783	0.593147
C31	C	-2.004127	-0.340418	0.593814
N32	N	-1.988249	-0.560894	0.552013
N33	N	-2.003638	-0.630588	0.551370
C34	C	-2.044368	-0.661554	0.453674
N35	N	-2.069111	-0.620192	0.356621
N36	N	-2.053715	-0.550491	0.357260
C37	C	-2.013117	-0.520061	0.454967
C38	C	-2.037168	-0.767823	0.315485
C39	C	-2.053389	-0.841192	0.314821
C40	C	-2.119143	-0.861114	0.589084
C41	C	-2.102931	-0.787747	0.589745
C42	C	-2.061938	-0.741105	0.452941
C43	C	-1.976865	-0.091778	0.720395
C44	C	-2.013764	-0.091082	0.886753
C45	C	-2.121967	0.034081	0.450937
C46	C	-2.094365	0.112166	0.451611
C47	C	-2.091014	-0.089830	0.188212
C48	C	-2.043735	-0.090522	0.021853
C49	C	-1.445913	-0.215691	0.457674
C50	C	-1.463135	-0.293776	0.457010
C51	C	-1.562849	-0.334022	0.464202
C52	C	-1.579051	-0.407393	0.463600
C53	C	-1.495535	-0.440516	0.455796
C54	C	-1.395813	-0.400265	0.448608
C55	C	-1.379615	-0.326896	0.449220
C56	C	-1.476865	-0.091778	0.720395
C57	C	-1.513764	-0.091082	0.886753
C58	C	-1.621967	0.034081	0.450937
C59	C	-1.594365	0.112166	0.451611
C60	C	-1.591014	-0.089830	0.188212
C61	C	-1.543735	-0.090522	0.021853
C62	C	-1.667144	0.152411	0.444423
C63	C	-1.641215	0.225782	0.445032
C64	C	-1.542509	0.258904	0.452839
C65	C	-1.469723	0.218654	0.460023
C66	C	-1.495649	0.145285	0.459404
H67	H	-1.904983	-0.282520	0.208161
Cl68	Cl	-2.022246	-0.874778	0.142008
H69	H	-1.660254	-0.440156	0.469450
H70	H	-1.508738	-0.500258	0.455299
Cl71	Cl	-1.509932	0.351141	0.453618
H72	H	-2.053695	-0.451769	0.704521
H73	H	-1.389355	0.245633	0.466379
H74	H	-1.298414	-0.294132	0.443356
H75	H	-1.436382	0.112521	0.465270
H76	H	-1.934386	-0.415616	0.206953
H77	H	-2.024311	-0.318667	0.705748
H78	H	-2.152506	-0.899094	0.700460
Cl79	Cl	-1.732733	0.276368	0.436005
H80	H	-2.123103	-0.765995	0.701673
Cl81	Cl	-1.985642	-0.709184	0.143508
Cl82	Cl	-1.791239	0.110788	0.434605
Cl83	Cl	-1.667863	-0.292399	0.474029
H84	H	-1.327819	-0.427244	0.442254
