data_functionalizedCrystal
_audit_creation_method	'MofGen! by Chris Wilmer'
_symmetry_space_group_name_H-M	'P1'
_symmetry_Int_Tables_number	1
_symmetry_cell_setting	triclinic
loop_
_symmetry_equiv_pos_as_xyz
  x,y,z
_cell_length_a	11.792241
_cell_length_b	11.792241
_cell_length_c	9.130307
_cell_angle_alpha	90.000253
_cell_angle_beta	90.000996
_cell_angle_gamma	84.193416
loop_
_atom_site_label
_atom_site_type_symbol
_atom_site_fract_x
_atom_site_fract_y
_atom_site_fract_z
O1	O	1.506907	0.155559	-0.121658
O2	O	1.176566	0.171592	-0.121692
O3	O	1.349753	-0.001595	-0.121664
O4	O	1.333720	0.328746	-0.121686
O5	O	1.349741	-0.001583	0.121935
O6	O	1.176554	0.171604	0.121907
O7	O	1.506895	0.155571	0.121941
Cu8	Cu	1.341723	0.163588	0.144167
Cu9	Cu	1.341738	0.163575	-0.143917
O10	O	1.333708	0.328758	0.121913
C11	C	1.134269	0.170591	0.000103
C12	C	1.008255	0.167576	0.000090
C13	C	0.777543	0.162034	0.000133
C14	C	0.905928	0.165113	0.000110
C15	C	1.348740	-0.043880	0.000135
C16	C	1.345726	-0.169894	0.000133
C17	C	1.340183	-0.400606	0.000108
C18	C	1.343262	-0.272221	0.000122
C19	C	1.549192	0.156572	0.000143
C20	C	1.675206	0.159587	0.000146
C21	C	1.334721	0.371043	0.000111
C22	C	1.337736	0.497057	0.000103
N23	N	1.341721	0.163597	0.346789
N24	N	1.341749	0.163557	-0.346540
C25	C	1.203248	0.024937	0.653444
C26	C	1.133985	-0.044359	0.576769
C27	C	1.133963	-0.044338	0.423436
C28	C	1.203216	0.024984	0.346774
C29	C	1.272479	0.094280	0.423448
C30	C	1.272490	0.094254	0.576785
C31	C	1.410985	0.232893	0.423464
C32	C	1.411001	0.232879	0.576797
C33	C	1.480237	0.302215	0.346802
C34	C	1.549496	0.371518	0.423476
C35	C	1.549513	0.371495	0.576819
C36	C	1.480265	0.302175	0.653472
H37	H	1.203250	0.024921	0.778296
H38	H	1.077604	-0.100803	0.639205
Cl39	Cl	1.636553	0.458649	0.327095
Cl40	Cl	1.046904	-0.131468	0.327041
Cl41	Cl	1.636600	0.458609	0.673197
Cl42	Cl	1.203205	0.024990	0.154010
Cl43	Cl	1.480277	0.302144	0.846235
Cl44	Cl	1.480219	0.302233	0.154038
