data_functionalizedCrystal
_audit_creation_method	'MofGen! by Chris Wilmer'
_symmetry_space_group_name_H-M	'P1'
_symmetry_Int_Tables_number	1
_symmetry_cell_setting	triclinic
loop_
_symmetry_equiv_pos_as_xyz
  x,y,z
_cell_length_a	19.188923
_cell_length_b	19.188925
_cell_length_c	9.798715
_cell_angle_alpha	89.997209
_cell_angle_beta	90.005757
_cell_angle_gamma	96.857936
loop_
_atom_site_label
_atom_site_type_symbol
_atom_site_fract_x
_atom_site_fract_y
_atom_site_fract_z
O1	O	-0.926146	0.087140	-0.113555
O2	O	-0.722834	0.098880	-0.113543
O3	O	-0.830359	-0.008646	-0.113542
O4	O	-0.818621	0.194666	-0.113557
O5	O	-0.830351	-0.008646	0.113440
O6	O	-0.722826	0.098880	0.113439
O7	O	-0.926138	0.087140	0.113427
Zn8	Zn	-0.824481	0.093010	0.149471
Zn9	Zn	-0.824491	0.093010	-0.149587
O10	O	-0.818613	0.194666	0.113426
C11	C	-0.696819	0.098501	-0.000051
C12	C	-0.619314	0.097362	-0.000046
C13	C	-0.057542	0.152831	-0.000032
C14	C	-0.130365	0.153907	-0.000042
C15	C	-0.175301	0.090814	-0.000037
C16	C	-0.147408	0.026641	-0.000056
C17	C	-0.074586	0.025567	-0.000059
N18	N	-0.295976	0.045137	0.077228
N19	N	-0.365154	0.046162	0.077235
C20	C	-0.394710	0.094047	-0.000029
N21	N	-0.352475	0.140879	-0.077282
N22	N	-0.283291	0.139856	-0.077282
C23	C	-0.254265	0.091972	-0.000034
C24	C	-0.501558	0.159382	-0.000031
C25	C	-0.574383	0.160456	-0.000049
C26	C	-0.591425	0.033188	-0.000049
C27	C	-0.518601	0.032116	-0.000045
C28	C	-0.473672	0.095216	-0.000029
C29	C	-0.829975	-0.034657	-0.000052
C30	C	-0.828836	-0.112162	-0.000054
C31	C	-0.884300	-0.673933	-0.000092
C32	C	-0.885377	-0.601110	-0.000080
C33	C	-0.822285	-0.556174	-0.000077
C34	C	-0.758111	-0.584066	-0.000051
C35	C	-0.757036	-0.656888	-0.000049
N36	N	-0.776611	-0.435492	-0.077333
N37	N	-0.777636	-0.366315	-0.077337
C38	C	-0.825519	-0.336765	-0.000078
N39	N	-0.872348	-0.379007	0.077169
N40	N	-0.871325	-0.448191	0.077167
C41	C	-0.823443	-0.477210	-0.000077
C42	C	-0.890855	-0.229918	-0.000081
C43	C	-0.891929	-0.157093	-0.000060
C44	C	-0.764661	-0.140050	-0.000044
C45	C	-0.763589	-0.212874	-0.000051
C46	C	-0.826688	-0.257804	-0.000076
C47	C	0.047847	0.087522	-0.000059
C48	C	-0.029657	0.088666	-0.000043
C49	C	-0.818996	0.220677	-0.000068
C50	C	-0.820135	0.298182	-0.000074
N51	N	-0.824478	0.093009	0.353571
N52	N	-0.824499	0.093005	-0.353687
C53	C	-0.869628	0.047666	0.421349
C54	C	-0.869639	0.047663	0.578511
H55	H	-0.495897	-0.020134	-0.000046
O56	O	-0.958907	-0.278386	-0.000081
H57	H	-1.003708	-0.246758	-0.000066
H58	H	-0.944182	-0.134392	-0.000066
H59	H	-0.153074	0.206159	-0.000020
O60	O	-0.773297	0.144438	0.430829
H61	H	-0.782171	0.198813	0.403464
H62	H	-0.713290	-0.103464	-0.000030
H63	H	-0.908271	0.008844	0.363026
H64	H	-0.628011	-0.018183	-0.000056
H65	H	-0.935681	-0.710511	-0.000105
O66	O	-0.920844	-0.003765	0.655701
H67	H	-0.912814	0.004299	0.767029
H68	H	-0.937630	-0.578402	-0.000094
H69	H	-0.597085	0.212708	-0.000051
O70	O	-0.773285	0.144422	0.569116
H71	H	-0.802695	0.178156	0.503983
H72	H	-0.051883	-0.026685	-0.000069
O73	O	-0.009082	0.220886	-0.000020
H74	H	-0.018975	0.251606	-0.092535
O75	O	-0.195868	-0.041411	-0.000036
H76	H	-0.251192	-0.029886	-0.000013
H77	H	-0.704784	-0.679590	-0.000031
O78	O	-0.453091	0.227434	-0.000036
H79	H	-0.484719	0.272235	-0.000055
H80	H	-0.711339	-0.235577	-0.000047
O81	O	-0.690059	-0.535606	-0.000049
H82	H	-0.701585	-0.480282	-0.000067
