data_functionalizedCrystal
_audit_creation_method	'MofGen! by Chris Wilmer'
_symmetry_space_group_name_H-M	'P1'
_symmetry_Int_Tables_number	1
_symmetry_cell_setting	triclinic
loop_
_symmetry_equiv_pos_as_xyz
  x,y,z
_cell_length_a	16.109302
_cell_length_b	15.500227
_cell_length_c	16.109301
_cell_angle_alpha	92.825884
_cell_angle_beta	96.538369
_cell_angle_gamma	92.845605
loop_
_atom_site_label
_atom_site_type_symbol
_atom_site_fract_x
_atom_site_fract_y
_atom_site_fract_z
O1	O	1.107002	0.071986	-0.103007
O2	O	0.864940	0.071979	-0.116306
O3	O	0.992620	0.071974	0.011374
O4	O	0.979322	0.071991	-0.230687
O5	O	0.984872	-0.071914	0.003656
O6	O	0.857192	-0.071909	-0.124024
O7	O	1.099254	-0.071903	-0.110725
Cu8	Cu	0.977516	-0.085044	-0.118079
Cu9	Cu	0.986679	0.085121	-0.108952
O10	O	0.971574	-0.071897	-0.238405
C11	C	0.830091	0.000034	-0.119626
C12	C	0.737796	0.000031	-0.118011
C13	C	0.521232	-0.078394	-0.118482
C14	C	0.434512	-0.078391	-0.116955
C15	C	0.442970	0.078484	-0.108545
C16	C	0.529689	0.078480	-0.110066
C17	C	0.568817	0.000039	-0.115039
C18	C	0.395378	0.000045	-0.111991
C19	C	0.301352	0.000049	-0.110336
C20	C	0.662848	0.000035	-0.116693
N21	N	0.971077	-0.204729	-0.124498
C22	C	1.025198	-0.250008	-0.070415
C23	C	1.020337	-0.340580	-0.075277
C24	C	0.961357	-0.385872	-0.134227
C25	C	0.907230	-0.340587	-0.188311
C26	C	0.912088	-0.250016	-0.183445
C27	C	0.943855	-0.659338	-0.151745
C28	C	0.939002	-0.749916	-0.156609
C29	C	1.052109	-0.749903	-0.043573
C30	C	1.056965	-0.659330	-0.038715
C31	C	1.002835	-0.614053	-0.092797
C32	C	0.956388	-0.478452	-0.139200
C33	C	1.007801	-0.521475	-0.087819
C34	C	1.134103	0.000044	-0.107404
C35	C	1.226399	0.000053	-0.109019
C36	C	0.988208	0.000029	0.038490
C37	C	0.986592	0.000028	0.130785
N38	N	0.993124	0.204805	-0.102526
C39	C	0.975987	0.000049	-0.265521
C40	C	0.977602	0.000056	-0.357816
C41	C	1.058601	0.000044	0.353058
C42	C	1.057077	0.000051	0.439779
C43	C	0.905588	0.000043	0.419905
C44	C	0.907113	0.000042	0.333186
C45	C	0.983622	0.000038	0.299765
C46	C	0.980573	0.000046	0.473205
C47	C	0.978920	0.000054	0.567231
C48	C	0.985275	0.000032	0.205733
H49	H	0.553087	-0.142266	-0.122531
O50	O	1.065007	-0.477538	-0.030432
C51	C	1.050335	-0.499726	0.050676
H52	H	0.982435	-0.524637	0.049754
H53	H	1.093596	-0.552301	0.072247
C54	C	1.150986	-0.388696	0.112512
C55	C	1.067588	-0.419285	0.111382
H56	H	1.161632	-0.339078	0.149960
H57	H	1.160874	-0.373749	0.057868
H58	H	1.187028	-0.432516	0.130486
H59	H	1.031548	-0.375469	0.093399
H60	H	1.057694	-0.434222	0.166025
H61	H	0.846052	0.000041	0.289792
H62	H	0.568434	0.142353	-0.107260
H63	H	0.908367	-0.515336	-0.187199
O64	O	0.388183	-0.154524	-0.120405
C65	C	0.328339	-0.159225	-0.191746
H66	H	0.315872	-0.091123	-0.211861
H67	H	0.353060	-0.197934	-0.244800
C68	C	0.261729	-0.287707	-0.146132
C69	C	0.246411	-0.204063	-0.170833
H70	H	0.211193	-0.315369	-0.133234
H71	H	0.302049	-0.284543	-0.098070
H72	H	0.282331	-0.319954	-0.190347
H73	H	0.225819	-0.171814	-0.126614
H74	H	0.206086	-0.207223	-0.218887
O75	O	1.132947	0.000203	0.320640
C76	C	1.182666	0.074719	0.351883
H77	H	1.140728	0.126799	0.372697
H78	H	1.228104	0.057877	0.407514
C79	C	1.283760	0.044551	0.257184
C80	C	1.232250	0.108519	0.282742
H81	H	1.314349	0.065399	0.214536
H82	H	1.250265	-0.005654	0.236137
H83	H	1.321617	0.030522	0.303550
H84	H	1.194387	0.122539	0.236379
H85	H	1.265739	0.158728	0.303780
O86	O	0.404820	0.154601	-0.103761
C87	C	0.318078	0.137788	-0.103139
H88	H	0.299150	0.070380	-0.132849
H89	H	0.302409	0.141506	-0.035848
C90	C	0.293306	0.288249	-0.116732
C91	C	0.270058	0.205460	-0.153230
H92	H	0.263684	0.329994	-0.147628
H93	H	0.351746	0.299578	-0.117149
H94	H	0.280248	0.291335	-0.060658
H95	H	0.283125	0.202372	-0.209299
H96	H	0.211618	0.194133	-0.152824
O97	O	1.082517	-0.206149	-0.013078
C98	C	1.129255	-0.265540	0.033600
H99	H	1.091705	-0.330111	0.031079
H100	H	1.190490	-0.275151	0.006068
C101	C	1.194434	-0.150901	0.128282
C102	C	1.148312	-0.230206	0.125191
H103	H	1.206193	-0.129104	0.184779
H104	H	1.162948	-0.110887	0.096832
H105	H	1.245458	-0.158921	0.105334
H106	H	1.097285	-0.222182	0.148129
H107	H	1.179790	-0.270217	0.156647
O108	O	1.072941	-0.384664	-0.022866
C109	C	1.121413	-0.437017	-0.070230
H110	H	1.087545	-0.450577	-0.136005
H111	H	1.184728	-0.402097	-0.074027
C112	C	1.176177	-0.506402	0.052800
C113	C	1.134577	-0.523063	-0.027984
H114	H	1.184301	-0.559479	0.078859
H115	H	1.143523	-0.471129	0.084710
H116	H	1.228935	-0.477301	0.049624
H117	H	1.081816	-0.552154	-0.024807
H118	H	1.167222	-0.558343	-0.059894
H119	H	1.118133	0.000057	0.483168
O120	O	0.881588	-0.793880	-0.213783
C121	C	0.800483	-0.771764	-0.199054
H122	H	0.801442	-0.746872	-0.131152
H123	H	0.778855	-0.719197	-0.242308
C124	C	0.738629	-0.882815	-0.299658
C125	C	0.739806	-0.852249	-0.216258
H126	H	0.701199	-0.932459	-0.310273
H127	H	0.793271	-0.897713	-0.309584
H128	H	0.720608	-0.839001	-0.335694
H129	H	0.757837	-0.896058	-0.180224
H130	H	0.685166	-0.837360	-0.206326
O131	O	0.891359	-0.615407	-0.204403
C132	C	0.903653	-0.637543	-0.287896
H133	H	0.968884	-0.662414	-0.289654
H134	H	0.854752	-0.690132	-0.315123
C135	C	0.814907	-0.526539	-0.337788
C136	C	0.895027	-0.557080	-0.339947
H137	H	0.809582	-0.476907	-0.369897
H138	H	0.806621	-0.511627	-0.281537
H139	H	0.774165	-0.570371	-0.360475
H140	H	0.935767	-0.513252	-0.317250
H141	H	0.903319	-0.571982	-0.396195
O142	O	1.104648	-0.793793	0.009085
C143	C	1.092323	-0.771694	0.092577
H144	H	1.063807	-0.705941	0.096012
H145	H	1.048208	-0.822682	0.115557
C146	C	1.211997	-0.848262	0.143877
C147	C	1.176980	-0.767498	0.148098
H148	H	1.264216	-0.845677	0.178127
H149	H	1.220299	-0.863153	0.087627
H150	H	1.175226	-0.890743	0.163026
H151	H	1.213746	-0.725021	0.128939
H152	H	1.168686	-0.752599	0.204346
H153	H	1.104991	-0.622455	0.009286
H154	H	0.859203	-0.377469	-0.236307
H155	H	0.868016	-0.213151	-0.227484
O156	O	0.831342	0.000001	0.452508
C157	C	0.846073	0.000021	0.540477
H158	H	0.909494	-0.027214	0.559402
H159	H	0.845762	0.069051	0.568314
C160	C	0.699015	-0.022962	0.550159
C161	C	0.776908	-0.056420	0.573402
H162	H	0.656350	-0.057774	0.570470
H163	H	0.689090	-0.022973	0.490893
H164	H	0.698769	0.034562	0.573358
H165	H	0.777157	-0.113939	0.550195
H166	H	0.786832	-0.056420	0.632666
