data_functionalizedCrystal
_audit_creation_method	'MofGen! by Chris Wilmer'
_symmetry_space_group_name_H-M	'P1'
_symmetry_Int_Tables_number	1
_symmetry_cell_setting	triclinic
loop_
_symmetry_equiv_pos_as_xyz
  x,y,z
_cell_length_a	17.077404
_cell_length_b	11.169416
_cell_length_c	17.077396
_cell_angle_alpha	90.023157
_cell_angle_beta	90.019501
_cell_angle_gamma	90.010374
loop_
_atom_site_label
_atom_site_type_symbol
_atom_site_fract_x
_atom_site_fract_y
_atom_site_fract_z
Zn1	Zn	1.200124	-0.477800	0.443872
Zn2	Zn	1.700124	0.022200	0.943872
Zn3	Zn	1.200060	-0.678512	0.312618
Zn4	Zn	1.700060	-0.178512	0.812618
Zn5	Zn	1.068856	-0.477842	0.312620
Zn6	Zn	1.568856	0.022158	0.812620
Zn7	Zn	1.068853	-0.678440	0.443842
Zn8	Zn	1.568853	-0.178440	0.943842
O9	O	1.134473	-0.578149	0.378238
O10	O	1.634473	-0.078149	0.878238
O11	O	1.309963	-0.504437	0.426473
O12	O	1.809963	-0.004437	0.926473
O13	O	1.182630	-0.651940	0.202771
O14	O	1.682630	-0.151940	0.702771
O15	O	1.086297	-0.309887	0.330044
O16	O	1.586297	0.190113	0.830044
O17	O	1.309916	-0.651899	0.330041
O18	O	1.809916	-0.151899	0.830041
O19	O	1.182739	-0.309856	0.426474
O20	O	1.682739	0.190144	0.926474
O21	O	1.086235	-0.504509	0.202773
O22	O	1.586235	-0.004509	0.702773
O23	O	0.959009	-0.504440	0.330015
O24	O	1.459009	-0.004440	0.830015
O25	O	1.086292	-0.651778	0.553693
O26	O	1.586292	-0.151778	1.053693
O27	O	0.959007	-0.651818	0.426423
O28	O	1.459007	-0.151818	0.926423
O29	O	1.182736	-0.504368	0.553715
O30	O	1.682736	-0.004368	1.053715
O31	O	1.182628	-0.846452	0.330012
O32	O	1.682628	-0.346452	0.830012
O33	O	1.086230	-0.846400	0.426421
O34	O	1.586230	-0.346400	0.926421
C35	C	0.930526	-0.578127	0.378216
C36	C	1.430526	-0.078127	0.878216
C37	C	0.843276	-0.578146	0.378225
C38	C	1.343276	-0.078146	0.878225
C39	C	0.802305	-0.655002	0.428345
C40	C	1.302305	-0.155002	0.928345
C41	C	0.720325	-0.655005	0.428357
C42	C	1.220325	-0.155005	0.928357
C43	C	0.679316	-0.578157	0.378246
C44	C	1.179316	-0.078157	0.878246
C45	C	0.720293	-0.501292	0.328125
C46	C	1.220293	-0.001292	0.828125
C47	C	0.802272	-0.501285	0.328117
C48	C	1.302272	-0.001285	0.828117
C49	C	0.549423	-0.501316	0.328143
C50	C	1.049423	-0.001316	0.828143
C51	C	0.467438	-0.501325	0.328150
C52	C	0.967438	-0.001325	0.828150
C53	C	0.467476	-0.655036	0.428384
C54	C	0.967476	-0.155036	0.928384
C55	C	0.549455	-0.655029	0.428376
C56	C	1.049455	-0.155029	0.928376
C57	C	0.590425	-0.578165	0.378253
C58	C	1.090425	-0.078165	0.878253
C59	C	1.134443	-0.889973	0.378230
C60	C	1.634443	-0.389973	0.878230
C61	C	1.134502	-1.023373	0.378253
C62	C	1.634502	-0.523373	0.878253
C63	C	1.339218	-0.578171	0.378260
C64	C	1.839218	-0.078171	0.878260
C65	C	1.426467	-0.578181	0.378269
C66	C	1.926467	-0.078181	0.878269
C67	C	1.134521	-0.578060	0.582982
C68	C	1.634521	-0.078060	1.082982
C69	C	1.134541	-0.578022	0.670232
C70	C	1.634541	-0.078022	1.170232
C71	C	1.134525	-0.265106	0.378263
C72	C	1.634525	0.234894	0.878263
C73	C	1.134547	-0.131706	0.378273
C74	C	1.634547	0.368294	0.878273
C75	C	1.134471	-0.578150	0.174290
C76	C	1.634471	-0.078150	0.674290
C77	C	1.134603	-0.577850	0.087041
C78	C	1.634603	-0.077850	0.587041
C79	C	1.184761	-0.501260	0.711235
C80	C	1.684761	-0.001260	1.211235
C81	C	1.184771	-0.501220	0.793215
C82	C	1.684771	-0.001220	1.293215
C83	C	1.134563	-0.577949	0.834191
C84	C	1.634563	-0.077949	1.334191
C85	C	1.084337	-0.654715	0.793183
C86	C	1.584337	-0.154715	1.293183
C87	C	1.084325	-0.654748	0.711204
C88	C	1.584325	-0.154748	1.211204
C89	C	1.084369	-0.654643	0.964053
C90	C	1.584369	-0.154643	1.464053
C91	C	1.084383	-0.654612	1.046038
C92	C	1.584383	-0.154612	1.546038
C93	C	1.184815	-0.501115	1.046065
C94	C	1.684815	-0.001115	1.546065
C95	C	1.184802	-0.501148	0.964086
C96	C	1.684802	-0.001148	1.464086
C97	C	1.134577	-0.577916	0.923083
C98	C	1.634577	-0.077916	1.423083
H99	H	0.835688	-0.717585	0.469148
H100	H	1.335688	-0.217585	0.969148
H101	H	0.686970	-0.717590	0.469169
H102	H	1.186970	-0.217590	0.969169
Cl103	Cl	0.601007	-0.751647	0.491369
Cl104	Cl	1.101007	-0.251647	0.991369
H105	H	1.043498	-0.717090	1.079398
H106	H	1.543498	-0.217090	1.579398
H107	H	0.434113	-0.717618	0.469198
H108	H	0.934113	-0.217618	0.969198
Cl109	Cl	1.247943	-0.404767	0.844759
Cl110	Cl	1.747943	0.095233	1.344759
Cl111	Cl	0.415886	-0.404720	0.265149
Cl112	Cl	0.915886	0.095280	0.765149
H113	H	0.582779	-0.438715	0.287335
H114	H	1.082779	0.061285	0.787335
H115	H	0.835629	-0.438694	0.287308
H116	H	1.335629	0.061306	0.787308
H117	H	1.043455	-0.717186	0.826552
H118	H	1.543455	-0.217186	1.326552
Cl119	Cl	1.021227	-0.751152	0.912507
Cl120	Cl	1.521227	-0.251152	1.412507
H121	H	1.225649	-0.438781	0.677878
H122	H	1.725649	0.061219	1.177878
Cl123	Cl	0.668739	-0.404675	0.265132
Cl124	Cl	1.168739	0.095325	0.765132
Cl125	Cl	1.247956	-0.404608	1.097611
Cl126	Cl	1.747956	0.095392	1.597611
Cl127	Cl	1.247926	-0.404693	0.912574
Cl128	Cl	1.747926	0.095307	1.412574
H129	H	1.043422	-0.717244	0.677820
H130	H	1.543422	-0.217244	1.177820
