data_functionalizedCrystal
_audit_creation_method	'MofGen! by Chris Wilmer'
_symmetry_space_group_name_H-M	'P1'
_symmetry_Int_Tables_number	1
_symmetry_cell_setting	triclinic
loop_
_symmetry_equiv_pos_as_xyz
  x,y,z
_cell_length_a	16.109301
_cell_length_b	16.109301
_cell_length_c	14.586319
_cell_angle_alpha	90.001143
_cell_angle_beta	90.005214
_cell_angle_gamma	83.461532
loop_
_atom_site_label
_atom_site_type_symbol
_atom_site_fract_x
_atom_site_fract_y
_atom_site_fract_z
O1	O	0.106867	1.103131	0.076193
O2	O	0.606867	1.603131	0.576193
O3	O	0.120166	0.861069	0.076206
O4	O	0.620166	1.361069	0.576206
O5	O	-0.007514	0.988749	0.076190
O6	O	0.492486	1.488749	0.576190
O7	O	0.234548	0.975450	0.076209
O8	O	0.734548	1.475450	0.576209
O9	O	-0.007516	0.988740	-0.076291
O10	O	0.492484	1.488740	0.423709
O11	O	0.120164	0.861060	-0.076275
O12	O	0.620164	1.361060	0.423725
O13	O	0.106865	1.103122	-0.076288
O14	O	0.606865	1.603122	0.423712
Cu15	Cu	0.113515	0.982090	-0.090204
Cu16	Cu	0.613515	1.482090	0.409796
Cu17	Cu	0.113517	0.982100	0.090122
Cu18	Cu	0.613517	1.482100	0.590122
O19	O	0.234546	0.975441	-0.076272
O20	O	0.734546	1.475441	0.423728
C21	C	0.119627	0.830089	-0.000033
C22	C	0.619627	1.330089	0.499967
C23	C	0.118011	0.737794	-0.000028
C24	C	0.618011	1.237794	0.499972
C25	C	0.188494	0.428796	-0.000038
C26	C	0.688494	0.928796	0.499962
C27	C	0.190020	0.515516	-0.000033
C28	C	0.690020	1.015516	0.499967
C29	C	0.038531	0.535389	-0.000033
C30	C	0.538531	1.035389	0.499967
C31	C	0.037007	0.448671	-0.000032
C32	C	0.537007	0.948671	0.499968
C33	C	0.111991	0.395376	-0.000039
C34	C	0.611991	0.895376	0.499961
C35	C	0.115041	0.568815	-0.000035
C36	C	0.615041	1.068815	0.499965
C37	C	0.116694	0.662841	-0.000029
C38	C	0.616694	1.162841	0.499971
C39	C	0.110338	0.301344	-0.000043
C40	C	0.610338	0.801344	0.499957
C41	C	-0.038490	0.988206	-0.000051
C42	C	0.461510	1.488206	0.499949
C43	C	-0.130785	0.986591	-0.000052
C44	C	0.369215	1.486591	0.499948
C45	C	-0.353058	1.058599	-0.000042
C46	C	0.146942	1.558599	0.499958
C47	C	-0.439778	1.057075	-0.000034
C48	C	0.060222	1.557075	0.499966
C49	C	-0.419904	0.905586	-0.000029
C50	C	0.080096	1.405586	0.499971
C51	C	-0.333185	0.907111	-0.000030
C52	C	0.166815	1.407111	0.499970
C53	C	-0.299765	0.983620	-0.000041
C54	C	0.200235	1.483620	0.499959
C55	C	-0.473204	0.980571	-0.000033
C56	C	0.026796	1.480571	0.499967
C57	C	-0.567230	0.978918	-0.000024
C58	C	-0.067230	1.478918	0.499976
C59	C	-0.205733	0.985273	-0.000048
C60	C	0.294267	1.485273	0.499952
C61	C	0.265522	0.975984	-0.000029
C62	C	0.765522	1.475984	0.499971
C63	C	0.357817	0.977599	-0.000021
C64	C	0.857817	1.477599	0.499979
C65	C	0.107405	1.134101	-0.000047
C66	C	0.607405	1.634101	0.499953
C67	C	0.109020	1.226396	-0.000046
C68	C	0.609020	1.726396	0.499954
N69	N	0.113513	0.982089	-0.217036
N70	N	0.613513	1.482089	0.282964
C71	C	0.056994	1.038644	-0.452049
C72	C	0.556994	1.538644	0.047951
C73	C	0.056992	1.038647	-0.548031
C74	C	0.556992	1.538647	-0.048031
C75	C	0.170033	0.925547	-0.548026
C76	C	0.670033	1.425547	-0.048026
C77	C	0.170030	0.925541	-0.452046
C78	C	0.670030	1.425541	0.047954
C79	C	0.113512	0.982094	-0.404060
C80	C	0.613512	1.482094	0.095940
C81	C	0.113513	0.982103	-0.596021
C82	C	0.613513	1.482103	-0.096021
C83	C	0.113511	0.982105	-0.700088
C84	C	0.613511	1.482105	-0.200088
C85	C	0.113513	0.982092	-0.299987
C86	C	0.613513	1.482092	0.200013
N87	N	0.113512	0.982108	0.216954
N88	N	0.613512	1.482108	0.716954
H89	H	-0.025296	0.421461	-0.000029
H90	H	0.474704	0.921461	0.499971
H91	H	-0.325850	1.120897	-0.000049
H92	H	0.174150	1.620897	0.499951
H93	H	-0.022518	0.578792	-0.000029
H94	H	0.477482	1.078792	0.499971
O95	O	-0.455949	0.823067	-0.000037
O96	O	0.044051	1.323067	0.499963
H97	H	-0.525204	0.834602	-0.000050
H98	H	-0.025204	1.334602	0.499950
O99	O	-0.275694	0.826237	-0.000040
O100	O	0.224306	1.326237	0.499960
H101	H	-0.313501	0.772780	-0.000050
H102	H	0.186499	1.272780	0.499950
H103	H	-0.483167	1.118130	-0.000032
H104	H	0.016833	1.618130	0.499968
H105	H	0.010973	1.084693	-0.412982
H106	H	0.510973	1.584693	0.087018
H107	H	0.216054	0.879487	-0.412971
H108	H	0.716054	1.379487	0.087029
H109	H	0.216050	0.879503	-0.587105
H110	H	0.716050	1.379503	-0.087105
O111	O	0.269365	0.371310	-0.000035
O112	O	0.769365	0.871310	0.499965
H113	H	0.322819	0.409122	-0.000024
H114	H	0.822819	0.909122	0.499976
H115	H	0.252317	0.542722	-0.000031
H116	H	0.752317	1.042722	0.499969
O117	O	-0.003955	1.099650	-0.599794
O118	O	0.496045	1.599650	-0.099794
H119	H	-0.043246	1.138977	-0.550298
H120	H	0.456754	1.638977	-0.050298
