data_functionalizedCrystal
_audit_creation_method	'MofGen! by Chris Wilmer'
_symmetry_space_group_name_H-M	'P1'
_symmetry_Int_Tables_number	1
_symmetry_cell_setting	triclinic
loop_
_symmetry_equiv_pos_as_xyz
  x,y,z
_cell_length_a	10.908878
_cell_length_b	10.967829
_cell_length_c	16.776229
_cell_angle_alpha	77.865496
_cell_angle_beta	89.992641
_cell_angle_gamma	72.684712
loop_
_atom_site_label
_atom_site_type_symbol
_atom_site_fract_x
_atom_site_fract_y
_atom_site_fract_z
O1	O	1.702159	-0.192378	-0.039848
O2	O	1.329155	-0.095111	-0.053213
O3	O	1.524256	-0.327181	-0.021330
O4	O	1.507057	0.039691	-0.071732
O5	O	1.524230	-0.327187	0.111248
O6	O	1.329128	-0.095118	0.079364
O7	O	1.702133	-0.192385	0.092729
Zn8	Zn	1.515627	-0.143752	0.107096
Zn9	Zn	1.515661	-0.143744	-0.067580
O10	O	1.507031	0.039685	0.060846
C11	C	1.281380	-0.086024	0.011826
C12	C	1.139067	-0.058954	0.008106
C13	C	1.522990	-0.373414	0.051309
C14	C	1.519240	-0.511162	0.070228
C15	C	1.089185	-0.157729	0.021676
C16	C	0.942097	-0.129753	0.017831
C17	C	1.517582	-0.572565	0.009983
C18	C	1.513706	-0.714934	0.029535
C19	C	1.749908	-0.201471	0.027688
C20	C	1.892221	-0.228542	0.031403
C21	C	1.508298	0.085918	-0.011794
C22	C	1.512048	0.223666	-0.030719
N23	N	1.515612	-0.143761	0.226309
N24	N	1.515685	-0.143747	-0.186791
C25	C	1.602030	-0.246492	0.282140
C26	C	1.602037	-0.246494	0.365592
C27	C	1.515632	-0.143760	0.393211
C28	C	1.429204	-0.041022	0.337373
C29	C	1.429192	-0.041026	0.253923
C30	C	1.429251	-0.041008	0.673919
C31	C	1.429273	-0.041010	0.757375
C32	C	1.602096	-0.246476	0.785588
C33	C	1.602084	-0.246479	0.702137
C34	C	1.515653	-0.143746	0.646307
C35	C	1.515645	-0.143746	0.555819
C36	C	1.515645	-0.143754	0.483697
H37	H	1.155374	-0.263006	0.036135
C38	C	0.981620	-0.370778	0.050943
C39	C	0.975153	-0.463552	-0.005155
C40	C	1.064552	-0.605785	0.014385
C41	C	1.160419	-0.655244	0.090023
C42	C	1.166890	-0.562469	0.146126
C43	C	1.077491	-0.420236	0.126587
H44	H	0.904183	-0.426941	-0.061151
H45	H	1.059761	-0.674463	-0.027147
H46	H	1.226598	-0.760533	0.104487
H47	H	1.237860	-0.599080	0.202123
H48	H	1.082282	-0.351558	0.168119
H49	H	1.358906	0.042652	0.779859
H50	H	0.875913	-0.024468	0.003363
H51	H	1.358845	0.042623	0.359866
H52	H	1.358820	0.042627	0.208465
H53	H	1.072878	0.046323	-0.006361
H54	H	1.358878	0.042643	0.628468
H55	H	1.519026	-0.519732	-0.056071
H56	H	1.512248	-0.767758	0.095592
C57	C	1.514006	-0.704987	-0.119962
C58	C	1.627540	-0.653194	-0.146879
C59	C	1.629498	-0.581848	-0.236121
C60	C	1.517922	-0.562295	-0.298444
C61	C	1.404378	-0.614089	-0.271528
C62	C	1.402421	-0.685435	-0.182287
H63	H	1.710144	-0.667667	-0.100742
H64	H	1.713551	-0.543507	-0.256045
H65	H	1.519371	-0.509481	-0.364506
H66	H	1.321775	-0.599616	-0.317665
H67	H	1.318368	-0.723776	-0.162362
C68	C	1.697080	-0.359504	0.251764
C69	C	1.693683	-0.500900	0.282675
C70	C	1.788732	-0.613918	0.252303
C71	C	1.887179	-0.585541	0.191019
C72	C	1.890580	-0.444139	0.160104
C73	C	1.795531	-0.331121	0.190476
H74	H	1.620803	-0.521912	0.328044
H75	H	1.786214	-0.718594	0.275188
H76	H	1.957540	-0.669205	0.168536
H77	H	1.963460	-0.423127	0.114735
H78	H	1.798049	-0.226446	0.167591
C79	C	1.517282	-0.582519	0.159465
C80	C	1.403747	-0.634314	0.186379
C81	C	1.401789	-0.705668	0.275618
C82	C	1.513365	-0.725227	0.337944
C83	C	1.626909	-0.673431	0.311031
C84	C	1.628867	-0.602077	0.221792
H85	H	1.321144	-0.619837	0.140241
H86	H	1.317736	-0.744011	0.295540
H87	H	1.511916	-0.778047	0.404004
H88	H	1.709512	-0.687908	0.357169
H89	H	1.712920	-0.563734	0.201869
H90	H	1.672448	-0.330132	0.679653
C91	C	1.697101	-0.359494	0.427010
C92	C	1.792185	-0.472478	0.396635
C93	C	1.887250	-0.585482	0.458055
C94	C	1.887233	-0.585501	0.549850
C95	C	1.792146	-0.472513	0.580230
C96	C	1.697080	-0.359509	0.518810
H97	H	1.792201	-0.472467	0.328678
H98	H	1.957640	-0.669123	0.435565
H99	H	1.957606	-0.669153	0.595317
H100	H	1.792130	-0.472523	0.648186
H101	H	1.626690	-0.275867	0.541299
C102	C	1.697165	-0.359496	0.847004
C103	C	1.697185	-0.359511	0.938798
C104	C	1.792254	-0.472525	1.000210
C105	C	1.887302	-0.585523	0.969828
C106	C	1.887286	-0.585512	0.878029
C107	C	1.792217	-0.472498	0.816617
H108	H	1.626821	-0.275859	0.961293
H109	H	1.792266	-0.472532	1.068166
H110	H	1.957678	-0.669183	1.015289
H111	H	1.957649	-0.669164	0.855534
H112	H	1.792205	-0.472491	0.748661
