data_functionalizedCrystal
_audit_creation_method	'MofGen! by Chris Wilmer'
_symmetry_space_group_name_H-M	'P1'
_symmetry_Int_Tables_number	1
_symmetry_cell_setting	triclinic
loop_
_symmetry_equiv_pos_as_xyz
  x,y,z
_cell_length_a	12.784905
_cell_length_b	15.944493
_cell_length_c	11.892095
_cell_angle_alpha	93.894412
_cell_angle_beta	86.511728
_cell_angle_gamma	78.291182
loop_
_atom_site_label
_atom_site_type_symbol
_atom_site_fract_x
_atom_site_fract_y
_atom_site_fract_z
O1	O	1.417111	-0.000604	-0.094010
O2	O	1.107649	0.035370	-0.094006
O3	O	1.270864	-0.105516	-0.094017
O4	O	1.253897	0.140281	-0.093998
O5	O	1.257255	-0.093786	0.093991
O6	O	1.094041	0.047100	0.094003
O7	O	1.403503	0.011126	0.093998
Zn8	Zn	1.246611	0.030975	0.123851
Zn9	Zn	1.264541	0.015520	-0.123858
O10	O	1.240288	0.152012	0.094010
C11	C	1.061245	0.043574	-0.000001
C12	C	0.943250	0.050536	-0.000001
C13	C	0.746896	-0.091294	-0.000032
C14	C	0.636029	-0.084758	-0.000031
C15	C	0.610650	0.070145	-0.000007
C16	C	0.721516	0.063608	-0.000007
C17	C	0.789636	-0.017114	-0.000018
C18	C	0.900503	-0.023650	-0.000011
C19	C	0.875122	0.131251	0.000006
C20	C	0.764256	0.137788	0.000006
C21	C	1.263367	-0.130895	-0.000018
C22	C	1.261289	-0.223993	-0.000032
C23	C	1.357359	-0.466773	-0.000012
C24	C	1.312261	-0.519338	-0.092709
C25	C	1.257436	-0.394431	-0.000018
C26	C	1.298820	-0.507747	0.092653
C27	C	1.253721	-0.559069	-0.000000
C28	C	1.212370	-0.445775	-0.092792
C29	C	1.198939	-0.434177	0.092653
C30	C	1.153769	-0.486705	-0.000066
C31	C	1.259579	-0.299589	-0.000030
C32	C	1.251571	-0.653908	0.000003
C33	C	1.449907	0.002921	-0.000009
C34	C	1.567903	-0.004041	-0.000017
C35	C	1.247786	0.177391	0.000008
C36	C	1.249864	0.270488	0.000015
N37	N	1.234382	0.041522	0.292906
N38	N	1.276778	0.004966	-0.292913
C39	C	1.361872	-0.068470	0.529545
C40	C	1.353332	-0.061092	0.647887
C41	C	1.208758	0.063650	0.647935
C42	C	1.217298	0.056273	0.529593
C43	C	1.293859	-0.009789	0.470402
C44	C	1.302403	-0.017162	0.352057
C45	C	1.157824	0.107576	0.352108
C46	C	1.149284	0.114954	0.470450
H47	H	0.802359	-0.157021	-0.000033
C48	C	1.125521	0.135391	0.712008
C49	C	1.067757	0.185191	0.634887
C50	C	0.991055	0.251276	0.693869
H51	H	1.160278	0.170552	0.758185
H52	H	1.077901	0.111273	0.758145
H53	H	1.115370	0.209309	0.588770
H54	H	1.032977	0.150056	0.588708
H55	H	0.943435	0.227157	0.740006
H56	H	1.025821	0.286429	0.740044
H57	H	0.951847	0.285069	0.641552
H58	H	1.175874	-0.418768	-0.171243
H59	H	1.335368	-0.534875	0.171015
H60	H	1.424218	-0.122254	0.481350
H61	H	1.408714	-0.108877	0.696038
H62	H	1.360132	-0.556258	-0.171079
H63	H	1.364745	-0.070950	0.303865
C64	C	1.135156	-0.385084	0.197253
C65	C	1.094268	-0.442424	0.262924
C66	C	1.035528	-0.397232	0.359307
H67	H	1.077665	-0.343267	0.175151
H68	H	1.180549	-0.357358	0.240202
H69	H	1.048879	-0.470136	0.219983
H70	H	1.151736	-0.484242	0.285055
H71	H	1.080920	-0.369507	0.402256
H72	H	0.978042	-0.355417	0.337194
H73	H	1.007787	-0.436132	0.403882
H74	H	1.086947	0.168738	0.518657
H75	H	1.102446	0.155361	0.303940
H76	H	0.909932	0.191655	0.000022
C77	C	1.038918	-0.498910	-0.000359
C78	C	0.994140	-0.467362	-0.097587
C79	C	0.888349	-0.478602	-0.097907
H80	H	0.998334	-0.468523	0.064791
H81	H	1.038117	-0.558332	0.000207
H82	H	0.994934	-0.407950	-0.098142
H83	H	1.034692	-0.497742	-0.162753
H84	H	0.887548	-0.538024	-0.097342
H85	H	0.847775	-0.448215	-0.032753
H86	H	0.857957	-0.457206	-0.163880
C87	C	0.589827	-0.165393	0.000014
C88	C	0.673214	-0.237479	0.000032
C89	C	0.630693	-0.311778	0.000086
H90	H	0.551864	-0.170271	-0.065530
H91	H	0.542389	-0.162022	0.065604
H92	H	0.720633	-0.240850	-0.065551
H93	H	0.711184	-0.232630	0.065572
H94	H	0.583255	-0.308407	0.065676
H95	H	0.592731	-0.316646	-0.065459
H96	H	0.687263	-0.360696	0.000109
H97	H	0.955965	-0.089378	-0.000018
H98	H	0.555170	0.135864	-0.000013
H99	H	0.708779	0.203509	0.000011
H100	H	1.443437	-0.457441	-0.000107
