data_functionalizedCrystal
_audit_creation_method	'MofGen! by Chris Wilmer'
_symmetry_space_group_name_H-M	'P1'
_symmetry_Int_Tables_number	1
_symmetry_cell_setting	triclinic
loop_
_symmetry_equiv_pos_as_xyz
  x,y,z
_cell_length_a	15.944551
_cell_length_b	14.971486
_cell_length_c	13.448316
_cell_angle_alpha	90.006811
_cell_angle_beta	89.997731
_cell_angle_gamma	96.443567
loop_
_atom_site_label
_atom_site_type_symbol
_atom_site_fract_x
_atom_site_fract_y
_atom_site_fract_z
O1	O	1.114636	-0.115362	-0.082589
O2	O	1.447970	0.217971	0.250745
O3	O	1.781303	0.551305	0.584078
O4	O	0.870100	-0.129585	-0.082613
O5	O	1.203434	0.203749	0.250720
O6	O	1.536767	0.537082	0.584053
O7	O	0.998923	0.007734	-0.082593
O8	O	1.332256	0.341067	0.250740
O9	O	1.665589	0.674401	0.584073
O10	O	0.985814	-0.252680	-0.082609
O11	O	1.319148	0.080653	0.250725
O12	O	1.652481	0.413986	0.584058
O13	O	0.998906	0.007742	0.082791
O14	O	1.332240	0.341076	0.416124
O15	O	1.665573	0.674409	0.749457
O16	O	0.870084	-0.129576	0.082770
O17	O	1.203417	0.203757	0.416104
O18	O	1.536751	0.537090	0.749437
O19	O	1.114620	-0.115354	0.082795
O20	O	1.447954	0.217980	0.416129
O21	O	1.781287	0.551313	0.749462
Cu22	Cu	0.992351	-0.122464	0.097884
Cu23	Cu	1.325684	0.210869	0.431217
Cu24	Cu	1.659017	0.544203	0.764550
Cu25	Cu	0.992370	-0.122474	-0.097702
Cu26	Cu	1.325703	0.210859	0.235631
Cu27	Cu	1.659037	0.544193	0.568965
O28	O	0.985798	-0.252672	0.082775
O29	O	1.319131	0.080661	0.416108
O30	O	1.652465	0.413995	0.749442
C31	C	0.838798	-0.128990	0.000075
C32	C	1.172131	0.204343	0.333409
C33	C	1.505464	0.537677	0.666742
C34	C	0.745550	-0.127220	0.000066
C35	C	1.078883	0.206113	0.333399
C36	C	1.412217	0.539447	0.666733
N37	N	0.992343	-0.122456	0.235448
N38	N	1.325677	0.210877	0.568781
N39	N	1.659010	0.544210	0.902115
C40	C	0.998328	0.041062	0.000098
C41	C	1.331662	0.374395	0.333432
C42	C	1.664995	0.707729	0.666765
C43	C	0.996572	0.140357	0.000097
C44	C	1.329905	0.473691	0.333431
C45	C	1.663238	0.807024	0.666764
C46	C	0.530608	-0.037872	0.000091
C47	C	0.863942	0.295461	0.333424
C48	C	1.197275	0.628794	0.666757
C49	C	0.469636	-0.079366	-0.081455
C50	C	0.802969	0.253967	0.251879
C51	C	1.136302	0.587300	0.585212
C52	C	0.574821	-0.124017	0.000078
C53	C	0.908154	0.209316	0.333411
C54	C	1.241488	0.542649	0.666745
C55	C	0.469642	-0.079379	0.081601
C56	C	0.802975	0.253955	0.414934
C57	C	1.136309	0.587288	0.748267
C58	C	0.409905	-0.120918	0.000094
C59	C	0.743239	0.212415	0.333427
C60	C	1.076572	0.545749	0.666761
C61	C	0.515077	-0.165535	-0.081535
C62	C	0.848410	0.167798	0.251799
C63	C	1.181743	0.501131	0.585132
C64	C	0.515089	-0.165535	0.081594
C65	C	0.848423	0.167798	0.414927
C66	C	1.181756	0.501131	0.748261
C67	C	0.454134	-0.207092	0.000029
C68	C	0.787468	0.126241	0.333362
C69	C	1.120801	0.459575	0.666695
C70	C	0.669825	-0.125801	0.000068
C71	C	1.003158	0.207533	0.333401
C72	C	1.336492	0.540866	0.666735
C73	C	0.314903	-0.119141	0.000097
C74	C	0.648236	0.214192	0.333430
C75	C	0.981569	0.547525	0.666763
C76	C	1.145923	-0.115948	0.000104
C77	C	1.479256	0.217385	0.333438
C78	C	1.812590	0.550718	0.666771
C79	C	1.239171	-0.117718	0.000107
C80	C	1.572504	0.215615	0.333440
C81	C	1.905837	0.548948	0.666774
C82	C	0.986392	-0.286000	0.000081
C83	C	1.319726	0.047333	0.333415
C84	C	1.653059	0.380666	0.666748
C85	C	0.988149	-0.385295	0.000076
C86	C	1.321482	-0.051962	0.333409
C87	C	1.654816	0.281371	0.666742
C88	C	1.072251	0.197664	0.000106
C89	C	1.405584	0.530998	0.333439
C90	C	1.738918	0.864331	0.666772
C91	C	1.070595	0.290962	0.000095
C92	C	1.403929	0.624295	0.333429
C93	C	1.737262	0.957629	0.666762
C94	C	0.993259	0.326951	0.000084
C95	C	1.326593	0.660284	0.333417
C96	C	1.659926	0.993618	0.666751
C97	C	0.917574	0.269637	0.000073
C98	C	1.250907	0.602970	0.333406
C99	C	1.584241	0.936303	0.666739
C100	C	0.919230	0.176341	0.000076
C101	C	1.252564	0.509674	0.333409
C102	C	1.585897	0.843007	0.666742
C103	C	0.914127	0.464095	0.000069
C104	C	1.247460	0.797429	0.333402
C105	C	1.580793	1.130762	0.666735
C106	C	0.912470	0.557398	0.000067
C107	C	1.245803	0.890731	0.333401
C108	C	1.579136	1.224064	0.666734
C109	C	1.065491	0.578717	0.000088
C110	C	1.398825	0.912050	0.333422
C111	C	1.732158	1.245383	0.666755
C112	C	1.067148	0.485421	0.000091
C113	C	1.400481	0.818754	0.333425
C114	C	1.733815	1.152087	0.666758
C115	C	0.991462	0.428113	0.000082
C116	C	1.324796	0.761446	0.333415
C117	C	1.658129	1.094779	0.666749
N118	N	0.992384	-0.122475	-0.235266
N119	N	1.325717	0.210859	0.098067
N120	N	1.659051	0.544192	0.431400
C121	C	1.049404	-0.061677	0.287497
C122	C	1.382737	0.271656	0.620831
C123	C	1.716070	0.604990	0.954164
C124	C	1.049409	-0.061676	0.391600
C125	C	1.382742	0.271657	0.724934
C126	C	1.716076	0.604991	1.058267
C127	C	0.992357	-0.122460	0.443653
C128	C	1.325691	0.210873	0.776986
C129	C	1.659024	0.544207	1.110319
C130	C	0.935291	-0.183243	0.391596
C131	C	1.268624	0.150091	0.724929
C132	C	1.601958	0.483424	1.058263
C133	C	0.935282	-0.183238	0.287495
C134	C	1.268616	0.150095	0.620828
C135	C	1.601949	0.483428	0.954161
C136	C	0.935314	-0.183249	0.608576
C137	C	1.268648	0.150085	0.941909
C138	C	1.601981	0.483418	1.275243
C139	C	0.935324	-0.183254	0.712685
C140	C	1.268657	0.150079	1.046018
C141	C	1.601990	0.483412	1.379351
C142	C	1.049441	-0.061686	0.712682
C143	C	1.382774	0.271647	1.046015
C144	C	1.716107	0.604980	1.379349
C145	C	1.049432	-0.061682	0.608581
C146	C	1.382766	0.271651	0.941914
C147	C	1.716099	0.604985	1.275247
C148	C	0.992367	-0.122466	0.556531
C149	C	1.325700	0.210867	0.889864
C150	C	1.659033	0.544201	1.223198
H151	H	0.563873	0.033621	-0.000006
H152	H	0.897206	0.366954	0.333327
H153	H	1.230540	0.700288	0.666661
Cl154	Cl	0.546218	-0.221738	0.188033
Cl155	Cl	0.879552	0.111596	0.521366
Cl156	Cl	1.212885	0.444929	0.854699
H157	H	1.130122	0.456122	0.000108
H158	H	1.463455	0.789455	0.333441
H159	H	1.796788	1.122789	0.666775
Cl160	Cl	1.121180	0.014725	0.778119
Cl161	Cl	1.454513	0.348058	1.111452
Cl162	Cl	1.787847	0.681391	1.444785
Cl163	Cl	1.169479	0.152431	0.000130
Cl164	Cl	1.502813	0.485765	0.333464
Cl165	Cl	1.836146	0.819098	0.666797
Cl166	Cl	0.818977	0.392052	0.000056
Cl167	Cl	1.152310	0.725386	0.333389
Cl168	Cl	1.485644	1.058719	0.666723
Cl169	Cl	0.824086	0.104297	0.000061
Cl170	Cl	1.157420	0.437630	0.333395
Cl171	Cl	1.490753	0.770963	0.666728
Cl172	Cl	1.165740	0.363002	0.000109
Cl173	Cl	1.499073	0.696335	0.333442
Cl174	Cl	1.832407	1.029669	0.666776
H175	H	1.095865	-0.012183	0.245123
H176	H	1.429198	0.321150	0.578457
H177	H	1.762532	0.654483	0.911790
H178	H	0.888843	-0.232743	0.566201
H179	H	1.222176	0.100591	0.899534
H180	H	1.555509	0.433924	1.232868
Cl181	Cl	0.863543	-0.259648	0.222062
Cl182	Cl	1.196876	0.073686	0.555395
Cl183	Cl	1.530210	0.407019	0.888729
Cl184	Cl	1.160639	0.650760	0.000095
Cl185	Cl	1.493973	0.984093	0.333428
Cl186	Cl	1.827306	1.317427	0.666762
H187	H	1.095871	-0.012184	0.433979
H188	H	1.429204	0.321149	0.767312
H189	H	1.762538	0.654482	1.100645
H190	H	0.449498	-0.042934	-0.150391
H191	H	0.782831	0.290399	0.182942
H192	H	1.116164	0.623733	0.516275
Cl193	Cl	1.121159	0.014727	0.543142
Cl194	Cl	1.454492	0.348060	0.876475
Cl195	Cl	1.787826	0.681393	1.209808
H196	H	0.449514	-0.042923	0.150539
H197	H	0.782848	0.290410	0.483872
H198	H	1.116181	0.623743	0.817205
H199	H	0.535106	-0.201947	-0.150550
H200	H	0.868439	0.131386	0.182783
H201	H	1.201772	0.464719	0.516116
H202	H	0.888865	-0.232750	0.755060
H203	H	1.222199	0.100583	1.088393
H204	H	1.555532	0.433917	1.421727
H205	H	0.421044	-0.278659	-0.000021
H206	H	0.754377	0.054674	0.333312
H207	H	1.087711	0.388007	0.666646
Cl208	Cl	0.815246	0.602640	0.000054
Cl209	Cl	1.148579	0.935973	0.333387
Cl210	Cl	1.481912	1.269306	0.666721
Cl211	Cl	0.820351	0.314880	0.000046
Cl212	Cl	1.153684	0.648213	0.333379
Cl213	Cl	1.487017	0.981546	0.666713
Cl214	Cl	0.863563	-0.259654	0.457031
Cl215	Cl	1.196897	0.073679	0.790364
Cl216	Cl	1.530230	0.407013	1.123697
