data_functionalizedCrystal
_audit_creation_method	'MofGen! by Chris Wilmer'
_symmetry_space_group_name_H-M	'P1'
_symmetry_Int_Tables_number	1
_symmetry_cell_setting	triclinic
loop_
_symmetry_equiv_pos_as_xyz
  x,y,z
_cell_length_a	16.992694
_cell_length_b	12.996460
_cell_length_c	16.974813
_cell_angle_alpha	93.660707
_cell_angle_beta	87.024634
_cell_angle_gamma	89.999814
loop_
_atom_site_label
_atom_site_type_symbol
_atom_site_fract_x
_atom_site_fract_y
_atom_site_fract_z
O1	O	1.040212	0.099396	0.167651
O2	O	0.811929	0.099273	0.165812
O3	O	0.932434	0.089777	0.052030
O4	O	0.919707	0.108891	0.281433
O5	O	0.932422	-0.081357	0.052022
O6	O	0.811916	-0.071862	0.165804
O7	O	1.040199	-0.071739	0.167644
Cu8	Cu	0.926057	-0.087426	0.166723
Cu9	Cu	0.926071	0.114960	0.166732
O10	O	0.919694	-0.062243	0.281426
C11	C	0.782712	0.013512	0.163442
C12	C	0.695676	0.012936	0.156382
N13	N	0.926052	-0.229774	0.166717
C14	C	0.645362	0.018611	0.224498
C15	C	0.563583	0.018043	0.217860
C16	C	0.532119	0.011809	0.143106
C17	C	0.582439	0.006131	0.074985
C18	C	0.664217	0.006691	0.081624
C19	C	0.288550	0.009489	0.115591
C20	C	0.206766	0.008932	0.108957
C21	C	0.187916	0.020843	0.251833
C22	C	0.269696	0.021409	0.258466
C23	C	0.320009	0.015725	0.190345
N24	N	0.448527	0.011232	0.136319
N25	N	0.403599	0.016295	0.197132
C26	C	0.926070	-0.649587	0.166733
C27	C	0.926063	-0.532782	0.166731
C28	C	0.926062	-0.439684	0.166726
C29	C	0.926053	-0.322872	0.166722
C30	C	1.069416	0.014024	0.170013
C31	C	1.156452	0.014607	0.177073
C32	C	0.931944	0.001756	0.022537
C33	C	0.930491	-0.005558	-0.065332
N34	N	0.926082	0.257307	0.166733
C35	C	0.929818	0.084291	-0.106604
C36	C	0.928448	0.077415	-0.189166
C37	C	0.927758	-0.019310	-0.230454
C38	C	0.928429	-0.109165	-0.189176
C39	C	0.929793	-0.102289	-0.106615
C40	C	0.923672	-0.049878	-0.477374
C41	C	0.922311	-0.056748	-0.559941
C42	C	0.922328	0.129834	-0.559925
C43	C	0.923697	0.136701	-0.477363
C44	C	0.924364	0.046846	-0.436092
N45	N	0.926360	-0.026340	-0.314845
N46	N	0.925756	0.053877	-0.351701
C47	C	0.920185	0.025781	0.310918
C48	C	0.921637	0.033101	0.398787
H49	H	0.670973	0.023688	0.285371
H50	H	0.522620	0.022665	0.273328
C51	C	0.304300	0.028251	0.340701
N52	N	0.330363	0.033402	0.402642
C53	C	0.930577	0.190697	-0.061194
N54	N	0.931145	0.270845	-0.026994
C55	C	0.927664	-0.215564	-0.234596
N56	N	0.927089	-0.295706	-0.268805
C57	C	0.921585	0.228668	-0.605329
N58	N	0.921022	0.303114	-0.639528
C59	C	0.921548	-0.163157	-0.605356
N60	N	0.920975	-0.243301	-0.639563
H61	H	0.181152	0.003856	0.048080
H62	H	0.329506	0.004860	0.060122
C63	C	0.547825	-0.000729	-0.007246
N64	N	0.521756	-0.005892	-0.069184
H65	H	0.924231	-0.123045	-0.443782
C66	C	0.719562	0.000451	0.006691
N67	N	0.761247	-0.004251	-0.049752
H68	H	0.146942	0.025468	0.307293
C69	C	0.930536	-0.201130	-0.061216
N70	N	0.931094	-0.275580	-0.027023
H71	H	0.927903	0.150580	-0.222766
C72	C	0.924456	0.243106	-0.431952
N73	N	0.925031	0.323252	-0.397748
