data_functionalizedCrystal
_audit_creation_method	'MofGen! by Chris Wilmer'
_symmetry_space_group_name_H-M	'P1'
_symmetry_Int_Tables_number	1
_symmetry_cell_setting	triclinic
loop_
_symmetry_equiv_pos_as_xyz
  x,y,z
_cell_length_a	13.033291
_cell_length_b	13.032868
_cell_length_c	17.077396
_cell_angle_alpha	82.848957
_cell_angle_beta	82.791171
_cell_angle_gamma	74.808427
loop_
_atom_site_label
_atom_site_type_symbol
_atom_site_fract_x
_atom_site_fract_y
_atom_site_fract_z
Zn1	Zn	1.570173	0.216827	-0.614564
Zn2	Zn	2.070173	0.716827	-0.114564
Zn3	Zn	1.547467	0.394474	-0.498066
Zn4	Zn	2.047467	0.894474	0.001934
Zn5	Zn	1.392535	0.239401	-0.468489
Zn6	Zn	1.892535	0.739401	0.031511
Zn7	Zn	1.369924	0.416937	-0.614465
Zn8	Zn	1.869924	0.916937	-0.114465
O9	O	1.470025	0.316910	-0.548896
O10	O	1.970025	0.816910	-0.048896
O11	O	1.715806	0.221545	-0.611530
O12	O	2.215806	0.721545	-0.111530
O13	O	1.526875	0.373950	-0.384296
O14	O	2.026875	0.873950	0.115704
O15	O	1.435064	0.087761	-0.475529
O16	O	1.935064	0.587761	0.024471
O17	O	1.699124	0.352061	-0.525939
O18	O	2.199124	0.852061	-0.025939
O19	O	1.565574	0.071177	-0.582850
O20	O	2.065574	0.571177	-0.082850
O21	O	1.413047	0.260018	-0.362566
O22	O	1.913047	0.760018	0.137434
O23	O	1.240891	0.281799	-0.475433
O24	O	1.740891	0.781799	0.024567
O25	O	1.396527	0.390346	-0.724324
O26	O	1.896527	0.890346	-0.224324
O27	O	1.224279	0.412234	-0.582681
O28	O	1.724279	0.912234	-0.082681
O29	O	1.543649	0.243326	-0.724397
O30	O	2.043649	0.743326	-0.224397
O31	O	1.504950	0.546099	-0.525843
O32	O	2.004950	1.046099	-0.025843
O33	O	1.374510	0.562602	-0.611360
O34	O	1.874510	1.062602	-0.111360
C35	C	1.194043	0.351905	-0.525837
C36	C	1.694043	0.851905	-0.025837
C37	C	1.075973	0.366901	-0.515994
C38	C	1.575973	0.866901	-0.015994
C39	C	0.909548	0.324600	-0.543867
C40	C	1.409548	0.824600	-0.043867
C41	C	1.031579	0.309102	-0.554041
C42	C	1.531579	0.809102	-0.054041
C43	C	1.434841	0.592889	-0.571820
C44	C	1.934841	1.092889	-0.071820
C45	C	1.419887	0.710942	-0.581661
C46	C	1.919887	1.210942	-0.081661
C47	C	1.477816	0.755366	-0.543777
C48	C	1.977816	1.255366	-0.043777
C49	C	1.462362	0.877380	-0.553947
C50	C	1.962362	1.377380	-0.053947
C51	C	1.747084	0.281779	-0.572045
C52	C	2.247084	0.781779	-0.072045
C53	C	1.865150	0.266808	-0.581909
C54	C	2.365150	0.766808	-0.081909
C55	C	1.470099	0.316823	-0.753639
C56	C	1.970099	0.816823	-0.253639
C57	C	1.470131	0.316787	-0.840888
C58	C	1.970131	0.816787	-0.340888
C59	C	1.505339	1.039854	-0.525890
C60	C	2.005339	1.539854	-0.025890
C61	C	1.520299	0.921800	-0.516057
C62	C	2.020299	1.421800	-0.016057
C63	C	1.546740	0.240227	-0.881917
C64	C	2.046740	0.740227	-0.381917
C65	C	1.546758	0.240190	-0.963896
C66	C	2.046758	0.740190	-0.463896
C67	C	1.470169	0.316718	-1.004845
C68	C	1.970169	0.816718	-0.504845
C69	C	1.393551	0.393281	-0.963810
C70	C	1.893551	0.893281	-0.463810
C71	C	1.393530	0.393313	-0.881832
C72	C	1.893530	0.893313	-0.381832
C73	C	1.393602	0.393212	-1.134678
C74	C	1.893602	0.893212	-0.634678
C75	C	1.393624	0.393182	-1.216662
C76	C	1.893624	0.893182	-0.716662
C77	C	1.546830	0.240090	-1.216742
C78	C	2.046830	0.740090	-0.716742
C79	C	1.546808	0.240121	-1.134764
C80	C	2.046808	0.740121	-0.634764
C81	C	1.470192	0.316686	-1.093735
C82	C	1.970192	0.816686	-0.593735
C83	C	1.470022	0.316911	-0.344948
C84	C	1.970022	0.816911	0.155052
C85	C	1.470234	0.316623	-0.257691
C86	C	1.970234	0.816623	0.242309
H87	H	1.083908	0.248143	-0.594141
H88	H	1.583908	0.748143	-0.094141
H89	H	1.023646	0.427856	-0.475890
H90	H	1.523646	0.927856	0.024110
H91	H	1.581344	0.869507	-0.476094
H92	H	2.081344	1.369507	0.023906
H93	H	1.331188	0.455588	-0.997156
H94	H	1.831188	0.955588	-0.497156
C95	C	1.631108	0.155867	-1.261876
C96	C	2.131108	0.655867	-0.761876
N97	N	1.694587	0.092436	-1.295875
N98	N	2.194587	0.592436	-0.795875
C99	C	0.935844	0.184464	-0.636084
C100	C	1.435844	0.684464	-0.136084
N101	N	0.989090	0.122440	-0.676891
N102	N	1.489090	0.622440	-0.176891
C103	C	1.560276	0.684720	-0.489785
C104	C	2.060276	1.184720	0.010215
N105	N	1.622385	0.631511	-0.449116
N106	N	2.122385	1.131511	0.050884
H107	H	1.331257	0.455496	-1.250000
H108	H	1.831257	0.955496	-0.750000
C109	C	1.379896	0.948022	-0.607940
C110	C	1.879896	1.448022	-0.107940
N111	N	1.317782	1.001232	-0.648605
N112	N	1.817782	1.501232	-0.148605
C113	C	1.337425	0.781588	-0.635651
C114	C	1.837425	1.281588	-0.135651
N115	N	1.275311	0.834798	-0.676316
N116	N	1.775311	1.334798	-0.176316
C117	C	1.630994	0.156039	-0.836881
C118	C	2.130994	0.656039	-0.336881
N119	N	1.694454	0.092621	-0.802961
N120	N	2.194454	0.592621	-0.302961
C121	C	1.631036	0.155971	-1.009025
C122	C	2.131036	0.655971	-0.509025
N123	N	1.694518	0.092533	-1.043015
N124	N	2.194518	0.592533	-0.543015
C125	C	1.309323	0.477441	-1.089548
C126	C	1.809323	0.977441	-0.589548
N127	N	1.245849	0.540885	-1.055557
N128	N	1.745849	1.040885	-0.555557
H129	H	1.609179	0.177811	-1.101427
H130	H	2.109179	0.677811	-0.601427
H131	H	1.331137	0.455646	-0.848425
H132	H	1.831137	0.955646	-0.348425
H133	H	0.857217	0.385545	-0.503763
H134	H	1.357217	0.885545	-0.003763
