data_functionalizedCrystal
_audit_creation_method	'MofGen! by Chris Wilmer'
_symmetry_space_group_name_H-M	'P1'
_symmetry_Int_Tables_number	1
_symmetry_cell_setting	triclinic
loop_
_symmetry_equiv_pos_as_xyz
  x,y,z
_cell_length_a	14.519709
_cell_length_b	14.519709
_cell_length_c	12.996460
_cell_angle_alpha	89.999398
_cell_angle_beta	90.001234
_cell_angle_gamma	96.319855
loop_
_atom_site_label
_atom_site_type_symbol
_atom_site_fract_x
_atom_site_fract_y
_atom_site_fract_z
O1	O	0.120885	-1.223870	0.085435
O2	O	0.135121	-0.955394	0.085467
O3	O	-0.006235	-1.096750	0.085441
O4	O	0.262242	-1.082514	0.085461
O5	O	-0.006227	-1.096732	-0.085693
O6	O	0.135130	-0.955375	-0.085667
O7	O	0.120893	-1.223852	-0.085699
Cu8	Cu	0.128012	-1.089612	-0.101309
Cu9	Cu	0.128002	-1.089634	0.101077
O10	O	0.262250	-1.082496	-0.085673
C11	C	-0.040591	-1.096078	-0.000126
C12	C	-0.142972	-1.094090	-0.000126
C13	C	0.134462	-0.921025	-0.000096
C14	C	0.132474	-0.818643	-0.000084
C15	C	0.121553	-1.258221	-0.000134
C16	C	0.123541	-1.360602	-0.000139
C17	C	-0.517868	-1.086770	-0.000099
C18	C	-0.413560	-1.088803	-0.000107
C19	C	-0.330423	-1.090430	-0.000114
C20	C	-0.226109	-1.092463	-0.000120
C21	C	0.296606	-1.083168	-0.000103
C22	C	0.398987	-1.085156	-0.000096
N23	N	0.128018	-1.089604	-0.243656
C24	C	0.125154	-0.443748	-0.000132
C25	C	0.127187	-0.548056	-0.000118
C26	C	0.128814	-0.631192	-0.000107
C27	C	0.130847	-0.735507	-0.000095
C28	C	0.128021	-1.089608	-0.336762
C29	C	0.128015	-1.089616	-0.453567
C30	C	0.128004	-1.089628	-0.546665
C31	C	0.127999	-1.089638	-0.663478
N32	N	0.127989	-1.089649	0.243424
