data_functionalizedCrystal
_audit_creation_method	'MofGen! by Chris Wilmer'
_symmetry_space_group_name_H-M	'P1'
_symmetry_Int_Tables_number	1
_symmetry_cell_setting	triclinic
loop_
_symmetry_equiv_pos_as_xyz
  x,y,z
_cell_length_a	13.339070
_cell_length_b	13.262390
_cell_length_c	12.376457
_cell_angle_alpha	63.168449
_cell_angle_beta	75.599583
_cell_angle_gamma	80.569975
loop_
_atom_site_label
_atom_site_type_symbol
_atom_site_fract_x
_atom_site_fract_y
_atom_site_fract_z
O1	O	-0.021074	1.518971	-0.561025
O2	O	-0.055901	1.202701	-0.463785
O3	O	0.106628	1.324539	-0.501249
O4	O	-0.183602	1.397133	-0.523561
O5	O	0.066049	1.294079	-0.303870
O6	O	-0.096480	1.172241	-0.266406
O7	O	-0.061653	1.488510	-0.363647
Zn8	Zn	-0.085509	1.325539	-0.283689
Zn9	Zn	-0.032044	1.365672	-0.543743
O10	O	-0.224182	1.366673	-0.326183
C11	C	-0.077970	1.146165	-0.352396
C12	C	-0.083262	1.023083	-0.314553
C13	C	-0.009681	0.742558	-0.638263
C14	C	-0.004704	0.858199	-0.673819
C15	C	-0.024343	0.899426	-0.584006
C16	C	-0.048960	0.825000	-0.458630
C17	C	-0.053929	0.709345	-0.423069
C18	C	-0.068592	0.866214	-0.368812
C19	C	-0.093208	0.791787	-0.243436
C20	C	-0.098177	0.676145	-0.207882
C21	C	-0.078538	0.634918	-0.297695
C22	C	-0.063622	0.981868	-0.404373
C23	C	-0.107871	0.948656	-0.189179
C24	C	-0.112848	0.833014	-0.153623
C25	C	-0.240856	1.394165	-0.428642
C26	C	-0.350994	1.430717	-0.439877
C27	C	-0.732610	1.146509	-0.352510
C28	C	-0.629135	1.112160	-0.341933
C29	C	-0.559594	1.191797	-0.366419
C30	C	-0.593540	1.305787	-0.401482
C31	C	-0.697028	1.340138	-0.412051
C32	C	-0.524012	1.385426	-0.425960
C33	C	-0.557957	1.499417	-0.461023
C34	C	-0.661435	1.533762	-0.471591
C35	C	-0.730975	1.454125	-0.447106
C36	C	-0.420524	1.351075	-0.415391
C37	C	-0.384941	1.544705	-0.474932
C38	C	-0.488417	1.579053	-0.485509
C39	C	0.123302	1.297047	-0.398793
C40	C	0.233442	1.260496	-0.387565
C41	C	-0.039583	1.545047	-0.475038
C42	C	-0.034290	1.668130	-0.512889
N43	N	-0.121997	1.298157	-0.106211
N44	N	0.004451	1.393061	-0.721223
C45	C	0.089170	1.456617	0.200050
C46	C	0.114707	1.475775	0.075819
C47	C	0.055534	1.431372	0.030305
C48	C	-0.029182	1.367808	0.109035
C49	C	-0.054727	1.348655	0.233276
C50	C	-0.088363	1.323410	0.063531
C51	C	-0.173079	1.259846	0.142261
C52	C	-0.198619	1.240696	0.266489
C53	C	-0.139446	1.285099	0.312003
C54	C	-0.062818	1.342563	-0.060709
C55	C	-0.206716	1.234601	-0.027483
C56	C	-0.232253	1.215443	0.096747
H57	H	-0.082592	0.540755	-0.268752
C58	C	-0.124748	0.595444	-0.071706
C59	C	-0.050764	0.599376	-0.011073
C60	C	-0.075214	0.525064	0.114376
H61	H	-0.124878	0.520611	-0.063208
H62	H	-0.191391	0.617217	-0.036229
H63	H	0.015861	0.577595	-0.046539
H64	H	-0.050623	0.674190	-0.019535
H65	H	-0.141856	0.546838	0.149853
H66	H	-0.075344	0.450237	0.122861
H67	H	-0.025025	0.527730	0.155533
C68	C	-0.290610	1.171618	0.351785
C69	C	-0.336952	1.136806	0.285350
C70	C	-0.421688	1.073160	0.363884
H71	H	-0.339696	1.216628	0.384107
H72	H	-0.267563	1.107030	0.417797
H73	H	-0.360001	1.201384	0.219361
H74	H	-0.287894	1.091781	0.253030
H75	H	-0.398641	1.008572	0.429896
H76	H	-0.470766	1.118177	0.396202
H77	H	-0.453135	1.049523	0.318823
H78	H	-0.020291	0.993588	-0.612964
H79	H	0.015344	0.918788	-0.775900
C80	C	0.011504	0.697973	-0.735899
C81	C	-0.060062	0.750345	-0.813849
C82	C	-0.040569	0.709312	-0.903821
H83	H	0.005000	0.618456	-0.696923
H84	H	0.079777	0.714150	-0.783049
H85	H	-0.128318	0.734159	-0.766705
H86	H	-0.053571	0.829859	-0.852854
H87	H	0.027704	0.725489	-0.950971
H88	H	-0.047072	0.629796	-0.864834
H89	H	-0.089116	0.744847	-0.956727
C90	C	0.206752	1.544759	-0.009442
C91	C	0.253125	1.579519	0.057010
C92	C	0.337933	1.643058	-0.021490
H93	H	0.183802	1.609367	-0.075486
H94	H	0.255787	1.499658	-0.041711
H95	H	0.204099	1.624619	0.089259
H96	H	0.276098	1.514934	0.123049
H97	H	0.386968	1.597957	-0.053758
H98	H	0.314974	1.707661	-0.087530
H99	H	0.369413	1.666642	0.023589
C100	C	-0.270978	1.186602	-0.077092
C101	C	-0.313646	1.275325	-0.172347
C102	C	-0.372837	1.231159	-0.218095
H103	H	-0.325164	1.146031	-0.012549
H104	H	-0.227990	1.137038	-0.108077
H105	H	-0.356631	1.324869	-0.141360
H106	H	-0.259483	1.315904	-0.236913
H107	H	-0.329849	1.181596	-0.249080
H108	H	-0.427017	1.190589	-0.153545
H109	H	-0.401786	1.291350	-0.282737
H110	H	-0.301231	1.163688	0.160864
C111	C	-0.383486	1.227366	-0.377291
C112	C	-0.277985	1.214315	-0.373244
C113	C	-0.243835	1.100362	-0.338137
H114	H	-0.393503	1.203716	-0.435566
H115	H	-0.421863	1.182566	-0.297926
H116	H	-0.239620	1.259099	-0.452597
H117	H	-0.267941	1.237940	-0.314966
H118	H	-0.282212	1.055562	-0.258772
H119	H	-0.253858	1.076722	-0.396417
H120	H	-0.172252	1.091490	-0.335376
C121	C	-0.129015	0.993531	-0.091779
C122	C	-0.041327	1.044770	-0.101562
C123	C	-0.060765	1.086141	-0.011876
H124	H	-0.144343	0.932745	-0.011955
H125	H	-0.186351	1.047644	-0.104146
H126	H	0.015991	0.990662	-0.089185
H127	H	-0.025985	1.105570	-0.181366
H128	H	-0.118101	1.140255	-0.024243
H129	H	-0.076094	1.025350	0.067942
H130	H	-0.001277	1.120921	-0.018509
H131	H	-0.475340	1.163823	-0.357808
C132	C	-0.808107	1.060146	-0.326185
C133	C	-0.847657	1.089863	-0.432066
C134	C	-0.917200	1.010317	-0.407862
H135	H	-0.863451	1.058843	-0.260298
H136	H	-0.773099	0.987326	-0.303851
H137	H	-0.882665	1.162663	-0.454384
H138	H	-0.792337	1.091157	-0.497966
H139	H	-0.882191	0.937497	-0.385528
H140	H	-0.972537	1.009021	-0.341973
H141	H	-0.944035	1.030463	-0.479701
H142	H	-0.043582	1.042456	-0.506455
C143	C	-0.592468	0.988365	-0.303913
C144	C	-0.675505	0.925978	-0.284764
C145	C	-0.641764	0.811931	-0.249753
H146	H	-0.567017	0.960174	-0.229694
H147	H	-0.538708	0.981510	-0.367391
H148	H	-0.729247	0.932827	-0.221290
H149	H	-0.700966	0.954133	-0.358967
H150	H	-0.588004	0.805076	-0.313231
H151	H	-0.616313	0.783752	-0.175536
H152	H	-0.698097	0.769590	-0.236766
H153	H	-0.815233	1.482088	-0.455725
H154	H	-0.132890	0.772400	-0.051540
H155	H	-0.689072	1.626578	-0.500129
C156	C	-0.525492	1.702750	-0.523492
C157	C	-0.631006	1.715774	-0.527476
C158	C	-0.665198	1.829703	-0.562445
H159	H	-0.487178	1.747636	-0.602839
H160	H	-0.515443	1.726306	-0.465144
H161	H	-0.641047	1.692231	-0.585822
H162	H	-0.669346	1.670913	-0.448142
H163	H	-0.655149	1.853259	-0.504096
H164	H	-0.626877	1.874580	-0.641790
H165	H	-0.736794	1.838553	-0.565142
H166	H	-0.328321	1.609551	-0.494868
C167	C	0.029323	1.411359	-0.146007
C168	C	0.119632	1.358322	-0.100869
C169	C	0.204553	1.421649	-0.179397
H170	H	0.018825	1.485230	-0.149371
H171	H	0.036176	1.416404	-0.226533
H172	H	0.112780	1.353290	-0.020364
H173	H	0.130163	1.284457	-0.097510
H174	H	0.211405	1.426694	-0.259924
H175	H	0.194045	1.495517	-0.182756
H176	H	0.265839	1.385668	-0.148790
C177	C	0.153495	1.504594	0.249602
C178	C	0.196199	1.415865	0.344818
C179	C	0.255475	1.460021	0.390486
H180	H	0.110587	1.554165	0.280610
H181	H	0.207661	1.545152	0.184979
H182	H	0.142040	1.375327	0.409429
H183	H	0.239124	1.366287	0.313840
H184	H	0.309642	1.500578	0.325863
H185	H	0.212560	1.509591	0.421488
H186	H	0.284465	1.399825	0.455087
H187	H	0.076330	1.446974	-0.070850
H188	H	-0.160235	1.269497	0.413163
