data_functionalizedCrystal
_audit_creation_method	'MofGen! by Chris Wilmer'
_symmetry_space_group_name_H-M	'P1'
_symmetry_Int_Tables_number	1
_symmetry_cell_setting	triclinic
loop_
_symmetry_equiv_pos_as_xyz
  x,y,z
_cell_length_a	12.759401
_cell_length_b	10.685194
_cell_length_c	12.759393
_cell_angle_alpha	85.596290
_cell_angle_beta	89.982620
_cell_angle_gamma	94.377401
loop_
_atom_site_label
_atom_site_type_symbol
_atom_site_fract_x
_atom_site_fract_y
_atom_site_fract_z
Zn1	Zn	1.574235	-0.502332	-0.561903
Zn2	Zn	1.560683	-0.713403	-0.372744
Zn3	Zn	1.398536	-0.502398	-0.386238
Zn4	Zn	1.385082	-0.713305	-0.548392
O5	O	1.479634	-0.607859	-0.467319
O6	O	1.719457	-0.530344	-0.536818
O7	O	1.539132	-0.685481	-0.227509
O8	O	1.433145	-0.325790	-0.420842
O9	O	1.709500	-0.685417	-0.397844
O10	O	1.562230	-0.325741	-0.549902
O11	O	1.420004	-0.530457	-0.237422
O12	O	1.249731	-0.530363	-0.407741
O13	O	1.410214	-0.685250	-0.697210
O14	O	1.239846	-0.685315	-0.526875
O15	O	1.549184	-0.530249	-0.707136
O16	O	1.526087	-0.889989	-0.384743
O17	O	1.397073	-0.889917	-0.513790
C18	C	1.206668	-0.607836	-0.467306
C19	C	1.089890	-0.607857	-0.467324
C20	C	1.029900	-0.688669	-0.529238
C21	C	0.920175	-0.688685	-0.529248
C22	C	0.930439	-0.527072	-0.405422
C23	C	1.040163	-0.527051	-0.405418
C24	C	1.023973	-0.781979	-0.600724
C25	C	0.914248	-0.781995	-0.600734
C26	C	1.458678	-0.935743	-0.446359
C27	C	1.449809	-1.076013	-0.437427
C28	C	1.753665	-0.607884	-0.467333
C29	C	1.870441	-0.607894	-0.467338
C30	C	1.479710	-0.607731	-0.741361
C31	C	1.479743	-0.607676	-0.858141
C32	C	1.500700	-0.278695	-0.488384
C33	C	1.509677	-0.138425	-0.497361
C34	C	1.417742	-0.526940	-0.918172
C35	C	1.417776	-0.526903	-1.027899
C36	C	1.541821	-0.688340	-1.017553
C37	C	1.541780	-0.688383	-0.907828
C38	C	1.346129	-0.433731	-0.924146
C39	C	1.346163	-0.433694	-1.033873
C40	C	1.479624	-0.607896	-0.194349
C41	C	1.479817	-0.607596	-0.077593
H42	H	0.878226	-0.879711	-0.572562
H43	H	1.381208	-0.340906	-0.896058
H44	H	1.391755	-1.129896	-0.379282
C45	C	1.199573	-0.589114	-0.910567
C46	C	1.234014	-0.469082	-0.881675
H47	H	1.130364	-0.610940	-0.884340
H48	H	1.199598	-0.589077	-0.985010
H49	H	1.245394	-0.648734	-0.881928
H50	H	1.188198	-0.409461	-0.910321
H51	H	1.233982	-0.469110	-0.807217
H52	H	1.052075	-0.874773	-0.565514
C53	C	1.384076	-0.301726	-1.192280
C54	C	1.384053	-0.301746	-1.082537
H55	H	1.407463	-0.220268	-1.222320
H56	H	1.429893	-0.361341	-1.213265
H57	H	1.314881	-0.323536	-1.215680
H58	H	1.453251	-0.279945	-1.059135
H59	H	1.338235	-0.242112	-1.061543
C60	C	1.664394	-0.847952	-0.908628
C61	C	1.609931	-0.777133	-0.841841
H62	H	1.706474	-0.902738	-0.867888
H63	H	1.615542	-0.896199	-0.948331
H64	H	1.708116	-0.792945	-0.954949
H65	H	1.566202	-0.832140	-0.795524
H66	H	1.658789	-0.728883	-0.802120
H67	H	1.592330	-0.754048	-1.058022
H68	H	0.882472	-0.747108	-0.680314
H69	H	1.089003	-0.461237	-0.355010
C70	C	0.766797	-0.455354	-0.350438
C71	C	0.875774	-0.438269	-0.337364
H72	H	0.733052	-0.400537	-0.308412
H73	H	0.750018	-0.436977	-0.422220
H74	H	0.743412	-0.540134	-0.329532
H75	H	0.899160	-0.353492	-0.358278
H76	H	0.892561	-0.456637	-0.265567
C77	C	0.982490	-0.725449	-0.780878
C78	C	1.066464	-0.746783	-0.712860
H79	H	1.008725	-0.703712	-0.850102
H80	H	0.936406	-0.799624	-0.780462
H81	H	0.945397	-0.658524	-0.758206
H82	H	1.103553	-0.813714	-0.735528
H83	H	1.112566	-0.672599	-0.713281
H84	H	1.567718	-1.084550	-0.555511
C85	C	1.250432	-0.587615	-1.131706
C86	C	1.238810	-0.480938	-1.076789
H87	H	1.184157	-0.616793	-1.158191
H88	H	1.298280	-0.566535	-1.188494
H89	H	1.276726	-0.651873	-1.085667
H90	H	1.212523	-0.416677	-1.122830
H91	H	1.190945	-0.502014	-1.019993
