data_functionalizedCrystal
_audit_creation_method	'MofGen! by Chris Wilmer'
_symmetry_space_group_name_H-M	'P1'
_symmetry_Int_Tables_number	1
_symmetry_cell_setting	triclinic
loop_
_symmetry_equiv_pos_as_xyz
  x,y,z
_cell_length_a	8.559649
_cell_length_b	10.489741
_cell_length_c	7.681481
_cell_angle_alpha	84.199479
_cell_angle_beta	94.913240
_cell_angle_gamma	77.158919
loop_
_atom_site_label
_atom_site_type_symbol
_atom_site_fract_x
_atom_site_fract_y
_atom_site_fract_z
O1	O	2.104681	-0.029684	-0.146400
O2	O	1.640234	0.036114	-0.146410
O3	O	1.883027	-0.183496	-0.146394
O4	O	1.861888	0.189927	-0.146416
O5	O	1.912910	-0.210581	0.146465
O6	O	1.670117	0.009029	0.146450
O7	O	2.134565	-0.056769	0.146459
Zn8	Zn	1.907085	-0.028170	0.192952
Zn9	Zn	1.867713	0.007516	-0.192903
O10	O	1.891771	0.162842	0.146444
C11	C	1.595703	0.027558	0.000019
C12	C	1.418493	0.042401	0.000015
C13	C	1.896372	-0.244402	0.000034
C14	C	1.891596	-0.385529	0.000031
C15	C	1.737113	-0.437401	0.000015
C16	C	1.824822	-0.550562	0.144412
C17	C	1.795396	-0.523837	-0.144325
C18	C	1.979381	-0.496842	0.144547
C19	C	1.949920	-0.470093	-0.144320
C20	C	2.037746	-0.583242	0.000112
C21	C	2.179095	-0.048212	0.000027
C22	C	2.356304	-0.063054	0.000019
C23	C	1.878426	0.223748	0.000011
C24	C	1.883201	0.364876	0.000003
N25	N	1.933968	-0.052526	0.456288
N26	N	1.840843	0.031861	-0.456239
H27	H	1.336155	0.144049	-0.000000
O28	O	1.761886	-0.592726	0.290226
C29	C	1.857558	-0.577878	0.442232
H30	H	1.927024	-0.499367	0.408587
H31	H	1.776795	-0.546693	0.548375
H32	H	1.946215	-0.675564	0.492652
H33	H	1.610114	-0.374389	0.000158
O34	O	2.072304	-0.481621	0.290169
C35	C	2.201764	-0.429263	0.238650
H36	H	2.168793	-0.375426	0.099301
H37	H	2.227709	-0.357338	0.332864
H38	H	2.313472	-0.512682	0.242127
H39	H	2.029047	-0.138659	0.531500
O40	O	1.727594	0.134771	0.454136
C41	C	1.759734	0.254173	0.499081
H42	H	1.892684	0.237537	0.549854
H43	H	1.729923	0.331035	0.377758
H44	H	1.682585	0.290501	0.605968
H45	H	2.164882	-0.646059	0.000195
O46	O	1.454746	-0.184226	0.000104
C47	C	1.615696	-0.172568	0.000059
H48	H	1.628732	-0.078213	0.055499
H49	H	1.699058	-0.260992	0.085087
H50	H	1.649448	-0.169072	-0.140441
O51	O	2.013194	-0.427980	-0.289903
C52	C	2.170641	-0.504913	-0.291135
H53	H	2.184611	-0.603910	-0.207827
H54	H	2.192890	-0.521704	-0.432149
H55	H	2.261736	-0.451336	-0.234426
H56	H	1.717555	-0.536625	-0.266413
