data_functionalizedCrystal
_audit_creation_method	'MofGen! by Chris Wilmer'
_symmetry_space_group_name_H-M	'P1'
_symmetry_Int_Tables_number	1
_symmetry_cell_setting	triclinic
loop_
_symmetry_equiv_pos_as_xyz
  x,y,z
_cell_length_a	12.837943
_cell_length_b	12.503572
_cell_length_c	12.811415
_cell_angle_alpha	91.877684
_cell_angle_beta	89.411917
_cell_angle_gamma	93.890817
loop_
_atom_site_label
_atom_site_type_symbol
_atom_site_fract_x
_atom_site_fract_y
_atom_site_fract_z
O1	O	1.384311	0.115199	0.265915
O2	O	1.884311	0.615199	0.765915
O3	O	1.082361	0.113900	0.252510
O4	O	1.582361	0.613900	0.752510
O5	O	1.239948	0.099824	0.108082
O6	O	1.739948	0.599824	0.608082
O7	O	1.226724	0.129275	0.410342
O8	O	1.726724	0.629275	0.910342
O9	O	1.228097	-0.077758	0.118964
O10	O	1.728097	0.422242	0.618964
O11	O	1.070510	-0.063681	0.263391
O12	O	1.570510	0.436319	0.763391
O13	O	1.372460	-0.062382	0.276796
O14	O	1.872460	0.437618	0.776796
Cu15	Cu	1.220403	-0.079246	0.271087
Cu16	Cu	1.720403	0.420754	0.771087
Cu17	Cu	1.234418	0.130764	0.258218
Cu18	Cu	1.734418	0.630764	0.758218
O19	O	1.214873	-0.048306	0.421224
O20	O	1.714873	0.451694	0.921224
C21	C	1.037766	0.024669	0.253422
C22	C	1.537766	0.524669	0.753422
C23	C	0.922542	0.023356	0.239916
C24	C	1.422542	0.523356	0.739916
N25	N	1.210552	-0.226957	0.280139
N26	N	1.710552	0.273043	0.780139
C27	C	0.683343	0.039161	0.402278
C28	C	1.183343	0.539161	0.902278
C29	C	0.575079	0.037927	0.389593
C30	C	1.075079	0.537927	0.889593
C31	C	0.597750	0.019646	0.201863
C32	C	1.097750	0.519646	0.701863
C33	C	0.706013	0.020880	0.214548
C34	C	1.206013	0.520880	0.714548
C35	C	0.748805	0.030639	0.314758
C36	C	1.248805	0.530639	0.814758
C37	C	0.857071	0.031881	0.327442
C38	C	1.357071	0.531881	0.827442
C39	C	0.879739	0.013593	0.139714
C40	C	1.379739	0.513593	0.639714
C41	C	0.771476	0.012359	0.127029
C42	C	1.271476	0.512359	0.627029
C43	C	1.196062	-0.444773	0.293463
C44	C	1.696062	0.055227	0.793463
C45	C	1.258763	-0.503716	0.235839
C46	C	1.758763	-0.003716	0.735839
C47	C	1.250701	-0.624917	0.243252
C48	C	1.750701	-0.124917	0.743252
C49	C	1.204124	-0.323561	0.286050
C50	C	1.704124	0.176439	0.786050
C51	C	1.417055	0.026851	0.275884
C52	C	1.917055	0.526851	0.775884
C53	C	1.532279	0.028171	0.289389
C54	C	2.032279	0.528171	0.789389
C55	C	1.232918	0.007240	0.074566
C56	C	1.732918	0.507240	0.574566
C57	C	1.229616	-0.004064	-0.041514
C58	C	1.729616	0.495936	0.458486
N59	N	1.244277	0.278474	0.249160
N60	N	1.744277	0.778474	0.749160
C61	C	1.236313	0.168317	-0.271496
C62	C	1.736313	0.668317	0.228504
C63	C	1.233210	0.157701	-0.380564
C64	C	1.733210	0.657701	0.119436
C65	C	1.220300	-0.035910	-0.368720
C66	C	1.720300	0.464090	0.131280
C67	C	1.223403	-0.025294	-0.259652
C68	C	1.723403	0.474706	0.240348
C69	C	1.231411	0.076822	-0.211044
C70	C	1.731411	0.576822	0.288956
C71	C	1.234521	0.087437	-0.101975
C72	C	1.734521	0.587437	0.398025
C73	C	1.221604	-0.106173	-0.090132
C74	C	1.721604	0.393827	0.409868
C75	C	1.218501	-0.116789	-0.199200
C76	C	1.718501	0.383211	0.300800
C77	C	1.221903	0.044281	0.454740
C78	C	1.721903	0.544281	0.954740
C79	C	1.225206	0.055591	0.570820
C80	C	1.725206	0.555591	1.070820
H81	H	0.718184	0.047109	0.483873
H82	H	1.218184	0.547109	0.983873
H83	H	1.217616	-0.180675	-0.040900
H84	H	1.717616	0.319325	0.459100
H85	H	1.136332	-0.485330	0.348361
H86	H	1.636332	0.014670	0.848361
C87	C	1.339470	-0.448926	0.161677
C88	C	1.839470	0.051074	0.661677
C89	C	1.347476	-0.325967	0.154216
C90	C	1.847476	0.174033	0.654216
C91	C	1.428182	-0.271170	0.080062
C92	C	1.928182	0.228830	0.580062
C93	C	1.500883	-0.339332	0.013369
C94	C	2.000883	0.160668	0.513369
C95	C	1.492880	-0.462299	0.020828
C96	C	1.992880	0.037701	0.520828
C97	C	1.412174	-0.517096	0.094982
C98	C	1.912174	-0.017096	0.594982
H99	H	1.293656	-0.275502	0.203588
H100	H	1.793656	0.224498	0.703588
H101	H	1.434106	-0.180141	0.074541
H102	H	1.934106	0.319859	0.574541
H103	H	1.560627	-0.298768	-0.041524
H104	H	2.060627	0.201232	0.458476
H105	H	1.546700	-0.512763	-0.028543
H106	H	2.046700	-0.012763	0.471457
H107	H	1.406250	-0.608124	0.100504
H108	H	1.906250	-0.108124	0.600504
C109	C	1.243327	0.199761	-0.048502
C110	C	1.743327	0.699761	0.451498
C111	C	1.338148	0.277889	-0.071292
C112	C	1.838148	0.777889	0.428708
C113	C	1.346950	0.390216	-0.017822
C114	C	1.846950	0.890216	0.482178
C115	C	1.260932	0.424414	0.058438
C116	C	1.760932	0.924414	0.558438
C117	C	1.166105	0.346284	0.081232
C118	C	1.666105	0.846284	0.581232
C119	C	1.157302	0.233957	0.027762
C120	C	1.657302	0.733957	0.527762
H121	H	1.401830	0.252575	-0.127747
H122	H	1.901830	0.752575	0.372253
H123	H	1.417148	0.448053	-0.034696
H124	H	1.917148	0.948053	0.465304
H125	H	1.267448	0.507565	0.098019
H126	H	1.767448	1.007565	0.598019
H127	H	1.102423	0.371598	0.137687
H128	H	1.602423	0.871598	0.637687
H129	H	1.087104	0.176120	0.044636
H130	H	1.587104	0.676120	0.544636
H131	H	1.242843	0.251464	-0.231920
H132	H	1.742843	0.751464	0.268080
C133	C	0.503069	0.047305	0.485865
C134	C	1.003069	0.547305	0.985865
C135	C	0.514756	0.147229	0.559399
C136	C	1.014756	0.647229	1.059399
C137	C	0.442746	0.156606	0.655676
C138	C	0.942746	0.656606	1.155676
C139	C	0.359047	0.066058	0.678419
C140	C	0.859047	0.566058	1.178419
C141	C	0.347357	-0.033874	0.604883
C142	C	0.847357	0.466126	1.104883
C143	C	0.419368	-0.043251	0.508606
C144	C	0.919368	0.456749	1.008606
H145	H	0.576718	0.214265	0.542565
H146	H	1.076718	0.714265	1.042565
H147	H	0.451400	0.230583	0.710112
H148	H	0.951400	0.730583	1.210112
H149	H	0.305741	0.072999	0.749689
H150	H	0.805741	0.572999	1.249689
H151	H	0.285395	-0.100910	0.621717
H152	H	0.785395	0.399090	1.121717
H153	H	0.410713	-0.117228	0.454170
H154	H	0.910713	0.382772	0.954170
H155	H	1.237198	0.232205	-0.429781
H156	H	1.737198	0.732205	0.070219
H157	H	1.213772	-0.119048	-0.408316
H158	H	1.713772	0.380952	0.091684
H159	H	1.211977	-0.199929	-0.238792
H160	H	1.711977	0.300071	0.261208
C161	C	0.550659	0.008897	0.091643
C162	C	1.050659	0.508897	0.591643
C163	C	0.568739	-0.090696	0.021606
C164	C	1.068739	0.409304	0.521606
C165	C	0.521644	-0.101451	-0.088613
C166	C	1.021644	0.398549	0.411387
C167	C	0.456470	-0.012613	-0.128795
C168	C	0.956470	0.487387	0.371205
C169	C	0.438388	0.086987	-0.058757
C170	C	0.938388	0.586987	0.441243
C171	C	0.485482	0.097742	0.051462
C172	C	0.985482	0.597742	0.551462
H173	H	0.616987	-0.156466	0.051351
H174	H	1.116987	0.343534	0.551351
H175	H	0.535030	-0.175182	-0.140460
H176	H	1.035030	0.324818	0.359540
H177	H	0.421608	-0.020574	-0.210386
H178	H	0.921608	0.479426	0.289614
H179	H	0.390139	0.152757	-0.088502
H180	H	0.890139	0.652757	0.411498
H181	H	0.472096	0.171473	0.103309
H182	H	0.972096	0.671473	0.603309
H183	H	0.891910	0.039826	0.409038
H184	H	1.391910	0.539826	0.909038
H185	H	0.736619	0.004401	0.045441
H186	H	1.236619	0.504401	0.545441
H187	H	0.933052	0.006661	0.068449
H188	H	1.433052	0.506661	0.568449
