data_functionalizedCrystal
_audit_creation_method	'MofGen! by Chris Wilmer'
_symmetry_space_group_name_H-M	'P1'
_symmetry_Int_Tables_number	1
_symmetry_cell_setting	triclinic
loop_
_symmetry_equiv_pos_as_xyz
  x,y,z
_cell_length_a	19.188930
_cell_length_b	23.532407
_cell_length_c	17.666332
_cell_angle_alpha	89.988854
_cell_angle_beta	89.976766
_cell_angle_gamma	82.996728
loop_
_atom_site_label
_atom_site_type_symbol
_atom_site_fract_x
_atom_site_fract_y
_atom_site_fract_z
O1	O	0.925923	0.071102	-0.063199
O2	O	1.425923	0.571102	0.436801
O3	O	0.722581	0.080673	-0.063148
O4	O	1.222581	0.580673	0.436852
O5	O	0.830384	-0.007031	-0.063161
O6	O	1.330384	0.492969	0.436839
O7	O	0.818120	0.158806	-0.063186
O8	O	1.318120	0.658806	0.436814
O9	O	0.830365	-0.007036	0.062735
O10	O	1.330365	0.492964	0.562735
O11	O	0.722562	0.080669	0.062748
O12	O	1.222562	0.580669	0.562748
O13	O	0.925904	0.071097	0.062697
O14	O	1.425904	0.571097	0.562697
Cu15	Cu	0.824231	0.075883	0.074218
Cu16	Cu	1.324231	0.575883	0.574218
Cu17	Cu	0.824253	0.075888	-0.074669
Cu18	Cu	1.324253	0.575888	0.425331
O19	O	0.818101	0.158802	0.062711
O20	O	1.318101	0.658802	0.562711
C21	C	0.696561	0.080361	-0.000193
C22	C	1.196561	0.580361	0.499807
C23	C	0.619060	0.079431	-0.000173
C24	C	1.119060	0.579431	0.499827
C25	C	0.573972	0.130893	-0.000193
C26	C	1.073972	0.630893	0.499807
C27	C	0.501151	0.130019	-0.000201
C28	C	1.001151	0.630019	0.499799
C29	C	0.473421	0.077680	-0.000205
C30	C	0.973421	0.577680	0.499795
C31	C	0.518519	0.026211	-0.000181
C32	C	1.018519	0.526211	0.499819
C33	C	0.591339	0.027086	-0.000165
C34	C	1.091339	0.527086	0.499835
N35	N	0.365575	0.037674	-0.043078
N36	N	0.865575	0.537674	0.456922
N37	N	0.296399	0.036846	-0.043094
N38	N	0.796399	0.536846	0.456906
C39	C	0.254021	0.075038	-0.000251
C40	C	0.754021	0.575038	0.499749
N41	N	0.283431	0.114099	0.042600
N42	N	0.783431	0.614099	0.542600
N43	N	0.352613	0.114929	0.042614
N44	N	0.852613	0.614929	0.542614
C45	C	0.394462	0.076724	-0.000222
C46	C	0.894462	0.576724	0.499778
C47	C	0.129971	0.125556	-0.000278
C48	C	0.629971	0.625556	0.499722
C49	C	0.057149	0.124680	-0.000282
C50	C	0.557149	0.624680	0.499718
C51	C	0.074520	0.020870	-0.000269
C52	C	0.574520	0.520870	0.499731
C53	C	0.147340	0.021748	-0.000258
C54	C	0.647340	0.521748	0.499742
C55	C	0.175061	0.074092	-0.000266
C56	C	0.675061	0.574092	0.499734
C57	C	0.830062	-0.028250	-0.000211
C58	C	1.330062	0.471750	0.499789
C59	C	0.829123	-0.091469	-0.000205
C60	C	1.329123	0.408531	0.499795
C61	C	0.887029	-0.490449	-0.000261
C62	C	1.387029	0.009551	0.499739
C63	C	0.886157	-0.549851	-0.000267
C64	C	1.386157	-0.049851	0.499733
O65	O	0.939837	-0.586482	-0.000308
O66	O	1.439837	-0.086482	0.499692
N67	N	0.822068	-0.572613	-0.000250
N68	N	1.322068	-0.072613	0.499750
C69	C	0.758848	-0.535970	-0.000236
C70	C	1.258848	-0.035970	0.499764
O71	O	0.704255	-0.560786	-0.000223
O72	O	1.204255	-0.060786	0.499777
C73	C	0.759721	-0.476569	-0.000235
C74	C	1.259721	0.023431	0.499765
C75	C	0.823814	-0.453810	-0.000244
C76	C	1.323814	0.046190	0.499756
C77	C	0.951117	-0.467690	-0.000271
C78	C	1.451117	0.032310	0.499729
C79	C	0.951989	-0.408292	-0.000264
C80	C	1.451989	0.091708	0.499736
C81	C	0.888773	-0.371653	-0.000247
C82	C	1.388773	0.128347	0.499753
C83	C	0.824685	-0.394412	-0.000237
C84	C	1.324685	0.105588	0.499763
C85	C	0.696501	-0.439927	-0.000226
C86	C	1.196501	0.060073	0.499774
C87	C	0.697379	-0.380523	-0.000227
C88	C	1.197379	0.119477	0.499773
C89	C	0.761472	-0.357764	-0.000236
C90	C	1.261472	0.142236	0.499764
C91	C	0.762342	-0.298376	-0.000214
C92	C	1.262342	0.201624	0.499786
N93	N	0.826430	-0.275614	-0.000230
N94	N	1.326430	0.224386	0.499770
C95	C	0.889646	-0.312252	-0.000247
C96	C	1.389646	0.187748	0.499753
C97	C	0.757019	-0.660717	-0.000237
C98	C	1.257019	-0.160717	0.499763
C99	C	0.756146	-0.720116	-0.000232
C100	C	1.256146	-0.220116	0.499768
C101	C	0.883455	-0.733993	-0.000264
C102	C	1.383455	-0.233993	0.499736
C103	C	0.884328	-0.674592	-0.000264
C104	C	1.384328	-0.174592	0.499736
C105	C	0.821108	-0.637954	-0.000254
C106	C	1.321108	-0.137954	0.499746
C107	C	0.891472	-0.187512	-0.000232
C108	C	1.391472	0.312488	0.499768
C109	C	0.892339	-0.128108	-0.000222
C110	C	1.392339	0.371892	0.499778
C111	C	0.765029	-0.114236	-0.000193
C112	C	1.265029	0.385764	0.499807
C113	C	0.764163	-0.173634	-0.000199
C114	C	1.264163	0.326366	0.499801
C115	C	0.827390	-0.210272	-0.000221
C116	C	1.327390	0.289728	0.499779
O117	O	0.708690	-0.261710	-0.000176
O118	O	1.208690	0.238290	0.499824
O119	O	0.944230	-0.287428	-0.000270
O120	O	1.444230	0.212572	0.499730
C121	C	0.951923	0.071410	-0.000259
C122	C	1.451923	0.571410	0.499741
C123	C	1.029425	0.072340	-0.000284
C124	C	1.529425	0.572340	0.499716
C125	C	0.818423	0.180021	-0.000241
C126	C	1.318423	0.680021	0.499759
C127	C	0.819362	0.243240	-0.000252
C128	C	1.319362	0.743240	0.499748
N129	N	0.824221	0.075878	0.178938
N130	N	1.324221	0.575878	0.678938
N131	N	0.824270	0.075888	-0.179389
N132	N	1.324270	0.575888	0.320611
C133	C	0.871971	0.037062	0.218542
C134	C	1.371971	0.537062	0.718542
C135	C	0.871975	0.037059	0.297789
C136	C	1.371975	0.537059	0.797789
C137	C	0.824236	0.075883	0.337430
C138	C	1.324236	0.575883	0.837430
C139	C	0.776476	0.114702	0.297816
C140	C	1.276476	0.614702	0.797816
C141	C	0.776469	0.114700	0.218570
C142	C	1.276469	0.614700	0.718570
N143	N	0.814998	0.126298	0.461842
N144	N	1.314998	0.626298	0.961842
N145	N	0.815010	0.126298	0.537123
N146	N	1.315010	0.626298	1.037123
C147	C	0.824254	0.075891	0.576194
C148	C	1.324254	0.575891	1.076194
N149	N	0.833500	0.025481	0.537141
N150	N	1.333500	0.525481	1.037141
N151	N	0.833493	0.025482	0.461853
N152	N	1.333493	0.525482	0.961853
C153	C	0.824238	0.075889	0.423359
C154	C	1.324238	0.575889	0.923359
C155	C	0.872011	0.037068	0.701727
C156	C	1.372011	0.537068	1.201727
C157	C	0.872010	0.037064	0.780976
C158	C	1.372010	0.537064	1.280976
C159	C	0.776515	0.114713	0.781002
C160	C	1.276515	0.614713	1.281002
C161	C	0.776512	0.114711	0.701754
C162	C	1.276512	0.614711	1.201754
C163	C	0.824264	0.075889	0.662122
C164	C	1.324264	0.575889	1.162122
H165	H	0.596537	0.173516	-0.000201
H166	H	1.096537	0.673516	0.499799
C167	C	0.924534	-0.005637	0.824544
C168	C	1.424534	0.494363	1.324544
H169	H	0.917695	-0.000082	0.877417
H170	H	1.417695	0.499918	1.377417
H171	H	0.971086	0.000455	0.811534
H172	H	1.471086	0.500455	1.311534
H173	H	0.917215	-0.043634	0.811569
H174	H	1.417215	0.456366	1.311569
H175	H	1.002598	-0.497516	-0.000287
H176	H	1.502598	0.002484	0.499713
C177	C	0.723966	0.157409	0.341418
C178	C	1.223966	0.657409	0.841418
H179	H	0.730814	0.151855	0.394286
H180	H	1.230814	0.651855	0.894286
H181	H	0.677412	0.151318	0.328461
H182	H	1.177412	0.651318	0.828461
H183	H	0.731286	0.195404	0.328412
H184	H	1.231286	0.695404	0.828412
H185	H	0.051943	-0.021745	-0.000319
H186	H	0.551943	0.478255	0.499681
C187	C	0.196942	-0.034859	-0.000248
C188	C	0.696942	0.465141	0.499752
H189	H	0.244281	-0.026842	-0.000233
H190	H	0.744281	0.473158	0.499767
H191	H	0.188600	-0.056327	-0.044151
H192	H	0.688600	0.443673	0.455849
H193	H	0.188553	-0.056330	0.043661
H194	H	0.688553	0.443670	0.543661
C195	C	0.954829	-0.649563	-0.000281
C196	C	1.454829	-0.149563	0.499719
H197	H	0.992350	-0.679896	-0.000295
H198	H	1.492350	-0.179896	0.499705
H199	H	0.957814	-0.626684	0.043619
H200	H	1.457814	-0.126684	0.543619
H201	H	0.957825	-0.626677	-0.044192
H202	H	1.457825	-0.126677	0.455808
C203	C	0.924504	-0.005640	0.341363
C204	C	1.424504	0.494360	0.841363
H205	H	0.952943	-0.028758	0.306409
H206	H	1.452943	0.471242	0.806409
H207	H	0.899560	-0.029296	0.372300
H208	H	1.399560	0.470704	0.872300
H209	H	0.953425	0.014798	0.372252
H210	H	1.453425	0.514798	0.872252
H211	H	0.628050	-0.014822	-0.000150
H212	H	1.128050	0.485178	0.499850
H213	H	0.464433	0.171927	-0.000215
H214	H	0.964433	0.671927	0.499785
C215	C	0.962843	-0.103076	-0.000236
C216	C	1.462843	0.396924	0.499764
H217	H	1.000366	-0.133408	-0.000255
H218	H	1.500366	0.366592	0.499745
H219	H	0.965827	-0.080201	0.043668
H220	H	1.465827	0.419799	0.543668
H221	H	0.965836	-0.080186	-0.044144
H222	H	1.465836	0.419814	0.455856
C223	C	0.924528	-0.005639	0.658128
C224	C	1.424528	0.494361	1.158128
H225	H	0.952960	-0.028764	0.693068
H226	H	1.452960	0.471236	1.193068
H227	H	0.953446	0.014788	0.627193
H228	H	1.453446	0.514788	1.127193
H229	H	0.899570	-0.029297	0.627235
H230	H	1.399570	0.470703	1.127235
H231	H	0.495937	-0.016404	-0.000195
H232	H	0.995937	0.483596	0.499805
H233	H	0.942958	-0.217335	-0.000252
H234	H	1.442958	0.282665	0.499748
C235	C	0.924489	-0.005646	0.174950
C236	C	1.424489	0.494354	0.674950
H237	H	0.952923	-0.028768	0.209891
H238	H	1.452923	0.471232	0.709891
H239	H	0.953405	0.014779	0.144010
H240	H	1.453405	0.514779	0.644010
H241	H	0.899531	-0.029307	0.144062
H242	H	1.399531	0.470693	0.644062
H243	H	1.004180	-0.389768	-0.000274
H244	H	1.504180	0.110232	0.499726
H245	H	0.737584	0.146310	0.186324
H246	H	1.237584	0.646310	0.686324
C247	C	0.724002	0.157418	0.824597
C248	C	1.224002	0.657418	1.324597
H249	H	0.730847	0.151862	0.877466
H250	H	1.230847	0.651862	1.377466
H251	H	0.677448	0.151327	0.811636
H252	H	1.177448	0.651327	1.311636
H253	H	0.731322	0.195414	0.811594
H254	H	1.231322	0.695414	1.311594
C255	C	0.723994	0.157416	0.658188
C256	C	1.223994	0.657416	1.158188
H257	H	0.695566	0.180542	0.693144
H258	H	1.195566	0.680542	1.193144
H259	H	0.695072	0.136989	0.627294
H260	H	1.195072	0.636989	1.127294
H261	H	0.748947	0.181074	0.627255
H262	H	1.248947	0.681074	1.127255
H263	H	0.152543	0.168178	-0.000274
H264	H	0.652543	0.668178	0.499726
H265	H	0.934929	-0.763836	-0.000281
H266	H	1.434929	-0.263836	0.499719
C267	C	0.007549	0.181289	-0.000304
C268	C	0.507549	0.681289	0.499696
H269	H	-0.039791	0.173273	-0.000304
H270	H	0.460209	0.673273	0.499696
H271	H	0.015937	0.202757	-0.044210
H272	H	0.515937	0.702757	0.455790
H273	H	0.015892	0.202760	0.043601
H274	H	0.515892	0.702760	0.543601
C275	C	0.685644	-0.745145	-0.000216
C276	C	1.185644	-0.245145	0.499784
H277	H	0.648124	-0.714812	-0.000211
H278	H	1.148124	-0.214812	0.499789
H279	H	0.682645	-0.768037	0.043684
H280	H	1.182645	-0.268037	0.543684
H281	H	0.682663	-0.768017	-0.044128
H282	H	1.182663	-0.268017	0.455872
C283	C	0.687473	-0.620419	-0.000211
C284	C	1.187473	-0.120419	0.499789
H285	H	0.649183	-0.642487	-0.000194
H286	H	1.149183	-0.142487	0.499806
H287	H	0.685165	-0.596949	-0.044111
H288	H	1.185165	-0.096949	0.455889
H289	H	0.685160	-0.596967	0.043700
H290	H	1.185160	-0.096967	0.543700
C291	C	0.625998	-0.464949	-0.000223
C292	C	1.125998	0.035051	0.499777
H293	H	0.588480	-0.434613	-0.000223
H294	H	1.088480	0.065387	0.499777
H295	H	0.622991	-0.487840	0.043676
H296	H	1.122991	0.012160	0.543676
H297	H	0.623019	-0.487822	-0.044135
H298	H	1.123019	0.012178	0.455865
H299	H	0.711973	-0.192165	-0.000171
H300	H	1.211973	0.307835	0.499829
C301	C	0.627835	-0.340224	-0.000212
C302	C	1.127835	0.159776	0.499788
H303	H	0.589544	-0.362290	-0.000202
H304	H	1.089544	0.137710	0.499798
H305	H	0.625535	-0.316754	-0.044112
H306	H	1.125535	0.183246	0.455888
H307	H	0.625520	-0.316772	0.043700
H308	H	1.125520	0.183228	0.543700
C309	C	0.695498	-0.073926	-0.000179
C310	C	1.195498	0.426074	0.499821
H311	H	0.705202	-0.035291	-0.000186
H312	H	1.205202	0.464709	0.499814
H313	H	0.669186	-0.080812	0.043725
H314	H	1.169186	0.419188	0.543725
H315	H	0.669213	-0.080801	-0.044086
H316	H	1.169213	0.419199	0.455914
