data_functionalizedCrystal
_audit_creation_method	'MofGen! by Chris Wilmer'
_symmetry_space_group_name_H-M	'P1'
_symmetry_Int_Tables_number	1
_symmetry_cell_setting	triclinic
loop_
_symmetry_equiv_pos_as_xyz
  x,y,z
_cell_length_a	10.654550
_cell_length_b	14.044220
_cell_length_c	9.130313
_cell_angle_alpha	89.997493
_cell_angle_beta	89.996220
_cell_angle_gamma	88.836890
loop_
_atom_site_label
_atom_site_type_symbol
_atom_site_fract_x
_atom_site_fract_y
_atom_site_fract_z
O1	O	1.681222	0.133227	-0.121925
O2	O	1.317019	0.145921	-0.121902
O3	O	1.493654	0.001554	-0.121899
O4	O	1.504587	0.277595	-0.121929
O5	O	1.493652	0.001557	0.121700
O6	O	1.317017	0.145925	0.121696
O7	O	1.681220	0.133231	0.121673
Cu8	Cu	1.499119	0.139578	0.143927
Cu9	Cu	1.499121	0.139574	-0.144156
O10	O	1.504585	0.277598	0.121670
C11	C	1.270127	0.144991	-0.000100
C12	C	1.130403	0.142202	-0.000091
C13	C	1.059459	0.227203	-0.000121
C14	C	0.928175	0.224578	-0.000146
C15	C	0.938790	0.051942	-0.000116
C16	C	1.070072	0.054569	-0.000081
C17	C	1.119790	0.314837	-0.000131
C18	C	1.048846	0.399845	-0.000163
C19	C	0.917561	0.397219	-0.000188
C20	C	0.857221	0.309585	-0.000181
C21	C	1.488867	-0.033790	-0.000099
C22	C	1.474592	-0.139110	-0.000096
C23	C	1.448493	-0.331943	-0.000116
C24	C	1.549741	-0.388911	-0.000126
C25	C	1.535219	-0.496210	-0.000137
C26	C	1.463013	-0.224634	-0.000105
C27	C	1.728113	0.134161	-0.000132
C28	C	1.867836	0.136950	-0.000151
C29	C	1.509372	0.312942	-0.000133
C30	C	1.523648	0.418262	-0.000146
N31	N	1.499126	0.139581	0.346550
N32	N	1.499122	0.139564	-0.346779
C33	C	1.577364	0.075677	0.423203
C34	C	1.577359	0.075666	0.576540
C35	C	1.420876	0.203470	0.576557
C36	C	1.420875	0.203477	0.423223
C37	C	1.655615	0.011782	0.346531
C38	C	1.733861	-0.052127	0.423184
C39	C	1.733856	-0.052138	0.576521
C40	C	1.655606	0.011759	0.653204
H41	H	1.226688	0.316985	-0.000117
C42	C	1.803275	-0.108913	0.188125
C43	C	1.819812	-0.122401	0.338900
H44	H	1.856329	-0.152307	0.136098
H45	H	1.718242	-0.119767	0.163039
H46	H	1.824063	-0.045519	0.162984
H47	H	1.799015	-0.185793	0.364044
H48	H	1.904864	-0.111554	0.363996
H49	H	1.350913	-0.363754	-0.000113
H50	H	1.655600	0.011738	0.778062
H51	H	1.647328	-0.357098	-0.000231
H52	H	1.655629	0.011787	0.221676
H53	H	1.797557	-0.104181	0.638931
H54	H	1.357169	0.255494	0.639002
C55	C	0.666294	0.352808	-0.125451
C56	C	0.712910	0.306693	-0.000210
H57	H	0.577205	0.351016	-0.125476
H58	H	0.692065	0.417155	-0.125439
H59	H	0.697984	0.321514	-0.210379
H60	H	0.681227	0.337992	0.084719
H61	H	0.687127	0.242334	-0.000209
H62	H	1.357165	0.255512	0.360811
C63	C	0.742253	-0.028735	-0.000177
C64	C	0.872466	-0.044380	-0.000129
H65	H	0.701312	-0.088202	-0.000199
H66	H	0.718542	0.006293	0.084758
H67	H	0.718597	0.006304	-0.085140
H68	H	0.896123	-0.079413	0.084839
H69	H	0.896187	-0.079423	-0.085073
C70	C	0.868122	0.543544	-0.125455
C71	C	0.839576	0.490656	-0.000222
H72	H	0.819972	0.601226	-0.125483
H73	H	0.954934	0.557645	-0.125426
H74	H	0.848800	0.507631	-0.210389
H75	H	0.858907	0.526566	0.084712
H76	H	0.752745	0.476557	-0.000237
C77	C	1.119593	-0.091763	-0.125293
C78	C	1.148070	-0.038862	-0.000062
H79	H	1.167755	-0.149440	-0.125281
H80	H	1.032785	-0.105874	-0.125303
H81	H	1.138949	-0.055854	-0.210228
H82	H	1.128705	-0.074768	0.084873
H83	H	1.234898	-0.024753	-0.000039
C84	C	1.245380	0.480526	-0.000156
C85	C	1.115167	0.496168	-0.000175
H86	H	1.286319	0.539995	-0.000173
H87	H	1.269054	0.445504	0.084799
H88	H	1.269077	0.445484	-0.085098
H89	H	1.091468	0.531205	0.084774
H90	H	1.091484	0.531206	-0.085138
