data_functionalizedCrystal
_audit_creation_method	'MofGen! by Chris Wilmer'
_symmetry_space_group_name_H-M	'P1'
_symmetry_Int_Tables_number	1
_symmetry_cell_setting	triclinic
loop_
_symmetry_equiv_pos_as_xyz
  x,y,z
_cell_length_a	16.992694
_cell_length_b	11.792241
_cell_length_c	16.053802
_cell_angle_alpha	92.583059
_cell_angle_beta	87.249047
_cell_angle_gamma	87.430819
loop_
_atom_site_label
_atom_site_type_symbol
_atom_site_fract_x
_atom_site_fract_y
_atom_site_fract_z
O1	O	1.044699	0.236280	-0.069325
O2	O	0.816403	0.233637	-0.069350
O3	O	0.936091	0.070242	-0.069331
O4	O	0.925011	0.399675	-0.069344
O5	O	0.929503	0.079196	0.069527
O6	O	0.809815	0.242591	0.069508
O7	O	1.038111	0.245234	0.069533
Zn8	Zn	0.922917	0.245334	0.091567
Zn9	Zn	0.931597	0.233537	-0.091384
O10	O	0.918423	0.408630	0.069514
C11	C	0.783882	0.234716	0.000076
C12	C	0.696796	0.224578	0.000067
C13	C	0.932101	0.032371	0.000098
C14	C	0.930018	-0.093813	0.000097
C15	C	0.646971	0.322395	0.000064
C16	C	0.565143	0.312864	0.000076
C17	C	0.533142	0.205513	0.000085
C18	C	0.582973	0.107688	0.000091
C19	C	0.664799	0.117221	0.000085
C20	C	0.289375	0.166002	0.000109
C21	C	0.207543	0.156476	0.000112
C22	C	0.189719	0.361652	0.000099
C23	C	0.271548	0.371176	0.000088
C24	C	0.321371	0.273351	0.000098
N25	N	0.449501	0.195767	0.000094
N26	N	0.405010	0.283098	0.000095
C27	C	0.926188	-0.324840	0.000082
C28	C	0.928316	-0.196280	0.000090
C29	C	1.070632	0.244155	0.000105
C30	C	1.157719	0.254293	0.000109
C31	C	0.922413	0.446500	0.000084
C32	C	0.924497	0.572684	0.000079
N33	N	0.916999	0.253386	0.216427
N34	N	0.937521	0.225477	-0.216243
C35	C	0.967945	0.183889	0.260129
C36	C	0.963812	0.189532	0.347535
C37	C	0.908737	0.264679	0.391237
C38	C	0.857785	0.334179	0.347529
C39	C	0.861915	0.328529	0.260125
C40	C	0.890699	0.289327	0.652644
C41	C	0.886575	0.294974	0.740055
C42	C	0.992602	0.150325	0.740054
C43	C	0.996729	0.144687	0.652648
C44	C	0.945775	0.214182	0.608948
N45	N	0.904513	0.270452	0.480580
N46	N	0.949996	0.208403	0.519606
H47	H	0.673020	0.409812	0.000056
H48	H	1.034085	0.093744	0.775643
C49	C	0.172336	0.038386	0.000132
C50	C	0.187517	-0.040273	0.072251
C51	C	0.152307	-0.158354	0.072271
C52	C	0.101915	-0.197777	0.000172
C53	C	0.086731	-0.119117	-0.071952
C54	C	0.121941	-0.001036	-0.071972
H55	H	0.224823	-0.011091	0.125627
H56	H	0.163547	-0.216584	0.125662
H57	H	0.075850	-0.285188	0.000187
H58	H	0.049425	-0.148299	-0.125328
H59	H	0.110700	0.057194	-0.125363
H60	H	0.329932	0.086345	0.000118
C61	C	0.547774	-0.010401	0.000099
C62	C	0.457770	-0.020894	0.000100
C63	C	0.422574	-0.138985	0.000105
C64	C	0.477382	-0.246584	0.000109
C65	C	0.567392	-0.236094	0.000109
C66	C	0.602588	-0.118003	0.000104
H67	H	0.417193	0.058760	0.000096
H68	H	0.355943	-0.146749	0.000105
H69	H	0.451328	-0.334002	0.000113
H70	H	0.607969	-0.315748	0.000113
H71	H	0.669219	-0.110238	0.000104
H72	H	1.041576	0.083496	0.617067
H73	H	0.841724	0.356172	0.775633
C74	C	0.797201	0.416843	0.395598
C75	C	0.792692	0.423125	0.491739
C76	C	0.732107	0.505795	0.539804
C77	C	0.676032	0.582183	0.491728
C78	C	0.680539	0.575904	0.395581
C79	C	0.741123	0.493235	0.347516
H80	H	0.834204	0.366575	0.527333
H81	H	0.728771	0.510443	0.610979
H82	H	0.631183	0.643381	0.527309
H83	H	0.639026	0.632454	0.359988
H84	H	0.744459	0.488587	0.276342
H85	H	0.524579	0.392517	0.000072
H86	H	0.297597	0.458591	0.000071
H87	H	0.149145	0.441295	0.000092
C88	C	0.719610	0.009621	0.000086
C89	C	0.712302	-0.071670	0.072197
C90	C	0.767112	-0.179273	0.072203
C91	C	0.829231	-0.205586	0.000099
C92	C	0.836542	-0.124293	-0.072017
C93	C	0.781731	-0.016690	-0.072024
H94	H	0.666315	-0.052194	0.125578
H95	H	0.761700	-0.239451	0.125589
H96	H	0.869805	-0.285240	0.000104
H97	H	0.882528	-0.143769	-0.125398
H98	H	0.787144	0.043489	-0.125409
H99	H	0.849212	0.345915	0.617070
H100	H	1.012796	0.122701	0.224552
H101	H	1.005296	0.132942	0.383116
H102	H	0.820428	0.385119	0.224543
