data_functionalizedCrystal
_audit_creation_method	'MofGen! by Chris Wilmer'
_symmetry_space_group_name_H-M	'P1'
_symmetry_Int_Tables_number	1
_symmetry_cell_setting	triclinic
loop_
_symmetry_equiv_pos_as_xyz
  x,y,z
_cell_length_a	17.699083
_cell_length_b	17.699083
_cell_length_c	9.730223
_cell_angle_alpha	89.994713
_cell_angle_beta	90.002740
_cell_angle_gamma	83.283015
loop_
_atom_site_label
_atom_site_type_symbol
_atom_site_fract_x
_atom_site_fract_y
_atom_site_fract_z
O1	O	1.004075	0.095711	-0.114100
O2	O	1.504075	0.595711	0.385900
O3	O	0.783696	0.108163	-0.114145
O4	O	1.283696	0.608163	0.385855
O5	O	0.900112	-0.008252	-0.114109
O6	O	1.400112	0.491748	0.385891
O7	O	0.887659	0.212126	-0.114136
O8	O	1.387659	0.712126	0.385864
O9	O	0.900104	-0.008255	0.114471
O10	O	1.400104	0.491745	0.614471
O11	O	0.783689	0.108160	0.114435
O12	O	1.283689	0.608160	0.614435
O13	O	1.004067	0.095708	0.114480
O14	O	1.504067	0.595708	0.614480
Zn15	Zn	0.893877	0.101934	0.150749
Zn16	Zn	1.393877	0.601934	0.650749
Zn17	Zn	0.893886	0.101938	-0.150415
Zn18	Zn	1.393886	0.601938	0.349585
O19	O	0.887652	0.212123	0.114444
O20	O	1.387652	0.712123	0.614444
C21	C	0.755495	0.107716	0.000139
C22	C	1.255495	0.607716	0.500139
C23	C	0.671477	0.106377	0.000122
C24	C	1.171477	0.606377	0.500122
C25	C	0.899662	-0.036451	0.000181
C26	C	1.399662	0.463549	0.500181
C27	C	0.898323	-0.120469	0.000181
C28	C	1.398323	0.379531	0.500181
C29	C	0.622856	0.174710	0.000114
C30	C	1.122856	0.674710	0.500114
C31	C	0.543913	0.173448	0.000132
C32	C	1.043913	0.673448	0.500132
C33	C	0.513592	0.103852	0.000148
C34	C	1.013592	0.603852	0.500148
C35	C	0.562219	0.035513	0.000160
C36	C	1.062219	0.535513	0.500160
C37	C	0.641161	0.036776	0.000152
C38	C	1.141161	0.536776	0.500152
C39	C	0.243856	0.030418	0.000195
C40	C	0.743856	0.530418	0.500195
C41	C	0.164908	0.029160	0.000199
C42	C	0.664908	0.529160	0.500199
C43	C	0.146608	0.167090	0.000175
C44	C	0.646608	0.667090	0.500175
C45	C	0.225550	0.168353	0.000167
C46	C	0.725550	0.668353	0.500167
C47	C	0.274170	0.100015	0.000186
C48	C	0.774170	0.600015	0.500186
C49	C	0.359769	0.101384	0.000169
C50	C	0.859769	0.601384	0.500169
C51	C	0.427995	0.102481	0.000155
C52	C	0.927995	0.602481	0.500155
C53	C	0.966656	-0.169090	0.000197
C54	C	1.466656	0.330910	0.500197
C55	C	0.965394	-0.248033	0.000185
C56	C	1.465394	0.251967	0.500185
C57	C	0.895798	-0.278354	0.000166
C58	C	1.395798	0.221646	0.500166
C59	C	0.827459	-0.229727	0.000146
C60	C	1.327459	0.270273	0.500146
C61	C	0.828722	-0.150785	0.000149
C62	C	1.328722	0.349215	0.500149
C63	C	0.822364	-0.548090	0.000134
C64	C	1.322364	-0.048090	0.500134
C65	C	0.821106	-0.627038	0.000135
C66	C	1.321106	-0.127038	0.500135
C67	C	0.959036	-0.645338	0.000170
C68	C	1.459036	-0.145338	0.500170
C69	C	0.960299	-0.566396	0.000173
C70	C	1.460299	-0.066396	0.500173
C71	C	0.891961	-0.517776	0.000145
C72	C	1.391961	-0.017776	0.500145
C73	C	0.893330	-0.432177	0.000156
C74	C	1.393330	0.067823	0.500156
C75	C	0.894427	-0.363951	0.000165
C76	C	1.394427	0.136049	0.500165
C77	C	1.032268	0.096156	0.000193
C78	C	1.532268	0.596156	0.500193
C79	C	1.116286	0.097494	0.000201
C80	C	1.616286	0.597494	0.500201
C81	C	0.888102	0.240322	0.000151
C82	C	1.388102	0.740322	0.500151
C83	C	0.889440	0.324340	0.000142
C84	C	1.389440	0.824340	0.500142
N85	N	0.893876	0.101930	0.356286
N86	N	1.393876	0.601930	0.856286
N87	N	0.893894	0.101935	-0.355951
N88	N	1.393894	0.601935	0.144049
C89	C	0.945442	0.050403	0.428228
C90	C	1.445442	0.550403	0.928228
C91	C	0.945449	0.050403	0.572111
C92	C	1.445449	0.550403	1.072111
C93	C	0.842322	0.153465	0.572097
C94	C	1.342322	0.653465	1.072097
C95	C	0.842312	0.153460	0.428217
C96	C	1.342312	0.653460	0.928217
H97	H	0.647537	0.231384	0.000100
H98	H	1.147537	0.731384	0.500100
C99	C	0.297328	-0.044755	0.000196
C100	C	0.797328	0.455245	0.500196
C101	C	0.294023	-0.101830	0.118892
C102	C	0.794023	0.398170	0.618892
C103	C	0.347498	-0.177007	0.118889
C104	C	0.847498	0.322993	0.618889
C105	C	0.404278	-0.195109	0.000190
C106	C	0.904278	0.304891	0.500190
C107	C	0.407586	-0.138032	-0.118515
C108	C	0.907586	0.361968	0.381485
C109	C	0.354111	-0.062855	-0.118512
C110	C	0.854111	0.437145	0.381488
H111	H	0.251989	-0.088431	0.206768
H112	H	0.751989	0.411569	0.706768
H113	H	0.345049	-0.219260	0.206762
H114	H	0.845049	0.280740	0.706762
H115	H	0.443863	-0.250760	0.000187
H116	H	0.943863	0.249240	0.500187
H117	H	0.449620	-0.151431	-0.206391
H118	H	0.949620	0.348569	0.293609
H119	H	0.356560	-0.020603	-0.206385
H120	H	0.856560	0.479397	0.293615
H121	H	0.987438	0.008444	0.630682
H122	H	1.487438	0.508444	1.130682
C123	C	1.002155	-0.006284	0.349103
C124	C	1.502155	0.493716	0.849103
C125	C	1.058873	-0.062966	0.428246
C126	C	1.558873	0.437034	0.928246
C127	C	1.115586	-0.119657	0.349126
C128	C	1.615586	0.380343	0.849126
C129	C	1.115581	-0.119666	0.190863
C130	C	1.615581	0.380334	0.690863
C131	C	1.058861	-0.062982	0.111711
C132	C	1.558861	0.437018	0.611711
C133	C	1.002148	-0.006291	0.190831
C134	C	1.502148	0.493709	0.690831
H135	H	1.058878	-0.062961	0.545409
H136	H	1.558878	0.437039	1.045409
H137	H	1.157574	-0.161618	0.407720
H138	H	1.657574	0.338382	0.907720
H139	H	1.157563	-0.161632	0.132294
H140	H	1.657563	0.338368	0.632294
H141	H	1.058855	-0.062986	-0.005452
H142	H	1.558855	0.437014	0.494548
H143	H	0.960160	0.035670	0.132237
H144	H	1.460160	0.535670	0.632237
H145	H	0.800341	0.195420	0.630678
H146	H	1.300341	0.695420	1.130678
C147	C	1.036855	-0.533043	0.000190
C148	C	1.536855	-0.033043	0.500190
C149	C	1.056690	-0.481281	-0.118502
C150	C	1.556690	0.018719	0.381498
C151	C	1.133247	-0.447929	-0.118491
C152	C	1.633247	0.052071	0.381509
C153	C	1.189970	-0.466338	0.000211
C154	C	1.689970	0.033662	0.500211
C155	C	1.170138	-0.518102	0.118911
C156	C	1.670138	-0.018102	0.618911
C157	C	1.093580	-0.551454	0.118900
C158	C	1.593580	-0.051454	0.618900
H159	H	1.014698	-0.467651	-0.206380
H160	H	1.514698	0.032349	0.293620
H161	H	1.147929	-0.409609	-0.206361
H162	H	1.647929	0.090391	0.293639
H163	H	1.246643	-0.441648	0.000219
H164	H	1.746643	0.058352	0.500219
H165	H	1.212129	-0.531732	0.206789
H166	H	1.712129	-0.031732	0.706789
H167	H	1.078899	-0.589774	0.206771
H168	H	1.578899	-0.089774	0.706771
H169	H	0.537526	-0.021154	0.000193
H170	H	1.037526	0.478846	0.500193
H171	H	0.504328	0.229092	0.000124
H172	H	1.004328	0.729092	0.500124
H173	H	0.773078	-0.111198	0.000135
H174	H	1.273078	0.388802	0.500135
H175	H	0.250232	0.225025	0.000147
H176	H	0.750232	0.725025	0.500147
H177	H	0.800317	0.195420	0.369638
H178	H	1.300317	0.695420	0.869638
H179	H	0.766718	-0.508512	0.000112
H180	H	1.266718	-0.008512	0.500112
C181	C	0.750903	-0.263080	0.000117
C182	C	1.250903	0.236920	0.500117
C183	C	0.731059	-0.314839	0.118804
C184	C	1.231059	0.185161	0.618804
C185	C	0.654501	-0.348191	0.118776
C186	C	1.154501	0.151809	0.618776
C187	C	0.597787	-0.329784	0.000059
C188	C	1.097787	0.170216	0.500059
C189	C	0.617629	-0.278022	-0.118637
C190	C	1.117629	0.221978	0.381363
C191	C	0.694187	-0.244670	-0.118609
C192	C	1.194187	0.255330	0.381391
H193	H	0.773043	-0.328468	0.206693
H194	H	1.273043	0.171532	0.706693
H195	H	0.639813	-0.386509	0.206643
H196	H	1.139813	0.113491	0.706643
H197	H	0.541115	-0.354474	0.000038
H198	H	1.041115	0.145526	0.500038
H199	H	0.575645	-0.264394	-0.206526
H200	H	1.075645	0.235606	0.293474
H201	H	0.708875	-0.206352	-0.206476
H202	H	1.208875	0.293648	0.293524
H203	H	0.107012	0.222734	0.000166
H204	H	0.607012	0.722734	0.500166
H205	H	0.140225	-0.027517	0.000214
H206	H	0.640225	0.472483	0.500214
H207	H	0.680748	-0.018868	0.000158
H208	H	1.180748	0.481132	0.500158
H209	H	1.023330	-0.144409	0.000221
H210	H	1.523330	0.355591	0.500221
H211	H	1.021038	-0.287618	0.000201
H212	H	1.521038	0.212382	0.500201
H213	H	1.014680	-0.684934	0.000185
H214	H	1.514680	-0.184934	0.500185
H215	H	0.764429	-0.651721	0.000123
H216	H	1.264429	-0.151721	0.500123
