data_functionalizedCrystal
_audit_creation_method	'MofGen! by Chris Wilmer'
_symmetry_space_group_name_H-M	'P1'
_symmetry_Int_Tables_number	1
_symmetry_cell_setting	triclinic
loop_
_symmetry_equiv_pos_as_xyz
  x,y,z
_cell_length_a	18.050591
_cell_length_b	21.395361
_cell_length_c	18.050565
_cell_angle_alpha	90.106805
_cell_angle_beta	89.930112
_cell_angle_gamma	89.973287
loop_
_atom_site_label
_atom_site_type_symbol
_atom_site_fract_x
_atom_site_fract_y
_atom_site_fract_z
Zn1	Zn	1.135639	0.249050	-0.420011
Zn2	Zn	1.635639	0.749050	0.079989
Zn3	Zn	1.135438	0.353966	-0.295811
Zn4	Zn	1.635438	0.853966	0.204189
Zn5	Zn	1.011352	0.249199	-0.295822
Zn6	Zn	1.511352	0.749199	0.204178
Zn7	Zn	1.011401	0.353787	-0.419947
Zn8	Zn	1.511401	0.853787	0.080053
O9	O	1.073457	0.301501	-0.357898
O10	O	1.573457	0.801501	0.142102
O11	O	1.239537	0.262980	-0.403558
O12	O	1.739537	0.762980	0.096442
O13	O	1.118873	0.340206	-0.191888
O14	O	1.618873	0.840206	0.308112
O15	O	1.027903	0.161501	-0.312327
O16	O	1.527903	0.661501	0.187673
O17	O	1.239389	0.340062	-0.312309
O18	O	1.739389	0.840062	0.187691
O19	O	1.119216	0.161392	-0.403568
O20	O	1.619216	0.661392	0.096432
O21	O	1.027708	0.263234	-0.191895
O22	O	1.527708	0.763234	0.308105
O23	O	0.907434	0.263060	-0.312265
O24	O	1.407434	0.763060	0.187735
O25	O	1.027986	0.339756	-0.523881
O26	O	1.527986	0.839756	-0.023881
O27	O	0.907470	0.339900	-0.403459
O28	O	1.407470	0.839900	0.096541
O29	O	1.119263	0.262806	-0.523927
O30	O	1.619263	0.762806	-0.023927
O31	O	1.118920	0.441620	-0.312247
O32	O	1.618920	0.941620	0.187753
O33	O	1.027791	0.441488	-0.403449
O34	O	1.527791	0.941488	0.096551
C35	C	0.880505	0.301477	-0.357857
C36	C	1.380505	0.801477	0.142143
C37	C	0.797959	0.301482	-0.357857
C38	C	1.297959	0.801482	0.142143
C39	C	1.073359	0.464288	-0.357856
C40	C	1.573359	0.964288	0.142144
C41	C	1.073385	0.533929	-0.357864
C42	C	1.573385	1.033929	0.142136
C43	C	1.073652	0.301244	-0.551604
C44	C	1.573652	0.801244	-0.051604
C45	C	1.073735	0.301135	-0.634150
C46	C	1.573735	0.801135	-0.134150
C47	C	0.598468	0.259648	-0.308379
C48	C	1.098468	0.759648	0.191621
C49	C	0.549030	0.316816	-0.290098
C50	C	1.049030	0.816816	0.209902
C51	C	0.646829	0.301501	-0.357890
C52	C	1.146829	0.801501	0.142110
C53	C	0.549186	0.244353	-0.376169
C54	C	1.049186	0.744353	0.123831
C55	C	0.500844	0.301515	-0.357921
C56	C	1.000844	0.801515	0.142079
C57	C	0.598478	0.358700	-0.339574
C58	C	1.098478	0.858700	0.160426
C59	C	0.598638	0.286198	-0.425677
C60	C	1.098638	0.786198	0.074323
C61	C	0.549222	0.343405	-0.407421
C62	C	1.049222	0.843405	0.092579
C63	C	0.730927	0.301493	-0.357870
C64	C	1.230927	0.801493	0.142130
C65	C	0.416747	0.301530	-0.357941
C66	C	0.916747	0.801530	0.142059
C67	C	1.267163	0.301524	-0.357939
C68	C	1.767163	0.801524	0.142061
C69	C	1.349709	0.301534	-0.357957
C70	C	1.849709	0.801534	0.142043
C71	C	1.073576	0.138077	-0.357955
C72	C	1.573576	0.638077	0.142045
C73	C	1.073627	0.068436	-0.357980
C74	C	1.573627	0.568436	0.142020
C75	C	1.120879	0.566690	-0.310423
C76	C	1.620879	1.066690	0.189577
C77	C	1.120913	0.632126	-0.310440
C78	C	1.620913	1.132126	0.189560
C79	C	1.073441	0.664798	-0.357889
C80	C	1.573441	1.164798	0.142111
C81	C	1.025944	0.632029	-0.405339
C82	C	1.525944	1.132029	0.094661
C83	C	1.025917	0.566595	-0.405326
C84	C	1.525917	1.066595	0.094674
C85	C	1.006577	0.768502	-0.363702
C86	C	1.506577	1.268502	0.136298
C87	C	1.006603	0.833935	-0.363709
C88	C	1.506603	1.333935	0.136291
C89	C	1.073528	0.866618	-0.357933
C90	C	1.573528	1.366618	0.142067
C91	C	1.140427	0.833861	-0.352133
C92	C	1.640427	1.333861	0.147867
C93	C	1.140399	0.768427	-0.352120
C94	C	1.640399	1.268427	0.147880
C95	C	1.073466	0.735750	-0.357908
C96	C	1.573466	1.235750	0.142092
C97	C	1.121062	0.970332	-0.310508
C98	C	1.621062	1.470332	0.189492
C99	C	1.121098	1.035768	-0.310530
C100	C	1.621098	1.535768	0.189470
C101	C	1.026123	1.035670	-0.405424
C102	C	1.526123	1.535670	0.094576
C103	C	1.026094	0.970235	-0.405406
C104	C	1.526094	1.470235	0.094594
C105	C	1.073563	0.937570	-0.357944
C106	C	1.573563	1.437570	0.142056
C107	C	1.073306	0.301710	-0.164945
C108	C	1.573306	0.801710	0.335055
C109	C	1.073367	0.301643	-0.082399
C110	C	1.573367	0.801643	0.417601
C111	C	1.123474	0.342976	0.117092
C112	C	1.623474	0.842976	0.617092
C113	C	1.055883	0.358653	0.166680
C114	C	1.555883	0.858653	0.666680
C115	C	1.073489	0.301472	0.068730
C116	C	1.573489	0.801472	0.568730
C117	C	1.141199	0.285658	0.166225
C118	C	1.641199	0.785658	0.666225
C119	C	1.073614	0.301308	0.214715
C120	C	1.573614	0.801308	0.714715
C121	C	1.005862	0.317180	0.117231
C122	C	1.505862	0.817180	0.617231
C123	C	1.091223	0.244158	0.116771
C124	C	1.591223	0.744158	0.616771
C125	C	1.023585	0.259814	0.166336
C126	C	1.523585	0.759814	0.666336
C127	C	1.073419	0.301568	-0.015368
C128	C	1.573419	0.801568	0.484632
C129	C	1.073677	0.301212	0.298811
C130	C	1.573677	0.801212	0.798811
H131	H	0.620092	0.224292	-0.266464
H132	H	1.120092	0.724292	0.233536
H133	H	0.952130	0.860600	-0.368424
H134	H	1.452130	1.360600	0.131576
H135	H	0.620444	0.273226	-0.482972
H136	H	1.120444	0.773226	0.017028
H137	H	1.165639	0.378172	0.095469
H138	H	1.665639	0.878172	0.595469
H139	H	1.159532	0.540096	-0.271779
H140	H	1.659532	1.040096	0.228221
H141	H	0.527735	0.378846	-0.449304
H142	H	1.027735	0.878846	0.050696
H143	H	0.987417	0.943559	-0.444034
H144	H	1.487417	1.443559	0.055966
H145	H	1.040932	0.407052	0.188594
H146	H	1.540932	0.907052	0.688594
H147	H	0.948636	0.330541	0.095794
H148	H	1.448636	0.830541	0.595794
H149	H	1.106194	0.195773	0.094841
H150	H	1.606194	0.695773	0.594841
H151	H	0.987241	0.539920	-0.443958
H152	H	1.487241	1.039920	0.056042
H153	H	0.527242	0.329770	-0.232786
H154	H	1.027242	0.829770	0.267214
H155	H	0.981319	0.224646	0.187823
H156	H	1.481319	0.724646	0.687823
H157	H	1.194870	0.741758	-0.347400
H158	H	1.694870	1.241758	0.152600
H159	H	1.198408	0.272350	0.187752
H160	H	1.698408	0.772350	0.687752
H161	H	0.620041	0.407049	-0.324063
H162	H	1.120041	0.907049	0.175937
H163	H	0.527494	0.196024	-0.391592
H164	H	1.027494	0.696024	0.108408
H165	H	1.159591	0.658805	-0.271808
H166	H	1.659591	1.158805	0.228192
H167	H	1.194923	0.860471	-0.347429
H168	H	1.694923	1.360471	0.152571
H169	H	1.159717	0.943735	-0.271863
H170	H	1.659717	1.443735	0.228137
H171	H	1.159778	1.062441	-0.271899
H172	H	1.659778	1.562441	0.228101
H173	H	0.987474	1.062271	-0.444062
H174	H	1.487474	1.562271	0.055938
H175	H	0.952075	0.741897	-0.368409
H176	H	1.452075	1.241897	0.131591
H177	H	0.987294	0.658635	-0.443973
H178	H	1.487294	1.158635	0.056027
