data_functionalizedCrystal
_audit_creation_method	'MofGen! by Chris Wilmer'
_symmetry_space_group_name_H-M	'P1'
_symmetry_Int_Tables_number	1
_symmetry_cell_setting	triclinic
loop_
_symmetry_equiv_pos_as_xyz
  x,y,z
_cell_length_a	10.654547
_cell_length_b	15.944551
_cell_length_c	14.421503
_cell_angle_alpha	89.996660
_cell_angle_beta	90.008426
_cell_angle_gamma	83.992397
loop_
_atom_site_label
_atom_site_type_symbol
_atom_site_fract_x
_atom_site_fract_y
_atom_site_fract_z
O1	O	1.666321	0.117976	0.077130
O2	O	1.300698	0.129214	0.077128
O3	O	1.493494	0.001378	0.077121
O4	O	1.473525	0.245812	0.077137
O5	O	1.493462	0.001397	-0.077103
O6	O	1.300666	0.129233	-0.077095
O7	O	1.666289	0.117995	-0.077094
Cu8	Cu	1.483474	0.123616	-0.091176
Cu9	Cu	1.483512	0.123593	0.091211
O10	O	1.473493	0.245831	-0.077086
C11	C	1.253894	0.128398	0.000016
C12	C	1.114483	0.125927	0.000016
C13	C	1.492649	-0.029911	0.000009
C14	C	1.490163	-0.123172	0.000008
C15	C	0.852558	0.121251	0.168166
C16	C	0.918079	0.122402	0.252234
C17	C	1.049066	0.124729	0.252232
C18	C	1.114537	0.125903	0.168153
C19	C	1.049016	0.124751	0.084085
C20	C	0.918025	0.122427	0.084097
C21	C	1.048963	0.124776	-0.084052
C22	C	0.917974	0.122455	-0.084052
C23	C	1.114433	0.125950	-0.168131
C24	C	1.048911	0.124804	-0.252200
C25	C	0.917916	0.122478	-0.252194
C26	C	0.852454	0.121304	-0.168119
C27	C	1.364719	-0.338755	0.000021
C28	C	1.422955	-0.399426	-0.076021
C29	C	1.485667	-0.293924	0.000015
C30	C	1.423015	-0.399428	0.076032
C31	C	1.481315	-0.458862	0.000026
C32	C	1.543937	-0.353366	-0.076089
C33	C	1.543980	-0.353361	0.076032
C34	C	1.602305	-0.414014	-0.000028
C35	C	1.488171	-0.198907	0.000008
C36	C	1.478821	-0.553877	0.000027
C37	C	1.713092	0.118811	0.000020
C38	C	1.852504	0.121281	0.000027
C39	C	1.474338	0.277120	0.000028
C40	C	1.476823	0.370381	0.000035
N41	N	1.483457	0.123631	-0.219457
C42	C	1.394292	0.182715	-0.469108
C43	C	1.507770	0.199680	-0.530908
C44	C	1.483488	0.123611	-0.408619
C45	C	1.370040	0.106666	-0.530912
C46	C	1.483507	0.123594	-0.591340
C47	C	1.597022	0.140614	-0.469059
C48	C	1.459217	0.047567	-0.469057
C49	C	1.572777	0.064500	-0.530830
C50	C	1.483475	0.123623	-0.303358
C51	C	1.483533	0.123581	-0.696599
N52	N	1.483540	0.123571	0.219492
H53	H	0.745899	0.119367	0.168177
H54	H	1.648297	0.014507	-0.557761
F55	F	1.356140	-0.426086	0.160053
H56	H	0.864759	0.121443	0.320689
F57	F	1.233499	-0.295981	-0.000074
F58	F	1.253948	0.128367	0.168155
F59	F	1.610807	-0.326671	0.160064
H60	H	1.318940	0.232739	-0.442007
F61	F	1.253843	0.128422	-0.168131
H62	H	1.371786	-0.419823	-0.140308
H63	H	1.702785	-0.446590	-0.000070
F64	F	1.534627	0.283726	-0.566420
F65	F	1.118801	0.125949	0.341705
F66	F	1.722465	0.159435	-0.433700
H67	H	1.438636	-0.016715	-0.441867
F68	F	1.244629	0.087941	-0.566426
F69	F	0.848195	0.121245	-0.341672
H70	H	0.745796	0.119414	-0.168106
F71	F	1.610733	-0.326843	-0.160207
F72	F	1.118597	0.126049	-0.341672
