data_functionalizedCrystal
_audit_creation_method	'MofGen! by Chris Wilmer'
_symmetry_space_group_name_H-M	'P1'
_symmetry_Int_Tables_number	1
_symmetry_cell_setting	triclinic
loop_
_symmetry_equiv_pos_as_xyz
  x,y,z
_cell_length_a	14.971506
_cell_length_b	17.666332
_cell_length_c	14.971506
_cell_angle_alpha	90.005633
_cell_angle_beta	83.622388
_cell_angle_gamma	90.009655
loop_
_atom_site_label
_atom_site_type_symbol
_atom_site_fract_x
_atom_site_fract_y
_atom_site_fract_z
O1	O	1.186948	0.062952	0.116649
O2	O	1.686948	0.562952	0.616649
O3	O	0.926551	0.062952	0.130589
O4	O	1.426551	0.562952	0.630589
O5	O	1.063720	0.062949	-0.006579
O6	O	1.563720	0.562949	0.493421
O7	O	1.049780	0.062956	0.253817
O8	O	1.549780	0.562956	0.753817
O9	O	1.063696	-0.062948	-0.006587
O10	O	1.563696	0.437052	0.493413
O11	O	0.926527	-0.062944	0.130582
O12	O	1.426527	0.437056	0.630582
O13	O	1.186924	-0.062945	0.116642
O14	O	1.686924	0.437055	0.616642
Cu15	Cu	1.056723	-0.074440	0.123611
Cu16	Cu	1.556723	0.425560	0.623611
Cu17	Cu	1.056752	0.074448	0.123620
Cu18	Cu	1.556752	0.574448	0.623620
O19	O	1.049756	-0.062941	0.253810
O20	O	1.549756	0.437059	0.753810
C21	C	0.893215	0.000004	0.129959
C22	C	1.393215	0.500004	0.629959
C23	C	0.793919	0.000004	0.128081
C24	C	1.293919	0.500004	0.628081
N25	N	1.056710	-0.179159	0.123604
N26	N	1.556710	0.320841	0.623604
C27	C	0.355641	0.000014	0.201498
C28	C	0.855641	0.500014	0.701498
C29	C	0.448942	0.000017	0.203256
C30	C	0.948942	0.500017	0.703256
C31	C	0.506156	0.000012	0.122664
C32	C	1.006156	0.500012	0.622664
C33	C	0.470065	0.000011	0.040310
C34	C	0.970065	0.500011	0.540310
C35	C	0.376767	0.000013	0.038553
C36	C	0.876767	0.500013	0.538553
C37	C	0.664529	0.000004	0.043976
C38	C	1.164529	0.500004	0.543976
C39	C	0.757834	0.000001	0.045733
C40	C	1.257834	0.500001	0.545733
C41	C	0.736704	0.000009	0.208679
C42	C	1.236704	0.500009	0.708679
C43	C	0.643405	0.000011	0.206922
C44	C	1.143405	0.500011	0.706922
C45	C	0.607321	0.000008	0.124568
C46	C	1.107321	0.500008	0.624568
C47	C	1.117468	-0.218771	0.062896
C48	C	1.617468	0.281229	0.562896
C49	C	1.117473	-0.298018	0.062892
C50	C	1.617473	0.201982	0.562892
C51	C	1.056729	-0.337651	0.123611
C52	C	1.556729	0.162349	0.623611
C53	C	0.995960	-0.298031	0.184324
C54	C	1.495960	0.201969	0.684324
C55	C	0.995950	-0.218784	0.184321
C56	C	1.495950	0.281216	0.684321
N57	N	1.045434	-0.462068	0.202743
N58	N	1.545434	0.037932	0.702743
N59	N	1.045448	-0.537348	0.202744
N60	N	1.545448	-0.037348	0.702744
C61	C	1.056752	-0.576415	0.123624
C62	C	1.556752	-0.076415	0.623624
N63	N	1.068060	-0.537358	0.044501
N64	N	1.568060	-0.037358	0.544501
N65	N	1.068050	-0.462071	0.044501
N66	N	1.568050	0.037929	0.544501
C67	C	1.056732	-0.423580	0.123621
C68	C	1.556732	0.076420	0.623621
C69	C	1.117519	-0.701956	0.062906
C70	C	1.617519	-0.201956	0.562906
C71	C	1.117518	-0.781205	0.062900
C72	C	1.617518	-0.281205	0.562900
C73	C	0.996009	-0.781216	0.184340
C74	C	1.496009	-0.281216	0.684340
C75	C	0.996006	-0.701968	0.184338
C76	C	1.496006	-0.201968	0.684338
C77	C	1.056766	-0.662343	0.123622
C78	C	1.556766	-0.162343	0.623622
C79	C	1.220260	0.000006	0.117272
C80	C	1.720260	0.500006	0.617272
C81	C	1.319557	0.000010	0.119150
C82	C	1.819557	0.500010	0.619150
C83	C	1.063081	0.000001	-0.039907
C84	C	1.563081	0.500001	0.460093
C85	C	1.061203	0.000004	-0.139204
C86	C	1.561203	0.500004	0.360796
N87	N	1.056773	0.179167	0.123619
N88	N	1.556773	0.679167	0.623619
C89	C	1.050394	0.000008	0.287138
C90	C	1.550394	0.500008	0.787138
C91	C	1.052272	0.000011	0.386434
C92	C	1.552272	0.500011	0.886434
C93	C	0.978855	0.000003	0.824712
C94	C	1.478855	0.500003	1.324712
C95	C	0.977097	-0.000000	0.731411
C96	C	1.477097	0.500000	1.231411
C97	C	1.057689	0.000003	0.674197
C98	C	1.557689	0.500003	1.174197
C99	C	1.140044	0.000001	0.710288
C100	C	1.640044	0.500001	1.210288
C101	C	1.141800	-0.000001	0.803586
C102	C	1.641800	0.499999	1.303586
C103	C	1.136377	0.000008	0.515824
C104	C	1.636377	0.500008	1.015824
C105	C	1.134620	0.000012	0.422519
C106	C	1.634620	0.500012	0.922519
C107	C	0.971674	0.000009	0.443649
C108	C	1.471674	0.500009	0.943649
C109	C	0.973431	0.000006	0.536948
C110	C	1.473431	0.500006	1.036948
C111	C	1.055785	0.000006	0.573032
C112	C	1.555785	0.500006	1.073032
H113	H	0.309063	0.000012	0.267126
H114	H	0.809063	0.500012	0.767126
H115	H	0.347389	0.000011	-0.028503
H116	H	0.847389	0.500011	0.471497
Br117	Br	1.199975	-0.648177	-0.019497
Br118	Br	1.699975	-0.148177	0.480503
Br119	Br	0.835482	-0.000002	-0.063643
Br120	Br	1.335482	0.499998	0.436357
H121	H	1.205662	-0.000001	0.663696
H122	H	1.705662	0.499999	1.163696
H123	H	1.166992	-0.813457	0.013460
H124	H	1.666992	-0.313457	0.513460
Br125	Br	0.859907	0.000006	0.394680
Br126	Br	1.359907	0.500006	0.894680
H127	H	1.203439	0.000005	0.545200
H128	H	1.703439	0.500005	1.045200
Br129	Br	0.865334	-0.000002	0.682443
Br130	Br	1.365334	0.499998	1.182443
H131	H	0.478317	0.000027	0.270312
H132	H	0.978317	0.500027	0.770312
H133	H	0.913228	0.000004	0.871290
H134	H	1.413228	0.500004	1.371290
Br135	Br	1.199922	-0.164993	-0.019505
Br136	Br	1.699922	0.335007	0.480495
Br137	Br	0.565757	0.000012	0.316298
Br138	Br	1.065757	0.500012	0.816298
H139	H	0.766087	0.000010	0.275735
H140	H	1.266087	0.500010	0.775735
H141	H	1.208856	-0.000002	0.832964
H142	H	1.708856	0.499998	1.332964
H143	H	0.946547	-0.813485	0.233776
H144	H	1.446547	-0.313485	0.733776
Br145	Br	0.615558	-0.000003	-0.067792
Br146	Br	1.115558	0.499997	0.432208
Br147	Br	0.913548	-0.648204	0.266734
Br148	Br	1.413548	-0.148204	0.766734
Br149	Br	0.547712	0.000007	-0.069066
Br150	Br	1.047712	0.500007	0.430934
H151	H	1.166951	-0.330276	0.013454
H152	H	1.666951	0.169724	0.513454
H153	H	1.200245	0.000018	0.375937
H154	H	1.700245	0.500018	0.875937
H155	H	0.946499	-0.330304	0.233761
H156	H	1.446499	0.169696	0.733761
H157	H	0.907806	0.000010	0.583530
H158	H	1.407806	0.500010	1.083530
H159	H	0.946473	-0.186532	0.233758
H160	H	1.446473	0.313468	0.733758
