data_functionalizedCrystal
_audit_creation_method	'MofGen! by Chris Wilmer'
_symmetry_space_group_name_H-M	'P1'
_symmetry_Int_Tables_number	1
_symmetry_cell_setting	triclinic
loop_
_symmetry_equiv_pos_as_xyz
  x,y,z
_cell_length_a	13.032831
_cell_length_b	17.637651
_cell_length_c	13.033255
_cell_angle_alpha	92.721813
_cell_angle_beta	103.333446
_cell_angle_gamma	92.682084
loop_
_atom_site_label
_atom_site_type_symbol
_atom_site_fract_x
_atom_site_fract_y
_atom_site_fract_z
Zn1	Zn	1.539422	-0.524904	0.645572
Zn2	Zn	1.484096	-0.631603	0.435267
Zn3	Zn	1.350366	-0.488588	0.456595
Zn4	Zn	1.329128	-0.631536	0.590328
O5	O	1.425753	-0.569158	0.531940
O6	O	1.676058	-0.554284	0.631868
O7	O	1.452091	-0.597462	0.294115
O8	O	1.407487	-0.388927	0.513708
O9	O	1.635410	-0.632676	0.477358
O10	O	1.546385	-0.415608	0.652549
O11	O	1.353840	-0.492389	0.309784
O12	O	1.203574	-0.492324	0.460141
O13	O	1.371290	-0.632561	0.741638
O14	O	1.187971	-0.597347	0.558395
O15	O	1.525792	-0.554219	0.782225
O16	O	1.431497	-0.736073	0.423791
O17	O	1.317643	-0.736023	0.537714
C18	C	1.158441	-0.540888	0.505588
C19	C	1.044081	-0.528815	0.494334
C20	C	0.985371	-0.575459	0.537814
C21	C	0.867174	-0.562982	0.526183
C22	C	1.366292	-0.763143	0.472468
C23	C	1.340952	-0.846145	0.447070
C24	C	1.618960	-1.188295	0.725282
C25	C	1.595115	-1.266282	0.701395
C26	C	1.450555	-1.238603	0.556702
C27	C	1.474391	-1.160612	0.580573
C28	C	1.558594	-1.135465	0.664865
C29	C	1.414026	-1.107781	0.520157
C30	C	1.437857	-1.029797	0.544031
C31	C	1.522055	-1.004643	0.628321
C32	C	1.582426	-1.057480	0.688739
C33	C	1.329819	-1.132930	0.435870
C34	C	1.269453	-1.080099	0.375454
C35	C	1.293289	-1.002113	0.399322
C36	C	1.377486	-0.976960	0.483612
C37	C	1.232917	-0.949276	0.338904
C38	C	1.256749	-0.871292	0.362778
C39	C	1.401317	-0.898975	0.507486
C40	C	1.694109	-0.597538	0.558396
C41	C	1.808466	-0.609632	0.569669
C42	C	1.452343	-0.597433	0.800308
C43	C	1.463674	-0.609483	0.914670
C44	C	1.485477	-0.374420	0.591670
C45	C	1.510927	-0.291434	0.617123
C46	C	1.399342	-0.540945	0.264639
C47	C	1.388275	-0.528706	0.150362
C48	C	1.431831	-0.575319	1.091615
C49	C	1.420112	-0.562863	0.973415
H50	H	0.845703	-0.658803	0.615516
N51	N	1.327394	-0.463619	1.101095
H52	H	1.252163	-0.469389	1.108947
H53	H	1.327734	-0.463976	1.023662
N54	N	1.178644	-1.107223	0.284536
H55	H	1.125171	-1.138951	0.311687
H56	H	1.205988	-1.138939	0.231155
H57	H	1.477791	-0.624451	1.128825
N58	N	0.817859	-0.497849	0.465453
H59	H	0.788006	-0.463035	0.513575
H60	H	0.759293	-0.518502	0.404068
H61	H	1.006841	-0.479642	0.448503
H62	H	1.374139	-0.513732	0.936207
H63	H	1.469891	-0.878501	0.576118
H64	H	1.164353	-0.969763	0.270280
H65	H	1.509647	-0.658614	0.951877
H66	H	1.022614	-0.624627	0.583654
H67	H	1.541457	-0.941143	0.647757
H68	H	1.651000	-1.037006	0.757371
H69	H	1.687534	-1.167821	0.793914
H70	H	1.207592	-0.828275	0.313581
N71	N	1.660235	-1.323265	0.766558
H72	H	1.736338	-1.315755	0.762047
H73	H	1.632275	-1.376458	0.738605
N74	N	1.359744	-1.265728	0.465786
H75	H	1.353806	-1.323147	0.459827
H76	H	1.372716	-1.246064	0.398078
H77	H	1.310409	-1.196430	0.416444
