data_functionalizedCrystal
_audit_creation_method	'MofGen! by Chris Wilmer'
_symmetry_space_group_name_H-M	'P1'
_symmetry_Int_Tables_number	1
_symmetry_cell_setting	triclinic
loop_
_symmetry_equiv_pos_as_xyz
  x,y,z
_cell_length_a	31.640172
_cell_length_b	16.704479
_cell_length_c	16.704494
_cell_angle_alpha	60.171608
_cell_angle_beta	89.995619
_cell_angle_gamma	63.417872
loop_
_atom_site_label
_atom_site_type_symbol
_atom_site_fract_x
_atom_site_fract_y
_atom_site_fract_z
Zr1	Zr	0.434423	0.863877	-0.142559
O2	O	0.374614	1.018027	-0.272001
O3	O	0.449477	0.701078	-0.097214
O4	O	0.458060	0.851387	-0.263838
O5	O	0.362992	0.880587	0.019615
O6	O	0.527616	0.851373	-0.263842
O7	O	0.366031	0.867719	-0.105377
O8	O	0.512262	0.582498	0.034218
O9	O	0.378346	1.149462	-0.278445
O10	O	0.511770	0.771233	-0.084721
O11	O	0.457593	0.780847	0.008562
O12	O	0.467699	0.957816	-0.187616
O13	O	0.413523	0.967430	-0.094333
Zr14	Zr	0.540510	0.884379	0.056782
Zr15	Zr	0.545357	0.863855	-0.142566
Zr16	Zr	0.429576	0.884401	0.056789
Zr17	Zr	0.440375	1.073501	-0.152836
Zr18	Zr	0.534558	0.674755	0.067059
O19	O	0.525457	1.047178	0.011437
O20	O	0.532348	1.017996	-0.272011
O21	O	0.367723	1.047209	0.011447
O22	O	0.600319	0.730228	0.186224
O23	O	0.607210	0.701046	-0.097224
O24	O	0.442586	0.730260	0.186234
O25	O	0.611942	0.867669	-0.105392
O26	O	0.516873	0.896869	0.178061
O27	O	0.447317	0.896883	0.178065
O28	O	0.608903	0.880537	0.019600
O29	O	0.466524	1.149444	-0.278451
O30	O	0.508409	0.598811	0.192674
O31	O	0.596587	0.598794	0.192668
O32	O	0.600439	0.582480	0.034213
O33	O	0.374494	1.165776	-0.119990
O34	O	0.462672	1.165758	-0.119995
O35	O	0.507234	0.790440	0.101840
O36	O	0.561411	0.780826	0.008556
O37	O	0.517340	0.967409	-0.094339
O38	O	0.463164	0.977023	-0.001055
C39	C	0.480021	0.611921	-0.030034
C40	C	0.477494	0.522931	-0.025671
C41	C	0.348705	0.874156	-0.042880
C42	C	0.301611	0.874165	-0.042877
C43	C	0.445642	0.402545	0.029139
C44	C	0.448024	0.486142	0.025063
C45	C	0.504586	0.476113	-0.072329
C46	C	0.502205	0.392516	-0.068253
C47	C	0.472731	0.355736	-0.017518
C48	C	0.470347	0.272142	-0.013448
C49	C	0.526912	0.262110	-0.110833
C50	C	0.529294	0.345707	-0.114910
C51	C	0.011278	0.867018	-0.111745
C52	C	-0.165708	0.867004	-0.111751
O53	O	-0.187159	0.860927	-0.170288
N54	N	-0.189513	0.874095	-0.042893
C55	C	-0.169067	0.881184	0.025976
O56	O	-0.193372	0.887204	0.084550
C57	C	0.007921	0.881191	0.025985
C58	C	0.031721	0.874110	-0.042883
C59	C	0.035079	0.859937	-0.180608
C60	C	0.079321	0.859946	-0.180609
C61	C	0.099764	0.867038	-0.111747
C62	C	0.075964	0.874119	-0.042884
C63	C	0.028368	0.888272	0.094858
C64	C	0.072619	0.888270	0.094855
C65	C	0.096419	0.881189	0.025987
C66	C	0.140649	0.881220	0.025976
N67	N	0.164453	0.874129	-0.042882
C68	C	0.144011	0.867038	-0.111744
C69	C	-0.261988	0.881182	0.025965
C70	C	-0.306235	0.881182	0.025961
C71	C	-0.302873	0.867000	-0.111765
C72	C	-0.258627	0.867007	-0.111765
C73	C	-0.238184	0.874090	-0.042894
C74	C	0.236923	0.867059	-0.111741
C75	C	0.281169	0.867074	-0.111738
C76	C	0.277804	0.881251	0.025990
C77	C	0.233561	0.881242	0.025985
C78	C	0.213123	0.874142	-0.042885
O79	O	0.162130	0.887282	0.084489
O80	O	0.168330	0.860994	-0.170296
C81	C	-0.032964	0.867009	-0.111744
C82	C	-0.056764	0.874090	-0.042881
C83	C	-0.036322	0.881182	0.025980
C84	C	-0.101011	0.874091	-0.042885
C85	C	-0.121454	0.866999	-0.111746
C86	C	-0.097649	0.859908	-0.180605
C87	C	-0.053407	0.859917	-0.180606
C88	C	-0.060126	0.888273	0.094839
C89	C	-0.104369	0.888264	0.094833
C90	C	-0.124812	0.881173	0.025972
C91	C	0.626228	0.874100	-0.042897
C92	C	0.673322	0.874090	-0.042900
C93	C	0.493529	0.848456	-0.292243
C94	C	0.495586	0.839743	-0.376872
C95	C	0.494912	1.136335	-0.055743
C96	C	0.497439	1.225325	-0.060106
C97	C	0.453447	1.018181	-0.643332
C98	C	0.455379	1.010000	-0.722851
C99	C	0.501386	0.815200	-0.615431
C100	C	0.499453	0.823381	-0.535912
C101	C	0.475483	0.924876	-0.549867
C102	C	0.473548	0.933056	-0.470346
C103	C	0.519557	0.738257	-0.362928
C104	C	0.521489	0.730075	-0.442447
C105	C	0.481404	0.899800	0.206466
C106	C	0.479347	0.908513	0.291095
C107	C	0.618782	0.611893	-0.030042
C108	C	0.663350	0.522893	-0.025682
C109	C	0.473959	0.637593	0.219321
C110	C	0.469374	0.557315	0.308313
C111	C	0.612720	0.637565	0.219312
C112	C	0.655230	0.557278	0.308301
C113	C	0.362213	1.110691	-0.305089
C114	C	0.319703	1.190978	-0.394078
C115	C	0.356151	1.136363	-0.055735
C116	C	0.311584	1.225363	-0.060095
C117	C	0.500974	1.110663	-0.305098
C118	C	0.505559	1.190940	-0.394090
C119	C	0.658367	0.476089	-0.072333
C120	C	0.700239	0.392474	-0.068256
C121	C	0.747093	0.355659	-0.017521
C122	C	0.752075	0.402471	0.029130
C123	C	0.710204	0.486090	0.025047
C124	C	0.493133	0.524625	0.398802
C125	C	0.488824	0.449208	0.482426
C126	C	0.460758	0.406477	0.475559
C127	C	0.436996	0.439175	0.385060
C128	C	0.441303	0.514597	0.301438
C129	C	0.703477	0.514556	0.301398
C130	C	0.743424	0.439128	0.385004
C131	C	0.735123	0.406419	0.475512
C132	C	0.686871	0.449149	0.482413
C133	C	0.646925	0.524581	0.398808
C134	C	0.271456	1.233710	-0.387175
C135	C	0.231510	1.309164	-0.470783
C136	C	0.239811	1.341878	-0.561291
C137	C	0.288063	1.299142	-0.568192
C138	C	0.328009	1.223696	-0.484586
C139	C	0.316567	1.272174	-0.013453
C140	C	0.274696	1.355810	-0.017553
C141	C	0.227842	1.392628	-0.068290
C142	C	0.222860	1.345813	-0.114938
C143	C	0.264731	1.262183	-0.110843
C144	C	0.533628	1.233647	-0.387191
C145	C	0.537946	1.309067	-0.470800
C146	C	0.514190	1.341783	-0.561307
C147	C	0.486119	1.299068	-0.568203
C148	C	0.481805	1.223644	-0.484595
H149	H	0.446346	0.242201	0.027859
C150	C	0.368103	1.231696	0.042360
N151	N	0.406919	1.201218	0.084395
H152	H	0.781184	0.287569	-0.014203
H153	H	0.620220	0.506062	-0.113658
C154	C	0.259240	1.210687	-0.162144
N155	N	0.255101	1.171903	-0.200785
C156	C	0.518939	1.424754	-0.653270
N157	N	0.522518	1.487251	-0.722533
C158	C	0.415170	0.550535	0.201902
N159	N	0.395486	0.577599	0.126932
H160	H	0.278762	1.393915	0.020438
H161	H	0.714267	0.524188	0.063041
H162	H	0.294454	0.887029	0.082054
H163	H	0.193752	1.460725	-0.071617
C164	C	0.381080	1.176684	-0.492195
N165	N	0.421053	1.141277	-0.497932
H166	H	0.680119	0.422505	0.556117
C167	C	0.524006	0.571621	0.406379
N168	N	0.547257	0.607020	0.412094
C169	C	-0.120144	0.852104	-0.256351
N170	N	-0.137087	0.846218	-0.313395
H171	H	0.184706	1.375803	-0.156248
C172	C	0.559768	1.197668	-0.287642
N173	N	0.579460	1.170568	-0.212663
H174	H	0.607641	0.559356	0.404442
C175	C	0.796498	0.392128	0.377392
N176	N	0.836471	0.356727	0.371656
C177	C	0.195864	1.424863	-0.653252
N178	N	0.162761	1.487364	-0.722513
H179	H	0.767654	0.344996	0.543582
H180	H	0.560802	1.343838	-0.465166
C181	C	0.178436	1.356158	-0.463170
N182	N	0.138463	1.391551	-0.457434
H183	H	0.421639	0.372606	0.070440
H184	H	0.466779	1.325717	-0.641904
C185	C	0.694748	0.340987	-0.119569
N186	N	0.690610	0.302206	-0.158216
H187	H	0.264687	1.207079	-0.313486
C188	C	0.297187	1.335129	-0.667761
N189	N	0.304057	1.362229	-0.742758
H190	H	-0.043485	0.894046	0.150915
H191	H	0.458946	1.188880	-0.490225
C192	C	0.561703	0.386195	-0.170736
N193	N	0.586108	0.416699	-0.212797
H194	H	0.425964	0.524252	0.063054
H195	H	0.528587	0.506064	-0.113627
C196	C	0.712621	0.550528	0.201846
N197	N	0.719512	0.577623	0.126865
H198	H	0.300545	0.861310	-0.167823
C199	C	0.214446	0.859254	-0.187504
N200	N	0.197515	0.853383	-0.244573
C201	C	0.456031	0.323501	0.567556
N202	N	0.452474	0.260999	0.636852
C203	C	0.105500	0.852139	-0.256361
N204	N	0.125216	0.846252	-0.313418
H205	H	-0.239252	0.861240	-0.167843
C206	C	0.012601	0.852127	-0.256363
N207	N	-0.004327	0.846248	-0.313430
H208	H	0.508176	0.422594	0.556106
C209	C	-0.325366	0.859190	-0.187508
N210	N	-0.342308	0.853299	-0.244550
C211	C	0.406128	0.392155	0.377522
N212	N	0.382881	0.356731	0.371848
C213	C	-0.332413	0.888983	0.101716
N214	N	-0.352127	0.894852	0.158782
C215	C	0.427077	1.129824	-0.658680
N216	N	0.407214	1.213916	-0.670243
H217	H	0.548968	0.223991	-0.148828
C218	C	-0.239501	0.888952	0.101746
N219	N	-0.222564	0.894800	0.158827
H220	H	0.008997	0.894037	0.150937
H221	H	0.089263	0.894035	0.150942
H222	H	0.537497	0.662280	-0.286817
H223	H	0.214179	0.887023	0.082056
H224	H	-0.034032	0.854151	-0.236685
C225	C	0.803619	0.361954	0.084943
N226	N	0.842443	0.331428	0.126988
H227	H	0.454027	1.015698	-0.481713
C228	C	-0.130544	0.896054	0.170601
N229	N	-0.150255	0.901909	0.227673
H230	H	0.437436	1.085979	-0.798952
H231	H	0.520907	0.732569	-0.604086
C232	C	0.547853	0.618438	-0.427110
N233	N	0.567708	0.534350	-0.415555
