data_functionalizedCrystal
_audit_creation_method	'MofGen! by Chris Wilmer'
_symmetry_space_group_name_H-M	'P1'
_symmetry_Int_Tables_number	1
_symmetry_cell_setting	triclinic
loop_
_symmetry_equiv_pos_as_xyz
  x,y,z
_cell_length_a	8.559649
_cell_length_b	10.654550
_cell_length_c	9.130313
_cell_angle_alpha	89.997153
_cell_angle_beta	89.996704
_cell_angle_gamma	77.131797
loop_
_atom_site_label
_atom_site_type_symbol
_atom_site_fract_x
_atom_site_fract_y
_atom_site_fract_z
O1	O	-2.119655	0.042561	0.121775
O2	O	-1.655169	-0.022226	0.121783
O3	O	-1.898091	0.194010	0.121769
O4	O	-1.876733	-0.173675	0.121788
O5	O	-1.898073	0.194008	-0.121829
O6	O	-1.655151	-0.022228	-0.121816
O7	O	-2.119637	0.042559	-0.121824
Cu8	Cu	-1.887392	0.010165	-0.144063
Cu9	Cu	-1.887414	0.010167	0.144021
O10	O	-1.876714	-0.173677	-0.121811
C11	C	-1.595684	-0.027137	-0.000016
C12	C	-1.418466	-0.041751	-0.000013
C13	C	-1.896514	0.240645	-0.000029
C14	C	-1.891822	0.379603	-0.000027
C15	C	-2.179121	0.047469	-0.000023
C16	C	-2.356339	0.062084	-0.000016
C17	C	-1.878292	-0.220312	-0.000009
C18	C	-1.882984	-0.359271	-0.000002
N19	N	-1.887388	0.010165	-0.346685
C20	C	-2.034851	0.473864	-0.000029
C21	C	-2.030432	0.604428	-0.000011
C22	C	-1.739944	0.546458	0.000005
C23	C	-1.744364	0.415896	-0.000003
C24	C	-1.985033	-0.056630	-0.423329
C25	C	-1.985059	-0.056620	-0.576666
C26	C	-1.789781	0.076982	-0.576701
C27	C	-1.789765	0.076979	-0.423367
N28	N	-1.887430	0.010178	0.346644
H29	H	-1.438727	0.162162	-0.000014
C30	C	-1.308803	-0.175286	-0.000229
C31	C	-1.338491	-0.242064	-0.125534
C32	C	-1.237516	-0.365082	-0.125772
H33	H	-1.200244	-0.167890	-0.000300
H34	H	-1.328753	-0.220844	0.084677
H35	H	-1.318529	-0.196517	-0.210418
H36	H	-1.447031	-0.249495	-0.125490
H37	H	-1.257466	-0.410640	-0.040866
H38	H	-1.128963	-0.357673	-0.125839
H39	H	-1.257656	-0.410410	-0.210782
C40	C	-2.194988	0.434531	0.000267
C41	C	-2.281523	0.483740	0.125616
C42	C	-2.429043	0.447523	0.125955
H43	H	-2.254133	0.467828	-0.084579
H44	H	-2.177206	0.343275	0.000341
H45	H	-2.299310	0.574978	0.125529
H46	H	-2.222427	0.450450	0.210482
H47	H	-2.411261	0.356267	0.126029
H48	H	-2.488173	0.480822	0.041104
H49	H	-2.487769	0.480896	0.211009
C50	C	-2.091122	-0.129277	-0.659615
C51	C	-2.176577	-0.187811	-0.559635
C52	C	-2.274289	-0.254768	-0.635993
H53	H	-2.164158	-0.070941	-0.719426
H54	H	-2.026388	-0.193349	-0.719408
H55	H	-2.241307	-0.123746	-0.499867
H56	H	-2.103582	-0.246167	-0.499821
H57	H	-2.209555	-0.318840	-0.695785
H58	H	-2.347315	-0.196423	-0.695801
H59	H	-2.332271	-0.294501	-0.568168
C60	C	-1.683570	0.149527	-0.340406
C61	C	-1.598038	0.208004	-0.440376
C62	C	-1.500191	0.274832	-0.364006
H63	H	-1.748168	0.213624	-0.280581
H64	H	-1.610592	0.091083	-0.280628
H65	H	-1.671008	0.266443	-0.500130
H66	H	-1.533410	0.143936	-0.500205
H67	H	-1.427212	0.216388	-0.304228
H68	H	-1.564801	0.338922	-0.304183
H69	H	-1.442135	0.314506	-0.431824
H70	H	-2.146901	0.681172	-0.000009
H71	H	-1.619888	0.576024	0.000022
H72	H	-1.627885	0.339143	0.000003
H73	H	-2.064524	-0.111034	-0.360900
H74	H	-1.710298	0.131378	-0.639154
