data_functionalizedCrystal
_audit_creation_method	'MofGen! by Chris Wilmer'
_symmetry_space_group_name_H-M	'P1'
_symmetry_Int_Tables_number	1
_symmetry_cell_setting	triclinic
loop_
_symmetry_equiv_pos_as_xyz
  x,y,z
_cell_length_a	9.016244
_cell_length_b	14.044220
_cell_length_c	14.044220
_cell_angle_alpha	86.811122
_cell_angle_beta	89.990615
_cell_angle_gamma	89.991726
loop_
_atom_site_label
_atom_site_type_symbol
_atom_site_fract_x
_atom_site_fract_y
_atom_site_fract_z
O1	O	-0.123188	-1.277157	0.230172
O2	O	-0.123226	-1.000486	0.221866
O3	O	-0.123193	-1.134669	0.087683
O4	O	-0.123221	-1.142975	0.364355
O5	O	0.123488	-1.134677	0.087669
O6	O	0.123455	-1.000494	0.221852
O7	O	0.123492	-1.277165	0.230157
Cu8	Cu	0.145998	-1.138830	0.226003
Cu9	Cu	-0.145731	-1.138821	0.226021
O10	O	0.123460	-1.142983	0.364340
C11	C	0.000110	-0.964868	0.218223
C12	C	0.000096	-0.858725	0.207379
N13	N	-0.350917	-1.138814	0.226026
C14	C	0.000147	-1.131037	0.052054
C15	C	0.000148	-1.120193	-0.054088
C16	C	-0.585967	-1.067136	0.297886
C17	C	-0.414076	-1.066823	0.297681
C18	C	-0.413275	-1.108888	0.124511
C19	C	-0.585220	-1.108382	0.124904
C20	C	-0.585424	-1.240632	0.254743
C21	C	-0.413470	-1.240139	0.256970
N22	N	0.351184	-1.138844	0.225991
C23	C	0.000153	-1.312783	0.233800
C24	C	0.000157	-1.418926	0.244645
C25	C	0.000128	-0.664388	0.187553
C26	C	0.000126	-0.613258	0.264467
C27	C	0.000143	-0.505122	0.253435
C28	C	0.000110	-0.772534	0.198583
C29	C	0.000124	-1.100366	-0.248426
C30	C	0.000130	-1.177281	-0.299556
C31	C	0.000116	-1.166249	-0.407692
C32	C	0.000137	-1.111397	-0.140280
C33	C	0.000116	-1.146614	0.399969
C34	C	0.000106	-1.157459	0.506112
H35	H	-0.371919	-1.085855	0.372860
H36	H	0.000040	-1.251414	-0.262117
C37	C	0.000124	-1.008600	-0.397855
C38	C	0.000123	-1.000293	-0.298960
H39	H	0.000138	-0.946818	-0.429058
H40	H	-0.085898	-1.042286	-0.415780
H41	H	0.086149	-1.042315	-0.415795
H42	H	-0.085908	-0.966583	-0.281019
H43	H	0.086154	-0.966592	-0.281028
H44	H	-0.372360	-1.159379	0.069373
C45	C	-0.126684	-0.640301	0.037830
C46	C	0.000129	-0.613855	0.087478
H47	H	-0.126680	-0.609100	-0.023953
H48	H	-0.212686	-0.622345	0.071544
H49	H	-0.126674	-0.707396	0.032213
H50	H	0.000114	-0.546761	0.093101
H51	H	0.086153	-0.631806	0.053756
H52	H	-0.627350	-1.085983	0.373286
H53	H	-0.372741	-1.262650	0.331699
H54	H	-0.372957	-0.991452	0.278421
C55	C	-0.725006	-0.933421	0.349112
C56	C	-0.644308	-0.965979	0.272173
H57	H	-0.761031	-0.870974	0.333231
H58	H	-0.662497	-0.932175	0.403460
H59	H	-0.806233	-0.975027	0.362813
H60	H	-0.563074	-0.924376	0.258477
H61	H	-0.706820	-0.967218	0.217809
C62	C	-0.518377	-1.353242	0.139602
C63	C	-0.640295	-1.312801	0.184108
H64	H	-0.552264	-1.397785	0.095990
H65	H	-0.457148	-1.384908	0.186407
H66	H	-0.463052	-1.304458	0.106214
H67	H	-0.695614	-1.361584	0.217503
H68	H	-0.701549	-1.281135	0.137296
C69	C	-0.516952	-0.948614	0.072913
C70	C	-0.639388	-1.007832	0.092499
H71	H	-0.550391	-0.886536	0.052915
H72	H	-0.459132	-0.973921	0.023740
H73	H	-0.458312	-0.945213	0.128810
H74	H	-0.698023	-1.011238	0.036600
H75	H	-0.697232	-0.982518	0.141676
C76	C	0.000018	-0.762688	0.356250
C77	C	0.000055	-0.663792	0.364547
H78	H	-0.000049	-0.793886	0.418033
H79	H	0.086053	-0.780648	0.322573
H80	H	-0.085994	-0.780599	0.322528
H81	H	0.086073	-0.645880	0.398263
H82	H	-0.085989	-0.645824	0.398239
C83	C	-0.727459	-1.123952	-0.017916
C84	C	-0.641396	-1.175651	0.049943
H85	H	-0.762152	-1.165488	-0.064180
H86	H	-0.668923	-1.074910	-0.048283
H87	H	-0.809685	-1.096409	0.012695
H88	H	-0.559163	-1.203189	0.019332
H89	H	-0.699934	-1.224710	0.080312
H90	H	-0.370212	-1.035201	0.100145
H91	H	-0.370473	-1.296627	0.208676
C92	C	-0.600571	-1.213722	0.421797
C93	C	-0.643973	-1.276739	0.353162
H94	H	-0.636706	-1.236011	0.482560
H95	H	-0.640168	-1.152229	0.405797
H96	H	-0.495401	-1.210205	0.423590
H97	H	-0.749144	-1.280251	0.351364
H98	H	-0.604383	-1.338249	0.369166
