data_functionalizedCrystal
_audit_creation_method	'MofGen! by Chris Wilmer'
_symmetry_space_group_name_H-M	'P1'
_symmetry_Int_Tables_number	1
_symmetry_cell_setting	triclinic
loop_
_symmetry_equiv_pos_as_xyz
  x,y,z
_cell_length_a	27.780882
_cell_length_b	27.780884
_cell_length_c	27.780853
_cell_angle_alpha	90.003405
_cell_angle_beta	120.004149
_cell_angle_gamma	60.000211
loop_
_atom_site_label
_atom_site_type_symbol
_atom_site_fract_x
_atom_site_fract_y
_atom_site_fract_z
O1	O	-0.424595	-0.330211	-0.014322
O2	O	-0.326024	-0.260213	0.014251
O3	O	-0.424594	-0.260212	-0.084320
O4	O	-0.326025	-0.330211	0.084249
O5	O	-0.344534	-0.340272	-0.084319
O6	O	-0.245964	-0.340272	0.014251
O7	O	-0.344535	-0.410270	-0.014321
Zn8	Zn	-0.282538	-0.387983	-0.000035
Zn9	Zn	-0.388020	-0.282500	-0.000035
O10	O	-0.245965	-0.410271	0.084250
C11	C	-0.177734	-0.120429	0.029863
C12	C	-0.211526	-0.056933	0.025773
C13	C	-0.119397	-0.149663	0.030268
C14	C	-0.177730	-0.207596	0.029868
C15	C	-0.211520	-0.237302	0.025784
C16	C	-0.119394	-0.236699	0.030273
C17	C	-0.090568	-0.207595	0.029862
C18	C	-0.031162	-0.237298	0.025772
C19	C	-0.206427	-0.149665	0.030274
C20	C	0.016830	-0.261294	0.022467
C21	C	-0.238828	-0.005635	0.022468
C22	C	-0.238819	-0.261300	0.022483
C23	C	0.077040	-0.291400	0.018321
C24	C	-0.273079	0.058720	0.018322
C25	C	-0.273067	-0.291407	0.018343
C26	C	-0.492824	-0.207596	-0.285228
C27	C	-0.459036	-0.237301	-0.221734
C28	C	-0.464128	-0.236699	-0.314463
C29	C	-0.579985	-0.120427	-0.372393
C30	C	-0.639389	-0.056931	-0.402095
C31	C	-0.551156	-0.149663	-0.401495
C32	C	-0.492821	-0.207595	-0.372393
C33	C	-0.459028	-0.237299	-0.402096
C34	C	-0.551160	-0.149664	-0.314463
C35	C	-0.431726	-0.261296	-0.426092
C36	C	-0.431737	-0.261299	-0.170437
C37	C	-0.687381	-0.005633	-0.426091
C38	C	-0.397476	-0.291402	-0.456196
C39	C	-0.397491	-0.291407	-0.106082
C40	C	-0.747589	0.058723	-0.456195
C41	C	-0.492844	-0.550044	-0.029965
C42	C	-0.459054	-0.613538	-0.025878
C43	C	-0.464147	-0.520810	-0.030369
C44	C	-0.580011	-0.462878	-0.029965
C45	C	-0.639419	-0.433174	-0.025879
C46	C	-0.551181	-0.433776	-0.030369
C47	C	-0.492841	-0.462879	-0.029960
C48	C	-0.459048	-0.433176	-0.025869
C49	C	-0.551183	-0.520808	-0.030374
C50	C	-0.431745	-0.409180	-0.022563
C51	C	-0.431753	-0.664836	-0.022575
C52	C	-0.687414	-0.409177	-0.022577
C53	C	-0.397493	-0.379075	-0.018415
C54	C	-0.397505	-0.729191	-0.018433
C55	C	-0.747626	-0.379070	-0.018435
O56	O	0.234705	-0.410266	-0.014340
O57	O	0.094710	-0.340265	0.014230
O58	O	0.094699	-0.340270	-0.084340
O59	O	0.234716	-0.410261	0.084230
O60	O	0.094697	-0.260209	-0.084345
O61	O	0.094707	-0.260204	0.014225
O62	O	0.234703	-0.330205	-0.014345
Zn63	Zn	0.164705	-0.282493	-0.000061
Zn64	Zn	0.164708	-0.387977	-0.000054
O65	O	0.234713	-0.330200	0.084225
O66	O	-0.344549	0.249048	-0.014343
O67	O	-0.245979	0.080484	0.014226
O68	O	-0.344554	0.179043	-0.084343
O69	O	-0.245974	0.150489	0.084226
O70	O	-0.424610	0.179041	-0.084338
O71	O	-0.326035	0.080482	0.014231
O72	O	-0.424605	0.249046	-0.014338
Zn73	Zn	-0.388031	0.164764	-0.000053
Zn74	Zn	-0.282553	0.164766	-0.000059
O75	O	-0.326031	0.150487	0.084232
O76	O	-0.905249	0.249050	-0.494990
O77	O	-0.765258	0.080484	-0.424999
O78	O	-0.765243	0.179041	-0.424981
O79	O	-0.905263	0.150493	-0.495008
O80	O	-0.765241	0.179044	-0.505040
O81	O	-0.765256	0.080487	-0.505058
O82	O	-0.905247	0.249053	-0.575049
Zn83	Zn	-0.835251	0.164771	-0.552765
Zn84	Zn	-0.835253	0.164767	-0.447283
O85	O	-0.905262	0.150496	-0.575067
O86	O	-0.326002	-0.330214	-0.575052
O87	O	-0.424574	-0.260207	-0.505060
O88	O	-0.325996	-0.260217	-0.505042
O89	O	-0.424580	-0.330204	-0.575069
O90	O	-0.245943	-0.340278	-0.424983
O91	O	-0.344521	-0.340268	-0.425001
O92	O	-0.245949	-0.410275	-0.494993
Zn93	Zn	-0.282525	-0.387983	-0.447286
Zn94	Zn	-0.387998	-0.282499	-0.552767
O95	O	-0.344527	-0.410264	-0.495010
C96	C	-0.090547	-0.550049	0.372331
C97	C	-0.031139	-0.613543	0.402034
C98	C	-0.119373	-0.520814	0.401435
C99	C	-0.177716	-0.462883	0.285164
C100	C	-0.211510	-0.433179	0.221668
C101	C	-0.206410	-0.433780	0.314401
C102	C	-0.177712	-0.462884	0.372333
C103	C	-0.211501	-0.433181	0.402038
C104	C	-0.119377	-0.520813	0.314399
C105	C	-0.238801	-0.409184	0.426036
C106	C	0.016855	-0.664841	0.426030
C107	C	-0.238814	-0.409182	0.170369
C108	C	-0.273048	-0.379079	0.456143
C109	C	0.077067	-0.729196	0.456135
C110	C	-0.273066	-0.379076	0.106012
C111	C	-0.177776	-0.120445	-0.372428
C112	C	-0.211571	-0.056951	-0.402134
C113	C	-0.206474	-0.149682	-0.401530
C114	C	-0.090602	-0.207607	-0.285258
C115	C	-0.031189	-0.237308	-0.221761
C116	C	-0.119432	-0.236712	-0.314492
C117	C	-0.177775	-0.207612	-0.372424
C118	C	-0.211568	-0.237317	-0.402126
C119	C	-0.119433	-0.149677	-0.314496
C120	C	-0.238870	-0.261316	-0.426122
C121	C	-0.238874	-0.005654	-0.426134
C122	C	0.016809	-0.261303	-0.170462
C123	C	-0.273121	-0.291423	-0.456227
C124	C	-0.273127	0.058701	-0.456242
C125	C	0.077027	-0.291406	-0.106105
C126	C	0.507188	-0.462860	0.372310
C127	C	0.540981	-0.433155	0.402012
C128	C	0.535886	-0.520790	0.401415
C129	C	0.420014	-0.462864	0.285143
C130	C	0.360602	-0.433163	0.221646
C131	C	0.448845	-0.520794	0.314380
C132	C	0.507188	-0.550027	0.372313
C133	C	0.540982	-0.613521	0.402018
C134	C	0.448845	-0.433760	0.314377
C135	C	0.568285	-0.664818	0.426017
C136	C	0.568284	-0.409157	0.426009
C137	C	0.312603	-0.409168	0.170347
C138	C	0.602538	-0.729173	0.456125
C139	C	0.602535	-0.379050	0.456113
C140	C	0.252386	-0.379064	0.105990
C141	C	-0.580020	0.194620	-0.372413
C142	C	-0.639426	0.190526	-0.402113
C143	C	-0.551194	0.195024	-0.401519
C144	C	-0.492855	0.194636	-0.285251
C145	C	-0.459062	0.190559	-0.221756
C146	C	-0.464161	0.195039	-0.314488
C147	C	-0.492858	0.194622	-0.372419
C148	C	-0.459068	0.190530	-0.402124
C149	C	-0.551192	0.195038	-0.314483
C150	C	-0.431769	0.187223	-0.426123
C151	C	-0.687418	0.187218	-0.426107
C152	C	-0.431761	0.187264	-0.170458
C153	C	-0.397521	0.183075	-0.456230
C154	C	-0.747628	0.183068	-0.456209
C155	C	-0.397510	0.183131	-0.106103
O156	O	-0.424671	0.249027	-0.575105
O157	O	-0.326090	0.080461	-0.505106
O158	O	-0.424648	0.179018	-0.505094
O159	O	-0.326113	0.150470	-0.575118
O160	O	-0.344579	0.179021	-0.425036
O161	O	-0.246021	0.080464	-0.425049
O162	O	-0.344602	0.249030	-0.495047
Zn163	Zn	-0.282599	0.164747	-0.447337
Zn164	Zn	-0.388093	0.164744	-0.552817
O165	O	-0.246043	0.150473	-0.495060
C166	C	-0.177727	0.134907	0.372307
C167	C	-0.211516	0.138999	0.402013
C168	C	-0.119390	0.134506	0.401407
C169	C	-0.177730	0.134894	0.285139
C170	C	-0.211522	0.138971	0.221644
C171	C	-0.119393	0.134493	0.314371
C172	C	-0.090565	0.134910	0.372301
C173	C	-0.031160	0.139005	0.402001
C174	C	-0.206423	0.134490	0.314377
C175	C	0.016833	0.142314	0.425995
C176	C	-0.238815	0.142306	0.426011
C177	C	-0.238824	0.142266	0.170347
C178	C	0.077042	0.146464	0.456097
C179	C	-0.273062	0.146453	0.456119
C180	C	-0.273074	0.146399	0.105992
H181	H	-0.095269	-0.284297	0.030929
H182	H	-0.095234	-0.544285	0.449038
H183	H	0.424749	-0.386177	0.290890
H184	H	0.424714	-0.544264	0.290907
H185	H	-0.095272	0.133837	0.290895
H186	H	-0.095262	0.133855	0.449006
H187	H	-0.095248	-0.544286	0.290929
H188	H	0.582833	-0.544258	0.449015
C189	C	-0.087289	-0.118287	0.031195
C190	C	-0.125031	-0.061195	0.031478
C191	C	-0.095454	-0.032287	0.032363
H192	H	-0.041900	-0.139458	0.065587
H193	H	-0.087023	-0.116226	-0.002800
H194	H	-0.125290	-0.063259	0.065469
H195	H	-0.170419	-0.040008	-0.002911
H196	H	-0.095188	-0.030226	-0.001631
H197	H	-0.050066	-0.053463	0.066755
H198	H	-0.121061	0.006455	0.032550
C199	C	-0.269099	-0.118277	-0.464985
C200	C	-0.288196	-0.061171	-0.484324
C201	C	-0.345889	-0.032222	-0.542769
H202	H	-0.259010	-0.139408	-0.489258
H203	H	-0.305374	-0.116239	-0.467237
H204	H	-0.251929	-0.063212	-0.482077
H205	H	-0.298298	-0.040025	-0.460068
H206	H	-0.382165	-0.030184	-0.545021
H207	H	-0.335795	-0.053357	-0.567037
H208	H	-0.358858	0.006529	-0.555897
H209	H	-0.095294	-0.284313	-0.291019
C210	C	-0.583337	0.196000	-0.283135
C211	C	-0.602670	0.246706	-0.266936
C212	C	-0.632269	0.247605	-0.238047
H213	H	-0.622305	0.196201	-0.308794
H214	H	-0.551324	0.162014	-0.248857
H215	H	-0.634681	0.280683	-0.301209
H216	H	-0.563714	0.246516	-0.241271
H217	H	-0.600256	0.213619	-0.203769
H218	H	-0.671235	0.247805	-0.263710
H219	H	-0.645385	0.282006	-0.227048
H220	H	-0.253367	-0.126192	0.030933
C221	C	-0.583462	-0.370303	-0.031263
C222	C	-0.640830	-0.350957	-0.031535
C223	C	-0.670584	-0.292490	-0.032362
H224	H	-0.551527	-0.367990	0.002737
H225	H	-0.596677	-0.346075	-0.065650
H226	H	-0.627613	-0.375178	0.002848
H227	H	-0.672780	-0.353255	-0.065533
H228	H	-0.683800	-0.268262	-0.066749
H229	H	-0.638644	-0.290184	0.001639
H230	H	-0.709515	-0.279355	-0.032552
H231	H	-0.575280	-0.126191	-0.290987
C232	C	-0.401615	-0.552140	-0.031332
C233	C	-0.416778	-0.568352	-0.082032
C234	C	-0.359191	-0.597218	-0.082935
H235	H	-0.388533	-0.526465	-0.031547
H236	H	-0.365346	-0.586409	0.002661
H237	H	-0.453035	-0.534088	-0.116016
H238	H	-0.429852	-0.594034	-0.081827
H239	H	-0.322922	-0.631486	-0.048941
H240	H	-0.346113	-0.571539	-0.083148
H241	H	-0.369469	-0.608226	-0.117331
C242	C	-0.583279	-0.552191	-0.031282
C243	C	-0.545531	-0.609286	-0.031557
C244	C	-0.575082	-0.638208	-0.032402
H245	H	-0.583531	-0.554258	0.002713
H246	H	-0.628680	-0.531015	-0.065674
H247	H	-0.500142	-0.630457	0.002831
H248	H	-0.545276	-0.607237	-0.065550
H249	H	-0.620483	-0.617031	-0.066794
H250	H	-0.575333	-0.640270	0.001594
H251	H	-0.549478	-0.676948	-0.032594
C252	C	-0.583414	-0.118264	-0.464957
C253	C	-0.640769	-0.061160	-0.484298
C254	C	-0.670492	-0.032217	-0.542749
H255	H	-0.551458	-0.116210	-0.467237
H256	H	-0.596637	-0.139418	-0.489211
H257	H	-0.627544	-0.040011	-0.460050
H258	H	-0.672740	-0.063197	-0.482032
H259	H	-0.683716	-0.053371	-0.567003
H260	H	-0.638531	-0.030168	-0.545024
H261	H	-0.709414	0.006528	-0.555881
H262	H	-0.095308	-0.126201	-0.291027
H263	H	-0.417216	0.195694	-0.291015
H264	H	-0.253375	0.133844	0.290905
C265	C	-0.401518	-0.300157	-0.283060
C266	C	-0.382429	-0.319496	-0.225956
C267	C	-0.324753	-0.377945	-0.197010
H268	H	-0.411622	-0.324420	-0.304199
H269	H	-0.365232	-0.302422	-0.281013
H270	H	-0.418707	-0.317236	-0.228006
H271	H	-0.372311	-0.295249	-0.204801
H272	H	-0.288467	-0.380210	-0.194963
H273	H	-0.334863	-0.402203	-0.218154
H274	H	-0.311790	-0.391072	-0.158260
C275	C	-0.268982	-0.370304	0.283018
C276	C	-0.288058	-0.350957	0.225921
C277	C	-0.345688	-0.292487	0.196999
H278	H	-0.305298	-0.367984	0.280949
H279	H	-0.258814	-0.346082	0.304197
H280	H	-0.298230	-0.375173	0.204747
H281	H	-0.251759	-0.353263	0.227972
H282	H	-0.335520	-0.268264	0.218178
H283	H	-0.381999	-0.290172	0.194935
H284	H	-0.358635	-0.279350	0.158258
H285	H	-0.575328	0.195677	-0.449119
