data_functionalizedCrystal
_audit_creation_method	'MofGen! by Chris Wilmer'
_symmetry_space_group_name_H-M	'P1'
_symmetry_Int_Tables_number	1
_symmetry_cell_setting	triclinic
loop_
_symmetry_equiv_pos_as_xyz
  x,y,z
_cell_length_a	29.839134
_cell_length_b	29.839131
_cell_length_c	18.215399
_cell_angle_alpha	90.038527
_cell_angle_beta	90.019629
_cell_angle_gamma	90.015800
loop_
_atom_site_label
_atom_site_type_symbol
_atom_site_fract_x
_atom_site_fract_y
_atom_site_fract_z
Zn1	Zn	0.686772	-0.179091	0.416057
Zn2	Zn	0.686702	-0.254220	0.292968
Zn3	Zn	0.611645	-0.179079	0.293005
Zn4	Zn	0.611610	-0.254169	0.415994
O5	O	0.649182	-0.216640	0.354506
O6	O	0.749630	-0.189083	0.399741
O7	O	0.676731	-0.244269	0.189989
O8	O	0.621654	-0.116214	0.309371
O9	O	0.749579	-0.244280	0.309308
O10	O	0.676850	-0.116222	0.399776
O11	O	0.621587	-0.189064	0.190016
O12	O	0.548773	-0.189014	0.309309
O13	O	0.621595	-0.244193	0.518987
O14	O	0.548748	-0.244182	0.399668
O15	O	0.676816	-0.189034	0.519033
O16	O	0.676698	-0.317080	0.309246
O17	O	0.621528	-0.317043	0.399632
C18	C	0.532460	-0.216592	0.354486
C19	C	0.482525	-0.216582	0.354495
C20	C	0.125961	-0.187959	0.401687
C21	C	0.313634	-0.187922	0.401670
O22	O	0.337917	-0.163529	0.441792
N23	N	0.337080	-0.216611	0.354512
C24	C	0.313606	-0.245313	0.307358
O25	O	0.337855	-0.269717	0.267252
C26	C	0.125933	-0.245351	0.307379
C27	C	0.102489	-0.216657	0.354535
C28	C	0.102517	-0.159267	0.448840
C29	C	0.055601	-0.159275	0.448841
C30	C	0.032130	-0.187974	0.401689
C31	C	0.055574	-0.216665	0.354536
C32	C	0.102460	-0.274055	0.260229
C33	C	0.055539	-0.274063	0.260240
C34	C	0.032095	-0.245369	0.307396
C35	C	-0.014813	-0.245372	0.307385
N36	N	-0.038259	-0.216683	0.354544
C37	C	-0.014788	-0.187984	0.401696
C38	C	0.412136	-0.245291	0.307349
C39	C	0.459054	-0.245281	0.307343
C40	C	0.459079	-0.187890	0.401656
C41	C	0.412160	-0.187898	0.401658
C42	C	0.388690	-0.216602	0.354507
C43	C	-0.113314	-0.188002	0.401694
C44	C	-0.160234	-0.188010	0.401688
C45	C	-0.160254	-0.245402	0.307377
C46	C	-0.113339	-0.245392	0.307380
C47	C	-0.089870	-0.216690	0.354544
O48	O	-0.039126	-0.269756	0.267290
O49	O	-0.039045	-0.163590	0.441807
C50	C	0.172876	-0.187951	0.401686
C51	C	0.196320	-0.216642	0.354533
C52	C	0.172849	-0.245341	0.307381
C53	C	0.243238	-0.216632	0.354527
C54	C	0.266709	-0.187933	0.401679
C55	C	0.243263	-0.159245	0.448838
C56	C	0.196348	-0.159252	0.448838
C57	C	0.196295	-0.274030	0.260223
C58	C	0.243211	-0.274020	0.260225
C59	C	0.266682	-0.245321	0.307377
C60	C	0.649114	-0.333362	0.354444
C61	C	0.649126	-0.383297	0.354442
C62	C	0.677916	-0.692910	0.401648
C63	C	0.677965	-0.880583	0.401692
O64	O	0.702377	-0.904822	0.441782
N65	N	0.649259	-0.904082	0.354588
C66	C	0.620536	-0.880660	0.307473
O67	O	0.596117	-0.904954	0.267415
C68	C	0.620485	-0.692988	0.307433
C69	C	0.649197	-0.669491	0.354535
C70	C	0.706625	-0.669413	0.448746
C71	C	0.706615	-0.622497	0.448732
C72	C	0.677895	-0.599079	0.401619
C73	C	0.649186	-0.622576	0.354520
C74	C	0.591760	-0.669567	0.260322
C75	C	0.591750	-0.622646	0.260318
C76	C	0.620461	-0.599149	0.307420
C77	C	0.620456	-0.552241	0.307393
N78	N	0.649162	-0.528742	0.354497
C79	C	0.677882	-0.552161	0.401610
C80	C	0.620565	-0.979191	0.307496
C81	C	0.620578	-1.026108	0.307505
C82	C	0.678007	-1.026028	0.401725
C83	C	0.677996	-0.979109	0.401712
C84	C	0.649272	-0.955691	0.354600
C85	C	0.677857	-0.453635	0.401576
C86	C	0.677845	-0.406716	0.401555
C87	C	0.620415	-0.406800	0.307338
C88	C	0.620428	-0.453716	0.307356
C89	C	0.649151	-0.477132	0.354481
O90	O	0.596053	-0.527974	0.267330
O91	O	0.702290	-0.527859	0.441674
C92	C	0.677927	-0.739825	0.401662
C93	C	0.649218	-0.763322	0.354564
C94	C	0.620499	-0.739903	0.307451
C95	C	0.649231	-0.810240	0.354572
C96	C	0.677951	-0.833658	0.401685
C97	C	0.706658	-0.810159	0.448789
C98	C	0.706647	-0.763244	0.448775
C99	C	0.591792	-0.763402	0.260347
C100	C	0.591806	-0.810318	0.260364
C101	C	0.620525	-0.833737	0.307477
C102	C	0.766361	-0.216689	0.354527
C103	C	0.816295	-0.216709	0.354536
C104	C	0.649210	-0.216609	0.546459
C105	C	0.649221	-0.216596	0.628258
C106	C	0.649263	-0.099461	0.354585
C107	C	0.649298	-0.049527	0.354618
C108	C	0.649181	-0.216638	0.163300
C109	C	0.649256	-0.216525	0.081502
C110	C	0.677985	-0.187847	0.816478
C111	C	0.677991	-0.187834	0.893337
C112	C	0.620489	-0.245275	0.893277
C113	C	0.620482	-0.245285	0.816419
C114	C	0.649233	-0.216572	0.778022
C115	C	0.649245	-0.216549	0.931738
C116	C	0.649251	-0.216535	1.015072
C117	C	0.649227	-0.216585	0.694683
H118	H	0.393031	-0.268666	0.268950
H119	H	0.036517	-0.135911	0.487244
H120	H	0.121540	-0.297421	0.221829
H121	H	0.597065	-0.268676	0.785108
H122	H	0.730026	-0.744116	0.487130
O123	O	0.592588	-0.273230	0.930497
C124	C	0.570753	-0.349639	0.953985
C125	C	0.602371	-0.318028	0.911776
H126	H	0.578658	-0.385866	0.938875
H127	H	0.534524	-0.341776	0.938856
H128	H	0.575691	-0.344676	1.015519
H129	H	0.597474	-0.322975	0.850232
H130	H	0.638589	-0.325899	0.926965
O131	O	0.563799	-0.599878	0.214656
C132	C	0.503151	-0.546924	0.204650
C133	C	0.534768	-0.572688	0.256445
H134	H	0.479679	-0.524928	0.238414
H135	H	0.482602	-0.571759	0.171003
H136	H	0.523793	-0.524987	0.166177
H137	H	0.514161	-0.594625	0.294963
H138	H	0.555320	-0.547828	0.290040
H139	H	0.701403	-0.164443	0.924644
O140	O	0.389339	-0.160091	0.447506
C141	C	0.336422	-0.154134	0.546932
C142	C	0.362228	-0.185677	0.495040
H143	H	0.314503	-0.174808	0.585386
H144	H	0.314417	-0.130628	0.513266
H145	H	0.361270	-0.133611	0.580594
H146	H	0.337412	-0.206228	0.461367
H147	H	0.384239	-0.209153	0.528748
H148	H	0.701394	-0.164466	0.785217
O149	O	0.592725	-0.956396	0.261689
C150	C	0.586702	-0.903504	0.162269
C151	C	0.618278	-0.929281	0.214113
H152	H	0.607350	-0.881583	0.123781
H153	H	0.563197	-0.881505	0.195969
H154	H	0.566181	-0.928371	0.128641
H155	H	0.638829	-0.904446	0.247753
H156	H	0.641754	-0.951287	0.180371
O157	O	-0.182986	-0.160185	0.447606
C158	C	-0.197285	-0.138458	0.572858
C159	C	-0.171500	-0.170003	0.520942
H160	H	-0.188001	-0.146379	0.632161
H161	H	-0.234856	-0.143392	0.564828
H162	H	-0.188063	-0.102225	0.560011
H163	H	-0.180685	-0.206248	0.533757
H164	H	-0.133936	-0.165030	0.528982
O165	O	-0.090500	-0.160184	0.447583
C166	C	-0.037491	-0.154194	0.546937
C167	C	-0.063308	-0.185751	0.495031
H168	H	-0.015494	-0.174852	0.585301
H169	H	-0.062292	-0.133699	0.580688
H170	H	-0.015552	-0.130664	0.513208
H171	H	-0.085248	-0.209308	0.528703
H172	H	-0.038483	-0.206215	0.461278
O173	O	0.734513	-0.832982	0.494533
C174	C	0.759991	-0.905233	0.536268
C175	C	0.728419	-0.879440	0.484439
H176	H	0.755082	-0.942798	0.528114
H177	H	0.752077	-0.896018	0.595612
H178	H	0.796215	-0.895973	0.523410
H179	H	0.692184	-0.888686	0.497231
H180	H	0.736372	-0.888657	0.425110
H181	H	-0.179373	-0.268766	0.268985
H182	H	0.121622	-0.135897	0.487241
H183	H	0.597053	-0.472848	0.268996
H184	H	0.478197	-0.164521	0.440048
H185	H	0.262382	-0.135875	0.487228
H186	H	0.597033	-0.387725	0.268977
H187	H	0.701375	-0.959981	0.440067
O188	O	0.032789	-0.302009	0.214471
C189	C	0.018402	-0.378406	0.178543
C190	C	0.044200	-0.346810	0.230410
H191	H	0.027610	-0.414634	0.191422
H192	H	0.027624	-0.370508	0.119214
H193	H	-0.019157	-0.373462	0.186628
H194	H	0.081764	-0.351736	0.222391
H195	H	0.034940	-0.354715	0.289721
O196	O	0.481755	-0.273193	0.261506
C197	C	0.476766	-0.330100	0.167934
C198	C	0.451003	-0.298517	0.219816
H199	H	0.451914	-0.350576	0.134203
H200	H	0.498725	-0.353644	0.201608
H201	H	0.498736	-0.309436	0.129543
H202	H	0.429009	-0.319145	0.258217
H203	H	0.429072	-0.274972	0.186096
H204	H	-0.094250	-0.268753	0.268975
H205	H	0.568405	-0.744339	0.221982
O206	O	0.173647	-0.131366	0.494719
C207	C	0.178641	-0.074424	0.588234
C208	C	0.204401	-0.105990	0.536319
H209	H	0.203494	-0.053893	0.621870
H210	H	0.156696	-0.095060	0.626705
H211	H	0.156657	-0.050928	0.554516
H212	H	0.226409	-0.129493	0.569978
H213	H	0.226318	-0.085327	0.497846
H214	H	0.177190	-0.297401	0.221826
O215	O	0.265961	-0.301960	0.214491
C216	C	0.280267	-0.378352	0.178511
C217	C	0.254485	-0.346759	0.230352
H218	H	0.270991	-0.414579	0.191305
H219	H	0.317839	-0.373461	0.186607
H220	H	0.271035	-0.370399	0.119198
H221	H	0.263680	-0.354693	0.289684
H222	H	0.216920	-0.351656	0.222192
O223	O	0.705750	-0.383961	0.447384
C224	C	0.762730	-0.388841	0.540808
C225	C	0.731146	-0.414664	0.488958
H226	H	0.783278	-0.413654	0.574424
H227	H	0.742108	-0.366879	0.579302
H228	H	0.786210	-0.366869	0.507041
H229	H	0.707660	-0.436661	0.522667
H230	H	0.751797	-0.436599	0.450463
H231	H	0.701392	-1.045103	0.440086
O232	O	0.705694	-0.476399	0.447428
C233	C	0.711724	-0.529332	0.546787
C234	C	0.680147	-0.503571	0.494924
H235	H	0.691082	-0.551314	0.585190
H236	H	0.732232	-0.504495	0.580498
H237	H	0.735241	-0.551283	0.513026
H238	H	0.656602	-0.481620	0.528628
H239	H	0.659670	-0.528433	0.461210
O240	O	0.734517	-0.599745	0.494560
C241	C	0.791497	-0.604635	0.587984
C242	C	0.759912	-0.630453	0.536129
H243	H	0.812044	-0.629451	0.621595
H244	H	0.770875	-0.582674	0.626482
H245	H	0.814978	-0.582661	0.554221
H246	H	0.736425	-0.652451	0.569833
H247	H	0.780562	-0.652385	0.497629
H248	H	0.597203	-1.045236	0.269142
H249	H	0.730012	-0.688475	0.487116
H250	H	0.568426	-0.829445	0.222001
O251	O	0.563825	-0.692315	0.214547
C252	C	0.506873	-0.687422	0.121077
C253	C	0.538483	-0.661606	0.172894
H254	H	0.486383	-0.662605	0.087376
H255	H	0.483345	-0.709369	0.154800
H256	H	0.527518	-0.709409	0.082655
H257	H	0.517874	-0.639594	0.211326
H258	H	0.562013	-0.639687	0.139125
