data_functionalizedCrystal
_audit_creation_method	'MofGen! by Chris Wilmer'
_symmetry_space_group_name_H-M	'P1'
_symmetry_Int_Tables_number	1
_symmetry_cell_setting	triclinic
loop_
_symmetry_equiv_pos_as_xyz
  x,y,z
_cell_length_a	6.817900
_cell_length_b	15.300912
_cell_length_c	17.110486
_cell_angle_alpha	96.161319
_cell_angle_beta	99.060439
_cell_angle_gamma	104.173621
loop_
_atom_site_label
_atom_site_type_symbol
_atom_site_fract_x
_atom_site_fract_y
_atom_site_fract_z
V1	V	-3.980308	-0.124489	-0.246960
O2	O	-3.965202	0.006259	-0.242012
O3	O	-3.935513	-0.247107	-0.245508
O4	O	-3.910110	-0.122453	-0.354559
O5	O	-3.990780	-0.119259	-0.132206
V6	V	-4.466294	-0.108865	-0.233205
O7	O	-4.236165	-0.158763	-0.277131
O8	O	-4.660634	-0.074591	-0.203034
O9	O	-4.287883	0.013753	-0.234657
O10	O	-4.598797	-0.239613	-0.238153
O11	O	-4.573218	-0.114096	-0.347959
O12	O	-4.313285	-0.110901	-0.125606
C13	C	-3.782096	-0.277003	-0.241674
C14	C	-3.826612	-0.377244	-0.241204
C15	C	-4.199881	-0.813607	-0.243140
C16	C	-4.158036	-0.719418	-0.243576
C17	C	-3.955674	-0.667742	-0.239841
C18	C	-3.795145	-0.710257	-0.235662
C19	C	-3.836989	-0.804443	-0.235221
C20	C	-3.707942	-0.513945	-0.236585
C21	C	-3.666094	-0.419753	-0.237028
C22	C	-4.028989	-0.428920	-0.244940
C23	C	-4.070833	-0.523106	-0.244498
C24	C	-3.910300	-0.565615	-0.240321
C25	C	-3.749691	-0.117993	-0.380778
C26	C	-3.773604	-0.117140	-0.468742
C27	C	-3.966258	-0.121239	-0.514108
C28	C	-3.988714	-0.120436	-0.596760
C29	C	-3.818518	-0.115541	-0.634045
C30	C	-3.625848	-0.111439	-0.588673
C31	C	-3.603391	-0.112235	-0.506022
C32	C	-3.877245	-0.112907	-0.883395
C33	C	-3.899719	-0.112114	-0.966052
C34	C	-4.262584	-0.121110	-0.974133
C35	C	-4.240112	-0.121911	-0.891481
C36	C	-4.047443	-0.117804	-0.846115
C37	C	-3.841469	-0.114724	-0.718528
C38	C	-4.024491	-0.118615	-0.761632
C39	C	-4.104642	0.043644	-0.238489
C40	C	-4.039363	0.143884	-0.238964
C41	C	-4.137047	-0.115364	-0.099383
C42	C	-4.092373	-0.116213	-0.011418
H43	H	-3.501318	-0.377681	-0.233990
O44	O	-3.552210	-0.555360	-0.232637
C45	C	-3.590201	-0.621710	-0.301029
H46	H	-3.762229	-0.643852	-0.327356
H47	H	-3.537282	-0.683268	-0.283557
H48	H	-3.501815	-0.591665	-0.347477
H49	H	-3.487270	-0.107447	-0.619036
H50	H	-3.630373	-0.668174	-0.232616
O51	O	-3.416217	-0.108102	-0.461893
C52	C	-3.354223	-0.029862	-0.402943
H53	H	-3.437258	0.022659	-0.422538
H54	H	-3.180691	0.000433	-0.394772
H55	H	-3.394587	-0.049409	-0.343853
O56	O	-4.189834	-0.123532	-0.725403
C57	C	-4.225803	-0.202694	-0.688703
H58	H	-4.156287	-0.254727	-0.718928
H59	H	-4.398819	-0.233018	-0.694987
H60	H	-4.151395	-0.184351	-0.622518
H61	H	-3.706279	-0.839054	-0.231827
H62	H	-4.419449	-0.124452	-1.011078
H63	H	-4.104857	-0.125231	-0.483757
H64	H	-4.364664	-0.855676	-0.246186
H65	H	-4.378708	-0.125896	-0.861129
H66	H	-4.235613	-0.565180	-0.247545
O67	O	-4.176017	-0.124452	-0.640713
C68	C	-4.321407	-0.128918	-0.590077
H69	H	-4.266178	-0.156860	-0.533962
H70	H	-4.476193	-0.175793	-0.622891
H71	H	-4.339417	-0.057717	-0.572435
O72	O	-4.313825	-0.678038	-0.247741
C73	C	-4.325157	-0.636007	-0.317116
H74	H	-4.169571	-0.621976	-0.336705
H75	H	-4.366971	-0.568978	-0.303611
H76	H	-4.448089	-0.683078	-0.367129
H77	H	-3.761113	-0.108124	-0.996407
O78	O	-3.676245	-0.109857	-0.754825
C79	C	-3.640188	-0.030670	-0.791490
H80	H	-3.788346	-0.008296	-0.803741
H81	H	-3.587807	-0.045851	-0.850353
H82	H	-3.515255	0.026169	-0.750025
H83	H	-4.159698	-0.394305	-0.248340
H84	H	-3.720381	-0.109594	-0.846472
