data_functionalizedCrystal
_audit_creation_method	'MofGen! by Chris Wilmer'
_symmetry_space_group_name_H-M	'P1'
_symmetry_Int_Tables_number	1
_symmetry_cell_setting	triclinic
loop_
_symmetry_equiv_pos_as_xyz
  x,y,z
_cell_length_a	6.817900
_cell_length_b	17.982959
_cell_length_c	10.773894
_cell_angle_alpha	96.506974
_cell_angle_beta	96.645922
_cell_angle_gamma	102.451857
loop_
_atom_site_label
_atom_site_type_symbol
_atom_site_fract_x
_atom_site_fract_y
_atom_site_fract_z
V1	V	-3.943879	-0.102609	-0.389451
O2	O	-3.938325	0.007812	-0.381502
O3	O	-3.890812	-0.206227	-0.387303
O4	O	-3.861680	-0.099767	-0.559069
O5	O	-3.967659	-0.099386	-0.208547
V6	V	-4.432491	-0.089551	-0.367751
O7	O	-4.193973	-0.131254	-0.437053
O8	O	-4.632593	-0.060907	-0.320150
O9	O	-4.262351	0.014067	-0.369899
O10	O	-4.555442	-0.199972	-0.375700
O11	O	-4.526107	-0.092774	-0.548656
O12	O	-4.291483	-0.092393	-0.198133
C13	C	-3.735771	-0.231527	-0.381292
C14	C	-3.773445	-0.316228	-0.380667
C15	C	-3.971817	-0.359856	-0.386614
C16	C	-4.007205	-0.439442	-0.386034
C17	C	-3.844216	-0.475398	-0.379497
C18	C	-3.645828	-0.431764	-0.373553
C19	C	-3.610444	-0.352180	-0.374142
C20	C	-3.788521	-0.752717	-0.371177
C21	C	-3.823921	-0.832306	-0.370584
C22	C	-4.185282	-0.839979	-0.383068
C23	C	-4.149898	-0.760395	-0.383657
C24	C	-3.951516	-0.716769	-0.377720
C25	C	-3.913147	-0.630473	-0.378352
C26	C	-3.882580	-0.561692	-0.378856
C27	C	-3.698609	-0.095725	-0.600395
C28	C	-3.712655	-0.094086	-0.739062
C29	C	-3.890602	-0.096926	-0.806939
C30	C	-3.905123	-0.095233	-0.950258
C31	C	-4.080734	0.039363	-0.375906
C32	C	-4.022297	0.124063	-0.376540
C33	C	-4.117897	-0.096438	-0.156800
C34	C	-4.083090	-0.098072	-0.018132
H35	H	-4.346818	-0.875510	-0.387904
Cl36	Cl	-3.539128	-0.697882	-0.363702
Cl37	Cl	-4.354807	-0.715197	-0.391859
Cl38	Cl	-4.256596	-0.494286	-0.393508
Cl39	Cl	-3.361053	-0.297333	-0.366673
H40	H	-4.224703	-0.101760	-0.970148
Cl41	Cl	-3.440927	-0.476966	-0.365342
H42	H	-3.691185	-0.861579	-0.365269
H43	H	-4.032196	-0.100605	-0.758945
Cl44	Cl	-3.494025	-0.088392	-0.813146
H45	H	-3.763511	-0.091543	-0.998244
H46	H	-4.104545	-0.330586	-0.391925
