data_functionalizedCrystal
_audit_creation_method	'MofGen! by Chris Wilmer'
_symmetry_space_group_name_H-M	'P1'
_symmetry_Int_Tables_number	1
_symmetry_cell_setting	triclinic
loop_
_symmetry_equiv_pos_as_xyz
  x,y,z
_cell_length_a	19.188925
_cell_length_b	19.188930
_cell_length_c	18.266242
_cell_angle_alpha	89.989745
_cell_angle_beta	89.990110
_cell_angle_gamma	83.143665
loop_
_atom_site_label
_atom_site_type_symbol
_atom_site_fract_x
_atom_site_fract_y
_atom_site_fract_z
O1	O	0.926152	0.087149	-0.060905
O2	O	0.722840	0.098888	-0.060904
O3	O	0.830363	-0.008637	-0.060890
O4	O	0.818629	0.194674	-0.060919
O5	O	0.830345	-0.008640	0.060872
O6	O	0.722822	0.098885	0.060858
O7	O	0.926133	0.087146	0.060857
Zn8	Zn	0.824475	0.093015	0.080190
Zn9	Zn	0.824499	0.093019	-0.080237
O10	O	0.818610	0.194671	0.060843
C11	C	0.696820	0.098507	-0.000023
C12	C	0.619315	0.097367	-0.000022
C13	C	0.057545	0.152831	-0.000031
C14	C	0.130368	0.153908	-0.000035
C15	C	0.175302	0.090816	-0.000025
C16	C	0.147408	0.026642	-0.000030
C17	C	0.074586	0.025568	-0.000033
N18	N	0.295973	0.045139	0.041430
N19	N	0.365151	0.046164	0.041435
C20	C	0.394712	0.094050	-0.000017
N21	N	0.352480	0.140883	-0.041464
N22	N	0.283297	0.139859	-0.041465
C23	C	0.254267	0.091974	-0.000022
C24	C	0.501561	0.159386	-0.000022
C25	C	0.574385	0.160460	-0.000031
C26	C	0.591425	0.033193	-0.000018
C27	C	0.518601	0.032121	-0.000016
C28	C	0.473673	0.095220	-0.000015
C29	C	0.829974	-0.034650	-0.000007
C30	C	0.828833	-0.112154	-0.000001
C31	C	0.891924	-0.157079	0.000002
C32	C	0.890852	-0.229903	-0.000009
C33	C	0.826686	-0.257799	-0.000010
C34	C	0.763587	-0.212864	-0.000017
C35	C	0.764660	-0.140041	-0.000012
N36	N	0.777633	-0.365804	0.041429
N37	N	0.776617	-0.434982	0.041426
C38	C	0.823448	-0.477207	-0.000024
N39	N	0.871343	-0.447642	-0.041463
N40	N	0.872361	-0.378457	-0.041457
C41	C	0.825515	-0.336761	-0.000015
C42	C	0.885381	-0.601097	-0.000035
C43	C	0.884307	-0.673922	-0.000051
C44	C	0.757040	-0.656880	-0.000051
C45	C	0.758116	-0.584057	-0.000042
C46	C	0.822289	-0.556170	-0.000031
C47	C	0.952154	0.087527	-0.000026
C48	C	1.029658	0.088666	-0.000032
C49	C	0.819000	0.220684	-0.000041
C50	C	0.820140	0.298188	-0.000053
N51	N	0.824463	0.093012	0.189677
N52	N	0.824516	0.093016	-0.189724
C53	C	0.866673	0.135256	0.227973
C54	C	0.866684	0.135254	0.304618
C55	C	0.824473	0.093016	0.342964
C56	C	0.782262	0.050763	0.304658
C57	C	0.782256	0.050761	0.228015
N58	N	0.763326	0.091297	0.463317
N59	N	0.763332	0.091303	0.536125
C60	C	0.824487	0.093019	0.573886
N61	N	0.885636	0.094741	0.536088
N62	N	0.885629	0.094739	0.463274
C63	C	0.824475	0.093013	0.426071
C64	C	0.866713	0.135263	0.695290
C65	C	0.866726	0.135256	0.771936
C66	C	0.782297	0.050769	0.771975
C67	C	0.782290	0.050772	0.695330
C68	C	0.824497	0.093023	0.656992
H69	H	0.628010	-0.018178	-0.000015
H70	H	0.597088	0.212713	-0.000036
H71	H	0.711342	-0.235581	-0.000019
O72	O	0.952187	-0.273484	-0.000100
C73	C	1.060627	-0.310359	-0.063189
C74	C	0.991201	-0.260955	-0.063170
H75	H	1.092182	-0.300257	-0.114183
H76	H	1.092253	-0.300246	-0.012262
H77	H	1.048816	-0.367190	-0.063157
H78	H	1.002948	-0.204106	-0.063228
H79	H	0.959595	-0.271129	-0.114093
O80	O	0.703306	-0.096497	0.000021
C81	C	0.576964	-0.087279	-0.000028
C82	C	0.646395	-0.136675	-0.000050
H83	H	0.530932	-0.119743	-0.000101
H84	H	0.574228	-0.052785	0.050945
H85	H	0.574333	-0.052732	-0.050969
H86	H	0.649071	-0.171265	0.050856
H87	H	0.649101	-0.171120	-0.051057
O88	O	0.947776	-0.574118	-0.000069
C89	C	1.073893	-0.598704	-0.000041
C90	C	1.003280	-0.629348	-0.000015
H91	H	1.118786	-0.643343	0.000018
H92	H	1.077627	-0.565051	-0.051008
H93	H	1.077536	-0.565024	0.050907
H94	H	0.999589	-0.663060	-0.050928
H95	H	0.999577	-0.662962	0.050986
H96	H	0.901044	0.169658	0.196763
H97	H	0.935686	-0.710500	-0.000053
O98	O	0.907585	0.176337	0.341909
C99	C	0.911307	0.270638	0.428385
C100	C	0.864908	0.224149	0.386216
H101	H	0.876820	0.309315	0.464206
H102	H	0.949965	0.236247	0.464318
H103	H	0.941489	0.300800	0.387803
H104	H	0.834680	0.193979	0.426745
H105	H	0.826293	0.258577	0.350273
H106	H	0.704794	-0.679592	-0.000055
O107	O	0.741216	0.009722	0.658238
C108	C	0.657507	-0.074107	0.666367
C109	C	0.703977	-0.027636	0.708464
H110	H	0.627399	-0.104334	0.706956
H111	H	0.618793	-0.039702	0.630508
H112	H	0.691972	-0.112726	0.630464
H113	H	0.669569	0.010990	0.744407
H114	H	0.742696	-0.062085	0.744277
H115	H	0.020968	0.204211	-0.000034
H116	H	0.495896	-0.020129	-0.000012
H117	H	0.747883	0.016359	0.196834
H118	H	0.706740	-0.547478	-0.000041
H119	H	0.464978	0.210765	-0.000022
H120	H	0.747894	0.016371	0.335884
H121	H	0.901081	0.169666	0.664073
H122	H	0.153078	0.206160	-0.000028
O123	O	0.191026	-0.034664	-0.000149
C124	C	0.227858	-0.143119	-0.063201
C125	C	0.178434	-0.073707	-0.063160
H126	H	0.217685	-0.174712	-0.114132
H127	H	0.284711	-0.131370	-0.063243
H128	H	0.217736	-0.174685	-0.012220
H129	H	0.188494	-0.042107	-0.114132
H130	H	0.121598	-0.085505	-0.063079
H131	H	0.944179	-0.134379	0.000009
H132	H	0.901103	0.169655	0.803115
H133	H	0.051883	-0.026685	-0.000033
H134	H	0.747929	0.016376	0.803195
