data_functionalizedCrystal
_audit_creation_method	'MofGen! by Chris Wilmer'
_symmetry_space_group_name_H-M	'P1'
_symmetry_Int_Tables_number	1
_symmetry_cell_setting	triclinic
loop_
_symmetry_equiv_pos_as_xyz
  x,y,z
_cell_length_a	15.944551
_cell_length_b	10.489741
_cell_length_c	15.021413
_cell_angle_alpha	89.995299
_cell_angle_beta	89.996935
_cell_angle_gamma	95.981044
loop_
_atom_site_label
_atom_site_type_symbol
_atom_site_fract_x
_atom_site_fract_y
_atom_site_fract_z
O1	O	0.118495	-1.692418	0.073979
O2	O	0.129619	-1.321068	0.073993
O3	O	0.001843	-1.516884	0.073978
O4	O	0.246271	-1.496602	0.073995
O5	O	0.001862	-1.516853	-0.074086
O6	O	0.129637	-1.321037	-0.074071
O7	O	0.118514	-1.692387	-0.074085
Zn8	Zn	0.124078	-1.506707	-0.097586
Zn9	Zn	0.124054	-1.506748	0.097495
O10	O	0.246289	-1.496571	-0.074070
C11	C	-0.029446	-1.516026	-0.000054
C12	C	-0.122708	-1.513502	-0.000055
C13	C	0.128788	-1.273532	-0.000037
C14	C	0.126275	-1.131938	-0.000032
C15	C	0.119345	-1.739922	-0.000053
C16	C	0.121858	-1.881517	-0.000052
C17	C	-0.338330	-1.386093	-0.000038
C18	C	-0.398983	-1.445242	-0.073045
C19	C	-0.293461	-1.508935	-0.000048
C20	C	-0.398984	-1.445302	0.072935
C21	C	-0.458400	-1.504515	-0.000037
C22	C	-0.352885	-1.568118	-0.073115
C23	C	-0.352880	-1.568161	0.072930
C24	C	-0.413515	-1.627399	-0.000094
C25	C	-0.198443	-1.511478	-0.000055
C26	C	-0.553417	-1.501982	-0.000037
C27	C	0.277579	-1.497429	-0.000035
C28	C	0.370841	-1.499953	-0.000029
N29	N	0.124094	-1.506688	-0.230724
C30	C	0.044975	-1.064925	-0.000046
C31	C	0.083371	-0.972281	0.072958
C32	C	0.083408	-0.972284	-0.073022
C33	C	0.164704	-1.041159	0.073032
C34	C	0.164730	-1.041171	-0.073013
C35	C	0.203186	-0.948554	0.000009
C36	C	0.183150	-1.416129	-0.470400
C37	C	0.200150	-1.531384	-0.529738
C38	C	0.124074	-1.506721	-0.412331
C39	C	0.107093	-1.391497	-0.529735
C40	C	0.124055	-1.506742	-0.587755
C41	C	0.141112	-1.622034	-0.470362
C42	C	0.048021	-1.482071	-0.470354
C43	C	0.064989	-1.597409	-0.529665
C44	C	0.124086	-1.506707	-0.311274
C45	C	0.124042	-1.506769	-0.688810
N46	N	0.124032	-1.506777	0.230632
H47	H	-0.305636	-1.284128	-0.000107
H48	H	0.199070	-1.071523	0.134822
O49	O	-0.034779	-1.125225	0.000193
C50	C	-0.167727	-1.158681	0.077406
C51	C	-0.077427	-1.090327	0.077249
H52	H	-0.202240	-1.130470	0.139690
H53	H	-0.165106	-1.266872	0.076833
H54	H	-0.202705	-1.129234	0.015768
H55	H	-0.042398	-1.119669	0.138877
H56	H	-0.080109	-0.982149	0.077776
O57	O	0.042407	-0.936003	0.146679
C58	C	0.038096	-0.931505	0.306990
C59	C	0.084564	-0.972672	0.223580
H60	H	0.072171	-0.961111	0.369184
H61	H	-0.029345	-0.979835	0.306963
H62	H	0.037090	-0.822997	0.306564
H63	H	0.085635	-1.081164	0.223950
H64	H	0.151980	-0.924249	0.223637
H65	H	0.092738	-1.294045	-0.555818
H66	H	0.270090	-0.898203	0.000053
H67	H	0.199110	-1.071728	-0.134732
O68	O	0.005285	-1.688739	-0.560563
C69	C	-0.121476	-1.734104	-0.647237
C70	C	-0.053933	-1.630539	-0.612287
H71	H	-0.169361	-1.687092	-0.689078
H72	H	-0.154911	-1.786453	-0.588628
H73	H	-0.090116	-1.805463	-0.689930
H74	H	-0.085226	-1.559099	-0.569607
H75	H	-0.020503	-1.578289	-0.670936
H76	H	-0.419396	-1.393271	-0.134762
H77	H	-0.016266	-1.461167	-0.444250
O78	O	0.042254	-0.936051	-0.146628
C79	C	-0.087693	-0.954597	-0.229761
C80	C	-0.041173	-0.995754	-0.146383
H81	H	-0.155156	-1.002827	-0.229581
H82	H	-0.053743	-0.984330	-0.292006
H83	H	-0.088629	-0.846076	-0.229391
H84	H	-0.040223	-1.104268	-0.146667
H85	H	-0.075137	-0.965926	-0.084176
H86	H	0.233150	-1.339596	-0.444379
O87	O	-0.423190	-1.383330	0.146635
C88	C	-0.379102	-1.270855	0.281312
C89	C	-0.351581	-1.341044	0.197901
H90	H	-0.321220	-1.236624	0.322775
H91	H	-0.423862	-1.339032	0.322640
H92	H	-0.412604	-1.184863	0.260235
H93	H	-0.318044	-1.427033	0.218900
H94	H	-0.306860	-1.272782	0.156594
O95	O	-0.328515	-1.629949	-0.146805
C96	C	-0.212732	-1.701759	-0.229452
C97	C	-0.240215	-1.631689	-0.145973
H98	H	-0.141342	-1.703212	-0.228798
H99	H	-0.232048	-1.649734	-0.291619
H100	H	-0.244477	-1.804296	-0.229709
H101	H	-0.208483	-1.529150	-0.145629
H102	H	-0.220914	-1.683812	-0.083844
O103	O	0.276923	-1.556066	-0.560822
C104	C	0.426001	-1.488544	-0.565848
C105	C	0.339104	-1.460436	-0.530609
H106	H	0.476300	-1.411260	-0.541420
H107	H	0.425121	-1.489179	-0.641736
H108	H	0.440919	-1.586070	-0.540426
H109	H	0.324132	-1.362908	-0.555966
H110	H	0.340029	-1.459885	-0.454722
O111	O	-0.452311	-1.749166	-0.000302
C112	C	-0.472765	-1.951428	-0.077433
C113	C	-0.428788	-1.813556	-0.077315
H114	H	-0.453749	-2.003536	-0.139683
H115	H	-0.544054	-1.948701	-0.076901
H116	H	-0.453001	-2.004147	-0.015760
H117	H	-0.448484	-1.760757	-0.138978
H118	H	-0.357507	-1.816376	-0.077801
O119	O	0.158412	-1.738201	-0.439238
C120	C	0.177844	-1.868508	-0.310250
C121	C	0.158223	-1.736905	-0.345378
H122	H	0.177680	-1.867513	-0.234360
H123	H	0.242490	-1.889649	-0.335197
H124	H	0.127822	-1.945829	-0.335196
H125	H	0.208190	-1.659501	-0.320446
H126	H	0.093552	-1.715875	-0.320438
O127	O	-0.328353	-1.630123	0.146491
C128	C	-0.212449	-1.702757	0.228493
C129	C	-0.240117	-1.632599	0.145127
H130	H	-0.141107	-1.704758	0.227427
H131	H	-0.244529	-1.805095	0.229134
H132	H	-0.231232	-1.650272	0.290673
H133	H	-0.221339	-1.684977	0.082902
H134	H	-0.208043	-1.530258	0.144565
