data_functionalizedCrystal
_audit_creation_method	'MofGen! by Chris Wilmer'
_symmetry_space_group_name_H-M	'P1'
_symmetry_Int_Tables_number	1
_symmetry_cell_setting	triclinic
loop_
_symmetry_equiv_pos_as_xyz
  x,y,z
_cell_length_a	17.000383
_cell_length_b	9.065218
_cell_length_c	8.140239
_cell_angle_alpha	90.001686
_cell_angle_beta	89.994131
_cell_angle_gamma	99.691906
loop_
_atom_site_label
_atom_site_type_symbol
_atom_site_fract_x
_atom_site_fract_y
_atom_site_fract_z
O1	O	1.056481	-0.053127	-0.136724
O2	O	0.825135	-0.106617	-0.136701
O3	O	0.945590	0.135509	-0.136710
O4	O	0.936026	-0.295253	-0.136715
O5	O	0.945583	0.135511	0.136517
O6	O	0.825128	-0.106615	0.136526
O7	O	1.056474	-0.053125	0.136503
Zn8	Zn	0.940800	-0.079870	0.179895
Zn9	Zn	0.940809	-0.079872	-0.180093
O10	O	0.936019	-0.295252	0.136512
C11	C	0.795498	-0.109489	-0.000085
C12	C	0.707201	-0.118031	-0.000076
C13	C	0.207382	-0.173190	-0.000138
C14	C	0.290347	-0.165152	-0.000136
C15	C	0.340336	-0.025634	-0.000122
C16	C	0.307356	0.105855	-0.000126
C17	C	0.224393	0.097816	-0.000139
C18	C	0.591258	0.005419	-0.000093
C19	C	0.674227	0.013448	-0.000075
C20	C	0.657212	-0.257561	-0.000088
C21	C	0.574248	-0.265588	-0.000092
C22	C	0.541275	-0.134099	-0.000104
C23	C	0.425140	-0.017414	-0.000116
C24	C	0.456473	-0.142320	-0.000122
C25	C	0.944667	0.190355	-0.000099
C26	C	0.941919	0.353773	-0.000106
C27	C	1.086111	-0.050253	-0.000117
C28	C	1.174408	-0.041711	-0.000137
C29	C	0.936942	-0.350097	-0.000103
C30	C	0.939690	-0.513515	-0.000106
N31	N	0.940800	-0.079867	0.425578
N32	N	0.940815	-0.079863	-0.425776
H33	H	0.415768	-0.255915	-0.000142
H34	H	0.684068	-0.364611	-0.000081
Cl35	Cl	0.370200	0.281251	-0.000112
Cl36	Cl	0.549818	0.170720	-0.000147
Cl37	Cl	0.182939	0.263111	-0.000138
Cl38	Cl	0.487990	0.157975	-0.000080
H39	H	0.533551	-0.379199	-0.000108
H40	H	0.166686	-0.286802	-0.000137
H41	H	0.317191	-0.272217	-0.000153
Cl42	Cl	0.737070	0.188856	-0.000060
