data_functionalizedCrystal
_audit_creation_method	'MofGen! by Chris Wilmer'
_symmetry_space_group_name_H-M	'P1'
_symmetry_Int_Tables_number	1
_symmetry_cell_setting	triclinic
loop_
_symmetry_equiv_pos_as_xyz
  x,y,z
_cell_length_a	17.699083
_cell_length_b	17.699077
_cell_length_c	14.586319
_cell_angle_alpha	89.997054
_cell_angle_beta	89.997335
_cell_angle_gamma	96.718205
loop_
_atom_site_label
_atom_site_type_symbol
_atom_site_fract_x
_atom_site_fract_y
_atom_site_fract_z
O1	O	-0.095689	1.004078	-0.076215
O2	O	-0.108146	0.783699	-0.076218
O3	O	0.008272	0.900114	-0.076225
O4	O	-0.212107	0.887662	-0.076208
O5	O	0.008274	0.900106	0.076255
O6	O	-0.108144	0.783691	0.076263
O7	O	-0.095687	1.004070	0.076266
Cu8	Cu	-0.101915	0.893879	0.090187
Cu9	Cu	-0.101918	0.893889	-0.090139
O10	O	-0.212105	0.887654	0.076273
C11	C	-0.107700	0.755498	0.000022
C12	C	-0.106363	0.671479	0.000020
C13	C	-0.105732	0.632007	0.083138
C14	C	-0.104464	0.553065	0.083139
C15	C	-0.103832	0.513595	0.000021
C16	C	-0.104460	0.553072	-0.083104
C17	C	-0.105723	0.632014	-0.083104
C18	C	-0.099367	0.234709	-0.083106
C19	C	-0.098107	0.155762	-0.083100
C20	C	-0.098108	0.155760	0.083137
C21	C	-0.099370	0.234702	0.083137
C22	C	-0.099995	0.274173	0.000013
C23	C	-0.101369	0.359772	0.000013
C24	C	-0.102464	0.427997	0.000020
C25	C	-0.240303	0.888104	0.000035
C26	C	-0.324321	0.889443	0.000042
C27	C	-0.372943	0.821109	0.000041
C28	C	-0.451887	0.822371	0.000030
C29	C	-0.482206	0.891968	0.000027
C30	C	-0.433577	0.960307	0.000025
C31	C	-0.354636	0.959044	0.000029
C32	C	-0.751940	0.965402	0.000007
C33	C	-0.830888	0.966660	0.000005
C34	C	-0.849191	0.828730	0.000008
C35	C	-0.770250	0.827467	0.000012
C36	C	-0.721628	0.895805	0.000005
C37	C	-0.636029	0.894436	0.000015
C38	C	-0.567804	0.893338	0.000023
C39	C	0.036470	0.899664	0.000011
C40	C	0.120488	0.898326	-0.000002
C41	C	-0.096133	1.032271	0.000024
C42	C	-0.097470	1.116289	0.000020
N43	N	-0.101914	0.893878	0.217019
N44	N	-0.101913	0.893896	-0.216971
C45	C	-0.050381	0.945444	0.452022
C46	C	-0.050379	0.945446	0.548003
C47	C	-0.153448	0.842325	0.548019
C48	C	-0.153446	0.842320	0.452040
C49	C	-0.101913	0.893883	0.404044
C50	C	-0.101914	0.893891	0.596004
C51	C	-0.101912	0.893893	0.700071
C52	C	-0.101914	0.893881	0.299970
H53	H	-0.106238	0.664151	-0.150787
O54	O	-0.000426	0.995565	0.594710
C55	C	0.015820	1.098991	0.703017
C56	C	-0.040839	1.042262	0.650196
H57	H	-0.016832	1.136771	0.747875
H58	H	0.053580	1.066430	0.748015
H59	H	0.052665	1.135807	0.652205
H60	H	-0.077734	1.005431	0.700942
H61	H	-0.078546	1.074869	0.605184
O62	O	-0.097392	0.117514	0.163945
C63	C	-0.031439	0.102033	0.306007
C64	C	-0.032162	0.145414	0.214539
H65	H	0.021302	0.124562	0.346930
H66	H	-0.084600	0.110544	0.347061
H67	H	-0.030461	0.038830	0.291714
H68	H	-0.033113	0.208630	0.228749
H69	H	0.020995	0.136840	0.173514
H70	H	-0.888789	0.773085	0.000010
H71	H	-0.195410	0.800329	0.412973
H72	H	-0.106253	0.664137	0.150823
H73	H	-0.712361	1.021048	0.000007
O74	O	-0.103891	0.514834	0.163962
C75	C	-0.103990	0.523168	0.328852
C76	C	-0.104658	0.566555	0.237383
H77	H	-0.104594	0.564967	0.388236
H78	H	-0.156358	0.479199	0.333071
H79	H	-0.050463	0.493216	0.332961
H80	H	-0.158150	0.596552	0.233212
H81	H	-0.052255	0.610480	0.233203
O82	O	-0.099881	0.273138	0.163820
C83	C	-0.035729	0.370929	0.260314
C84	C	-0.035071	0.327474	0.168897
H85	H	0.016672	0.414858	0.264457
H86	H	-0.089231	0.400918	0.264492
H87	H	-0.035095	0.329137	0.319707
H88	H	-0.035678	0.369215	0.109452
H89	H	0.018426	0.297473	0.164799
O90	O	-0.097591	0.117489	-0.163904
C91	C	-0.162763	0.084596	-0.305966
C92	C	-0.163432	0.127989	-0.214506
H93	H	-0.215997	0.093057	-0.346895
H94	H	-0.110097	0.107152	-0.347018
H95	H	-0.161720	0.021403	-0.291660
H96	H	-0.164502	0.191188	-0.228728
H97	H	-0.216093	0.105371	-0.173481
H98	H	-0.745568	0.770794	0.000020
O99	O	-0.100084	0.273110	-0.163793
C100	C	-0.167080	0.353492	-0.260306
C101	C	-0.166352	0.310050	-0.168880
H102	H	-0.220660	0.383356	-0.264457
H103	H	-0.114760	0.397524	-0.264490
H104	H	-0.166379	0.311706	-0.319690
H105	H	-0.167080	0.351779	-0.109444
H106	H	-0.218667	0.266008	-0.164777
O107	O	-0.860215	1.034337	-0.000047
C108	C	-0.833734	1.171017	-0.000013
C109	C	-0.800420	1.094434	0.000025
H110	H	-0.785406	1.219626	0.000065
H111	H	-0.870205	1.175102	-0.063842
H112	H	-0.870265	1.175016	0.063784
H113	H	-0.763855	1.090383	-0.063729
H114	H	-0.763992	1.090382	0.063896
H115	H	-0.195407	0.800344	0.587107
H116	H	-0.008419	0.987429	0.412946
H117	H	-0.315047	1.014688	0.000026
O118	O	-0.103952	0.514801	-0.163903
C119	C	-0.169143	0.481914	-0.305954
C120	C	-0.169800	0.525304	-0.214491
H121	H	-0.222383	0.490377	-0.346873
H122	H	-0.116482	0.504470	-0.347016
H123	H	-0.168100	0.418720	-0.291653
H124	H	-0.170870	0.588504	-0.228710
H125	H	-0.222456	0.502686	-0.173458
H126	H	-0.348264	0.764435	0.000054
H127	H	-0.491472	0.766727	0.000027
O128	O	-0.463153	1.027848	0.000062
C129	C	-0.576652	1.090926	0.000005
C130	C	-0.543262	1.014382	-0.000019
H131	H	-0.641424	1.080066	-0.000079
H132	H	-0.556674	1.124696	0.063834
H133	H	-0.556567	1.124689	-0.063792
H134	H	-0.563331	0.980557	0.063736
H135	H	-0.563235	0.980670	-0.063889
