data_functionalizedCrystal
_audit_creation_method	'MofGen! by Chris Wilmer'
_symmetry_space_group_name_H-M	'P1'
_symmetry_Int_Tables_number	1
_symmetry_cell_setting	triclinic
loop_
_symmetry_equiv_pos_as_xyz
  x,y,z
_cell_length_a	19.851628
_cell_length_b	14.395555
_cell_length_c	14.395555
_cell_angle_alpha	59.995932
_cell_angle_beta	90.001300
_cell_angle_gamma	59.999934
loop_
_atom_site_label
_atom_site_type_symbol
_atom_site_fract_x
_atom_site_fract_y
_atom_site_fract_z
Zr1	Zr	0.649001	1.016692	-0.121815
O2	O	0.541440	1.210512	-0.270166
O3	O	0.681971	0.822889	-0.076335
O4	O	0.681978	1.016694	-0.270140
O5	O	0.541431	1.016701	0.076512
O6	O	0.792839	1.016676	-0.270121
O7	O	0.541433	1.016708	-0.076362
O8	O	0.792827	0.669995	0.076560
O9	O	0.541443	1.363382	-0.270169
O10	O	0.778771	0.902584	-0.056927
O11	O	0.696034	0.902592	0.057147
O12	O	0.696042	1.130772	-0.171033
O13	O	0.613306	1.130780	-0.056958
Zr14	Zr	0.825809	1.016653	0.122031
Zr15	Zr	0.825813	1.016664	-0.121785
Zr16	Zr	0.648998	1.016681	0.122002
Zr17	Zr	0.649006	1.260502	-0.121819
Zr18	Zr	0.825804	0.772843	0.122035
O19	O	0.792839	1.210456	0.076552
O20	O	0.792844	1.210472	-0.270124
O21	O	0.541436	1.210497	0.076510
O22	O	0.933370	0.822833	0.270383
O23	O	0.933375	0.822848	-0.076293
O24	O	0.681967	0.822873	0.270341
O25	O	0.933379	1.016644	-0.076296
O26	O	0.792833	1.016651	0.270356
O27	O	0.681971	1.016669	0.270338
O28	O	0.933377	1.016637	0.076578
O29	O	0.681985	1.363359	-0.270145
O30	O	0.792825	0.669986	0.270361
O31	O	0.933367	0.669963	0.270385
O32	O	0.933369	0.669972	0.076583
O33	O	0.541441	1.363373	-0.076367
O34	O	0.681983	1.363350	-0.076343
O35	O	0.778768	0.902573	0.171249
O36	O	0.861504	0.902565	0.057175
O37	O	0.778776	1.130753	-0.056931
O38	O	0.696039	1.130761	0.057144
C39	C	0.737398	0.711704	0.000113
C40	C	0.737396	0.608201	0.000114
C41	C	0.516241	1.016708	0.000071
C42	C	0.441179	1.016720	0.000059
C43	C	0.692287	0.547613	0.062316
C44	C	0.659596	0.561880	-0.044969
C45	C	0.770068	0.409539	0.107367
C46	C	0.704659	0.623894	-0.107234
C47	C	0.815175	0.471490	0.045179
C48	C	0.782502	0.485803	-0.062170
C49	C	0.214727	1.141109	-0.062118
C50	C	0.192365	1.078920	-0.107196
C51	C	0.303773	1.016686	0.000091
C52	C	0.192394	1.078884	0.045148
C53	C	0.171041	1.016663	0.000122
C54	C	0.282399	0.954497	-0.045049
C55	C	0.282426	0.954478	0.107355
C56	C	0.260117	0.892198	0.062304
C57	C	0.380235	1.016704	0.000071
C58	C	0.094583	1.016636	0.000141
C59	C	0.958570	1.016637	0.000145
C60	C	1.033631	1.016625	0.000158
C61	C	0.737409	1.016686	-0.304869
C62	C	0.737410	1.016691	-0.408376
C63	C	0.737412	1.321641	0.000104
C64	C	0.737414	1.425144	0.000102
C65	C	0.692294	1.141109	-0.531180
C66	C	0.770082	1.078903	-0.562005
C67	C	0.659626	1.078892	-0.561973
C68	C	0.815245	0.954484	-0.437838
C69	C	0.704732	0.954491	-0.437809
C70	C	0.782567	0.892194	-0.468561
C71	C	0.737401	1.016659	0.305086
C72	C	0.737400	1.016654	0.408592
C73	C	0.958563	0.711669	0.000150
C74	C	1.033622	0.608153	0.000164
C75	C	0.737395	0.711691	0.305090
C76	C	0.737391	0.608182	0.408598
C77	C	0.958559	0.711655	0.305127
C78	C	1.033617	0.608135	0.408648
C79	C	0.516251	1.321690	-0.304911
C80	C	0.441193	1.425210	-0.408431
C81	C	0.516247	1.321676	0.000067
C82	C	0.441188	1.425192	0.000052
C83	C	0.737416	1.321654	-0.304874
C84	C	0.737419	1.425162	-0.408382
C85	C	1.025684	0.559551	-0.059400
C86	C	1.096204	0.462300	-0.059409
C87	C	1.174659	0.413647	0.000152
C88	C	1.182595	0.462259	0.059718
C89	C	1.112077	0.559514	0.059720
C90	C	1.112060	0.559516	0.397717
C91	C	1.182591	0.462261	0.494976
C92	C	1.174678	0.413620	0.603165
C93	C	1.096227	0.462248	0.614095
C94	C	1.025697	0.559508	0.516836
C95	C	0.362751	1.473841	-0.397500
C96	C	0.292219	1.571126	-0.494760
C97	C	0.300132	1.619772	-0.602949
C98	C	0.378584	1.571138	-0.613878
C99	C	0.449113	1.473861	-0.516620
C100	C	0.449126	1.473805	0.059606
C101	C	0.378607	1.571082	0.059589
C102	C	0.300151	1.619738	0.000024
C103	C	0.292215	1.571122	-0.059537
C104	C	0.362733	1.473853	-0.059526
C105	C	0.692277	0.547605	0.406977
C106	C	0.770071	0.409487	0.500014
C107	C	0.659618	0.561837	0.500001
C108	C	0.815230	0.471365	0.500272
C109	C	0.704721	0.623789	0.500244
C110	C	0.782561	0.485681	0.593299
H111	H	0.654089	0.574843	0.114840
C112	C	1.228708	0.274283	0.807346
C113	C	1.252210	0.306715	0.710068
H114	H	1.276576	0.208291	0.873339
H115	H	1.196818	0.242391	0.807351
H116	H	1.196802	0.350170	0.807329
H117	H	1.284111	0.230829	0.710081
H118	H	1.284114	0.338602	0.710064
H119	H	1.232073	0.334455	0.000142
H120	H	0.593846	0.599021	0.500905
C121	C	1.204526	0.549587	0.289770
C122	C	1.120773	0.612859	0.278802
H123	H	1.209908	0.582491	0.216358
H124	H	1.230230	0.457769	0.330277
H125	H	1.230236	0.565611	0.330099
H126	H	1.095064	0.596828	0.238480
H127	H	1.095058	0.704699	0.238278
H128	H	0.797692	0.317922	0.198074
C129	C	0.749011	0.257915	0.502711
C130	C	0.807378	0.285790	0.501287
H131	H	0.772041	0.181550	0.503498
H132	H	0.701559	0.330085	0.436822
H133	H	0.733863	0.243182	0.568794
H134	H	0.822522	0.300532	0.435199
H135	H	0.854845	0.213602	0.567183
C136	C	0.903254	0.518914	0.401551
C137	C	0.904066	0.420880	0.499178
H138	H	0.958096	0.487742	0.400871
H139	H	0.879992	0.594664	0.401764
H140	H	0.871132	0.540804	0.335806
H141	H	0.936183	0.398996	0.564923
H142	H	0.927340	0.345106	0.498975
H143	H	1.246484	0.422632	0.108210
C144	C	0.667556	0.844010	-0.228623
C145	C	0.667259	0.747512	-0.229746
H146	H	0.644461	0.920329	-0.304255
H147	H	0.722645	0.811702	-0.196531
H148	H	0.635751	0.865458	-0.184335
H149	H	0.699069	0.726057	-0.274027
H150	H	0.612161	0.779826	-0.261853
C151	C	0.115368	1.280198	-0.294647
C152	C	0.139970	1.149908	-0.229631
H153	H	0.083017	1.324027	-0.370231
H154	H	0.162770	1.281410	-0.295601
H155	H	0.083621	1.323521	-0.262211
H156	H	0.171723	1.106581	-0.262063
H157	H	0.092561	1.148688	-0.228683
C158	C	0.923671	0.501801	0.015537
C159	C	0.903940	0.421312	0.096679
H160	H	0.978474	0.470812	0.047340
H161	H	0.886523	0.589358	-0.006677
H162	H	0.919409	0.499799	-0.049077
H163	H	0.908195	0.423321	0.161290
H164	H	0.941098	0.333732	0.118909
H165	H	0.593826	0.599077	-0.083096
H166	H	0.356259	1.434275	-0.108018
C167	C	0.799614	0.560685	-0.245525
C168	C	0.833997	0.449410	-0.133281
H169	H	0.831399	0.538214	-0.289427
H170	H	0.799521	0.627164	-0.246403
H171	H	0.744605	0.592129	-0.276872
H172	H	0.889003	0.417972	-0.101931
H173	H	0.834099	0.382908	-0.132398
H174	H	1.246463	0.422678	0.486057
H175	H	0.654189	0.574699	0.327209
H176	H	0.961828	0.599081	0.525753
C177	C	0.404903	0.884273	-0.096216
C178	C	0.334626	0.883568	-0.096623
H179	H	0.437141	0.840495	-0.128064
H180	H	0.436573	0.840382	-0.020246
H181	H	0.388652	0.972427	-0.140082
H182	H	0.350877	0.795414	-0.052751
H183	H	0.302951	0.927457	-0.172606
C184	C	0.270284	1.483659	-0.289553
C185	C	0.354037	1.420401	-0.278585
H186	H	0.264902	1.450683	-0.216141
H187	H	0.244569	1.467717	-0.329955
H188	H	0.244586	1.575479	-0.329988
H189	H	0.379735	1.328582	-0.238158
H190	H	0.379764	1.436332	-0.238167
C191	C	0.585895	0.796018	0.497437
C192	C	0.667386	0.747522	0.498912
H193	H	0.562840	0.872416	0.496602
H194	H	0.585160	0.730973	0.563332
H195	H	0.554417	0.817574	0.431361
H196	H	0.698866	0.725955	0.564992
H197	H	0.668126	0.812581	0.433009
H198	H	0.677075	0.901959	-0.384295
H199	H	0.278720	0.786907	0.114913
H200	H	0.321231	0.901935	0.198034
H201	H	0.196279	1.246314	-0.114802
C202	C	1.042352	0.708547	0.112660
C203	C	1.120810	0.612912	0.125219
H204	H	1.047750	0.741510	0.153097
H205	H	1.013052	0.670612	0.142057
H206	H	1.013052	0.778390	0.034308
H207	H	1.150108	0.543064	0.203571
H208	H	1.150122	0.650846	0.095828
H209	H	1.089796	0.422630	0.702195
H210	H	0.820768	0.458641	0.672937
H211	H	0.153593	1.131491	0.083241
H212	H	0.654209	1.246316	-0.556630
C213	C	0.162805	1.759905	-0.534983
C214	C	0.205993	1.624562	-0.482726
H215	H	0.109577	1.792887	-0.527544
H216	H	0.157416	1.802802	-0.613328
H217	H	0.192128	1.775809	-0.499501
H218	H	0.176673	1.608658	-0.518214
H219	H	0.211379	1.581652	-0.404365
C220	C	0.246102	1.759127	-0.807130
C221	C	0.222600	1.726690	-0.709852
H222	H	0.198234	1.825135	-0.873122
H223	H	0.277998	1.683256	-0.807123
H224	H	0.278003	1.791009	-0.807124
H225	H	0.190704	1.694798	-0.709853
H226	H	0.190691	1.802576	-0.709859
H227	H	0.797719	1.131481	-0.615526
H228	H	0.385017	1.610758	-0.701977
H229	H	0.593849	1.131507	-0.615487
C230	C	0.923664	0.775799	-0.257725
C231	C	0.904090	0.883514	-0.365802
H232	H	0.978512	0.731986	-0.213253
H233	H	0.919194	0.716881	-0.264990
H234	H	0.886566	0.805486	-0.221628
H235	H	0.941184	0.853825	-0.401902
H236	H	0.908567	0.942442	-0.358541
C237	C	0.833162	0.751185	-0.531755
C238	C	0.834130	0.750059	-0.433929
H239	H	0.864992	0.663438	-0.510374
H240	H	0.855899	0.795675	-0.576158
H241	H	0.777937	0.795190	-0.575067
H242	H	0.889354	0.706062	-0.390620
H243	H	0.811396	0.705550	-0.389507
H244	H	0.961808	0.599163	-0.107916
C245	C	0.527377	1.483640	-0.644151
C246	C	0.535337	1.420397	-0.528648
H247	H	0.580608	1.450629	-0.651580
H248	H	0.498084	1.575446	-0.679597
H249	H	0.498052	1.467715	-0.679604
H250	H	0.564658	1.436330	-0.493197
H251	H	0.564643	1.328569	-0.493187
H252	H	1.089726	0.422732	-0.107914
H253	H	0.513002	1.434196	0.108118
C254	C	0.471100	1.561220	0.177373
C255	C	0.387343	1.624494	0.125076
H256	H	0.476493	1.594187	0.217808
H257	H	0.496813	1.577159	0.121026
H258	H	0.496793	1.469402	0.228768
H259	H	0.361651	1.716312	0.073674
H260	H	0.361620	1.608565	0.181430
C261	C	0.222675	1.838472	-0.046963
C262	C	0.222644	1.726654	0.000029
H263	H	0.174831	1.904470	-0.046947
H264	H	0.222664	1.870357	-0.122836
H265	H	0.270547	1.816424	-0.002961
H266	H	0.174775	1.748699	-0.043979
H267	H	0.222648	1.694764	0.075915
C268	C	0.145761	1.720233	-0.112411
C269	C	0.205971	1.624603	-0.124998
H270	H	0.092517	1.753240	-0.152814
H271	H	0.151955	1.790036	-0.141830
H272	H	0.151969	1.682269	-0.034052
H273	H	0.199767	1.662570	-0.203357
H274	H	0.199774	1.554789	-0.095584
