data_functionalizedCrystal
_audit_creation_method	'MofGen! by Chris Wilmer'
_symmetry_space_group_name_H-M	'P1'
_symmetry_Int_Tables_number	1
_symmetry_cell_setting	triclinic
loop_
_symmetry_equiv_pos_as_xyz
  x,y,z
_cell_length_a	18.050591
_cell_length_b	18.050590
_cell_length_c	18.050571
_cell_angle_alpha	89.910881
_cell_angle_beta	89.932189
_cell_angle_gamma	90.015000
loop_
_atom_site_label
_atom_site_type_symbol
_atom_site_fract_x
_atom_site_fract_y
_atom_site_fract_z
Zn1	Zn	1.135695	-0.295295	-0.420005
Zn2	Zn	1.135522	-0.419621	-0.295813
Zn3	Zn	1.011410	-0.295441	-0.295819
Zn4	Zn	1.011483	-0.419440	-0.419952
O5	O	1.073527	-0.357449	-0.357897
O6	O	1.239596	-0.311801	-0.403551
O7	O	1.118956	-0.403285	-0.191889
O8	O	1.027938	-0.191497	-0.312317
O9	O	1.239470	-0.403143	-0.312308
O10	O	1.119250	-0.191389	-0.403556
O11	O	1.027771	-0.312051	-0.191893
O12	O	0.907495	-0.311876	-0.312265
O13	O	1.028063	-0.402835	-0.523884
O14	O	0.907549	-0.402977	-0.403465
O15	O	1.119321	-0.311626	-0.523923
O16	O	1.119027	-0.523521	-0.312256
O17	O	1.027895	-0.523388	-0.403460
C18	C	0.880575	-0.357423	-0.357860
C19	C	0.798029	-0.357430	-0.357862
C20	C	1.073470	-0.550401	-0.357868
C21	C	1.073514	-0.632947	-0.357880
C22	C	0.549153	-0.307837	-0.308385
C23	C	0.598639	-0.289678	-0.376161
C24	C	0.500909	-0.357467	-0.357923
C25	C	0.598505	-0.375573	-0.290120
C26	C	0.646894	-0.357447	-0.357889
C27	C	0.549308	-0.339274	-0.425735
C28	C	0.549169	-0.425199	-0.339649
C29	C	0.598633	-0.407066	-0.407472
C30	C	0.416811	-0.357477	-0.357941
C31	C	0.730991	-0.357437	-0.357879
C32	C	1.123174	-0.832443	-0.308352
C33	C	1.141367	-0.881705	-0.376134
C34	C	1.073556	-0.784077	-0.357910
C35	C	1.055439	-0.881897	-0.290158
C36	C	1.073598	-0.930062	-0.357932
C37	C	1.091783	-0.832252	-0.425727
C38	C	1.005824	-0.832440	-0.339705
C39	C	1.023991	-0.881679	-0.407534
C40	C	1.073534	-0.699979	-0.357896
C41	C	1.073620	-1.014159	-0.357954
C42	C	1.267233	-0.357476	-0.357935
C43	C	1.349779	-0.357487	-0.357951
C44	C	1.073719	-0.357194	-0.551604
C45	C	1.073801	-0.357085	-0.634150
C46	C	1.073605	-0.163743	-0.357943
C47	C	1.073638	-0.081198	-0.357963
C48	C	1.073379	-0.357650	-0.164945
C49	C	1.073442	-0.357549	-0.082399
C50	C	1.023689	-0.308031	0.166386
C51	C	1.005946	-0.375963	0.117208
C52	C	1.073679	-0.357243	0.214720
C53	C	1.091269	-0.289466	0.116818
C54	C	1.073561	-0.357390	0.068736
C55	C	1.055903	-0.425211	0.166629
C56	C	1.141257	-0.338668	0.166244
C57	C	1.123540	-0.406647	0.117088
C58	C	1.073746	-0.357157	0.298819
C59	C	1.073494	-0.357483	-0.015361
H60	H	0.527431	-0.265844	-0.266558
H61	H	1.165765	-0.448375	0.095578
H62	H	0.981433	-0.266403	0.188033
H63	H	0.982049	-0.903164	-0.449501
H64	H	0.620355	-0.232388	-0.391617
O65	O	0.937763	-0.394803	0.091369
C66	C	0.861497	-0.416541	-0.015898
C67	C	0.938754	-0.395225	0.013263
H68	H	0.862268	-0.416874	-0.079049
H69	H	0.846009	-0.473997	0.005385
H70	H	0.818998	-0.374475	0.004391
H71	H	0.981304	-0.437240	-0.007015
H72	H	0.954178	-0.337751	-0.008014
O73	O	1.209415	-0.319732	0.192063
C74	C	1.280919	-0.234037	0.265111
C75	C	1.203687	-0.255422	0.235933
H76	H	1.276316	-0.182031	0.300573
H77	H	1.304100	-0.281348	0.299980
H78	H	1.319530	-0.222874	0.216328
H79	H	1.165020	-0.266573	0.284671
H80	H	1.180566	-0.208098	0.201042
O81	O	1.110149	-0.806481	-0.494165
C82	C	1.143899	-0.837442	-0.619548
C83	C	1.123090	-0.866729	-0.542086
H84	H	1.154382	-0.886138	-0.658309
H85	H	1.096602	-0.802262	-0.642205
H86	H	1.196174	-0.802237	-0.615458
H87	H	1.070834	-0.901966	-0.546113
H88	H	1.170430	-0.901869	-0.519458
O89	O	1.037991	-0.493633	0.192733
C90	C	1.018007	-0.570327	0.300303
C91	C	1.038286	-0.492804	0.270839
H92	H	1.018254	-0.569686	0.363455
H93	H	0.960511	-0.586337	0.279724
H94	H	1.060297	-0.612367	0.279534
H95	H	0.996045	-0.450712	0.291596
H96	H	1.095801	-0.476856	0.291413
O97	O	1.108995	-0.220960	0.090809
C98	C	1.076340	-0.091600	0.086324
C99	C	1.056199	-0.169140	0.115841
H100	H	1.033657	-0.049685	0.106538
H101	H	1.133571	-0.075236	0.107356
H102	H	1.076677	-0.092489	0.023176
H103	H	1.055820	-0.168310	0.178988
H104	H	0.998981	-0.185474	0.094753
O105	O	0.624429	-0.457210	-0.457384
C106	C	0.696600	-0.567733	-0.477116
C107	C	0.667419	-0.511015	-0.420509
H108	H	0.731376	-0.611240	-0.447326
H109	H	0.647876	-0.595800	-0.505787
H110	H	0.732196	-0.538113	-0.520156
H111	H	0.631835	-0.540579	-0.377423
H112	H	0.716177	-0.482950	-0.391894
H113	H	0.527785	-0.323885	-0.483077
H114	H	0.620119	-0.390894	-0.232794
O115	O	0.523255	-0.493501	-0.321069
C116	C	0.518909	-0.589840	-0.228605
C117	C	0.548294	-0.512476	-0.249555
H118	H	0.539154	-0.605213	-0.170791
H119	H	0.455758	-0.589337	-0.229283
H120	H	0.540105	-0.632271	-0.270262
H121	H	0.527153	-0.470003	-0.207918
H122	H	0.611445	-0.513041	-0.248900
O123	O	0.937455	-0.806720	-0.321253
C124	C	0.812204	-0.837772	-0.286837
C125	C	0.889600	-0.867001	-0.307718
H126	H	0.773487	-0.886495	-0.275904
H127	H	0.816388	-0.802242	-0.234849
H128	H	0.789425	-0.802932	-0.334359
H129	H	0.912424	-0.901873	-0.260245
H130	H	0.885370	-0.902492	-0.359730
H131	H	1.198664	-0.903347	-0.391546
O132	O	1.173346	-0.806677	-0.258491
C133	C	1.301465	-0.802583	-0.221363
C134	C	1.244726	-0.831798	-0.277888
H135	H	1.359186	-0.822895	-0.237017
H136	H	1.300668	-0.739430	-0.221444
H137	H	1.286531	-0.823838	-0.163743
H138	H	1.259620	-0.810598	-0.335535
H139	H	1.245534	-0.894950	-0.277742
H140	H	1.040099	-0.903701	-0.232852
