data_functionalizedCrystal
_audit_creation_method	'MofGen! by Chris Wilmer'
_symmetry_space_group_name_H-M	'P1'
_symmetry_Int_Tables_number	1
_symmetry_cell_setting	triclinic
loop_
_symmetry_equiv_pos_as_xyz
  x,y,z
_cell_length_a	14.519731
_cell_length_b	10.489716
_cell_length_c	13.596369
_cell_angle_alpha	89.998063
_cell_angle_beta	89.994584
_cell_angle_gamma	84.108994
loop_
_atom_site_label
_atom_site_type_symbol
_atom_site_fract_x
_atom_site_fract_y
_atom_site_fract_z
O1	O	1.224757	0.167335	-0.081784
O2	O	0.956389	0.186997	-0.081785
O3	O	1.096692	-0.008497	-0.081788
O4	O	1.084455	0.362829	-0.081781
O5	O	1.096678	-0.008507	0.081795
O6	O	0.956375	0.186987	0.081798
O7	O	1.224743	0.167324	0.081798
Zn8	Zn	1.090557	0.177154	0.107771
Zn9	Zn	1.090576	0.177168	-0.107757
O10	O	1.084441	0.362818	0.081802
C11	C	0.922018	0.186070	0.000006
C12	C	0.819623	0.183310	0.000006
C13	C	0.736466	0.181066	0.000002
C14	C	0.632142	0.178264	0.000001
C15	C	0.548991	0.176039	0.000001
C16	C	0.444661	0.173236	-0.000001
C17	C	1.095765	-0.056025	0.000000
C18	C	1.093014	-0.197628	-0.000009
C19	C	1.179052	-0.296189	0.000000
C20	C	1.133595	-0.373076	-0.080652
C21	C	1.133561	-0.373050	0.080628
C22	C	1.047593	-0.272649	-0.080728
C23	C	1.047572	-0.272618	0.080625
C24	C	1.002051	-0.349454	-0.000048
C25	C	1.259115	0.168251	0.000005
C26	C	1.361510	0.171012	-0.000001
C27	C	1.085367	0.410346	0.000011
C28	C	1.088118	0.551949	0.000014
N29	N	1.090551	0.177144	0.254862
N30	N	1.090589	0.177168	-0.254849
C31	C	1.090574	0.177169	0.656153
C32	C	1.090565	0.177166	0.544502
C33	C	1.090563	0.177157	0.455511
C34	C	1.090553	0.177153	0.343853
H35	H	1.253891	-0.272285	-0.000081
H36	H	1.169921	-0.416941	-0.148839
O37	O	1.004378	-0.220348	-0.162145
C38	C	0.958480	-0.027376	-0.253471
C39	C	1.007454	-0.086442	-0.161235
H40	H	0.960934	0.080899	-0.252755
H41	H	0.994906	-0.069603	-0.322148
H42	H	0.883277	-0.049699	-0.253760
H43	H	1.082658	-0.064140	-0.160850
H44	H	0.970956	-0.044212	-0.092599
H45	H	0.927156	-0.373112	-0.000091
H46	H	1.169893	-0.416901	0.148812
O47	O	1.004139	-0.220167	0.161869
C48	C	0.879695	-0.073309	0.225144
C49	C	0.928772	-0.132630	0.133043
H50	H	0.818764	-0.002503	0.201871
H51	H	0.853466	-0.152335	0.271819
H52	H	0.930576	-0.021104	0.269933
H53	H	0.877946	-0.184825	0.088178
H54	H	0.955019	-0.053548	0.086441
