data_functionalizedCrystal
_audit_creation_method	'MofGen! by Chris Wilmer'
_symmetry_space_group_name_H-M	'P1'
_symmetry_Int_Tables_number	1
_symmetry_cell_setting	triclinic
loop_
_symmetry_equiv_pos_as_xyz
  x,y,z
_cell_length_a	16.120530
_cell_length_b	16.120484
_cell_length_c	16.120297
_cell_angle_alpha	84.385569
_cell_angle_beta	89.871860
_cell_angle_gamma	90.167327
loop_
_atom_site_label
_atom_site_type_symbol
_atom_site_fract_x
_atom_site_fract_y
_atom_site_fract_z
Zn1	Zn	1.224987	-0.422264	0.554813
Zn2	Zn	1.558320	-0.088931	0.888147
Zn3	Zn	1.891654	0.244402	1.221480
Zn4	Zn	1.224883	-0.554948	0.422118
Zn5	Zn	1.558216	-0.221615	0.755452
Zn6	Zn	1.891549	0.111718	1.088785
Zn7	Zn	1.093726	-0.408180	0.408056
Zn8	Zn	1.427060	-0.074847	0.741389
Zn9	Zn	1.760393	0.258487	1.074723
Zn10	Zn	1.078880	-0.554181	0.554051
Zn11	Zn	1.412213	-0.220848	0.887384
Zn12	Zn	1.745547	0.112486	1.220717
O13	O	1.155619	-0.484893	0.484760
O14	O	1.488952	-0.151560	0.818093
O15	O	1.822286	0.181773	1.151426
O16	O	1.341009	-0.446081	0.543415
O17	O	1.674342	-0.112747	0.876749
O18	O	2.007676	0.220586	1.210082
O19	O	1.213654	-0.529906	0.303620
O20	O	1.546987	-0.196573	0.636953
O21	O	1.880321	0.136760	0.970287
O22	O	1.117395	-0.293418	0.421958
O23	O	1.450729	0.039916	0.755291
O24	O	1.784062	0.373249	1.088624
O25	O	1.340932	-0.543563	0.445925
O26	O	1.674266	-0.210230	0.779258
O27	O	2.007599	0.123104	1.112591
O28	O	1.213832	-0.303765	0.529780
O29	O	1.547166	0.029568	0.863113
O30	O	1.880499	0.362901	1.196446
O31	O	1.117294	-0.422076	0.293289
O32	O	1.450627	-0.088743	0.626622
O33	O	1.783961	0.244591	0.959955
O34	O	0.975721	-0.421332	0.421218
O35	O	1.309055	-0.087998	0.754552
O36	O	1.642388	0.245335	1.087885
O37	O	1.092092	-0.542255	0.670785
O38	O	1.425425	-0.208922	1.004118
O39	O	1.758758	0.124412	1.337451
O40	O	0.964814	-0.528598	0.528480
O41	O	1.298147	-0.195265	0.861813
O42	O	1.631480	0.138069	1.195147
O43	O	1.199436	-0.445336	0.671345
O44	O	1.532769	-0.112003	1.004678
O45	O	1.866103	0.221330	1.338011
O46	O	1.199258	-0.671477	0.445185
O47	O	1.532591	-0.338144	0.778519
O48	O	1.865925	-0.004811	1.111852
O49	O	1.091990	-0.670913	0.542116
O50	O	1.425324	-0.337580	0.875449
O51	O	1.758657	-0.004247	1.208782
C52	C	0.940181	-0.473354	0.473241
C53	C	1.273514	-0.140021	0.806574
C54	C	1.606847	0.193313	1.139908
C55	C	0.848013	-0.468438	0.468334
C56	C	1.181346	-0.135105	0.801667
C57	C	1.514680	0.198228	1.135001
C58	C	0.679262	-0.459445	0.459381
C59	C	1.012595	-0.126111	0.792715
C60	C	1.345928	0.207222	1.126048
C61	C	0.632810	-0.510407	0.510202
C62	C	0.966144	-0.177073	0.843535
C63	C	1.299477	0.156260	1.176868
C64	C	0.538911	-0.505403	0.505220
C65	C	0.872245	-0.172069	0.838554
C66	C	1.205578	0.161264	1.171887
C67	C	0.773169	-0.464448	0.464361
C68	C	1.106503	-0.131114	0.797695
C69	C	1.439836	0.202219	1.131028
C70	C	1.144023	-0.701438	0.495113
C71	C	1.477357	-0.368105	0.828446
C72	C	1.810690	-0.034772	1.161780
C73	C	1.139137	-0.794083	0.499574
C74	C	1.472470	-0.460749	0.832907
C75	C	1.805804	-0.127416	1.166241
C76	C	1.130220	-0.963706	0.507736
C77	C	1.463553	-0.630372	0.841070
C78	C	1.796887	-0.297039	1.174403
C79	C	1.181166	-1.005249	0.461804
C80	C	1.514499	-0.671916	0.795138
C81	C	1.847833	-0.338583	1.128471
C82	C	1.176204	-1.099633	0.466346
C83	C	1.509538	-0.766300	0.799679
C84	C	1.842871	-0.432967	1.133012
C85	C	1.135180	-0.869313	0.503196
C86	C	1.468514	-0.535980	0.836529
C87	C	1.801847	-0.202646	1.169863
C88	C	1.371899	-0.496479	0.496324
C89	C	1.705232	-0.163145	0.829657
C90	C	2.038565	0.170188	1.162990
C91	C	1.464064	-0.501416	0.501252
C92	C	1.797398	-0.168082	0.834585
C93	C	2.130731	0.165251	1.167918
C94	C	1.144119	-0.495281	0.702152
C95	C	1.477453	-0.161948	1.035485
C96	C	1.810786	0.171386	1.368818
C97	C	1.139219	-0.499708	0.794791
C98	C	1.472552	-0.166374	1.128125
C99	C	1.805886	0.166959	1.461458
C100	C	1.167282	-0.267505	0.474385
C101	C	1.500615	0.065828	0.807718
C102	C	1.833948	0.399162	1.141052
C103	C	1.172251	-0.174867	0.469964
C104	C	1.505585	0.158466	0.803297
C105	C	1.838918	0.491800	1.136631
C106	C	1.167125	-0.474489	0.268213
C107	C	1.500458	-0.141155	0.601546
C108	C	1.833791	0.192178	0.934879
C109	C	1.172198	-0.469836	0.175571
C110	C	1.505532	-0.136502	0.508904
C111	C	1.838865	0.196831	0.842237
C112	C	1.130243	-0.507770	0.964403
C113	C	1.463576	-0.174436	1.297736
C114	C	1.796909	0.158897	1.631069
C115	C	1.181172	-0.461776	1.005965
C116	C	1.514505	-0.128443	1.339298
C117	C	1.847839	0.204890	1.672632
C118	C	1.176177	-0.466262	1.100342
C119	C	1.509511	-0.132929	1.433676
C120	C	1.842844	0.200405	1.767009
C121	C	1.135236	-0.503285	0.870017
C122	C	1.468569	-0.169952	1.203350
C123	C	1.801903	0.163382	1.536683
H124	H	1.228508	-0.969931	0.419069
H125	H	1.561841	-0.636597	0.752402
H126	H	1.895175	-0.303264	1.085736
H127	H	1.082894	-0.550512	0.999698
H128	H	1.416228	-0.217178	1.333031
H129	H	1.749561	0.116155	1.666364
O130	O	0.638519	-0.396692	0.396790
O131	O	0.971853	-0.063358	0.730123
O132	O	1.305186	0.269975	1.063457
H133	H	0.657807	-0.332845	0.408914
H134	H	0.991141	0.000488	0.742248
H135	H	1.324474	0.333822	1.075581
O136	O	0.673535	-0.573184	0.572791
O137	O	1.006868	-0.239850	0.906124
O138	O	1.340201	0.093483	1.239457
H139	H	0.741966	-0.567318	0.566927
H140	H	1.075299	-0.233985	0.900260
H141	H	1.408632	0.099348	1.233594
O142	O	1.067496	-1.010476	0.564327
O143	O	1.400830	-0.677143	0.897660
O144	O	1.734163	-0.343809	1.230993
H145	H	1.073387	-1.078342	0.559042
H146	H	1.406720	-0.745009	0.892376
H147	H	1.740053	-0.411675	1.225709
O148	O	1.243909	-0.405163	0.959221
O149	O	1.577242	-0.071830	1.292555
O150	O	1.910576	0.261504	1.625888
H151	H	1.238045	-0.410488	0.891355
H152	H	1.571379	-0.077155	1.224689
H153	H	1.904712	0.256179	1.558022
