data_functionalizedCrystal
_audit_creation_method	'MofGen! by Chris Wilmer'
_symmetry_space_group_name_H-M	'P1'
_symmetry_Int_Tables_number	1
_symmetry_cell_setting	triclinic
loop_
_symmetry_equiv_pos_as_xyz
  x,y,z
_cell_length_a	11.792254
_cell_length_b	11.792254
_cell_length_c	9.130313
_cell_angle_alpha	89.998555
_cell_angle_beta	89.999802
_cell_angle_gamma	84.198598
loop_
_atom_site_label
_atom_site_type_symbol
_atom_site_fract_x
_atom_site_fract_y
_atom_site_fract_z
O1	O	1.506901	0.155630	-0.121799
O2	O	2.006901	0.655630	0.378201
O3	O	1.176562	0.171648	-0.121802
O4	O	1.676562	0.671648	0.378198
O5	O	1.349740	-0.001530	-0.121790
O6	O	1.849740	0.498470	0.378210
O7	O	1.333723	0.328808	-0.121811
O8	O	1.833723	0.828808	0.378189
O9	O	1.349738	-0.001525	0.121809
O10	O	1.849738	0.498475	0.621809
O11	O	1.176560	0.171653	0.121797
O12	O	1.676560	0.671653	0.621797
O13	O	1.506899	0.155635	0.121800
O14	O	2.006899	0.655635	0.621800
Cu15	Cu	1.341729	0.163644	0.144041
Cu16	Cu	1.841729	0.663644	0.644041
Cu17	Cu	1.341732	0.163639	-0.144043
Cu18	Cu	1.841732	0.663639	0.355957
O19	O	1.333721	0.328813	0.121788
O20	O	1.833721	0.828813	0.621788
C21	C	1.134271	0.170642	-0.000003
C22	C	1.634271	0.670642	0.499997
C23	C	1.008257	0.167621	-0.000004
C24	C	1.508257	0.667621	0.499996
C25	C	1.348730	-0.043818	0.000009
C26	C	1.848730	0.456182	0.500009
C27	C	1.345710	-0.169832	0.000008
C28	C	1.845710	0.330168	0.500008
C29	C	0.905921	0.165168	-0.000010
C30	C	1.405921	0.665168	0.499990
C31	C	0.777534	0.162099	-0.000011
C32	C	1.277534	0.662099	0.499989
C33	C	1.343256	-0.272168	0.000002
C34	C	1.843256	0.227832	0.500002
C35	C	1.340188	-0.400555	-0.000011
C36	C	1.840188	0.099445	0.499989
C37	C	1.549190	0.156642	-0.000002
C38	C	2.049190	0.656642	0.499998
C39	C	1.675204	0.159662	-0.000011
C40	C	2.175204	0.659662	0.499989
C41	C	1.334731	0.371102	-0.000014
C42	C	1.834731	0.871102	0.499986
C43	C	1.337751	0.497115	-0.000022
C44	C	1.837751	0.997115	0.499978
N45	N	1.341736	0.163648	0.346664
N46	N	1.841736	0.663648	0.846664
N47	N	1.341734	0.163627	-0.346666
N48	N	1.841734	0.663627	0.153334
C49	C	1.418439	0.086990	0.423321
C50	C	1.918439	0.586990	0.923321
C51	C	1.418436	0.086977	0.576658
C52	C	1.918436	0.586977	1.076658
C53	C	1.265023	0.240287	0.576666
C54	C	1.765023	0.740287	1.076666
C55	C	1.265021	0.240295	0.423332
C56	C	1.765021	0.740295	0.923332
C57	C	1.507014	-0.001519	0.423317
C58	C	2.007014	0.498481	0.923317
C59	C	1.507011	-0.001533	0.576654
C60	C	2.007011	0.498467	1.076654
H61	H	1.202554	0.302705	0.360919
H62	H	1.702554	0.802705	0.860919
H63	H	1.202563	0.302691	0.639107
H64	H	1.702563	0.802691	1.139107
H65	H	1.487854	-0.088711	0.381702
H66	H	1.987854	0.411289	0.881702
C67	C	1.618244	0.035533	0.359057
C68	C	2.118244	0.535533	0.859057
H69	H	1.667781	0.052023	0.436545
H70	H	2.167781	0.552023	0.936545
H71	H	1.601349	0.101669	0.300495
H72	H	2.101349	0.601669	0.800495
H73	H	1.654237	-0.024249	0.300500
H74	H	2.154237	0.475751	0.800500
H75	H	1.479642	-0.083906	0.624206
H76	H	1.979642	0.416094	1.124206
H77	H	1.594184	0.017696	0.618270
H78	H	2.094184	0.517696	1.118270
