data_functionalizedCrystal
_audit_creation_method	'MofGen! by Chris Wilmer'
_symmetry_space_group_name_H-M	'P1'
_symmetry_Int_Tables_number	1
_symmetry_cell_setting	triclinic
loop_
_symmetry_equiv_pos_as_xyz
  x,y,z
_cell_length_a	19.902436
_cell_length_b	14.560438
_cell_length_c	14.560438
_cell_angle_alpha	59.999125
_cell_angle_beta	90.004756
_cell_angle_gamma	60.006528
loop_
_atom_site_label
_atom_site_type_symbol
_atom_site_fract_x
_atom_site_fract_y
_atom_site_fract_z
Zr1	Zr	-0.088160	1.005310	0.884707
O2	O	-0.195442	1.196897	0.738052
O3	O	-0.055273	0.813709	0.929670
O4	O	-0.195439	1.005293	0.929662
O5	O	0.055291	1.005330	0.738060
O6	O	-0.195438	1.005296	1.080800
O7	O	-0.055275	1.005313	0.738060
O8	O	0.055295	0.662586	1.080815
O9	O	-0.195442	1.348040	0.738045
O10	O	-0.041245	0.892524	1.061632
O11	O	0.041267	0.892535	0.948839
O12	O	-0.123761	1.118102	0.948829
O13	O	-0.041248	1.118113	0.836036
Zr14	Zr	0.088182	1.005342	1.125754
Zr15	Zr	-0.088157	1.005314	1.125755
Zr16	Zr	0.088179	1.005338	0.884706
Zr17	Zr	-0.088161	1.246366	0.884696
Zr18	Zr	0.088182	0.764287	1.125766
O19	O	0.055295	1.196943	1.080791
O20	O	-0.195438	1.196903	1.080791
O21	O	0.055291	1.196938	0.738052
O22	O	0.195464	0.813755	1.272409
O23	O	-0.055269	0.813714	1.272410
O24	O	0.195460	0.813749	0.929670
O25	O	-0.055269	1.005322	1.272401
O26	O	0.195461	1.005359	1.080799
O27	O	0.195459	1.005356	0.929661
O28	O	0.055297	1.005339	1.272401
O29	O	-0.195440	1.348044	0.929646
O30	O	0.195462	0.662609	1.080815
O31	O	0.195464	0.662612	1.272416
O32	O	0.055297	0.662589	1.272416
O33	O	-0.055275	1.348063	0.738045
O34	O	-0.055273	1.348066	0.929646
O35	O	0.123783	0.892551	1.061632
O36	O	0.041270	0.892539	1.174425
O37	O	-0.041245	1.118117	1.061622
O38	O	0.041267	1.118128	0.948829
C39	C	0.000011	0.703802	1.005244
C40	C	0.000011	0.601468	1.005249
C41	C	0.060926	0.373985	1.088488
C42	C	0.060925	0.470127	1.088509
C43	C	-0.060910	0.636666	0.921968
C44	C	-0.060912	0.540525	0.921953
C45	C	0.121849	0.242644	1.171747
C46	C	0.182770	0.207438	1.255030
C47	C	0.182769	0.303580	1.255051
C48	C	0.121847	0.434928	1.171790
C49	C	-0.220563	1.005290	1.005231
C50	C	-0.295424	1.005278	1.005231
C51	C	-0.567472	1.005342	1.005230
C52	C	-0.486930	0.863044	1.076727
C53	C	-0.409027	0.862954	1.076418
C54	C	-0.432506	1.005310	1.005231
C55	C	-0.486627	1.075977	0.882670
C56	C	-0.564189	1.075067	0.883061
C57	C	-0.565326	1.077992	1.055306
C58	C	-0.486449	1.075318	1.057786
C59	C	-0.356231	1.005299	1.005225
C60	C	-0.643749	1.005357	1.005228
C61	C	0.220585	1.005362	1.005230
C62	C	0.295446	1.005374	1.005230
C63	C	0.000007	1.005321	0.703716
C64	C	0.000006	1.005319	0.601385
C65	C	0.000011	1.306850	1.005217
C66	C	0.000011	1.409185	1.005212
C67	C	0.043078	0.887572	0.612188
C68	C	0.043086	0.887578	0.516034
C69	C	-0.043058	1.123089	0.398275
C70	C	-0.043060	1.123081	0.494429
C71	C	0.086144	0.769810	0.719145
C72	C	0.129219	0.652053	0.729953
C73	C	0.129226	0.652060	0.633798
C74	C	0.086159	0.769822	0.526835
C75	C	0.000014	1.005331	1.306745
C76	C	0.000016	1.005333	1.409076
C77	C	0.000015	0.703807	1.306759
C78	C	0.000016	0.601474	1.409095
C79	C	0.220585	0.703838	1.005244
C80	C	0.295446	0.601515	1.005249
C81	C	0.220589	0.703843	1.306759
C82	C	0.295451	0.601522	1.409094
C83	C	-0.220567	1.306809	0.703703
C84	C	-0.295429	1.409130	0.601367
C85	C	0.000007	1.306845	0.703702
C86	C	0.000006	1.409178	0.601366
C87	C	-0.220563	1.306815	1.005217
C88	C	-0.295424	1.409137	1.005212
C89	C	0.373681	0.553471	1.064128
C90	C	0.444028	0.457342	1.064128
C91	C	0.436137	0.409252	1.005255
C92	C	0.357894	0.457305	0.946369
C93	C	0.287549	0.553439	0.946363
C94	C	0.287536	0.553465	1.516039
C95	C	0.357870	0.457337	1.612204
C96	C	0.436118	0.409262	1.601421
C97	C	0.444031	0.457328	1.494465
C98	C	0.373698	0.553461	1.398303
C99	C	-0.287514	1.457199	0.494422
C100	C	-0.357848	1.553356	0.398257
C101	C	-0.436096	1.601437	0.409040
C102	C	-0.444010	1.553365	0.515996
C103	C	-0.373676	1.457215	0.612158
C104	C	-0.287508	1.457197	1.064097
C105	C	-0.357841	1.553327	1.064114
C106	C	-0.436089	1.601402	1.005240
C107	C	-0.444005	1.553332	0.946354
C108	C	-0.373672	1.457198	0.946344
C109	C	-0.043053	0.553387	1.398299
C110	C	-0.043054	0.457242	1.494458
C111	C	0.043089	0.457277	1.612206
C112	C	0.043085	0.553427	1.516048
C113	C	-0.086122	0.601435	1.291346
C114	C	-0.129193	0.553346	1.280545
C115	C	-0.129195	0.457201	1.376704
C116	C	-0.086125	0.409145	1.483664
H117	H	0.121847	0.513207	1.171820
H118	H	0.380154	0.592576	1.311227
F119	F	0.086175	0.769823	0.424500
F120	F	-0.088891	1.248411	0.284439
F121	F	0.175062	0.526730	0.843788
F122	F	-0.349399	1.604474	1.126786
F123	F	-0.510945	1.703768	0.306685
H124	H	-0.507728	1.592524	0.524762
H125	H	0.507730	0.418228	1.112084
F126	F	-0.639529	1.215010	0.987563
F127	F	0.382097	0.604632	1.126797
F128	F	-0.510665	1.211070	0.996790
H129	H	-0.110509	0.743613	0.854181
F130	F	0.511013	0.306935	1.005272
F131	F	-0.484709	0.790030	1.194997
H132	H	0.351482	0.418135	0.898436
H133	H	-0.380130	1.418079	0.699235
H134	H	-0.493352	1.679681	1.005257
H135	H	-0.223807	1.418056	0.485621
H136	H	-0.078117	1.218961	0.485628
F137	F	-0.358024	0.790089	1.030954
F138	F	-0.125748	0.577987	0.833325
F139	F	0.204288	0.604555	0.883698
H140	H	0.232367	0.100492	1.322822
H141	H	-0.369631	0.807510	1.166668
F142	F	0.086136	0.769794	0.821486
F143	F	0.204265	0.604620	1.527540
F144	F	-0.086119	0.703753	1.189000
H145	H	-0.507724	1.592490	0.898421
H146	H	-0.380130	1.418078	0.898388
F147	F	-0.485948	0.790401	1.031749
F148	F	-0.175036	0.604502	1.166713
H149	H	0.493382	0.330984	1.679732
H150	H	-0.164273	0.418059	1.367905
H151	H	-0.563995	1.024846	0.842972
H152	H	-0.086133	0.330862	1.561959
F153	F	0.175078	0.526736	0.645303
F154	F	0.349431	0.406195	1.726023
H155	H	0.507750	0.418170	1.485702
H156	H	-0.223800	1.418069	1.112039
H157	H	0.078156	0.418140	1.699298
F158	F	0.088921	0.604612	1.527537
F159	F	-0.349409	1.604498	0.284438
F160	F	-0.638741	1.211526	0.809648
H161	H	-0.506392	1.180646	0.827085
H162	H	0.232369	0.274909	1.322869
H163	H	-0.449173	1.026897	0.842296
F164	F	-0.569230	1.018470	1.171490
F165	F	-0.437663	1.007971	1.175808
F166	F	0.121858	0.140315	1.171728
