data_functionalizedCrystal
_audit_creation_method	'MofGen! by Chris Wilmer'
_symmetry_space_group_name_H-M	'P1'
_symmetry_Int_Tables_number	1
_symmetry_cell_setting	triclinic
loop_
_symmetry_equiv_pos_as_xyz
  x,y,z
_cell_length_a	14.971507
_cell_length_b	14.853559
_cell_length_c	13.930277
_cell_angle_alpha	89.999495
_cell_angle_beta	89.994086
_cell_angle_gamma	96.372942
loop_
_atom_site_label
_atom_site_type_symbol
_atom_site_fract_x
_atom_site_fract_y
_atom_site_fract_z
O1	O	-1.186952	0.117572	0.079851
O2	O	-0.686952	0.617572	0.579851
O3	O	-0.926556	0.131621	0.079847
O4	O	-0.426556	0.631621	0.579847
O5	O	-1.063714	-0.006635	0.079848
O6	O	-0.563714	0.493365	0.579848
O7	O	-1.049794	0.255828	0.079850
O8	O	-0.549794	0.755828	0.579850
O9	O	-1.063700	-0.006631	-0.079814
O10	O	-0.563700	0.493369	0.420186
O11	O	-0.926543	0.131625	-0.079815
O12	O	-0.426543	0.631625	0.420185
O13	O	-1.186938	0.117576	-0.079811
O14	O	-0.686938	0.617576	0.420189
Zn15	Zn	-1.056738	0.124601	-0.105163
Zn16	Zn	-0.556738	0.624601	0.394837
Zn17	Zn	-1.056756	0.124596	0.105198
Zn18	Zn	-0.556756	0.624596	0.605198
O19	O	-1.049781	0.255831	-0.079812
O20	O	-0.549781	0.755831	0.420188
C21	C	-0.893225	0.130992	0.000015
C22	C	-0.393225	0.630992	0.500015
C23	C	-0.793929	0.129099	0.000014
C24	C	-0.293929	0.629099	0.500014
C25	C	-0.355657	0.203097	0.000018
C26	C	0.144343	0.703097	0.500018
C27	C	-0.448958	0.204869	0.000023
C28	C	0.051042	0.704869	0.500023
C29	C	-0.506165	0.123638	0.000019
C30	C	-0.006165	0.623638	0.500019
C31	C	-0.470068	0.040630	0.000019
C32	C	0.029932	0.540630	0.500019
C33	C	-0.376770	0.038860	0.000021
C34	C	0.123230	0.538860	0.500021
C35	C	-0.664532	0.044327	0.000014
C36	C	-0.164532	0.544327	0.500014
C37	C	-0.757837	0.046097	0.000011
C38	C	-0.257837	0.546097	0.500011
C39	C	-0.736720	0.210336	0.000017
C40	C	-0.236720	0.710336	0.500017
C41	C	-0.643421	0.208565	0.000018
C42	C	-0.143421	0.708565	0.500018
C43	C	-0.607331	0.125557	0.000017
C44	C	-0.107331	0.625557	0.500017
C45	C	-1.063077	-0.040221	0.000019
C46	C	-0.563077	0.459779	0.500019
C47	C	-1.061192	-0.140305	0.000024
C48	C	-0.561192	0.359695	0.500024
C49	C	-1.053199	-0.563482	0.087056
C50	C	-0.553199	-0.063482	0.587056
C51	C	-1.053184	-0.563472	-0.087014
C52	C	-0.553184	-0.063472	0.412986
C53	C	-1.054963	-0.469439	-0.087015
C54	C	-0.554963	0.030561	0.412985
C55	C	-1.055859	-0.422423	0.000021
C56	C	-0.555859	0.077577	0.500021
C57	C	-1.054975	-0.469439	0.087058
C58	C	-0.554975	0.030561	0.587058
C59	C	-1.055838	-0.422414	-0.174049
C60	C	-0.555838	0.077586	0.325951
C61	C	-1.057616	-0.328375	-0.174054
C62	C	-0.557616	0.171625	0.325946
C63	C	-1.058518	-0.281358	-0.087017
C64	C	-0.558518	0.218642	0.412983
C65	C	-1.057636	-0.328380	0.000023
C66	C	-0.557636	0.171620	0.500023
C67	C	-1.058531	-0.281364	0.087059
C68	C	-0.558531	0.218636	0.587059
C69	C	-1.057655	-0.328386	0.174100
C70	C	-0.557655	0.171614	0.674100
C71	C	-1.055878	-0.422422	0.174094
C72	C	-0.555878	0.077578	0.674094
C73	C	-1.060296	-0.187321	-0.087012
C74	C	-0.560296	0.312679	0.412988
C75	C	-1.060308	-0.187322	0.087061
C76	C	-0.560308	0.312678	0.587061
C77	C	-0.220270	0.118205	0.000019
C78	C	0.279730	0.618205	0.500019
C79	C	-0.319566	0.120096	0.000015
C80	C	0.180434	0.620096	0.500015
C81	C	-1.050417	0.289418	0.000019
C82	C	-0.550417	0.789418	0.500019
C83	C	-1.052303	0.389502	0.000020
C84	C	-0.552303	0.889502	0.500020
N85	N	-1.056733	0.124604	-0.248729
N86	N	-0.556733	0.624604	0.251271
C87	C	-0.995991	0.185805	-0.298993
C88	C	-0.495991	0.685805	0.201007
C89	C	-1.117480	0.063399	-0.298970
C90	C	-0.617480	0.563399	0.201030
C91	C	-1.117489	0.063396	-0.399466
C92	C	-0.617489	0.563396	0.100534
C93	C	-1.056748	0.124597	-0.449730
C94	C	-0.556748	0.624597	0.050270
C95	C	-0.995997	0.185801	-0.399498
C96	C	-0.495997	0.685801	0.100502
C97	C	-1.178233	0.002186	-0.449705
C98	C	-0.678233	0.502186	0.050295
C99	C	-1.178244	0.002179	-0.550207
C100	C	-0.678244	0.502179	-0.050207
C101	C	-1.117506	0.063385	-0.600473
C102	C	-0.617506	0.563385	-0.100473
C103	C	-1.056754	0.124593	-0.550235
C104	C	-0.556754	0.624593	-0.050235
C105	C	-0.996012	0.185794	-0.600498
C106	C	-0.496012	0.685794	-0.100498
C107	C	-0.935263	0.247007	-0.550262
C108	C	-0.435263	0.747007	-0.050262
C109	C	-0.935259	0.247007	-0.449763
C110	C	-0.435259	0.747007	0.050237
C111	C	-1.117510	0.063385	-0.700972
C112	C	-0.617510	0.563385	-0.200972
C113	C	-0.996018	0.185790	-0.701004
C114	C	-0.496018	0.685790	-0.201004
N115	N	-1.056769	0.124586	0.248765
N116	N	-0.556769	0.624586	0.748765
H117	H	-0.804414	-0.020048	0.000016
H118	H	-0.304414	0.479952	0.500016
Cl119	Cl	-0.541987	-0.061489	0.000017
Cl120	Cl	-0.041987	0.438511	0.500017
H121	H	-1.052489	-0.601771	0.157922
H122	H	-0.552489	-0.101771	0.657922
H123	H	-0.596845	0.274711	0.000015
H124	H	-0.096845	0.774711	0.500015
H125	H	-0.309084	0.269245	0.000014
H126	H	0.190916	0.769245	0.500014
H127	H	-1.052449	-0.601757	-0.157874
H128	H	-0.552449	-0.101757	0.342126
H129	H	-0.478338	0.272457	0.000034
H130	H	0.021662	0.772457	0.500034
H131	H	-0.635151	-0.023267	0.000018
H132	H	-0.135151	0.476733	0.500018
H133	H	-0.946558	0.235631	-0.741922
H134	H	-0.446558	0.735631	-0.241922
Cl135	Cl	-1.193832	-0.013542	-0.235784
Cl136	Cl	-0.693832	0.486458	0.264216
H137	H	-1.055103	-0.460701	-0.244909
H138	H	-0.555103	0.039299	0.255091
Cl139	Cl	-1.061441	-0.128224	0.196484
Cl140	Cl	-0.561441	0.371776	0.696484
Cl141	Cl	-1.054780	-0.481541	0.283507
Cl142	Cl	-0.554780	0.018459	0.783507
Cl143	Cl	-1.193869	-0.013568	-0.764119
Cl144	Cl	-0.693869	0.486432	-0.264119
H145	H	-1.227683	-0.047646	-0.408777
H146	H	-0.727683	0.452354	0.091223
Cl147	Cl	-1.058714	-0.269270	-0.283474
Cl148	Cl	-0.558714	0.230730	0.216526
H149	H	-0.885798	0.296844	-0.408855
H150	H	-0.385798	0.796844	0.091145
Cl151	Cl	-1.061395	-0.128212	-0.196425
Cl152	Cl	-0.561395	0.371788	0.303575
Cl153	Cl	-0.858899	0.323937	-0.613462
Cl154	Cl	-0.358899	0.823937	-0.113462
Cl155	Cl	-0.331398	-0.065489	0.000017
Cl156	Cl	0.168602	0.434511	0.500017
Cl157	Cl	-1.058785	-0.269269	0.283511
Cl158	Cl	-0.558785	0.230731	0.783511
H159	H	-0.766109	0.277924	0.000017
H160	H	-0.266109	0.777924	0.500017
H161	H	-0.946532	0.235646	-0.258088
H162	H	-0.446532	0.735646	0.241912
Cl163	Cl	-1.254615	-0.074768	-0.613355
Cl164	Cl	-0.754615	0.425232	-0.113355
