data_functionalizedCrystal
_audit_creation_method	'MofGen! by Chris Wilmer'
_symmetry_space_group_name_H-M	'P1'
_symmetry_Int_Tables_number	1
_symmetry_cell_setting	triclinic
loop_
_symmetry_equiv_pos_as_xyz
  x,y,z
_cell_length_a	14.853567
_cell_length_b	19.188924
_cell_length_c	13.330367
_cell_angle_alpha	89.993282
_cell_angle_beta	89.995418
_cell_angle_gamma	83.388448
loop_
_atom_site_label
_atom_site_type_symbol
_atom_site_fract_x
_atom_site_fract_y
_atom_site_fract_z
O1	O	1.195859	0.091155	-0.083359
O2	O	0.933339	0.102014	-0.083377
O3	O	1.072178	-0.005046	-0.083356
O4	O	1.057020	0.198216	-0.083380
O5	O	1.072158	-0.005048	0.083492
O6	O	0.933319	0.102012	0.083470
O7	O	1.195839	0.091153	0.083488
Cu8	Cu	1.064577	0.096582	0.098714
Cu9	Cu	1.064601	0.096585	-0.098602
O10	O	1.057000	0.198213	0.083467
C11	C	0.899743	0.101521	0.000045
C12	C	0.799667	0.100047	0.000038
C13	C	0.387524	0.030218	0.000069
C14	C	0.365532	0.157408	0.000053
C15	C	0.459558	0.158794	0.000049
C16	C	0.517571	0.095891	0.000054
C17	C	0.481559	0.031602	0.000063
C18	C	0.495577	0.223082	0.000031
C19	C	0.589609	0.224471	0.000026
C20	C	0.647624	0.161567	0.000039
C21	C	0.611606	0.097276	0.000048
C22	C	0.669620	0.034373	0.000053
C23	C	0.633604	-0.029919	0.000070
C24	C	0.539575	-0.031301	0.000075
C25	C	0.741654	0.162949	0.000033
C26	C	0.763655	0.035758	0.000047
C27	C	1.071678	-0.031060	0.000069
C28	C	1.070208	-0.108570	0.000071
C29	C	1.069532	-0.144969	-0.090877
C30	C	1.068138	-0.217797	-0.090885
C31	C	1.067437	-0.254223	0.000061
C32	C	1.068107	-0.217814	0.091022
C33	C	1.069493	-0.144987	0.091027
N34	N	1.116557	-0.373724	0.067754
N35	N	1.115243	-0.442906	0.067743
C36	C	1.063261	-0.473646	0.000051
N37	N	1.012654	-0.432591	-0.067644
N38	N	1.013973	-0.363403	-0.067636
C39	C	1.065934	-0.333192	0.000066
C40	C	1.061073	-0.589014	-0.090912
C41	C	1.059672	-0.661842	-0.090916
C42	C	1.059651	-0.661859	0.090993
C43	C	1.061042	-0.589031	0.090995
C44	C	1.061757	-0.552613	0.000039
C45	C	1.229435	0.091646	0.000064
C46	C	1.329510	0.093121	0.000064
C47	C	1.057500	0.224227	0.000040
C48	C	1.058970	0.301737	0.000031
N49	N	1.064567	0.096580	0.237495
N50	N	1.064618	0.096582	-0.237384
C51	C	1.003120	0.143973	0.710109
C52	C	1.126106	0.049192	0.710095
C53	C	1.126095	0.049190	0.605077
C54	C	1.064598	0.096580	0.552570
C55	C	1.003110	0.143973	0.605081
C56	C	1.187588	0.001803	0.552558
C57	C	1.187581	0.001799	0.447534
C58	C	1.126078	0.049187	0.395024
C59	C	1.064587	0.096581	0.447542
C60	C	1.003090	0.143972	0.395034
C61	C	0.941594	0.191363	0.447550
C62	C	0.941607	0.191361	0.552571
C63	C	1.126065	0.049189	0.290003
C64	C	1.003079	0.143973	0.290006
H65	H	0.618924	0.276822	0.000013
H66	H	1.059073	-0.691516	0.165044
N67	N	1.192364	-0.001935	0.233364
H68	H	1.183020	0.005249	0.158865
H69	H	1.256292	0.006211	0.251692
N70	N	0.432998	0.290917	-0.000007
H71	H	0.444555	0.318946	-0.061877
H72	H	0.367998	0.280213	0.000031
H73	H	0.770974	0.215295	0.000021
H74	H	1.067534	-0.247477	0.165071
N75	N	0.875284	0.242472	0.609211
H76	H	0.884627	0.235281	0.683709
H77	H	0.885495	0.292019	0.590842
H78	H	1.070112	-0.115322	-0.164940
H79	H	0.953049	0.182556	0.752869
N80	N	1.070236	-0.105721	0.189123
H81	H	1.014940	-0.069896	0.193177
H82	H	1.069613	-0.139891	0.246683
N83	N	1.067403	-0.257068	-0.188983
H84	H	1.068063	-0.222946	-0.246600
H85	H	1.122704	-0.292892	-0.192936
N86	N	1.192440	-0.001914	0.766722
H87	H	1.183118	0.005278	0.841222
H88	H	1.182225	-0.051462	0.748381
H89	H	1.061599	-0.559395	0.165055
H90	H	1.061650	-0.559360	-0.164973
N91	N	1.253921	-0.049303	0.609187
H92	H	1.244593	-0.042113	0.683686
H93	H	1.243712	-0.098850	0.590841
H94	H	1.237653	-0.036790	0.404782
N95	N	0.875270	0.242480	0.390913
H96	H	0.884602	0.235288	0.316415
H97	H	0.811350	0.234322	0.409275
H98	H	0.680851	-0.081134	0.000067
N99	N	0.826222	-0.032090	0.000045
H100	H	0.891255	-0.021460	0.000036
H101	H	0.814590	-0.060102	0.061904
N102	N	0.500719	-0.100635	0.000095
H103	H	0.462198	-0.104042	-0.061753
H104	H	0.551781	-0.140238	0.000141
H105	H	1.059118	-0.691477	-0.164980
H106	H	0.358196	-0.022127	0.000087
N107	N	0.936745	0.195091	0.233385
H108	H	0.971062	0.226058	0.189802
H109	H	0.896950	0.168304	0.189880
N110	N	0.302966	0.225250	0.000037
H111	H	0.237934	0.214618	0.000039
H112	H	0.314594	0.253262	0.061886
