data_functionalizedCrystal
_audit_creation_method	'MofGen! by Chris Wilmer'
_symmetry_space_group_name_H-M	'P1'
_symmetry_Int_Tables_number	1
_symmetry_cell_setting	triclinic
loop_
_symmetry_equiv_pos_as_xyz
  x,y,z
_cell_length_a	15.944551
_cell_length_b	16.109301
_cell_length_c	14.586319
_cell_angle_alpha	90.000787
_cell_angle_beta	89.995256
_cell_angle_gamma	96.519891
loop_
_atom_site_label
_atom_site_type_symbol
_atom_site_fract_x
_atom_site_fract_y
_atom_site_fract_z
O1	O	0.107966	-1.103166	-0.076184
O2	O	0.121403	-0.861108	-0.076199
O3	O	-0.007593	-0.988747	-0.076183
O4	O	0.236961	-0.975527	-0.076200
O5	O	-0.007595	-0.988738	0.076298
O6	O	0.121401	-0.861099	0.076282
O7	O	0.107964	-1.103157	0.076296
Cu8	Cu	0.114682	-0.982127	0.090212
Cu9	Cu	0.114685	-0.982138	-0.090114
O10	O	0.236960	-0.975518	0.076280
C11	C	0.120857	-0.830129	0.000039
C12	C	0.119226	-0.737833	0.000034
C13	C	-0.038887	-0.988194	0.000057
C14	C	-0.132133	-0.986548	0.000058
C15	C	0.108510	-1.134136	0.000056
C16	C	0.110141	-1.226432	0.000055
C17	C	-0.346962	-0.903499	0.000040
C18	C	-0.407993	-0.942060	0.075225
C19	C	-0.302858	-0.983572	0.000051
C20	C	-0.407975	-0.942088	-0.075109
C21	C	-0.467769	-0.980691	0.000040
C22	C	-0.362660	-1.022155	0.075297
C23	C	-0.362636	-1.022171	-0.075104
C24	C	-0.423649	-1.060790	0.000099
C25	C	-0.207856	-0.985229	0.000058
C26	C	-0.562770	-0.979039	0.000039
C27	C	0.268254	-0.976071	0.000038
C28	C	0.361500	-0.977717	0.000031
N29	N	0.114680	-0.982126	0.217044
C30	C	0.191975	-0.515584	0.000040
C31	C	0.190435	-0.428863	0.000046
C32	C	0.037387	-0.448688	0.000053
C33	C	0.038927	-0.535407	0.000053
C34	C	0.116224	-0.568853	0.000042
C35	C	0.113143	-0.395412	0.000047
C36	C	0.111473	-0.301386	0.000054
C37	C	0.117894	-0.662885	0.000037
N38	N	0.114680	-0.982146	-0.216946
C39	C	0.057580	-1.038663	0.452057
C40	C	0.057578	-1.038666	0.548038
C41	C	0.171783	-0.925602	0.548034
C42	C	0.171780	-0.925597	0.452054
C43	C	0.114680	-0.982132	0.404068
C44	C	0.114680	-0.982140	0.596029
C45	C	0.114679	-0.982142	0.700096
C46	C	0.114680	-0.982129	0.299995
H47	H	-0.313632	-0.837035	0.000111
C48	C	0.233823	-0.864351	0.399829
C49	C	0.285236	-0.908638	0.344699
C50	C	0.342388	-0.852248	0.296568
H51	H	0.267915	-0.830663	0.442048
H52	H	0.203618	-0.829752	0.362341
H53	H	0.315439	-0.943222	0.382183
H54	H	0.251167	-0.942322	0.302462
H55	H	0.312183	-0.817649	0.259080
H56	H	0.376474	-0.818563	0.338793
H57	H	0.377273	-0.882288	0.259150
C58	C	0.233913	-0.864267	0.600014
C59	C	0.316458	-0.877734	0.576635
C60	C	0.373716	-0.821238	0.624489
H61	H	0.225859	-0.872304	0.664064
H62	H	0.224822	-0.808764	0.584269
H63	H	0.325545	-0.933222	0.592387
H64	H	0.324539	-0.869690	0.512594
H65	H	0.364626	-0.765736	0.608744
H66	H	0.365654	-0.829281	0.688536
H67	H	0.429729	-0.830363	0.608626
C68	C	-0.434579	-0.896931	-0.159943
C69	C	-0.363117	-0.869702	-0.212302
C70	C	-0.387589	-0.828106	-0.290458
H71	H	-0.461999	-0.850154	-0.141995
H72	H	-0.472228	-0.933971	-0.195403
H73	H	-0.325482	-0.832664	-0.176849
H74	H	-0.335688	-0.916462	-0.230273
H75	H	-0.425238	-0.865146	-0.325918
H76	H	-0.415009	-0.781333	-0.272502
H77	H	-0.339107	-0.809633	-0.325997
H78	H	-0.428091	-0.908189	0.138783
C79	C	-0.043349	-0.593208	-0.000135
C80	C	-0.089879	-0.578114	-0.078593
C81	C	-0.165666	-0.631351	-0.078800
H82	H	-0.075147	-0.583118	0.052977
H83	H	-0.031395	-0.649657	-0.000183
H84	H	-0.101835	-0.521678	-0.078537
H85	H	-0.058107	-0.588210	-0.131718
H86	H	-0.153712	-0.687800	-0.078848
H87	H	-0.197456	-0.621257	-0.025685
H88	H	-0.197243	-0.621123	-0.132037
H89	H	-0.342682	-1.055990	0.138930
C90	C	-0.004512	-1.100073	0.400123
C91	C	-0.054533	-1.149565	0.462698
C92	C	-0.111753	-1.206137	0.414893
H93	H	0.025612	-1.134761	0.362671
H94	H	-0.039534	-1.070182	0.362709
H95	H	-0.019517	-1.179453	0.500096
H96	H	-0.084676	-1.114900	0.500152
H97	H	-0.146774	-1.176246	0.377479
H98	H	-0.081622	-1.240819	0.377442
H99	H	-0.145704	-1.239718	0.457343
H100	H	-0.456830	-1.127313	0.000145
C101	C	0.272771	-0.371167	-0.000007
C102	C	0.340789	-0.419022	-0.000039
C103	C	0.416652	-0.365902	-0.000099
H104	H	0.275472	-0.336908	0.053153
H105	H	0.275398	-0.336937	-0.053201
H106	H	0.338163	-0.453238	0.053149
H107	H	0.338115	-0.453280	-0.053195
H108	H	0.419280	-0.331671	-0.053293
H109	H	0.419345	-0.331645	0.053062
H110	H	0.462811	-0.398363	-0.000129
C111	C	-0.335635	-1.067306	-0.159773
C112	C	-0.248034	-1.068910	-0.158172
C113	C	-0.223129	-1.110483	-0.236155
H114	H	-0.350886	-1.038842	-0.213210
H115	H	-0.362905	-1.122895	-0.160312
H116	H	-0.220773	-1.013332	-0.157642
H117	H	-0.232761	-1.097380	-0.104753
H118	H	-0.250399	-1.166072	-0.236694
H119	H	-0.238385	-1.082015	-0.289586
H120	H	-0.163691	-1.111584	-0.235075
C121	C	0.275808	-0.552059	-0.000013
C122	C	0.260949	-0.639405	-0.000039
C123	C	0.338158	-0.673031	-0.000098
H124	H	0.307060	-0.533866	0.053145
H125	H	0.307007	-0.533819	-0.053209
H126	H	0.229763	-0.657637	0.053152
H127	H	0.229710	-0.657621	-0.053193
H128	H	0.369357	-0.654792	-0.053294
H129	H	0.369404	-0.654833	0.053061
H130	H	0.328086	-0.732299	-0.000124
C131	C	-0.046447	-0.412212	0.000009
C132	C	-0.031585	-0.324865	-0.000019
C133	C	-0.108793	-0.291238	-0.000074
H134	H	-0.077704	-0.430403	0.053169
H135	H	-0.077640	-0.430452	-0.053185
H136	H	-0.000404	-0.306633	0.053170
H137	H	-0.000340	-0.306652	-0.053175
H138	H	-0.139987	-0.309478	-0.053268
H139	H	-0.140045	-0.309434	0.053087
H140	H	-0.098720	-0.231970	-0.000101
C141	C	-0.004377	-1.099952	0.600306
C142	C	0.007826	-1.087844	0.694632
C143	C	-0.049243	-1.144280	0.742809
H144	H	0.004707	-1.155474	0.584683
H145	H	-0.060458	-1.090915	0.584634
H146	H	0.063893	-1.096888	0.710298
H147	H	-0.001265	-1.032335	0.710283
H148	H	-0.105324	-1.135243	0.727137
H149	H	-0.040154	-1.199798	0.727179
H150	H	-0.040977	-1.136068	0.806814
