data_functionalizedCrystal
_audit_creation_method	'MofGen! by Chris Wilmer'
_symmetry_space_group_name_H-M	'P1'
_symmetry_Int_Tables_number	1
_symmetry_cell_setting	triclinic
loop_
_symmetry_equiv_pos_as_xyz
  x,y,z
_cell_length_a	13.897448
_cell_length_b	13.897449
_cell_length_c	17.077396
_cell_angle_alpha	90.020566
_cell_angle_beta	89.972632
_cell_angle_gamma	89.982475
loop_
_atom_site_label
_atom_site_type_symbol
_atom_site_fract_x
_atom_site_fract_y
_atom_site_fract_z
Zn1	Zn	-0.384019	-1.474681	-0.443871
Zn2	Zn	-0.050686	-1.141347	-0.110538
Zn3	Zn	0.282647	-0.808014	0.222796
Zn4	Zn	-0.545332	-1.474581	-0.312608
Zn5	Zn	-0.211998	-1.141248	0.020726
Zn6	Zn	0.121335	-0.807915	0.354059
Zn7	Zn	-0.384052	-1.313376	-0.312617
Zn8	Zn	-0.050719	-0.980043	0.020717
Zn9	Zn	0.282615	-0.646710	0.354050
Zn10	Zn	-0.545273	-1.313352	-0.443829
Zn11	Zn	-0.211940	-0.980018	-0.110495
Zn12	Zn	0.121393	-0.646685	0.222838
O13	O	-0.464669	-1.393998	-0.378231
O14	O	-0.131336	-1.060664	-0.044898
O15	O	0.201998	-0.727331	0.288436
O16	O	-0.405428	-1.609649	-0.426473
O17	O	-0.072095	-1.276316	-0.093139
O18	O	0.261238	-0.942983	0.240194
O19	O	-0.523976	-1.453166	-0.202762
O20	O	-0.190642	-1.119832	0.130571
O21	O	0.142691	-0.786499	0.463905
O22	O	-0.249066	-1.334826	-0.330049
O23	O	0.084267	-1.001492	0.003284
O24	O	0.417601	-0.668159	0.336617
O25	O	-0.523944	-1.609576	-0.330034
O26	O	-0.190611	-1.276243	0.003299
O27	O	0.142723	-0.942909	0.336633
O28	O	-0.249042	-1.453335	-0.426481
O29	O	0.084291	-1.120002	-0.093148
O30	O	0.417625	-0.786669	0.240185
O31	O	-0.405484	-1.334729	-0.202768
O32	O	-0.072151	-1.001396	0.130565
O33	O	0.261182	-0.668063	0.463898
O34	O	-0.405428	-1.178391	-0.330008
O35	O	-0.072094	-0.845058	0.003325
O36	O	0.261239	-0.511725	0.336658
O37	O	-0.523845	-1.334784	-0.553681
O38	O	-0.190511	-1.001450	-0.220348
O39	O	0.142822	-0.668117	0.112985
O40	O	-0.523876	-1.178373	-0.426409
O41	O	-0.190543	-0.845040	-0.093076
O42	O	0.142790	-0.511707	0.240257
O43	O	-0.405372	-1.453311	-0.553712
O44	O	-0.072038	-1.119978	-0.220379
O45	O	0.261295	-0.786645	0.112954
O46	O	-0.680306	-1.453142	-0.329993
O47	O	-0.346972	-1.119808	0.003340
O48	O	-0.013639	-0.786475	0.336674
O49	O	-0.680263	-1.334687	-0.426401
O50	O	-0.346929	-1.001354	-0.093067
O51	O	-0.013596	-0.668020	0.240266
C52	C	-0.464650	-1.143383	-0.378206
C53	C	-0.131317	-0.810050	-0.044872
C54	C	0.202017	-0.476717	0.288461
C55	C	-0.464665	-1.036169	-0.378213
C56	C	-0.131332	-0.702836	-0.044880
C57	C	0.202002	-0.369503	0.288453
C58	C	-0.464663	-0.839874	-0.378228
C59	C	-0.131330	-0.506541	-0.044895
C60	C	0.202003	-0.173207	0.288439
C61	C	-0.464661	-0.949107	-0.378218
C62	C	-0.131328	-0.615773	-0.044884
C63	C	0.202005	-0.282440	0.288449
C64	C	-0.715283	-1.393927	-0.378208
C65	C	-0.381950	-1.060594	-0.044875
C66	C	-0.048617	-0.727260	0.288458
C67	C	-0.822497	-1.393985	-0.378225
C68	C	-0.489164	-1.060652	-0.044892
C69	C	-0.155831	-0.727319	0.288442
C70	C	-1.018792	-1.394087	-0.378274
C71	C	-0.685459	-1.060753	-0.044941
C72	C	-0.352126	-0.727420	0.288393
C73	C	-0.909560	-1.394028	-0.378249
C74	C	-0.576227	-1.060694	-0.044916
C75	C	-0.242893	-0.727361	0.288418
C76	C	-0.213076	-1.394094	-0.378271
C77	C	0.120257	-1.060761	-0.044938
C78	C	0.453591	-0.727428	0.288396
C79	C	-0.105862	-1.394136	-0.378288
C80	C	0.227471	-1.060802	-0.044955
C81	C	0.560805	-0.727469	0.288379
C82	C	-0.464598	-1.394056	-0.582975
C83	C	-0.131265	-1.060723	-0.249642
C84	C	0.202069	-0.727389	0.083691
C85	C	-0.464568	-1.394081	-0.670225
C86	C	-0.131234	-1.060747	-0.336892
C87	C	0.202099	-0.727414	-0.003559
C88	C	-0.464683	-0.645590	-0.378249
C89	C	-0.131349	-0.312257	-0.044916
C90	C	0.201984	0.021076	0.288417
C91	C	-0.464672	-0.752804	-0.378238
C92	C	-0.131339	-0.419471	-0.044905
C93	C	0.201994	-0.086138	0.288429
C94	C	-0.402874	-1.455800	-0.711233
C95	C	-0.069540	-1.122467	-0.377900
C96	C	0.263793	-0.789134	-0.044566
C97	C	-0.402842	-1.455812	-0.793213
C98	C	-0.069508	-1.122479	-0.459880
C99	C	0.263825	-0.789145	-0.126547
C100	C	-0.464509	-1.394108	-0.834185
C101	C	-0.131176	-1.060775	-0.500851
C102	C	0.202158	-0.727441	-0.167518
C103	C	-0.526206	-1.332382	-0.793171
C104	C	-0.192872	-0.999048	-0.459838
C105	C	0.140461	-0.665715	-0.126505
C106	C	-0.526232	-1.332366	-0.711192
C107	C	-0.192899	-0.999033	-0.377859
C108	C	0.140434	-0.665699	-0.044526
C109	C	-0.526148	-1.332420	-0.964042
C110	C	-0.192814	-0.999087	-0.630708
C111	C	0.140519	-0.665754	-0.297375
C112	C	-0.526123	-1.332437	-1.046026
C113	C	-0.192789	-0.999104	-0.712693
C114	C	0.140544	-0.665771	-0.379360
C115	C	-0.402757	-1.455867	-1.046063
C116	C	-0.069424	-1.122533	-0.712729
C117	C	0.263910	-0.789200	-0.379396
C118	C	-0.402784	-1.455851	-0.964084
C119	C	-0.069450	-1.122518	-0.630750
C120	C	0.263883	-0.789184	-0.297417
C121	C	-0.464482	-1.394125	-0.923076
C122	C	-0.131149	-1.060792	-0.589742
C123	C	0.202185	-0.727459	-0.256409
C124	C	-0.464670	-1.393995	-0.174283
C125	C	-0.131337	-1.060662	0.159050
C126	C	0.201996	-0.727328	0.492383
C127	C	-0.464429	-1.394157	-0.087034
C128	C	-0.131095	-1.060824	0.246299
C129	C	0.202238	-0.727490	0.579633
H130	H	-0.352607	-1.506073	-0.826598
H131	H	-0.019273	-1.172739	-0.493265
H132	H	0.314060	-0.839406	-0.159931
H133	H	-0.352574	-1.506101	-0.930727
H134	H	-0.019241	-1.172768	-0.597393
H135	H	0.314093	-0.839434	-0.264060
O136	O	-0.336206	-1.522435	-1.090293
O137	O	-0.002873	-1.189101	-0.756959
O138	O	0.330461	-0.855768	-0.423626
H139	H	-0.352771	-1.598131	-1.074577
H140	H	-0.019437	-1.264797	-0.741243
H141	H	0.313896	-0.931464	-0.407910
O142	O	-0.592624	-1.265878	-1.090222
O143	O	-0.259290	-0.932545	-0.756889
O144	O	0.074043	-0.599212	-0.423555
H145	H	-0.635519	-1.222942	-1.047936
H146	H	-0.302186	-0.889609	-0.714603
H147	H	0.031148	-0.556275	-0.381269
H148	H	-0.576460	-1.282098	-0.677805
H149	H	-0.243127	-0.948764	-0.344472
H150	H	0.090207	-0.615431	-0.011138
O151	O	-0.592685	-1.265841	-0.919807
O152	O	-0.259352	-0.932507	-0.586474
O153	O	0.073981	-0.599174	-0.253140
H154	H	-0.635568	-1.222941	-0.962068
H155	H	-0.302234	-0.889607	-0.628734
H156	H	0.031099	-0.556274	-0.295401
H157	H	-0.352660	-1.506050	-0.677880
H158	H	-0.019327	-1.172717	-0.344547
H159	H	0.314007	-0.839383	-0.011213
O160	O	-0.592712	-1.265819	-0.837358
O161	O	-0.259379	-0.932486	-0.504025
O162	O	0.073955	-0.599153	-0.170692
H163	H	-0.641788	-1.308975	-0.874703
H164	H	-0.308454	-0.975642	-0.541370
H165	H	0.024879	-0.642308	-0.208036
