data_functionalizedCrystal
_audit_creation_method	'MofGen! by Chris Wilmer'
_symmetry_space_group_name_H-M	'P1'
_symmetry_Int_Tables_number	1
_symmetry_cell_setting	triclinic
loop_
_symmetry_equiv_pos_as_xyz
  x,y,z
_cell_length_a	21.606444
_cell_length_b	18.426585
_cell_length_c	21.606444
_cell_angle_alpha	89.998723
_cell_angle_beta	59.990220
_cell_angle_gamma	60.004303
loop_
_atom_site_label
_atom_site_type_symbol
_atom_site_fract_x
_atom_site_fract_y
_atom_site_fract_z
Zr1	Zr	0.677537	0.699116	-0.081351
O2	O	0.806665	0.583241	-0.180195
O3	O	0.548407	0.734637	-0.051034
O4	O	0.677541	0.734639	-0.180177
O5	O	0.677530	0.583238	0.050801
O6	O	0.677545	0.854065	-0.180180
O7	O	0.677532	0.583239	-0.051053
O8	O	0.446549	0.854061	0.050833
O9	O	0.908526	0.583242	-0.180213
O10	O	0.601524	0.838913	-0.038125
O11	O	0.601519	0.749787	0.037889
O12	O	0.753557	0.749789	-0.114160
O13	O	0.753552	0.660662	-0.038146
Zr14	Zr	0.677540	0.889585	0.081089
Zr15	Zr	0.677544	0.889586	-0.081355
Zr16	Zr	0.677533	0.699115	0.081093
Zr17	Zr	0.839992	0.699117	-0.081378
Zr18	Zr	0.515085	0.889584	0.081117
O19	O	0.806670	0.854064	0.050773
O20	O	0.806675	0.854065	-0.180201
O21	O	0.806660	0.583239	0.050779
O22	O	0.548412	1.005460	0.179934
O23	O	0.548417	1.005461	-0.051040
O24	O	0.548402	0.734635	0.179940
O25	O	0.677547	1.005462	-0.051062
O26	O	0.677536	0.854062	0.179916
O27	O	0.677532	0.734636	0.179919
O28	O	0.677545	1.005462	0.050791
O29	O	0.908531	0.734640	-0.180216
O30	O	0.446546	0.854061	0.179955
O31	O	0.446551	1.005459	0.179951
O32	O	0.446555	1.005460	0.050830
O33	O	0.908522	0.583241	-0.051091
O34	O	0.908528	0.734639	-0.051095
O35	O	0.601520	0.838912	0.113899
O36	O	0.601525	0.928039	0.037885
O37	O	0.753558	0.838914	-0.038150
O38	O	0.753553	0.749787	0.037864
C39	C	0.474332	0.794349	-0.000097
C40	C	0.405365	0.794349	-0.000085
C41	C	0.429099	0.728554	-0.056211
C42	C	0.364310	0.728556	-0.056227
C43	C	0.275787	0.794350	-0.000113
C44	C	0.252054	0.860152	0.056016
C45	C	0.316843	0.860152	0.056028
C46	C	-0.009233	0.860151	0.055969
C47	C	-0.074022	0.860144	0.055954
C48	C	0.038235	0.728555	-0.056287
C49	C	0.103023	0.728556	-0.056275
C50	C	0.079284	0.794359	-0.000148
C51	C	0.149537	0.794357	-0.000133
C52	C	0.205536	0.794350	-0.000125
C53	C	0.677530	0.556101	-0.000125
C54	C	0.677527	0.475241	-0.000124
C55	C	0.677553	0.179126	-0.000137
C56	C	0.677550	0.261512	-0.000135
C57	C	0.677540	0.327181	-0.000131
C58	C	0.677536	0.409572	-0.000128
C59	C	0.880745	0.794352	-0.000165
C60	C	0.949712	0.794352	-0.000176
C61	C	0.677543	0.794352	-0.203323
C62	C	0.677545	0.794352	-0.272285
C63	C	0.677547	1.032600	-0.000136
C64	C	0.677550	1.113460	-0.000138
C65	C	0.677549	0.860145	-0.304685
C66	C	0.677543	0.860148	-0.369478
C67	C	0.677539	0.794353	-0.401873
C68	C	0.677532	0.728557	-0.369467
C69	C	0.677532	0.728559	-0.304672
C70	C	0.677531	0.728550	-0.630778
C71	C	0.677534	0.728552	-0.695578
C72	C	0.677542	0.860138	-0.695583
C73	C	0.677542	0.860140	-0.630788
C74	C	0.677531	0.794347	-0.598386
C75	C	0.677536	0.794346	-0.528129
C76	C	0.677540	0.794350	-0.472132
C77	C	0.677534	0.794349	0.203062
C78	C	0.677532	0.794348	0.272024
C79	C	0.474340	1.032599	-0.000102
C80	C	0.405377	1.113458	-0.000092
C81	C	0.474327	0.794348	0.203096
C82	C	0.405359	0.794347	0.272069
C83	C	0.474336	1.032597	0.203091
C84	C	0.405370	1.113456	0.272062
C85	C	0.880741	0.556104	-0.203352
C86	C	0.949707	0.475245	-0.272324
C87	C	0.880737	0.556102	-0.000159
C88	C	0.949700	0.475243	-0.000169
C89	C	0.880750	0.794353	-0.203357
C90	C	0.949718	0.794354	-0.272331
C91	C	0.372990	1.104908	-0.039771
C92	C	0.308200	1.180876	-0.039777
C93	C	0.275794	1.265394	-0.000099
C94	C	0.308188	1.273943	0.039581
C95	C	0.372980	1.197975	0.039582
C96	C	0.372971	0.840869	0.344143
C97	C	0.308178	0.840865	0.408957
C98	C	0.275768	0.794343	0.401696
C99	C	0.308162	0.747815	0.329614
C100	C	0.372959	0.747814	0.264802
C101	C	0.372986	1.197959	0.264774
C102	C	0.308195	1.273942	0.329574
C103	C	0.275785	1.265419	0.401661
C104	C	0.308175	1.180907	0.408949
C105	C	0.372970	1.104926	0.344149
C106	C	0.982099	0.390741	-0.265035
C107	C	1.046910	0.314759	-0.329835
C108	C	1.079324	0.323281	-0.401923
C109	C	1.046929	0.407794	-0.409210
C110	C	0.982123	0.483774	-0.344411
C111	C	0.982094	0.483793	0.039503
C112	C	1.046901	0.407825	0.039491
C113	C	1.079310	0.323307	-0.000189
C114	C	1.046913	0.314758	-0.039866
C115	C	0.982111	0.390726	-0.039858
C116	C	0.982107	0.840885	-0.265045
C117	C	1.046902	0.840903	-0.329846
C118	C	1.079310	0.794385	-0.401933
C119	C	1.046914	0.747853	-0.409217
C120	C	0.982117	0.747840	-0.344416
H121	H	0.175101	0.674976	-0.101966
N122	N	0.273232	1.365104	0.082373
H123	H	0.227270	1.411924	0.076349
H124	H	0.246384	1.372148	0.137868
N125	N	0.407929	0.891040	0.351983
H126	H	0.396651	0.937864	0.326875
H127	H	0.377561	0.920447	0.407494
N128	N	0.063845	0.657587	-0.116836
H129	H	0.099645	0.597185	-0.114384
H130	H	0.009335	0.667646	-0.108303
H131	H	1.073328	0.414722	-0.467911
N132	N	0.947150	0.891078	-0.187301
H133	H	0.901183	0.884019	-0.147347
H134	H	0.996634	0.866663	-0.181302
N135	N	0.947161	0.381503	-0.082636
H136	H	0.958432	0.410946	-0.122571
H137	H	0.977539	0.316417	-0.107721
H138	H	1.132075	0.261456	-0.000189
N139	N	0.205868	0.794363	0.471606
H140	H	0.190243	0.757836	0.456075
H141	H	0.228471	0.767913	0.502760
N142	N	0.947195	0.697638	-0.352276
H143	H	0.882148	0.740293	-0.327156
H144	H	0.977626	0.668172	-0.407790
H145	H	-0.028572	0.913733	0.101670
H146	H	0.677530	0.674972	-0.721953
N147	N	0.273252	1.365085	0.321701
H148	H	0.227286	1.411932	0.373685
H149	H	0.322742	1.372121	0.293027
H150	H	1.073311	0.709979	-0.467919
N151	N	1.081832	0.891096	-0.321980
H152	H	1.051471	0.920553	-0.266479
H153	H	1.146882	0.848386	-0.347147
H154	H	0.399341	1.204949	0.071897
N155	N	0.407930	1.013756	-0.082567
H156	H	0.472979	0.980156	-0.122502
H157	H	0.396582	0.980237	-0.046120
N158	N	0.407876	1.013786	0.352020
H159	H	0.453839	0.966938	0.300036
H160	H	0.434709	1.006746	0.380672
H161	H	0.955712	0.552605	0.071820
N162	N	0.273203	1.171730	0.486705
H163	H	0.246307	1.138178	0.492787
H164	H	0.322668	1.138196	0.492735
H165	H	0.955711	0.383785	-0.206343
N166	N	0.677536	0.657589	-0.404411
H167	H	0.677533	0.615910	-0.374051
H168	H	0.623567	0.686358	-0.404305
N169	N	0.291248	0.931120	0.116561
H170	H	0.225339	0.972800	0.152108
H171	H	0.315672	0.902351	0.145997
H172	H	1.073310	0.245933	-0.072172
N173	N	0.677521	0.657602	-0.269720
H174	H	0.677519	0.615920	-0.300074
H175	H	0.731490	0.623095	-0.269826
N176	N	0.273244	0.891053	0.486695
H177	H	0.303604	0.920530	0.481454
H178	H	0.208194	0.937823	0.515321
N179	N	0.677561	0.931105	-0.269750
H180	H	0.677561	0.972785	-0.300109
H181	H	0.623591	0.965611	-0.215873
N182	N	0.273271	1.171645	-0.082577
H183	H	0.303630	1.106574	-0.107703
H184	H	0.208221	1.201142	-0.046140
N185	N	0.273188	0.697655	0.321791
H186	H	0.303531	0.668180	0.266299
H187	H	0.284460	0.650885	0.346949
H188	H	0.223035	1.327245	-0.000105
N189	N	0.407933	0.697581	0.187066
H190	H	0.377579	0.668096	0.192308
H191	H	0.396685	0.740253	0.158413
N192	N	0.156578	0.931123	0.116536
H193	H	0.119135	0.921140	0.108013
H194	H	0.143379	0.928220	0.168032
H195	H	0.399365	1.204915	0.206082
N196	N	0.205899	1.347374	0.471549
H197	H	0.190305	1.402197	0.455986
H198	H	0.152169	1.347337	0.502717
H199	H	1.073275	0.245953	-0.323887
H200	H	-0.146104	0.913725	0.101651
N201	N	1.149220	0.241327	-0.471810
H202	H	1.164815	0.186504	-0.456247
H203	H	1.126623	0.241363	-0.502966
N204	N	0.524575	0.657594	-0.116740
H205	H	0.553952	0.623018	-0.092258
H206	H	0.529701	0.615979	-0.152280
N207	N	0.389907	0.657600	-0.116769
H208	H	0.455817	0.615919	-0.152314
H209	H	0.365458	0.623092	-0.092240
N210	N	0.947186	0.574916	-0.352278
H211	H	0.977556	0.568777	-0.407779
H212	H	0.882139	0.608460	-0.327121
H213	H	1.132073	0.794402	-0.454692
H214	H	1.073267	0.414802	0.071803
H215	H	0.677545	0.913721	-0.395857
H216	H	0.677550	0.913713	-0.604416
H217	H	0.677525	0.674978	-0.604402
N218	N	0.677552	0.931105	-0.730530
H219	H	0.677549	0.921126	-0.776491
H220	H	0.623586	0.991477	-0.692212
