data_functionalizedCrystal
_audit_creation_method	'MofGen! by Chris Wilmer'
_symmetry_space_group_name_H-M	'P1'
_symmetry_Int_Tables_number	1
_symmetry_cell_setting	triclinic
loop_
_symmetry_equiv_pos_as_xyz
  x,y,z
_cell_length_a	13.897449
_cell_length_b	21.295417
_cell_length_c	13.897441
_cell_angle_alpha	90.035375
_cell_angle_beta	90.020733
_cell_angle_gamma	90.030982
loop_
_atom_site_label
_atom_site_type_symbol
_atom_site_fract_x
_atom_site_fract_y
_atom_site_fract_z
Zn1	Zn	1.474622	-0.250568	0.545349
Zn2	Zn	1.474482	-0.355847	0.384037
Zn3	Zn	1.313311	-0.250598	0.384068
Zn4	Zn	1.313259	-0.355805	0.545290
O5	O	1.393919	-0.303204	0.464686
O6	O	1.609585	-0.264538	0.523963
O7	O	1.453066	-0.341915	0.249059
O8	O	1.334790	-0.162504	0.405499
O9	O	1.609482	-0.341886	0.405448
O10	O	1.453304	-0.162482	0.523992
O11	O	1.334654	-0.264589	0.249082
O12	O	1.178323	-0.264549	0.405442
O13	O	1.334701	-0.341815	0.680279
O14	O	1.178284	-0.341844	0.523891
O15	O	1.453254	-0.264498	0.680323
O16	O	1.453015	-0.443931	0.405390
O17	O	1.334565	-0.443900	0.523862
C18	C	1.143304	-0.303196	0.464664
C19	C	1.036090	-0.303207	0.464677
C20	C	0.839795	-0.303210	0.464703
C21	C	0.949028	-0.303207	0.464686
C22	C	1.393796	-0.466756	0.464637
C23	C	1.393831	-0.536724	0.464648
C24	C	1.455507	-0.569522	0.526392
C25	C	1.455541	-0.635265	0.526416
C26	C	1.393910	-0.668207	0.464679
C27	C	1.332223	-0.635401	0.402931
C28	C	1.332183	-0.569659	0.402916
N29	N	1.386620	-0.771473	0.380261
N30	N	1.386663	-0.833925	0.380279
C31	C	1.394022	-0.866281	0.464722
N32	N	1.401356	-0.833827	0.549150
N33	N	1.401318	-0.771370	0.549132
C34	C	1.393945	-0.739492	0.464689
C35	C	1.455738	-0.970365	0.526497
C36	C	1.455765	-1.036108	0.526522
C37	C	1.332452	-1.036243	0.403029
C38	C	1.332420	-0.970501	0.403012
C39	C	1.394068	-0.937565	0.464745
C40	C	1.645512	-0.303213	0.464708
C41	C	1.752726	-0.303217	0.464718
C42	C	1.393987	-0.303149	0.716279
C43	C	1.394016	-0.303125	0.823493
C44	C	1.394068	-0.139014	0.464756
C45	C	1.394132	-0.069046	0.464786
C46	C	1.393906	-0.303214	0.214072
C47	C	1.394064	-0.303061	0.106858
C48	C	1.394043	-0.303082	1.019788
C49	C	1.394025	-0.303108	0.910556
H50	H	1.505756	-0.661974	0.576706
C51	C	1.265185	-0.534160	0.335767
C52	C	1.211230	-0.577076	0.281689
C53	C	1.149512	-0.544396	0.219811
H54	H	1.223040	-0.508516	0.372514
H55	H	1.302072	-0.508528	0.293712
H56	H	1.174346	-0.602697	0.323738
H57	H	1.253350	-0.602721	0.244922
H58	H	1.186398	-0.518764	0.177756
H59	H	1.107372	-0.518754	0.256565
H60	H	1.112902	-0.573509	0.183105
C61	C	1.265371	-1.071965	0.336119
C62	C	1.169914	-1.056028	0.357053
C63	C	1.108086	-1.088931	0.295446
H64	H	1.279387	-1.061243	0.271284
H65	H	1.274156	-1.115823	0.344978
H66	H	1.161133	-1.012181	0.348187
H67	H	1.155868	-1.066753	0.421877
H68	H	1.116872	-1.132789	0.304304
H69	H	1.122111	-1.078206	0.230615
H70	H	1.043312	-1.078127	0.309647
C71	C	1.265413	-0.671276	0.335938
C72	C	1.278667	-0.735871	0.349147
C73	C	1.217142	-0.768938	0.287442
H74	H	1.200550	-0.660612	0.349935
H75	H	1.279566	-0.660562	0.271117
H76	H	1.264507	-0.746581	0.413953
H77	H	1.343517	-0.746554	0.335143
H78	H	1.231295	-0.758223	0.222621
H79	H	1.152283	-0.758268	0.301444
H80	H	1.226132	-0.812768	0.296389
C81	C	1.522687	-0.934715	0.593638
C82	C	1.576681	-0.977513	0.647746
C83	C	1.638352	-0.944697	0.709620
H84	H	1.564811	-0.909059	0.556887
H85	H	1.485765	-0.909084	0.635674
H86	H	1.613601	-1.003132	0.605716
H87	H	1.534583	-1.003170	0.684518
H88	H	1.601429	-0.919067	0.751655
H89	H	1.680469	-0.919043	0.672860
H90	H	1.674988	-0.973730	0.746346
C91	C	1.522786	-1.071803	0.593405
C92	C	1.584636	-1.109550	0.538849
C93	C	1.646381	-1.142448	0.600428
H94	H	1.559587	-1.042843	0.630188
H95	H	1.485908	-1.097484	0.635395
H96	H	1.621511	-1.083871	0.496876
H97	H	1.547862	-1.138521	0.502068
H98	H	1.609503	-1.168130	0.642418
H99	H	1.683176	-1.113484	0.637208
H100	H	1.688348	-1.168068	0.563421
C101	C	1.522273	-0.533686	0.593480
C102	C	1.467603	-0.495937	0.655235
C103	C	1.529074	-0.462909	0.717043
H104	H	1.559029	-0.562568	0.630347
H105	H	1.564292	-0.507996	0.556643
H106	H	1.425601	-0.521625	0.692068
H107	H	1.430849	-0.467043	0.618394
H108	H	1.571093	-0.437219	0.680206
H109	H	1.565827	-0.491796	0.753904
H110	H	1.491990	-0.437288	0.758945
H111	H	1.282202	-0.943795	0.352731
