data_functionalizedCrystal
_audit_creation_method	'MofGen! by Chris Wilmer'
_symmetry_space_group_name_H-M	'P1'
_symmetry_Int_Tables_number	1
_symmetry_cell_setting	triclinic
loop_
_symmetry_equiv_pos_as_xyz
  x,y,z
_cell_length_a	10.268362
_cell_length_b	14.971486
_cell_length_c	14.971486
_cell_angle_alpha	83.614129
_cell_angle_beta	89.994507
_cell_angle_gamma	90.000373
loop_
_atom_site_label
_atom_site_type_symbol
_atom_site_fract_x
_atom_site_fract_y
_atom_site_fract_z
O1	O	0.108151	-1.186945	-0.116563
O2	O	0.441484	-0.853611	0.216770
O3	O	0.774818	-0.520278	0.550103
O4	O	0.108187	-0.926545	-0.130522
O5	O	0.441520	-0.593211	0.202811
O6	O	0.774853	-0.259878	0.536145
O7	O	0.108159	-1.063724	0.006657
O8	O	0.441492	-0.730391	0.339991
O9	O	0.774825	-0.397057	0.673324
O10	O	0.108179	-1.049765	-0.253743
O11	O	0.441512	-0.716432	0.079590
O12	O	0.774846	-0.383099	0.412924
O13	O	-0.108442	-1.063712	0.006663
O14	O	0.224891	-0.730379	0.339996
O15	O	0.558225	-0.397045	0.673330
O16	O	-0.108414	-0.926533	-0.130517
O17	O	0.224919	-0.593199	0.202817
O18	O	0.558253	-0.259866	0.536150
O19	O	-0.108450	-1.186933	-0.116558
O20	O	0.224884	-0.853599	0.216776
O21	O	0.558217	-0.520266	0.550109
Cu22	Cu	-0.128209	-1.056732	-0.123537
Cu23	Cu	0.205124	-0.723398	0.209797
Cu24	Cu	0.538458	-0.390065	0.543130
Cu25	Cu	0.127946	-1.056746	-0.123543
Cu26	Cu	0.461280	-0.723412	0.209790
Cu27	Cu	0.794613	-0.390079	0.543123
O28	O	-0.108422	-1.049753	-0.253737
O29	O	0.224912	-0.716420	0.079596
O30	O	0.558245	-0.383087	0.412929
C31	C	-0.000109	-0.893214	-0.129895
C32	C	0.333224	-0.559881	0.203438
C33	C	0.666557	-0.226547	0.536772
C34	C	-0.000096	-0.793917	-0.128024
C35	C	0.333237	-0.460583	0.205309
C36	C	0.666571	-0.127250	0.538642
N37	N	-0.308375	-1.056728	-0.123531
N38	N	0.024958	-0.723395	0.209802
N39	N	0.358292	-0.390062	0.543135
C40	C	-0.000141	-1.063094	0.039985
C41	C	0.333192	-0.729761	0.373318
C42	C	0.666525	-0.396427	0.706652
C43	C	-0.000140	-1.061223	0.139282
C44	C	0.333194	-0.727890	0.472615
C45	C	0.666527	-0.394556	0.805949
C46	C	-0.574046	-1.056741	-0.123541
C47	C	-0.240712	-0.723408	0.209792
C48	C	0.092621	-0.390075	0.543125
C49	C	-0.426208	-1.056731	-0.123538
C50	C	-0.092874	-0.723398	0.209795
C51	C	0.240459	-0.390064	0.543128
N52	N	0.308112	-1.056756	-0.123541
N53	N	0.641445	-0.723423	0.209792
N54	N	0.974779	-0.390090	0.543125
C55	C	-0.000151	-1.220263	-0.117185
C56	C	0.333183	-0.886930	0.216149
C57	C	0.666516	-0.553597	0.549482
C58	C	-0.000156	-1.319561	-0.119056
C59	C	0.333178	-0.986227	0.214278
C60	C	0.666511	-0.652894	0.547611
C61	C	-0.000091	-0.736692	-0.208614
C62	C	0.333242	-0.403358	0.124720
C63	C	0.666575	-0.070025	0.458053
C64	C	-0.000111	-0.643392	-0.206850
C65	C	0.333222	-0.310059	0.126483
C66	C	0.666556	0.023275	0.459816
C67	C	-0.000126	-0.607320	-0.124497
C68	C	0.333208	-0.273986	0.208836
C69	C	0.666541	0.059347	0.542169
C70	C	-0.000134	-0.664552	-0.043902
C71	C	0.333199	-0.331219	0.289431
C72	C	0.666533	0.002114	0.622765
C73	C	-0.000124	-0.757850	-0.045666
C74	C	0.333210	-0.424517	0.287667
C75	C	0.666543	-0.091183	0.621001
C76	C	-0.000152	-0.470090	-0.040231
C77	C	0.333181	-0.136757	0.293103
C78	C	0.666514	0.196577	0.626436
C79	C	-0.000160	-0.376786	-0.038466
C80	C	0.333173	-0.043453	0.294867
C81	C	0.666507	0.289881	0.628200
C82	C	-0.000139	-0.355632	-0.201415
C83	C	0.333194	-0.022299	0.131918
C84	C	0.666527	0.311035	0.465251
C85	C	-0.000129	-0.448930	-0.203179
C86	C	0.333204	-0.115596	0.130154
C87	C	0.666538	0.217737	0.463487
C88	C	-0.000135	-0.506156	-0.122584
C89	C	0.333198	-0.172822	0.210750
C90	C	0.666532	0.160511	0.544083
C91	C	-0.000119	-1.050384	-0.287065
C92	C	0.333215	-0.717050	0.046269
C93	C	0.666548	-0.383717	0.379602
C94	C	-0.000112	-1.052254	-0.386362
C95	C	0.333222	-0.718921	-0.053028
C96	C	0.666555	-0.385588	0.280305
C97	C	-0.000152	-1.141812	0.196507
C98	C	0.333182	-0.808479	0.529841
C99	C	0.666515	-0.475146	0.863174
C100	C	-0.000138	-1.140049	0.289807
C101	C	0.333195	-0.806716	0.623140
C102	C	0.666528	-0.473383	0.956473
C103	C	-0.000122	-1.057696	0.325879
C104	C	0.333211	-0.724363	0.659212
C105	C	0.666544	-0.391029	0.992546
C106	C	-0.000107	-0.977101	0.268646
C107	C	0.333227	-0.643767	0.601980
C108	C	0.666560	-0.310434	0.935313
C109	C	-0.000111	-0.978865	0.175349
C110	C	0.333223	-0.645531	0.508682
C111	C	0.666556	-0.312198	0.842015
C112	C	-0.000101	-0.973430	0.463109
C113	C	0.333232	-0.640096	0.796442
C114	C	0.666565	-0.306763	1.129776
C115	C	-0.000100	-0.971665	0.556413
C116	C	0.333234	-0.638332	0.889746
C117	C	0.666567	-0.304998	1.223080
C118	C	-0.000129	-1.134614	0.577567
C119	C	0.333204	-0.801281	0.910900
C120	C	0.666538	-0.467947	1.244233
C121	C	-0.000133	-1.136378	0.484269
C122	C	0.333200	-0.803045	0.817603
C123	C	0.666534	-0.469712	1.150936
C124	C	-0.000120	-1.055782	0.427043
C125	C	0.333214	-0.722449	0.760376
C126	C	0.666547	-0.389116	1.093710
H127	H	-0.000078	-0.766054	-0.275675
H128	H	0.333255	-0.432720	0.057658
H129	H	0.666588	-0.099387	0.390992
O130	O	-0.000099	-0.886504	0.401381
O131	O	0.333234	-0.553170	0.734714
O132	O	0.666567	-0.219837	1.068048
H133	H	-0.000106	-0.828941	0.442136
H134	H	0.333228	-0.495608	0.775470
H135	H	0.666561	-0.162274	1.108803
H136	H	-0.000105	-0.478296	-0.270239
H137	H	0.333229	-0.144963	0.063095
H138	H	0.666562	0.188370	0.396428
O139	O	-0.000103	-0.891940	0.113627
O140	O	0.333230	-0.558607	0.446960
O141	O	0.666564	-0.225273	0.780294
H142	H	-0.000096	-0.907001	0.042691
H143	H	0.333237	-0.573668	0.376025
H144	H	0.666571	-0.240334	0.709358
H145	H	-0.000159	-0.516682	0.025399
H146	H	0.333174	-0.183348	0.358732
H147	H	0.666508	0.149985	0.692066
O148	O	-0.000107	-0.581667	-0.293771
O149	O	0.333227	-0.248334	0.039563
O150	O	0.666560	0.085000	0.372896
H151	H	-0.000079	-0.622424	-0.351332
H152	H	0.333254	-0.289091	-0.017999
H153	H	0.666587	0.044242	0.315335
H154	H	-0.000127	-0.804443	0.019958
H155	H	0.333207	-0.471109	0.353292
H156	H	0.666540	-0.137776	0.686625
O157	O	-0.000086	-0.882845	0.595328
O158	O	0.333247	-0.549512	0.928661
O159	O	0.666580	-0.216179	1.261994
H160	H	0.088189	-0.878162	0.637334
H161	H	0.421522	-0.544829	0.970667
H162	H	0.754856	-0.211496	1.304000
H163	H	-0.000165	-0.635175	0.023152
H164	H	0.333169	-0.301842	0.356485
H165	H	0.666502	0.031492	0.689818
O166	O	-0.000151	-0.293912	-0.288344
O167	O	0.333182	0.039422	0.044989
O168	O	0.666515	0.372755	0.378322
H169	H	0.088145	-0.306731	-0.327749
H170	H	0.421478	0.026603	0.005585
H171	H	0.754812	0.359936	0.338918
O172	O	-0.000160	-1.226977	0.351521
O173	O	0.333173	-0.893643	0.684854
O174	O	0.666506	-0.560310	1.018188
H175	H	0.088132	-1.230089	0.394519
H176	H	0.421465	-0.896756	0.727853
H177	H	0.754799	-0.563422	1.061186
H178	H	-0.000173	-1.208874	0.167145
H179	H	0.333161	-0.875541	0.500478
H180	H	0.666494	-0.542207	0.833812
H181	H	-0.000174	-0.347419	0.028593
H182	H	0.333160	-0.014086	0.361926
H183	H	0.666493	0.319247	0.695260
O184	O	-0.000134	-1.225199	0.445356
O185	O	0.333199	-0.891865	0.778689
O186	O	0.666532	-0.558532	1.112023
H187	H	-0.000124	-1.280946	0.500821
H188	H	0.333209	-0.947613	0.834155
H189	H	0.666542	-0.614279	1.167488
O190	O	-0.000104	-0.888276	0.307552
O191	O	0.333229	-0.554943	0.640886
O192	O	0.666562	-0.221610	0.974219
H193	H	0.088170	-0.883580	0.349556
H194	H	0.421503	-0.550246	0.682890
H195	H	0.754837	-0.216913	1.016223
H196	H	-0.000136	-1.200238	0.624165
H197	H	0.333197	-0.866905	0.957499
H198	H	0.666531	-0.533572	1.290832
