data_functionalizedCrystal
_audit_creation_method	'MofGen! by Chris Wilmer'
_symmetry_space_group_name_H-M	'P1'
_symmetry_Int_Tables_number	1
_symmetry_cell_setting	triclinic
loop_
_symmetry_equiv_pos_as_xyz
  x,y,z
_cell_length_a	12.594517
_cell_length_b	19.805406
_cell_length_c	19.805384
_cell_angle_alpha	89.914565
_cell_angle_beta	89.945894
_cell_angle_gamma	89.993606
loop_
_atom_site_label
_atom_site_type_symbol
_atom_site_fract_x
_atom_site_fract_y
_atom_site_fract_z
Zn1	Zn	-1.627872	0.269119	0.382526
Zn2	Zn	-1.127872	0.769119	0.882526
Zn3	Zn	-1.627669	0.382448	0.269364
Zn4	Zn	-1.127669	0.882448	0.769364
Zn5	Zn	-1.449732	0.269266	0.269379
Zn6	Zn	-0.949732	0.769266	0.769379
Zn7	Zn	-1.449909	0.382259	0.382539
Zn8	Zn	-0.949909	0.882259	0.882539
O9	O	-1.538796	0.325773	0.325952
O10	O	-1.038796	0.825773	0.825952
O11	O	-1.776791	0.284170	0.367503
O12	O	-1.276791	0.784170	0.867503
O13	O	-1.603907	0.367574	0.174649
O14	O	-1.103907	0.867574	0.674649
O15	O	-1.473374	0.174530	0.284389
O16	O	-0.973374	0.674530	0.784389
O17	O	-1.776642	0.367432	0.284363
O18	O	-1.276642	0.867432	0.784363
O19	O	-1.604253	0.174422	0.367518
O20	O	-1.104253	0.674422	0.867518
O21	O	-1.473177	0.284420	0.174660
O22	O	-0.973177	0.784420	0.674660
O23	O	-1.300810	0.284237	0.284401
O24	O	-0.800810	0.784237	0.784401
O25	O	-1.473675	0.367110	0.477254
O26	O	-0.973675	0.867110	0.977254
O27	O	-1.300939	0.367252	0.367539
O28	O	-0.800939	0.867252	0.867539
O29	O	-1.604424	0.283987	0.477245
O30	O	-1.104424	0.783987	0.977245
O31	O	-1.604078	0.477139	0.284376
O32	O	-1.104078	0.977139	0.784376
O33	O	-1.473478	0.477001	0.367525
O34	O	-0.973478	0.977001	0.867525
C35	C	-1.262255	0.325740	0.325974
C36	C	-0.762255	0.825740	0.825974
C37	C	-1.143949	0.325743	0.325999
C38	C	-0.643949	0.825743	0.825999
C39	C	-1.538817	0.149230	0.325953
C40	C	-1.038817	0.649230	0.825953
C41	C	-1.538826	0.073998	0.325954
C42	C	-1.038826	0.573998	0.825954
C43	C	-1.074797	0.370982	0.371133
C44	C	-0.574797	0.870982	0.871133
C45	C	-1.003983	0.309248	0.387774
C46	C	-0.503983	0.809248	0.887774
C47	C	-1.003965	0.387522	0.309352
C48	C	-0.503965	0.887522	0.809352
C49	C	-1.074693	0.263976	0.342672
C50	C	-0.574693	0.763976	0.842672
C51	C	-1.074681	0.342292	0.264221
C52	C	-0.574681	0.842292	0.764221
C53	C	-1.003899	0.280516	0.280838
C54	C	-0.503899	0.780516	0.780838
C55	C	-0.816417	0.325800	0.325941
C56	C	-0.316417	0.825800	0.825941
C57	C	-0.934722	0.325795	0.325963
C58	C	-0.434722	0.825795	0.825963
C59	C	-1.470693	0.038709	0.282675
C60	C	-0.970693	0.538709	0.782675
C61	C	-1.470699	-0.031979	0.282682
C62	C	-0.970699	0.468021	0.782682
C63	C	-1.538845	-0.067377	0.325966
C64	C	-1.038845	0.432623	0.825966
C65	C	-1.606982	-0.032083	0.369250
C66	C	-1.106982	0.467917	0.869250
C67	C	-1.606969	0.038604	0.369245
C68	C	-1.106969	0.538604	0.869245
C69	C	-1.607034	-0.317157	0.369270
C70	C	-1.107034	0.182843	0.869270
C71	C	-1.607044	-0.387849	0.369269
C72	C	-1.107044	0.112151	0.869269
C73	C	-1.470765	-0.387740	0.282707
C74	C	-0.970765	0.112260	0.782707
C75	C	-1.470752	-0.317053	0.282702
C76	C	-0.970752	0.182947	0.782702
C77	C	-1.538883	-0.281765	0.325988
C78	C	-1.038883	0.218235	0.825988
C79	C	-1.538874	-0.205116	0.325981
C80	C	-1.038874	0.294884	0.825981
C81	C	-1.538861	-0.144024	0.325971
C82	C	-1.038861	0.355976	0.825971
C83	C	-1.538804	0.501629	0.325965
C84	C	-1.038804	1.001629	0.825965
C85	C	-1.538904	0.576861	0.325993
C86	C	-1.038904	1.076861	0.825993
C87	C	-1.538562	0.325985	0.150095
C88	C	-1.038562	0.825985	0.650095
C89	C	-1.538642	0.325906	0.074864
C90	C	-1.038642	0.825906	0.574864
C91	C	-1.470125	0.282893	0.039557
C92	C	-0.970125	0.782893	0.539557
C93	C	-1.470210	0.282818	-0.031131
C94	C	-0.970210	0.782818	0.468869
C95	C	-1.538807	0.325760	-0.066512
C96	C	-1.038807	0.825760	0.433488
C97	C	-1.607332	0.368775	-0.031200
C98	C	-1.107332	0.868775	0.468800
C99	C	-1.607252	0.368846	0.039487
C100	C	-1.107252	0.868846	0.539487
C101	C	-1.607657	0.368489	-0.316273
C102	C	-1.107657	0.868489	0.183727
C103	C	-1.607730	0.368417	-0.386965
C104	C	-1.107730	0.868417	0.113035
C105	C	-1.470616	0.282462	-0.386891
C106	C	-0.970616	0.782462	0.113109
C107	C	-1.470536	0.282533	-0.316204
C108	C	-0.970536	0.782533	0.183796
C109	C	-1.539064	0.325544	-0.280899
C110	C	-1.039064	0.825544	0.219101
C111	C	-1.538972	0.325624	-0.204250
C112	C	-1.038972	0.825624	0.295750
C113	C	-1.538894	0.325684	-0.143159
C114	C	-1.038894	0.825684	0.356841
C115	C	-1.539092	0.325511	0.502495
C116	C	-1.039092	0.825511	1.002495
C117	C	-1.539218	0.325400	0.577727
C118	C	-1.039218	0.825400	1.077727
H119	H	-1.105928	0.409167	0.409347
H120	H	-0.605928	0.909167	0.909347
H121	H	-0.972891	0.439746	0.295289
H122	H	-0.472891	0.939746	0.795289
O123	O	-0.962841	0.290730	0.456956
O124	O	-0.462841	0.790730	0.956956
H125	H	-0.914337	0.244075	0.453390
H126	H	-0.414337	0.744075	0.953390
O127	O	-0.962922	0.229816	0.230255
O128	O	-0.462922	0.729816	0.730255
H129	H	-0.874800	0.230504	0.230284
H130	H	-0.374800	0.730504	0.730284
O131	O	-1.115881	0.360833	0.195064
O132	O	-0.615881	0.860833	0.695064
H133	H	-1.087614	0.412142	0.181375
H134	H	-0.587614	0.912142	0.681375
H135	H	-1.414673	0.247567	-0.287401
H136	H	-0.914673	0.747567	0.212599
H137	H	-1.105632	0.211737	0.356796
H138	H	-0.605632	0.711737	0.856796
H139	H	-1.415204	0.067525	0.247426
H140	H	-0.915204	0.567525	0.747426
H141	H	-1.414263	0.247926	0.068359
H142	H	-0.914263	0.747926	0.568359
O143	O	-1.397230	-0.070044	0.235993
O144	O	-0.897230	0.429956	0.735993
H145	H	-1.349858	-0.033554	0.205885
H146	H	-0.849858	0.466446	0.705885
O147	O	-1.680452	0.076666	0.415931
O148	O	-1.180452	0.576666	0.915931
H149	H	-1.668984	0.131765	0.408663
H150	H	-1.168984	0.631765	0.908663
O151	O	-1.396712	0.236062	-0.424973
O152	O	-0.896712	0.736062	0.075027
H153	H	-1.414347	0.182875	-0.411246
H154	H	-0.914347	0.682875	0.088754
O155	O	-1.680548	-0.426027	0.415959
O156	O	-1.180548	0.073973	0.915959
H157	H	-1.669118	-0.481108	0.408682
H158	H	-1.169118	0.018892	0.908682
O159	O	-1.397249	-0.278871	0.236021
O160	O	-0.897249	0.221129	0.736021
H161	H	-1.349864	-0.315287	0.205931
H162	H	-0.849864	0.184713	0.705931
O163	O	-1.681321	0.415094	-0.069356
O164	O	-1.181321	0.915094	0.430644
H165	H	-1.669859	0.407825	-0.124441
H166	H	-1.169859	0.907825	0.375559
H167	H	-1.663599	0.403384	-0.415770
H168	H	-1.163599	0.903384	0.084230
H169	H	-1.663454	0.403514	-0.287536
H170	H	-1.163454	0.903514	0.212464
H171	H	-1.415284	-0.416479	0.247463
H172	H	-0.915284	0.083521	0.747463
H173	H	-1.414415	0.247793	-0.059875
H174	H	-0.914415	0.747793	0.440125
H175	H	-1.663047	0.403870	0.068232
H176	H	-1.163047	0.903870	0.568232
O177	O	-1.680489	-0.070262	0.415930
O178	O	-1.180489	0.429738	0.915930
H179	H	-1.662319	-0.056781	0.469054
H180	H	-1.162319	0.443219	0.969054
O181	O	-1.680520	-0.279099	0.415951
O182	O	-1.180520	0.220901	0.915951
H183	H	-1.727914	-0.315591	0.446042
H184	H	-1.227914	0.184409	0.946042
