data_functionalizedCrystal
_audit_creation_method	'MofGen! by Chris Wilmer'
_symmetry_space_group_name_H-M	'P1'
_symmetry_Int_Tables_number	1
_symmetry_cell_setting	triclinic
loop_
_symmetry_equiv_pos_as_xyz
  x,y,z
_cell_length_a	15.944551
_cell_length_b	15.944493
_cell_length_c	14.472310
_cell_angle_alpha	90.004804
_cell_angle_beta	89.991464
_cell_angle_gamma	83.486891
loop_
_atom_site_label
_atom_site_type_symbol
_atom_site_fract_x
_atom_site_fract_y
_atom_site_fract_z
O1	O	1.114513	0.108329	-0.076732
O2	O	0.869960	0.121686	-0.076754
O3	O	0.998940	-0.007271	-0.076750
O4	O	0.985533	0.237286	-0.076736
O5	O	0.998907	-0.007263	0.076932
O6	O	0.869927	0.121693	0.076928
O7	O	1.114479	0.108337	0.076950
Cu8	Cu	0.992200	0.115016	0.090971
Cu9	Cu	0.992239	0.115007	-0.090775
O10	O	0.985500	0.237293	0.076946
C11	C	0.838650	0.121135	0.000084
C12	C	0.745404	0.119473	0.000075
C13	C	0.998375	-0.038562	0.000087
C14	C	0.996733	-0.131810	0.000075
C15	C	0.530565	0.035566	0.000088
C16	C	0.469553	0.074526	-0.075683
C17	C	0.574679	0.116465	0.000086
C18	C	0.469542	0.074552	0.075836
C19	C	0.409767	0.113555	0.000101
C20	C	0.514895	0.155447	-0.075748
C21	C	0.514891	0.155463	0.075839
C22	C	0.453897	0.194481	0.000049
C23	C	0.669681	0.118140	0.000077
C24	C	0.314766	0.111886	0.000103
C25	C	1.072653	-0.367570	0.000099
C26	C	1.031728	-0.418142	-0.075677
C27	C	0.993688	-0.302531	0.000086
C28	C	1.031677	-0.418111	0.075841
C29	C	0.990754	-0.467441	0.000101
C30	C	0.952785	-0.351875	-0.075753
C31	C	0.952746	-0.351840	0.075834
C32	C	0.911763	-0.402379	0.000039
C33	C	0.995381	-0.207531	0.000077
C34	C	0.989055	-0.562438	0.000103
C35	C	1.145790	0.108888	0.000110
C36	C	1.239036	0.110550	0.000112
C37	C	0.986064	0.268584	0.000107
C38	C	0.987707	0.361833	0.000113
N39	N	0.992179	0.115021	0.218802
N40	N	0.992268	0.114995	-0.218606
C41	C	0.992238	0.115003	0.592893
C42	C	0.922992	0.183774	0.553726
C43	C	0.923152	0.184025	0.446637
C44	C	0.992208	0.115012	0.407302
C45	C	1.079847	0.134160	0.446149
C46	C	1.079458	0.134649	0.553270
C47	C	0.974627	0.026881	0.553416
C48	C	0.972617	0.027469	0.446288
C49	C	0.992196	0.115016	0.302414
C50	C	0.992256	0.115002	0.697782
H51	H	0.563912	-0.031574	-0.000009
H52	H	0.919413	-0.322876	0.139894
O53	O	1.071385	-0.452702	-0.152167
C54	C	1.014009	-0.493841	-0.204994
H55	H	0.946753	-0.465944	-0.188063
H56	H	1.026809	-0.484733	-0.281633
H57	H	1.022071	-0.564111	-0.188005
H58	H	0.534890	0.189636	-0.139876
H59	H	0.858008	0.172616	0.420375
H60	H	0.449464	0.040306	-0.139746
H61	H	0.908148	0.012937	0.420899
O62	O	0.414352	0.274672	-0.000155
C63	C	0.437489	0.317000	-0.080137
H64	H	0.459414	0.268774	-0.135727
H65	H	0.380795	0.360343	-0.106579
H66	H	0.490966	0.356112	-0.062781
H67	H	0.535001	0.189654	0.139905
O68	O	1.071574	-0.452533	0.152241
C69	C	1.156335	-0.435180	0.151943
H70	H	1.162453	-0.377107	0.107584
H71	H	1.176990	-0.422805	0.225635
H72	H	1.198104	-0.491592	0.122369
H73	H	1.025125	-0.024296	0.578743
H74	H	0.843692	-0.417845	-0.000009
O75	O	0.913191	-0.317487	-0.152341
C76	C	0.970397	-0.275765	-0.204777
H77	H	1.037744	-0.303171	-0.187590
H78	H	0.957999	-0.284864	-0.281502
H79	H	0.961705	-0.205525	-0.187643
O80	O	0.845086	0.170300	0.584604
C81	C	0.852016	0.098440	0.642061
H82	H	0.918774	0.087030	0.671150
H83	H	0.804908	0.109070	0.701332
H84	H	0.837969	0.041113	0.600164
O85	O	0.445684	0.033610	0.152229
C86	C	0.485094	-0.050147	0.151919
H87	H	0.544504	-0.054175	0.107562
H88	H	0.502789	-0.070281	0.225609
H89	H	0.439857	-0.093711	0.122337
O90	O	0.936419	0.262065	0.416011
C91	C	0.867119	0.295794	0.361946
H92	H	0.809101	0.263949	0.381430
H93	H	0.854024	0.366581	0.374990
H94	H	0.882191	0.284127	0.285701
O95	O	0.936363	0.261296	0.585875
C96	C	1.008004	0.253651	0.643666
H97	H	1.050233	0.193296	0.625751
H98	H	1.044514	0.310371	0.633092
H99	H	0.987198	0.251104	0.718885
O100	O	1.153797	-0.348927	-0.000163
C101	C	1.195147	-0.382859	-0.080203
H102	H	1.146378	-0.392201	-0.135750
H103	H	1.240131	-0.337585	-0.106666
H104	H	1.232370	-0.446225	-0.062915
H105	H	1.094980	0.198916	0.578251
O106	O	1.142880	0.076116	0.415710
C107	C	1.201809	0.117065	0.364946
H108	H	1.197402	0.186173	0.386585
H109	H	1.268212	0.085205	0.379191
H110	H	1.187466	0.112929	0.288016
O111	O	1.142722	0.077060	0.584085
C112	C	1.129812	-0.003798	0.551433
H113	H	1.088571	0.002748	0.486923
H114	H	1.193278	-0.040676	0.533824
H115	H	1.097150	-0.038848	0.607149
O116	O	1.098664	0.209993	0.414098
C117	C	1.032823	0.245890	0.356526
H118	H	0.972090	0.218080	0.374528
H119	H	1.023269	0.317167	0.367258
H120	H	1.049869	0.231450	0.281240
O121	O	0.900067	0.004781	0.585612
C122	C	0.886200	-0.074398	0.548921
H123	H	0.949158	-0.110442	0.527897
H124	H	0.854810	-0.112005	0.603396
H125	H	0.843418	-0.064774	0.485805
H126	H	1.019777	-0.026105	0.419515
