data_functionalizedCrystal
_audit_creation_method	'MofGen! by Chris Wilmer'
_symmetry_space_group_name_H-M	'P1'
_symmetry_Int_Tables_number	1
_symmetry_cell_setting	triclinic
loop_
_symmetry_equiv_pos_as_xyz
  x,y,z
_cell_length_a	12.594516
_cell_length_b	12.645331
_cell_length_c	12.645324
_cell_angle_alpha	90.027879
_cell_angle_beta	89.969158
_cell_angle_gamma	89.987401
loop_
_atom_site_label
_atom_site_type_symbol
_atom_site_fract_x
_atom_site_fract_y
_atom_site_fract_z
Zn1	Zn	-0.423759	-1.620746	-0.599592
Zn2	Zn	0.076241	-1.120746	-0.099592
Zn3	Zn	-0.601784	-1.620632	-0.422335
Zn4	Zn	-0.101784	-1.120632	0.077665
Zn5	Zn	-0.423809	-1.443460	-0.422321
Zn6	Zn	0.076191	-0.943460	0.077679
Zn7	Zn	-0.601685	-1.443448	-0.599535
Zn8	Zn	-0.101685	-0.943448	-0.099535
O9	O	-0.512759	-1.532072	-0.510946
O10	O	-0.012759	-1.032072	-0.010946
O11	O	-0.447395	-1.769079	-0.576108
O12	O	0.052605	-1.269079	-0.076108
O13	O	-0.578237	-1.597087	-0.273986
O14	O	-0.078237	-1.097087	0.226014
O15	O	-0.274857	-1.467030	-0.445855
O16	O	0.225143	-0.967030	0.054145
O17	O	-0.578189	-1.768995	-0.445878
O18	O	-0.078189	-1.268995	0.054122
O19	O	-0.274820	-1.597282	-0.576095
O20	O	0.225180	-1.097282	-0.076095
O21	O	-0.447480	-1.466920	-0.273976
O22	O	0.052520	-0.966920	0.226024
O23	O	-0.447384	-1.295111	-0.445800
O24	O	0.052616	-0.795111	0.054200
O25	O	-0.578021	-1.467009	-0.747890
O26	O	-0.078021	-0.967009	-0.247890
O27	O	-0.578069	-1.295102	-0.575998
O28	O	-0.078069	-0.795102	-0.075998
O29	O	-0.447299	-1.597270	-0.747932
O30	O	0.052701	-1.097270	-0.247932
O31	O	-0.750717	-1.597075	-0.445823
O32	O	-0.250717	-1.097075	0.054177
O33	O	-0.750644	-1.466899	-0.576011
O34	O	-0.250644	-0.966899	-0.076011
C35	C	-0.512722	-1.256642	-0.510892
C36	C	-0.012722	-0.756642	-0.010892
C37	C	-0.512732	-1.138812	-0.510894
C38	C	-0.012732	-0.638812	-0.010894
C39	C	-0.430387	-1.093900	-0.429116
C40	C	0.069613	-0.593900	0.070884
C41	C	-0.430075	-0.971340	-0.429386
C42	C	0.069925	-0.471340	0.070614
C43	C	-0.482795	-0.970982	-0.622787
C44	C	0.017205	-0.470982	-0.122787
C45	C	-0.482188	-1.093580	-0.622286
C46	C	0.017812	-0.593580	-0.122286
C47	C	-0.625243	-1.093600	-0.481813
C48	C	-0.125243	-0.593600	0.018187
C49	C	-0.624648	-0.970992	-0.479377
C50	C	-0.124648	-0.470992	0.020623
C51	C	-0.789300	-1.532002	-0.510936
C52	C	-0.289300	-1.032002	-0.010936
C53	C	-0.907606	-1.532069	-0.510967
C54	C	-0.407606	-1.032069	-0.010967
C55	C	-0.976858	-1.461259	-0.581726
C56	C	-0.476858	-0.961259	-0.081726
C57	C	-1.047730	-1.435427	-0.484991
C58	C	-0.547730	-0.935427	0.015009
C59	C	-1.047533	-1.557998	-0.607718
C60	C	-0.547533	-1.057998	-0.107718
C61	C	-0.976919	-1.506186	-0.414180
C62	C	-0.476919	-1.006186	0.085820
C63	C	-0.976716	-1.628802	-0.536973
C64	C	-0.476716	-1.128802	-0.036973
C65	C	-1.047556	-1.603007	-0.440171
C66	C	-0.547556	-1.103007	0.059829
C67	C	-0.235139	-1.532170	-0.510980
C68	C	0.264861	-1.032170	-0.010980
C69	C	-0.116833	-1.532212	-0.510994
C70	C	0.383167	-1.032212	-0.010994
C71	C	-0.512644	-1.532151	-0.787451
C72	C	-0.012644	-1.032151	-0.287451
C73	C	-0.512594	-1.532185	-0.905282
C74	C	-0.012594	-1.032185	-0.405282
C75	C	-0.512781	-0.808577	-0.510980
C76	C	-0.012781	-0.308577	-0.010980
C77	C	-0.512749	-0.926407	-0.510941
C78	C	-0.012749	-0.426407	-0.010941
C79	C	-0.430596	-1.614451	-1.072872
C80	C	0.069404	-1.114451	-0.572872
C81	C	-0.430300	-1.614187	-0.950312
C82	C	0.069700	-1.114187	-0.450312
C83	C	-0.482107	-1.420502	-0.949750
C84	C	0.017893	-0.920502	-0.449750
C85	C	-0.481485	-1.421001	-1.072348
C86	C	0.018515	-0.921001	-0.572348
C87	C	-0.625200	-1.560696	-1.072484
C88	C	-0.125200	-1.060696	-0.572484
C89	C	-0.624634	-1.563139	-0.949878
C90	C	-0.124634	-1.063139	-0.449878
C91	C	-0.512798	-1.532053	-0.235516
C92	C	-0.012798	-1.032053	0.264484
C93	C	-0.512547	-1.532225	-0.117687
C94	C	-0.012547	-1.032225	0.382313
H95	H	-0.647243	-0.941854	-0.397063
H96	H	-0.147243	-0.441854	0.102937
H97	H	-0.400678	-1.395926	-0.919051
H98	H	0.099322	-0.895926	-0.419051
H99	H	-0.539963	-1.357570	-0.920578
H100	H	-0.039963	-0.857570	-0.420578
H101	H	-0.689252	-0.940397	-0.534559
H102	H	-0.189252	-0.440397	-0.034559
H103	H	-0.399959	-1.122196	-0.646867
H104	H	0.100041	-0.622196	-0.146867
H105	H	-0.686588	-1.122641	-0.541376
H106	H	-0.186588	-0.622641	-0.041376
H107	H	-0.449449	-1.697540	-1.102372
H108	H	0.050551	-1.197540	-0.602372
H109	H	-0.347606	-1.595842	-1.103693
H110	H	0.152394	-1.095842	-0.603693
H111	H	-0.945503	-1.710522	-0.558993
H112	H	-0.445503	-1.210522	-0.058993
H113	H	-1.078402	-1.662949	-0.380274
H114	H	-0.578402	-1.162949	0.119726
H115	H	-0.346711	-0.942029	-0.448693
H116	H	0.153289	-0.442029	0.051307
H117	H	-1.078946	-1.353689	-0.463017
H118	H	-0.578946	-0.853689	0.036983
H119	H	-1.078552	-1.579871	-0.689529
H120	H	-0.578552	-1.079871	-0.189529
H121	H	-0.346849	-1.595336	-0.920996
H122	H	0.153151	-1.095336	-0.420996
H123	H	-0.946029	-1.484219	-0.332347
H124	H	-0.446029	-0.984219	0.167653
H125	H	-0.945815	-1.401271	-0.641478
H126	H	-0.445815	-0.901271	-0.141478
H127	H	-0.652954	-1.640712	-1.103477
H128	H	-0.152954	-1.140712	-0.603477
H129	H	-0.449393	-1.697002	-0.920249
H130	H	0.050607	-1.197002	-0.420249
H131	H	-0.399136	-1.396868	-1.100954
H132	H	0.100864	-0.896868	-0.600954
H133	H	-0.538577	-1.357651	-1.101991
H134	H	-0.038577	-0.857651	-0.601991
H135	H	-0.647623	-1.645328	-0.920815
H136	H	-0.147623	-1.145328	-0.420815
H137	H	-0.688980	-1.507603	-0.919222
H138	H	-0.188980	-1.007603	-0.419222
H139	H	-0.401475	-0.940300	-0.647802
H140	H	0.098525	-0.440300	-0.147802
H141	H	-0.448765	-0.941197	-0.346467
H142	H	0.051235	-0.441197	0.153533
H143	H	-0.448865	-1.123303	-0.345921
H144	H	0.051135	-0.623303	0.154079
H145	H	-0.686263	-1.500812	-1.101472
H146	H	-0.186263	-1.000812	-0.601472
H147	H	-0.539580	-1.123297	-0.685327
H148	H	-0.039580	-0.623297	-0.185327
H149	H	-0.347491	-1.124724	-0.448174
H150	H	0.152509	-0.624724	0.051826
H151	H	-0.540943	-0.941884	-0.685405
H152	H	-0.040943	-0.441884	-0.185405
H153	H	-0.652595	-1.124465	-0.401617
H154	H	-0.152595	-0.624465	0.098383
