data_functionalizedCrystal
_audit_creation_method	'MofGen! by Chris Wilmer'
_symmetry_space_group_name_H-M	'P1'
_symmetry_Int_Tables_number	1
_symmetry_cell_setting	triclinic
loop_
_symmetry_equiv_pos_as_xyz
  x,y,z
_cell_length_a	21.295419
_cell_length_b	21.295417
_cell_length_c	21.295412
_cell_angle_alpha	89.968813
_cell_angle_beta	89.983579
_cell_angle_gamma	90.045308
loop_
_atom_site_label
_atom_site_type_symbol
_atom_site_fract_x
_atom_site_fract_y
_atom_site_fract_z
Zn1	Zn	0.962305	-0.250373	-0.355911
Zn2	Zn	0.962222	-0.355642	-0.250637
Zn3	Zn	0.857043	-0.250418	-0.250656
Zn4	Zn	0.856998	-0.355636	-0.355868
O5	O	0.909642	-0.303017	-0.303268
O6	O	1.050384	-0.264321	-0.341956
O7	O	0.948255	-0.341706	-0.162550
O8	O	0.871060	-0.162323	-0.264645
O9	O	1.050323	-0.341662	-0.264611
O10	O	0.948396	-0.162290	-0.341975
O11	O	0.870980	-0.264398	-0.162564
O12	O	0.768948	-0.264392	-0.264603
O13	O	0.870983	-0.341650	-0.443963
O14	O	0.768914	-0.341694	-0.341902
O15	O	0.948351	-0.264315	-0.443995
O16	O	0.948211	-0.443731	-0.264570
O17	O	0.870902	-0.443726	-0.341883
C18	C	0.746091	-0.303048	-0.303250
C19	C	0.676122	-0.303076	-0.303258
C20	C	0.643310	-0.262870	-0.343593
C21	C	0.577567	-0.262853	-0.343596
C22	C	0.544640	-0.303053	-0.303269
C23	C	0.577460	-0.343261	-0.262926
C24	C	0.643202	-0.343273	-0.262920
N25	N	0.441365	-0.358131	-0.298349
N26	N	0.378914	-0.358119	-0.298359
C27	C	0.346565	-0.303020	-0.303283
N28	N	0.379027	-0.247934	-0.308210
N29	N	0.441485	-0.247947	-0.308205
C30	C	0.473355	-0.303045	-0.303271
C31	C	0.242467	-0.262793	-0.343624
C32	C	0.176723	-0.262775	-0.343622
C33	C	0.176618	-0.343189	-0.262955
C34	C	0.242360	-0.343202	-0.262953
C35	C	0.275281	-0.303004	-0.303291
C36	C	0.909560	-0.466569	-0.303233
C37	C	0.909582	-0.536537	-0.303239
C38	C	0.949872	-0.569385	-0.263024
C39	C	0.949902	-0.635128	-0.263038
C40	C	0.909630	-0.668020	-0.303261
C41	C	0.869337	-0.635163	-0.343485
C42	C	0.869313	-0.569422	-0.343474
N43	N	0.854562	-0.771300	-0.308054
N44	N	0.854586	-0.833751	-0.308061
C45	C	0.909700	-0.866094	-0.303297
N46	N	0.964790	-0.833627	-0.298514
N47	N	0.964765	-0.771170	-0.298504
C48	C	0.909651	-0.739305	-0.303278
C49	C	0.950026	-0.970228	-0.263095
C50	C	0.950056	-1.035972	-0.263113
C51	C	0.869486	-1.036006	-0.343557
C52	C	0.869461	-0.970263	-0.343541
C53	C	0.909730	-0.937378	-0.303307
C54	C	1.073832	-0.302987	-0.303286
C55	C	1.143801	-0.302975	-0.303294
C56	C	0.909671	-0.302977	-0.467458
C57	C	0.909684	-0.302959	-0.537426
C58	C	0.909742	-0.138827	-0.303317
C59	C	0.909785	-0.068859	-0.303338
C60	C	0.950029	-0.262591	-1.036902
C61	C	0.950024	-0.262606	-0.971160
C62	C	0.909738	-0.302876	-0.938266
C63	C	0.869465	-0.343146	-0.971121
C64	C	0.869476	-0.343134	-1.036862
N65	N	0.854617	-0.307734	-0.835037
N66	N	0.854609	-0.307742	-0.772586
C67	C	0.909705	-0.302916	-0.740191
N68	N	0.964811	-0.298069	-0.772607
N69	N	0.964819	-0.298058	-0.835065
C70	C	0.909723	-0.302894	-0.866981
C71	C	0.949973	-0.262668	-0.636059
C72	C	0.949969	-0.262688	-0.570315
C73	C	0.869405	-0.343224	-0.570278
C74	C	0.869414	-0.343208	-0.636020
C75	C	0.909697	-0.302927	-0.668907
C76	C	0.909649	-0.303012	-0.139716
C77	C	0.909759	-0.302852	-0.069749
H78	H	0.150009	-0.230031	-0.376467
C79	C	0.825495	-0.533868	-0.387161
C80	C	0.790223	-0.576740	-0.422383
C81	C	0.749845	-0.544009	-0.462627
H82	H	0.849479	-0.508170	-0.414660
H83	H	0.798039	-0.508286	-0.363064
H84	H	0.817676	-0.602310	-0.446478
H85	H	0.766227	-0.602439	-0.394900
H86	H	0.722388	-0.518428	-0.438530
H87	H	0.773833	-0.518313	-0.490122
H88	H	0.725904	-0.573093	-0.486526
C89	C	0.825562	-0.386910	-0.534652
C90	C	0.763290	-0.373223	-0.550652
C91	C	0.722886	-0.413462	-0.517849
H92	H	0.831238	-0.381192	-0.490785
H93	H	0.834714	-0.429212	-0.545426
H94	H	0.754142	-0.330932	-0.539874
H95	H	0.757594	-0.378946	-0.594513
H96	H	0.732038	-0.455764	-0.528622
H97	H	0.728568	-0.407740	-0.473983
H98	H	0.680631	-0.404185	-0.528704
H99	H	0.982767	-0.229904	-0.543573
H100	H	0.982817	-0.943452	-0.230335
C101	C	0.993527	-0.533569	-0.219369
C102	C	0.984874	-0.468964	-0.227954
C103	C	1.025072	-0.435949	-0.187746
H104	H	1.035846	-0.544213	-0.228581
H105	H	0.984336	-0.544348	-0.177054
H106	H	0.994069	-0.458190	-0.270260
H107	H	0.942563	-0.458301	-0.218738
H108	H	1.015881	-0.446728	-0.145431
H109	H	1.067388	-0.446598	-0.196961
H110	H	1.019202	-0.392111	-0.193561
H111	H	0.149809	-0.375921	-0.230120
H112	H	0.836619	-0.375991	-0.662764
H113	H	0.982869	-1.062716	-0.230366
C114	C	0.541600	-0.386885	-0.219212
C115	C	0.477003	-0.378284	-0.227863
C116	C	0.443950	-0.418464	-0.187607
H117	H	0.552290	-0.377659	-0.176907
H118	H	0.552302	-0.429208	-0.228351
H119	H	0.466305	-0.335971	-0.218719
H120	H	0.466295	-0.387515	-0.270160
H121	H	0.454653	-0.460787	-0.196747
H122	H	0.454645	-0.409235	-0.145305
H123	H	0.400118	-0.412638	-0.193475
C124	C	0.679083	-0.219328	-0.387461
C125	C	0.716795	-0.255028	-0.427751
C126	C	0.749751	-0.214937	-0.468175
H127	H	0.704796	-0.191858	-0.363504
H128	H	0.650139	-0.195391	-0.411520
H129	H	0.745735	-0.278953	-0.403695
H130	H	0.691097	-0.282495	-0.451721
H131	H	0.720808	-0.191001	-0.492233
H132	H	0.775461	-0.187470	-0.444213
H133	H	0.775338	-0.239154	-0.495520
H134	H	0.669917	-0.376014	-0.230073
H135	H	0.269076	-0.375944	-0.230110
H136	H	0.836698	-1.062786	-0.376310
H137	H	0.982774	-0.229869	-0.662837
H138	H	0.550846	-0.230110	-0.376441
C139	C	0.825640	-0.934709	-0.387222
C140	C	0.790365	-0.977582	-0.422440
C141	C	0.749984	-0.944853	-0.462682
H142	H	0.849621	-0.909012	-0.414724
H143	H	0.798185	-0.909127	-0.363124
H144	H	0.817816	-1.003153	-0.446537
H145	H	0.766371	-1.003280	-0.394955
H146	H	0.722529	-0.919271	-0.438584
H147	H	0.773970	-0.919157	-0.490180
H148	H	0.726041	-0.973937	-0.486578
C149	C	0.278101	-0.219081	-0.387438
C150	C	0.235291	-0.183851	-0.422750
C151	C	0.268092	-0.143573	-0.463113
H152	H	0.303733	-0.243135	-0.414876
H153	H	0.303755	-0.191594	-0.363423
H154	H	0.209648	-0.211335	-0.446763
H155	H	0.209658	-0.159785	-0.395329
H156	H	0.293745	-0.116085	-0.439098
H157	H	0.293722	-0.167631	-0.490547
H158	H	0.239050	-0.119660	-0.487073
H159	H	0.836548	-0.661948	-0.376236
C160	C	0.993668	-0.670689	-0.219301
C161	C	1.028918	-0.627818	-0.184053
C162	C	1.069235	-0.660551	-0.143750
H163	H	1.021147	-0.696290	-0.243336
H164	H	0.969622	-0.696366	-0.191825
H165	H	1.052962	-0.602152	-0.211526
H166	H	1.001456	-0.602215	-0.160004
H167	H	1.045189	-0.686229	-0.116274
H168	H	1.096709	-0.686152	-0.167791
H169	H	1.093152	-0.631469	-0.119825
H170	H	0.982834	-0.229793	-1.063674
C171	C	0.993769	-0.218819	-0.935601
C172	C	1.029038	-0.183530	-0.978473
C173	C	1.069335	-0.143181	-0.945742
H174	H	1.021236	-0.242823	-0.909945
H175	H	0.969708	-0.191371	-0.909978
H176	H	1.053098	-0.210975	-1.004085
H177	H	1.001588	-0.159513	-1.004130
H178	H	1.045273	-0.115733	-0.920118
H179	H	1.096798	-0.167190	-0.920087
H180	H	1.093266	-0.119228	-0.974825
C181	C	0.825748	-0.386798	-0.935298
C182	C	0.834345	-0.378179	-0.870693
C183	C	0.794079	-0.418379	-0.837674
H184	H	0.834899	-0.429116	-0.945980
H185	H	0.783446	-0.377588	-0.946035
H186	H	0.876637	-0.387394	-0.859960
H187	H	0.825189	-0.335870	-0.859992
H188	H	0.751777	-0.409168	-0.848411
H189	H	0.803233	-0.460694	-0.848362
H190	H	0.799902	-0.412532	-0.793837
C191	C	0.825679	-0.386869	-1.072415
C192	C	0.790386	-0.422132	-1.029541
C193	C	0.750027	-0.462421	-1.062270
H194	H	0.849677	-0.414341	-1.098058
H195	H	0.798234	-0.362803	-1.098049
H196	H	0.817827	-0.446197	-1.003917
H197	H	0.766376	-0.394677	-1.003896
H198	H	0.722582	-0.438354	-1.087905
H199	H	0.774030	-0.489888	-1.087912
H200	H	0.726072	-0.486348	-1.033185
