data_functionalizedCrystal
_audit_creation_method	'MofGen! by Chris Wilmer'
_symmetry_space_group_name_H-M	'P1'
_symmetry_Int_Tables_number	1
_symmetry_cell_setting	triclinic
loop_
_symmetry_equiv_pos_as_xyz
  x,y,z
_cell_length_a	11.169417
_cell_length_b	15.297327
_cell_length_c	15.296720
_cell_angle_alpha	107.319222
_cell_angle_beta	99.664426
_cell_angle_gamma	99.707226
loop_
_atom_site_label
_atom_site_type_symbol
_atom_site_fract_x
_atom_site_fract_y
_atom_site_fract_z
Zn1	Zn	1.592726	-0.461193	-0.589759
Zn2	Zn	1.592590	-0.589815	-0.461153
Zn3	Zn	1.434032	-0.434324	-0.434284
Zn4	Zn	1.349984	-0.616662	-0.616609
O5	O	1.492333	-0.525499	-0.525451
O6	O	1.760654	-0.478264	-0.572707
O7	O	1.606674	-0.546708	-0.327463
O8	O	1.490314	-0.307751	-0.432427
O9	O	1.760554	-0.572762	-0.478221
O10	O	1.606907	-0.327492	-0.546653
O11	O	1.490182	-0.432470	-0.307723
O12	O	1.254937	-0.458503	-0.458462
O13	O	1.347067	-0.618519	-0.743173
O14	O	1.193187	-0.592465	-0.592415
O15	O	1.525408	-0.504297	-0.723446
O16	O	1.525176	-0.723514	-0.504256
O17	O	1.346934	-0.743238	-0.618469
C18	C	1.180515	-0.525483	-0.525437
C19	C	1.047106	-0.525502	-0.525457
C20	C	1.426947	-0.767123	-0.567212
C21	C	1.399076	-0.870496	-0.585109
C22	C	1.691939	-1.120712	-0.397859
C23	C	1.718126	-1.023587	-0.381040
C24	C	1.638366	-0.985310	-0.432056
C25	C	1.532414	-1.044167	-0.499894
C26	C	1.506220	-1.141300	-0.516710
C27	C	1.452647	-1.005898	-0.550906
C28	C	1.346695	-1.064755	-0.618744
C29	C	1.320506	-1.161879	-0.635557
C30	C	1.400265	-1.200156	-0.584541
C31	C	1.478841	-0.908764	-0.534090
C32	C	1.293122	-0.929352	-0.652940
C33	C	1.266935	-1.026477	-0.669760
C34	C	1.805368	-0.525516	-0.525466
C35	C	1.938765	-0.525523	-0.525473
C36	C	1.426877	-0.567400	-0.767993
C37	C	1.398984	-0.585256	-0.871350
C38	C	1.558001	-0.282935	-0.483548
C39	C	1.585985	-0.179568	-0.465691
C40	C	1.691779	-0.397718	-1.121615
C41	C	1.717993	-0.380943	-1.024506
C42	C	1.638243	-0.432019	-0.986212
C43	C	1.532274	-0.499874	-1.045037
C44	C	1.506063	-0.516656	-1.142156
C45	C	1.452527	-0.550957	-1.006753
C46	C	1.346559	-0.618812	-1.065577
C47	C	1.320351	-0.635590	-1.162687
C48	C	1.400101	-0.584514	-1.200981
C49	C	1.478739	-0.534176	-0.909634
C50	C	1.293023	-0.653114	-0.930175
C51	C	1.266809	-0.669889	-1.027283
C52	C	1.557621	-0.483693	-0.283842
C53	C	1.585817	-0.465576	-0.180440
H54	H	1.659693	-0.906225	-0.418356
N55	N	1.206064	-0.708778	-1.226137
H56	H	1.232297	-0.758840	-1.273874
H57	H	1.159566	-0.738516	-1.187077
H58	H	1.228085	-0.694706	-0.898997
N59	N	1.593120	-0.845297	-0.460934
H60	H	1.649372	-0.811485	-0.491776
H61	H	1.566788	-0.797650	-0.410859
H62	H	1.180528	-0.725136	-1.075192
H63	H	1.180668	-1.074412	-0.724994
N64	N	1.206233	-1.225368	-0.708720
H65	H	1.149983	-1.259181	-0.677878
H66	H	1.159774	-1.186330	-0.738471
H67	H	1.804390	-0.975669	-0.325806
H68	H	1.756862	-1.151887	-0.356324
H69	H	1.756705	-0.356144	-1.152805
N70	N	1.372020	-1.304916	-0.602686
H71	H	1.438629	-1.320230	-0.560076
H72	H	1.287981	-1.325343	-0.589615
H73	H	1.228172	-0.898187	-0.694480
H74	H	1.565018	-0.478927	-0.861748
H75	H	1.804275	-0.325698	-0.976619
H76	H	1.659593	-0.418357	-0.907141
N77	N	1.371799	-0.602584	-1.305718
H78	H	1.438391	-0.559919	-1.321045
H79	H	1.370236	-0.670438	-1.340090
