data_functionalizedCrystal
_audit_creation_method	'MofGen! by Chris Wilmer'
_symmetry_space_group_name_H-M	'P1'
_symmetry_Int_Tables_number	1
_symmetry_cell_setting	triclinic
loop_
_symmetry_equiv_pos_as_xyz
  x,y,z
_cell_length_a	10.654553
_cell_length_b	9.616153
_cell_length_c	10.654550
_cell_angle_alpha	89.994644
_cell_angle_beta	95.514460
_cell_angle_gamma	90.002658
loop_
_atom_site_label
_atom_site_type_symbol
_atom_site_fract_x
_atom_site_fract_y
_atom_site_fract_z
O1	O	1.667834	0.115657	-0.176421
O2	O	1.302356	0.115656	-0.193223
O3	O	1.493498	0.115652	-0.002083
O4	O	1.476692	0.115662	-0.367561
O5	O	1.493491	-0.115640	-0.002069
O6	O	1.302349	-0.115635	-0.193210
O7	O	1.667827	-0.115634	-0.176408
Zn8	Zn	1.485087	-0.152357	-0.184806
Zn9	Zn	1.485097	0.152379	-0.184824
O10	O	1.476685	-0.115629	-0.367548
C11	C	1.255555	0.000011	-0.191982
C12	C	1.116112	0.000010	-0.188288
C13	C	0.919567	-0.126057	-0.183067
C14	C	1.050588	-0.126065	-0.186545
C15	C	1.050606	0.126102	-0.186567
C16	C	0.919587	0.126108	-0.183098
C17	C	0.919559	-0.271644	-0.183049
C18	C	1.050579	-0.271652	-0.186527
N19	N	1.485089	-0.360331	-0.184794
C20	C	1.587719	-0.580661	-0.082899
C21	C	1.587442	-0.419493	-0.082510
C22	C	1.353811	-0.418864	-0.155029
C23	C	1.354421	-0.580081	-0.154315
C24	C	1.512588	-0.580202	-0.316809
C25	C	1.515551	-0.418974	-0.315945
C26	C	1.714628	0.000015	-0.177649
C27	C	1.854072	0.000024	-0.181342
C28	C	1.492261	0.000008	0.044722
C29	C	1.488569	0.000013	0.184165
N30	N	1.485104	0.360354	-0.184827
C31	C	1.477922	0.000018	-0.414352
C32	C	1.481614	0.000022	-0.553796
C33	C	1.601110	0.000009	0.263650
C34	C	1.597634	0.000018	0.394670
C35	C	1.369064	0.000030	0.366710
C36	C	1.372542	0.000030	0.235691
C37	C	1.733073	-0.000004	0.279794
C38	C	1.729596	0.000006	0.410815
H39	H	0.866263	0.228776	-0.181709
F40	F	0.880887	-0.330852	-0.063392
F41	F	1.111079	-0.344712	-0.073078
F42	F	1.414798	-0.630066	-0.415972
F43	F	1.089228	-0.330700	-0.306248
F44	F	1.251539	-0.631089	-0.247579
F45	F	1.564940	-0.633630	0.044367
H46	H	1.103964	0.228754	-0.187999
H47	H	1.775091	-0.099871	0.244172
H48	H	1.275561	-0.380544	-0.227240
F49	F	1.781726	0.130533	0.470472
H50	H	1.274599	0.000046	0.408679
F51	F	1.641781	-0.368960	-0.345442
F52	F	1.714941	-0.367761	-0.105914
F53	F	1.800540	0.126502	0.241406
H54	H	1.569762	-0.380942	0.015415
F55	F	1.635126	-0.633318	-0.353831
H56	H	0.873273	-0.327542	-0.269836
F57	F	1.715654	-0.631311	-0.105938
H58	H	1.445740	-0.378698	-0.395432
H59	H	1.779315	-0.096787	0.452580
F60	F	1.321638	-0.366115	-0.030591
F61	F	1.322987	-0.629258	-0.028459
H62	H	1.280900	0.000053	0.170979
