data_functionalizedCrystal
_audit_creation_method	'MofGen! by Chris Wilmer'
_symmetry_space_group_name_H-M	'P1'
_symmetry_Int_Tables_number	1
_symmetry_cell_setting	triclinic
loop_
_symmetry_equiv_pos_as_xyz
  x,y,z
_cell_length_a	15.944551
_cell_length_b	14.519731
_cell_length_c	12.996460
_cell_angle_alpha	89.992872
_cell_angle_beta	89.998907
_cell_angle_gamma	83.593796
loop_
_atom_site_label
_atom_site_type_symbol
_atom_site_fract_x
_atom_site_fract_y
_atom_site_fract_z
O1	O	1.114706	0.118942	-0.085462
O2	O	1.448039	0.452275	0.247872
O3	O	1.781373	0.785609	0.581205
O4	O	0.870179	0.133606	-0.085488
O5	O	1.203512	0.466940	0.247846
O6	O	1.536845	0.800273	0.581179
O7	O	0.998916	-0.007974	-0.085465
O8	O	1.332250	0.325359	0.247869
O9	O	1.665583	0.658692	0.581202
O10	O	0.985969	0.260523	-0.085485
O11	O	1.319302	0.593856	0.247849
O12	O	1.652635	0.927189	0.581182
O13	O	0.998903	-0.007982	0.085669
O14	O	1.332236	0.325351	0.419002
O15	O	1.665570	0.658685	0.752336
O16	O	0.870165	0.133598	0.085646
O17	O	1.203499	0.466932	0.418979
O18	O	1.536832	0.800265	0.752313
O19	O	1.114693	0.118934	0.085672
O20	O	1.448026	0.452268	0.419005
O21	O	1.781359	0.785601	0.752339
Cu22	Cu	0.992428	0.126266	0.101285
Cu23	Cu	1.325761	0.459599	0.434618
Cu24	Cu	1.659094	0.792932	0.767952
Cu25	Cu	0.992444	0.126275	-0.101101
Cu26	Cu	1.325777	0.459608	0.232233
Cu27	Cu	1.659110	0.792941	0.565566
O28	O	0.985955	0.260515	0.085649
O29	O	1.319288	0.593848	0.418982
O30	O	1.652622	0.927181	0.752316
C31	C	0.838877	0.132993	0.000076
C32	C	1.172211	0.466327	0.333409
C33	C	1.505544	0.799660	0.666743
C34	C	0.745628	0.131168	0.000066
C35	C	1.078962	0.464502	0.333400
C36	C	1.412295	0.797835	0.666733
C37	C	0.998303	-0.042337	0.000102
C38	C	1.331636	0.290997	0.333436
C39	C	1.664970	0.624330	0.666769
C40	C	0.996485	-0.144714	0.000103
C41	C	1.329818	0.188620	0.333436
C42	C	1.663152	0.521953	0.666769
C43	C	0.530632	0.039048	0.000093
C44	C	0.863965	0.372381	0.333427
C45	C	1.197298	0.705714	0.666760
C46	C	0.469683	0.081829	-0.084288
C47	C	0.803017	0.415163	0.249045
C48	C	1.136350	0.748496	0.582379
C49	C	0.574898	0.127867	0.000079
C50	C	0.908231	0.461200	0.333412
C51	C	1.241564	0.794533	0.666745
C52	C	0.469692	0.081843	0.084437
C53	C	0.803026	0.415176	0.417770
C54	C	1.136359	0.748509	0.751103
C55	C	0.409980	0.124671	0.000095
C56	C	0.743313	0.458004	0.333429
C57	C	1.076647	0.791338	0.666762
C58	C	0.515177	0.170673	-0.084372
C59	C	0.848511	0.504006	0.248961
C60	C	1.181844	0.837339	0.582295
C61	C	0.515193	0.170674	0.084428
C62	C	0.848526	0.504007	0.417762
C63	C	1.181859	0.837340	0.751095
C64	C	0.454262	0.213520	0.000026
C65	C	0.787595	0.546853	0.333360
C66	C	1.120929	0.880186	0.666693
C67	C	0.669903	0.129705	0.000068
C68	C	1.003236	0.463039	0.333402
C69	C	1.336569	0.796372	0.666735
C70	C	0.314976	0.122839	0.000098
C71	C	0.648309	0.456173	0.333432
C72	C	0.981643	0.789506	0.666765
C73	C	0.995008	-0.227855	0.000100
C74	C	1.328341	0.105478	0.333434
C75	C	1.661675	0.438811	0.666767
C76	C	0.993162	-0.332161	0.000092
C77	C	1.326495	0.001173	0.333426
C78	C	1.659829	0.334506	0.666759
C79	C	0.991697	-0.415297	0.000085
C80	C	1.325030	-0.081964	0.333419
C81	C	1.658364	0.251369	0.666752
C82	C	0.989851	-0.519609	0.000079
C83	C	1.323185	-0.186276	0.333413
C84	C	1.656518	0.147057	0.666746
C85	C	1.145994	0.119547	0.000106
C86	C	1.479328	0.452880	0.333439
C87	C	1.812661	0.786214	0.666773
C88	C	1.239243	0.121372	0.000109
C89	C	1.572576	0.454705	0.333442
C90	C	1.905910	0.788039	0.666776
C91	C	0.986569	0.294877	0.000080
C92	C	1.319902	0.628210	0.333413
C93	C	1.653235	0.961544	0.666746
C94	C	0.988386	0.397254	0.000072
C95	C	1.321720	0.730587	0.333406
C96	C	1.655053	1.063921	0.666739
N97	N	0.992423	0.126258	0.243632
N98	N	1.325756	0.459592	0.576965
N99	N	1.659089	0.792925	0.910299
N100	N	0.992455	0.126275	-0.243448
N101	N	1.325789	0.459608	0.089886
N102	N	1.659122	0.792941	0.423219
C103	C	0.992443	0.126276	0.663446
C104	C	1.325776	0.459609	0.996780
C105	C	1.659109	0.792942	1.330113
C106	C	0.992435	0.126274	0.546641
C107	C	1.325768	0.459607	0.879975
C108	C	1.659101	0.792941	1.213308
C109	C	0.992433	0.126268	0.453543
C110	C	1.325766	0.459601	0.786876
C111	C	1.659100	0.792935	1.120210
C112	C	0.992424	0.126265	0.336730
C113	C	1.325758	0.459598	0.670064
C114	C	1.659091	0.792931	1.003397
H115	H	0.563852	-0.034665	-0.000006
H116	H	0.897186	0.298669	0.333328
H117	H	1.230519	0.632002	0.666661
H118	H	0.535228	0.208214	-0.155788
H119	H	0.868561	0.541548	0.177546
H120	H	1.201894	0.874881	0.510879
H121	H	0.449521	0.044266	-0.155621
H122	H	0.782855	0.377599	0.177712
H123	H	1.116188	0.710933	0.511046
H124	H	0.449543	0.044256	0.155772
H125	H	0.782877	0.377590	0.489105
H126	H	1.116210	0.710923	0.822438
H127	H	0.535375	0.208206	0.155764
H128	H	0.868709	0.541539	0.489098
H129	H	1.202042	0.874873	0.822431
H130	H	0.421216	0.287308	-0.000026
H131	H	0.754549	0.620641	0.333307
H132	H	1.087882	0.953975	0.666640
