data_functionalizedCrystal
_audit_creation_method	'MofGen! by Chris Wilmer'
_symmetry_space_group_name_H-M	'P1'
_symmetry_Int_Tables_number	1
_symmetry_cell_setting	triclinic
loop_
_symmetry_equiv_pos_as_xyz
  x,y,z
_cell_length_a	10.489741
_cell_length_b	17.038272
_cell_length_c	8.965430
_cell_angle_alpha	90.000179
_cell_angle_beta	89.998843
_cell_angle_gamma	87.825365
loop_
_atom_site_label
_atom_site_type_symbol
_atom_site_fract_x
_atom_site_fract_y
_atom_site_fract_z
O1	O	1.704377	0.110369	-0.123948
O2	O	2.204377	0.610369	0.376052
O3	O	1.334150	0.120730	-0.123972
O4	O	1.834150	0.620730	0.376028
O5	O	1.517063	0.001722	-0.123948
O6	O	2.017063	0.501722	0.376052
O7	O	1.521464	0.229378	-0.123972
O8	O	2.021464	0.729378	0.376028
O9	O	1.517047	0.001729	0.124130
O10	O	2.017047	0.501729	0.624130
O11	O	1.334134	0.120738	0.124107
O12	O	1.834134	0.620738	0.624107
O13	O	1.704361	0.110377	0.124130
O14	O	2.204361	0.610377	0.624130
Cu15	Cu	1.519246	0.115558	0.146770
Cu16	Cu	2.019246	0.615558	0.646770
Cu17	Cu	1.519265	0.115549	-0.146612
Cu18	Cu	2.019265	0.615549	0.353388
O19	O	1.521448	0.229386	0.124107
O20	O	2.021448	0.729386	0.624107
C21	C	1.286537	0.119951	0.000065
C22	C	1.786537	0.619951	0.500065
C23	C	1.144689	0.117610	0.000056
C24	C	1.644689	0.617610	0.500056
C25	C	1.069466	0.041889	0.000078
C26	C	1.569466	0.541889	0.500078
C27	C	0.980693	0.077655	-0.122238
C28	C	1.480693	0.577655	0.377762
C29	C	0.980713	0.077681	0.122348
C30	C	1.480713	0.577681	0.622348
C31	C	1.057784	0.153408	-0.122361
C32	C	1.557784	0.653408	0.377639
C33	C	1.057813	0.153423	0.122335
C34	C	1.557813	0.653423	0.622335
C35	C	0.969072	0.189244	-0.000011
C36	C	1.469072	0.689244	0.499989
C37	C	1.513053	-0.027426	0.000091
C38	C	2.013053	0.472574	0.500091
C39	C	1.501111	-0.114288	0.000089
C40	C	2.001111	0.385712	0.500089
C41	C	1.610749	-0.163767	0.000098
C42	C	2.110749	0.336233	0.500098
C43	C	1.599521	-0.245383	0.000083
C44	C	2.099521	0.254617	0.500083
C45	C	1.478654	-0.277518	0.000070
C46	C	1.978654	0.222482	0.500070
C47	C	1.369007	-0.228032	0.000057
C48	C	1.869007	0.271968	0.500057
C49	C	1.380237	-0.146418	0.000062
C50	C	1.880237	0.353582	0.500062
C51	C	1.438983	-0.523505	0.000047
C52	C	1.938983	-0.023505	0.500047
C53	C	1.427762	-0.605126	0.000048
C54	C	1.927762	-0.105126	0.500048
C55	C	1.658277	-0.622471	0.000071
C56	C	2.158277	-0.122471	0.500071
C57	C	1.669495	-0.540855	0.000084
C58	C	2.169495	-0.040855	0.500084
C59	C	1.559849	-0.491376	0.000063
C60	C	2.059849	0.008624	0.500063
C61	C	1.467174	-0.360942	0.000060
C62	C	1.967174	0.139058	0.500060
C63	C	1.571330	-0.407954	0.000063
C64	C	2.071330	0.092046	0.500063
C65	C	1.751974	0.111156	0.000091
C66	C	2.251974	0.611156	0.500091
C67	C	1.893822	0.113497	0.000089
C68	C	2.393822	0.613497	0.500089
C69	C	1.525458	0.258533	0.000065
C70	C	2.025458	0.758533	0.500065
C71	C	1.537400	0.345395	0.000056
C72	C	2.037400	0.845395	0.500056
N73	N	1.519243	0.115564	0.353119
N74	N	2.019243	0.615564	0.853119
N75	N	1.519278	0.115537	-0.352961
N76	N	2.019278	0.615537	0.147039
C77	C	1.434622	0.170583	0.450415
C78	C	1.934622	0.670583	0.950415
C79	C	1.551599	0.186413	0.549834
C80	C	2.051599	0.686413	1.049834
C81	C	1.402315	0.099741	0.549828
C82	C	1.902315	0.599741	1.049828
C83	C	1.636282	0.131430	0.450350
C84	C	2.136282	0.631430	0.950350
C85	C	1.486918	0.044727	0.450335
C86	C	1.986918	0.544727	0.950335
C87	C	1.603976	0.060527	0.549709
C88	C	2.103976	0.560527	1.049709
H89	H	1.113334	-0.020359	-0.000069
H90	H	1.613334	0.479641	0.499931
H91	H	1.329333	-0.631286	0.000062
H92	H	1.829333	-0.131286	0.500062
F93	F	0.912085	0.270691	-0.000103
F94	F	1.412085	0.770691	0.499897
F95	F	1.765590	0.148998	0.393482
F96	F	2.265590	0.648998	0.893482
F97	F	1.341184	0.231453	0.393422
F98	F	1.841184	0.731453	0.893422
F99	F	1.716214	-0.298039	0.000095
F100	F	2.216214	0.201961	0.500095
F101	F	1.101995	0.195249	-0.257679
F102	F	1.601995	0.695249	0.242321
F103	F	1.697637	-0.000306	0.606346
F104	F	2.197637	0.499694	1.106346
F105	F	1.451107	-0.033535	0.393161
F106	F	1.951107	0.466465	0.893161
F107	F	1.102301	0.195271	0.257499
F108	F	1.602301	0.695271	0.757499
F109	F	1.273048	0.082263	0.606946
F110	F	1.773048	0.582263	1.106946
H111	H	0.946731	0.045631	0.225757
H112	H	1.446731	0.545631	0.725757
H113	H	0.946688	0.045612	-0.225643
H114	H	1.446688	0.545612	0.274357
H115	H	1.767918	-0.514697	0.000094
H116	H	2.267918	-0.014697	0.500094
F117	F	1.739394	-0.129575	0.000126
F118	F	2.239394	0.370425	0.500126
H119	H	1.368763	-0.387115	0.000053
H120	H	1.868763	0.112885	0.500053
H121	H	1.747544	-0.662765	0.000085
H122	H	2.247544	-0.162765	0.500085
H123	H	1.349700	-0.483229	0.000031
H124	H	1.849700	0.016771	0.500031
F125	F	1.587368	0.264698	0.606960
F126	F	2.087368	0.764698	1.106960
F127	F	1.240371	-0.262234	0.000027
F128	F	1.740371	0.237766	0.500027
H129	H	1.290957	-0.106132	0.000054
H130	H	1.790957	0.393868	0.500054
H131	H	1.669740	-0.381786	0.000040
H132	H	2.169740	0.118214	0.500040
