data_functionalizedCrystal
_audit_creation_method	'MofGen! by Chris Wilmer'
_symmetry_space_group_name_H-M	'P1'
_symmetry_Int_Tables_number	1
_symmetry_cell_setting	triclinic
loop_
_symmetry_equiv_pos_as_xyz
  x,y,z
_cell_length_a	19.121102
_cell_length_b	21.295417
_cell_length_c	19.121277
_cell_angle_alpha	87.575578
_cell_angle_beta	89.900604
_cell_angle_gamma	87.583861
loop_
_atom_site_label
_atom_site_type_symbol
_atom_site_fract_x
_atom_site_fract_y
_atom_site_fract_z
Zn1	Zn	1.054737	-0.308022	0.442034
Zn2	Zn	1.388070	0.025311	0.775368
Zn3	Zn	1.721404	0.358645	1.108701
Zn4	Zn	1.059669	-0.408970	0.324791
Zn5	Zn	1.393003	-0.075636	0.658124
Zn6	Zn	1.726336	0.257697	0.991457
Zn7	Zn	0.942529	-0.299041	0.319820
Zn8	Zn	1.275863	0.034293	0.653153
Zn9	Zn	1.609196	0.367626	0.986487
Zn10	Zn	0.937460	-0.408572	0.436992
Zn11	Zn	1.270794	-0.075239	0.770325
Zn12	Zn	1.604127	0.258095	1.103659
O13	O	0.998599	-0.356151	0.380909
O14	O	1.331932	-0.022818	0.714243
O15	O	1.665266	0.310516	1.047576
O16	O	1.153496	-0.325338	0.430672
O17	O	1.486829	0.007995	0.764005
O18	O	1.820162	0.341329	1.097339
O19	O	1.048316	-0.390795	0.226028
O20	O	1.381650	-0.057462	0.559361
O21	O	1.714983	0.275872	0.892694
O22	O	0.957471	-0.212146	0.336062
O23	O	1.290804	0.121187	0.669395
O24	O	1.624138	0.454521	1.002728
O25	O	1.157119	-0.399504	0.344534
O26	O	1.490453	-0.066170	0.677867
O27	O	1.823786	0.267163	1.011200
O28	O	1.039910	-0.218745	0.425852
O29	O	1.373243	0.114589	0.759185
O30	O	1.706576	0.447922	1.092519
O31	O	0.962254	-0.310031	0.222376
O32	O	1.295587	0.023303	0.555709
O33	O	1.628921	0.356636	0.889042
O34	O	0.843753	-0.309645	0.331173
O35	O	1.177086	0.023688	0.664506
O36	O	1.510419	0.357021	0.997839
O37	O	0.948831	-0.398826	0.535765
O38	O	1.282165	-0.065493	0.869098
O39	O	1.615498	0.267840	1.202431
O40	O	0.840028	-0.390117	0.417259
O41	O	1.173362	-0.056784	0.750592
O42	O	1.506695	0.276549	1.083925
O43	O	1.034994	-0.324953	0.539469
O44	O	1.368328	0.008381	0.872803
O45	O	1.701661	0.341714	1.206136
O46	O	1.043401	-0.497003	0.339645
O47	O	1.376734	-0.163670	0.672978
O48	O	1.710068	0.169664	1.006311
O49	O	0.953614	-0.496711	0.422079
O50	O	1.286948	-0.163377	0.755412
O51	O	1.620281	0.169956	1.088745
C52	C	0.816453	-0.348864	0.373129
C53	C	1.149786	-0.015531	0.706463
C54	C	1.483120	0.317803	1.039796
C55	C	0.738530	-0.345762	0.369818
C56	C	1.071863	-0.012429	0.703151
C57	C	1.405196	0.320904	1.036484
C58	C	0.998511	-0.519698	0.380870
C59	C	1.331845	-0.186365	0.714203
C60	C	1.665178	0.146969	1.047537
C61	C	0.998537	-0.589667	0.380879
C62	C	1.331870	-0.256334	0.714213
C63	C	1.665203	0.076999	1.047546
C64	C	0.700003	-0.386261	0.413012
C65	C	1.033337	-0.052928	0.746345
C66	C	1.366670	0.280406	1.079679
C67	C	0.626786	-0.383338	0.409904
C68	C	0.960119	-0.050005	0.743237
C69	C	1.293452	0.283328	1.076570
C70	C	0.592096	-0.339920	0.363597
C71	C	0.925429	-0.006587	0.696931
C72	C	1.258763	0.326747	1.030264
C73	C	0.630627	-0.299417	0.320401
C74	C	0.963961	0.033916	0.653735
C75	C	1.297294	0.367250	0.987068
C76	C	0.703844	-0.302337	0.323514
C77	C	1.037177	0.030996	0.656847
C78	C	1.370510	0.364330	0.990180
C79	C	0.371127	-0.329002	0.351965
C80	C	0.704460	0.004332	0.685298
C81	C	1.037793	0.337665	1.018631
C82	C	0.297905	-0.326086	0.348854
C83	C	0.631239	0.007247	0.682188
C84	C	0.964572	0.340580	1.015521
C85	C	0.294068	-0.410007	0.438358
C86	C	0.627402	-0.076674	0.771691
C87	C	0.960735	0.256660	1.105024
C88	C	0.367286	-0.412926	0.441463
C89	C	0.700620	-0.079592	0.774796
C90	C	1.033953	0.253741	1.108130
C91	C	0.405811	-0.372421	0.398270
C92	C	0.739145	-0.039087	0.731603
C93	C	1.072478	0.294246	1.064936
C94	C	0.517256	-0.336933	0.360418
C95	C	0.850589	-0.003600	0.693751
C96	C	1.183923	0.329734	1.027084
C97	C	0.480650	-0.375405	0.401454
C98	C	0.813983	-0.042072	0.734787
C99	C	1.147316	0.291262	1.068120
C100	C	1.041435	-0.625913	0.427664
C101	C	1.374769	-0.292579	0.760997
C102	C	1.708102	0.040754	1.094331
C103	C	1.041459	-0.691657	0.427682
C104	C	1.374793	-0.358324	0.761016
C105	C	1.708126	-0.024990	1.094349
C106	C	0.998593	-0.721153	0.380904
C107	C	1.331926	-0.387820	0.714237
C108	C	1.665259	-0.054486	1.047571
C109	C	0.955685	-0.684899	0.334116
C110	C	1.289019	-0.351566	0.667449
C111	C	1.622352	-0.018232	1.000782
C112	C	0.955657	-0.619156	0.334103
C113	C	1.288991	-0.285823	0.667437
C114	C	1.622324	0.047510	1.000770
N115	N	0.995929	-0.821943	0.319325
N116	N	1.329263	-0.488610	0.652658
N117	N	1.662596	-0.155276	0.985991
N118	N	0.995960	-0.884396	0.319339
N119	N	1.329293	-0.551063	0.652672
N120	N	1.662627	-0.217730	0.986005
C121	C	0.998673	-0.919232	0.380939
C122	C	1.332006	-0.585899	0.714272
C123	C	1.665340	-0.252565	1.047606
N124	N	1.001368	-0.889256	0.442527
N125	N	1.334702	-0.555922	0.775860
N126	N	1.668035	-0.222589	1.109194
N127	N	1.001341	-0.826797	0.442512
N128	N	1.334675	-0.493464	0.775846
N129	N	1.668008	-0.160130	1.109179
C130	C	0.998618	-0.792440	0.380912
C131	C	1.331951	-0.459106	0.714246
C132	C	1.665285	-0.125773	1.047579
C133	C	1.041600	-1.026765	0.427748
C134	C	1.374933	-0.693432	0.761081
C135	C	1.708267	-0.360098	1.094414
C136	C	1.041619	-1.092510	0.427767
C137	C	1.374952	-0.759177	0.761100
C138	C	1.708286	-0.425844	1.094434
C139	C	0.955849	-1.085751	0.334194
C140	C	1.289182	-0.752418	0.667527
C141	C	1.622516	-0.419084	1.000861
C142	C	0.955826	-1.020007	0.334181
C143	C	1.289159	-0.686674	0.667514
C144	C	1.622493	-0.353340	1.000847
C145	C	0.998705	-0.990518	0.380957
C146	C	1.332039	-0.657185	0.714290
C147	C	1.665372	-0.323852	1.047623
C148	C	1.181456	-0.363467	0.388720
C149	C	1.514789	-0.030134	0.722053
C150	C	1.848123	0.303200	1.055387
C151	C	1.259379	-0.366585	0.392048
C152	C	1.592712	-0.033251	0.725382
C153	C	1.926046	0.300082	1.058715
C154	C	0.990797	-0.362847	0.563765
C155	C	1.324131	-0.029514	0.897099
C156	C	1.657464	0.303820	1.230432
C157	C	0.987473	-0.365700	0.641688
C158	C	1.320806	-0.032367	0.975021
C159	C	1.654139	0.300966	1.308355
C160	C	0.998706	-0.191967	0.380965
C161	C	1.332039	0.141366	0.714298
C162	C	1.665372	0.474700	1.047632
C163	C	0.998751	-0.122002	0.380989
C164	C	1.332084	0.211332	0.714322
C165	C	1.665418	0.544665	1.047655
C166	C	1.030769	-0.328581	0.680226
C167	C	1.364102	0.004753	1.013559
C168	C	1.697435	0.338086	1.346892
C169	C	1.027636	-0.331259	0.753442
C170	C	1.360970	0.002074	1.086775
C171	C	1.694303	0.335408	1.420108
C172	C	0.981211	-0.371061	0.788119
C173	C	1.314544	-0.037727	1.121452
C174	C	1.647877	0.295606	1.454785
C175	C	0.937910	-0.408182	0.749576
C176	C	1.271243	-0.074848	1.082909
C177	C	1.604577	0.258485	1.416242
C178	C	0.941039	-0.405500	0.676361
C179	C	1.274373	-0.072166	1.009694
C180	C	1.607706	0.261167	1.343027
C181	C	0.969515	-0.381080	1.009083
C182	C	1.302848	-0.047746	1.342417
C183	C	1.636181	0.285587	1.675750
C184	C	0.966390	-0.383760	1.082304
C185	C	1.299723	-0.050427	1.415637
C186	C	1.633057	0.282906	1.748970
C187	C	1.056116	-0.306836	1.086165
C188	C	1.389449	0.026497	1.419498
C189	C	1.722782	0.359830	1.752831
C190	C	1.059244	-0.304161	1.012948
C191	C	1.392577	0.029173	1.346282
C192	C	1.725911	0.362506	1.679615
C193	C	1.015941	-0.341279	0.974412
C194	C	1.349274	-0.007946	1.307745
C195	C	1.682607	0.325388	1.641078
C196	C	0.978009	-0.373801	0.862957
C197	C	1.311343	-0.040467	1.196291
C198	C	1.644676	0.292866	1.529624
C199	C	1.019139	-0.338535	0.899574
C200	C	1.352472	-0.005202	1.232908
C201	C	1.685806	0.328131	1.566241
C202	C	1.006364	-0.349495	1.198764
C203	C	1.339698	-0.016162	1.532097
C204	C	1.673031	0.317172	1.865431
C205	C	1.009686	-0.346641	1.120841
C206	C	1.343019	-0.013307	1.454175
C207	C	1.676353	0.320026	1.787508
H208	H	0.728242	-0.421619	0.450717
H209	H	1.061576	-0.088286	0.784051
H210	H	1.394909	0.245048	1.117384
H211	H	0.920941	-1.109766	0.296110
H212	H	1.254275	-0.776432	0.629443
H213	H	1.587608	-0.443099	0.962777
H214	H	0.395526	-0.448283	0.479169
H215	H	0.728859	-0.114950	0.812502
H216	H	1.062192	0.218384	1.145836
F217	F	1.087123	-0.730240	0.477476
F218	F	1.420457	-0.396906	0.810810
F219	F	1.753790	-0.063573	1.144143
F220	F	0.412118	-0.285891	0.305996
F221	F	0.745452	0.047443	0.639329
F222	F	1.078785	0.380776	0.972663
H223	H	0.920781	-0.708919	0.296030
H224	H	1.254115	-0.375585	0.629363
H225	H	1.587448	-0.042252	0.962696
F226	F	0.585786	-0.426443	0.455877
F227	F	0.919120	-0.093109	0.789211
F228	F	1.252453	0.240224	1.122544
F229	F	0.593706	-0.253204	0.271123
F230	F	0.927039	0.080129	0.604456
F231	F	1.260373	0.413463	0.937790
H232	H	0.735211	-0.269356	0.288344
H233	H	1.068544	0.063978	0.621677
H234	H	1.401877	0.397311	0.955011
H235	H	0.920723	-0.589644	0.296005
H236	H	1.254057	-0.256311	0.629338
H237	H	1.587390	0.077023	0.962671
F238	F	0.517571	-0.421612	0.450735
F239	F	0.850904	-0.088278	0.784069
F240	F	1.184237	0.245055	1.117402
F241	F	0.910167	-0.981430	0.284385
F242	F	1.243501	-0.648097	0.617718
F243	F	1.576834	-0.314764	0.951051
F244	F	0.923427	-0.420585	0.968079
F245	F	1.256760	-0.087252	1.301412
F246	F	1.590094	0.246082	1.634746
H247	H	0.940213	-0.406210	0.891200
H248	H	1.273546	-0.072877	1.224533
H249	H	1.606880	0.260456	1.557866
H250	H	0.262694	-0.442983	0.473524
H251	H	0.596027	-0.109650	0.806857
H252	H	0.929360	0.223684	1.140191
H253	H	0.489003	-0.301583	0.322713
H254	H	0.822337	0.031751	0.656047
H255	H	1.155670	0.365084	0.989380
F256	F	1.087068	-0.594532	0.477451
F257	F	1.420401	-0.261199	0.810784
F258	F	1.753735	0.072134	1.144118
F259	F	1.102197	-0.267333	1.127183
F260	F	1.435531	0.066000	1.460517
F261	F	1.768864	0.399333	1.793850
F262	F	0.916973	-0.426122	1.119208
F263	F	1.250306	-0.092789	1.452541
F264	F	1.583639	0.240545	1.785874
H265	H	1.076513	-1.002754	0.465838
H266	H	1.409846	-0.669421	0.799171
H267	H	1.743179	-0.336088	1.132504
F268	F	0.260988	-0.279876	0.299562
F269	F	0.594321	0.053457	0.632895
F270	F	0.927654	0.386791	0.966229
H271	H	1.068575	-0.296172	0.651997
H272	H	1.401909	0.037162	0.985331
H273	H	1.735242	0.370495	1.318664
H274	H	0.900107	-0.440587	0.777815
H275	H	1.233440	-0.107254	1.111149
H276	H	1.566773	0.226080	1.444482
F277	F	1.087273	-1.131086	0.477571
F278	F	1.420606	-0.797752	0.810905
F279	F	1.753939	-0.464419	1.144238
H280	H	1.062894	-0.301034	0.784816
H281	H	1.396228	0.032300	1.118150
H282	H	1.729561	0.365633	1.451483
F283	F	1.108657	-0.261798	0.976048
F284	F	1.441990	0.071535	1.309381
F285	F	1.775323	0.404868	1.642715
F286	F	0.894956	-0.445006	0.635346
F287	F	1.228289	-0.111673	0.968679
F288	F	1.561622	0.221661	1.302013
H289	H	1.056935	-0.306126	0.871337
H290	H	1.390269	0.027207	1.204670
H291	H	1.723602	0.360540	1.538004
