data_functionalizedCrystal
_audit_creation_method	'MofGen! by Chris Wilmer'
_symmetry_space_group_name_H-M	'P1'
_symmetry_Int_Tables_number	1
_symmetry_cell_setting	triclinic
loop_
_symmetry_equiv_pos_as_xyz
  x,y,z
_cell_length_a	12.645331
_cell_length_b	12.645329
_cell_length_c	16.625539
_cell_angle_alpha	89.974372
_cell_angle_beta	89.979221
_cell_angle_gamma	90.016957
loop_
_atom_site_label
_atom_site_type_symbol
_atom_site_fract_x
_atom_site_fract_y
_atom_site_fract_z
Zn1	Zn	1.620709	-0.422066	-0.455929
Zn2	Zn	2.120709	0.077934	0.044071
Zn3	Zn	1.620596	-0.599352	-0.321102
Zn4	Zn	2.120596	-0.099352	0.178898
Zn5	Zn	1.443430	-0.422100	-0.321109
Zn6	Zn	1.943430	0.077900	0.178891
Zn7	Zn	1.443405	-0.599285	-0.455892
Zn8	Zn	1.943405	-0.099285	0.044108
O9	O	1.532035	-0.510701	-0.388508
O10	O	2.032035	-0.010701	0.111492
O11	O	1.769042	-0.445598	-0.438057
O12	O	2.269042	0.054402	0.061943
O13	O	1.597057	-0.575882	-0.208271
O14	O	2.097057	-0.075882	0.291729
O15	O	1.467004	-0.273748	-0.339011
O16	O	1.967004	0.226252	0.160989
O17	O	1.768958	-0.575849	-0.339000
O18	O	2.268958	-0.075849	0.161000
O19	O	1.597251	-0.273724	-0.438063
O20	O	2.097251	0.226276	0.061937
O21	O	1.466894	-0.445656	-0.208276
O22	O	1.966894	0.054344	0.291724
O23	O	1.295079	-0.445590	-0.338975
O24	O	1.795079	0.054410	0.161025
O25	O	1.466962	-0.575734	-0.568729
O26	O	1.966962	-0.075734	-0.068729
O27	O	1.295061	-0.575767	-0.438000
O28	O	1.795061	-0.075767	0.062000
O29	O	1.597226	-0.445532	-0.568756
O30	O	2.097226	0.054468	-0.068756
O31	O	1.597033	-0.747691	-0.338964
O32	O	2.097033	-0.247691	0.161036
O33	O	1.466852	-0.747641	-0.437993
O34	O	1.966852	-0.247641	0.062007
C35	C	1.256605	-0.510676	-0.388485
C36	C	1.756605	-0.010676	0.111515
C37	C	1.138775	-0.510691	-0.388494
C38	C	1.638775	-0.010691	0.111506
C39	C	1.531956	-0.786131	-0.388492
C40	C	2.031956	-0.286131	0.111508
C41	C	1.532020	-0.903961	-0.388512
C42	C	2.032020	-0.403961	0.111488
C43	C	1.450084	-0.948856	-0.450775
C44	C	1.950084	-0.448856	0.049225
C45	C	1.450423	-1.071416	-0.451045
C46	C	1.950423	-0.571416	0.048955
C47	C	1.643942	-1.071730	-0.411411
C48	C	2.143942	-0.571730	0.088589
C49	C	1.643370	-0.949132	-0.411837
C50	C	2.143370	-0.449132	0.088163
C51	C	1.503216	-0.949249	-0.303247
C52	C	2.003216	-0.449249	0.196753
C53	C	1.500849	-1.071858	-0.303728
C54	C	2.000849	-0.571858	0.196272
C55	C	0.971187	-0.428420	-0.326541
C56	C	1.471187	0.071580	0.173459
C57	C	1.093747	-0.428632	-0.326268
C58	C	1.593747	0.071368	0.173732
C59	C	1.094255	-0.622364	-0.365282
C60	C	1.594255	-0.122364	0.134718
C61	C	0.971657	-0.621915	-0.364860
C62	C	1.471657	-0.121915	0.135140
C63	C	0.971622	-0.482351	-0.473897
C64	C	1.471622	0.017649	0.026103
C65	C	1.094228	-0.479856	-0.473423
C66	C	1.594228	0.020144	0.026577
C67	C	1.808540	-0.510727	-0.388532
C68	C	2.308540	-0.010727	0.111468
C69	C	1.926370	-0.510738	-0.388542
C70	C	2.426370	-0.010738	0.111458
C71	C	1.532104	-0.510622	-0.598817
C72	C	2.032104	-0.010622	-0.098817
C73	C	1.532133	-0.510588	-0.688438
C74	C	2.032133	-0.010588	-0.188438
C75	C	1.532143	-0.234196	-0.388542
C76	C	2.032143	0.265804	0.111458
C77	C	1.532189	-0.116366	-0.388557
C78	C	2.032189	0.383634	0.111443
C79	C	1.532182	-0.510470	-1.016614
C80	C	2.032182	-0.010470	-0.516614
C81	C	1.532166	-0.510506	-0.925305
C82	C	2.032166	-0.010506	-0.425305
C83	C	1.532158	-0.510530	-0.852529
C84	C	2.032158	-0.010530	-0.352529
C85	C	1.532141	-0.510565	-0.761215
C86	C	2.032141	-0.010565	-0.261215
C87	C	1.532027	-0.510703	-0.179017
C88	C	2.032027	-0.010703	0.320983
C89	C	1.532203	-0.510438	-0.089396
C90	C	2.032203	-0.010438	0.410604
H91	H	1.367565	-1.101602	-0.436760
H92	H	1.867565	-0.601602	0.063240
H93	H	1.366916	-0.919481	-0.436647
H94	H	1.866916	-0.419481	0.063353
N95	N	1.578055	-0.912821	-0.245039
N96	N	2.078055	-0.412821	0.254961
N97	N	1.569192	-0.940039	-0.173064
N98	N	2.069192	-0.440039	0.326936
H99	H	1.622049	-0.914307	-0.131958
H100	H	2.122049	-0.414307	0.368042
H101	H	1.468942	-0.917979	-0.513594
H102	H	1.968942	-0.417979	-0.013594
N103	N	1.397665	-1.108454	-0.282109
N104	N	1.897665	-0.608454	0.217891
N105	N	1.319951	-1.086150	-0.325343
N106	N	1.819951	-0.586150	0.174657
H107	H	1.247075	-1.112001	-0.310080
H108	H	1.747075	-0.612001	0.189920
H109	H	1.124913	-0.646851	-0.303553
H110	H	1.624913	-0.146851	0.196447
N111	N	1.675113	-1.110158	-0.488749
N112	N	2.175113	-0.610158	0.011251
N113	N	1.615219	-1.170405	-0.527167
N114	N	2.115219	-0.670405	-0.027167
H115	H	1.637228	-1.197545	-0.581789
H116	H	2.137228	-0.697545	-0.081789
H117	H	1.556191	-1.102471	-0.254882
H118	H	2.056191	-0.602471	0.245118
N119	N	0.932849	-0.381982	-0.500375
N120	N	1.432849	0.118018	-0.000375
N121	N	0.871384	-0.330150	-0.456651
N122	N	1.371384	0.169850	0.043349
H123	H	0.843998	-0.259261	-0.475343
H124	H	1.343998	0.240739	0.024657
H125	H	1.469595	-1.100671	-0.514229
H126	H	1.969595	-0.600671	-0.014229
H127	H	1.123848	-0.345822	-0.340817
H128	H	1.623848	0.154178	0.159183
H129	H	0.941723	-0.345360	-0.340934
H130	H	1.441723	0.154640	0.159066
H131	H	0.940342	-0.446974	-0.263662
H132	H	1.440342	0.053026	0.236338
N133	N	1.722691	-1.108261	-0.356302
N134	N	2.222691	-0.608261	0.143698
N135	N	1.799107	-1.161650	-0.381289
N136	N	2.299107	-0.661650	0.118711
H137	H	1.854724	-1.187452	-0.342368
H138	H	2.354724	-0.687452	0.157632
H139	H	1.123332	-0.397677	-0.490926
H140	H	1.623332	0.102323	0.009074
N141	N	1.402668	-0.910575	-0.277090
N142	N	1.902668	-0.410575	0.222910
N143	N	1.351013	-0.849156	-0.320978
N144	N	1.851013	-0.349156	0.179022
H145	H	1.279999	-0.821837	-0.302512
H146	H	1.779999	-0.321837	0.197488
N147	N	1.722586	-0.911873	-0.357404
N148	N	2.222586	-0.411873	0.142596
N149	N	1.778123	-0.976417	-0.319225
N150	N	2.278123	-0.476417	0.180775
H151	H	1.834073	-0.950108	-0.280784
H152	H	2.334073	-0.450108	0.219216
H153	H	1.667752	-0.920459	-0.474159
H154	H	2.167752	-0.420459	0.025841
H155	H	1.123028	-0.447395	-0.263017
H156	H	1.623028	0.052605	0.236983
N157	N	1.132615	-0.549647	-0.534459
N158	N	1.632615	-0.049647	-0.034459
N159	N	1.193702	-0.623578	-0.516276
N160	N	1.693702	-0.123578	-0.016276
H161	H	1.220785	-0.672899	-0.559376
H162	H	1.720785	-0.172899	-0.059376
H163	H	0.943014	-0.645988	-0.302461
H164	H	1.443014	-0.145988	0.197539
N165	N	0.934474	-0.701469	-0.419036
N166	N	1.434474	-0.201469	0.080964
N167	N	0.999071	-0.757149	-0.457033
N168	N	1.499071	-0.257149	0.042967
H169	H	0.972816	-0.813338	-0.495291
H170	H	1.472816	-0.313338	0.004709
H171	H	1.123423	-0.685337	-0.409023
H172	H	1.623423	-0.185337	0.090977
H173	H	0.942641	-0.542308	-0.520093
H174	H	1.442641	-0.042308	-0.020093
