data_functionalizedCrystal
_audit_creation_method	'MofGen! by Chris Wilmer'
_symmetry_space_group_name_H-M	'P1'
_symmetry_Int_Tables_number	1
_symmetry_cell_setting	triclinic
loop_
_symmetry_equiv_pos_as_xyz
  x,y,z
_cell_length_a	14.395555
_cell_length_b	14.395555
_cell_length_c	23.196401
_cell_angle_alpha	90.007426
_cell_angle_beta	59.993962
_cell_angle_gamma	60.000146
loop_
_atom_site_label
_atom_site_type_symbol
_atom_site_fract_x
_atom_site_fract_y
_atom_site_fract_z
Zr1	Zr	1.016826	0.894878	-0.075680
O2	O	1.210664	0.746518	-0.167753
O3	O	0.823010	0.940360	-0.047448
O4	O	1.016850	0.940322	-0.167737
O5	O	1.016799	0.746584	0.047415
O6	O	1.016843	1.093196	-0.167732
O7	O	1.016825	0.746556	-0.047464
O8	O	0.670100	1.093265	0.047443
O9	O	1.363542	0.746516	-0.167760
O10	O	0.902716	1.073844	-0.035411
O11	O	0.902702	0.959777	0.035392
O12	O	1.130923	0.959732	-0.106233
O13	O	1.130908	0.845665	-0.035430
Zr14	Zr	1.016773	1.138740	0.075649
Zr15	Zr	1.016815	1.138695	-0.075672
Zr16	Zr	1.016784	0.894923	0.075641
Zr17	Zr	1.260648	0.894875	-0.075691
Zr18	Zr	0.772951	1.138743	0.075661
O19	O	1.210589	1.093258	0.047417
O20	O	1.210649	1.093194	-0.167741
O21	O	1.210605	0.746582	0.047406
O22	O	0.822935	1.287100	0.167722
O23	O	0.822995	1.287036	-0.047436
O24	O	0.822951	0.940425	0.167711
O25	O	1.016801	1.287034	-0.047446
O26	O	1.016750	1.093296	0.167706
O27	O	1.016757	0.940422	0.167701
O28	O	1.016774	1.287062	0.047433
O29	O	1.363533	0.940317	-0.167754
O30	O	0.670066	1.093301	0.167723
O31	O	0.670057	1.287102	0.167729
O32	O	0.670091	1.287066	0.047450
O33	O	1.363509	0.746552	-0.047480
O34	O	1.363500	0.940353	-0.047474
O35	O	0.902677	1.073886	0.106203
O36	O	0.902691	1.187953	0.035399
O37	O	1.130898	1.073841	-0.035422
O38	O	1.130883	0.959774	0.035381
C39	C	0.711815	1.016813	-0.000001
C40	C	0.608307	1.016814	0.000004
C41	C	0.485827	0.954604	0.038585
C42	C	0.471535	1.061892	0.066593
C43	C	0.623937	0.909547	-0.027970
C44	C	0.409575	1.124154	0.028011
C45	C	0.562040	0.971733	-0.066589
C46	C	0.547702	1.079084	-0.038598
C47	C	1.016814	0.711832	-0.000025
C48	C	1.016818	0.608325	-0.000029
C49	C	1.141246	0.485517	-0.038638
C50	C	1.079057	0.454674	-0.066611
C51	C	1.079002	0.454745	0.027939
C52	C	0.954629	0.578846	-0.028041
C53	C	0.954591	0.578913	0.066546
C54	C	0.892311	0.548143	0.038590
C55	C	1.321784	1.016805	-0.000030
C56	C	1.425293	1.016804	-0.000035
C57	C	1.016852	1.016753	-0.189295
C58	C	1.016870	1.016733	-0.253534
C59	C	1.016786	1.321786	-0.000005
C60	C	1.016781	1.425293	-0.000002
C61	C	1.016869	1.100956	-0.283695
C62	C	1.016842	1.100981	-0.344041
C63	C	1.016844	1.016766	-0.374233
C64	C	1.016838	0.932537	-0.344063
C65	C	1.016851	0.932520	-0.283714
C66	C	1.093385	0.913986	-0.493622
C67	C	1.093380	0.914002	-0.553973
C68	C	1.016797	1.016817	-0.560370
C69	C	0.940235	1.119623	-0.506413
C70	C	0.940249	1.119606	-0.446063
C71	C	1.016828	1.016775	-0.439672
C72	C	1.016765	1.101073	-0.655964
C73	C	1.016730	1.101099	-0.716309
C74	C	1.016739	0.932646	-0.716334
C75	C	1.016760	0.932629	-0.655986
C76	C	1.016779	1.016842	-0.625807
C77	C	1.016747	1.016865	0.189264
C78	C	1.016730	1.016885	0.253503
C79	C	0.711802	1.321790	0.000009
C80	C	0.608288	1.425298	0.000018
C81	C	0.711763	1.016869	0.189279
C82	C	0.608236	1.016890	0.253523
C83	C	0.711749	1.321847	0.189289
C84	C	0.608218	1.425374	0.253537
C85	C	1.321850	0.711771	-0.189319
C86	C	1.425382	0.608244	-0.253567
C87	C	1.321798	0.711828	-0.000040
C88	C	1.425311	0.608320	-0.000048
C89	C	1.321836	1.016749	-0.189309
C90	C	1.425363	1.016728	-0.253554
C91	C	0.559606	1.076463	0.320662
C92	C	0.462346	1.076478	0.381032
C93	C	0.413710	1.016926	0.374262
C94	C	0.462350	0.957345	0.307117
C95	C	0.559615	0.957324	0.246748
C96	C	0.559606	1.533543	0.246750
C97	C	0.462341	1.630827	0.307112
C98	C	0.413683	1.619939	0.374260
C99	C	0.462304	1.511758	0.381046
C100	C	0.559574	1.414477	0.320684
C101	C	1.474005	0.500075	-0.246780
C102	C	1.571301	0.402791	-0.307142
C103	C	1.619964	0.413679	-0.374291
C104	C	1.571336	0.521860	-0.381076
C105	C	1.474049	0.619141	-0.320715
C106	C	1.473968	1.076292	-0.246761
C107	C	1.571229	1.076295	-0.307120
C108	C	1.619891	1.016727	-0.374271
C109	C	1.571277	0.957161	-0.381062
C110	C	1.474010	0.957165	-0.320704
C111	C	0.547713	1.548105	0.038611
C112	C	0.409588	1.578977	0.066581
C113	C	0.562027	1.578852	-0.027977
C114	C	0.471464	1.454806	0.028027
C115	C	0.623976	1.454685	-0.066568
C116	C	0.485861	1.485483	-0.038614
H117	H	0.599269	0.933575	-0.122878
Br118	Br	0.396254	1.497001	0.472181
Br119	Br	1.316608	0.443098	-0.093136
H120	H	1.155737	0.830254	-0.488418
Br121	Br	1.637190	1.157135	-0.297887
H122	H	0.422755	1.125000	0.435699
H123	H	0.715662	1.401131	-0.122842
Br124	Br	0.281706	1.016965	0.456200
Br125	Br	0.624079	1.667988	-0.067397
H126	H	0.715554	0.818836	-0.051614
Br127	Br	0.396372	1.777629	0.297886
H128	H	0.574775	1.573556	0.071311
Br129	Br	1.407980	0.485267	-0.155658
H130	H	1.131657	0.401139	-0.122902
H131	H	0.458563	0.902088	0.071267
Br132	Br	0.281672	1.751977	0.456173
H133	H	1.016775	1.169648	-0.631389
H134	H	0.422736	0.908859	0.301615
Br135	Br	0.409078	1.365927	0.067556
H136	H	0.599197	0.908816	0.192083
Br137	Br	0.625628	1.548352	0.155627
H138	H	1.610877	0.314715	-0.301604
Br139	Br	0.409463	1.125447	0.160430
Br140	Br	0.256948	1.275417	0.067524
H141	H	0.574676	1.131762	-0.071234
H142	H	0.902089	0.632198	-0.051748
H143	H	1.131603	0.401246	0.051581
H144	H	0.599141	1.326404	0.326220
H145	H	1.699092	1.016732	-0.423413
H146	H	1.434362	1.124800	-0.192089
H147	H	1.016733	0.864080	-0.740914
H148	H	1.699181	0.334457	-0.423435
H149	H	1.434461	0.707215	-0.326249
Br150	Br	0.716851	0.590806	0.092970
Br151	Br	0.866995	0.668143	0.160349
H152	H	1.016880	1.169529	-0.259123
H153	H	1.016841	1.169568	-0.368602
Br154	Br	0.625583	1.157301	0.329869
Br155	Br	1.637391	0.536617	-0.472212
Br156	Br	1.408069	0.876309	-0.329935
H157	H	0.877907	1.203314	-0.402133
Br158	Br	0.256811	1.668237	0.160396
Br159	Br	0.836305	1.259169	-0.515087
H160	H	1.610912	0.908662	-0.435744
H161	H	1.016721	1.169689	-0.740864
H162	H	1.016769	0.864043	-0.631430
Br163	Br	1.197294	0.774484	-0.627197
Br164	Br	0.440849	1.442709	-0.093042
H165	H	1.016836	0.863969	-0.368648
H166	H	1.016852	0.863935	-0.259157
