data_functionalizedCrystal
_audit_creation_method	'MofGen! by Chris Wilmer'
_symmetry_space_group_name_H-M	'P1'
_symmetry_Int_Tables_number	1
_symmetry_cell_setting	triclinic
loop_
_symmetry_equiv_pos_as_xyz
  x,y,z
_cell_length_a	10.654550
_cell_length_b	9.730223
_cell_length_c	10.654550
_cell_angle_alpha	90.004253
_cell_angle_beta	95.515070
_cell_angle_gamma	89.997315
loop_
_atom_site_label
_atom_site_type_symbol
_atom_site_fract_x
_atom_site_fract_y
_atom_site_fract_z
O1	O	1.667839	-0.114271	-0.176399
O2	O	1.302361	-0.114278	-0.193205
O3	O	1.493503	-0.114266	-0.002062
O4	O	1.476697	-0.114283	-0.367541
O5	O	1.493490	0.114314	-0.002057
O6	O	1.302348	0.114302	-0.193199
O7	O	1.667827	0.114309	-0.176393
Zn8	Zn	1.485085	0.150597	-0.184796
Zn9	Zn	1.485102	-0.150566	-0.184802
O10	O	1.476684	0.114297	-0.367536
C11	C	1.255556	0.000011	-0.191968
C12	C	1.116113	0.000009	-0.188276
C13	C	1.492263	0.000024	0.044738
C14	C	1.488571	0.000021	0.184181
N15	N	1.485083	0.356134	-0.184790
C16	C	1.714631	0.000017	-0.177630
C17	C	1.854074	0.000010	-0.181322
C18	C	1.933560	0.000010	-0.068780
C19	C	2.064580	0.000015	-0.072257
C20	C	2.036617	0.000013	-0.300826
C21	C	1.905599	0.000018	-0.297349
N22	N	1.485114	-0.356103	-0.184798
C23	C	1.569750	0.428065	-0.100188
C24	C	1.569763	0.571948	-0.100189
C25	C	1.400438	0.571956	-0.269404
C26	C	1.400420	0.428075	-0.269396
C27	C	1.477925	0.000004	-0.414336
C28	C	1.481616	-0.000002	-0.553779
C29	C	1.601112	0.000023	0.263667
C30	C	1.597636	0.000006	0.394688
C31	C	1.369066	-0.000008	0.366725
C32	C	1.372544	-0.000001	0.235706
H33	H	2.129293	0.000017	0.019386
H34	H	2.078585	0.000016	-0.395291
H35	H	1.331508	0.630545	-0.338290
C36	C	1.308349	0.349892	-0.361056
C37	C	1.230866	0.267343	-0.293430
C38	C	1.146029	0.195314	-0.377817
H39	H	1.353827	0.293634	-0.413784
H40	H	1.257862	0.413297	-0.411436
H41	H	1.281347	0.203945	-0.243073
H42	H	1.185360	0.323567	-0.240708
H43	H	1.095541	0.258718	-0.428196
H44	H	1.191517	0.139063	-0.430540
H45	H	1.093439	0.139305	-0.331945
H46	H	1.689279	0.000004	0.459401
C47	C	1.661713	0.350204	-0.008184
C48	C	1.735839	0.444002	0.065930
C49	C	1.820556	0.372332	0.150714
H50	H	1.714496	0.294053	-0.053698
H51	H	1.616108	0.294124	0.044590
H52	H	1.781441	0.500059	0.013163
H53	H	1.683091	0.500156	0.111471
H54	H	1.774950	0.316252	0.203488
H55	H	1.873330	0.316183	0.105190
H56	H	1.870852	0.435962	0.201018
H57	H	1.280893	-0.000007	0.170985
C58	C	1.243064	-0.000305	0.422602
C59	C	1.174986	-0.117925	0.382315
C60	C	1.058913	-0.118251	0.433774
H61	H	1.196517	0.079310	0.395429
H62	H	1.257059	-0.000380	0.512021
H63	H	1.160987	-0.117837	0.292914
H64	H	1.221495	-0.197559	0.409486
H65	H	1.072907	-0.118326	0.523193
H66	H	1.012377	-0.038631	0.406597
H67	H	1.012712	-0.198060	0.406456
C68	C	1.727116	-0.000255	0.207793
C69	C	1.795204	-0.117876	0.248060
C70	C	1.911279	-0.118195	0.196605
H71	H	1.773654	0.079359	0.234982
H72	H	1.713124	-0.000325	0.118373
H73	H	1.809200	-0.117794	0.337461
H74	H	1.748704	-0.197510	0.220873
H75	H	1.897288	-0.118264	0.107185
H76	H	1.957806	-0.038575	0.223798
H77	H	1.957487	-0.198005	0.223909
C78	C	1.661754	0.650221	-0.008538
C79	C	1.739194	0.732829	-0.076160
C80	C	1.823942	0.804966	0.008232
H81	H	1.712292	0.586923	0.041883
H82	H	1.616168	0.706442	0.044148
H83	H	1.784777	0.676613	-0.128824
H84	H	1.688691	0.796153	-0.126577
H85	H	1.778355	0.861187	0.060918
H86	H	1.874470	0.741658	0.058649
H87	H	1.876486	0.861033	-0.037637
H88	H	1.840878	0.000023	-0.388999
H89	H	1.891613	0.000007	0.025696
