data_functionalizedCrystal
_audit_creation_method	'MofGen! by Chris Wilmer'
_symmetry_space_group_name_H-M	'P1'
_symmetry_Int_Tables_number	1
_symmetry_cell_setting	triclinic
loop_
_symmetry_equiv_pos_as_xyz
  x,y,z
_cell_length_a	12.759401
_cell_length_b	16.120484
_cell_length_c	12.759401
_cell_angle_alpha	87.116031
_cell_angle_beta	90.005232
_cell_angle_gamma	92.926992
loop_
_atom_site_label
_atom_site_type_symbol
_atom_site_fract_x
_atom_site_fract_y
_atom_site_fract_z
Zn1	Zn	1.584804	-0.332009	0.615193
Zn2	Zn	2.084804	0.167991	1.115193
Zn3	Zn	1.575802	-0.471397	0.448403
Zn4	Zn	2.075802	0.028603	0.948403
Zn5	Zn	1.409152	-0.332003	0.439528
Zn6	Zn	1.909152	0.167997	0.939528
Zn7	Zn	1.400154	-0.471389	0.624040
Zn8	Zn	1.900154	0.028611	1.124040
O9	O	1.492478	-0.401700	0.531791
O10	O	1.992478	0.098300	1.031791
O11	O	1.730631	-0.350505	0.593080
O12	O	2.230631	0.149495	1.093080
O13	O	1.553693	-0.452906	0.300205
O14	O	2.053693	0.047094	0.800205
O15	O	1.439986	-0.215336	0.455414
O16	O	1.939986	0.284664	0.955414
O17	O	1.724017	-0.452912	0.470540
O18	O	2.224017	0.047088	0.970540
O19	O	1.569037	-0.215341	0.584475
O20	O	2.069037	0.284659	1.084475
O21	O	1.431256	-0.350495	0.293685
O22	O	1.931256	0.149505	0.793685
O23	O	1.260937	-0.350487	0.463992
O24	O	1.760937	0.149513	0.963992
O25	O	1.424650	-0.452899	0.769887
O26	O	1.924650	0.047101	1.269887
O27	O	1.254327	-0.452893	0.599552
O28	O	1.754327	0.047107	1.099552
O29	O	1.560312	-0.350498	0.763388
O30	O	2.060312	0.149502	1.263388
O31	O	1.544968	-0.588063	0.479118
O32	O	2.044968	-0.088063	0.979118
O33	O	1.415920	-0.588058	0.608157
O34	O	1.915920	-0.088058	1.108157
C35	C	1.219511	-0.401689	0.531770
C36	C	1.719511	0.098311	1.031770
C37	C	1.102734	-0.401705	0.531787
C38	C	1.602734	0.098295	1.031787
C39	C	1.044452	-0.455109	0.602272
C40	C	1.544452	0.044891	1.102272
C41	C	0.934727	-0.455112	0.602293
C42	C	1.434727	0.044888	1.102293
C43	C	0.941577	-0.348305	0.461334
C44	C	1.441577	0.151695	0.961334
C45	C	1.051299	-0.348298	0.461319
C46	C	1.551299	0.151702	0.961319
C47	C	1.478519	-0.618311	0.545584
C48	C	1.978519	-0.118311	1.045584
C49	C	1.472644	-0.710978	0.551519
C50	C	1.972644	-0.210978	1.051519
C51	C	1.461923	-0.880643	0.562378
C52	C	1.961923	-0.380643	1.062378
C53	C	1.523221	-0.921916	0.501222
C54	C	2.023221	-0.421916	1.001222
C55	C	1.517256	-1.016323	0.507264
C56	C	2.017256	-0.516323	1.007264
C57	C	1.467887	-0.786227	0.556337
C58	C	1.967887	-0.286227	1.056337
C59	C	1.766510	-0.401710	0.531813
C60	C	2.266510	0.098290	1.031813
C61	C	1.883287	-0.401715	0.531823
C62	C	2.383287	0.098285	1.031823
C63	C	1.492481	-0.401698	0.805824
C64	C	1.992481	0.098302	1.305824
C65	C	1.492483	-0.401698	0.922601
C66	C	1.992483	0.098302	1.422601
C67	C	1.506519	-0.184242	0.517968
C68	C	2.006519	0.315758	1.017968
C69	C	1.512503	-0.091575	0.512077
C70	C	2.012503	0.408425	1.012077
C71	C	1.563105	-0.348386	1.083812
C72	C	2.063105	0.151614	1.583812
C73	C	1.563114	-0.348386	0.974088
C74	C	2.063114	0.151614	1.474088
C75	C	1.421846	-0.455020	0.980844
C76	C	1.921846	0.044980	1.480844
C77	C	1.421843	-0.455023	1.090567
C78	C	1.921843	0.044977	1.590567
C79	C	1.492467	-0.401715	1.258825
C80	C	1.992467	0.098285	1.758825
C81	C	1.492471	-0.401702	1.142047
C82	C	1.992471	0.098298	1.642047
H83	H	0.887279	-0.498598	0.659691
H84	H	1.387279	0.001402	1.159691
H85	H	1.086326	-0.498594	0.659654
H86	H	1.586326	0.001406	1.159654
O87	O	1.353371	-0.506911	1.147193
O88	O	1.853371	-0.006911	1.647193
C89	C	1.331985	-0.619448	1.278258
C90	C	1.831985	-0.119448	1.778258
C91	C	1.409633	-0.560749	1.214183
C92	C	1.909633	-0.060749	1.714183
H93	H	1.377441	-0.662980	1.332451
H94	H	1.877441	-0.162980	1.832451
H95	H	1.281519	-0.657614	1.222665
H96	H	1.781519	-0.157614	1.722665
H97	H	1.279498	-0.581160	1.327148
H98	H	1.779498	-0.081160	1.827148
H99	H	1.462188	-0.598973	1.165287
H100	H	1.962188	-0.098973	1.665287
H101	H	1.460025	-0.522580	1.269833
H102	H	1.960025	-0.022580	1.769833
H103	H	1.620614	-0.304968	1.125724
H104	H	2.120614	0.195032	1.625724
H105	H	1.364341	-0.498431	0.938915
H106	H	1.864341	0.001569	1.438915
H107	H	0.899685	-0.304825	0.403960
H108	H	1.399685	0.195175	0.903960
H109	H	1.098754	-0.304805	0.403921
H110	H	1.598754	0.195195	0.903921
H111	H	1.580178	-0.886349	0.444327
H112	H	2.080178	-0.386349	0.944327
O113	O	1.631673	-0.296660	0.917360
O114	O	2.131673	0.203340	1.417360
C115	C	1.694220	-0.249334	0.745332
C116	C	2.194220	0.250666	1.245332
C117	C	1.616542	-0.307978	0.809448
C118	C	2.116542	0.192022	1.309448
H119	H	1.681999	-0.258451	0.658072
H120	H	2.181999	0.241549	1.158072
H121	H	1.778021	-0.263962	0.767760
H122	H	2.278021	0.236038	1.267760
H123	H	1.680099	-0.182123	0.762706
H124	H	2.180099	0.317877	1.262706
H125	H	1.630567	-0.375208	0.792107
H126	H	2.130567	0.124792	1.292107
H127	H	1.532768	-0.293278	0.787010
H128	H	2.032768	0.206722	1.287010
H129	H	1.404969	-0.916207	0.619267
H130	H	1.904969	-0.416207	1.119267
