data_functionalizedCrystal
_audit_creation_method	'MofGen! by Chris Wilmer'
_symmetry_space_group_name_H-M	'P1'
_symmetry_Int_Tables_number	1
_symmetry_cell_setting	triclinic
loop_
_symmetry_equiv_pos_as_xyz
  x,y,z
_cell_length_a	18.215407
_cell_length_b	18.215405
_cell_length_c	17.077396
_cell_angle_alpha	89.968409
_cell_angle_beta	89.980259
_cell_angle_gamma	90.025333
loop_
_atom_site_label
_atom_site_type_symbol
_atom_site_fract_x
_atom_site_fract_y
_atom_site_fract_z
Zn1	Zn	1.125071	-0.292975	-0.443831
Zn2	Zn	1.458405	0.040358	-0.110497
Zn3	Zn	1.791738	0.373691	0.222836
Zn4	Zn	1.124980	-0.416049	-0.312558
Zn5	Zn	1.458313	-0.082716	0.020776
Zn6	Zn	1.791647	0.250618	0.354109
Zn7	Zn	1.002004	-0.293002	-0.312578
Zn8	Zn	1.335337	0.040332	0.020755
Zn9	Zn	1.668671	0.373665	0.354088
Zn10	Zn	1.001970	-0.416006	-0.443781
Zn11	Zn	1.335303	-0.082672	-0.110447
Zn12	Zn	1.668636	0.250661	0.222886
O13	O	1.063506	-0.354508	-0.378187
O14	O	1.396840	-0.021175	-0.044853
O15	O	1.730173	0.312159	0.288480
O16	O	1.228043	-0.309309	-0.426430
O17	O	1.561377	0.024025	-0.093096
O18	O	1.894710	0.357358	0.240237
O19	O	1.108643	-0.399756	-0.202713
O20	O	1.441976	-0.066422	0.130620
O21	O	1.775310	0.266911	0.463953
O22	O	1.018382	-0.190014	-0.330019
O23	O	1.351715	0.143319	0.003315
O24	O	1.685048	0.476653	0.336648
O25	O	1.227976	-0.399730	-0.329984
O26	O	1.561310	-0.066397	0.003350
O27	O	1.894643	0.266937	0.336683
O28	O	1.108799	-0.189995	-0.426449
O29	O	1.442132	0.143339	-0.093116
O30	O	1.775465	0.476672	0.240217
O31	O	1.018293	-0.309353	-0.202728
O32	O	1.351626	0.023980	0.130605
O33	O	1.684960	0.357313	0.463938
O34	O	0.899015	-0.309311	-0.329970
O35	O	1.232349	0.024022	0.003363
O36	O	1.565682	0.357355	0.336697
O37	O	1.018323	-0.399656	-0.553634
O38	O	1.351657	-0.066323	-0.220301
O39	O	1.684990	0.267010	0.113032
O40	O	0.898990	-0.399682	-0.426364
O41	O	1.232323	-0.066349	-0.093031
O42	O	1.565657	0.266985	0.240303
O43	O	1.108765	-0.309267	-0.553671
O44	O	1.442099	0.024067	-0.220338
O45	O	1.775432	0.357400	0.112996
O46	O	1.108610	-0.519028	-0.329935
O47	O	1.441943	-0.185694	0.003398
O48	O	1.775276	0.147639	0.336732
O49	O	1.018235	-0.518996	-0.426344
O50	O	1.351568	-0.185662	-0.093011
O51	O	1.684901	0.147671	0.240323
C52	C	0.872300	-0.354495	-0.378164
C53	C	1.205633	-0.021162	-0.044831
C54	C	1.538967	0.312171	0.288502
C55	C	0.790501	-0.354508	-0.378173
C56	C	1.123834	-0.021174	-0.044840
C57	C	1.457168	0.312159	0.288493
C58	C	0.602313	-0.401638	-0.428303
C59	C	0.935647	-0.068304	-0.094969
C60	C	1.268980	0.265029	0.238364
C61	C	0.525455	-0.401640	-0.428312
C62	C	0.858788	-0.068307	-0.094979
C63	C	1.192121	0.265027	0.238354
C64	C	0.525451	-0.307392	-0.328088
C65	C	0.858785	0.025942	0.005245
C66	C	1.192118	0.359275	0.338578
C67	C	0.602309	-0.307386	-0.328083
C68	C	0.935642	0.025947	0.005250
C69	C	1.268975	0.359280	0.338584
C70	C	0.640738	-0.354513	-0.378189
C71	C	0.974071	-0.021180	-0.044856
C72	C	1.307404	0.312153	0.288478
C73	C	0.487022	-0.354521	-0.378204
C74	C	0.820355	-0.021188	-0.044871
C75	C	1.153688	0.312146	0.288463
C76	C	0.403688	-0.354523	-0.378214
C77	C	0.737021	-0.021190	-0.044881
C78	C	1.070355	0.312143	0.288452
C79	C	0.724077	-0.354510	-0.378180
C80	C	1.057410	-0.021177	-0.044847
C81	C	1.390743	0.312156	0.288487
C82	C	1.063429	-0.545714	-0.378149
C83	C	1.396762	-0.212381	-0.044816
C84	C	1.730095	0.120952	0.288518
C85	C	1.063463	-0.627513	-0.378159
C86	C	1.396796	-0.294180	-0.044826
C87	C	1.730129	0.039153	0.288508
C88	C	1.110631	-0.815699	-0.328051
C89	C	1.443965	-0.482366	0.005282
C90	C	1.777298	-0.149032	0.338615
C91	C	1.110664	-0.892558	-0.328070
C92	C	1.443998	-0.559225	0.005263
C93	C	1.777331	-0.225891	0.338596
C94	C	1.016475	-0.892565	-0.428379
C95	C	1.349809	-0.559231	-0.095045
C96	C	1.683142	-0.225898	0.238288
C97	C	1.016447	-0.815707	-0.428363
C98	C	1.349780	-0.482374	-0.095030
C99	C	1.683113	-0.149041	0.238304
C100	C	1.063524	-0.777277	-0.378195
C101	C	1.396857	-0.443943	-0.044862
C102	C	1.730190	-0.110610	0.288472
C103	C	1.063585	-0.930993	-0.378230
C104	C	1.396918	-0.597659	-0.044896
C105	C	1.730252	-0.264326	0.288437
C106	C	1.063620	-1.014326	-0.378251
C107	C	1.396954	-0.680993	-0.044917
C108	C	1.730287	-0.347660	0.288416
C109	C	1.063489	-0.693938	-0.378175
C110	C	1.396823	-0.360604	-0.044841
C111	C	1.730156	-0.027271	0.288492
C112	C	1.255459	-0.354521	-0.378210
C113	C	1.588792	-0.021188	-0.044877
C114	C	1.922126	0.312145	0.288457
C115	C	1.337258	-0.354527	-0.378220
C116	C	1.670591	-0.021193	-0.044886
C117	C	2.003925	0.312140	0.288447
C118	C	1.063551	-0.354454	-0.582931
C119	C	1.396884	-0.021120	-0.249598
C120	C	1.730217	0.312213	0.083735
C121	C	1.063570	-0.354431	-0.670181
C122	C	1.396903	-0.021097	-0.336848
C123	C	1.730236	0.312236	-0.003514
C124	C	1.063604	-0.162555	-0.378242
C125	C	1.396938	0.170778	-0.044909
C126	C	1.730271	0.504112	0.288425
C127	C	1.063646	-0.080756	-0.378265
C128	C	1.396979	0.252577	-0.044932
C129	C	1.730313	0.585911	0.288401
C130	C	1.110665	-0.307361	-0.711192
C131	C	1.443998	0.025973	-0.377858
C132	C	1.777331	0.359306	-0.044525
C133	C	1.110674	-0.307336	-0.793172
C134	C	1.444007	0.025997	-0.459839
C135	C	1.777340	0.359330	-0.126505
C136	C	1.063591	-0.354386	-0.834141
C137	C	1.396924	-0.021053	-0.500807
C138	C	1.730257	0.312281	-0.167474
C139	C	1.016490	-0.401458	-0.793124
C140	C	1.349824	-0.068125	-0.459791
C141	C	1.683157	0.265209	-0.126458
C142	C	1.016478	-0.401478	-0.711145
C143	C	1.349812	-0.068145	-0.377812
C144	C	1.683145	0.265189	-0.044479
C145	C	1.016520	-0.401414	-0.963994
C146	C	1.349853	-0.068080	-0.630661
C147	C	1.683187	0.265253	-0.297328
C148	C	1.016533	-0.401395	-1.045979
C149	C	1.349866	-0.068061	-0.712646
C150	C	1.683200	0.265272	-0.379312
C151	C	1.110715	-0.307272	-1.046021
C152	C	1.444049	0.026062	-0.712688
C153	C	1.777382	0.359395	-0.379355
C154	C	1.110703	-0.307292	-0.964042
C155	C	1.444037	0.026041	-0.630709
C156	C	1.777370	0.359375	-0.297376
C157	C	1.063604	-0.354365	-0.923032
C158	C	1.396937	-0.021032	-0.589698
C159	C	1.730270	0.312301	-0.256365
C160	C	1.063504	-0.354509	-0.174239
C161	C	1.396838	-0.021176	0.159094
C162	C	1.730171	0.312158	0.492428
C163	C	1.063628	-0.354325	-0.086990
C164	C	1.396961	-0.020991	0.246344
C165	C	1.730295	0.312342	0.579677
H166	H	0.494153	-0.269024	-0.287292
H167	H	0.827486	0.064310	0.046041
H168	H	1.160820	0.397643	0.379374
Cl169	Cl	1.169890	-0.940857	-0.265032
Cl170	Cl	1.503224	-0.607524	0.068301
Cl171	Cl	1.836557	-0.274191	0.401635
H172	H	0.978155	-0.439734	-0.930606
H173	H	1.311489	-0.106401	-0.597273
H174	H	1.644822	0.226933	-0.263939
Cl175	Cl	0.957224	-0.767401	-0.491410
Cl176	Cl	1.290558	-0.434068	-0.158077
Cl177	Cl	1.623891	-0.100734	0.175256
Cl178	Cl	0.650617	-0.248135	-0.265083
Cl179	Cl	0.983950	0.085199	0.068251
Cl180	Cl	1.317284	0.418532	0.401584
Cl181	Cl	0.957294	-0.940883	-0.491441
Cl182	Cl	1.290627	-0.607550	-0.158108
Cl183	Cl	1.623960	-0.274216	0.175226
Cl184	Cl	0.957297	-0.460604	-0.844628
Cl185	Cl	1.290631	-0.127271	-0.511294
Cl186	Cl	1.623964	0.206063	-0.177961
H187	H	0.978121	-0.439800	-0.677755
H188	H	1.311455	-0.106467	-0.344422
H189	H	1.644788	0.226867	-0.011089
H190	H	0.633600	-0.440010	-0.469104
H191	H	0.966933	-0.106676	-0.135771
H192	H	1.300267	0.226657	0.197562
H193	H	1.148965	-0.784411	-0.287203
H194	H	1.482299	-0.451077	0.046131
H195	H	1.815632	-0.117744	0.379464
H196	H	1.149007	-0.269050	-0.677841
H197	H	1.482341	0.064284	-0.344508
H198	H	1.815674	0.397617	-0.011174
Cl199	Cl	1.169914	-0.248192	-0.844725
Cl200	Cl	1.503247	0.085141	-0.511392
Cl201	Cl	1.836581	0.418474	-0.178058
H202	H	1.149064	-0.268942	-1.079416
H203	H	1.482397	0.064391	-0.746083
H204	H	1.815731	0.397725	-0.412749
H205	H	0.494173	-0.440012	-0.469121
H206	H	0.827506	-0.106679	-0.135788
H207	H	1.160840	0.226654	0.197546
H208	H	1.149046	-0.268984	-0.930688
H209	H	1.482380	0.064349	-0.597355
H210	H	1.815713	0.397682	-0.264021
H211	H	0.978192	-0.439705	-1.079333
H212	H	1.311526	-0.106372	-0.746000
H213	H	1.644859	0.226962	-0.412667
