data_functionalizedCrystal
_audit_creation_method	'MofGen! by Chris Wilmer'
_symmetry_space_group_name_H-M	'P1'
_symmetry_Int_Tables_number	1
_symmetry_cell_setting	triclinic
loop_
_symmetry_equiv_pos_as_xyz
  x,y,z
_cell_length_a	15.995350
_cell_length_b	17.699083
_cell_length_c	16.776229
_cell_angle_alpha	89.992455
_cell_angle_beta	89.996506
_cell_angle_gamma	83.387695
loop_
_atom_site_label
_atom_site_type_symbol
_atom_site_fract_x
_atom_site_fract_y
_atom_site_fract_z
O1	O	1.110790	0.097560	-0.066222
O2	O	1.610790	0.597560	0.433778
O3	O	0.866990	0.109607	-0.066239
O4	O	1.366990	0.609607	0.433761
O5	O	0.995778	-0.006594	-0.066223
O6	O	1.495778	0.493406	0.433777
O7	O	0.982002	0.213761	-0.066238
O8	O	1.482002	0.713761	0.433762
O9	O	0.995761	-0.006602	0.066353
O10	O	1.495761	0.493398	0.566353
O11	O	0.866973	0.109600	0.066338
O12	O	1.366973	0.609600	0.566338
O13	O	1.110773	0.097553	0.066354
O14	O	1.610773	0.597553	0.566354
Zn15	Zn	0.988870	0.103575	0.087395
Zn16	Zn	1.488870	0.603575	0.587395
Zn17	Zn	0.988893	0.103584	-0.087280
Zn18	Zn	1.488893	0.603584	0.412720
O19	O	0.981985	0.213754	0.066338
O20	O	1.481985	0.713754	0.566338
C21	C	0.995276	-0.034796	0.000065
C22	C	1.495276	0.465204	0.500065
C23	C	0.993795	-0.118816	0.000065
C24	C	1.493795	0.381184	0.500065
C25	C	0.835788	0.109105	0.000047
C26	C	1.335788	0.609105	0.500047
C27	C	0.742841	0.107612	0.000041
C28	C	1.242841	0.607612	0.500041
C29	C	1.069391	-0.167312	0.000072
C30	C	1.569391	0.332688	0.500072
C31	C	1.067994	-0.246257	0.000065
C32	C	1.567994	0.253743	0.500065
C33	C	0.991001	-0.276706	0.000057
C34	C	1.491001	0.223294	0.500057
C35	C	0.915400	-0.228205	0.000048
C36	C	1.415400	0.271795	0.500048
C37	C	0.916797	-0.149261	0.000050
C38	C	1.416797	0.350739	0.500050
C39	C	0.909763	-0.546577	0.000041
C40	C	1.409763	-0.046577	0.500041
C41	C	0.908372	-0.625527	0.000042
C42	C	1.408372	-0.125527	0.500042
C43	C	1.060960	-0.643574	0.000056
C44	C	1.560960	-0.143574	0.500056
C45	C	1.062358	-0.564630	0.000058
C46	C	1.562358	-0.064630	0.500058
C47	C	0.986757	-0.516135	0.000045
C48	C	1.486757	-0.016135	0.500045
C49	C	0.988272	-0.430533	0.000051
C50	C	1.488272	0.069467	0.500051
C51	C	0.989485	-0.362306	0.000056
C52	C	1.489485	0.137694	0.500056
C53	C	0.405104	0.102250	0.000058
C54	C	0.905104	0.602250	0.500058
C55	C	0.452706	0.019493	0.000360
C56	C	0.952706	0.519493	0.500360
C57	C	0.549394	0.020987	0.000055
C58	C	1.049394	0.520987	0.500055
C59	C	0.572659	0.104910	0.000050
C60	C	1.072659	0.604910	0.500050
C61	C	0.531499	0.145732	-0.075657
C62	C	1.031499	0.645732	0.424343
C63	C	0.434867	0.143653	-0.075715
C64	C	0.934867	0.643653	0.424285
C65	C	0.434505	0.145355	0.075049
C66	C	0.934505	0.645355	0.575049
C67	C	0.531451	0.145335	0.076044
C68	C	1.031451	0.645335	0.576044
C69	C	0.667354	0.106417	0.000043
C70	C	1.167354	0.606417	0.500043
C71	C	0.310409	0.100745	0.000060
C72	C	0.810409	0.600745	0.500060
C73	C	1.141975	0.098054	0.000066
C74	C	1.641975	0.598054	0.500066
C75	C	1.234923	0.099547	0.000067
C76	C	1.734923	0.599547	0.500067
C77	C	0.982487	0.241955	0.000048
C78	C	1.482487	0.741955	0.500048
C79	C	0.983968	0.325976	0.000043
C80	C	1.483968	0.825976	0.500043
N81	N	0.988861	0.103568	0.206607
N82	N	1.488861	0.603568	0.706607
N83	N	0.988909	0.103585	-0.206491
N84	N	1.488909	0.603585	0.293509
C85	C	1.045906	0.052135	0.248331
C86	C	1.545906	0.552135	0.748331
C87	C	1.045910	0.052135	0.331783
C88	C	1.545910	0.552135	0.831783
C89	C	0.988874	0.103571	0.373509
C90	C	1.488874	0.603571	0.873509
C91	C	0.931823	0.155006	0.331779
C92	C	1.431823	0.655006	0.831779
C93	C	0.931815	0.155003	0.248329
C94	C	1.431815	0.655003	0.748329
C95	C	0.931853	0.155021	0.668327
C96	C	1.431853	0.655021	1.168327
C97	C	0.931867	0.155022	0.751783
C98	C	1.431867	0.655022	1.251783
C99	C	1.045949	0.052153	0.751781
C100	C	1.545949	0.552153	1.251781
C101	C	1.045941	0.052150	0.668330
C102	C	1.545941	0.552150	1.168330
C103	C	0.988887	0.103582	0.626607
C104	C	1.488887	0.603582	1.126607
C105	C	0.988882	0.103581	0.536119
C106	C	1.488882	0.603581	1.036119
C107	C	0.988883	0.103576	0.463996
C108	C	1.488883	0.603576	0.963996
H109	H	1.129552	-0.285740	0.000071
H110	H	1.629552	0.214260	0.500071
O111	O	1.152435	-0.134473	0.000082
O112	O	1.652435	0.365527	0.500082
H113	H	1.156723	-0.098926	-0.053950
H114	H	1.656723	0.401074	0.446050
H115	H	0.885400	0.196900	0.634363
H116	H	1.385400	0.696900	1.134363
O117	O	1.145399	-0.531787	0.000067
O118	O	1.645399	-0.031787	0.500067
H119	H	1.149684	-0.496240	-0.053966
H120	H	1.649684	0.003760	0.446034
O121	O	0.870290	0.210471	0.203313
O122	O	1.370290	0.710471	0.703313
H123	H	0.880834	0.269484	0.219302
H124	H	1.380834	0.769484	0.719302
H125	H	0.885418	0.196910	0.785756
H126	H	1.385418	0.696910	1.285756
O127	O	0.825322	-0.658366	0.000029
O128	O	1.325322	-0.158366	0.500029
H129	H	0.821023	-0.693899	0.054070
H130	H	1.321023	-0.193899	0.554070
O131	O	1.142503	-0.695883	0.000066
O132	O	1.642503	-0.195883	0.500066
H133	H	1.196274	-0.661446	0.000084
H134	H	1.696274	-0.161446	0.500084
O135	O	0.835261	-0.096952	0.000053
O136	O	1.335261	0.403048	0.500053
H137	H	0.798409	-0.107773	-0.053981
H138	H	1.298409	0.392227	0.446019
O139	O	1.107485	-0.003322	0.796786
O140	O	1.607485	0.496678	1.296786
H141	H	1.147152	-0.039080	0.753750
H142	H	1.647152	0.460920	1.253750
H143	H	0.885379	0.196884	0.365758
H144	H	1.385379	0.696884	0.865758
H145	H	0.848204	-0.507102	0.000031
H146	H	1.348204	-0.007102	0.500031
O147	O	1.107410	-0.003361	0.203333
O148	O	1.607410	0.496639	0.703333
H149	H	1.097822	0.005274	0.138294
H150	H	1.597822	0.505274	0.638294
O151	O	0.832354	-0.261040	0.000048
O152	O	1.332354	0.238960	0.500048
H153	H	0.844080	-0.324082	0.000060
H154	H	1.344080	0.175918	0.500060
H155	H	0.577324	-0.011312	-0.054305
H156	H	1.077324	0.488688	0.445695
O157	O	0.587132	-0.021522	0.071939
O158	O	1.087132	0.478478	0.571939
H159	H	0.656384	-0.020495	0.071795
H160	H	1.156384	0.479505	0.571795
O161	O	0.392260	0.226173	0.075733
O162	O	0.892260	0.726173	0.575733
H163	H	0.409493	0.255784	0.020835
H164	H	0.909493	0.755784	0.520835
O165	O	0.428254	-0.024335	0.072275
O166	O	0.928254	0.475665	0.572275
H167	H	0.381906	0.012392	0.108570
H168	H	0.881906	0.512392	0.608570
H169	H	0.414018	0.118297	0.132434
H170	H	0.914018	0.618297	0.632434
O171	O	0.410696	0.104214	-0.150662
O172	O	0.910696	0.604214	0.349338
H173	H	0.468000	0.086801	-0.186522
H174	H	0.968000	0.586801	0.313478
O175	O	0.426849	-0.024132	-0.071145
O176	O	0.926849	0.475868	0.428855
H177	H	0.380243	0.012872	-0.106900
H178	H	0.880243	0.512872	0.393100
H179	H	0.558821	0.115535	0.132052
H180	H	1.058821	0.615535	0.632052
H181	H	0.402496	0.204412	-0.079154
H182	H	0.902496	0.704412	0.420846
H183	H	0.545499	0.207388	-0.078476
H184	H	1.045499	0.707388	0.421524
H185	H	0.559938	0.117384	-0.131997
H186	H	1.059938	0.617384	0.368003
H187	H	0.546691	0.206534	0.080614
H188	H	1.046691	0.706534	0.580614
O189	O	1.107451	-0.003325	0.376788
O190	O	1.607451	0.496675	0.876788
H191	H	1.147123	-0.039081	0.333754
H192	H	1.647123	0.460919	0.833754
H193	H	1.092388	0.010268	0.634359
H194	H	1.592388	0.510268	1.134359
