data_functionalizedCrystal
_audit_creation_method	'MofGen! by Chris Wilmer'
_symmetry_space_group_name_H-M	'P1'
_symmetry_Int_Tables_number	1
_symmetry_cell_setting	triclinic
loop_
_symmetry_equiv_pos_as_xyz
  x,y,z
_cell_length_a	14.853558
_cell_length_b	15.944551
_cell_length_c	13.330367
_cell_angle_alpha	90.005596
_cell_angle_beta	90.007028
_cell_angle_gamma	83.564936
loop_
_atom_site_label
_atom_site_type_symbol
_atom_site_fract_x
_atom_site_fract_y
_atom_site_fract_z
O1	O	1.196233	0.109627	0.083413
O2	O	0.933756	0.122699	0.083418
O3	O	1.072162	-0.006104	0.083407
O4	O	1.057827	0.238430	0.083425
O5	O	1.072142	-0.006107	-0.083440
O6	O	0.933736	0.122696	-0.083429
O7	O	1.196213	0.109624	-0.083434
Cu8	Cu	1.064973	0.116160	-0.098666
Cu9	Cu	1.064996	0.116164	0.098650
O10	O	1.057807	0.238427	-0.083422
C11	C	0.900158	0.122107	-0.000005
C12	C	0.800076	0.120336	-0.000003
C13	C	0.753068	0.119507	0.090949
C14	C	0.753044	0.119494	-0.090954
C15	C	0.659013	0.117826	-0.090956
C16	C	0.612004	0.116997	-0.000004
C17	C	0.659028	0.117837	0.090950
C18	C	0.611983	0.116978	-0.181908
C19	C	0.517946	0.115309	-0.181914
C20	C	0.470936	0.114486	-0.090960
C21	C	0.517965	0.115326	-0.000003
C22	C	0.470956	0.114498	0.090949
C23	C	0.517983	0.115344	0.181908
C24	C	0.612017	0.117014	0.181903
C25	C	0.376901	0.112816	-0.090956
C26	C	0.376916	0.112827	0.090950
C27	C	1.071557	-0.037400	-0.000017
C28	C	1.069773	-0.130648	-0.000018
C29	C	0.979718	-0.345602	-0.000002
C30	C	1.021526	-0.406575	-0.082269
C31	C	1.066545	-0.301377	-0.000010
C32	C	1.021567	-0.406556	0.082230
C33	C	1.063421	-0.466293	0.000002
C34	C	1.108378	-0.361122	-0.082344
C35	C	1.108406	-0.361097	0.082228
C36	C	1.150278	-0.422052	-0.000059
C37	C	1.068342	-0.206373	-0.000017
C38	C	1.061630	-0.561296	0.000003
C39	C	1.229811	0.110217	-0.000008
C40	C	1.329893	0.111987	-0.000004
C41	C	1.058412	0.269724	0.000004
C42	C	1.060196	0.362971	0.000011
N43	N	1.064963	0.116157	-0.237447
C44	C	1.003707	0.173175	-0.710065
C45	C	1.126310	0.059145	-0.710043
C46	C	1.126299	0.059143	-0.605025
C47	C	1.064993	0.116158	-0.552522
C48	C	1.003697	0.173176	-0.605037
C49	C	1.187601	0.002132	-0.552502
C50	C	1.187593	0.002128	-0.447477
C51	C	1.126282	0.059139	-0.394972
C52	C	1.064983	0.116159	-0.447494
C53	C	1.003677	0.173174	-0.394990
C54	C	0.942372	0.230190	-0.447510
C55	C	0.942386	0.230188	-0.552532
C56	C	1.126269	0.059142	-0.289950
C57	C	1.003666	0.173175	-0.289962
N58	N	1.065014	0.116160	0.237432
H59	H	0.338616	0.112135	-0.165013
N60	N	0.879765	0.288430	-0.393859
N61	N	0.879779	0.288423	-0.300090
H62	H	0.835565	0.329555	-0.262194
H63	H	0.984793	-0.426725	-0.151817
N64	N	1.250205	-0.056091	-0.393801
N65	N	1.306140	-0.029327	-0.335173
H66	H	1.350358	-0.070440	-0.297254
H67	H	1.145063	-0.341093	-0.151970
H68	H	0.479697	0.114664	0.255961
N69	N	1.250222	-0.056076	-0.606165
N70	N	1.221643	-0.108258	-0.664804
H71	H	1.265876	-0.149361	-0.702716
N72	N	1.240771	-0.463544	-0.000123
N73	N	1.293186	-0.451775	-0.070819
H74	H	1.357097	-0.481079	-0.070869
H75	H	1.145107	-0.340925	0.151780
H76	H	0.984839	-0.426671	0.151784
H77	H	0.907647	-0.312373	-0.000083
N78	N	0.941042	0.231429	-0.236352
N79	N	0.942277	0.309070	-0.248081
H80	H	0.898048	0.350213	-0.210220
N81	N	0.879776	0.288417	-0.606194
N82	N	0.879798	0.288408	-0.699963
H83	H	0.835582	0.329533	-0.737868
N84	N	0.941090	0.231402	-0.763721
N85	N	0.941098	0.231393	-0.857490
H86	H	0.896873	0.272516	-0.895387
H87	H	1.176186	0.012724	-0.247194
N88	N	1.188924	0.000922	-0.763694
N89	N	1.160334	-0.051258	-0.822327
H90	H	1.204559	-0.092377	-0.860227
N91	N	0.328918	0.111971	0.183868
N92	N	0.347746	0.053001	0.244766
H93	H	0.313849	0.052396	0.310391
N94	N	0.660073	0.117868	0.274796
N95	N	0.720861	0.059640	0.295081
H96	H	0.754806	0.060243	0.360684
N97	N	0.801110	0.120382	0.183848
N98	N	0.885068	0.121882	0.183841
H99	H	0.918999	0.122501	0.249452
H100	H	0.791325	0.120162	-0.165003
N101	N	0.660026	0.117840	-0.274788
N102	N	0.704183	0.177941	-0.295053
H103	H	0.738123	0.178555	-0.360649
N104	N	0.469929	0.114443	-0.274829
N105	N	0.511913	0.115180	-0.356028
H106	H	0.478000	0.114570	-0.421651
