data_functionalizedCrystal
_audit_creation_method	'MofGen! by Chris Wilmer'
_symmetry_space_group_name_H-M	'P1'
_symmetry_Int_Tables_number	1
_symmetry_cell_setting	triclinic
loop_
_symmetry_equiv_pos_as_xyz
  x,y,z
_cell_length_a	18.878441
_cell_length_b	23.096457
_cell_length_c	23.096457
_cell_angle_alpha	60.000788
_cell_angle_beta	90.000432
_cell_angle_gamma	60.005044
loop_
_atom_site_label
_atom_site_type_symbol
_atom_site_fract_x
_atom_site_fract_y
_atom_site_fract_z
Zr1	Zr	0.682455	0.633728	-0.075978
O2	O	0.569364	0.754506	-0.168420
O3	O	0.717113	0.512947	-0.047642
O4	O	0.717125	0.633729	-0.168428
O5	O	0.569356	0.633724	0.047647
O6	O	0.833692	0.633732	-0.168431
O7	O	0.569353	0.633724	-0.047634
O8	O	0.833672	0.417675	0.047632
O9	O	0.569376	0.849781	-0.168416
O10	O	0.818900	0.562629	-0.035556
O11	O	0.731909	0.562626	0.035553
O12	O	0.731923	0.704832	-0.106656
O13	O	0.644931	0.704829	-0.035547
Zr14	Zr	0.868372	0.633733	0.075980
Zr15	Zr	0.868367	0.633733	-0.075983
Zr16	Zr	0.682460	0.633727	0.075985
Zr17	Zr	0.682474	0.785680	-0.075972
Zr18	Zr	0.868353	0.481780	0.075974
O19	O	0.833714	0.754513	0.047644
O20	O	0.833707	0.754514	-0.168427
O21	O	0.569371	0.754506	0.047652
O22	O	0.981463	0.512954	0.168422
O23	O	0.981457	0.512955	-0.047650
O24	O	0.717120	0.512946	0.168429
O25	O	0.981472	0.633736	-0.047645
O26	O	0.833703	0.633731	0.168430
O27	O	0.717135	0.633728	0.168433
O28	O	0.981474	0.633736	0.047636
O29	O	0.717151	0.849785	-0.168421
O30	O	0.833676	0.417675	0.168422
O31	O	0.981452	0.417679	0.168418
O32	O	0.981448	0.417680	0.047628
O33	O	0.569379	0.849781	-0.047626
O34	O	0.717155	0.849785	-0.047630
O35	O	0.818905	0.562629	0.106658
O36	O	0.905896	0.562631	0.035549
O37	O	0.818918	0.704834	-0.035551
O38	O	0.731927	0.704831	0.035558
C39	C	0.775390	0.443661	-0.000006
C40	C	0.775382	0.379153	-0.000008
C41	C	0.542866	0.633723	0.000007
C42	C	0.463941	0.633721	0.000010
C43	C	0.472262	0.559494	0.037120
C44	C	0.398101	0.559496	0.037121
C45	C	0.315620	0.633727	0.000006
C46	C	0.307301	0.707961	-0.037106
C47	C	0.381462	0.707957	-0.037102
C48	C	0.152731	0.707963	-0.037113
C49	C	0.078566	0.707967	-0.037119
C50	C	0.169370	0.559502	0.037110
C51	C	0.243530	0.559499	0.037114
C52	C	0.235207	0.633732	0.000000
C53	C	0.839603	0.296370	0.052477
C54	C	0.839609	0.235748	0.052483
C55	C	0.775401	0.257915	-0.000006
C56	C	0.711169	0.340713	-0.052495
C57	C	0.711160	0.401332	-0.052496
N58	N	0.755973	0.201805	-0.062251
N59	N	0.755987	0.144215	-0.062247
C60	C	0.775424	0.075276	-0.000004
N61	N	0.794863	0.066093	0.062238
N62	N	0.794853	0.123686	0.062234
C63	C	0.775403	0.192190	-0.000010
C64	C	0.839654	-0.073244	0.052492
C65	C	0.839655	-0.133865	0.052499
C66	C	0.711218	-0.028897	-0.052485
C67	C	0.711214	0.031721	-0.052487
C68	C	0.775437	0.009542	0.000001
C69	C	1.007961	0.633737	-0.000005
C70	C	1.086886	0.633739	-0.000008
C71	C	0.775408	0.633731	-0.190081
C72	C	0.775406	0.633731	-0.254593
C73	C	0.775437	0.823799	0.000008
C74	C	0.775445	0.888307	0.000010
C75	C	0.711197	0.633737	-0.715107
C76	C	0.711197	0.633732	-0.654488
C77	C	0.775415	0.633734	-0.624178
C78	C	0.839650	0.633722	-0.654480
C79	C	0.839654	0.633719	-0.715094
N80	N	0.794863	0.680088	-0.552183
N81	N	0.794854	0.680092	-0.494603
C82	C	0.775409	0.633740	-0.441551
N83	N	0.755957	0.587394	-0.448259
N84	N	0.755961	0.587393	-0.505846
C85	C	0.775418	0.633736	-0.558452
C86	C	0.711181	0.633740	-0.345523
C87	C	0.711187	0.633729	-0.284900
C88	C	0.839637	0.633728	-0.284898
C89	C	0.839634	0.633731	-0.345515
C90	C	0.775402	0.633741	-0.375826
C91	C	0.775419	0.633730	0.190083
C92	C	0.775421	0.633729	0.254595
C93	C	1.007938	0.443668	-0.000012
C94	C	1.086855	0.379163	-0.000017
C95	C	0.775396	0.443661	0.190076
C96	C	0.775390	0.379153	0.254586
C97	C	1.007944	0.443667	0.190070
C98	C	1.086863	0.379162	0.254578
C99	C	0.542883	0.823793	-0.190068
C100	C	0.463965	0.888298	-0.254576
C101	C	0.542889	0.823792	0.000014
C102	C	0.463973	0.888298	0.000019
C103	C	0.775431	0.823800	-0.190074
C104	C	0.775437	0.888308	-0.254584
C105	C	1.078504	0.348869	-0.037141
C106	C	1.152648	0.288268	-0.037160
C107	C	1.235141	0.257957	-0.000049
C108	C	1.243490	0.288257	0.037077
C109	C	1.169347	0.348861	0.037091
C110	C	0.820798	0.348860	0.322003
C111	C	0.820789	0.288257	0.382623
C112	C	0.775377	0.257943	0.375824
C113	C	0.729963	0.288241	0.308400
C114	C	0.729968	0.348848	0.247782
C115	C	1.169340	0.348871	0.247753
C116	C	1.243499	0.288269	0.308359
C117	C	1.235180	0.257956	0.375789
C118	C	1.152694	0.288253	0.382613
C119	C	1.078536	0.348858	0.322007
C120	C	0.381487	0.918597	-0.247751
C121	C	0.307328	0.979217	-0.308357
C122	C	0.315648	1.009534	-0.375787
C123	C	0.398134	0.979233	-0.382611
C124	C	0.472291	0.918618	-0.322005
C125	C	0.472323	0.918598	0.037137
C126	C	0.398180	0.979216	0.037138
C127	C	0.315686	1.009529	0.000026
C128	C	0.307337	0.979226	-0.037097
C129	C	0.381480	0.918613	-0.037103
C130	C	0.820858	0.918603	-0.247763
C131	C	0.820881	0.979206	-0.308371
C132	C	0.775477	1.009518	-0.375800
C133	C	0.730054	0.979217	-0.382620
C134	C	0.730037	0.918610	-0.322013
H135	H	0.404883	0.499053	0.067341
H136	H	1.011341	0.373547	-0.067370
N137	N	0.561248	0.885938	-0.329372
H138	H	0.555257	0.914344	-0.381287
H139	H	0.593983	0.825097	-0.305851
H140	H	0.775380	0.208593	0.425189
N141	N	1.315108	0.192584	-0.000058
H142	H	1.350806	0.213674	-0.021184
H143	H	1.297224	0.178018	-0.029196
N144	N	1.143736	0.255543	0.455346
H145	H	1.110983	0.230386	0.461030
H146	H	1.111010	0.301811	0.460996
N147	N	0.869776	0.255583	0.455338
H148	H	0.898551	0.283980	0.450441
H149	H	0.915420	0.194740	0.482104
N150	N	0.869785	0.381544	0.329353
H151	H	0.845961	0.406694	0.356127
H152	H	0.862892	0.424503	0.280703
H153	H	0.539417	0.499046	0.067347
H154	H	0.693046	0.893951	-0.327577
H155	H	0.374669	0.893945	-0.067327
N156	N	-0.010400	0.788023	-0.077134
H157	H	-0.043195	0.791339	-0.114490
H158	H	-0.004357	0.835008	-0.100595
H159	H	0.240162	1.003916	-0.067313
H160	H	0.539487	0.893922	0.067363
H161	H	0.658923	0.099129	-0.095229
H162	H	0.310688	0.499053	0.067329
N163	N	0.407100	1.011934	-0.455341
H164	H	0.347602	1.054927	-0.492693
H165	H	0.439876	0.965649	-0.460964
H166	H	0.692990	0.263550	0.302875
N167	N	0.681083	1.011921	-0.455351
H168	H	0.617558	1.037074	-0.461034
H169	H	0.704959	0.965650	-0.460997
N170	N	1.332459	0.255598	0.300990
H171	H	1.326469	0.283995	0.249075
H172	H	1.365204	0.194754	0.324521
N173	N	0.680938	0.381559	0.175069
H174	H	0.652155	0.353168	0.179967
H175	H	0.722586	0.371038	0.148262
H176	H	1.176130	0.373543	0.192853
H177	H	1.310666	0.263569	0.067291
H178	H	0.255322	1.058883	0.000036
N179	N	0.178355	0.479434	0.077140
H180	H	0.118861	0.490697	0.071510
H181	H	0.211146	0.447015	0.129046
H182	H	1.295571	0.208608	0.425132
N183	N	0.989584	0.381508	0.329383
H184	H	0.956796	0.370949	0.305896
H185	H	0.956850	0.442340	0.305906
N186	N	0.775511	1.074883	-0.441160
H187	H	0.749681	1.125171	-0.441177
H188	H	0.739874	1.089428	-0.484883
H189	H	0.145947	0.768412	-0.067321
N190	N	0.218339	0.788022	-0.077130
H191	H	0.185547	0.791334	-0.114485
H192	H	0.224392	0.835000	-0.100593
N193	N	0.869835	0.885909	-0.175038
H194	H	0.846031	0.932148	-0.169354
H195	H	0.933347	0.860747	-0.169409
H196	H	0.857868	1.003871	-0.302804
N197	N	0.641957	-0.004978	-0.109096
H198	H	0.651705	-0.055941	-0.101130
H199	H	0.644792	0.028541	-0.157262
H200	H	0.374697	0.893916	-0.192851
N201	N	0.908928	0.633704	-0.621782
H202	H	0.899182	0.633703	-0.578784
H203	H	0.906114	0.684177	-0.657610
N204	N	0.372492	0.788016	-0.077126
H205	H	0.308988	0.835042	-0.100641
H206	H	0.401285	0.791249	-0.114440
H207	H	0.404994	1.003878	0.067371
H208	H	0.891897	0.278304	0.095217
H209	H	1.176159	0.373518	0.067326
N210	N	0.218365	1.011889	-0.300994
H211	H	0.211429	1.037022	-0.274204
H212	H	0.211475	0.965604	-0.274244
N213	N	0.908876	0.146448	0.109095
H214	H	0.949558	0.141598	0.142345
H215	H	0.942553	0.119023	0.086132
N216	N	0.235659	1.074910	-0.441151
H217	H	0.182150	1.089498	-0.426589
H218	H	0.235691	1.053773	-0.470302
N219	N	0.641915	0.633728	-0.252220
H220	H	0.582965	0.684211	-0.288009
H221	H	0.651734	0.633691	-0.209213
H222	H	0.658890	0.358758	-0.095232
H223	H	0.891944	-0.091304	0.095234
N224	N	0.641902	0.490627	-0.109116
H225	H	0.601227	0.495475	-0.142370
H226	H	0.669998	0.518053	-0.136642
H227	H	0.658896	0.633738	-0.629815
H228	H	0.891950	-0.201274	0.095243
H229	H	0.658897	0.633743	-0.739783
H230	H	0.658882	0.633745	-0.370201
N231	N	0.908916	0.633728	-0.747785
H232	H	0.949598	0.633732	-0.719389
H233	H	0.880825	0.684216	-0.798172
N234	N	0.908908	0.633721	-0.252210
H235	H	0.899164	0.633721	-0.209212
H236	H	0.906081	0.684201	-0.288043
H237	H	0.891929	0.633729	-0.370188
H238	H	1.145833	0.263605	-0.067392
