data_functionalizedCrystal
_audit_creation_method	'MofGen! by Chris Wilmer'
_symmetry_space_group_name_H-M	'P1'
_symmetry_Int_Tables_number	1
_symmetry_cell_setting	triclinic
loop_
_symmetry_equiv_pos_as_xyz
  x,y,z
_cell_length_a	13.032721
_cell_length_b	21.395364
_cell_length_c	21.395356
_cell_angle_alpha	90.017620
_cell_angle_beta	97.155355
_cell_angle_gamma	82.801232
loop_
_atom_site_label
_atom_site_type_symbol
_atom_site_fract_x
_atom_site_fract_y
_atom_site_fract_z
Zn1	Zn	-0.416226	-0.926155	-0.385974
Zn2	Zn	-0.082892	-0.592822	-0.052641
Zn3	Zn	0.250441	-0.259489	0.280693
Zn4	Zn	-0.590984	-0.912782	-0.294504
Zn5	Zn	-0.257650	-0.579449	0.038830
Zn6	Zn	0.075683	-0.246116	0.372163
Zn7	Zn	-0.416237	-0.821384	-0.281210
Zn8	Zn	-0.082904	-0.488051	0.052124
Zn9	Zn	0.250430	-0.154717	0.385457
Zn10	Zn	-0.590909	-0.808055	-0.399236
Zn11	Zn	-0.257576	-0.474721	-0.065903
Zn12	Zn	0.075758	-0.141388	0.267431
O13	O	-0.503589	-0.867094	-0.340231
O14	O	-0.170256	-0.533761	-0.006898
O15	O	0.163078	-0.200427	0.326436
O16	O	-0.439434	-1.012057	-0.373854
O17	O	-0.106101	-0.678724	-0.040520
O18	O	0.227233	-0.345391	0.292813
O19	O	-0.567839	-0.900640	-0.205065
O20	O	-0.234506	-0.567306	0.128268
O21	O	0.098827	-0.233973	0.461602
O22	O	-0.269998	-0.846457	-0.283993
O23	O	0.063336	-0.513124	0.049340
O24	O	0.396669	-0.179791	0.382674
O25	O	-0.567828	-1.002232	-0.306651
O26	O	-0.234495	-0.668899	0.026683
O27	O	0.098839	-0.335565	0.360016
O28	O	-0.269989	-0.923432	-0.360963
O29	O	0.063344	-0.590099	-0.027630
O30	O	0.396677	-0.256766	0.305704
O31	O	-0.439454	-0.833490	-0.195298
O32	O	-0.106120	-0.500157	0.138035
O33	O	0.227213	-0.166823	0.471369
O34	O	-0.439381	-0.731940	-0.296853
O35	O	-0.106048	-0.398607	0.036481
O36	O	0.227285	-0.065273	0.369814
O37	O	-0.567701	-0.823739	-0.485152
O38	O	-0.234368	-0.490406	-0.151819
O39	O	0.098966	-0.157073	0.181515
O40	O	-0.567712	-0.722147	-0.383566
O41	O	-0.234379	-0.388814	-0.050233
O42	O	0.098955	-0.055480	0.283100
O43	O	-0.439362	-0.910507	-0.475408
O44	O	-0.106028	-0.577174	-0.142075
O45	O	0.227305	-0.243841	0.191258
O46	O	-0.737212	-0.887715	-0.319510
O47	O	-0.403878	-0.554381	0.013823
O48	O	-0.070545	-0.221048	0.347156
O49	O	-0.737157	-0.810772	-0.396457
O50	O	-0.403823	-0.477439	-0.063124
O51	O	-0.070490	-0.144105	0.270210
C52	C	-0.503541	-0.704310	-0.340206
C53	C	-0.170207	-0.370977	-0.006873
C54	C	0.163126	-0.037644	0.326460
C55	C	-0.503545	-0.634669	-0.340213
C56	C	-0.170212	-0.301335	-0.006879
C57	C	0.163122	0.031998	0.326454
C58	C	-0.436855	-0.137975	-0.375292
C59	C	-0.103521	0.195358	-0.041959
C60	C	0.229812	0.528691	0.291375
C61	C	-0.436850	-0.203411	-0.375293
C62	C	-0.103517	0.129922	-0.041959
C63	C	0.229816	0.463256	0.291374
C64	C	-0.503589	-0.231027	-0.340232
C65	C	-0.170255	0.102306	-0.006899
C66	C	0.163078	0.435640	0.326435
C67	C	-0.570356	-0.193200	-0.305181
C68	C	-0.237022	0.140133	0.028153
C69	C	0.096311	0.473467	0.361486
C70	C	-0.570366	-0.127765	-0.305186
C71	C	-0.237032	0.205568	0.028147
C72	C	0.096301	0.538902	0.361481
C73	C	-0.511702	-0.334054	-0.284385
C74	C	-0.178369	-0.000721	0.048949
C75	C	0.154965	0.332612	0.382282
C76	C	-0.511685	-0.399489	-0.284378
C77	C	-0.178351	-0.066155	0.048955
C78	C	0.154982	0.267178	0.382289
C79	C	-0.503564	-0.432850	-0.340217
C80	C	-0.170231	-0.099516	-0.006884
C81	C	0.163103	0.233817	0.326450
C82	C	-0.495439	-0.400770	-0.396063
C83	C	-0.162105	-0.067437	-0.062729
C84	C	0.171228	0.265897	0.270604
C85	C	-0.495449	-0.335335	-0.396068
C86	C	-0.162115	-0.002002	-0.062735
C87	C	0.171218	0.331332	0.270599
C88	C	-0.503586	-0.301980	-0.340223
C89	C	-0.170253	0.031354	-0.006890
C90	C	0.163081	0.364687	0.326444
C91	C	-0.436802	-0.541621	-0.375270
C92	C	-0.103469	-0.208288	-0.041937
C93	C	0.229865	0.125046	0.291396
C94	C	-0.436805	-0.607057	-0.375273
C95	C	-0.103471	-0.273724	-0.041940
C96	C	0.229862	0.059609	0.291394
C97	C	-0.570305	-0.596845	-0.305155
C98	C	-0.236971	-0.263512	0.028178
C99	C	0.096362	0.069821	0.361512
C100	C	-0.570307	-0.531410	-0.305158
C101	C	-0.236974	-0.198077	0.028175
C102	C	0.096360	0.135257	0.361508
C103	C	-0.503550	-0.503802	-0.340215
C104	C	-0.170217	-0.170469	-0.006882
C105	C	0.163116	0.162865	0.326452
C106	C	-0.775102	-0.846363	-0.360879
C107	C	-0.441769	-0.513030	-0.027546
C108	C	-0.108435	-0.179696	0.305788
C109	C	-0.891256	-0.837551	-0.369733
C110	C	-0.557923	-0.504218	-0.036400
C111	C	-0.224590	-0.170885	0.296933
C112	C	-0.943034	-0.871726	-0.335638
C113	C	-0.609701	-0.538393	-0.002305
C114	C	-0.276368	-0.205060	0.331029
C115	C	-1.063086	-0.862620	-0.344788
C116	C	-0.729753	-0.529287	-0.011455
C117	C	-0.396419	-0.195953	0.321878
C118	C	-0.231016	-0.887923	-0.319516
C119	C	0.102318	-0.554590	0.013818
C120	C	0.435651	-0.221257	0.347151
C121	C	-0.114861	-0.896800	-0.310688
C122	C	0.218472	-0.563466	0.022645
C123	C	0.551806	-0.230133	0.355979
C124	C	-0.503522	-0.867128	-0.503649
C125	C	-0.170188	-0.533795	-0.170316
C126	C	0.163145	-0.200462	0.163018
C127	C	-0.503493	-0.867143	-0.573288
C128	C	-0.170160	-0.533809	-0.239955
C129	C	0.163174	-0.200476	0.093378
C130	C	-0.503625	-0.030515	-0.340250
C131	C	-0.170292	0.302819	-0.006916
C132	C	0.163041	0.636152	0.326417
C133	C	-0.503609	-0.100157	-0.340242
C134	C	-0.170275	0.233176	-0.006909
C135	C	0.163058	0.566510	0.326424
C136	C	-0.436500	-0.912394	-1.069999
C137	C	-0.103167	-0.579061	-0.736666
C138	C	0.230166	-0.245728	-0.403333
C139	C	-0.436526	-0.912388	-1.004566
C140	C	-0.103192	-0.579054	-0.671233
C141	C	0.230141	-0.245721	-0.337899
C142	C	-0.503354	-0.867207	-0.976916
C143	C	-0.170021	-0.533874	-0.643583
C144	C	0.163313	-0.200540	-0.310249
C145	C	-0.570181	-0.822040	-1.014707
C146	C	-0.236848	-0.488707	-0.681374
C147	C	0.096486	-0.155373	-0.348040
C148	C	-0.570161	-0.822052	-1.080140
C149	C	-0.236828	-0.488719	-0.746806
C150	C	0.096505	-0.155385	-0.413473
C151	C	-0.511620	-0.810109	-0.873868
C152	C	-0.178287	-0.476776	-0.540535
C153	C	0.155047	-0.143443	-0.207202
C154	C	-0.511632	-0.810097	-0.808436
C155	C	-0.178299	-0.476764	-0.475103
C156	C	0.155034	-0.143430	-0.141770
C157	C	-0.503421	-0.867170	-0.775100
C158	C	-0.170087	-0.533837	-0.441767
C159	C	0.163246	-0.200503	-0.108434
C160	C	-0.495175	-0.924259	-0.807203
C161	C	-0.161842	-0.590925	-0.473869
C162	C	0.171492	-0.257592	-0.140536
C163	C	-0.495155	-0.924271	-0.872635
C164	C	-0.161822	-0.590938	-0.539302
C165	C	0.171512	-0.257604	-0.205969
C166	C	-0.503383	-0.867189	-0.905966
C167	C	-0.170050	-0.533856	-0.572633
C168	C	0.163283	-0.200523	-0.239299
C169	C	-0.436630	-0.912329	-0.666367
C170	C	-0.103297	-0.578996	-0.333034
C171	C	0.230036	-0.245663	0.000299
C172	C	-0.436663	-0.912323	-0.600933
C173	C	-0.103330	-0.578990	-0.267600
C174	C	0.230004	-0.245656	0.065733
C175	C	-0.570313	-0.821970	-0.611075
C176	C	-0.236980	-0.488637	-0.277742
C177	C	0.096354	-0.155304	0.055591
C178	C	-0.570286	-0.821982	-0.676509
C179	C	-0.236953	-0.488649	-0.343175
C180	C	0.096381	-0.155315	-0.009842
C181	C	-0.503439	-0.867161	-0.704150
C182	C	-0.170106	-0.533828	-0.370817
C183	C	0.163228	-0.200494	-0.037484
C184	C	-0.503580	-0.867102	-0.177443
C185	C	-0.170247	-0.533769	0.155891
C186	C	0.163086	-0.200435	0.489224
C187	C	-0.503315	-0.867231	-0.107781
C188	C	-0.169981	-0.533898	0.225552
C189	C	0.163352	-0.200564	0.558885
H190	H	-0.488821	-0.427931	-0.441532
H191	H	-0.155487	-0.094598	-0.108198
H192	H	0.177846	0.238735	0.225135
C193	C	-0.951435	-0.788914	-0.418321
C194	C	-0.618101	-0.455581	-0.084988
C195	C	-0.284768	-0.122248	0.248346
N196	N	-0.996760	-0.752279	-0.454917
N197	N	-0.663427	-0.418946	-0.121584
N198	N	-0.330093	-0.085612	0.211750
H199	H	-0.624571	-0.785273	-1.110902
H200	H	-0.291238	-0.451940	-0.777569
H201	H	0.042095	-0.118607	-0.444236
C202	C	-0.643690	-0.772340	-0.984291
C203	C	-0.310356	-0.439007	-0.650958
C204	C	0.022977	-0.105673	-0.317624
N205	N	-0.699060	-0.734905	-0.961382
N206	N	-0.365727	-0.401572	-0.628048
N207	N	-0.032393	-0.068238	-0.294715
H208	H	-0.382500	-0.115501	-0.403841
H209	H	-0.049167	0.217832	-0.070507
H210	H	0.284166	0.551166	0.262826
C211	C	-0.363379	-0.511249	-0.413840
C212	C	-0.030046	-0.177916	-0.080507
C213	C	0.303287	0.155417	0.252827
N214	N	-0.308079	-0.488375	-0.442892
N215	N	0.025255	-0.155042	-0.109559
N216	N	0.358588	0.178292	0.223774
C217	C	-0.363364	-0.648658	-0.413831
C218	C	-0.030031	-0.315325	-0.080498
C219	C	0.303302	0.018009	0.252836
N220	N	-0.308045	-0.679992	-0.442872
N221	N	0.025289	-0.346659	-0.109539
N222	N	0.358622	-0.013326	0.223795
H223	H	-0.624697	-0.215689	-0.276636
H224	H	-0.291364	0.117645	0.056697
H225	H	0.041969	0.450978	0.390031
C226	C	-0.643794	-0.086164	-0.266621
C227	C	-0.310461	0.247169	0.066712
C228	C	0.022872	0.580503	0.400046
N229	N	-0.699098	-0.054829	-0.237571
N230	N	-0.365765	0.278504	0.095763
N231	N	-0.032432	0.611837	0.429096
H232	H	-0.518319	-0.306897	-0.238911
H233	H	-0.184986	0.026436	0.094422
H234	H	0.148347	0.359770	0.427756
C235	C	-0.363408	-0.245019	-0.413848
C236	C	-0.030074	0.088314	-0.080515
C237	C	0.303259	0.421647	0.252819
N238	N	-0.308088	-0.276357	-0.442886
N239	N	0.025245	0.056977	-0.109553
N240	N	0.358578	0.390310	0.223781
C241	C	-0.882856	-0.920362	-0.287049
C242	C	-0.549522	-0.587028	0.046284
C243	C	-0.216189	-0.253695	0.379618
N244	N	-0.837531	-0.956994	-0.250450
N245	N	-0.504197	-0.623661	0.082884
N246	N	-0.170864	-0.290327	0.416217
C247	C	-0.643728	-0.489809	-0.266590
C248	C	-0.310394	-0.156476	0.066743
C249	C	0.022939	0.176857	0.400076
N250	N	-0.699030	-0.458476	-0.237538
N251	N	-0.365697	-0.125142	0.095795
N252	N	-0.032363	0.208191	0.429128
H253	H	-1.107631	-0.826620	-0.380758
H254	H	-0.774297	-0.493286	-0.047425
H255	H	-0.440964	-0.159953	0.285908
H256	H	-1.070317	-0.932805	-0.274723
H257	H	-0.736984	-0.599471	0.058610
H258	H	-0.403651	-0.266138	0.391944
H259	H	-0.382073	-0.949185	-1.092501
H260	H	-0.048740	-0.615852	-0.759168
H261	H	0.284594	-0.282519	-0.425835
H262	H	-0.488835	-0.309218	-0.441540
H263	H	-0.155502	0.024115	-0.108206
H264	H	0.177831	0.357449	0.225127
H265	H	-0.382114	-0.949165	-0.973798
H266	H	-0.048780	-0.615832	-0.640464
H267	H	0.284553	-0.282498	-0.307131
C268	C	-0.643827	-0.772272	-0.580665
C269	C	-0.310494	-0.438939	-0.247331
C270	C	0.022840	-0.105605	0.086002
N271	N	-0.699201	-0.734838	-0.557756
N272	N	-0.365868	-0.401505	-0.224423
N273	N	-0.032535	-0.068172	0.108910
C274	C	-0.643720	-0.627219	-0.266589
C275	C	-0.310387	-0.293886	0.066744
C276	C	0.022946	0.039448	0.400078
N277	N	-0.699021	-0.650099	-0.237541
N278	N	-0.365687	-0.316766	0.095792
N279	N	-0.032354	0.016567	0.429125
H280	H	-0.518295	-0.425603	-0.238904
H281	H	-0.184961	-0.092270	0.094429
H282	H	0.148372	0.241063	0.427762
C283	C	-0.486098	-0.987067	-0.907947
C284	C	-0.152765	-0.653733	-0.574613
C285	C	0.180569	-0.320400	-0.241280
N286	N	-0.479282	-1.034366	-0.934543
N287	N	-0.145948	-0.701032	-0.601210
N288	N	0.187385	-0.367699	-0.267877
H289	H	-0.488485	-0.970733	-0.780062
H290	H	-0.155151	-0.637400	-0.446728
H291	H	0.178182	-0.304067	-0.113395
C292	C	-0.363109	-0.962033	-0.696776
C293	C	-0.029776	-0.628699	-0.363443
C294	C	0.303558	-0.295366	-0.030110
N295	N	-0.307734	-0.999470	-0.719679
N296	N	0.025599	-0.666137	-0.386345
N297	N	0.358932	-0.332804	-0.053012
H298	H	-0.382258	-0.949105	-0.570172
H299	H	-0.048924	-0.615771	-0.236838
H300	H	0.284409	-0.282438	0.096495
C301	C	-0.643776	-0.772292	-0.718070
C302	C	-0.310443	-0.438959	-0.384737
C303	C	0.022890	-0.105625	-0.051403
N304	N	-0.699133	-0.734863	-0.749374
N305	N	-0.365800	-0.401530	-0.416041
N306	N	-0.032466	-0.068197	-0.082707
C307	C	-0.520696	-0.747299	-0.773129
C308	C	-0.187362	-0.413965	-0.439796
C309	C	0.145971	-0.080632	-0.106463
N310	N	-0.527522	-0.699997	-0.746538
N311	N	-0.194189	-0.366664	-0.413204
N312	N	0.139145	-0.033330	-0.079871
H313	H	-0.518308	-0.763630	-0.901005
H314	H	-0.184975	-0.430297	-0.567672
H315	H	0.148359	-0.096964	-0.234339
