data_functionalizedCrystal
_audit_creation_method	'MofGen! by Chris Wilmer'
_symmetry_space_group_name_H-M	'P1'
_symmetry_Int_Tables_number	1
_symmetry_cell_setting	triclinic
loop_
_symmetry_equiv_pos_as_xyz
  x,y,z
_cell_length_a	18.215407
_cell_length_b	21.295417
_cell_length_c	18.215399
_cell_angle_alpha	89.968895
_cell_angle_beta	89.982632
_cell_angle_gamma	90.027146
loop_
_atom_site_label
_atom_site_type_symbol
_atom_site_fract_x
_atom_site_fract_y
_atom_site_fract_z
Zn1	Zn	1.125047	-0.250659	-0.416051
Zn2	Zn	1.375047	-0.000659	-0.166051
Zn3	Zn	1.625047	0.249341	0.083949
Zn4	Zn	1.875047	0.499341	0.333949
Zn5	Zn	1.124945	-0.355930	-0.292978
Zn6	Zn	1.374945	-0.105930	-0.042978
Zn7	Zn	1.624945	0.144070	0.207022
Zn8	Zn	1.874945	0.394070	0.457022
Zn9	Zn	1.001980	-0.250674	-0.293004
Zn10	Zn	1.251980	-0.000674	-0.043004
Zn11	Zn	1.501980	0.249326	0.206996
Zn12	Zn	1.751980	0.499326	0.456996
Zn13	Zn	1.001935	-0.355889	-0.416008
Zn14	Zn	1.251935	-0.105889	-0.166008
Zn15	Zn	1.501935	0.144111	0.083992
Zn16	Zn	1.751935	0.394111	0.333992
O17	O	1.063477	-0.303288	-0.354510
O18	O	1.313477	-0.053288	-0.104510
O19	O	1.563477	0.196712	0.145490
O20	O	1.813477	0.446712	0.395490
O21	O	1.228018	-0.264634	-0.399733
O22	O	1.478018	-0.014634	-0.149733
O23	O	1.728018	0.235366	0.100267
O24	O	1.978018	0.485366	0.350267
O25	O	1.108610	-0.341991	-0.189997
O26	O	1.358610	-0.091991	0.060003
O27	O	1.608610	0.158009	0.310003
O28	O	1.858610	0.408009	0.560003
O29	O	1.018366	-0.162582	-0.309355
O30	O	1.268366	0.087418	-0.059355
O31	O	1.518366	0.337418	0.190645
O32	O	1.768366	0.587418	0.440645
O33	O	1.227943	-0.341976	-0.309311
O34	O	1.477943	-0.091976	-0.059311
O35	O	1.727943	0.158024	0.190689
O36	O	1.977943	0.408024	0.440689
O37	O	1.108783	-0.162571	-0.399758
O38	O	1.358783	0.087429	-0.149758
O39	O	1.608783	0.337429	0.100242
O40	O	1.858783	0.587429	0.350242
O41	O	1.018267	-0.264659	-0.190016
O42	O	1.268267	-0.014659	0.059984
O43	O	1.518267	0.235341	0.309984
O44	O	1.768267	0.485341	0.559984
O45	O	0.898990	-0.264620	-0.309314
O46	O	1.148990	-0.014620	-0.059314
O47	O	1.398990	0.235380	0.190686
O48	O	1.648990	0.485380	0.440686
O49	O	1.018290	-0.341907	-0.518998
O50	O	1.268290	-0.091907	-0.268998
O51	O	1.518290	0.158093	-0.018998
O52	O	1.768290	0.408093	0.231002
O53	O	0.898957	-0.341921	-0.399684
O54	O	1.148957	-0.091921	-0.149684
O55	O	1.398957	0.158079	0.100316
O56	O	1.648957	0.408079	0.350316
O57	O	1.108740	-0.264594	-0.519030
O58	O	1.358740	-0.014594	-0.269030
O59	O	1.608740	0.235406	-0.019030
O60	O	1.858740	0.485406	0.230970
O61	O	1.108567	-0.444014	-0.309270
O62	O	1.358567	-0.194014	-0.059270
O63	O	1.608567	0.055986	0.190730
O64	O	1.858567	0.305986	0.440730
O65	O	1.018192	-0.443984	-0.399660
O66	O	1.268192	-0.193984	-0.149660
O67	O	1.518192	0.056016	0.100340
O68	O	1.768192	0.306016	0.350340
C69	C	0.872271	-0.303268	-0.354498
C70	C	1.122271	-0.053268	-0.104498
C71	C	1.372271	0.196732	0.145502
C72	C	1.622271	0.446732	0.395502
C73	C	0.790472	-0.303275	-0.354510
C74	C	1.040472	-0.053275	-0.104510
C75	C	1.290472	0.196725	0.145490
C76	C	1.540472	0.446725	0.395490
C77	C	0.602316	-0.263086	-0.401666
C78	C	0.852316	-0.013086	-0.151666
C79	C	1.102316	0.236914	0.098334
C80	C	1.352316	0.486914	0.348334
C81	C	0.525457	-0.263092	-0.401669
C82	C	0.775457	-0.013092	-0.151669
C83	C	1.025457	0.236908	0.098331
C84	C	1.275457	0.486908	0.348331
C85	C	0.525390	-0.343507	-0.307368
C86	C	0.775390	-0.093507	-0.057368
C87	C	1.025390	0.156493	0.192632
C88	C	1.275390	0.406493	0.442632
C89	C	0.602247	-0.343498	-0.307362
C90	C	0.852247	-0.093498	-0.057362
C91	C	1.102247	0.156502	0.192638
C92	C	1.352247	0.406502	0.442638
C93	C	0.640708	-0.303289	-0.354515
C94	C	0.890708	-0.053289	-0.104515
C95	C	1.140708	0.196711	0.145485
C96	C	1.390708	0.446711	0.395485
C97	C	0.486992	-0.303303	-0.354524
C98	C	0.736992	-0.053303	-0.104524
C99	C	0.986992	0.196697	0.145476
C100	C	1.236992	0.446697	0.395476
C101	C	0.403659	-0.303309	-0.354526
C102	C	0.653659	-0.053309	-0.104526
C103	C	0.903659	0.196691	0.145474
C104	C	1.153659	0.446691	0.395474
C105	C	0.724047	-0.303281	-0.354512
C106	C	0.974047	-0.053281	-0.104512
C107	C	1.224047	0.196719	0.145488
C108	C	1.474047	0.446719	0.395488
C109	C	1.063383	-0.466839	-0.354473
C110	C	1.313383	-0.216839	-0.104473
C111	C	1.563383	0.033161	0.145527
C112	C	1.813383	0.283161	0.395527
C113	C	1.063410	-0.536808	-0.354482
C114	C	1.313410	-0.286808	-0.104482
C115	C	1.563410	-0.036808	0.145518
C116	C	1.813410	0.213192	0.395518
C117	C	1.110464	-0.569611	-0.401588
C118	C	1.360464	-0.319611	-0.151588
C119	C	1.610464	-0.069611	0.098412
C120	C	1.860464	0.180389	0.348412
C121	C	1.110490	-0.635354	-0.401606
C122	C	1.360490	-0.385354	-0.151606
C123	C	1.610490	-0.135354	0.098394
C124	C	1.860490	0.114646	0.348394
C125	C	1.063470	-0.668290	-0.354505
C126	C	1.313470	-0.418290	-0.104505
C127	C	1.563470	-0.168290	0.145495
C128	C	1.813470	0.081710	0.395495
C129	C	1.016408	-0.635478	-0.307396
C130	C	1.266408	-0.385478	-0.057396
C131	C	1.516408	-0.135478	0.192604
C132	C	1.766408	0.114522	0.442604
C133	C	1.016378	-0.569737	-0.307384
C134	C	1.266378	-0.319737	-0.057384
C135	C	1.516378	-0.069737	0.192616
C136	C	1.766378	0.180263	0.442616
N137	N	1.057911	-0.771552	-0.290099
N138	N	1.307911	-0.521552	-0.040099
N139	N	1.557911	-0.271552	0.209901
N140	N	1.807911	-0.021552	0.459901
N141	N	1.057944	-0.834004	-0.290112
N142	N	1.307944	-0.584004	-0.040112
N143	N	1.557944	-0.334004	0.209888
N144	N	1.807944	-0.084004	0.459888
C145	C	1.063556	-0.866365	-0.354538
C146	C	1.313556	-0.616365	-0.104538
C147	C	1.563556	-0.366365	0.145462
C148	C	1.813556	-0.116365	0.395462
N149	N	1.069149	-0.833915	-0.418952
N150	N	1.319149	-0.583915	-0.168952
N151	N	1.569149	-0.333915	0.081048
N152	N	1.819149	-0.083915	0.331048
N153	N	1.069120	-0.771458	-0.418938
N154	N	1.319120	-0.521458	-0.168938
N155	N	1.569120	-0.271458	0.081062
N156	N	1.819120	-0.021458	0.331062
C157	C	1.063497	-0.739575	-0.354513
C158	C	1.313497	-0.489575	-0.104513
C159	C	1.563497	-0.239575	0.145487
C160	C	1.813497	0.010425	0.395487
C161	C	1.110640	-0.970454	-0.401668
C162	C	1.360640	-0.720454	-0.151668
C163	C	1.610640	-0.470454	0.098332
C164	C	1.860640	-0.220454	0.348332
C165	C	1.110661	-1.036198	-0.401687
C166	C	1.360661	-0.786198	-0.151687
C167	C	1.610661	-0.536198	0.098313
C168	C	1.860661	-0.286198	0.348313
C169	C	1.016583	-1.036321	-0.307470
C170	C	1.266583	-0.786321	-0.057470
C171	C	1.516583	-0.536321	0.192530
C172	C	1.766583	-0.286321	0.442530
C173	C	1.016558	-0.970579	-0.307458
C174	C	1.266558	-0.720579	-0.057458
C175	C	1.516558	-0.470579	0.192542
C176	C	1.766558	-0.220579	0.442542
C177	C	1.063591	-0.937649	-0.354555
C178	C	1.313591	-0.687649	-0.104555
C179	C	1.563591	-0.437649	0.145445
C180	C	1.813591	-0.187649	0.395445
C181	C	1.255430	-0.303308	-0.354524
C182	C	1.505430	-0.053308	-0.104524
C183	C	1.755430	0.196692	0.145476
C184	C	2.005430	0.446692	0.395476
C185	C	1.337229	-0.303316	-0.354530
C186	C	1.587229	-0.053316	-0.104530
C187	C	1.837229	0.196684	0.145470
C188	C	2.087229	0.446684	0.395470
C189	C	1.063522	-0.303244	-0.546463
C190	C	1.313522	-0.053244	-0.296463
C191	C	1.563522	0.196756	-0.046463
C192	C	1.813522	0.446756	0.203537
C193	C	1.063541	-0.303226	-0.628262
C194	C	1.313541	-0.053226	-0.378262
C195	C	1.563541	0.196774	-0.128262
C196	C	1.813541	0.446774	0.121738
C197	C	1.063591	-0.139098	-0.354564
C198	C	1.313591	0.110902	-0.104564
C199	C	1.563591	0.360902	0.145436
C200	C	1.813591	0.610902	0.395436
C201	C	1.063640	-0.069129	-0.354587
C202	C	1.313640	0.180871	-0.104587
C203	C	1.563640	0.430871	0.145413
C204	C	1.813640	0.680871	0.395413
C205	C	1.110655	-0.262932	-0.816474
C206	C	1.360655	-0.012932	-0.566474
C207	C	1.610655	0.237068	-0.316474
C208	C	1.860655	0.487068	-0.066474
C209	C	1.110664	-0.262913	-0.893333
C210	C	1.360664	-0.012913	-0.643333
C211	C	1.610664	0.237087	-0.393333
C212	C	1.860664	0.487087	-0.143333
C213	C	1.016479	-0.343423	-0.893289
C214	C	1.266479	-0.093423	-0.643289
C215	C	1.516479	0.156577	-0.393289
C216	C	1.766479	0.406577	-0.143289
C217	C	1.016467	-0.343438	-0.816431
C218	C	1.266467	-0.093438	-0.566431
C219	C	1.516467	0.156562	-0.316431
C220	C	1.766467	0.406562	-0.066431
C221	C	1.063559	-0.303193	-0.778026
C222	C	1.313559	-0.053193	-0.528026
C223	C	1.563559	0.196807	-0.278026
C224	C	1.813559	0.446807	-0.028026
C225	C	1.063580	-0.303160	-0.931742
C226	C	1.313580	-0.053160	-0.681742
C227	C	1.563580	0.196840	-0.431742
C228	C	1.813580	0.446840	-0.181742
C229	C	1.063589	-0.303140	-1.015076
C230	C	1.313589	-0.053140	-0.765076
C231	C	1.563589	0.196860	-0.515076
C232	C	1.813589	0.446860	-0.265076
C233	C	1.063549	-0.303211	-0.694687
C234	C	1.313549	-0.053211	-0.444687
C235	C	1.563549	0.196789	-0.194687
C236	C	1.813549	0.446789	0.055313
C237	C	1.063475	-0.303286	-0.163304
C238	C	1.313475	-0.053286	0.086696
C239	C	1.563475	0.196714	0.336696
C240	C	1.813475	0.446714	0.586696
C241	C	1.063598	-0.303127	-0.081506
C242	C	1.313598	-0.053127	0.168494
C243	C	1.563598	0.196873	0.418494
C244	C	1.813598	0.446873	0.668494
H245	H	0.494201	-0.230354	-0.440062
H246	H	0.744201	0.019646	-0.190062
H247	H	0.994201	0.269646	0.059938
H248	H	1.244201	0.519646	0.309938
H249	H	1.148999	-0.230160	-0.785207
H250	H	1.398999	0.019840	-0.535207
H251	H	1.648999	0.269840	-0.285207
H252	H	1.898999	0.519840	-0.035207
H253	H	1.149013	-0.230128	-0.924634
H254	H	1.399013	0.019872	-0.674634
H255	H	1.649013	0.269872	-0.424634
H256	H	1.899013	0.519872	-0.174634
H257	H	0.978140	-0.376190	-0.924568
H258	H	1.228140	-0.126190	-0.674568
H259	H	1.478140	0.123810	-0.424568
H260	H	1.728140	0.373810	-0.174568
H261	H	0.978111	-0.376223	-0.785126
H262	H	1.228111	-0.126223	-0.535126
H263	H	1.478111	0.123777	-0.285126
H264	H	1.728111	0.373777	-0.035126
H265	H	0.494066	-0.376245	-0.268978
H266	H	0.744066	-0.126245	-0.018978
H267	H	0.994066	0.123755	0.231022
H268	H	1.244066	0.373755	0.481022
H269	H	0.633628	-0.230343	-0.440059
H270	H	0.883628	0.019657	-0.190059
H271	H	1.133628	0.269657	0.059941
H272	H	1.383628	0.519657	0.309941
H273	H	1.148758	-0.542802	-0.439940
H274	H	1.398758	-0.292802	-0.189940
H275	H	1.648758	-0.042802	0.060060
H276	H	1.898758	0.207198	0.310060
H277	H	0.633507	-0.376236	-0.268962
H278	H	0.883507	-0.126236	-0.018962
H279	H	1.133507	0.123764	0.231038
H280	H	1.383507	0.373764	0.481038
H281	H	1.148800	-0.662068	-0.439974
H282	H	1.398800	-0.412068	-0.189974
H283	H	1.648800	-0.162068	0.060026
H284	H	1.898800	0.087932	0.310026
H285	H	0.978122	-0.662299	-0.269047
H286	H	1.228122	-0.412299	-0.019047
H287	H	1.478122	-0.162299	0.230953
H288	H	1.728122	0.087701	0.480953
H289	H	0.978061	-0.543028	-0.269024
H290	H	1.228061	-0.293028	-0.019024
H291	H	1.478061	-0.043028	0.230976
H292	H	1.728061	0.206972	0.480976
H293	H	1.148934	-0.943642	-0.440020
H294	H	1.398934	-0.693642	-0.190020
H295	H	1.648934	-0.443642	0.059980
H296	H	1.898934	-0.193642	0.309980
H297	H	1.148977	-1.062905	-0.440050
H298	H	1.398977	-0.812905	-0.190050
H299	H	1.648977	-0.562905	0.059950
H300	H	1.898977	-0.312905	0.309950
H301	H	0.978294	-1.063137	-0.269124
H302	H	1.228294	-0.813137	-0.019124
H303	H	1.478294	-0.563137	0.230876
H304	H	1.728294	-0.313137	0.480876
H305	H	0.978246	-0.943868	-0.269096
H306	H	1.228246	-0.693868	-0.019096
H307	H	1.478246	-0.443868	0.230904
H308	H	1.728246	-0.193868	0.480904
