data_functionalizedCrystal
_audit_creation_method	'MofGen! by Chris Wilmer'
_symmetry_space_group_name_H-M	'P1'
_symmetry_Int_Tables_number	1
_symmetry_cell_setting	triclinic
loop_
_symmetry_equiv_pos_as_xyz
  x,y,z
_cell_length_a	12.837942
_cell_length_b	19.288864
_cell_length_c	17.766277
_cell_angle_alpha	90.023209
_cell_angle_beta	89.994736
_cell_angle_gamma	91.017407
loop_
_atom_site_label
_atom_site_type_symbol
_atom_site_fract_x
_atom_site_fract_y
_atom_site_fract_z
O1	O	0.129276	-0.930181	-0.062838
O2	O	0.146715	-0.729111	-0.062786
O3	O	-0.012886	-0.825187	-0.062806
O4	O	0.288878	-0.834104	-0.062818
O5	O	-0.012894	-0.825168	0.062382
O6	O	0.146707	-0.729091	0.062402
O7	O	0.129268	-0.930161	0.062351
Cu8	Cu	0.137987	-0.829625	0.073807
Cu9	Cu	0.137996	-0.829647	-0.074243
O10	O	0.288870	-0.834085	0.062371
C11	C	0.146150	-0.703186	-0.000185
C12	C	0.144466	-0.625968	-0.000166
C13	C	-0.051497	-0.822165	-0.000212
C14	C	-0.166532	-0.813181	-0.000211
N15	N	0.137979	-0.829614	0.177938
C16	C	-0.407995	-0.921187	-0.000254
C17	C	-0.516081	-0.912748	-0.000253
C18	C	-0.490793	-0.787867	-0.000213
C19	C	-0.382707	-0.796305	-0.000214
C20	C	-0.341312	-0.862967	-0.000233
C21	C	-0.233223	-0.871405	-0.000229
C22	C	-0.207938	-0.746524	-0.000195
C23	C	-0.316024	-0.738086	-0.000194
C24	C	0.327480	-0.837107	-0.000225
C25	C	0.442515	-0.846091	-0.000231
C26	C	0.129833	-0.956086	-0.000252
C27	C	0.131518	-1.033304	-0.000276
C28	C	0.238113	-0.587666	-0.000181
C29	C	0.236530	-0.515111	-0.000189
C30	C	0.141295	-0.480860	-0.000197
C31	C	0.047636	-0.519171	-0.000178
C32	C	0.049221	-0.591725	-0.000162
C33	C	0.066433	-0.367493	-0.044079
C34	C	0.064852	-0.294941	-0.044099
C35	C	0.136402	-0.257081	-0.000243
C36	C	0.209552	-0.291782	0.043625
C37	C	0.211137	-0.364335	0.043640
C38	C	0.139566	-0.402188	-0.000214
C39	C	0.228340	-0.140106	-0.000266
C40	C	0.226753	-0.067550	-0.000270
C41	C	0.037857	-0.071611	-0.000265
C42	C	0.039446	-0.144166	-0.000254
C43	C	0.134690	-0.178409	-0.000258
N44	N	0.137996	-0.829663	-0.178373
C45	C	0.067342	-0.872174	0.217316
C46	C	0.067338	-0.872178	0.296118
C47	C	0.137988	-0.829629	0.335538
C48	C	0.208630	-0.787060	0.296151
C49	C	0.208626	-0.787052	0.217350
C50	C	0.232410	-0.826778	0.460374
C51	C	0.232416	-0.826790	0.539173
C52	C	0.138000	-0.829648	0.578584
C53	C	0.043575	-0.832508	0.539188
C54	C	0.043571	-0.832501	0.460387
C55	C	0.138000	-0.829632	0.420984
C56	C	0.067352	-0.872215	0.703409
C57	C	0.067346	-0.872213	0.782212
C58	C	0.208647	-0.787100	0.782243
C59	C	0.208645	-0.787097	0.703442
C60	C	0.137998	-0.829658	0.664029
H61	H	-0.199522	-0.925684	-0.000242
H62	H	-0.349743	-0.683812	-0.000181
O63	O	-0.054565	-0.038240	-0.000308
C64	C	-0.035886	0.034012	-0.000304
H65	H	0.045068	0.045653	-0.024007
H66	H	-0.096801	0.060270	-0.036655
H67	H	-0.040820	0.054538	0.059751
H68	H	0.009814	-0.906836	0.328185
H69	H	-0.027040	-0.622910	-0.000150
H70	H	-0.374291	-0.975465	-0.000262
H71	H	-0.029905	-0.491280	-0.000194
H72	H	-0.033307	-0.834835	0.571275
O73	O	-0.580710	-0.969377	-0.000238
C74	C	-0.520990	-1.030020	-0.000276
H75	H	-0.440239	-1.017727	0.023431
H76	H	-0.561067	-1.071248	0.036056
H77	H	-0.513373	-1.050121	-0.060341
O78	O	0.324227	-0.823980	0.577323
C79	C	0.407559	-0.821463	0.525642
H80	H	0.378964	-0.800484	0.469486
H81	H	0.472198	-0.786017	0.548425
H82	H	0.438902	-0.875851	0.517225
H83	H	-0.524517	-0.733594	-0.000206
H84	H	0.309300	-0.824438	0.428291
H85	H	0.009816	-0.906828	0.185228
O86	O	-0.001105	-0.913671	0.665109
C87	C	0.054286	-0.960167	0.619522
H88	H	0.136022	-0.966683	0.643260
H89	H	0.011861	-1.012585	0.618651
H90	H	0.059763	-0.938831	0.559793
H91	H	0.009819	-0.906869	0.814274
O92	O	-0.143013	-0.690039	-0.000211
C93	C	-0.038735	-0.711778	-0.000194
H94	H	-0.034833	-0.766595	-0.023911
H95	H	0.010425	-0.675112	-0.036527
H96	H	-0.007475	-0.711206	0.059867
O97	O	0.277118	-0.745691	0.334524
C98	C	0.221781	-0.699178	0.380124
H99	H	0.140585	-0.721472	0.391924
H100	H	0.265081	-0.691061	0.435538
H101	H	0.214931	-0.647389	0.349787
O102	O	0.277351	-0.745691	0.179211
C103	C	0.339689	-0.708120	0.230898
H104	H	0.340754	-0.736668	0.287056
H105	H	0.422490	-0.703000	0.208126
H106	H	0.306235	-0.654312	0.239307
O107	O	0.317661	-0.030268	-0.000386
C108	C	0.322402	0.011775	-0.065240
H109	H	0.240162	0.020872	-0.086848
H110	H	0.361264	0.063660	-0.050672
H111	H	0.369613	-0.015211	-0.110642
O112	O	-0.006163	-0.261313	-0.086818
C113	C	0.007895	-0.278781	-0.163170
H114	H	0.048849	-0.330607	-0.167247
H115	H	-0.071213	-0.282984	-0.192117
H116	H	0.057415	-0.236881	-0.191886
H117	H	0.315668	-0.615542	-0.000186
O118	O	0.327598	-0.478000	-0.000244
C119	C	0.412001	-0.523782	-0.000224
H120	H	0.385445	-0.576112	-0.023906
H121	H	0.477589	-0.501419	-0.036586
H122	H	0.441220	-0.530835	0.059833
H123	H	0.270694	-0.392586	0.079361
H124	H	0.267814	-0.260958	0.079337
H125	H	-0.036812	-0.175352	-0.000246
O126	O	0.320918	-0.173299	-0.000360
C127	C	0.377987	-0.154384	-0.065208
H128	H	0.349988	-0.102292	-0.086833
H129	H	0.464331	-0.150040	-0.050625
H130	H	0.365790	-0.195522	-0.110602
H131	H	0.008166	-0.398313	-0.079797
O132	O	-0.048090	-0.835162	0.422043
C133	C	-0.056217	-0.775643	0.376523
H134	H	0.024940	-0.753286	0.364721
H135	H	-0.095639	-0.790247	0.321107
H136	H	-0.104524	-0.735270	0.406933
H137	H	0.266168	-0.752453	0.814339
H138	H	0.266168	-0.752444	0.671378
