data_functionalizedCrystal
_audit_creation_method	'MofGen! by Chris Wilmer'
_symmetry_space_group_name_H-M	'P1'
_symmetry_Int_Tables_number	1
_symmetry_cell_setting	triclinic
loop_
_symmetry_equiv_pos_as_xyz
  x,y,z
_cell_length_a	13.032721
_cell_length_b	13.032951
_cell_length_c	10.685880
_cell_angle_alpha	100.956036
_cell_angle_beta	102.020524
_cell_angle_gamma	89.099524
loop_
_atom_site_label
_atom_site_type_symbol
_atom_site_fract_x
_atom_site_fract_y
_atom_site_fract_z
Zn1	Zn	-0.684025	-1.578139	-1.059959
Zn2	Zn	-0.842516	-1.545710	-0.868287
Zn3	Zn	-0.644921	-1.392754	-0.814596
Zn4	Zn	-0.833579	-1.383913	-1.053083
O5	O	-0.751260	-1.475129	-0.948981
O6	O	-0.725154	-1.719134	-1.059881
O7	O	-0.803679	-1.515549	-0.681142
O8	O	-0.504825	-1.434617	-0.827552
O9	O	-0.841597	-1.695309	-0.919060
O10	O	-0.533554	-1.570819	-1.007819
O11	O	-0.658507	-1.403172	-0.641696
O12	O	-0.649841	-1.246284	-0.820885
O13	O	-0.826365	-1.419549	-1.234017
O14	O	-0.788448	-1.239788	-0.996099
O15	O	-0.716488	-1.562246	-1.239069
O16	O	-0.986613	-1.506976	-0.912393
O17	O	-0.980047	-1.388104	-1.048161
C18	C	-0.713932	-1.205362	-0.901921
C19	C	-0.697990	-1.089954	-0.881822
C20	C	-1.021007	-1.443091	-0.985390
C21	C	-1.136421	-1.429482	-1.001025
C22	C	-0.759556	-1.035296	-0.959450
C23	C	-0.743081	-0.916015	-0.938679
C24	C	-1.191103	-1.482290	-0.940889
C25	C	-1.310390	-1.468226	-0.957047
C26	C	-0.480466	-1.507322	-0.912464
C27	C	-0.365070	-1.521040	-0.896902
C28	C	-0.774792	-1.493528	-1.284526
C29	C	-0.784819	-1.501369	-1.427516
C30	C	-0.788722	-0.745950	-0.996216
C31	C	-0.804655	-0.861360	-1.016319
C32	C	-0.727753	-1.456870	-0.614742
C33	C	-0.717461	-1.449265	-0.471749
H34	H	-0.824458	-1.076809	-1.041293
C35	C	-0.873093	-1.569747	-1.524124
H36	H	-0.914009	-1.601378	-1.477202
H37	H	-0.843271	-1.622549	-1.579065
H38	H	-0.916471	-1.527488	-1.575700
C39	C	-1.135055	-1.557433	-0.855176
H40	H	-1.062232	-1.557023	-0.855554
H41	H	-1.163685	-1.626153	-0.888613
H42	H	-1.144658	-1.535467	-0.768466
H43	H	-0.652118	-1.398646	-1.400218
H44	H	-1.351884	-1.412604	-1.020505
H45	H	-0.869559	-0.902868	-1.098170
H46	H	-1.323579	-1.576671	-0.833455
H47	H	-0.633081	-1.048442	-0.799988
H48	H	-0.678167	-0.874507	-0.856840
C49	C	-1.192470	-1.354341	-1.086740
H50	H	-1.265291	-1.354741	-1.086349
H51	H	-1.182862	-1.376296	-1.173442
H52	H	-1.163841	-1.285615	-1.053290
