data_functionalizedCrystal
_audit_creation_method	'MofGen! by Chris Wilmer'
_symmetry_space_group_name_H-M	'P1'
_symmetry_Int_Tables_number	1
_symmetry_cell_setting	triclinic
loop_
_symmetry_equiv_pos_as_xyz
  x,y,z
_cell_length_a	17.699077
_cell_length_b	15.944551
_cell_length_c	16.776229
_cell_angle_alpha	89.992397
_cell_angle_beta	89.993415
_cell_angle_gamma	83.389657
loop_
_atom_site_label
_atom_site_type_symbol
_atom_site_fract_x
_atom_site_fract_y
_atom_site_fract_z
O1	O	1.004263	0.106198	-0.066279
O2	O	1.504263	0.606198	0.433721
O3	O	0.783907	0.120023	-0.066283
O4	O	1.283907	0.620023	0.433717
O5	O	0.900102	-0.009177	-0.066274
O6	O	1.400102	0.490823	0.433726
O7	O	0.888068	0.235398	-0.066289
O8	O	1.388068	0.735398	0.433711
O9	O	0.900087	-0.009185	0.066302
O10	O	1.400087	0.490815	0.566302
O11	O	0.783892	0.120015	0.066293
O12	O	1.283892	0.620015	0.566293
O13	O	1.004247	0.106190	0.066297
O14	O	1.504247	0.606190	0.566297
Zn15	Zn	0.894067	0.113101	0.087345
Zn16	Zn	1.394067	0.613101	0.587345
Zn17	Zn	0.894087	0.113112	-0.087331
Zn18	Zn	1.394087	0.613112	0.412669
O19	O	0.888052	0.235390	0.066288
O20	O	1.388052	0.735390	0.566288
C21	C	0.755702	0.119524	0.000004
C22	C	1.255702	0.619524	0.500004
C23	C	0.671681	0.118041	0.000003
C24	C	1.171681	0.618041	0.500003
C25	C	0.632204	0.117337	0.072271
C26	C	1.132204	0.617337	0.572271
C27	C	0.553259	0.115930	0.072272
C28	C	1.053259	0.615930	0.572272
C29	C	0.513792	0.115232	0.000004
C30	C	1.013792	0.615232	0.500004
C31	C	0.553274	0.115933	-0.072270
C32	C	1.053274	0.615933	0.427730
C33	C	0.632219	0.117334	-0.072270
C34	C	1.132219	0.617334	0.427730
C35	C	0.234902	0.110280	-0.072271
C36	C	0.734902	0.610280	0.427729
C37	C	0.155951	0.108882	-0.072265
C38	C	0.655951	0.608882	0.427735
C39	C	0.155942	0.108876	0.072271
C40	C	0.655942	0.608876	0.572271
C41	C	0.234886	0.110277	0.072271
C42	C	0.734886	0.610277	0.572271
C43	C	0.274362	0.110974	-0.000002
C44	C	0.774362	0.610974	0.499998
C45	C	0.359964	0.112498	-0.000002
C46	C	0.859964	0.612498	0.499998
C47	C	0.428191	0.113714	0.000003
C48	C	0.928191	0.613714	0.500003
C49	C	0.899595	-0.040474	0.000014
C50	C	1.399595	0.459526	0.500014
C51	C	0.898097	-0.133717	0.000015
C52	C	1.398097	0.366283	0.500015
C53	C	0.822494	-0.348413	0.000002
C54	C	1.322494	0.151587	0.500002
C55	C	0.857594	-0.409509	0.065371
C56	C	1.357594	0.090491	0.565371
C57	C	0.895388	-0.304437	0.000009
C58	C	1.395388	0.195563	0.500009
C59	C	0.857626	-0.409484	-0.065339
C60	C	1.357626	0.090516	0.434661
C61	C	0.892765	-0.469344	-0.000001
C62	C	1.392765	0.030656	0.499999
C63	C	0.930508	-0.364305	0.065431
C64	C	1.430508	0.135695	0.565431
C65	C	0.930530	-0.364274	-0.065337
C66	C	1.430530	0.135726	0.434663
C67	C	0.965683	-0.425352	0.000048
C68	C	1.465683	0.074648	0.500048
C69	C	0.896896	-0.209438	0.000015
C70	C	1.396896	0.290562	0.500015
C71	C	0.891261	-0.564342	-0.000001
C72	C	1.391261	-0.064342	0.499999
C73	C	1.032453	0.106689	0.000008
C74	C	1.532453	0.606689	0.500008
C75	C	1.116474	0.108172	0.000004
C76	C	1.616474	0.608172	0.500004
C77	C	0.888559	0.266687	-0.000002
C78	C	1.388559	0.766687	0.499998
C79	C	0.890057	0.359930	-0.000008
C80	C	1.390057	0.859930	0.499992
N81	N	0.894059	0.113094	0.206556
N82	N	1.394059	0.613094	0.706556
N83	N	0.894102	0.113113	-0.206542
N84	N	1.394102	0.613113	0.293458
C85	C	0.945526	0.055907	0.248277
C86	C	1.445526	0.555907	0.748277
C87	C	0.945530	0.055907	0.331729
C88	C	1.445530	0.555907	0.831729
C89	C	0.894070	0.113097	0.373459
C90	C	1.394070	0.613097	0.873459
C91	C	0.842598	0.170286	0.331732
C92	C	1.342598	0.670286	0.831732
C93	C	0.842591	0.170282	0.248281
C94	C	1.342591	0.670282	0.748281
C95	C	0.842625	0.170302	0.668279
C96	C	1.342625	0.670302	1.168279
C97	C	0.842638	0.170304	0.751735
C98	C	1.342638	0.670304	1.251735
C99	C	0.945564	0.055927	0.751727
C100	C	1.445564	0.555927	1.251727
C101	C	0.945557	0.055923	0.668276
C102	C	1.445557	0.555923	1.168276
C103	C	0.894083	0.113109	0.626557
C104	C	1.394083	0.613109	1.126557
C105	C	0.894078	0.113108	0.536068
C106	C	1.394078	0.613108	1.036068
C107	C	0.894078	0.113103	0.463945
C108	C	1.394078	0.613103	0.963945
H109	H	0.123820	0.108312	-0.131118
H110	H	0.623820	0.608312	0.368882
H111	H	0.664360	0.117909	-0.131118
H112	H	1.164360	0.617909	0.368882
H113	H	0.664332	0.117913	0.131121
H114	H	1.164332	0.617913	0.631121
C115	C	0.509835	0.115176	0.151773
C116	C	1.009835	0.615176	0.651773
N117	N	0.477129	0.114614	0.211657
N118	N	0.977129	0.614614	0.711657
C119	C	1.002136	-0.007008	0.202382
C120	C	1.502136	0.492992	0.702382
N121	N	1.044774	-0.054401	0.167817
N122	N	1.544774	0.445599	0.667817
C123	C	0.112512	0.108100	0.151774
C124	C	0.612512	0.608100	0.651774
N125	N	0.079801	0.107517	0.211654
N126	N	0.579801	0.607517	0.711654
H127	H	0.800695	0.216849	0.365712
H128	H	1.300695	0.716849	0.865712
H129	H	0.800680	0.216848	0.214312
H130	H	1.300680	0.716848	0.714312
H131	H	0.267034	0.110845	-0.131121
H132	H	0.767034	0.610845	0.368879
C133	C	1.002130	-0.007023	0.377619
C134	C	1.502130	0.492977	0.877619
N135	N	1.044756	-0.054433	0.412182
N136	N	1.544756	0.445567	0.912182
C137	C	1.002165	-0.006992	0.622379
C138	C	1.502165	0.493008	1.122379
N139	N	1.044801	-0.054385	0.587810
N140	N	1.544801	0.445615	1.087810
H141	H	0.267016	0.110850	0.131119
H142	H	0.767016	0.610850	0.631119
H143	H	0.987476	0.009360	0.785704
H144	H	1.487476	0.509360	1.285704
H145	H	0.800730	0.216877	0.785710
H146	H	1.300730	0.716877	1.285710
H147	H	0.521135	0.115359	-0.131112
H148	H	1.021135	0.615359	0.368888
C149	C	0.740757	-0.303235	0.000090
C150	C	1.240757	0.196765	0.500090
N151	N	0.679195	-0.269204	0.000161
N152	N	1.179195	0.230796	0.500161
C153	C	0.786100	0.233317	0.622398
C154	C	1.286100	0.733317	1.122398
N155	N	0.743557	0.280822	0.587838
N156	N	1.243557	0.780822	1.087838
H157	H	0.826756	-0.429555	0.120634
H158	H	1.326756	0.070445	0.620634
H159	H	0.961306	-0.344383	0.120756
H160	H	1.461306	0.155617	0.620756
H161	H	0.826792	-0.429492	-0.120607
H162	H	1.326792	0.070508	0.379393
C163	C	1.047491	-0.470331	0.000101
C164	C	1.547491	0.029669	0.500101
N165	N	1.109108	-0.504212	0.000146
N166	N	1.609108	-0.004212	0.500146
H167	H	0.961341	-0.344206	-0.120603
H168	H	1.461341	0.155794	0.379397
