data_functionalizedCrystal
_audit_creation_method	'MofGen! by Chris Wilmer'
_symmetry_space_group_name_H-M	'P1'
_symmetry_Int_Tables_number	1
_symmetry_cell_setting	triclinic
loop_
_symmetry_equiv_pos_as_xyz
  x,y,z
_cell_length_a	16.109295
_cell_length_b	13.596369
_cell_length_c	16.109304
_cell_angle_alpha	89.997583
_cell_angle_beta	96.539088
_cell_angle_gamma	89.997006
loop_
_atom_site_label
_atom_site_type_symbol
_atom_site_fract_x
_atom_site_fract_y
_atom_site_fract_z
O1	O	-1.103138	0.081718	0.106839
O2	O	-0.603138	0.581718	0.606839
O3	O	-0.861076	0.081734	0.120143
O4	O	-0.361076	0.581734	0.620143
O5	O	-0.988755	0.081726	-0.007540
O6	O	-0.488755	0.581726	0.492460
O7	O	-0.975459	0.081726	0.234522
O8	O	-0.475459	0.581726	0.734522
O9	O	-0.988740	-0.081857	-0.007533
O10	O	-0.488740	0.418143	0.492467
O11	O	-0.861060	-0.081849	0.120151
O12	O	-0.361060	0.418151	0.620151
O13	O	-1.103123	-0.081865	0.106846
O14	O	-0.603123	0.418135	0.606846
Zn15	Zn	-0.982089	-0.107829	0.113500
Zn16	Zn	-0.482089	0.392171	0.613500
Zn17	Zn	-0.982109	0.107698	0.113490
Zn18	Zn	-0.482109	0.607698	0.613490
O19	O	-0.975443	-0.081857	0.234529
O20	O	-0.475443	0.418143	0.734529
C21	C	-0.830093	-0.000055	0.119609
C22	C	-0.330093	0.499945	0.619609
C23	C	-0.737797	-0.000049	0.117996
C24	C	-0.237797	0.499951	0.617996
N25	N	-0.982081	-0.254921	0.113505
N26	N	-0.482081	0.245079	0.613505
C27	C	-0.515525	-0.000059	0.190008
C28	C	-0.015525	0.499941	0.690008
C29	C	-0.428804	-0.000065	0.188485
C30	C	0.071196	0.499935	0.688485
C31	C	-0.448677	-0.000061	0.036996
C32	C	0.051323	0.499939	0.536996
C33	C	-0.535396	-0.000062	0.038520
C34	C	-0.035396	0.499938	0.538520
C35	C	-0.568818	-0.000056	0.115028
C36	C	-0.068818	0.499944	0.615028
C37	C	-0.395378	-0.000061	0.111982
C38	C	0.104622	0.499939	0.611982
C39	C	-0.301352	-0.000068	0.110331
C40	C	0.198648	0.499932	0.610331
C41	C	-0.662850	-0.000052	0.116679
C42	C	-0.162850	0.499948	0.616679
C43	C	-0.982085	-0.343919	0.113507
C44	C	-0.482085	0.156081	0.613507
C45	C	-0.982093	-0.455570	0.113502
C46	C	-0.482093	0.044430	0.613502
C47	C	-0.982104	-0.544561	0.113492
C48	C	-0.482104	-0.044561	0.613492
C49	C	-0.982113	-0.656219	0.113487
C50	C	-0.482113	-0.156219	0.613487
C51	C	-0.134105	-0.000072	0.107386
C52	C	0.365895	0.499928	0.607386
C53	C	-0.226398	-0.000069	0.109014
C54	C	0.273602	0.499931	0.609014
C55	C	-0.988209	-0.000063	-0.038511
C56	C	-0.488209	0.499937	0.461489
C57	C	-0.986592	-0.000056	-0.130806
C58	C	-0.486592	0.499944	0.369194
N59	N	-0.982124	0.254790	0.113478
N60	N	-0.482124	0.754790	0.613478
C61	C	-0.982867	0.089110	-0.343147
C62	C	-0.482867	0.589110	0.156853
C63	C	-0.981341	0.089109	-0.429867
C64	C	-0.481341	0.589109	0.070133
C65	C	-0.981328	-0.089238	-0.429857
C66	C	-0.481328	0.410762	0.070143
C67	C	-0.982848	-0.089237	-0.343137
C68	C	-0.482848	0.410763	0.156863
C69	C	-0.983622	-0.000060	-0.299785
C70	C	-0.483622	0.499940	0.200215
C71	C	-0.980576	-0.000062	-0.473225
C72	C	-0.480576	0.499938	0.026775
C73	C	-0.978921	-0.000064	-0.567251
C74	C	-0.478921	0.499936	-0.067251
C75	C	-0.985275	-0.000058	-0.205753
C76	C	-0.485275	0.499942	0.294247
C77	C	-0.975990	-0.000066	0.265501
C78	C	-0.475990	0.499934	0.765501
C79	C	-0.977606	-0.000066	0.357796
C80	C	-0.477606	0.499934	0.857796
H81	H	-0.542734	-0.000062	0.252305
H82	H	-0.042734	0.499938	0.752305
H83	H	-0.421455	-0.000072	-0.025294
H84	H	0.078545	0.499928	0.474706
H85	H	-0.980725	0.161719	-0.465168
H86	H	-0.480725	0.661719	0.034832
H87	H	-0.578790	-0.000063	-0.022542
H88	H	-0.078790	0.499937	0.477458
F89	F	-0.983688	0.184019	-0.297011
F90	F	-0.483688	0.684019	0.202989
H91	H	-0.983458	-0.161853	-0.307831
H92	H	-0.483458	0.338147	0.192169
H93	H	-0.385417	-0.000070	0.249542
H94	H	0.114583	0.499930	0.749542
F95	F	-0.980505	-0.184141	-0.476002
F96	F	-0.480505	0.315859	0.023998
