data_functionalizedCrystal
_audit_creation_method	'MofGen! by Chris Wilmer'
_symmetry_space_group_name_H-M	'P1'
_symmetry_Int_Tables_number	1
_symmetry_cell_setting	triclinic
loop_
_symmetry_equiv_pos_as_xyz
  x,y,z
_cell_length_a	12.759401
_cell_length_b	25.639240
_cell_length_c	12.759393
_cell_angle_alpha	89.956284
_cell_angle_beta	89.980789
_cell_angle_gamma	90.033185
loop_
_atom_site_label
_atom_site_type_symbol
_atom_site_fract_x
_atom_site_fract_y
_atom_site_fract_z
Zn1	Zn	1.606130	-0.208117	-0.593892
Zn2	Zn	1.605967	-0.295563	-0.418174
Zn3	Zn	1.430430	-0.208144	-0.418231
Zn4	Zn	1.430365	-0.295524	-0.593815
O5	O	1.518223	-0.251837	-0.506028
O6	O	1.753129	-0.219722	-0.570591
O7	O	1.582640	-0.283994	-0.271160
O8	O	1.453832	-0.134975	-0.441590
O9	O	1.753009	-0.283968	-0.441491
O10	O	1.582918	-0.134955	-0.570647
O11	O	1.453674	-0.219768	-0.271202
O12	O	1.283400	-0.219730	-0.441514
O13	O	1.453722	-0.283901	-0.740846
O14	O	1.283353	-0.283927	-0.570515
O15	O	1.582855	-0.219684	-0.740903
O16	O	1.582578	-0.368723	-0.441416
O17	O	1.453564	-0.368694	-0.570459
C18	C	1.245255	-0.251828	-0.506013
C19	C	1.128479	-0.251836	-0.506032
C20	C	1.073680	-0.218444	-0.573358
C21	C	0.963956	-0.218449	-0.573364
C22	C	0.963839	-0.285244	-0.438717
C23	C	1.073561	-0.285236	-0.438705
C24	C	1.518074	-0.387679	-0.505946
C25	C	1.518107	-0.445793	-0.505946
C26	C	1.585471	-0.806107	-0.573349
C27	C	1.585502	-0.860712	-0.573371
O28	O	1.642601	-0.888907	-0.630595
N29	N	1.518369	-0.888076	-0.506129
C30	C	1.451192	-0.860832	-0.438870
O31	O	1.394092	-0.889122	-0.381679
C32	C	1.451157	-0.806229	-0.438855
C33	C	1.518302	-0.778868	-0.506093
C34	C	1.652610	-0.778746	-0.640583
C35	C	1.652581	-0.724146	-0.640560
C36	C	1.585412	-0.696906	-0.573303
C37	C	1.518272	-0.724268	-0.506070
C38	C	1.383976	-0.778987	-0.371601
C39	C	1.383945	-0.724380	-0.371593
C40	C	1.451091	-0.697019	-0.438831
C41	C	1.451073	-0.642428	-0.438790
N42	N	1.518207	-0.615064	-0.506032
C43	C	1.585376	-0.642303	-0.573288
C44	C	1.451270	-0.975503	-0.438909
C45	C	1.451310	-1.030105	-0.438918
C46	C	1.585620	-1.029981	-0.573420
C47	C	1.585584	-0.975378	-0.573405
C48	C	1.518404	-0.948139	-0.506150
C49	C	1.585309	-0.527638	-0.573234
C50	C	1.585276	-0.473033	-0.573202
C51	C	1.450964	-0.473162	-0.438704
C52	C	1.451000	-0.527762	-0.438732
C53	C	1.518176	-0.554999	-0.506005
O54	O	1.394000	-0.614198	-0.381598
O55	O	1.642457	-0.614007	-0.630479
C56	C	1.792256	-0.251846	-0.506043
C57	C	1.909033	-0.251850	-0.506050
C58	C	1.518299	-0.251785	-0.780061
C59	C	1.518332	-0.251763	-0.896838
C60	C	1.518400	-0.115464	-0.506134
C61	C	1.518476	-0.057350	-0.506179
C62	C	1.585598	-0.218300	-1.061463
C63	C	1.585578	-0.218320	-0.951739
C64	C	1.451109	-0.285192	-0.951668
C65	C	1.451135	-0.285174	-1.061390
C66	C	1.518207	-0.251850	-0.233061
C67	C	1.518378	-0.251725	-0.116284
H68	H	0.919112	-0.312437	-0.383903
N69	N	1.311490	-0.694998	-0.299052
H70	H	1.236422	-0.704526	-0.315310
H71	H	1.327941	-0.704542	-0.224032
H72	H	1.396395	-0.312395	-1.106027
N73	N	1.378594	-0.557277	-0.366201
H74	H	1.336042	-0.531733	-0.323588
H75	H	1.329959	-0.579930	-0.408935
H76	H	1.118390	-0.191246	-0.628176
N77	N	1.378526	-0.443777	-0.366159
H78	H	1.388699	-0.405035	-0.376356
H79	H	1.303487	-0.453343	-0.382452
H80	H	1.396360	-0.312424	-0.906959
N81	N	0.904850	-0.182427	-0.645968
H82	H	0.956292	-0.161268	-0.688610
H83	H	0.859320	-0.203737	-0.694510
H84	H	1.640352	-0.191064	-1.106155
N85	N	1.132676	-0.321250	-0.366078
H86	H	1.081239	-0.342411	-0.323433
H87	H	1.178202	-0.345467	-0.408741
N88	N	1.657701	-0.443522	-0.645724
H89	H	1.700252	-0.469067	-0.688335
H90	H	1.614897	-0.420862	-0.694299
H91	H	1.640003	-0.549808	-0.628022
N92	N	1.724994	-0.694639	-0.713089
H93	H	1.767540	-0.720187	-0.755697
H94	H	1.682185	-0.671982	-0.761667
H95	H	1.707308	-0.800919	-0.695357
H96	H	1.640259	-0.953103	-0.628156
H97	H	1.640317	-0.191103	-0.907108
N98	N	1.658069	-1.059366	-0.645964
H99	H	1.647895	-1.098108	-0.635768
H100	H	1.641669	-1.049796	-0.720982
H101	H	1.396645	-1.052378	-0.384154
N102	N	1.378817	-0.946126	-0.366356
H103	H	1.336300	-0.971750	-0.323764
H104	H	1.421595	-0.923475	-0.317764
N105	N	1.311555	-0.808489	-0.299078
H106	H	1.269002	-0.782940	-0.256480
H107	H	1.262922	-0.831145	-0.341808
