data_functionalizedCrystal
_audit_creation_method	'MofGen! by Chris Wilmer'
_symmetry_space_group_name_H-M	'P1'
_symmetry_Int_Tables_number	1
_symmetry_cell_setting	triclinic
loop_
_symmetry_equiv_pos_as_xyz
  x,y,z
_cell_length_a	14.519731
_cell_length_b	9.130313
_cell_length_c	10.654546
_cell_angle_alpha	90.003654
_cell_angle_beta	84.086188
_cell_angle_gamma	89.998652
loop_
_atom_site_label
_atom_site_type_symbol
_atom_site_fract_x
_atom_site_fract_y
_atom_site_fract_z
O1	O	-1.224703	0.121821	-0.164745
O2	O	-0.956329	0.121813	-0.184104
O3	O	-1.096688	0.121826	0.008374
O4	O	-1.084344	0.121808	-0.357223
O5	O	-1.096686	-0.121773	0.008369
O6	O	-0.956327	-0.121785	-0.184109
O7	O	-1.224701	-0.121778	-0.164750
Cu8	Cu	-1.090514	-0.144024	-0.174430
Cu9	Cu	-1.090516	0.144059	-0.174424
O10	O	-1.084342	-0.121791	-0.357228
C11	C	-0.921964	0.000013	-0.183199
C12	C	-0.819570	0.000011	-0.180481
N13	N	-1.090519	-0.346647	-0.174434
C14	C	-0.736414	0.000015	-0.178273
C15	C	-0.632091	0.000013	-0.175513
C16	C	-0.548941	0.000010	-0.173323
C17	C	-0.444611	0.000011	-0.170563
C18	C	-1.152686	-0.423293	-0.089234
C19	C	-1.152684	-0.576630	-0.089218
C20	C	-1.028344	-0.576661	-0.259615
C21	C	-1.028343	-0.423327	-0.259623
C22	C	-1.214863	-0.346614	-0.004044
C23	C	-1.277035	-0.423261	0.081162
C24	C	-1.277033	-0.576597	0.081177
C25	C	-1.214858	-0.653288	-0.004014
C26	C	-0.259066	0.000018	-0.165655
C27	C	-0.361460	0.000008	-0.168373
C28	C	-1.095781	0.000032	0.055161
C29	C	-1.093072	0.000047	0.194578
N30	N	-1.090518	0.346682	-0.174411
C31	C	-1.175712	0.000051	0.274850
C32	C	-1.173161	0.000071	0.405847
C33	C	-1.005320	0.000078	0.376287
C34	C	-1.007873	0.000068	0.245293
C35	C	-1.260911	0.000030	0.224135
C36	C	-1.343559	0.000032	0.304409
C37	C	-1.341007	0.000052	0.435405
C38	C	-1.255808	0.000070	0.486129
C39	C	-1.085251	0.000026	0.595986
C40	C	-1.087967	0.000077	0.456569
H41	H	-1.214872	-0.221759	-0.004051
O42	O	-0.913434	0.000084	0.430999
H43	H	-0.856395	0.000091	0.353171
H44	H	-1.327652	-0.360812	0.150529
H45	H	-1.412925	0.000053	0.263100
H46	H	-1.214855	-0.778145	-0.003986
H47	H	-1.408303	0.000068	0.500761
O48	O	-1.253050	0.000089	0.627419
H49	H	-1.324830	0.000082	0.674720
H50	H	-1.327650	-0.639002	0.150563
H51	H	-0.940579	0.000064	0.179933
O52	O	-0.961309	-0.659378	-0.351519
H53	H	-0.918079	-0.580319	-0.410768
O54	O	-0.961299	-0.340640	-0.351521
H55	H	-0.918075	-0.419718	-0.410772
O56	O	-1.263660	0.000011	0.082847
H57	H	-1.336786	0.000007	0.061064
