data_functionalizedCrystal
_audit_creation_method	'MofGen! by Chris Wilmer'
_symmetry_space_group_name_H-M	'P1'
_symmetry_Int_Tables_number	1
_symmetry_cell_setting	triclinic
loop_
_symmetry_equiv_pos_as_xyz
  x,y,z
_cell_length_a	19.805407
_cell_length_b	16.120444
_cell_length_c	19.805399
_cell_angle_alpha	92.871785
_cell_angle_beta	89.982197
_cell_angle_gamma	92.923874
loop_
_atom_site_label
_atom_site_type_symbol
_atom_site_fract_x
_atom_site_fract_y
_atom_site_fract_z
Zn1	Zn	1.021068	-0.331988	-0.396351
Zn2	Zn	1.521068	0.168012	0.103649
Zn3	Zn	1.015243	-0.471406	-0.288901
Zn4	Zn	1.515243	0.028594	0.211099
Zn5	Zn	0.907882	-0.332004	-0.283180
Zn6	Zn	1.407882	0.167996	0.216820
Zn7	Zn	0.902108	-0.471356	-0.402049
Zn8	Zn	1.402108	0.028644	0.097951
O9	O	0.961575	-0.401688	-0.342621
O10	O	1.461575	0.098312	0.157379
O11	O	1.115011	-0.350496	-0.382108
O12	O	1.615011	0.149504	0.117892
O13	O	1.000980	-0.452943	-0.193427
O14	O	1.500980	0.047057	0.306573
O15	O	0.927750	-0.215336	-0.293414
O16	O	1.427750	0.284664	0.206586
O17	O	1.110732	-0.452927	-0.303164
O18	O	1.610732	0.047073	0.196836
O19	O	1.010908	-0.215324	-0.376560
O20	O	1.510908	0.284676	0.123440
O21	O	0.922102	-0.350524	-0.189224
O22	O	1.422102	0.149476	0.310776
O23	O	0.812400	-0.350475	-0.298939
O24	O	1.312400	0.149525	0.201061
O25	O	0.917910	-0.452840	-0.496009
O26	O	1.417910	0.047160	0.003991
O27	O	0.808158	-0.452856	-0.386272
O28	O	1.308158	0.047144	0.113728
O29	O	1.005309	-0.350447	-0.491823
O30	O	1.505309	0.149553	0.008177
O31	O	0.995381	-0.588066	-0.308690
O32	O	1.495381	-0.088066	0.191310
O33	O	0.912262	-0.588029	-0.391819
O34	O	1.412262	-0.088029	0.108181
C35	C	0.785720	-0.401662	-0.342603
C36	C	1.285720	0.098338	0.157397
C37	C	0.710488	-0.401671	-0.342612
C38	C	1.210488	0.098329	0.157388
C39	C	0.677369	-0.348430	-0.383788
C40	C	1.177369	0.151570	0.116212
C41	C	0.606680	-0.348435	-0.383791
C42	C	1.106680	0.151565	0.116209
C43	C	0.569112	-0.401685	-0.342621
C44	C	1.069112	0.098315	0.157379
C45	C	0.602236	-0.454928	-0.301441
C46	C	1.102236	0.045072	0.198559
C47	C	0.672923	-0.454919	-0.301435
C48	C	1.172923	0.045081	0.198565
C49	C	0.317161	-0.454966	-0.301463
C50	C	0.817161	0.045034	0.198537
C51	C	0.246468	-0.454973	-0.301474
C52	C	0.746468	0.045027	0.198526
C53	C	0.250918	-0.348481	-0.383819
C54	C	0.750918	0.151519	0.116181
C55	C	0.321605	-0.348472	-0.383813
C56	C	0.821605	0.151528	0.116187
C57	C	0.354723	-0.401712	-0.342631
C58	C	0.854723	0.098288	0.157369
C59	C	0.431372	-0.401706	-0.342627
C60	C	0.931372	0.098294	0.157373
C61	C	0.492464	-0.401696	-0.342628
C62	C	0.992464	0.098304	0.157372
C63	C	0.952581	-0.618298	-0.351508
C64	C	1.452581	-0.118298	0.148492
C65	C	0.948796	-0.710964	-0.355333
C66	C	1.448796	-0.210964	0.144667
C67	C	0.981379	-0.921905	-0.322925
C68	C	1.481379	-0.421905	0.177075
C69	C	0.941897	-0.880621	-0.362323
C70	C	1.441897	-0.380621	0.137677
C71	C	0.945736	-0.786215	-0.358433
C72	C	1.445736	-0.286215	0.141567
C73	C	0.977540	-1.016319	-0.326815
C74	C	1.477540	-0.516319	0.173185
C75	C	1.138117	-0.401715	-0.342639
C76	C	1.638117	0.098285	0.157361
C77	C	1.213348	-0.401727	-0.342646
C78	C	1.713348	0.098273	0.157354
C79	C	0.961615	-0.401636	-0.519161
C80	C	1.461615	0.098364	-0.019161
C81	C	0.961632	-0.401614	-0.594392
C82	C	1.461632	0.098386	-0.094392
C83	C	0.970623	-0.184234	-0.333713
C84	C	1.470623	0.315766	0.166287
C85	C	0.974478	-0.091567	-0.329917
C86	C	1.474478	0.408433	0.170083
C87	C	1.007142	-0.348295	-0.627558
C88	C	1.507142	0.151705	-0.127558
C89	C	1.007150	-0.348271	-0.698245
C90	C	1.507150	0.151729	-0.198245
C91	C	0.961651	-0.401570	-0.735766
C92	C	1.461651	0.098430	-0.235766
C93	C	0.916136	-0.454891	-0.702596
C94	C	1.416136	0.045109	-0.202596
C95	C	0.916126	-0.454910	-0.631910
C96	C	1.416126	0.045090	-0.131910
C97	C	0.916178	-0.454813	-0.987666
C98	C	1.416178	0.045187	-0.487666
C99	C	0.916193	-0.454792	-1.058357
C100	C	1.416193	0.045208	-0.558357
C101	C	1.007202	-0.348174	-1.054002
C102	C	1.507202	0.151826	-0.554002
C103	C	1.007192	-0.348193	-0.983315
C104	C	1.507192	0.151807	-0.483315
C105	C	0.961675	-0.401511	-0.950151
C106	C	1.461675	0.098489	-0.450151
C107	C	0.961666	-0.401535	-0.873504
C108	C	1.461666	0.098465	-0.373504
C109	C	0.961663	-0.401550	-0.812413
C110	C	1.461663	0.098450	-0.312413
C111	C	0.961577	-0.401681	-0.166764
C112	C	1.461577	0.098319	0.333236
C113	C	0.961700	-0.401468	-0.091524
C114	C	1.461700	0.098532	0.408476
H115	H	0.344117	-0.498318	-0.267931
H116	H	0.844117	0.001682	0.232069
C117	C	1.057216	-0.289617	-0.734724
C118	C	1.557216	0.210383	-0.234724
N119	N	1.094927	-0.245437	-0.762199
N120	N	1.594927	0.254563	-0.262199
C121	C	1.030932	-0.873872	-0.273407
C122	C	1.530932	-0.373872	0.226593
N123	N	1.068252	-0.837684	-0.236109
N124	N	1.568252	-0.337684	0.263891
H125	H	0.879061	-0.498320	-0.604907
H126	H	1.379061	0.001680	-0.104907
C127	C	0.570253	-0.289868	-0.429089
C128	C	1.070253	0.210132	0.070911
N129	N	0.542816	-0.245752	-0.463210
N130	N	1.042816	0.254248	0.036790
H131	H	1.044195	-0.304895	-0.597013
H132	H	1.544195	0.195105	-0.097013
H133	H	0.879125	-0.498240	-0.960673
H134	H	1.379125	0.001760	-0.460673
C135	C	0.362927	-0.289890	-0.429100
C136	C	0.862927	0.210110	0.070900
N137	N	0.394050	-0.245760	-0.463208
N138	N	0.894050	0.254240	0.036792
C139	C	1.057241	-0.289557	-0.942046
C140	C	1.557241	0.210443	-0.442046
N141	N	1.094937	-0.245386	-0.910962
N142	N	1.594937	0.254614	-0.410962
C143	C	1.057264	-0.289512	-1.090488
C144	C	1.557264	0.210488	-0.590488
N145	N	1.094970	-0.245329	-1.117969
N146	N	1.594970	0.254671	-0.617969
C147	C	0.560908	-0.513503	-0.256153
C148	C	1.060908	-0.013503	0.243847
N149	N	0.529780	-0.557625	-0.222043
N150	N	1.029780	-0.057625	0.277957
C151	C	0.892330	-0.928654	-0.411834
C152	C	1.392330	-0.428654	0.088166
N153	N	0.854996	-0.964837	-0.449122
N154	N	1.354996	-0.464837	0.050878
H155	H	0.707952	-0.305070	-0.417315
H156	H	1.207952	0.194930	0.082685
H157	H	0.879140	-0.498196	-1.088906
H158	H	1.379140	0.001804	-0.588906
H159	H	0.699888	-0.498273	-0.267905
H160	H	1.199888	0.001727	0.232095
H161	H	0.879088	-0.498285	-0.733151
H162	H	1.379088	0.001715	-0.233151
H163	H	0.223945	-0.305128	-0.417349
H164	H	0.723945	0.194872	0.082651
H165	H	0.215882	-0.498338	-0.267946
H166	H	0.715882	0.001662	0.232054
