data_functionalizedCrystal
_audit_creation_method	'MofGen! by Chris Wilmer'
_symmetry_space_group_name_H-M	'P1'
_symmetry_Int_Tables_number	1
_symmetry_cell_setting	triclinic
loop_
_symmetry_equiv_pos_as_xyz
  x,y,z
_cell_length_a	16.109301
_cell_length_b	8.559649
_cell_length_c	15.186229
_cell_angle_alpha	89.998040
_cell_angle_beta	89.999362
_cell_angle_gamma	76.620073
loop_
_atom_site_label
_atom_site_type_symbol
_atom_site_fract_x
_atom_site_fract_y
_atom_site_fract_z
O1	O	1.090045	0.205389	-0.073169
O2	O	0.846355	0.230949	-0.073183
O3	O	0.989670	-0.014444	-0.073174
O4	O	0.946731	0.450782	-0.073178
O5	O	0.989661	-0.014447	0.073283
O6	O	0.846347	0.230946	0.073274
O7	O	1.090037	0.205386	0.073288
Zn8	Zn	0.968191	0.218165	0.096534
Zn9	Zn	0.968202	0.218170	-0.096429
O10	O	0.946723	0.450779	0.073279
C11	C	0.815442	0.229912	0.000044
C12	C	0.723344	0.226808	0.000039
C13	C	0.992919	-0.073977	0.000053
C14	C	1.002605	-0.251362	0.000049
C15	C	0.492255	0.365202	0.000048
C16	C	0.405721	0.362273	0.000053
C17	C	0.444145	0.071122	0.000052
C18	C	0.530677	0.074053	0.000053
C19	C	0.554729	0.221098	0.000046
C20	C	0.381663	0.215238	0.000051
C21	C	0.287840	0.212061	0.000057
C22	C	0.648558	0.224275	0.000042
C23	C	1.120950	0.206423	0.000059
C24	C	1.213048	0.209527	0.000059
C25	C	0.943473	0.510312	0.000050
C26	C	0.933787	0.687697	0.000049
N27	N	0.968189	0.218161	0.228227
N28	N	0.968210	0.218161	-0.228122
C29	C	1.031666	0.109538	0.453954
C30	C	1.031669	0.109534	0.546144
C31	C	0.904727	0.326790	0.546145
C32	C	0.904722	0.326785	0.453957
C33	C	0.968196	0.218161	0.407864
C34	C	0.968204	0.218162	0.592241
C35	C	0.968207	0.218159	0.692198
C36	C	0.968192	0.218161	0.307901
H37	H	0.354857	0.479618	0.000056
O38	O	1.093358	0.003861	0.409315
C39	C	1.149390	-0.091987	0.469769
H40	H	1.115423	-0.093803	0.535486
H41	H	1.170218	-0.219595	0.443138
H42	H	1.207835	-0.040073	0.479567
H43	H	1.083351	0.021081	0.583668
H44	H	0.424550	-0.048597	0.000063
O45	O	0.591261	-0.066087	0.000011
C46	C	0.551479	-0.196501	0.000032
H47	H	0.484164	-0.155920	-0.027698
H48	H	0.589921	-0.297461	-0.042488
H49	H	0.548183	-0.241578	0.070294
O50	O	1.081806	-0.350784	0.000095
C51	C	1.143844	-0.258511	0.000068
H52	H	1.114869	-0.134071	0.027789
H53	H	1.200271	-0.320127	0.042592
H54	H	1.166556	-0.246720	-0.070195
O55	O	0.854716	-0.212434	0.000001
C56	C	0.862322	-0.051617	0.000017
H57	H	0.927245	-0.045420	-0.027706
H58	H	0.809753	0.024018	-0.042509
H59	H	0.856117	-0.003408	0.070278
O60	O	0.843161	0.432252	0.591058
C61	C	0.856764	0.408944	0.682309
H62	H	0.926673	0.349256	0.694896
H63	H	0.839791	0.529954	0.717340
H64	H	0.814828	0.328780	0.708480
O65	O	0.843022	0.432464	0.409315
C66	C	0.786992	0.528322	0.469764
H67	H	0.820962	0.530158	0.535477
H68	H	0.766158	0.655922	0.443120
H69	H	0.728549	0.476403	0.479576
H70	H	0.511835	0.484935	0.000049
