data_functionalizedCrystal
_audit_creation_method	'MofGen! by Chris Wilmer'
_symmetry_space_group_name_H-M	'P1'
_symmetry_Int_Tables_number	1
_symmetry_cell_setting	triclinic
loop_
_symmetry_equiv_pos_as_xyz
  x,y,z
_cell_length_a	12.759399
_cell_length_b	19.805407
_cell_length_c	19.805398
_cell_angle_alpha	90.012745
_cell_angle_beta	89.975324
_cell_angle_gamma	89.988734
loop_
_atom_site_label
_atom_site_type_symbol
_atom_site_fract_x
_atom_site_fract_y
_atom_site_fract_z
Zn1	Zn	-0.418388	-1.034746	-0.382731
Zn2	Zn	-0.594084	-1.034696	-0.269551
Zn3	Zn	-0.418408	-0.921573	-0.269557
Zn4	Zn	-0.594014	-0.921546	-0.382698
O5	O	-0.506224	-0.978140	-0.326134
O6	O	-0.441716	-1.129456	-0.367729
O7	O	-0.570819	-1.019680	-0.174835
O8	O	-0.271385	-0.936618	-0.284586
O9	O	-0.570799	-1.129419	-0.284576
O10	O	-0.271370	-1.019765	-0.367735
O11	O	-0.441750	-0.936569	-0.174839
O12	O	-0.441682	-0.826853	-0.284554
O13	O	-0.570678	-0.936572	-0.477419
O14	O	-0.570698	-0.826833	-0.367678
O15	O	-0.441647	-1.019739	-0.477444
O16	O	-0.741096	-1.019654	-0.284544
O17	O	-0.741044	-0.936523	-0.367673
C18	C	-0.506185	-0.802284	-0.326114
C19	C	-0.506194	-0.727052	-0.326121
C20	C	-0.439098	-0.691728	-0.369484
C21	C	-0.439101	-0.621039	-0.369485
C22	C	-0.506207	-0.585677	-0.326125
C23	C	-0.573306	-0.621006	-0.282758
C24	C	-0.573296	-0.691693	-0.282754
C25	C	-0.573344	-0.335933	-0.282772
C26	C	-0.573350	-0.265240	-0.282780
C27	C	-0.439149	-0.265279	-0.369502
C28	C	-0.439140	-0.335966	-0.369498
C29	C	-0.506234	-0.371289	-0.326128
C30	C	-0.506228	-0.447938	-0.326127
C31	C	-0.506218	-0.509029	-0.326130
C32	C	-0.779191	-0.978099	-0.326119
C33	C	-0.895968	-0.978143	-0.326135
C34	C	-0.950822	-1.021478	-0.282899
C35	C	-1.060546	-1.021522	-0.282922
C36	C	-1.060552	-0.934889	-0.369418
C37	C	-0.950830	-0.934849	-0.369398
C38	C	-1.210429	-1.101417	-0.258838
C39	C	-1.265287	-1.144747	-0.215592
C40	C	-1.229736	-1.155171	-0.149551
C41	C	-1.139330	-1.122257	-0.126744
C42	C	-1.084478	-1.078922	-0.169987
C43	C	-1.120026	-1.068510	-0.236037
C44	C	-0.800945	-0.854953	-0.393475
C45	C	-0.746091	-0.811614	-0.436715
C46	C	-0.781639	-0.801182	-0.502756
C47	C	-0.872048	-0.834085	-0.525561
C48	C	-0.926903	-0.877423	-0.482321
C49	C	-0.891347	-0.887856	-0.416280
C50	C	-0.232190	-0.978200	-0.326165
C51	C	-0.115414	-0.978226	-0.326177
C52	C	-0.506153	-0.978158	-0.502677
C53	C	-0.506122	-0.978166	-0.577909
C54	C	-0.506255	-0.154683	-0.326149
C55	C	-0.506248	-0.229915	-0.326140
C56	C	-0.573161	-1.021548	-1.039696
C57	C	-0.573190	-1.021530	-0.969007
C58	C	-0.506004	-0.978250	-0.933671
C59	C	-0.438793	-0.934981	-0.969027
C60	C	-0.438770	-0.934997	-1.039714
C61	C	-0.438882	-0.934916	-0.683954
C62	C	-0.438908	-0.934905	-0.613261
C63	C	-0.573302	-1.021448	-0.613247
C64	C	-0.573280	-1.021464	-0.683934
C65	C	-0.506073	-0.978193	-0.719284
C66	C	-0.506044	-0.978213	-0.795932
C67	C	-0.506026	-0.978233	-0.857024
C68	C	-0.506219	-0.978161	-0.150278
C69	C	-0.505953	-0.978284	-0.075047
H70	H	-0.384467	-0.592281	-0.404796
C71	C	-0.647164	-0.226340	-0.235078
C72	C	-0.601527	-0.177728	-0.182000
C73	C	-0.675338	-0.138827	-0.134301
C74	C	-0.794785	-0.148538	-0.139681
C75	C	-0.840428	-0.197152	-0.192761
C76	C	-0.766618	-0.236053	-0.240459
H77	H	-0.513100	-0.170537	-0.178016
H78	H	-0.641549	-0.102840	-0.095008
H79	H	-0.849424	-0.119741	-0.104371
H80	H	-0.928856	-0.204342	-0.196744
H81	H	-0.800407	-0.272040	-0.279753
C82	C	-0.647160	-0.374782	-0.235075
C83	C	-0.720984	-0.335882	-0.187390
C84	C	-0.794809	-0.374735	-0.139694
C85	C	-0.794810	-0.452488	-0.139684
C86	C	-0.720984	-0.491392	-0.187371
C87	C	-0.647159	-0.452540	-0.235067
H88	H	-0.720985	-0.278321	-0.187396
H89	H	-0.849460	-0.345935	-0.104393
H90	H	-0.849460	-0.481249	-0.104376
H91	H	-0.720983	-0.548954	-0.187365
H92	H	-0.592508	-0.481340	-0.270368
C93	C	-1.249527	-1.089960	-0.331490
C94	C	-1.348968	-1.126159	-0.356570
C95	C	-1.388070	-1.114703	-0.429223
C96	C	-1.327730	-1.067047	-0.476796
C97	C	-1.228282	-1.030844	-0.451716
C98	C	-1.189181	-1.042300	-0.379063
H99	H	-1.393641	-1.161440	-0.321353
H100	H	-1.461688	-1.141503	-0.447788
H101	H	-1.356676	-1.058566	-0.530577
H102	H	-1.183610	-0.995563	-0.486933
H103	H	-1.115562	-1.015501	-0.360498
C104	C	-0.985032	-1.042721	-0.144909
C105	C	-0.945923	-1.054184	-0.072263
C106	C	-0.846471	-1.017987	-0.047185
C107	C	-0.786127	-0.970329	-0.094753
C108	C	-0.825236	-0.958864	-0.167404
C109	C	-0.924688	-0.995060	-0.192482
H110	H	-0.990594	-1.089465	-0.037046
H111	H	-0.817521	-1.026474	0.006597
H112	H	-0.712506	-0.943534	-0.076189
H113	H	-0.780565	-0.923583	-0.202621
H114	H	-0.953638	-0.986573	-0.246263
H115	H	-0.384499	-0.364755	-0.404808
H116	H	-1.274409	-1.190452	-0.114340
H117	H	-0.900993	-0.825592	-0.579338
H118	H	-0.384160	-0.899681	-0.712727
C119	C	-0.647077	-1.069149	-0.930121
C120	C	-0.647083	-1.069151	-0.852368
C121	C	-0.720955	-1.116784	-0.813482
C122	C	-0.794821	-1.164415	-0.852349
C123	C	-0.794818	-1.164414	-0.930107
C124	C	-0.720945	-1.116781	-0.968993
H125	H	-0.592401	-1.033891	-0.823592
H126	H	-0.720958	-1.116785	-0.755921
H127	H	-0.849506	-1.199676	-0.823564
H128	H	-0.849500	-1.199675	-0.958883
H129	H	-0.720943	-1.116781	-1.026554
C130	C	-0.647104	-0.730553	-0.235055
C131	C	-0.638375	-0.720812	-0.158120
C132	C	-0.712181	-0.759671	-0.110418
C133	C	-0.794715	-0.808273	-0.139650
C134	C	-0.803447	-0.818016	-0.216588
C135	C	-0.729642	-0.779157	-0.264291
H136	H	-0.577276	-0.684832	-0.136478
H137	H	-0.705716	-0.752458	-0.053462
H138	H	-0.849350	-0.837039	-0.104337
H139	H	-0.864547	-0.853996	-0.238231
H140	H	-0.736106	-0.786370	-0.321246
C141	C	-1.100233	-1.133721	-0.054093
C142	C	-1.070158	-1.205229	-0.030511
C143	C	-1.031056	-1.216696	0.042141
C144	C	-1.022030	-1.156655	0.091209
C145	C	-1.052106	-1.085142	0.067627
C146	C	-1.091207	-1.073675	-0.005024
H147	H	-1.076839	-1.249680	-0.066835
H148	H	-1.008792	-1.269635	0.059597
H149	H	-0.993085	-1.165143	0.144990
H150	H	-1.045424	-1.040691	0.103952
H151	H	-1.113471	-1.020736	-0.022480
H152	H	-0.672470	-0.784827	-0.418143
H153	H	-0.627986	-1.056709	-0.712701
H154	H	-0.771987	-0.863448	-0.339700
H155	H	-0.384093	-0.899739	-0.940251
C156	C	-0.365277	-0.730624	-0.417179
C157	C	-0.365260	-0.808377	-0.417178
C158	C	-0.291433	-0.847270	-0.464872
C159	C	-0.217622	-0.808411	-0.512566
C160	C	-0.217636	-0.730653	-0.512568
C161	C	-0.291463	-0.691760	-0.464874
H162	H	-0.419902	-0.837147	-0.381871
H163	H	-0.291423	-0.904832	-0.464870
H164	H	-0.162971	-0.837202	-0.547872
H165	H	-0.162994	-0.701883	-0.547876
H166	H	-0.291473	-0.634198	-0.464876
H167	H	-0.627939	-0.592208	-0.247451
H168	H	-0.627867	-1.056795	-1.068461
C169	C	-0.365333	-0.226421	-0.417205
C170	C	-0.374066	-0.236159	-0.494140
C171	C	-0.300255	-0.197303	-0.541842
C172	C	-0.217710	-0.148709	-0.512609
C173	C	-0.208974	-0.138969	-0.435670
C174	C	-0.282785	-0.177825	-0.387968
H175	H	-0.435173	-0.272133	-0.515783
H176	H	-0.306722	-0.204513	-0.598798
H177	H	-0.163071	-0.119946	-0.547921
H178	H	-0.147867	-0.102995	-0.414027
H179	H	-0.276317	-0.170615	-0.331012
H180	H	-0.384194	-0.899659	-0.584493
H181	H	-0.628029	-1.056680	-0.584456
C182	C	-0.364838	-0.887408	-1.078604
C183	C	-0.410340	-0.834269	-1.127191
C184	C	-0.336410	-0.786675	-1.166080
C185	C	-0.216978	-0.792221	-1.156382
C186	C	-0.171469	-0.845363	-1.107793
C187	C	-0.245399	-0.892956	-1.068904
H188	H	-0.498757	-0.830161	-1.134371
H189	H	-0.370100	-0.747337	-1.202049
H190	H	-0.162250	-0.756990	-1.185170
H191	H	-0.083052	-0.849470	-1.100612
H192	H	-0.211710	-0.932295	-1.032935
C193	C	-0.721303	-0.753506	-0.550321
C194	C	-0.621863	-0.717303	-0.525241
C195	C	-0.561533	-0.669629	-0.572806
C196	C	-0.600641	-0.658158	-0.645451
C197	C	-0.700085	-0.694361	-0.670535
C198	C	-0.760416	-0.742035	-0.622970
H199	H	-0.592909	-0.725794	-0.471461
H200	H	-0.487917	-0.642829	-0.554237
H201	H	-0.555980	-0.622867	-0.680662
H202	H	-0.729040	-0.685871	-0.724315
H203	H	-0.834032	-0.768836	-0.641539
H204	H	-0.906155	-1.056732	-0.247672
H205	H	-1.338895	-1.171546	-0.234168
H206	H	-1.105234	-0.899639	-0.404641
H207	H	-1.000516	-0.904217	-0.500896
