data_functionalizedCrystal
_audit_creation_method	'MofGen! by Chris Wilmer'
_symmetry_space_group_name_H-M	'P1'
_symmetry_Int_Tables_number	1
_symmetry_cell_setting	triclinic
loop_
_symmetry_equiv_pos_as_xyz
  x,y,z
_cell_length_a	16.625546
_cell_length_b	12.759401
_cell_length_c	12.759393
_cell_angle_alpha	90.020938
_cell_angle_beta	90.035119
_cell_angle_gamma	90.023993
loop_
_atom_site_label
_atom_site_type_symbol
_atom_site_fract_x
_atom_site_fract_y
_atom_site_fract_z
Zn1	Zn	-0.320930	1.606210	0.593986
Zn2	Zn	-0.455784	1.606077	0.418292
Zn3	Zn	-0.320973	1.430508	0.418322
Zn4	Zn	-0.455728	1.430476	0.593930
O5	O	-0.388354	1.518318	0.506132
O6	O	-0.338824	1.753213	0.570692
O7	O	-0.437943	1.582745	0.271275
O8	O	-0.208135	1.453884	0.441660
O9	O	-0.437901	1.753116	0.441610
O10	O	-0.208103	1.582971	0.570720
O11	O	-0.338897	1.453756	0.271297
O12	O	-0.338843	1.283483	0.441605
O13	O	-0.437805	1.453830	0.740958
O14	O	-0.437847	1.283460	0.570623
O15	O	-0.338770	1.582940	0.741000
O16	O	-0.568609	1.582714	0.441555
O17	O	-0.568568	1.453701	0.570595
C18	C	-0.388344	1.245350	0.506112
C19	C	-0.388359	1.128574	0.506128
C20	C	-0.439989	1.073727	0.573202
C21	C	-0.439992	0.964003	0.573223
C22	C	-0.336733	0.963982	0.439086
C23	C	-0.336726	1.073704	0.439071
C24	C	-0.468924	0.814102	0.697080
C25	C	-0.520566	0.759252	0.764145
C26	C	-0.599254	0.794835	0.780084
C27	C	-0.626316	0.885268	0.728944
C28	C	-0.574678	0.940113	0.661871
C29	C	-0.495979	0.904530	0.645952
C30	C	-0.307803	1.223607	0.315212
C31	C	-0.256168	1.278454	0.248134
C32	C	-0.177479	1.242872	0.232183
C33	C	-0.150420	1.152436	0.283306
C34	C	-0.202055	1.097590	0.350384
C35	C	-0.280743	1.133179	0.366336
C36	C	-0.597844	1.518218	0.506088
C37	C	-0.687466	1.518272	0.506105
C38	C	-1.015641	1.518455	0.506214
C39	C	-0.924333	1.518401	0.506187
C40	C	-0.851556	1.518363	0.506159
C41	C	-0.760242	1.518310	0.506132
C42	C	-0.178045	1.518446	0.506200
C43	C	-0.088424	1.518501	0.506228
C44	C	-0.388276	1.518396	0.780166
C45	C	-0.388243	1.518430	0.896943
C46	C	-0.388364	1.792351	0.506154
C47	C	-0.388369	1.909128	0.506163
C48	C	-0.388372	1.518300	0.233165
C49	C	-0.388178	1.518470	0.116389
C50	C	-0.336667	1.585663	0.951828
C51	C	-0.336632	1.585681	1.061552
C52	C	-0.439757	1.451230	1.061496
C53	C	-0.439787	1.451208	0.951774
C54	C	-0.241501	1.623309	1.211540
C55	C	-0.189932	1.690559	1.266429
C56	C	-0.177568	1.793074	1.230839
C57	C	-0.216784	1.828360	1.140362
C58	C	-0.268359	1.761117	1.085478
C59	C	-0.280708	1.658587	1.121067
C60	C	-0.534919	1.413589	0.801784
C61	C	-0.586499	1.346350	0.746898
C62	C	-0.598871	1.243834	0.782486
C63	C	-0.559669	1.208551	0.872967
C64	C	-0.508089	1.275790	0.927853
C65	C	-0.495716	1.378306	0.892257
H66	H	-0.404847	0.785128	0.684119
N67	N	-0.626542	1.382407	0.654478
N68	N	-0.615484	1.473940	0.622703
H69	H	-0.643762	1.499405	0.557430
N70	N	-0.283999	0.907916	0.370600
N71	N	-0.284012	0.809951	0.370621
H72	H	-0.246768	0.770353	0.322250
N73	N	-0.468040	1.239745	1.020273
N74	N	-0.421461	1.163020	1.015472
H75	H	-0.393176	1.137568	1.080745
H76	H	-0.481723	1.396502	1.106153
N77	N	-0.070039	1.116076	0.267040
N78	N	-0.045890	1.035332	0.312694
H79	H	0.010880	1.009652	0.301204
H80	H	-0.294695	1.640397	0.907188
H81	H	-0.135579	1.847828	1.275538
N82	N	-0.706695	0.921620	0.745231
N83	N	-0.718659	1.010874	0.782492
H84	H	-0.775428	1.036552	0.793997
N85	N	-0.651998	0.738793	0.848586
N86	N	-0.627832	0.658052	0.894230
H87	H	-0.665078	0.618468	0.942612
N88	N	-0.492914	0.666881	0.816372
N89	N	-0.422648	0.635124	0.802145
H90	H	-0.403122	0.569885	0.839027
H91	H	-0.300292	1.789848	1.011816
H92	H	-0.180014	1.023957	0.392018
H93	H	-0.482029	1.118399	0.627806
H94	H	-0.596711	1.013740	0.620233
H95	H	-0.135441	1.287534	0.177553
N96	N	-0.522279	1.518304	0.765406
N97	N	-0.557289	1.549794	0.684622
H98	H	-0.548364	1.623748	0.658927
H99	H	-0.158002	1.661819	1.340096
H100	H	-0.278207	1.352091	0.206507
H101	H	-0.371876	1.252593	0.328203
N102	N	-0.572299	1.103837	0.909346
N103	N	-0.600907	1.088300	0.998573
H104	H	-0.609830	1.014345	1.024267
N105	N	-0.204158	1.933091	1.104035
N106	N	-0.158110	1.993119	1.153050
H107	H	-0.149190	2.067087	1.127392
N108	N	-0.651569	1.175166	0.726416
N109	N	-0.686577	1.206677	0.645639
H110	H	-0.723793	1.158181	0.606041
N111	N	-0.254108	1.518586	1.247899
N112	N	-0.219094	1.487104	1.328682
H113	H	-0.227997	1.413141	1.354366
