data_functionalizedCrystal
_audit_creation_method	'MofGen! by Chris Wilmer'
_symmetry_space_group_name_H-M	'P1'
_symmetry_Int_Tables_number	1
_symmetry_cell_setting	triclinic
loop_
_symmetry_equiv_pos_as_xyz
  x,y,z
_cell_length_a	10.654550
_cell_length_b	10.654549
_cell_length_c	9.730223
_cell_angle_alpha	90.001992
_cell_angle_beta	90.000242
_cell_angle_gamma	84.484854
loop_
_atom_site_label
_atom_site_type_symbol
_atom_site_fract_x
_atom_site_fract_y
_atom_site_fract_z
O1	O	1.667839	0.176396	0.114184
O2	O	1.302361	0.193202	0.114209
O3	O	1.493503	0.002060	0.114190
O4	O	1.476697	0.367538	0.114203
O5	O	1.493490	0.002060	-0.114390
O6	O	1.302347	0.193202	-0.114371
O7	O	1.667826	0.176396	-0.114396
Zn8	Zn	1.485084	0.184799	-0.150675
Zn9	Zn	1.485102	0.184799	0.150489
O10	O	1.476683	0.367538	-0.114377
C11	C	1.255556	0.191968	-0.000078
C12	C	1.116113	0.188276	-0.000068
C13	C	1.492263	-0.044738	-0.000098
C14	C	1.488571	-0.184181	-0.000094
C15	C	1.036627	0.300818	-0.000068
C16	C	0.905606	0.297341	-0.000092
C17	C	0.933570	0.068772	-0.000111
C18	C	1.064588	0.072250	-0.000096
C19	C	1.714631	0.177630	-0.000106
C20	C	1.854074	0.181322	-0.000106
C21	C	1.597634	-0.394696	-0.000092
C22	C	1.601113	-0.263676	-0.000103
C23	C	1.372543	-0.235714	-0.000087
C24	C	1.369066	-0.366732	-0.000086
C25	C	1.477924	0.414336	-0.000086
C26	C	1.481616	0.553780	-0.000081
N27	N	1.485081	0.184798	-0.356212
C28	C	1.561913	0.261680	-0.428135
C29	C	1.561933	0.261673	-0.572018
C30	C	1.408281	0.107899	-0.572041
C31	C	1.408268	0.107900	-0.428161
N32	N	1.485115	0.184790	0.356025
H33	H	1.078574	0.395294	-0.000056
H34	H	0.891602	-0.025693	-0.000142
O35	O	1.333692	0.033329	-0.642145
C36	C	1.350125	0.049854	-0.784562
H37	H	1.386706	0.145338	-0.804183
H38	H	1.255954	0.045801	-0.839207
H39	H	1.421001	-0.028214	-0.825460
H40	H	0.840893	0.388984	-0.000095
H41	H	1.129309	-0.019401	-0.000100
O42	O	1.707078	-0.471731	-0.000158
C43	C	1.810223	-0.398152	-0.000136
H44	H	1.779192	-0.300661	-0.043411
H45	H	1.889143	-0.445787	-0.066506
H46	H	1.845742	-0.388511	0.109521
O47	O	1.713737	-0.213478	0.000077
C48	C	1.722606	-0.138546	0.118474
H49	H	1.623904	-0.106774	0.157943
H50	H	1.773421	-0.052335	0.091844
H51	H	1.777662	-0.195935	0.201372
H52	H	1.280910	-0.170979	-0.000088
O53	O	1.256251	-0.416583	-0.000013
C54	C	1.157657	-0.318333	-0.000040
H55	H	1.193635	-0.229033	0.043234
H56	H	1.076729	-0.346414	0.066326
H57	H	1.122881	-0.300104	-0.109700
H58	H	1.624499	0.324277	-0.630572
H59	H	1.624460	0.324296	-0.369559
H60	H	1.345701	0.045287	-0.369599
