data_functionalizedCrystal
_audit_creation_method	'MofGen! by Chris Wilmer'
_symmetry_space_group_name_H-M	'P1'
_symmetry_Int_Tables_number	1
_symmetry_cell_setting	triclinic
loop_
_symmetry_equiv_pos_as_xyz
  x,y,z
_cell_length_a	17.699083
_cell_length_b	10.540539
_cell_length_c	16.176319
_cell_angle_alpha	89.995366
_cell_angle_beta	89.998611
_cell_angle_gamma	83.904253
loop_
_atom_site_label
_atom_site_type_symbol
_atom_site_fract_x
_atom_site_fract_y
_atom_site_fract_z
O1	O	1.005122	0.160521	-0.068627
O2	O	1.505122	0.660521	0.431373
O3	O	0.784880	0.181405	-0.068653
O4	O	1.284880	0.681405	0.431347
O5	O	0.900026	-0.013836	-0.068638
O6	O	1.400026	0.486164	0.431362
O7	O	0.889976	0.355761	-0.068642
O8	O	1.389976	0.855761	0.431358
O9	O	0.900010	-0.013848	0.068855
O10	O	1.400010	0.486152	0.568855
O11	O	0.784864	0.181392	0.068840
O12	O	1.284864	0.681392	0.568840
O13	O	1.005106	0.160508	0.068866
O14	O	1.505106	0.660508	0.568866
Cu15	Cu	0.894984	0.170949	0.081407
Cu16	Cu	1.394984	0.670949	0.581407
Cu17	Cu	0.895003	0.170964	-0.081194
Cu18	Cu	1.395003	0.670964	0.418806
O19	O	0.889960	0.355749	0.068852
O20	O	1.389960	0.855749	0.568852
C21	C	0.756670	0.180650	0.000090
C22	C	1.256670	0.680650	0.500090
C23	C	0.672637	0.178405	0.000080
C24	C	1.172637	0.678405	0.500080
C25	C	0.624761	0.293007	0.000079
C26	C	1.124761	0.793007	0.500079
C27	C	0.545804	0.290890	0.000090
C28	C	1.045804	0.790890	0.500090
C29	C	0.514725	0.174170	0.000095
C30	C	1.014725	0.674170	0.500095
C31	C	0.562607	0.059559	0.000098
C32	C	1.062607	0.559559	0.500098
C33	C	0.641562	0.061677	0.000094
C34	C	1.141562	0.561677	0.500094
C35	C	0.244188	0.051014	0.000119
C36	C	0.744188	0.551014	0.500119
C37	C	0.165226	0.048904	0.000121
C38	C	0.665226	0.548904	0.500121
C39	C	0.148430	0.280227	0.000115
C40	C	0.648430	0.780227	0.500115
C41	C	0.227386	0.282345	0.000110
C42	C	0.727386	0.782345	0.500110
C43	C	0.275261	0.167735	0.000118
C44	C	0.775261	0.667735	0.500118
C45	C	0.360875	0.170032	0.000108
C46	C	0.860875	0.670032	0.500108
C47	C	0.429112	0.171872	0.000099
C48	C	0.929112	0.671872	0.500099
C49	C	0.899264	-0.061131	0.000107
C50	C	1.399264	0.438869	0.500107
C51	C	0.897009	-0.202038	0.000102
C52	C	1.397009	0.297962	0.500102
C53	C	0.810610	-0.383885	-0.000217
C54	C	1.310610	0.116115	0.499783
C55	C	0.812896	-0.237308	0.000093
C56	C	1.312896	0.262692	0.500093
C57	C	0.937479	-0.264443	0.078622
C58	C	1.437479	0.235557	0.578622
C59	C	0.934609	-0.410935	0.078688
C60	C	1.434609	0.089065	0.578688
C61	C	0.936338	-0.411471	-0.077667
C62	C	1.436338	0.088529	0.422333
C63	C	0.937113	-0.264503	-0.078705
C64	C	1.437113	0.235497	0.421295
C65	C	1.033316	0.161263	0.000122
C66	C	1.533316	0.661263	0.500122
C67	C	1.117349	0.163508	0.000126
C68	C	1.617349	0.663508	0.500126
C69	C	0.890722	0.403044	0.000105
C70	C	1.390722	0.903044	0.500105
C71	C	0.892977	0.543951	0.000104
C72	C	1.392977	1.043951	0.500104
N73	N	0.894976	0.170938	0.195773
N74	N	1.394976	0.670938	0.695773
N75	N	0.895016	0.170965	-0.195559
N76	N	1.395016	0.670965	0.304441
C77	C	0.945978	0.084521	0.239043
C78	C	1.445978	0.584521	0.739043
C79	C	0.945982	0.084519	0.325591
C80	C	1.445982	0.584519	0.825591
C81	C	0.894987	0.170942	0.368865
C82	C	1.394987	0.670942	0.868865
C83	C	0.843979	0.257364	0.325588
C84	C	1.343979	0.757364	0.825588
C85	C	0.843972	0.257358	0.239043
C86	C	1.343972	0.757358	0.739043
C87	C	0.844005	0.257387	0.674617
C88	C	1.344005	0.757387	1.174617
C89	C	0.844017	0.257389	0.761168
C90	C	1.344017	0.757389	1.261168
C91	C	0.946015	0.084549	0.761164
C92	C	1.446015	0.584549	1.261164
C93	C	0.946008	0.084543	0.674619
C94	C	1.446008	0.584543	1.174619
C95	C	0.894998	0.170959	0.631349
C96	C	1.394998	0.670959	1.131349
C97	C	0.894993	0.170958	0.537505
C98	C	1.394993	0.670958	1.037505
C99	C	0.894994	0.170951	0.462708
C100	C	1.394994	0.670951	0.962708
H101	H	0.537295	-0.035477	0.000115
H102	H	1.037295	0.464523	0.500115
N103	N	0.260908	0.408235	0.000093
N104	N	0.760908	0.908235	0.500093
H105	H	0.218597	0.480516	0.000094
H106	H	0.718597	0.980516	0.500094
H107	H	0.293304	0.414151	0.051059
H108	H	0.793304	0.914151	0.551059
H109	H	0.680543	-0.031644	0.000094
H110	H	1.180543	0.468356	0.500094
H111	H	0.283159	-0.042309	0.000126
H112	H	0.783159	0.457691	0.500126
N113	N	0.770714	-0.180084	-0.074461
N114	N	1.270714	0.319916	0.425539
H115	H	0.750464	-0.250068	-0.107823
H116	H	1.250464	0.249932	0.392177
H117	H	0.727040	-0.117254	-0.055649
H118	H	1.227040	0.382746	0.444351
N119	N	0.658284	0.418896	0.000077
N120	N	1.158284	0.918896	0.500077
H121	H	0.690665	0.424937	-0.050895
H122	H	1.190665	0.924937	0.449105
H123	H	0.615931	0.491103	0.000111
H124	H	1.115931	0.991103	0.500111
H125	H	0.802453	0.327727	0.360828
H126	H	1.302453	0.827727	0.860828
H127	H	0.987548	0.014180	0.796403
H128	H	1.487548	0.514180	1.296403
N129	N	0.766597	-0.420953	-0.074799
N130	N	1.266597	0.079047	0.425201
H131	H	0.799620	-0.484888	-0.109105
H132	H	1.299620	0.015112	0.390895
H133	H	0.719854	-0.460132	-0.056000
H134	H	1.219854	0.039868	0.444000
H135	H	0.802488	0.327767	0.796401
H136	H	1.302488	0.827767	1.296401
N137	N	1.016817	-0.475479	-0.078354
N138	N	1.516817	0.024521	0.421646
H139	H	1.044399	-0.446468	-0.128447
H140	H	1.544399	0.053532	0.371553
H141	H	1.043869	-0.451730	-0.026537
H142	H	1.543869	0.048270	0.473463
N143	N	1.014736	-0.475935	0.083438
N144	N	1.514736	0.024065	0.583438
H145	H	1.020557	-0.530346	0.134907
H146	H	1.520557	-0.030346	0.634907
H147	H	1.025528	-0.531549	0.033079
H148	H	1.525528	-0.031549	0.533079
N149	N	0.900227	-0.207328	0.156010
N150	N	1.400227	0.292672	0.656010
H151	H	0.844949	-0.223197	0.156783
H152	H	1.344949	0.276803	0.656783
H153	H	0.926721	-0.248115	0.206162
H154	H	1.426721	0.251885	0.706162
N155	N	0.131698	-0.076989	0.000142
N156	N	0.631698	0.423011	0.500142
H157	H	0.099314	-0.083027	-0.050825
H158	H	0.599314	0.416973	0.449175
H159	H	0.174047	-0.149203	0.000182
H160	H	0.674047	0.350797	0.500182
H161	H	0.802440	0.327726	0.203813
H162	H	1.302440	0.827726	0.703813
H163	H	0.802472	0.327753	0.639394
H164	H	1.302472	0.827753	1.139394
H165	H	0.109440	0.373548	0.000113
H166	H	0.609440	0.873548	0.500113
H167	H	0.506826	0.384211	0.000088
H168	H	1.006826	0.884211	0.500088
N169	N	1.000999	-0.008663	0.372271
N170	N	1.500999	0.491337	0.872271
H171	H	1.034757	0.039805	0.408169
H172	H	1.534757	0.539805	0.908169
H173	H	0.971730	-0.064784	0.408143
H174	H	1.471730	0.435216	0.908143
H175	H	0.777512	-0.413492	0.055768
H176	H	1.277512	0.086508	0.555768
H177	H	0.780815	-0.194971	0.056466
H178	H	1.280815	0.305029	0.556466
N179	N	0.900294	-0.452598	-0.156502
N180	N	1.400294	0.047402	0.343498
H181	H	0.855487	-0.500553	-0.142598
H182	H	1.355487	-0.000553	0.357402
H183	H	0.882487	-0.374837	-0.190575
H184	H	1.382487	0.125163	0.309425
N185	N	0.894974	-0.447585	0.156424
N186	N	1.394974	0.052415	0.656424
H187	H	0.879527	-0.368615	0.190326
H188	H	1.379527	0.131385	0.690326
H189	H	0.848294	-0.489816	0.141138
H190	H	1.348294	0.010184	0.641138
N191	N	1.000985	-0.008686	0.192371
N192	N	1.500985	0.491314	0.692371
H193	H	1.033294	-0.063432	0.232919
H194	H	1.533294	0.436568	0.732919
H195	H	0.971709	-0.064745	0.156471
H196	H	1.471709	0.435255	0.656471
H197	H	0.999250	-0.243219	0.081549
H198	H	1.499250	0.256781	0.581549
N199	N	0.897940	-0.209576	-0.155655
N200	N	1.397940	0.290424	0.344345
H201	H	0.854400	-0.144497	-0.139544
H202	H	1.354400	0.355503	0.360456
H203	H	0.935438	-0.167241	-0.190494
H204	H	1.435438	0.332759	0.309506
N205	N	1.018347	-0.233916	-0.084982
N206	N	1.518347	0.266084	0.415018
H207	H	1.030359	-0.178891	-0.036612
H208	H	1.530359	0.321109	0.463388
H209	H	1.053605	-0.315795	-0.084304
H210	H	1.553605	0.184205	0.415696
H211	H	0.987536	0.014174	0.639387
H212	H	1.487536	0.514174	1.139387
