data_functionalizedCrystal
_audit_creation_method	'MofGen! by Chris Wilmer'
_symmetry_space_group_name_H-M	'P1'
_symmetry_Int_Tables_number	1
_symmetry_cell_setting	triclinic
loop_
_symmetry_equiv_pos_as_xyz
  x,y,z
_cell_length_a	6.817900
_cell_length_b	17.982723
_cell_length_c	14.125465
_cell_angle_alpha	96.117866
_cell_angle_beta	100.398878
_cell_angle_gamma	102.447564
loop_
_atom_site_label
_atom_site_type_symbol
_atom_site_fract_x
_atom_site_fract_y
_atom_site_fract_z
V1	V	-3.986187	-0.104758	-0.300383
O2	O	-3.979788	0.005707	-0.294244
O3	O	-3.932869	-0.208365	-0.298733
O4	O	-3.922422	-0.102851	-0.431206
O5	O	-3.990307	-0.100537	-0.160855
V6	V	-4.472443	-0.091580	-0.283645
O7	O	-4.241450	-0.133665	-0.337099
O8	O	-4.667377	-0.062673	-0.246929
O9	O	-4.302554	0.012027	-0.285295
O10	O	-4.596238	-0.202045	-0.289784
O11	O	-4.585719	-0.095801	-0.423173
O12	O	-4.313001	-0.093487	-0.152822
C13	C	-3.777171	-0.233631	-0.294099
C14	C	-3.814761	-0.318329	-0.293622
C15	C	-4.226933	-0.842090	-0.295457
C16	C	-4.191602	-0.762508	-0.295909
C17	C	-3.992579	-0.718850	-0.291320
C18	C	-3.828874	-0.754778	-0.286269
C19	C	-3.864205	-0.834358	-0.285810
C20	C	-3.686387	-0.433839	-0.288119
C21	C	-3.651070	-0.354254	-0.288582
C22	C	-4.013785	-0.361989	-0.298218
C23	C	-4.049115	-0.441569	-0.297759
C24	C	-3.885407	-0.477489	-0.292703
C25	C	-3.923718	-0.563782	-0.292211
C26	C	-3.954269	-0.632560	-0.291819
C27	C	-3.763844	-0.099037	-0.463079
C28	C	-3.792960	-0.098163	-0.570030
C29	C	-3.846329	-0.096561	-0.765847
C30	C	-4.031669	-0.099775	-0.818181
C31	C	-4.061366	-0.098883	-0.927140
C32	C	-3.816624	-0.097452	-0.656878
C33	C	-4.121594	0.037290	-0.289926
C34	C	-4.063241	0.121987	-0.290409
C35	C	-4.134921	-0.097303	-0.120944
C36	C	-4.085044	-0.098173	-0.013992
H37	H	-4.324902	-0.733264	-0.300023
H38	H	-3.709969	-0.093142	-0.802872
C39	C	-4.150279	-0.104416	-0.668377
C40	C	-4.215783	-0.104407	-0.768207
H41	H	-4.263943	-0.107284	-0.637527
H42	H	-4.048786	-0.058374	-0.640980
H43	H	-4.093713	-0.147605	-0.658924
H44	H	-4.272335	-0.061215	-0.777660
H45	H	-4.317311	-0.150454	-0.795613
H46	H	-4.388999	-0.877632	-0.299199
H47	H	-4.211178	-0.477112	-0.301500
H48	H	-3.553076	-0.463074	-0.283991
C49	C	-4.120711	-0.243431	-0.303187
C50	C	-4.193738	-0.322502	-0.303761
H51	H	-4.231805	-0.219056	-0.306605
H52	H	-4.059171	-0.235644	-0.357671
H53	H	-4.021654	-0.221967	-0.244886
H54	H	-4.292784	-0.343967	-0.362067
H55	H	-4.255310	-0.330294	-0.249273
C56	C	-3.613659	-0.629355	-0.282706
C57	C	-3.610104	-0.706791	-0.281229
H58	H	-3.478598	-0.599734	-0.279603
H59	H	-3.663615	-0.611061	-0.228371
H60	H	-3.701152	-0.624754	-0.341156
H61	H	-3.522622	-0.711393	-0.222775
H62	H	-3.560121	-0.725091	-0.335569
H63	H	-3.730910	-0.863606	-0.281708
H64	H	-3.488995	-0.318709	-0.284844
