data_functionalizedCrystal
_audit_creation_method	'MofGen! by Chris Wilmer'
_symmetry_space_group_name_H-M	'P1'
_symmetry_Int_Tables_number	1
_symmetry_cell_setting	triclinic
loop_
_symmetry_equiv_pos_as_xyz
  x,y,z
_cell_length_a	16.959455
_cell_length_b	19.121111
_cell_length_c	16.959447
_cell_angle_alpha	87.591305
_cell_angle_beta	89.980656
_cell_angle_gamma	87.530667
loop_
_atom_site_label
_atom_site_type_symbol
_atom_site_fract_x
_atom_site_fract_y
_atom_site_fract_z
Zn1	Zn	1.194930	0.279618	-0.460371
Zn2	Zn	1.528264	0.612952	-0.127038
Zn3	Zn	1.861597	0.946285	0.206295
Zn4	Zn	1.189187	0.397079	-0.333827
Zn5	Zn	1.522520	0.730413	-0.000493
Zn6	Zn	1.855854	1.063746	0.332840
Zn7	Zn	1.062752	0.279645	-0.328204
Zn8	Zn	1.396085	0.612978	0.005129
Zn9	Zn	1.729418	0.946311	0.338462
Zn10	Zn	1.057066	0.397031	-0.465957
Zn11	Zn	1.390399	0.730364	-0.132624
Zn12	Zn	1.723733	1.063698	0.200709
O13	O	1.125984	0.338343	-0.397090
O14	O	1.459317	0.671677	-0.063757
O15	O	1.792650	1.005010	0.269577
O16	O	1.304779	0.295209	-0.443600
O17	O	1.638112	0.628543	-0.110267
O18	O	1.971446	0.961876	0.223067
O19	O	1.172391	0.381533	-0.222471
O20	O	1.505724	0.714866	0.110862
O21	O	1.839057	1.048200	0.444195
O22	O	1.085069	0.181357	-0.341046
O23	O	1.418402	0.514690	-0.007713
O24	O	1.751735	0.848024	0.325621
O25	O	1.300559	0.381507	-0.350628
O26	O	1.633893	0.714841	-0.017295
O27	O	1.967226	1.048174	0.316038
O28	O	1.182180	0.181338	-0.438148
O29	O	1.515513	0.514671	-0.104815
O30	O	1.848846	0.848004	0.228518
O31	O	1.079499	0.295254	-0.218341
O32	O	1.412833	0.628587	0.114993
O33	O	1.746166	0.961921	0.448326
O34	O	0.951387	0.295207	-0.346463
O35	O	1.284720	0.628540	-0.013129
O36	O	1.618054	0.961874	0.320204
O37	O	1.075378	0.381425	-0.575826
O38	O	1.408711	0.714758	-0.242493
O39	O	1.742045	1.048091	0.090841
O40	O	0.947210	0.381450	-0.447669
O41	O	1.280543	0.714783	-0.114336
O42	O	1.613876	1.048117	0.218998
O43	O	1.176667	0.295162	-0.571722
O44	O	1.510000	0.628496	-0.238388
O45	O	1.843333	0.961829	0.094945
O46	O	1.166878	0.495357	-0.356045
O47	O	1.500211	0.828691	-0.022712
O48	O	1.833544	1.162024	0.310622
O49	O	1.069809	0.495322	-0.453121
O50	O	1.403142	0.828655	-0.119787
O51	O	1.736475	1.161988	0.213546
C52	C	0.920618	0.338327	-0.397062
C53	C	1.253952	0.671660	-0.063729
C54	C	1.587285	1.004993	0.269604
C55	C	0.832761	0.338336	-0.397070
C56	C	1.166094	0.671670	-0.063737
C57	C	1.499428	1.005003	0.269596
C58	C	0.793642	0.293369	-0.344455
C59	C	1.126975	0.626703	-0.011121
C60	C	1.460308	0.960036	0.322212
C61	C	0.789327	0.383308	-0.449698
C62	C	1.122660	0.716642	-0.116364
C63	C	1.455993	1.049975	0.216969
C64	C	0.706781	0.383317	-0.449710
C65	C	1.040114	0.716650	-0.116376
C66	C	1.373447	1.049983	0.216957
C67	C	0.667661	0.338350	-0.397094
C68	C	1.000994	0.671683	-0.063761
C69	C	1.334328	1.005016	0.269573
C70	C	0.711088	0.293375	-0.344467
C71	C	1.044421	0.626708	-0.011133
C72	C	1.377755	0.960041	0.322200
C73	C	0.663348	0.428286	-0.502342
C74	C	0.996681	0.761619	-0.169009
C75	C	1.330015	1.094952	0.164325
C76	C	0.580796	0.428295	-0.502357
C77	C	0.914130	0.761628	-0.169023
C78	C	1.247463	1.094962	0.164310
C79	C	0.541675	0.383331	-0.449736
C80	C	0.875009	0.716664	-0.116403
C81	C	1.208342	1.049998	0.216930
C82	C	0.585107	0.338355	-0.397106
C83	C	0.918441	0.671688	-0.063773
C84	C	1.251774	1.005022	0.269561
C85	C	0.545988	0.293388	-0.344490
C86	C	0.879321	0.626721	-0.011157
C87	C	1.212655	0.960055	0.322176
C88	C	0.589418	0.248415	-0.291856
C89	C	0.922752	0.581748	0.041478
C90	C	1.256085	0.915081	0.374811
C91	C	0.671967	0.248411	-0.291846
C92	C	1.005300	0.581744	0.041487
C93	C	1.338634	0.915077	0.374820
C94	C	0.459127	0.383335	-0.449746
C95	C	0.792460	0.716668	-0.116412
C96	C	1.125793	1.050002	0.216921
C97	C	0.463434	0.293393	-0.344502
C98	C	0.796767	0.626727	-0.011169
C99	C	1.130101	0.960060	0.322164
C100	C	1.117124	0.520824	-0.405816
C101	C	1.450458	0.854157	-0.072483
C102	C	1.783791	1.187490	0.260850
C103	C	1.113407	0.598889	-0.409576
C104	C	1.446740	0.932223	-0.076243
C105	C	1.780073	1.265556	0.257091
C106	C	1.162238	0.635560	-0.360842
C107	C	1.495571	0.968893	-0.027509
C108	C	1.828905	1.302227	0.305825
C109	C	1.158746	0.708911	-0.364382
C110	C	1.492079	1.042245	-0.031049
C111	C	1.825413	1.375578	0.302284
C112	C	1.106419	0.745590	-0.416654
C113	C	1.439752	1.078924	-0.083320
C114	C	1.773085	1.412257	0.250013
C115	C	1.057585	0.708914	-0.465393
C116	C	1.390919	1.042248	-0.132060
C117	C	1.724252	1.375581	0.201274
C118	C	1.061082	0.635565	-0.461856
C119	C	1.394415	0.968898	-0.128523
C120	C	1.727748	1.302231	0.204811
C121	C	1.093335	0.967059	-0.429864
C122	C	1.426668	1.300393	-0.096530
C123	C	1.760002	1.633726	0.236803
C124	C	1.089841	1.040414	-0.433395
C125	C	1.423174	1.373747	-0.100062
C126	C	1.756507	1.707081	0.233271
C127	C	1.191003	1.040406	-0.332385
C128	C	1.524336	1.373739	0.000948
C129	C	1.857670	1.707073	0.334281
C130	C	1.194491	0.967055	-0.328850
C131	C	1.527825	1.300388	0.004484
C132	C	1.861158	1.633721	0.337817
C133	C	1.145661	0.930385	-0.377592
C134	C	1.478994	1.263719	-0.044258
C135	C	1.812328	1.597052	0.289075
C136	C	1.102846	0.820567	-0.420272
C137	C	1.436180	1.153900	-0.086939
C138	C	1.769513	1.487233	0.246395
C139	C	1.149238	0.855410	-0.373977
C140	C	1.482571	1.188743	-0.040643
C141	C	1.815904	1.522077	0.292690
C142	C	1.332151	0.338361	-0.397118
C143	C	1.665484	0.671694	-0.063785
C144	C	1.998818	1.005027	0.269549
C145	C	1.420007	0.338368	-0.397130
C146	C	1.753341	0.671702	-0.063797
C147	C	2.086674	1.005035	0.269537
C148	C	1.126029	0.338285	-0.603255
C149	C	1.459362	0.671618	-0.269922
C150	C	1.792695	1.004952	0.063411
C151	C	1.126048	0.338260	-0.691111
C152	C	1.459381	0.671593	-0.357778
C153	C	1.792715	1.004927	-0.024444
C154	C	1.134892	1.155151	-0.388357
C155	C	1.468226	1.488484	-0.055024
C156	C	1.801559	1.821817	0.278310
C157	C	1.138672	1.077085	-0.384661
C158	C	1.472005	1.410418	-0.051328
C159	C	1.805339	1.743752	0.282005
C160	C	1.077757	0.293265	-1.060439
C161	C	1.411090	0.626598	-0.727105
C162	C	1.744424	0.959931	-0.393772
C163	C	1.174485	0.383108	-1.064728
C164	C	1.507819	0.716441	-0.731394
C165	C	1.841152	1.049774	-0.398061
C166	C	1.174471	0.383124	-0.982182
C167	C	1.507804	0.716457	-0.648849
C168	C	1.841138	1.049791	-0.315516
C169	C	1.126098	0.338211	-0.938762
C170	C	1.459431	0.671544	-0.605428
C171	C	1.792765	1.004877	-0.272095
C172	C	1.077739	0.293281	-0.977886
C173	C	1.411073	0.626615	-0.644553
C174	C	1.744406	0.959948	-0.311219
C175	C	1.222823	0.428058	-0.943052
C176	C	1.556156	0.761391	-0.609719
C177	C	1.889490	1.094724	-0.276385
C178	C	1.222810	0.428077	-0.860502
C179	C	1.556143	0.761410	-0.527169
C180	C	1.889476	1.094743	-0.193835
C181	C	1.174440	0.383159	-0.817080
C182	C	1.507773	0.716493	-0.483746
C183	C	1.841107	1.049826	-0.150413
C184	C	1.126080	0.338227	-0.856209
C185	C	1.459414	0.671561	-0.522876
C186	C	1.792747	1.004894	-0.189542
C187	C	1.077707	0.293314	-0.812788
C188	C	1.411040	0.626647	-0.479455
C189	C	1.744374	0.959981	-0.146121
C190	C	1.029351	0.248378	-0.851916
C191	C	1.362684	0.581711	-0.518582
C192	C	1.696017	0.915045	-0.185249
C193	C	1.029370	0.248364	-0.934464
C194	C	1.362703	0.581697	-0.601130
C195	C	1.696036	0.915031	-0.267797
C196	C	1.174421	0.383173	-0.734532
C197	C	1.507755	0.716507	-0.401198
C198	C	1.841088	1.049840	-0.067865
C199	C	1.077689	0.293331	-0.730235
C200	C	1.411023	0.626664	-0.396902
C201	C	1.744356	0.959997	-0.063569
C202	C	1.125987	0.338351	-0.191724
C203	C	1.459320	0.671684	0.141609
C204	C	1.792653	1.005018	0.474943
C205	C	1.126130	0.338178	-0.103860
C206	C	1.459463	0.671511	0.229474
C207	C	1.792797	1.004845	0.562807
H208	H	0.557557	0.211799	-0.249020
H209	H	0.890890	0.545133	0.084314
H210	H	1.224223	0.878466	0.417647
H211	H	1.014983	0.738784	-0.507957
H212	H	1.348316	1.072118	-0.174623
H213	H	1.681649	1.405451	0.158710
H214	H	0.707335	0.211796	-0.248995
H215	H	1.040668	0.545129	0.084339
H216	H	1.374002	0.878462	0.417672
O217	O	0.840475	0.244861	-0.287687
O218	O	1.173809	0.578194	0.045646
O219	O	1.507142	0.911527	0.378979
H220	H	0.904450	0.252406	-0.296517
H221	H	1.237783	0.585739	0.036816
H222	H	1.571117	0.919073	0.370149
O223	O	0.977232	0.199887	-0.976662
O224	O	1.310566	0.533220	-0.643328
O225	O	1.643899	0.866553	-0.309995
H226	H	0.985373	0.207422	-1.041357
H227	H	1.318706	0.540755	-0.708024
H228	H	1.652039	0.874089	-0.374690
H229	H	0.821183	0.419915	-0.492538
H230	H	1.154516	0.753249	-0.159205
H231	H	1.487850	1.086582	0.174128
H232	H	0.695205	0.464893	-0.545181
H233	H	1.028539	0.798226	-0.211848
H234	H	1.361872	1.131560	0.121486
O235	O	0.533950	0.476894	-0.559019
O236	O	0.867283	0.810227	-0.225686
O237	O	1.200617	1.143560	0.107647
H238	H	0.575020	0.508197	-0.595564
H239	H	0.908353	0.841530	-0.262231
H240	H	1.241687	1.174863	0.071103
H241	H	0.423770	0.419947	-0.492605
H242	H	0.757103	0.753281	-0.159272
H243	H	1.090436	1.086614	0.174062
O244	O	1.218680	0.596000	-0.304467
O245	O	1.552014	0.929333	0.028867
O246	O	1.885347	1.262666	0.362200
H247	H	1.252055	0.633825	-0.271181
H248	H	1.585388	0.967159	0.062152
H249	H	1.918722	1.300492	0.395486
H250	H	1.060240	0.850439	-0.462830
H251	H	1.393573	1.183772	-0.129497
H252	H	1.726906	1.517106	0.203837
H253	H	1.213862	0.419679	-1.100086
H254	H	1.547196	0.753013	-0.766753
H255	H	1.880529	1.086346	-0.433419
O256	O	1.211409	0.748466	-0.311815
O257	O	1.544742	1.081799	0.021518
O258	O	1.878075	1.415133	0.354851
H259	H	1.248374	0.710638	-0.274866
H260	H	1.581707	1.043971	0.058468
H261	H	1.915040	1.377305	0.391801
O262	O	1.250937	0.927493	-0.272479
O263	O	1.584271	1.260826	0.060854
O264	O	1.917604	1.594160	0.394188
H265	H	1.284313	0.965316	-0.239191
H266	H	1.617647	1.298650	0.094143
H267	H	1.950980	1.631983	0.427476
O268	O	0.421233	0.244899	-0.287751
O269	O	0.754567	0.578232	0.045582
O270	O	1.087900	0.911565	0.378916
H271	H	0.439747	0.189786	-0.298765
H272	H	0.773081	0.523120	0.034568
H273	H	1.106414	0.856453	0.367902
H274	H	1.021319	0.605708	-0.501541
H275	H	1.354653	0.939041	-0.168208
H276	H	1.687986	1.272375	0.165125
H277	H	1.262196	0.464632	-0.978412
H278	H	1.595530	0.797965	-0.645078
H279	H	1.928863	1.131298	-0.311745
H280	H	1.038389	0.256677	-1.092300
H281	H	1.371722	0.590010	-0.758967
H282	H	1.705055	0.923344	-0.425633
O283	O	1.274978	0.476526	-0.818300
O284	O	1.608311	0.809859	-0.484966
O285	O	1.941644	1.143193	-0.151633
H286	H	1.308624	0.507747	-0.862362
H287	H	1.641958	0.841080	-0.529029
H288	H	1.975291	1.174414	-0.195695
H289	H	1.230759	1.070270	-0.292703
H290	H	1.564092	1.403603	0.040630
H291	H	1.897425	1.736937	0.373963
H292	H	1.047239	1.070276	-0.475975
H293	H	1.380572	1.403610	-0.142641
H294	H	1.713905	1.736943	0.190692
H295	H	1.053574	0.937209	-0.469550
H296	H	1.386907	1.270542	-0.136217
H297	H	1.720241	1.603875	0.197117
O298	O	1.025516	0.244882	-0.683409
O299	O	1.358849	0.578216	-0.350075
O300	O	1.692183	0.911549	-0.016742
H301	H	1.033629	0.252438	-0.619434
H302	H	1.366962	0.585771	-0.286100
H303	H	1.700295	0.919104	0.047233
H304	H	1.191846	0.825544	-0.331420
H305	H	1.525179	1.158877	0.001913
H306	H	1.858513	1.492211	0.335246
O307	O	1.226570	0.431637	-0.692333
O308	O	1.559904	0.764970	-0.359000
O309	O	1.893237	1.098303	-0.025666
H310	H	1.218430	0.424106	-0.627638
H311	H	1.551763	0.757439	-0.294304
H312	H	1.885097	1.090772	0.039029
H313	H	0.989962	0.211813	-0.816552
H314	H	1.323295	0.545146	-0.483219
H315	H	1.656629	0.878479	-0.149885
