data_functionalizedCrystal
_audit_creation_method	'MofGen! by Chris Wilmer'
_symmetry_space_group_name_H-M	'P1'
_symmetry_Int_Tables_number	1
_symmetry_cell_setting	triclinic
loop_
_symmetry_equiv_pos_as_xyz
  x,y,z
_cell_length_a	14.853567
_cell_length_b	17.699083
_cell_length_c	13.330367
_cell_angle_alpha	89.995693
_cell_angle_beta	89.997850
_cell_angle_gamma	96.541194
loop_
_atom_site_label
_atom_site_type_symbol
_atom_site_fract_x
_atom_site_fract_y
_atom_site_fract_z
O1	O	0.113998	-1.004373	0.083398
O2	O	0.128832	-0.784033	0.083403
O3	O	-0.009836	-0.900089	0.083403
O4	O	0.252667	-0.888317	0.083398
O5	O	-0.009832	-0.900077	-0.083444
O6	O	0.128836	-0.784021	-0.083444
O7	O	0.114002	-1.004361	-0.083449
Cu8	Cu	0.121420	-0.894190	-0.098681
Cu9	Cu	0.121415	-0.894204	0.098635
O10	O	0.252671	-0.888305	-0.083450
C11	C	0.128302	-0.755829	-0.000020
C12	C	0.126708	-0.671806	-0.000018
C13	C	-0.043421	-0.899549	-0.000017
C14	C	-0.143499	-0.897951	-0.000009
C15	C	0.125959	-0.632331	-0.090967
C16	C	0.124447	-0.553384	-0.090968
C17	C	0.123690	-0.513915	-0.000018
C18	C	0.124437	-0.553396	0.090938
C19	C	0.125942	-0.632342	0.090938
C20	C	0.118363	-0.235018	0.090941
C21	C	0.116859	-0.156067	0.090934
C22	C	0.116867	-0.156061	-0.090964
C23	C	0.118373	-0.235006	-0.090965
C24	C	0.119115	-0.274481	-0.000009
C25	C	0.120753	-0.360084	-0.000009
C26	C	0.122059	-0.428313	-0.000017
C27	C	-0.555754	-0.822255	-0.000026
C28	C	-0.577543	-0.960132	-0.000029
C29	C	-0.483515	-0.961635	-0.000023
C30	C	-0.425601	-0.893447	-0.000020
C31	C	-0.461716	-0.823756	-0.000023
C32	C	-0.447392	-1.031324	-0.000030
C33	C	-0.353359	-1.032830	-0.000025
C34	C	-0.295444	-0.964641	-0.000015
C35	C	-0.331564	-0.894947	-0.000017
C36	C	-0.273651	-0.826759	-0.000014
C37	C	-0.309770	-0.757065	-0.000009
C38	C	-0.403801	-0.755567	-0.000013
C39	C	-0.201412	-0.966139	-0.000011
C40	C	-0.179614	-0.828260	-0.000012
C41	C	0.286255	-0.888845	-0.000027
C42	C	0.386333	-0.890443	-0.000029
C43	C	0.114526	-0.032566	-0.000023
C44	C	0.116104	-0.116590	-0.000016
N45	N	0.121422	-0.894185	-0.237463
C46	C	0.182806	-0.842789	-0.289988
C47	C	0.060035	-0.945587	-0.289965
C48	C	0.060032	-0.945594	-0.394984
C49	C	0.121415	-0.894198	-0.447509
C50	C	0.182803	-0.842794	-0.395016
C51	C	-0.001360	-0.996992	-0.447484
C52	C	-0.001367	-0.997002	-0.552509
C53	C	0.060021	-0.945608	-0.605036
C54	C	0.121412	-0.894202	-0.552537
C55	C	0.182795	-0.842806	-0.605063
C56	C	0.244191	-0.791403	-0.552565
C57	C	0.244191	-0.791400	-0.447544
C58	C	0.060021	-0.945611	-0.710058
C59	C	0.182792	-0.842810	-0.710091
N60	N	0.121405	-0.894215	0.237416
H61	H	0.126583	-0.664460	-0.165029
C62	C	0.123644	-0.509962	-0.191020
N63	N	0.123046	-0.477257	-0.266383
H64	H	0.010054	-0.987429	-0.247196
H65	H	-0.624701	-1.015647	-0.000039
H66	H	-0.494552	-1.086839	-0.000042
H67	H	0.126554	-0.664482	0.164998
C68	C	-0.161685	-1.042798	-0.000017
N69	N	-0.131765	-1.100542	-0.000019
H70	H	0.116242	-0.123933	0.165001
C71	C	0.119170	-0.278431	0.190995
N72	N	0.119775	-0.311133	0.266361
C73	C	0.250336	-0.786247	-0.232241
N74	N	0.301200	-0.743659	-0.188745
C75	C	0.116041	-0.112632	-0.191019
N76	N	0.115420	-0.079923	-0.266377
H77	H	-0.323960	-1.089579	-0.000028
C78	C	-0.068908	-1.053499	-0.389700
N79	N	-0.119796	-1.096054	-0.346172
H80	H	0.232781	-0.800959	-0.752851
C81	C	-0.115916	-0.753246	-0.000005
N82	N	-0.067939	-0.696745	-0.000001
C83	C	0.119203	-0.278419	-0.191016
N84	N	0.119824	-0.311116	-0.266377
C85	C	0.123601	-0.509977	0.190984
N86	N	0.122975	-0.477274	0.266340
C87	C	-0.595485	-0.745595	-0.000029
N88	N	-0.625411	-0.687854	-0.000036
H89	H	-0.262604	-0.701547	-0.000014
C90	C	0.311704	-0.734863	-0.610357
N91	N	0.362552	-0.692277	-0.653890
C92	C	-0.443540	-0.678910	-0.000028
N93	N	-0.473474	-0.621172	-0.000048
H94	H	0.294176	-0.749549	-0.404794
H95	H	-0.051357	-1.038857	-0.595246
C96	C	-0.007508	-1.002152	-0.767800
N97	N	-0.058372	-1.044743	-0.811291
