data_functionalizedCrystal
_audit_creation_method	'MofGen! by Chris Wilmer'
_symmetry_space_group_name_H-M	'P1'
_symmetry_Int_Tables_number	1
_symmetry_cell_setting	triclinic
loop_
_symmetry_equiv_pos_as_xyz
  x,y,z
_cell_length_a	17.699083
_cell_length_b	27.731996
_cell_length_c	16.776229
_cell_angle_alpha	89.987372
_cell_angle_beta	89.998886
_cell_angle_gamma	82.952202
loop_
_atom_site_label
_atom_site_type_symbol
_atom_site_fract_x
_atom_site_fract_y
_atom_site_fract_z
O1	O	1.003522	0.061128	-0.066187
O2	O	0.783071	0.069081	-0.066214
O3	O	0.900164	-0.005269	-0.066183
O4	O	0.886429	0.135479	-0.066219
O5	O	0.900148	-0.005274	0.066394
O6	O	0.783055	0.069077	0.066362
O7	O	1.003506	0.061124	0.066390
Zn8	Zn	0.893278	0.065100	0.087425
Zn9	Zn	0.893299	0.065106	-0.087250
O10	O	0.886414	0.135474	0.066358
C11	C	0.754869	0.068794	0.000071
C12	C	0.670858	0.067939	0.000061
C13	C	0.621840	0.111581	0.000050
C14	C	0.542904	0.110775	0.000060
C15	C	0.512988	0.066326	0.000076
C16	C	0.562013	0.022681	0.000090
C17	C	0.640947	0.023488	0.000085
C18	C	0.243679	0.019427	0.000110
C19	C	0.164739	0.018623	0.000113
C20	C	0.145636	0.106714	0.000086
C21	C	0.224571	0.107521	0.000081
C22	C	0.273588	0.063876	0.000098
C23	C	0.359180	0.064750	0.000089
C24	C	0.427398	0.065451	0.000080
C25	C	0.899874	-0.023280	0.000108
C26	C	0.899024	-0.076939	0.000116
C27	C	0.893686	-0.409672	-0.072191
C28	C	0.890459	-0.611342	-0.072205
O29	O	0.890016	-0.637412	-0.133666
N30	N	0.890049	-0.636563	0.000062
C31	C	0.890442	-0.611363	0.072337
O32	O	0.890012	-0.637442	0.133804
C33	C	0.893664	-0.409694	0.072351
C34	C	0.894080	-0.384476	0.000079
C35	C	0.894102	-0.384454	-0.144456
C36	C	0.894912	-0.334040	-0.144452
C37	C	0.895307	-0.308844	-0.072182
C38	C	0.894891	-0.334062	0.000083
C39	C	0.894051	-0.384494	0.144625
C40	C	0.894854	-0.334073	0.144622
C41	C	0.895271	-0.308856	0.072351
C42	C	0.896097	-0.258451	0.072358
N43	N	0.896506	-0.233230	0.000091
C44	C	0.896111	-0.258427	-0.072179
C45	C	0.888752	-0.717242	0.072325
C46	C	0.887948	-0.767660	0.072322
C47	C	0.887963	-0.767635	-0.072221
C48	C	0.888773	-0.717217	-0.072217
C49	C	0.889161	-0.692021	0.000058
C50	C	0.897815	-0.152553	-0.072164
C51	C	0.898629	-0.102135	-0.072154
C52	C	0.898610	-0.102164	0.072388
C53	C	0.897800	-0.152578	0.072378
C54	C	0.897400	-0.177771	0.000095
O55	O	0.896532	-0.232349	0.133787
O56	O	0.896525	-0.232338	-0.133637
C57	C	0.892875	-0.460086	-0.072195
C58	C	0.892459	-0.485304	0.000070
C59	C	0.892854	-0.460108	0.072340
C60	C	0.891655	-0.535721	0.000067
C61	C	0.891260	-0.560917	-0.072203
C62	C	0.891669	-0.535696	-0.144469
C63	C	0.892480	-0.485282	-0.144465
C64	C	0.892444	-0.485329	0.144607
C65	C	0.891634	-0.535743	0.144597
C66	C	0.891240	-0.560939	0.072327
C67	C	1.031708	0.061411	0.000103
C68	C	1.115719	0.062266	0.000107
C69	C	0.886703	0.153485	0.000065
C70	C	0.887553	0.207144	0.000052
N71	N	0.893270	0.065095	0.206636
N72	N	0.893313	0.065106	-0.206461
C73	C	0.945134	0.032186	0.248368
C74	C	0.945139	0.032186	0.331820
C75	C	0.893282	0.065097	0.373539
C76	C	0.841412	0.098008	0.331802
C77	C	0.841405	0.098005	0.248352
C78	C	0.841439	0.098017	0.668349
C79	C	0.841452	0.098018	0.751806
C80	C	0.945173	0.032198	0.751818
C81	C	0.945166	0.032195	0.668367
C82	C	0.893294	0.065104	0.626637
C83	C	0.893289	0.065103	0.536149
C84	C	0.893289	0.065100	0.464026
H85	H	0.680858	-0.012050	0.000093
O86	O	0.135641	-0.024545	-0.000008
C87	C	0.057569	-0.076566	-0.068644
C88	C	0.090485	-0.027671	-0.068615
H89	H	0.021040	-0.079105	-0.124098
H90	H	0.106132	-0.107642	-0.068682
H91	H	0.021122	-0.079136	-0.013135
H92	H	0.126923	-0.025054	-0.124115
H93	H	0.041887	0.003382	-0.068536
H94	H	0.799185	0.124803	0.365775
O95	O	0.897527	-0.177079	-0.142332
C96	C	0.962241	-0.239511	-0.226265
C97	C	0.962648	-0.211784	-0.146763
H98	H	1.014894	-0.267568	-0.229881
H99	H	0.908910	-0.258658	-0.229913
H100	H	0.962641	-0.212803	-0.277888
H101	H	0.962276	-0.238459	-0.095096
H102	H	1.015975	-0.192629	-0.143185
O103	O	0.291181	-0.023013	0.000089
C104	C	0.301791	-0.110475	0.000166
C105	C	0.247906	-0.062446	0.000171
H106	H	0.266825	-0.142369	0.000249
H107	H	0.339212	-0.112335	-0.055329
H108	H	0.339238	-0.112275	0.055637
H109	H	0.210411	-0.060614	-0.055263
H110	H	0.210537	-0.060606	0.055702
O111	O	0.995601	0.000205	0.372234
C112	C	1.098471	-0.065088	0.363439
C113	C	1.041369	-0.028890	0.317572
H114	H	1.135479	-0.088628	0.319265
H115	H	1.136076	-0.044265	0.402469
H116	H	1.066088	-0.089193	0.402548
H117	H	1.073690	-0.004776	0.278419
H118	H	1.003765	-0.049743	0.278592
H119	H	0.248923	0.143716	0.000064
H120	H	0.987395	0.005398	0.634401
H121	H	0.105716	0.142252	0.000076
H122	H	0.987408	0.005400	0.785803
O123	O	0.790997	0.130005	0.792210
C124	C	0.688134	0.195304	0.783397
C125	C	0.745216	0.159101	0.737540
H126	H	0.651116	0.218845	0.739217
H127	H	0.650536	0.174486	0.822460
H128	H	0.720533	0.219408	0.822473
H129	H	0.712879	0.134988	0.698422
H130	H	0.782813	0.179949	0.698527
H131	H	0.502996	0.146313	0.000050
O132	O	0.790990	0.129921	0.627780
C133	C	0.687533	0.140304	0.533528
C134	C	0.744609	0.104115	0.579444
H135	H	0.650030	0.119454	0.494425
H136	H	0.650420	0.163824	0.577642
H137	H	0.719938	0.164430	0.494482
H138	H	0.712267	0.079957	0.618491
H139	H	0.781722	0.080629	0.535287
H140	H	0.892767	-0.464819	0.203459
O141	O	0.790997	0.130021	0.207935
C142	C	0.688086	0.195289	0.216725
C143	C	0.745147	0.159066	0.262594
H144	H	0.650991	0.218774	0.260897
H145	H	0.720425	0.219444	0.177661
H146	H	0.650561	0.174437	0.177649
H147	H	0.782687	0.179877	0.301714
H148	H	0.712761	0.134911	0.301608
H149	H	0.646191	0.147777	0.000036
H150	H	0.898970	-0.081605	-0.131008
O151	O	0.532829	-0.020455	0.000071
C152	C	0.419695	-0.060741	0.000135
C153	C	0.452642	-0.011855	0.000140
H154	H	0.354860	-0.053804	0.000208
H155	H	0.439871	-0.082309	-0.055355
H156	H	0.439973	-0.082303	0.055611
H157	H	0.432379	0.009747	-0.055298
H158	H	0.432470	0.009677	0.055667
O159	O	0.892731	-0.460810	-0.214703
C160	C	0.827385	-0.439884	-0.338269
C161	C	0.827008	-0.467599	-0.258734
H162	H	0.774262	-0.445371	-0.373899
H163	H	0.827976	-0.399506	-0.325944
H164	H	0.880236	-0.454286	-0.373872
H165	H	0.774165	-0.453238	-0.223092
H166	H	0.826457	-0.507973	-0.271115
H167	H	0.895249	-0.313512	-0.203303
H168	H	0.893777	-0.404963	-0.203310
O169	O	0.889137	-0.692794	-0.142492
C170	C	0.889116	-0.698109	-0.285857
C171	C	0.888687	-0.725823	-0.206325
H172	H	0.888768	-0.724802	-0.337487
H173	H	0.836491	-0.670030	-0.289536
H174	H	0.942467	-0.678977	-0.289422
H175	H	0.835371	-0.744984	-0.202706
H176	H	0.941347	-0.753874	-0.202680
O177	O	0.891353	-0.560272	0.214783
C178	C	0.955958	-0.622790	0.298674
C179	C	0.956396	-0.595043	0.219174
H180	H	1.008530	-0.650916	0.302243
H181	H	0.956420	-0.596146	0.350361
H182	H	0.902558	-0.641874	0.302250
H183	H	1.009786	-0.575958	0.215521
H184	H	0.955893	-0.621710	0.167526
H185	H	0.887642	-0.788158	-0.131066
H186	H	0.887620	-0.788189	0.131172
H187	H	0.889072	-0.696733	0.131183
H188	H	0.893713	-0.405018	0.203477
H189	H	0.987365	0.005388	0.214405
H190	H	0.895159	-0.313561	0.203479
O191	O	0.898853	-0.077646	0.142564
C192	C	0.834162	-0.015145	0.226384
C193	C	0.833794	-0.042886	0.146893
H194	H	0.781576	0.012971	0.229902
H195	H	0.833674	-0.041796	0.278079
H196	H	0.887548	0.003948	0.229995
H197	H	0.780417	-0.061982	0.143204
H198	H	0.834321	-0.016213	0.095236
O199	O	0.897270	-0.177049	0.142598
C200	C	0.831439	-0.186918	0.266149
C201	C	0.831943	-0.159179	0.186647
H202	H	0.778636	-0.172474	0.301792
H203	H	0.830739	-0.227281	0.253775
H204	H	0.884609	-0.181513	0.301761
H205	H	0.778784	-0.164544	0.150995
H206	H	0.832683	-0.118826	0.199078
O207	O	0.891146	-0.560190	-0.214650
C208	C	0.824655	-0.611576	-0.298492
C209	C	0.825152	-0.583846	-0.219001
H210	H	0.771313	-0.630717	-0.302029
H211	H	0.825037	-0.584917	-0.350187
H212	H	0.877287	-0.639652	-0.302084
H213	H	0.772530	-0.555769	-0.215331
H214	H	0.824809	-0.610534	-0.167344
