data_functionalizedCrystal
_audit_creation_method	'MofGen! by Chris Wilmer'
_symmetry_space_group_name_H-M	'P1'
_symmetry_Int_Tables_number	1
_symmetry_cell_setting	triclinic
loop_
_symmetry_equiv_pos_as_xyz
  x,y,z
_cell_length_a	12.645331
_cell_length_b	12.645330
_cell_length_c	12.645323
_cell_angle_alpha	89.973156
_cell_angle_beta	89.978061
_cell_angle_gamma	90.017906
loop_
_atom_site_label
_atom_site_type_symbol
_atom_site_fract_x
_atom_site_fract_y
_atom_site_fract_z
Zn1	Zn	1.620722	-0.422004	-0.599450
Zn2	Zn	1.620606	-0.599298	-0.422190
Zn3	Zn	1.443439	-0.422050	-0.422194
Zn4	Zn	1.443418	-0.599227	-0.599405
O5	O	1.532047	-0.510645	-0.510810
O6	O	1.769054	-0.445533	-0.575954
O7	O	1.597065	-0.575835	-0.273844
O8	O	1.467013	-0.273697	-0.445728
O9	O	1.768969	-0.575791	-0.445722
O10	O	1.597262	-0.273663	-0.575957
O11	O	1.466901	-0.445611	-0.273846
O12	O	1.295089	-0.445542	-0.445685
O13	O	1.466978	-0.575669	-0.747759
O14	O	1.295074	-0.575713	-0.575881
O15	O	1.597242	-0.445464	-0.747792
O16	O	1.597045	-0.747636	-0.445678
O17	O	1.466866	-0.747584	-0.575877
C18	C	1.256617	-0.510626	-0.510779
C19	C	1.138787	-0.510643	-0.510791
C20	C	1.531969	-0.786075	-0.510795
C21	C	1.532033	-0.903905	-0.510824
C22	C	1.093879	-0.428625	-0.429018
C23	C	0.971319	-0.428322	-0.429298
C24	C	0.970956	-0.480847	-0.622698
C25	C	1.093554	-0.480234	-0.622187
C26	C	1.093572	-0.622702	-0.481712
C27	C	0.970964	-0.622117	-0.479286
C28	C	1.450475	-1.071480	-0.592985
C29	C	1.450058	-0.948920	-0.592721
C30	C	1.501789	-0.948503	-0.399102
C31	C	1.501292	-1.071101	-0.399601
C32	C	1.644334	-1.070993	-0.539480
C33	C	1.643646	-0.948386	-0.541923
C34	C	1.808552	-0.510665	-0.510842
C35	C	1.926382	-0.510674	-0.510856
C36	C	1.532120	-0.510553	-0.787316
C37	C	1.532152	-0.510514	-0.905146
C38	C	1.532153	-0.234140	-0.510848
C39	C	1.532198	-0.116309	-0.510865
C40	C	1.450207	-0.592409	-0.950007
C41	C	1.449919	-0.592101	-1.072567
C42	C	1.502283	-0.398616	-1.073048
C43	C	1.501655	-0.399156	-0.950450
C44	C	1.644240	-0.539402	-0.950337
C45	C	1.643672	-0.541800	-1.072943
C46	C	1.532034	-0.510659	-0.235380
C47	C	1.532208	-0.510400	-0.117551
H48	H	1.123283	-0.447020	-0.345820
N49	N	1.131481	-0.371756	-0.654738
H50	H	1.104629	-0.354978	-0.728061
H51	H	1.103872	-0.317401	-0.603165
N52	N	1.339921	-0.566707	-1.111413
H53	H	1.312667	-0.627265	-1.155764
H54	H	1.291523	-0.555645	-1.048839
H55	H	1.419734	-0.374713	-0.921851
N56	N	1.134682	-0.319249	-0.454257
H57	H	1.073120	-0.270639	-0.469243
H58	H	1.176135	-0.291335	-0.391980
H59	H	1.666453	-0.919232	-0.624144
N60	N	0.930466	-0.707357	-0.552401
H61	H	0.960414	-0.777991	-0.530196
H62	H	0.850723	-0.709898	-0.548688
N63	N	0.932395	-0.557551	-0.705654
H64	H	0.962013	-0.536857	-0.776910
H65	H	0.956749	-0.631301	-0.687037
N66	N	0.932496	-0.318342	-0.454870
H67	H	0.959548	-0.296534	-0.526809
H68	H	0.852631	-0.317756	-0.455096
N69	N	1.394981	-0.365630	-1.113704
H70	H	1.365603	-0.422924	-1.160939
H71	H	1.345585	-0.354052	-1.052009
H72	H	1.705220	-1.099982	-0.479668
H73	H	1.559426	-0.919346	-0.336244
N74	N	1.132924	-0.555954	-0.705679
H75	H	1.070636	-0.589580	-0.742656
H76	H	1.177244	-0.516140	-0.758918
H77	H	0.940276	-0.399858	-0.647718
N78	N	1.134450	-0.658783	-0.375479
H79	H	1.182701	-0.602846	-0.345125
H80	H	1.072922	-0.670697	-0.325936
N81	N	0.932350	-0.651938	-0.370268
H82	H	0.961275	-0.723685	-0.350402
H83	H	0.957385	-0.597551	-0.317434
H84	H	1.707980	-0.486502	-1.103569
H85	H	1.122611	-0.683804	-0.541272
N86	N	1.475114	-0.908963	-0.702451
H87	H	1.486530	-0.970990	-0.751429
H88	H	1.414219	-0.864753	-0.729180
H89	H	1.469223	-1.100889	-0.676098
H90	H	1.558765	-0.336034	-0.920772
H91	H	1.367863	-1.102381	-0.574270
N92	N	1.339946	-0.910184	-0.567602
H93	H	1.291490	-0.972750	-0.556652
H94	H	1.341835	-0.866020	-0.501103
H95	H	1.671536	-0.619565	-0.919422
H96	H	1.468602	-0.674980	-1.102657
N97	N	1.728556	-0.907788	-0.468475
H98	H	1.695728	-0.859775	-0.413753
H99	H	1.763885	-0.969458	-0.432044
N100	N	1.392717	-1.109119	-0.367488
H101	H	1.345628	-1.046237	-0.353144
H102	H	1.361405	-1.152957	-0.426426
N103	N	1.673578	-0.650774	-1.111460
H104	H	1.615177	-0.679690	-1.157615
H105	H	1.741244	-0.646380	-1.153690
H106	H	1.558233	-1.100760	-0.336328
H107	H	1.420672	-0.917893	-0.374424
N108	N	1.680887	-1.111841	-0.645556
H109	H	1.625120	-1.160144	-0.676138
H110	H	1.692948	-1.050303	-0.695056
H111	H	1.468654	-0.675580	-0.920531
H112	H	1.705289	-0.479749	-0.921333
H113	H	1.560155	-0.335896	-1.102185
H114	H	1.367625	-0.573494	-0.919194
H115	H	0.941177	-0.446931	-0.346382
