data_functionalizedCrystal
_audit_creation_method	'MofGen! by Chris Wilmer'
_symmetry_space_group_name_H-M	'P1'
_symmetry_Int_Tables_number	1
_symmetry_cell_setting	triclinic
loop_
_symmetry_equiv_pos_as_xyz
  x,y,z
_cell_length_a	14.853568
_cell_length_b	13.930277
_cell_length_c	14.853567
_cell_angle_alpha	90.005533
_cell_angle_beta	83.635185
_cell_angle_gamma	90.013365
loop_
_atom_site_label
_atom_site_type_symbol
_atom_site_fract_x
_atom_site_fract_y
_atom_site_fract_z
O1	O	-1.196346	0.079749	-0.117703
O2	O	-0.933886	0.079766	-0.131723
O3	O	-1.072127	0.079760	0.006517
O4	O	-1.058105	0.079755	-0.255943
O5	O	-1.072151	-0.079901	0.006508
O6	O	-0.933911	-0.079895	-0.131732
O7	O	-1.196370	-0.079912	-0.117712
Zn8	Zn	-1.065145	-0.105254	-0.124723
Zn9	Zn	-1.065112	0.105108	-0.124712
O10	O	-1.058130	-0.079906	-0.255952
C11	C	-0.900310	-0.000062	-0.131092
C12	C	-0.800226	-0.000055	-0.129188
C13	C	-0.377029	0.086963	-0.121129
C14	C	-0.377077	-0.087106	-0.121139
C15	C	-0.471111	-0.087104	-0.122927
C16	C	-0.518108	-0.000067	-0.123817
C17	C	-0.471071	0.086968	-0.122920
C18	C	-0.518154	-0.174138	-0.123834
C19	C	-0.612193	-0.174139	-0.125623
C20	C	-0.659193	-0.087101	-0.126507
C21	C	-0.612150	-0.000062	-0.125609
C22	C	-0.659147	0.086975	-0.126499
C23	C	-0.612107	0.174014	-0.125594
C24	C	-0.518070	0.174006	-0.123804
C25	C	-0.753229	-0.087093	-0.128297
C26	C	-0.753189	0.086980	-0.128290
N27	N	-1.065174	-0.248820	-0.124730
C28	C	-1.071504	-0.000068	0.040101
C29	C	-1.069600	-0.000059	0.140185
C30	C	-0.229947	-0.000080	-0.118341
C31	C	-0.330032	-0.000074	-0.120238
N32	N	-1.065090	0.248674	-0.124698
C33	C	-1.003834	0.700946	-0.185816
C34	C	-1.126495	0.700910	-0.063638
C35	C	-1.126480	0.600414	-0.063631
C36	C	-1.065141	0.550180	-0.124717
C37	C	-1.003816	0.600441	-0.185810
C38	C	-1.187798	0.550145	-0.002534
C39	C	-1.187785	0.449643	-0.002524
C40	C	-1.126450	0.399407	-0.063615
C41	C	-1.065123	0.449674	-0.124711
C42	C	-1.003784	0.399440	-0.185797
C43	C	-0.942460	0.449705	-0.246897
C44	C	-0.942480	0.550204	-0.246901
C45	C	-1.126430	0.298908	-0.063612
C46	C	-1.003766	0.298935	-0.185790
C47	C	-1.058753	-0.000076	-0.289536
C48	C	-1.060657	-0.000078	-0.389620
C49	C	-0.979434	-0.000072	0.552719
C50	C	-1.143667	-0.000082	0.573999
C51	C	-1.145457	-0.000077	0.479965
C52	C	-1.064235	-0.000070	0.422304
C53	C	-0.981222	-0.000069	0.458676
C54	C	-1.228468	-0.000088	0.443586
C55	C	-1.230262	-0.000083	0.349547
C56	C	-1.149038	-0.000070	0.291884
C57	C	-1.066022	-0.000067	0.328261
C58	C	-0.984800	-0.000061	0.270600
C59	C	-0.901783	-0.000052	0.306975
C60	C	-0.899998	-0.000056	0.401013
C61	C	-1.150823	-0.000066	0.197846
C62	C	-0.986587	-0.000058	0.176557
H63	H	-0.791524	-0.157959	-0.129043
H64	H	-0.911844	-0.000061	0.582340
O65	O	-0.882751	0.400945	-0.306142
C66	C	-0.725992	0.370286	-0.358422
C67	C	-0.793511	0.425555	-0.291269
H68	H	-0.653827	0.390179	-0.346434
H69	H	-0.736436	0.289813	-0.347912
H70	H	-0.737735	0.390001	-0.430688
H71	H	-0.781809	0.405921	-0.218976
H72	H	-0.783050	0.506015	-0.301858
H73	H	-0.650384	0.244880	-0.126325
H74	H	-1.237734	0.591050	0.047205
H75	H	-1.294595	-0.000102	0.490540
H76	H	-0.953819	0.258040	-0.235537
O77	O	-0.472231	0.258463	-0.122969
C78	C	-0.327343	0.335594	-0.120162
C79	C	-0.379146	0.239881	-0.121123
H80	H	-0.252078	0.320604	-0.118650
H81	H	-0.337582	0.378527	-0.183568
H82	H	-0.354040	0.378519	-0.057485
H83	H	-0.352483	0.196879	-0.183758
H84	H	-0.368908	0.197021	-0.057676
H85	H	-1.209795	-0.000095	0.620952
H86	H	-0.650486	-0.245012	-0.126358
H87	H	-0.892552	0.591137	-0.296646
H88	H	-1.237718	0.408724	0.047226
O89	O	-1.185987	0.749707	-0.004215
C90	C	-1.239006	0.780569	0.152341
C91	C	-1.171562	0.725229	0.085168
H92	H	-1.227380	0.760784	0.224622
H93	H	-1.228444	0.861031	0.141866
H94	H	-1.311176	0.760809	0.140255
H95	H	-1.099366	0.744908	0.097213
H96	H	-1.182204	0.644781	0.095660
O97	O	-0.944356	0.749725	-0.245290
C98	C	-0.891405	0.780412	-0.401893
C99	C	-0.958828	0.725127	-0.334639
H100	H	-0.903069	0.760530	-0.474146
H101	H	-0.901952	0.860883	-0.391490
H102	H	-0.819229	0.760701	-0.389824
H103	H	-1.031031	0.744758	-0.346667
H104	H	-0.948202	0.644670	-0.345058
O105	O	-0.331540	-0.171709	-0.120156
C106	C	-0.312871	-0.320458	-0.041544
C107	C	-0.364531	-0.224686	-0.042558
H108	H	-0.339510	-0.363308	0.021198
H109	H	-0.323222	-0.363447	-0.104896
H110	H	-0.237579	-0.305484	-0.040157
H111	H	-0.439838	-0.239573	-0.043913
H112	H	-0.354103	-0.181726	0.020791
H113	H	-1.297859	-0.000089	0.319938
O114	O	-0.331277	0.171484	-0.120412
C115	C	-0.214925	0.272477	-0.196392
C116	C	-0.266684	0.176735	-0.197326
H117	H	-0.162677	0.276745	-0.258561
H118	H	-0.264621	0.334722	-0.197396
H119	H	-0.179117	0.276816	-0.132481
H120	H	-0.302494	0.172302	-0.261227
H121	H	-0.216945	0.114535	-0.196275
H122	H	-0.479881	-0.244999	-0.123115
O123	O	-1.186070	0.250230	-0.004226
C124	C	-1.307675	0.260805	0.117021
C125	C	-1.240195	0.316052	0.049794
H126	H	-1.351440	0.313998	0.160726
H127	H	-1.352737	0.213749	0.077983
H128	H	-1.268755	0.213758	0.162168
H129	H	-1.279042	0.363152	0.004630
H130	H	-1.195134	0.363048	0.088888
H131	H	-1.218414	-0.000079	0.168233
H132	H	-0.920445	-0.000049	0.129614
H133	H	-0.832410	-0.000049	0.430639
H134	H	-0.835652	-0.000053	0.260015
H135	H	-0.791448	0.157857	-0.129012
