data_functionalizedCrystal
_audit_creation_method	'MofGen! by Chris Wilmer'
_symmetry_space_group_name_H-M	'P1'
_symmetry_Int_Tables_number	1
_symmetry_cell_setting	triclinic
loop_
_symmetry_equiv_pos_as_xyz
  x,y,z
_cell_length_a	15.537862
_cell_length_b	14.750392
_cell_length_c	16.992695
_cell_angle_alpha	76.637501
_cell_angle_beta	68.966328
_cell_angle_gamma	72.472422
loop_
_atom_site_label
_atom_site_type_symbol
_atom_site_fract_x
_atom_site_fract_y
_atom_site_fract_z
O1	O	1.212229	0.079774	-0.259187
O2	O	0.944627	0.079788	-0.170534
O3	O	1.077357	0.079773	-0.328697
O4	O	1.079499	0.079788	-0.101024
O5	O	1.115314	-0.079885	-0.309117
O6	O	0.982584	-0.079871	-0.150954
O7	O	1.250186	-0.079885	-0.239607
Zn8	Zn	1.122411	-0.105227	-0.192172
Zn9	Zn	1.072401	0.105130	-0.217969
O10	O	1.117456	-0.079870	-0.081444
C11	C	0.929206	-0.000039	-0.151468
C12	C	0.826706	-0.000034	-0.123838
N13	N	1.156549	-0.248790	-0.174568
C14	C	0.676506	-0.000023	-0.011842
C15	C	0.772821	-0.000027	-0.037813
C16	C	0.784290	-0.000042	-0.183926
C17	C	0.687975	-0.000042	-0.157967
C18	C	0.634090	-0.000031	-0.071924
C19	C	0.645559	-0.000050	-0.218049
C20	C	0.549251	-0.000045	-0.192092
C21	C	0.495360	-0.000032	-0.106053
C22	C	0.537782	-0.000026	-0.045967
C23	C	0.699444	-0.000054	-0.304093
C24	C	0.657028	-0.000062	-0.364175
C25	C	0.560721	-0.000064	-0.338218
C26	C	0.506829	-0.000051	-0.252179
C27	C	0.518298	-0.000070	-0.398304
C28	C	0.421990	-0.000065	-0.372347
C29	C	0.410521	-0.000046	-0.226222
C30	C	0.942990	-0.600562	-0.284739
C31	C	0.966899	-0.701066	-0.272405
C32	C	1.085766	-0.701055	-0.211080
C33	C	1.061870	-0.600548	-0.223412
C34	C	0.990481	-0.550310	-0.260241
C35	C	1.109361	-0.550296	-0.198914
C36	C	1.085463	-0.449799	-0.211241
C37	C	1.014075	-0.399553	-0.248066
C38	C	0.966584	-0.449812	-0.272568
C39	C	1.180745	-0.600537	-0.162079
C40	C	1.228236	-0.550285	-0.137581
C41	C	1.204343	-0.449785	-0.149914
C42	C	1.132955	-0.399540	-0.186739
C43	C	1.251835	-0.399526	-0.125412
C44	C	1.227938	-0.299029	-0.137739
C45	C	1.109058	-0.299042	-0.199066
C46	C	1.265606	-0.000055	-0.258673
C47	C	1.368105	-0.000054	-0.286304
C48	C	1.093575	-0.000056	-0.347334
C49	C	1.085340	-0.000055	-0.432034
N50	N	1.038271	0.248693	-0.235581
C51	C	1.164798	-0.000060	-0.504892
C52	C	1.157053	-0.000051	-0.584475
C53	C	1.069850	-0.000043	-0.591198
C54	C	0.990385	-0.000035	-0.518333
C55	C	0.998130	-0.000037	-0.438752
C56	C	1.037750	-0.000028	-0.825661
C57	C	1.030012	-0.000028	-0.905250
C58	C	1.196681	-0.000042	-0.971388
C59	C	1.204419	-0.000051	-0.891802
C60	C	1.124953	-0.000038	-0.818944
N61	N	1.061932	-0.000036	-0.672544
N62	N	1.132871	-0.000038	-0.737600
C63	C	1.101237	-0.000039	-0.062807
C64	C	1.109471	-0.000033	0.021892
H65	H	0.366647	-0.000050	-0.156155
O66	O	0.485558	0.000024	0.037645
C67	C	0.484348	-0.000024	0.179854
C68	C	0.543597	-0.000061	0.085196
H69	H	0.531253	-0.000112	0.218328
H70	H	0.423107	0.066813	0.187508
H71	H	0.454829	-0.066821	0.203812
H72	H	0.573181	0.066691	0.061176
H73	H	0.604788	-0.066942	0.077597
H74	H	1.200199	-0.682368	-0.152043
H75	H	0.919381	-0.000022	-0.523813
H76	H	1.286359	-0.591203	-0.107592
O77	O	1.155216	-0.749756	-0.175403
C78	C	1.320021	-0.780547	-0.185803
C79	C	1.241451	-0.725320	-0.226284
H80	H	1.389765	-0.760827	-0.226932
H81	H	1.299580	-0.760761	-0.119365
H82	H	1.328895	-0.861003	-0.181172
H83	H	1.232538	-0.644852	-0.230975
H84	H	1.261927	-0.745186	-0.292697
O85	O	0.897297	-0.400853	-0.308378
C86	C	0.807782	-0.246031	-0.354520
C87	C	0.886273	-0.301357	-0.313971
H88	H	0.798830	-0.165578	-0.359039
H89	H	0.828301	-0.265727	-0.421003
H90	H	0.738054	-0.265838	-0.313479
H91	H	0.956030	-0.281579	-0.354945
H92	H	0.865674	-0.281655	-0.247479
O93	O	0.709444	0.000054	-0.447745
C94	C	0.805124	0.082777	-0.572018
C95	C	0.745810	0.082758	-0.477372
H96	H	0.834526	0.149647	-0.596005
H97	H	0.866438	0.016004	-0.579657
H98	H	0.758258	0.082722	-0.610479
H99	H	0.792598	0.082847	-0.438852
H100	H	0.684489	0.149526	-0.469799
O101	O	0.624281	0.000027	0.071771
C102	C	0.623072	-0.000020	0.213980
C103	C	0.682321	-0.000057	0.119321
H104	H	0.669977	-0.000108	0.252454
H105	H	0.561831	0.066817	0.221633
H106	H	0.593553	-0.066817	0.237937
H107	H	0.711905	0.066695	0.095301
H108	H	0.743512	-0.066938	0.111722
H109	H	0.562183	-0.000069	-0.468361
H110	H	0.994615	-0.317722	-0.258097
H111	H	0.928218	-0.741978	-0.292354
H112	H	0.807354	-0.000032	0.011121
H113	H	1.235810	-0.000073	-0.499427
H114	H	0.884862	-0.559655	-0.314733
O115	O	0.380939	-0.000115	-0.430813
C116	C	0.402455	-0.000070	-0.578495
C117	C	0.449071	-0.000043	-0.512366
H118	H	0.457513	0.000009	-0.644448
H119	H	0.373567	-0.066898	-0.561858
H120	H	0.341745	0.066735	-0.578135
H121	H	0.509816	-0.066803	-0.512691
H122	H	0.477892	0.066830	-0.529027
O123	O	1.321181	-0.448482	-0.089679
C124	C	1.410627	-0.603300	-0.043448
C125	C	1.332091	-0.547980	-0.083944
H126	H	1.419460	-0.683754	-0.038781
H127	H	1.480414	-0.583623	-0.084505
H128	H	1.390101	-0.583469	0.022986
H129	H	1.352527	-0.567781	-0.150372
H130	H	1.262326	-0.567662	-0.042825
H131	H	1.050930	-0.258135	-0.229061
H132	H	1.266606	-0.258112	-0.117786
H133	H	1.221757	-0.000057	-0.643796
O134	O	0.945237	0.000158	-0.911762
C135	C	0.780749	0.082871	-0.889697
C136	C	0.876696	0.082791	-0.882290
H137	H	0.725303	0.149662	-0.865858
H138	H	0.788804	0.082929	-0.959088
H139	H	0.757095	0.016031	-0.849572
H140	H	0.900405	0.149619	-0.922368
H141	H	0.868587	0.082683	-0.812878
H142	H	0.416939	-0.000024	-0.084921
H143	H	1.275429	-0.000058	-0.886337
H144	H	0.828175	-0.000047	-0.253983
H145	H	1.261377	-0.000051	-1.030716
H146	H	0.973043	-0.000017	-0.766348
H147	H	0.777860	-0.000040	-0.325226
H148	H	0.933426	-0.000033	-0.379428
