data_functionalizedCrystal
_audit_creation_method	'MofGen! by Chris Wilmer'
_symmetry_space_group_name_H-M	'P1'
_symmetry_Int_Tables_number	1
_symmetry_cell_setting	triclinic
loop_
_symmetry_equiv_pos_as_xyz
  x,y,z
_cell_length_a	16.625547
_cell_length_b	16.625546
_cell_length_c	10.686551
_cell_angle_alpha	94.409858
_cell_angle_beta	94.401304
_cell_angle_gamma	90.022405
loop_
_atom_site_label
_atom_site_type_symbol
_atom_site_fract_x
_atom_site_fract_y
_atom_site_fract_z
Zn1	Zn	1.267698	-0.285960	0.713627
Zn2	Zn	1.767698	0.214040	1.213627
Zn3	Zn	1.257247	-0.431165	0.502605
Zn4	Zn	1.757247	0.068835	1.002605
Zn5	Zn	1.122506	-0.296349	0.502618
Zn6	Zn	1.622506	0.203651	1.002618
Zn7	Zn	1.132826	-0.420758	0.713537
Zn8	Zn	1.632826	0.079242	1.213537
O9	O	1.195069	-0.358558	0.608097
O10	O	1.695069	0.141442	1.108097
O11	O	1.379146	-0.305229	0.685667
O12	O	1.879146	0.194771	1.185667
O13	O	1.230680	-0.421984	0.326023
O14	O	1.730680	0.078016	0.826023
O15	O	1.141821	-0.182136	0.530652
O16	O	1.641821	0.317864	1.030652
O17	O	1.371467	-0.411910	0.530630
O18	O	1.871467	0.088090	1.030630
O19	O	1.248493	-0.174503	0.685680
O20	O	1.748493	0.325497	1.185680
O21	O	1.131686	-0.322936	0.326032
O22	O	1.631686	0.177064	0.826032
O23	O	1.011041	-0.312845	0.530564
O24	O	1.511041	0.187155	1.030564
O25	O	1.159410	-0.394174	0.890133
O26	O	1.659410	0.105826	1.390133
O27	O	1.018623	-0.404248	0.685525
O28	O	1.518623	0.095752	1.185525
O29	O	1.258501	-0.295138	0.890199
O30	O	1.758501	0.204862	1.390199
O31	O	1.240687	-0.542619	0.530542
O32	O	1.740687	-0.042619	1.030542
O33	O	1.149276	-0.534973	0.685513
O34	O	1.649276	-0.034973	1.185513
C35	C	0.985576	-0.358545	0.608037
C36	C	1.485576	0.141455	1.108037
C37	C	0.895955	-0.358558	0.608042
C38	C	1.395955	0.141442	1.108042
C39	C	0.823173	-0.358558	0.608057
C40	C	1.323173	0.141442	1.108057
C41	C	0.731866	-0.358561	0.608089
C42	C	1.231866	0.141439	1.108089
C43	C	0.659091	-0.358567	0.608121
C44	C	1.159091	0.141433	1.108121
C45	C	0.567778	-0.358571	0.608151
C46	C	1.067778	0.141429	1.108151
C47	C	1.194990	-0.568051	0.608044
C48	C	1.694990	-0.068051	1.108044
C49	C	1.195033	-0.657672	0.608064
C50	C	1.695033	-0.157672	1.108064
C51	C	1.195180	-0.985841	0.608195
C52	C	1.695180	-0.485841	1.108195
C53	C	1.195136	-0.894534	0.608162
C54	C	1.695136	-0.394534	1.108162
C55	C	1.195105	-0.821759	0.608129
C56	C	1.695105	-0.321759	1.108129
C57	C	1.195063	-0.730446	0.608097
C58	C	1.695063	-0.230446	1.108097
C59	C	1.405381	-0.358571	0.608157
C60	C	1.905381	0.141429	1.108157
C61	C	1.495004	-0.358577	0.608183
C62	C	1.995004	0.141423	1.108183
C63	C	1.211273	-0.342336	0.937232
C64	C	1.711273	0.157664	1.437232
C65	C	1.218177	-0.335423	1.077490
C66	C	1.718177	0.164577	1.577490
C67	C	1.195172	-0.148245	0.608177
C68	C	1.695172	0.351755	1.108177
C69	C	1.195216	-0.058622	0.608212
C70	C	1.695216	0.441378	1.108212
C71	C	1.178976	-0.374659	0.280242
C72	C	1.678976	0.125341	0.780242
C73	C	1.172227	-0.381344	0.139984
C74	C	1.672227	0.118656	0.639984
H75	H	1.262806	-0.290820	1.131294
H76	H	1.762806	0.209180	1.631294
H77	H	1.127607	-0.425950	1.086187
H78	H	1.627607	0.074050	1.586187
