data_functionalizedCrystal
_audit_creation_method	'MofGen! by Chris Wilmer'
_symmetry_space_group_name_H-M	'P1'
_symmetry_Int_Tables_number	1
_symmetry_cell_setting	triclinic
loop_
_symmetry_equiv_pos_as_xyz
  x,y,z
_cell_length_a	13.033286
_cell_length_b	16.120484
_cell_length_c	13.032268
_cell_angle_alpha	99.642751
_cell_angle_beta	105.163409
_cell_angle_gamma	85.378105
loop_
_atom_site_label
_atom_site_type_symbol
_atom_site_fract_x
_atom_site_fract_y
_atom_site_fract_z
Zn1	Zn	1.508909	-0.528411	-0.432341
Zn2	Zn	2.008909	-0.028411	0.067659
Zn3	Zn	1.522336	-0.652121	-0.263744
Zn4	Zn	2.022336	-0.152121	0.236256
Zn5	Zn	1.356148	-0.497052	-0.275069
Zn6	Zn	1.856148	0.002948	0.224931
Zn7	Zn	1.322253	-0.652088	-0.463895
Zn8	Zn	1.822253	-0.152088	0.036105
O9	O	1.427412	-0.582418	-0.358762
O10	O	1.927412	-0.082418	0.141238
O11	O	1.658357	-0.557959	-0.392031
O12	O	2.158357	-0.057959	0.107969
O13	O	1.520095	-0.618441	-0.115663
O14	O	2.020095	-0.118441	0.384337
O15	O	1.384978	-0.384556	-0.287466
O16	O	1.884978	0.115444	0.212534
O17	O	1.668222	-0.648848	-0.268163
O18	O	2.168222	-0.148848	0.231837
O19	O	1.497211	-0.407595	-0.403013
O20	O	1.997211	0.092405	0.096987
O21	O	1.397997	-0.504512	-0.123984
O22	O	1.897997	-0.004512	0.376016
O23	O	1.203985	-0.504481	-0.318063
O24	O	1.703985	-0.004481	0.181937
O25	O	1.327209	-0.648793	-0.609292
O26	O	1.827209	-0.148793	-0.109292
O27	O	1.179083	-0.618385	-0.456792
O28	O	1.679083	-0.118385	0.043208
O29	O	1.464345	-0.557928	-0.586109
O30	O	1.964345	-0.057928	-0.086109
O31	O	1.487229	-0.768773	-0.298760
O32	O	1.987229	-0.268773	0.201240
O33	O	1.340229	-0.768749	-0.445810
O34	O	1.840229	-0.268749	0.054190
C35	C	1.153245	-0.558027	-0.392081
C36	C	1.653245	-0.058027	0.107919
C37	C	1.035951	-0.547615	-0.406362
C38	C	1.535951	-0.047615	0.093638
C39	C	0.988558	-0.587855	-0.351336
C40	C	1.488558	-0.087855	0.148664
C41	C	0.867328	-0.577094	-0.366094
C42	C	1.367328	-0.077094	0.133906
C43	C	1.411534	-0.799013	-0.374500
C44	C	1.911534	-0.299013	0.125500
C45	C	1.404833	-0.891685	-0.381257
C46	C	1.904833	-0.391685	0.118743
C47	C	1.392602	-1.061360	-0.393614
C48	C	1.892602	-0.561360	0.106386
C49	C	1.462408	-1.102654	-0.323905
C50	C	1.962408	-0.602654	0.176095
C51	C	1.455603	-1.197067	-0.330781
C52	C	1.955603	-0.697067	0.169219
C53	C	1.399406	-0.966939	-0.386740
C54	C	1.899406	-0.466939	0.113260
C55	C	1.702648	-0.606905	-0.325314
C56	C	2.202648	-0.106905	0.174686
C57	C	1.819938	-0.617340	-0.311060
C58	C	2.319938	-0.117340	0.188940
C59	C	1.390499	-0.606855	-0.637570
C60	C	1.890499	-0.106855	-0.137570
C61	C	1.374768	-0.617268	-0.756382
C62	C	1.874768	-0.117268	-0.256382
C63	C	1.443377	-0.364982	-0.342983
C64	C	1.943377	0.135018	0.157017
C65	C	1.450181	-0.272324	-0.336259
C66	C	1.950181	0.227676	0.163741
C67	C	1.435607	-0.576952	-0.797881
C68	C	1.935607	-0.076952	-0.297881
C69	C	1.419351	-0.587714	-0.920679
C70	C	1.919351	-0.087714	-0.420679
C71	C	1.464246	-0.558022	-0.081027
C72	C	1.964246	-0.058022	0.418973
C73	C	1.480198	-0.547393	0.037826
C74	C	1.980198	-0.047393	0.537826
H75	H	0.986776	-0.505200	-0.464403
H76	H	1.486776	-0.005200	0.035597
C77	C	1.550044	-1.054624	-0.236298
C78	C	2.050044	-0.554624	0.263702
N79	N	1.616045	-1.018443	-0.170311
N80	N	2.116045	-0.518443	0.329689
C81	C	1.304957	-1.109387	-0.481198
C82	C	1.804957	-0.609387	0.018802
N83	N	1.238938	-1.145570	-0.547162
N84	N	1.738938	-0.645570	-0.047162
C85	C	1.332715	-0.645107	-0.995489
C86	C	1.832715	-0.145107	-0.495489
N87	N	1.267462	-0.688335	-1.051837
N88	N	1.767462	-0.188335	-0.551837
C89	C	1.054987	-0.645158	-0.272924
C90	C	1.554987	-0.145158	0.227076
N91	N	1.105020	-0.688317	-0.213859
N92	N	1.605020	-0.188317	0.286141
C93	C	0.800905	-0.519780	-0.444500
C94	C	1.300905	-0.019780	0.055500
N95	N	0.750874	-0.476609	-0.503550
N96	N	1.250874	0.023391	-0.003550
H97	H	0.869106	-0.659769	-0.253027
H98	H	1.369106	-0.159769	0.246973
H99	H	1.499725	-0.534466	-0.742500
H100	H	1.999725	-0.034466	-0.242500
H101	H	1.544319	-0.504901	-0.906798
H102	H	2.044319	-0.004901	-0.406798
C103	C	1.288137	-0.674658	-0.831195
C104	C	1.788137	-0.174658	-0.331195
N105	N	1.222884	-0.717886	-0.887544
N106	N	1.722884	-0.217886	-0.387544
