data_functionalizedCrystal
_audit_creation_method	'MofGen! by Chris Wilmer'
_symmetry_space_group_name_H-M	'P1'
_symmetry_Int_Tables_number	1
_symmetry_cell_setting	triclinic
loop_
_symmetry_equiv_pos_as_xyz
  x,y,z
_cell_length_a	11.026607
_cell_length_b	15.944551
_cell_length_c	10.065875
_cell_angle_alpha	98.788968
_cell_angle_beta	79.302338
_cell_angle_gamma	96.042377
loop_
_atom_site_label
_atom_site_type_symbol
_atom_site_fract_x
_atom_site_fract_y
_atom_site_fract_z
O1	O	1.627949	0.342077	-0.113512
O2	O	1.274640	0.302024	-0.113511
O3	O	1.460941	0.201235	-0.113499
O4	O	1.441648	0.442866	-0.113524
O5	O	1.425416	0.220553	0.113487
O6	O	1.239115	0.321342	0.113475
O7	O	1.592424	0.361394	0.113475
Zn8	Zn	1.410129	0.344435	0.149514
Zn9	Zn	1.456935	0.318983	-0.149550
O10	O	1.406123	0.462183	0.113463
C11	C	1.211666	0.304294	-0.000018
C12	C	1.076950	0.282267	-0.000017
C13	C	1.003150	0.343086	-0.000024
C14	C	0.863914	0.320322	-0.000024
C15	C	1.442377	0.179479	-0.000006
C16	C	1.439975	0.085870	-0.000005
C17	C	1.318759	-0.147313	-0.000024
C18	C	1.357533	-0.190296	0.111894
C19	C	1.435632	-0.085514	-0.000015
C20	C	1.392586	-0.209321	-0.111896
C21	C	1.431429	-0.251063	-0.000031
C22	C	1.474424	-0.127256	0.111995
C23	C	1.509476	-0.146286	-0.111896
C24	C	1.548331	-0.189236	0.000049
C25	C	1.438050	0.009855	-0.000005
C26	C	1.429019	-0.346429	-0.000032
C27	C	1.655399	0.359124	-0.000022
C28	C	1.790116	0.381150	-0.000031
C29	C	1.424687	0.483939	-0.000034
C30	C	1.427090	0.577548	-0.000043
N31	N	1.378194	0.361806	0.353617
N32	N	1.488879	0.301607	-0.353654
C33	C	1.445816	0.325021	0.421401
C34	C	1.421248	0.338398	0.578566
H35	H	0.830005	0.450078	-0.000029
H36	H	1.302107	0.403200	0.411939
O37	O	1.050623	0.425327	-0.000213
C38	C	1.029410	0.455523	-0.117794
H39	H	0.947695	0.416100	-0.156987
H40	H	1.007847	0.525092	-0.091362
H41	H	1.115531	0.449793	-0.200110
H42	H	1.521895	0.283620	0.363081
O43	O	1.579666	0.252160	0.577000
C44	C	1.637791	0.220574	0.670543
H45	H	1.572176	0.220804	0.772449
H46	H	1.662474	0.152741	0.629156
H47	H	1.725721	0.262634	0.685665
O48	O	1.281081	-0.213621	0.224870
C49	C	1.349290	-0.250749	0.302886
H50	H	1.451340	-0.227822	0.277880
H51	H	1.313652	-0.231425	0.416082
H52	H	1.338036	-0.323021	0.277784
O53	O	0.816142	0.238129	-0.000078
C54	C	0.687754	0.233699	-0.000043
H55	H	0.664886	0.291134	-0.043020
H56	H	0.659095	0.172780	-0.065939
H57	H	0.635465	0.233599	0.108855
O58	O	1.330546	0.387897	0.647975
C59	C	1.356044	0.471083	0.613176
H60	H	1.418973	0.469199	0.509383
H61	H	1.265705	0.498404	0.608448
H62	H	1.404071	0.512913	0.693554
O63	O	1.029345	0.200032	-0.000253
C64	C	0.975341	0.173679	-0.117793
H65	H	1.018228	0.215086	-0.199963
H66	H	0.992741	0.104323	-0.157249
H67	H	0.871388	0.180317	-0.091214
H68	H	1.221730	-0.128661	0.000088
H69	H	1.508991	-0.091738	0.206717
O70	O	1.664134	-0.211225	0.000360
C71	C	1.706802	-0.168795	0.118494
H72	H	1.624283	-0.150435	0.200595
H73	H	1.763306	-0.212696	0.157556
H74	H	1.767318	-0.108948	0.092861
H75	H	1.573676	-0.126742	-0.206519
O76	O	1.351093	-0.251716	-0.224735
C77	C	1.230022	-0.230574	-0.224288
H78	H	1.213951	-0.166479	-0.158767
H79	H	1.217968	-0.226524	-0.333128
H80	H	1.160247	-0.281622	-0.180608
