data_functionalizedCrystal
_audit_creation_method	'MofGen! by Chris Wilmer'
_symmetry_space_group_name_H-M	'P1'
_symmetry_Int_Tables_number	1
_symmetry_cell_setting	triclinic
loop_
_symmetry_equiv_pos_as_xyz
  x,y,z
_cell_length_a	21.395362
_cell_length_b	19.805405
_cell_length_c	21.395355
_cell_angle_alpha	89.980090
_cell_angle_beta	89.956060
_cell_angle_gamma	90.042288
loop_
_atom_site_label
_atom_site_type_symbol
_atom_site_fract_x
_atom_site_fract_y
_atom_site_fract_z
Zn1	Zn	0.957878	-0.269255	-0.354580
Zn2	Zn	0.957789	-0.382425	-0.249800
Zn3	Zn	0.853093	-0.269286	-0.249781
Zn4	Zn	0.853070	-0.382438	-0.354504
O5	O	0.905458	-0.325851	-0.302166
O6	O	1.045544	-0.284248	-0.340720
O7	O	0.943873	-0.367424	-0.162119
O8	O	0.867040	-0.174565	-0.263706
O9	O	1.045478	-0.367393	-0.263738
O10	O	0.944025	-0.174542	-0.340701
O11	O	0.866953	-0.284302	-0.162105
O12	O	0.765412	-0.284315	-0.263633
O13	O	0.867001	-0.367417	-0.442192
O14	O	0.765395	-0.367448	-0.340573
O15	O	0.944003	-0.284261	-0.442247
O16	O	0.943850	-0.477143	-0.263665
O17	O	0.866914	-0.477153	-0.340591
C18	C	0.742670	-0.325887	-0.302093
C19	C	0.673029	-0.325918	-0.302077
C20	C	0.905387	-0.501707	-0.302136
C21	C	0.905414	-0.576939	-0.302144
C22	C	0.640323	-0.369263	-0.342080
C23	C	0.574888	-0.369246	-0.342108
C24	C	0.542160	-0.325892	-0.302122
C25	C	0.574874	-0.282539	-0.262116
C26	C	0.640308	-0.282553	-0.262094
C27	C	0.438435	-0.320440	-0.245717
C28	C	0.373002	-0.320431	-0.245738
C29	C	0.340340	-0.325848	-0.302191
C30	C	0.373118	-0.331287	-0.358624
C31	C	0.438552	-0.331301	-0.358602
C32	C	0.471208	-0.325873	-0.302142
C33	C	0.236682	-0.369177	-0.342227
C34	C	0.171245	-0.369156	-0.342256
C35	C	0.171232	-0.282452	-0.262259
C36	C	0.236668	-0.282470	-0.262236
C37	C	0.269388	-0.325836	-0.302219
C38	C	0.945514	-0.612255	-0.262130
C39	C	0.945540	-0.682944	-0.262144
C40	C	0.905464	-0.718315	-0.302169
C41	C	0.865362	-0.682993	-0.342187
C42	C	0.865339	-0.612306	-0.342175
C43	C	0.865455	-0.968067	-0.342233
C44	C	0.865480	-1.038759	-0.342240
C45	C	0.945656	-1.038704	-0.262202
C46	C	0.945633	-0.968017	-0.262191
C47	C	0.905534	-0.932702	-0.302210
C48	C	0.905507	-0.856053	-0.302196
C49	C	0.905488	-0.794962	-0.302181
C50	C	1.068881	-0.325816	-0.302239
C51	C	1.138522	-0.325800	-0.302271
C52	C	0.905510	-0.325837	-0.465589
C53	C	0.905532	-0.325831	-0.535231
C54	C	0.905545	-0.149308	-0.302210
C55	C	0.905583	-0.074076	-0.302229
C56	C	0.945625	-0.282530	-0.567974
C57	C	0.945624	-0.282501	-0.633409
C58	C	0.905537	-0.325785	-0.666099
C59	C	0.865436	-0.369089	-0.633348
C60	C	0.865433	-0.369112	-0.567914
C61	C	0.900565	-0.386731	-0.769762
C62	C	0.900572	-0.386709	-0.835195
C63	C	0.905540	-0.325714	-0.867920
C64	C	0.910516	-0.264738	-0.835204
C65	C	0.910513	-0.264762	-0.769770
C66	C	0.905534	-0.325765	-0.737051
C67	C	0.945635	-0.282378	-0.971615
C68	C	0.945630	-0.282347	-1.037052
C69	C	0.865444	-0.368941	-1.036990
C70	C	0.865446	-0.368966	-0.971555
C71	C	0.905545	-0.325685	-0.938871
C72	C	0.905442	-0.325816	-0.139378
C73	C	0.905541	-0.325631	-0.069738
H74	H	0.666960	-0.404574	-0.374638
H75	H	0.914563	-0.215070	-0.861848
H76	H	0.832734	-0.711798	-0.374778
C77	C	0.989719	-0.929113	-0.218166
H78	H	1.013610	-0.960271	-0.194341
H79	H	0.965758	-0.901579	-0.190832
H80	H	1.016999	-0.901495	-0.242171
H81	H	0.896351	-0.436388	-0.743122
H82	H	0.144586	-0.247150	-0.229705
C83	C	0.989633	-0.721792	-0.218114
H84	H	0.983909	-0.768957	-0.223853
H85	H	0.980465	-0.710235	-0.176009
H86	H	1.031729	-0.710159	-0.227323
H87	H	0.978146	-0.583461	-0.229535
H88	H	0.832845	-1.067556	-0.374837
H89	H	0.978308	-1.067466	-0.229618
C90	C	0.821353	-0.416557	-1.072941
H91	H	0.827099	-0.410347	-1.116601
H92	H	0.779259	-0.406671	-1.062188
H93	H	0.830509	-0.462037	-1.062222
H94	H	0.832804	-0.939318	-0.374817
H95	H	0.263297	-0.247178	-0.229658
H96	H	0.832687	-0.583552	-0.374759
H97	H	0.978276	-0.247287	-0.541367
H98	H	0.978271	-0.247237	-0.660074
H99	H	0.978277	-0.247083	-1.063710
H100	H	0.832794	-0.404329	-0.659969
C101	C	0.538901	-0.416928	-0.386108
H102	H	0.495245	-0.410706	-0.380397
H103	H	0.549575	-0.462392	-0.376856
H104	H	0.549677	-0.407092	-0.428223
C105	C	0.821348	-0.416602	-0.935536
H106	H	0.797475	-0.442381	-0.964374
H107	H	0.794061	-0.390726	-0.909990
H108	H	0.845304	-0.446100	-0.910028
H109	H	0.832782	-0.404372	-0.541255
H110	H	0.346319	-0.316007	-0.199786
H111	H	0.144617	-0.404451	-0.374835
H112	H	0.914562	-0.215113	-0.743136
C113	C	0.474361	-0.314481	-0.183616
H114	H	0.518025	-0.315261	-0.191685
H115	H	0.463577	-0.351257	-0.157202
H116	H	0.463650	-0.273237	-0.163655
C117	C	0.989730	-0.234760	-0.935661
H118	H	1.013601	-0.208958	-0.964536
H119	H	1.017019	-0.260650	-0.910154
H120	H	0.965767	-0.205284	-0.910120
H121	H	0.666936	-0.247254	-0.229519
C122	C	0.474606	-0.337273	-0.420674
H123	H	0.445786	-0.340493	-0.454301
H124	H	0.500100	-0.376509	-0.419787
H125	H	0.500168	-0.298489	-0.426232
C126	C	0.337198	-0.337244	-0.420726
H127	H	0.293534	-0.336449	-0.412660
H128	H	0.347906	-0.378483	-0.440689
H129	H	0.347986	-0.300463	-0.447138
C130	C	0.272677	-0.416869	-0.386212
H131	H	0.243824	-0.442675	-0.410048
H132	H	0.298150	-0.446329	-0.362188
H133	H	0.298256	-0.391021	-0.413547
C134	C	0.895107	-0.453777	-0.871179
H135	H	0.895830	-0.445029	-0.914835
H136	H	0.856953	-0.475433	-0.860431
H137	H	0.929180	-0.482242	-0.860475
H138	H	0.548223	-0.247239	-0.229561
