data_functionalizedCrystal
_audit_creation_method	'MofGen! by Chris Wilmer'
_symmetry_space_group_name_H-M	'P1'
_symmetry_Int_Tables_number	1
_symmetry_cell_setting	triclinic
loop_
_symmetry_equiv_pos_as_xyz
  x,y,z
_cell_length_a	25.639242
_cell_length_b	25.639239
_cell_length_c	25.639233
_cell_angle_alpha	89.981253
_cell_angle_beta	90.014348
_cell_angle_gamma	89.969010
loop_
_atom_site_label
_atom_site_type_symbol
_atom_site_fract_x
_atom_site_fract_y
_atom_site_fract_z
Zn1	Zn	0.799225	0.208322	0.295633
Zn2	Zn	1.049225	0.458322	0.545633
Zn3	Zn	1.299225	0.708322	0.795633
Zn4	Zn	1.549225	0.958322	1.045633
Zn5	Zn	0.799148	0.295741	0.208198
Zn6	Zn	1.049148	0.545741	0.458198
Zn7	Zn	1.299148	0.795741	0.708198
Zn8	Zn	1.549148	1.045741	0.958198
Zn9	Zn	0.711801	0.208309	0.208209
Zn10	Zn	0.961801	0.458309	0.458209
Zn11	Zn	1.211801	0.708309	0.708209
Zn12	Zn	1.461801	0.958309	0.958209
Zn13	Zn	0.711746	0.295716	0.295599
Zn14	Zn	0.961746	0.545716	0.545599
Zn15	Zn	1.211746	0.795716	0.795599
Zn16	Zn	1.461746	1.045716	1.045599
O17	O	0.755480	0.252022	0.251910
O18	O	1.005480	0.502022	0.501910
O19	O	1.255480	0.752022	0.751910
O20	O	1.505480	1.002022	1.001910
O21	O	0.872380	0.219933	0.284044
O22	O	1.122380	0.469933	0.534044
O23	O	1.372380	0.719933	0.784044
O24	O	1.622380	0.969933	1.034044
O25	O	0.787553	0.284148	0.135034
O26	O	1.037553	0.534148	0.385034
O27	O	1.287553	0.784148	0.635034
O28	O	1.537553	1.034148	0.885034
O29	O	0.723453	0.135146	0.219825
O30	O	0.973453	0.385146	0.469825
O31	O	1.223453	0.635146	0.719825
O32	O	1.473453	0.885146	0.969825
O33	O	0.872324	0.284160	0.219805
O34	O	1.122324	0.534160	0.469805
O35	O	1.372324	0.784160	0.719805
O36	O	1.622324	1.034160	0.969805
O37	O	0.787683	0.135155	0.284055
O38	O	1.037683	0.385155	0.534055
O39	O	1.287683	0.635155	0.784055
O40	O	1.537683	0.885155	1.034055
O41	O	0.723379	0.219912	0.135042
O42	O	0.973379	0.469912	0.385042
O43	O	1.223379	0.719912	0.635042
O44	O	1.473379	0.969912	0.885042
O45	O	0.638629	0.219889	0.219792
O46	O	0.888629	0.469889	0.469792
O47	O	1.138629	0.719889	0.719792
O48	O	1.388629	0.969889	0.969792
O49	O	0.723360	0.284118	0.368769
O50	O	0.973360	0.534118	0.618769
O51	O	1.223360	0.784118	0.868769
O52	O	1.473360	1.034118	1.118769
O53	O	0.638589	0.284106	0.283998
O54	O	0.888589	0.534106	0.533998
O55	O	1.138589	0.784106	0.783998
O56	O	1.388589	1.034106	1.033998
O57	O	0.787630	0.219910	0.368794
O58	O	1.037630	0.469910	0.618794
O59	O	1.287630	0.719910	0.868794
O60	O	1.537630	0.969910	1.118794
O61	O	0.787499	0.368903	0.219773
O62	O	1.037499	0.618903	0.469773
O63	O	1.287499	0.868903	0.719773
O64	O	1.537499	1.118903	0.969773
O65	O	0.723285	0.368885	0.283986
O66	O	0.973285	0.618885	0.533986
O67	O	1.223285	0.868885	0.783986
O68	O	1.473285	1.118885	1.033986
C69	C	0.619638	0.251994	0.251893
C70	C	0.869638	0.501994	0.501893
C71	C	1.119638	0.751994	0.751893
C72	C	1.369638	1.001994	1.001893
C73	C	0.561524	0.251994	0.251898
C74	C	0.811524	0.501994	0.501898
C75	C	1.061524	0.751994	0.751898
C76	C	1.311524	1.001994	1.001898
C77	C	0.310368	0.218639	0.285420
C78	C	0.560368	0.468639	0.535420
C79	C	0.810368	0.718639	0.785420
C80	C	1.060368	0.968639	1.035420
C81	C	0.364972	0.218634	0.285417
C82	C	0.614972	0.468634	0.535417
C83	C	0.864972	0.718634	0.785417
C84	C	1.114972	0.968634	1.035417
O85	O	0.393240	0.190251	0.313915
O86	O	0.643240	0.440251	0.563915
O87	O	0.893240	0.690251	0.813915
O88	O	1.143240	0.940251	1.063915
N89	N	0.392250	0.252016	0.251916
N90	N	0.642250	0.502016	0.501916
N91	N	0.892250	0.752016	0.751916
N92	N	1.142250	1.002016	1.001916
C93	C	0.364921	0.285409	0.218419
C94	C	0.614921	0.535409	0.468419
C95	C	0.864921	0.785409	0.718419
C96	C	1.114921	1.035409	0.968419
O97	O	0.393137	0.313803	0.189924
O98	O	0.643137	0.563803	0.439924
O99	O	0.893137	0.813803	0.689924
O100	O	1.143137	1.063803	0.939924
C101	C	0.310317	0.285417	0.218425
C102	C	0.560317	0.535417	0.468425
C103	C	0.810317	0.785417	0.718425
C104	C	1.060317	1.035417	0.968425
C105	C	0.283042	0.252028	0.251925
C106	C	0.533042	0.502028	0.501925
C107	C	0.783042	0.752028	0.751925
C108	C	1.033042	1.002028	1.001925
C109	C	0.283092	0.185254	0.318917
C110	C	0.533092	0.435254	0.568917
C111	C	0.783092	0.685254	0.818917
C112	C	1.033092	0.935254	1.068917
C113	C	0.228492	0.185258	0.318919
C114	C	0.478492	0.435258	0.568919
C115	C	0.728492	0.685258	0.818919
C116	C	0.978492	0.935258	1.068919
C117	C	0.201166	0.218648	0.285424
C118	C	0.451166	0.468648	0.535424
C119	C	0.701166	0.718648	0.785424
C120	C	0.951166	0.968648	1.035424
C121	C	0.228442	0.252033	0.251927
C122	C	0.478442	0.502033	0.501927
C123	C	0.728442	0.752033	0.751927
C124	C	0.978442	1.002033	1.001927
C125	C	0.282989	0.318812	0.184932
C126	C	0.532989	0.568812	0.434932
C127	C	0.782989	0.818812	0.684932
C128	C	1.032989	1.068812	0.934932
C129	C	0.228382	0.318817	0.184941
C130	C	0.478382	0.568817	0.434941
C131	C	0.728382	0.818817	0.684941
C132	C	0.978382	1.068817	0.934941
C133	C	0.201107	0.285429	0.218440
C134	C	0.451107	0.535429	0.468440
C135	C	0.701107	0.785429	0.718440
C136	C	0.951107	1.035429	0.968440
C137	C	0.146516	0.285427	0.218434
C138	C	0.396516	0.535427	0.468434
C139	C	0.646516	0.785427	0.718434
C140	C	0.896516	1.035427	0.968434
N141	N	0.119238	0.252045	0.251935
N142	N	0.369238	0.502045	0.501935
N143	N	0.619238	0.752045	0.751935
N144	N	0.869238	1.002045	1.001935
C145	C	0.146563	0.218655	0.285430
C146	C	0.396563	0.468655	0.535430
C147	C	0.646563	0.718655	0.785430
C148	C	0.896563	0.968655	1.035430
C149	C	0.479591	0.285392	0.218410
C150	C	0.729591	0.535392	0.468410
C151	C	0.979591	0.785392	0.718410
C152	C	1.229591	1.035392	0.968410
C153	C	0.534194	0.285382	0.218401
C154	C	0.784194	0.535382	0.468401
C155	C	1.034194	0.785382	0.718401
C156	C	1.284194	1.035382	0.968401
C157	C	0.534241	0.218607	0.285399
C158	C	0.784241	0.468607	0.535399
C159	C	1.034241	0.718607	0.785399
C160	C	1.284241	0.968607	1.035399
C161	C	0.479638	0.218614	0.285405
C162	C	0.729638	0.468614	0.535405
C163	C	0.979638	0.718614	0.785405
C164	C	1.229638	0.968614	1.035405
C165	C	0.452313	0.252010	0.251911
C166	C	0.702313	0.502010	0.501911
C167	C	0.952313	0.752010	0.751911
C168	C	1.202313	1.002010	1.001911
C169	C	0.031898	0.218667	0.285432
C170	C	0.281898	0.468667	0.535432
C171	C	0.531898	0.718667	0.785432
C172	C	0.781898	0.968667	1.035432
C173	C	-0.022707	0.218673	0.285430
C174	C	0.227293	0.468673	0.535430
C175	C	0.477293	0.718673	0.785430
C176	C	0.727293	0.968673	1.035430
C177	C	-0.022750	0.285450	0.218433
C178	C	0.227250	0.535450	0.468433
C179	C	0.477250	0.785450	0.718433
C180	C	0.727250	1.035450	0.968433
C181	C	0.031851	0.285442	0.218433
C182	C	0.281851	0.535442	0.468433
C183	C	0.531851	0.785442	0.718433
C184	C	0.781851	1.035442	0.968433
C185	C	0.059173	0.252049	0.251937
C186	C	0.309173	0.502049	0.501937
C187	C	0.559173	0.752049	0.751937
C188	C	0.809173	1.002049	1.001937
O189	O	0.118213	0.313797	0.189952
O190	O	0.368213	0.563797	0.439952
O191	O	0.618213	0.813797	0.689952
O192	O	0.868213	1.063797	0.939952
O193	O	0.118341	0.190271	0.313925
O194	O	0.368341	0.440271	0.563925
O195	O	0.618341	0.690271	0.813925
O196	O	0.868341	0.940271	1.063925
C197	C	0.755392	0.387865	0.251886
C198	C	1.005392	0.637865	0.501886
C199	C	1.255392	0.887865	0.751886
C200	C	1.505392	1.137865	1.001886
C201	C	0.755403	0.445979	0.251893
C202	C	1.005403	0.695979	0.501893
C203	C	1.255403	0.945979	0.751893
C204	C	1.505403	1.195979	1.001893
C205	C	0.755497	0.252013	0.388283
C206	C	1.005497	0.502013	0.638283
C207	C	1.255497	0.752013	0.888283
C208	C	1.505497	1.002013	1.138283
C209	C	0.755504	0.252009	0.446397
C210	C	1.005504	0.502009	0.696397
C211	C	1.255504	0.752009	0.946397
C212	C	1.505504	1.002009	1.196397
C213	C	0.891853	0.252051	0.251927
C214	C	1.141853	0.502051	0.501927
C215	C	1.391853	0.752051	0.751927
C216	C	1.641853	1.002051	1.001927
C217	C	0.949967	0.252063	0.251934
C218	C	1.199967	0.502063	0.501934
C219	C	1.449967	0.752063	0.751934
C220	C	1.699967	1.002063	1.001934
C221	C	0.755583	0.115649	0.251945
C222	C	1.005583	0.365649	0.501945
C223	C	1.255583	0.615649	0.751945
C224	C	1.505583	0.865649	1.001945
C225	C	0.755626	0.057535	0.251960
C226	C	1.005626	0.307535	0.501960
C227	C	1.255626	0.557535	0.751960
C228	C	1.505626	0.807535	1.001960
C229	C	0.789004	0.806338	0.218531
C230	C	1.039004	1.056338	0.468531
C231	C	1.289004	1.306338	0.718531
C232	C	1.539004	1.556338	0.968531
C233	C	0.789024	0.860943	0.218538
C234	C	1.039024	1.110943	0.468538
C235	C	1.289024	1.360943	0.718538
C236	C	1.539024	1.610943	0.968538
O237	O	0.817502	0.889177	0.190145
O238	O	1.067502	1.139177	0.440145
O239	O	1.317502	1.389177	0.690145
O240	O	1.567502	1.639177	0.940145
N241	N	0.755572	0.888261	0.251944
N242	N	1.005572	1.138261	0.501944
N243	N	1.255572	1.388261	0.751944
N244	N	1.505572	1.638261	1.001944
C245	C	0.722102	0.860972	0.285350
C246	C	0.972102	1.110972	0.535350
C247	C	1.222102	1.360972	0.785350
C248	C	1.472102	1.610972	1.035350
O249	O	0.693651	0.889223	0.313766
O250	O	0.943651	1.139223	0.563766
O251	O	1.193651	1.389223	0.813766
O252	O	1.443651	1.639223	1.063766
C253	C	0.722084	0.806369	0.285345
C254	C	0.972084	1.056369	0.535345
C255	C	1.222084	1.306369	0.785345
C256	C	1.472084	1.556369	1.035345
C257	C	0.755535	0.779053	0.251933
C258	C	1.005535	1.029053	0.501933
C259	C	1.255535	1.279053	0.751933
C260	C	1.505535	1.529053	1.001933
C261	C	0.822452	0.779023	0.185121
C262	C	1.072452	1.029023	0.435121
C263	C	1.322452	1.279023	0.685121
C264	C	1.572452	1.529023	0.935121
C265	C	0.822431	0.724422	0.185114
C266	C	1.072431	0.974422	0.435114
C267	C	1.322431	1.224422	0.685114
C268	C	1.572431	1.474422	0.935114
C269	C	0.788962	0.697137	0.218516
C270	C	1.038962	0.947137	0.468516
C271	C	1.288962	1.197137	0.718516
C272	C	1.538962	1.447137	0.968516
C273	C	0.755514	0.724453	0.251925
C274	C	1.005514	0.974453	0.501925
C275	C	1.255514	1.224453	0.751925
C276	C	1.505514	1.474453	1.001925
C277	C	0.688617	0.779081	0.318753
C278	C	0.938617	1.029081	0.568753
C279	C	1.188617	1.279081	0.818753
C280	C	1.438617	1.529081	1.068753
C281	C	0.688603	0.724474	0.318746
C282	C	0.938603	0.974474	0.568746
C283	C	1.188603	1.224474	0.818746
C284	C	1.438603	1.474474	1.068746
C285	C	0.722053	0.697159	0.285333
C286	C	0.972053	0.947159	0.535333
C287	C	1.222053	1.197159	0.785333
C288	C	1.472053	1.447159	1.035333
C289	C	0.722024	0.642567	0.285320
C290	C	0.972024	0.892567	0.535320
C291	C	1.222024	1.142567	0.785320
C292	C	1.472024	1.392567	1.035320
N293	N	0.755475	0.615249	0.251913
N294	N	1.005475	0.865249	0.501913
N295	N	1.255475	1.115249	0.751913
N296	N	1.505475	1.365249	1.001913
C297	C	0.788944	0.642534	0.218511
C298	C	1.038944	0.892534	0.468511
C299	C	1.288944	1.142534	0.718511
C300	C	1.538944	1.392534	0.968511
C301	C	0.722141	0.975643	0.285358
C302	C	0.972141	1.225643	0.535358
C303	C	1.222141	1.475643	0.785358
C304	C	1.472141	1.725643	1.035358
C305	C	0.722155	1.030245	0.285361
C306	C	0.972155	1.280245	0.535361
C307	C	1.222155	1.530245	0.785361
C308	C	1.472155	1.780245	1.035361
C309	C	0.789078	1.030212	0.218549
C310	C	1.039078	1.280212	0.468549
C311	C	1.289078	1.530212	0.718549
C312	C	1.539078	1.780212	0.968549
C313	C	0.789061	0.975608	0.218544
C314	C	1.039061	1.225608	0.468544
C315	C	1.289061	1.475608	0.718544
C316	C	1.539061	1.725608	0.968544
C317	C	0.755593	0.948324	0.251951
C318	C	1.005593	1.198324	0.501951
C319	C	1.255593	1.448324	0.751951
C320	C	1.505593	1.698324	1.001951
C321	C	0.788897	0.527869	0.218497
C322	C	1.038897	0.777869	0.468497
C323	C	1.288897	1.027869	0.718497
C324	C	1.538897	1.277869	0.968497
C325	C	0.788872	0.473264	0.218491
C326	C	1.038872	0.723264	0.468491
C327	C	1.288872	0.973264	0.718491
C328	C	1.538872	1.223264	0.968491
C329	C	0.721951	0.473302	0.285305
C330	C	0.971951	0.723302	0.535305
C331	C	1.221951	0.973302	0.785305
C332	C	1.471951	1.223302	1.035305
C333	C	0.721974	0.527902	0.285309
C334	C	0.971974	0.777902	0.535309
C335	C	1.221974	1.027902	0.785309
C336	C	1.471974	1.277902	1.035309
C337	C	0.755452	0.555185	0.251904
C338	C	1.005452	0.805185	0.501904
C339	C	1.255452	1.055185	0.751904
C340	C	1.505452	1.305185	1.001904
O341	O	0.693562	0.614299	0.313699
O342	O	0.943562	0.864299	0.563699
O343	O	1.193562	1.114299	0.813699
O344	O	1.443562	1.364299	1.063699
O345	O	0.817396	0.614277	0.190104
O346	O	1.067396	0.864277	0.440104
O347	O	1.317396	1.114277	0.690104
O348	O	1.567396	1.364277	0.940104
C349	C	0.755494	0.251993	0.116067
C350	C	1.005494	0.501993	0.366067
C351	C	1.255494	0.751993	0.616067
C352	C	1.505494	1.001993	0.866067
C353	C	0.755588	0.251850	0.057954
C354	C	1.005588	0.501850	0.307954
C355	C	1.255588	0.751850	0.557954
C356	C	1.505588	1.001850	0.807954
C357	C	0.789012	0.218476	0.806779
C358	C	1.039012	0.468476	1.056779
C359	C	1.289012	0.718476	1.306779
C360	C	1.539012	0.968476	1.556779
C361	C	0.789019	0.218462	0.861383
C362	C	1.039019	0.468462	1.111383
C363	C	1.289019	0.718462	1.361383
C364	C	1.539019	0.968462	1.611383
O365	O	0.817466	0.190013	0.889636
O366	O	1.067466	0.440013	1.139636
O367	O	1.317466	0.690013	1.389636
O368	O	1.567466	0.940013	1.639636
N369	N	0.755562	0.251886	0.888680
N370	N	1.005562	0.501886	1.138680
N371	N	1.255562	0.751886	1.388680
N372	N	1.505562	1.001886	1.638680
C373	C	0.722093	0.285324	0.861369
C374	C	0.972093	0.535324	1.111369
C375	C	1.222093	0.785324	1.361369
C376	C	1.472093	1.035324	1.611369
O377	O	0.693636	0.313752	0.889601
O378	O	0.943636	0.563752	1.139601
O379	O	1.193636	0.813752	1.389601
O380	O	1.443636	1.063752	1.639601
C381	C	0.722084	0.285335	0.806766
C382	C	0.972084	0.535335	1.056766
C383	C	1.222084	0.785335	1.306766
C384	C	1.472084	1.035335	1.556766
C385	C	0.755547	0.251912	0.779472
C386	C	1.005547	0.501912	1.029472
C387	C	1.255547	0.751912	1.279472
C388	C	1.505547	1.001912	1.529472
C389	C	0.822472	0.185056	0.779485
C390	C	1.072472	0.435056	1.029485
C391	C	1.322472	0.685056	1.279485
C392	C	1.572472	0.935056	1.529485
C393	C	0.822466	0.185071	0.724884
C394	C	1.072466	0.435071	0.974884
C395	C	1.322466	0.685071	1.224884
C396	C	1.572466	0.935071	1.474884
C397	C	0.789000	0.218507	0.697578
C398	C	1.039000	0.468507	0.947578
C399	C	1.289000	0.718507	1.197578
C400	C	1.539000	0.968507	1.447578
C401	C	0.755541	0.251927	0.724871
C402	C	1.005541	0.501927	0.974871
C403	C	1.255541	0.751927	1.224871
C404	C	1.505541	1.001927	1.474871
C405	C	0.688613	0.318770	0.779456
C406	C	0.938613	0.568770	1.029456
C407	C	1.188613	0.818770	1.279456
C408	C	1.438613	1.068770	1.529456
C409	C	0.688607	0.318778	0.724849
C410	C	0.938607	0.568778	0.974849
C411	C	1.188607	0.818778	1.224849
C412	C	1.438607	1.068778	1.474849
C413	C	0.722069	0.285355	0.697555
C414	C	0.972069	0.535355	0.947555
C415	C	1.222069	0.785355	1.197555
C416	C	1.472069	1.035355	1.447555
C417	C	0.722070	0.285379	0.642964
C418	C	0.972070	0.535379	0.892964
C419	C	1.222070	0.785379	1.142964
C420	C	1.472070	1.035379	1.392964
N421	N	0.755526	0.251954	0.615667
N422	N	1.005526	0.501954	0.865667
N423	N	1.255526	0.751954	1.115667
N424	N	1.505526	1.001954	1.365667
C425	C	0.788992	0.218518	0.642974
C426	C	1.038992	0.468518	0.892974
C427	C	1.288992	0.718518	1.142974
C428	C	1.538992	0.968518	1.392974
C429	C	0.722113	0.285297	0.976040
C430	C	0.972113	0.535297	1.226040
C431	C	1.222113	0.785297	1.476040
C432	C	1.472113	1.035297	1.726040
C433	C	0.722124	0.285288	1.030642
C434	C	0.972124	0.535288	1.280642
C435	C	1.222124	0.785288	1.530642
C436	C	1.472124	1.035288	1.780642
C437	C	0.789049	0.218425	1.030652
C438	C	1.039049	0.468425	1.280652
C439	C	1.289049	0.718425	1.530652
C440	C	1.539049	0.968425	1.780652
C441	C	0.789041	0.218437	0.976049
C442	C	1.039041	0.468437	1.226049
C443	C	1.289041	0.718437	1.476049
C444	C	1.539041	0.968437	1.726049
C445	C	0.755570	0.251872	0.948743
C446	C	1.005570	0.501872	1.198743
C447	C	1.255570	0.751872	1.448743
C448	C	1.505570	1.001872	1.698743
C449	C	0.788977	0.218553	0.528309
C450	C	1.038977	0.468553	0.778309
C451	C	1.288977	0.718553	1.028309
C452	C	1.538977	0.968553	1.278309
C453	C	0.788970	0.218573	0.473704
C454	C	1.038970	0.468573	0.723704
C455	C	1.288970	0.718573	0.973704
C456	C	1.538970	0.968573	1.223704
C457	C	0.722043	0.285434	0.473698
C458	C	0.972043	0.535434	0.723698
C459	C	1.222043	0.785434	0.973698
C460	C	1.472043	1.035434	1.223698
C461	C	0.722052	0.285416	0.528299
C462	C	0.972052	0.535416	0.778299
C463	C	1.222052	0.785416	1.028299
C464	C	1.472052	1.035416	1.278299
C465	C	0.755521	0.251971	0.555603
C466	C	1.005521	0.501971	0.805603
C467	C	1.255521	0.751971	1.055603
C468	C	1.505521	1.001971	1.305603
O469	O	0.693635	0.313812	0.614677
O470	O	0.943635	0.563812	0.864677
O471	O	1.193635	0.813812	1.114677
O472	O	1.443635	1.063812	1.364677
O473	O	0.817439	0.190090	0.614736
O474	O	1.067439	0.440090	0.864736
O475	O	1.317439	0.690090	1.114736
O476	O	1.567439	0.940090	1.364736
H477	H	0.556396	0.312565	0.191116
H478	H	0.806396	0.562565	0.441116
H479	H	1.056396	0.812565	0.691116
H480	H	1.306396	1.062565	0.941116
H481	H	0.816333	1.052437	0.191353
H482	H	1.066333	1.302437	0.441353
H483	H	1.316333	1.552437	0.691353
H484	H	1.566333	1.802437	0.941353
H485	H	0.206289	0.158072	0.346200
H486	H	0.456289	0.408072	0.596200
H487	H	0.706289	0.658072	0.846200
H488	H	0.956289	0.908072	1.096200
H489	H	0.849723	0.157825	0.801712
H490	H	1.099723	0.407825	1.051712
H491	H	1.349723	0.657825	1.301712
H492	H	1.599723	0.907825	1.551712
H493	H	0.305187	0.346001	0.157653
H494	H	0.555187	0.596001	0.407653
H495	H	0.805187	0.846001	0.657653
H496	H	1.055187	1.096001	0.907653
H497	H	0.694857	0.312526	0.953811
H498	H	0.944857	0.562526	1.203811
H499	H	1.194857	0.812526	1.453811
H500	H	1.444857	1.062526	1.703811
H501	H	-0.044912	0.191482	0.312709
H502	H	0.205088	0.441482	0.562709
H503	H	0.455088	0.691482	0.812709
H504	H	0.705088	0.941482	1.062709
H505	H	0.816288	0.191220	0.953830
H506	H	1.066288	0.441220	1.203830
H507	H	1.316288	0.691220	1.453830
H508	H	1.566288	0.941220	1.703830
H509	H	0.816111	0.451025	0.191281
H510	H	1.066111	0.701025	0.441281
H511	H	1.316111	0.951025	0.691281
H512	H	1.566111	1.201025	0.941281
H513	H	0.206137	0.346013	0.157667
H514	H	0.456137	0.596013	0.407667
H515	H	0.706137	0.846013	0.657667
H516	H	0.956137	1.096013	0.907667
H517	H	0.849670	0.702185	0.157908
H518	H	1.099670	0.952185	0.407908
H519	H	1.349670	1.202185	0.657908
H520	H	1.599670	1.452185	0.907908
H521	H	0.305335	0.158064	0.346196
H522	H	0.555335	0.408064	0.596196
H523	H	0.805335	0.658064	0.846196
H524	H	1.055335	0.908064	1.096196
H525	H	0.457434	0.191426	0.312683
H526	H	0.707434	0.441426	0.562683
H527	H	0.957434	0.691426	0.812683
H528	H	1.207434	0.941426	1.062683
H529	H	0.816159	0.550076	0.191296
H530	H	1.066159	0.800076	0.441296
H531	H	1.316159	1.050076	0.691296
H532	H	1.566159	1.300076	0.941296
H533	H	0.849714	0.157853	0.702667
H534	H	1.099714	0.407853	0.952667
H535	H	1.349714	0.657853	1.202667
H536	H	1.599714	0.907853	1.452667
H537	H	0.694738	0.550144	0.312518
H538	H	0.944738	0.800144	0.562518
H539	H	1.194738	1.050144	0.812518
H540	H	1.444738	1.300144	1.062518
H541	H	0.054059	0.312625	0.191151
H542	H	0.304059	0.562625	0.441151
H543	H	0.554059	0.812625	0.691151
H544	H	0.804059	1.062625	0.941151
H545	H	0.457347	0.312585	0.191130
H546	H	0.707347	0.562585	0.441130
H547	H	0.957347	0.812585	0.691130
H548	H	1.207347	1.062585	0.941130
H549	H	0.661350	0.702262	0.345952
H550	H	0.911350	0.952262	0.595952
H551	H	1.161350	1.202262	0.845952
H552	H	1.411350	1.452262	1.095952
H553	H	0.816299	0.953371	0.191337
H554	H	1.066299	1.203371	0.441337
H555	H	1.316299	1.453371	0.691337
H556	H	1.566299	1.703371	0.941337
H557	H	-0.045008	0.312633	0.191160
H558	H	0.204992	0.562633	0.441160
H559	H	0.454992	0.812633	0.691160
H560	H	0.704992	1.062633	0.941160
H561	H	0.694699	0.451078	0.312499
H562	H	0.944699	0.701078	0.562499
H563	H	1.194699	0.951078	0.812499
H564	H	1.444699	1.201078	1.062499
H565	H	0.849709	0.801232	0.157921
H566	H	1.099709	1.051232	0.407921
H567	H	1.349709	1.301232	0.657921
H568	H	1.599709	1.551232	0.907921
H569	H	0.816297	0.191199	1.052895
H570	H	1.066297	0.441199	1.302895
H571	H	1.316297	0.691199	1.552895
H572	H	1.566297	0.941199	1.802895
H573	H	0.816221	0.191355	0.451484
H574	H	1.066221	0.441355	0.701484
H575	H	1.316221	0.691355	0.951484
H576	H	1.566221	0.941355	1.201484
H577	H	0.816229	0.191318	0.550534
H578	H	1.066229	0.441318	0.800534
H579	H	1.316229	0.691318	1.050534
H580	H	1.566229	0.941318	1.300534
H581	H	0.694912	1.052481	0.312564
H582	H	0.944912	1.302481	0.562564
H583	H	1.194912	1.552481	0.812564
H584	H	1.444912	1.802481	1.062564
H585	H	0.694883	0.953431	0.312561
H586	H	0.944883	1.203431	0.562561
H587	H	1.194883	1.453431	0.812561
H588	H	1.444883	1.703431	1.062561
H589	H	0.694798	0.312658	0.451455
H590	H	0.944798	0.562658	0.701455
H591	H	1.194798	0.812658	0.951455
H592	H	1.444798	1.062658	1.201455
H593	H	0.661376	0.801312	0.345959
H594	H	0.911376	1.051312	0.595959
H595	H	1.161376	1.301312	0.845959
H596	H	1.411376	1.551312	1.095959
H597	H	0.694881	0.312510	1.052860
H598	H	0.944881	0.562510	1.302860
H599	H	1.194881	0.812510	1.552860
H600	H	1.444881	1.062510	1.802860
H601	H	0.661364	0.345986	0.801669
H602	H	0.911364	0.595986	1.051669
H603	H	1.161364	0.845986	1.301669
H604	H	1.411364	1.095986	1.551669
H605	H	0.556499	0.191420	0.312673
H606	H	0.806499	0.441420	0.562673
H607	H	1.056499	0.691420	0.812673
H608	H	1.306499	0.941420	1.062673
H609	H	0.694809	0.312636	0.550523
H610	H	0.944809	0.562636	0.800523
H611	H	1.194809	0.812636	1.050523
H612	H	1.444809	1.062636	1.300523
H613	H	0.054138	0.191475	0.312713
H614	H	0.304138	0.441475	0.562713
H615	H	0.554138	0.691475	0.812713
H616	H	0.804138	0.941475	1.062713
H617	H	0.661345	0.346000	0.702619
H618	H	0.911345	0.596000	0.952619
H619	H	1.161345	0.846000	1.202619
H620	H	1.411345	1.096000	1.452619
