data_functionalizedCrystal
_audit_creation_method	'MofGen! by Chris Wilmer'
_symmetry_space_group_name_H-M	'P1'
_symmetry_Int_Tables_number	1
_symmetry_cell_setting	triclinic
loop_
_symmetry_equiv_pos_as_xyz
  x,y,z
_cell_length_a	19.188905
_cell_length_b	16.974959
_cell_length_c	15.455313
_cell_angle_alpha	96.307475
_cell_angle_beta	87.320948
_cell_angle_gamma	83.269964
loop_
_atom_site_label
_atom_site_type_symbol
_atom_site_fract_x
_atom_site_fract_y
_atom_site_fract_z
O1	O	0.929119	0.095464	-0.065582
O2	O	0.725788	0.108819	-0.064616
O3	O	0.833457	-0.013368	-0.073192
O4	O	0.821449	0.217651	-0.057006
O5	O	0.827300	-0.006409	0.071559
O6	O	0.719631	0.115778	0.080134
O7	O	0.922962	0.102422	0.079168
Cu8	Cu	0.820734	0.109736	0.092868
Cu9	Cu	0.828015	0.101506	-0.078316
O10	O	0.815292	0.224609	0.087744
C11	C	0.696698	0.111870	0.007733
C12	C	0.619194	0.110582	0.007654
C13	C	0.586159	0.106170	-0.071295
C14	C	0.513337	0.104950	-0.071391
C15	C	0.473555	0.108127	0.007465
C16	C	0.506598	0.112544	0.086425
C17	C	0.579417	0.113772	0.086519
N18	N	0.362093	0.063875	0.062884
N19	N	0.292918	0.062707	0.062789
C20	C	0.254154	0.104430	0.007185
N21	N	0.287179	0.147354	-0.048334
N22	N	0.356361	0.148519	-0.048241
C23	C	0.394594	0.106797	0.007371
C24	C	0.142157	0.098696	-0.071874
C25	C	0.069333	0.097481	-0.071966
C26	C	0.062596	0.105067	0.085851
C27	C	0.135417	0.106290	0.085942
C28	C	0.175194	0.103100	0.007077
C29	C	0.830034	-0.039444	-0.002889
C30	C	0.828997	-0.127510	-0.009063
C31	C	0.823592	-0.623651	-0.052385
C32	C	0.824558	-0.540902	-0.046566
C33	C	0.821680	-0.495749	0.035248
C34	C	0.817842	-0.533352	0.111246
C35	C	0.816881	-0.616101	0.105426
C36	C	0.824198	-0.247862	0.061115
C37	C	0.825158	-0.165107	0.066930
C38	C	0.831875	-0.172663	-0.090883
C39	C	0.830910	-0.255412	-0.096696
C40	C	0.827076	-0.293008	-0.020697
N41	N	0.822665	-0.411166	0.041198
N42	N	0.826095	-0.377591	-0.026648
C43	C	0.952051	0.099372	0.006818
C44	C	1.029556	0.100659	0.006891
N45	N	0.815618	0.115523	0.213270
C46	C	0.818716	0.250686	0.017439
C47	C	0.819752	0.338752	0.023608
N48	N	0.833137	0.095712	-0.198718
C49	C	0.861375	0.063633	0.255022
C50	C	0.857513	0.068017	0.346138
C51	C	0.807895	0.124296	0.395500
C52	C	0.762133	0.176188	0.353741
C53	C	0.765993	0.171800	0.262627
C54	C	0.791235	0.143217	0.668409
C55	C	0.787380	0.147603	0.759530
C56	C	0.882759	0.039430	0.751920
C57	C	0.886617	0.035049	0.660804
C58	C	0.840852	0.086939	0.619054
N59	N	0.803947	0.128780	0.488635
N60	N	0.844798	0.082451	0.525920
H61	H	0.174544	0.096108	-0.136090
C62	C	0.708223	0.237170	0.407437
C63	C	0.663447	0.197552	0.456837
C64	C	0.613784	0.253705	0.506319
H65	H	0.681450	0.267473	0.369623
H66	H	0.731685	0.271825	0.445322
H67	H	0.639988	0.162911	0.418956
H68	H	0.690200	0.167252	0.494667
H69	H	0.637245	0.288360	0.544204
H70	H	0.587016	0.284005	0.468499
H71	H	0.583402	0.226833	0.539849
H72	H	0.042438	0.093894	-0.136259
H73	H	0.822793	-0.128343	0.133556
H74	H	0.894771	0.025763	0.380132
C75	C	0.812564	-0.656857	0.187966
C76	C	0.750695	-0.625338	0.237620
C77	C	0.746693	-0.662869	0.313657
H78	H	0.852002	-0.647953	0.221005
H79	H	0.812366	-0.712606	0.172820
H80	H	0.750899	-0.569602	0.252767
H81	H	0.711246	-0.634241	0.204606
H82	H	0.746495	-0.718618	0.298512
H83	H	0.786135	-0.653963	0.346689
H84	H	0.704713	-0.641494	0.347353
H85	H	0.618541	0.103573	-0.135513
C86	C	0.477594	0.100118	-0.157206
C87	C	0.528017	0.097572	-0.226252
C88	C	0.495120	0.093110	-0.305316
H89	H	0.443820	0.145716	-0.157407
H90	H	0.454858	0.053207	-0.163807
H91	H	0.550742	0.144478	-0.219653
H92	H	0.561794	0.051975	-0.226079
H93	H	0.472384	0.046199	-0.311917
H94	H	0.461347	0.138710	-0.305508
H95	H	0.529328	0.091375	-0.352174
H96	H	0.901782	0.017808	0.214838
H97	H	0.030205	0.107658	0.150058
C98	C	0.932405	-0.017045	0.797133
C99	C	0.922332	-0.096038	0.769505
C100	C	0.968058	-0.148090	0.811128
H101	H	0.923049	-0.006484	0.858471
H102	H	0.979618	-0.009339	0.782754
H103	H	0.875130	-0.103740	0.783890
H104	H	0.931693	-0.106623	0.708173
H105	H	1.015271	-0.140384	0.796749
H106	H	0.958698	-0.137522	0.872465
H107	H	0.961234	-0.201692	0.792383
C108	C	0.463393	0.115824	0.172004
C109	C	0.429539	0.047089	0.171788
C110	C	0.389742	0.050081	0.250616
H111	H	0.429279	0.161703	0.178569
H112	H	0.493483	0.118584	0.219061
H113	H	0.399453	0.044336	0.124744
H114	H	0.463637	0.001199	0.165237
H115	H	0.419831	0.052842	0.297673
H116	H	0.355632	0.095963	0.257174
H117	H	0.366773	0.003443	0.250483
H118	H	0.815502	-0.496583	0.177861
H119	H	0.162315	0.109877	0.150231
H120	H	0.825929	-0.660408	-0.119007
C121	C	0.940202	-0.026461	0.607306
C122	C	0.905149	-0.077373	0.551889
C123	C	0.954411	-0.134199	0.502679
H124	H	0.966743	-0.056787	0.645307
H125	H	0.970850	-0.000142	0.573498
H126	H	0.874513	-0.103689	0.585694
H127	H	0.878611	-0.047069	0.513870
H128	H	0.985059	-0.107881	0.468871
H129	H	0.980949	-0.164520	0.540687
H130	H	0.930635	-0.168746	0.465067
C131	C	0.733426	0.208728	0.812970
C132	C	0.694157	0.253215	0.756905
C133	C	0.644444	0.309517	0.806101
H134	H	0.756818	0.243473	0.850817
H135	H	0.702938	0.181993	0.846517
H136	H	0.724640	0.279948	0.723372
H137	H	0.670749	0.218492	0.719057
H138	H	0.613956	0.282782	0.839649
H139	H	0.667842	0.344256	0.843947
H140	H	0.617790	0.339703	0.768069
H141	H	0.606313	0.117365	0.150811
H142	H	0.827686	-0.510295	-0.108448
H143	H	0.753972	0.185469	0.634423
H144	H	0.833259	-0.292171	-0.163317
C145	C	0.819991	-0.288520	0.143728
C146	C	0.817653	-0.231260	0.216619
C147	C	0.813766	-0.268686	0.292739
H148	H	0.860174	-0.326825	0.144430
H149	H	0.778744	-0.314434	0.145224
H150	H	0.858896	-0.205358	0.215124
H151	H	0.777472	-0.192952	0.215946
H152	H	0.772520	-0.294600	0.294235
H153	H	0.853951	-0.306990	0.293432
H154	H	0.812173	-0.229840	0.342205
H155	H	0.834998	-0.142043	-0.152757
H156	H	0.728731	0.214053	0.228634
