data_functionalizedCrystal
_audit_creation_method	'MofGen! by Chris Wilmer'
_symmetry_space_group_name_H-M	'P1'
_symmetry_Int_Tables_number	1
_symmetry_cell_setting	triclinic
loop_
_symmetry_equiv_pos_as_xyz
  x,y,z
_cell_length_a	12.837932
_cell_length_b	12.837942
_cell_length_c	17.766277
_cell_angle_alpha	89.994736
_cell_angle_beta	89.991095
_cell_angle_gamma	94.829322
loop_
_atom_site_label
_atom_site_type_symbol
_atom_site_fract_x
_atom_site_fract_y
_atom_site_fract_z
O1	O	1.402345	0.272152	-0.062595
O2	O	1.099211	0.258707	-0.062597
O3	O	1.244056	0.113863	-0.062591
O4	O	1.257500	0.416996	-0.062601
O5	O	1.244027	0.113852	0.062597
O6	O	1.099182	0.258696	0.062592
O7	O	1.402316	0.272141	0.062593
Cu8	Cu	1.250746	0.265417	0.074023
Cu9	Cu	1.250781	0.265430	-0.074027
O10	O	1.257471	0.416985	0.062588
C11	C	1.060127	0.254160	-0.000002
C12	C	0.943712	0.240614	-0.000003
C13	C	1.239501	0.074788	0.000002
C14	C	1.225956	-0.041627	0.000001
C15	C	0.782686	0.127402	0.000002
C16	C	0.892069	0.140122	0.000001
C17	C	0.885965	0.328393	-0.000004
C18	C	0.776582	0.315673	-0.000003
C19	C	0.724947	0.215174	-0.000001
C20	C	0.615562	0.202455	-0.000006
C21	C	0.609460	0.390725	-0.000006
C22	C	0.718843	0.403445	-0.000007
C23	C	1.388786	-0.266500	-0.000014
C24	C	1.376064	-0.375883	-0.000015
C25	C	1.187793	-0.369777	-0.000008
C26	C	1.200514	-0.260394	-0.000007
C27	C	1.301014	-0.208760	-0.000009
C28	C	1.313734	-0.099375	-0.000002
C29	C	1.125464	-0.093271	-0.000000
C30	C	1.112742	-0.202654	-0.000002
C31	C	1.441400	0.276688	-0.000003
C32	C	1.557815	0.290233	-0.000007
C33	C	1.262027	0.456060	-0.000008
C34	C	1.275571	0.572475	-0.000011
N35	N	1.250730	0.265408	0.178154
N36	N	1.250805	0.265432	-0.178157
C37	C	1.314894	0.201309	0.217543
C38	C	1.314899	0.201304	0.296345
C39	C	1.250753	0.265419	0.335754
C40	C	1.186576	0.329523	0.296355
C41	C	1.186564	0.329517	0.217555
C42	C	1.246454	0.359403	0.460589
C43	C	1.246473	0.359411	0.539388
C44	C	1.250782	0.265434	0.578800
C45	C	1.255094	0.171449	0.539404
C46	C	1.255082	0.171443	0.460604
C47	C	1.250758	0.265431	0.421200
C48	C	1.314955	0.201324	0.703636
C49	C	1.314954	0.201318	0.782439
C50	C	1.186636	0.329546	0.782448
C51	C	1.186632	0.329543	0.703646
C52	C	1.250797	0.265434	0.664245
H53	H	0.573523	0.120623	-0.000007
Cl54	Cl	1.515124	-0.201585	0.000003
Cl55	Cl	1.395571	0.120715	0.345871
H56	H	0.562437	0.462196	-0.000009
Cl57	Cl	1.260519	0.053299	0.588942
Cl58	Cl	1.105929	0.410120	0.345897
H59	H	1.367200	0.149114	0.814510
H60	H	1.030918	-0.244710	-0.000003
H61	H	1.447538	-0.422891	-0.000022
H62	H	0.928026	0.410215	0.000001
H63	H	1.053994	-0.046247	0.000010
Cl64	Cl	1.061461	-0.434707	-0.000028
Cl65	Cl	1.440075	-0.034465	0.000001
Cl66	Cl	0.717769	0.001064	0.000000
Cl67	Cl	1.395551	0.120710	0.168010
H68	H	0.939077	0.068648	0.000004
Cl69	Cl	1.260491	0.053295	0.411080
H70	H	0.760900	0.485269	-0.000006
Cl71	Cl	1.395614	0.120725	0.654101
H72	H	1.134402	0.381745	0.814535
H73	H	1.134388	0.381744	0.671574
H74	H	1.242969	0.435940	0.571458
Cl75	Cl	1.241135	0.477570	0.411050
Cl76	Cl	1.105896	0.410108	0.168034
