data_functionalizedCrystal
_audit_creation_method	'MofGen! by Chris Wilmer'
_symmetry_space_group_name_H-M	'P1'
_symmetry_Int_Tables_number	1
_symmetry_cell_setting	triclinic
loop_
_symmetry_equiv_pos_as_xyz
  x,y,z
_cell_length_a	12.759401
_cell_length_b	12.759400
_cell_length_c	12.759393
_cell_angle_alpha	89.968916
_cell_angle_beta	89.982620
_cell_angle_gamma	90.014805
loop_
_atom_site_label
_atom_site_type_symbol
_atom_site_fract_x
_atom_site_fract_y
_atom_site_fract_z
Zn1	Zn	1.606244	-0.418198	-0.593986
Zn2	Zn	1.606142	-0.593917	-0.418309
Zn3	Zn	1.430550	-0.418253	-0.418326
Zn4	Zn	1.430535	-0.593836	-0.593950
O5	O	1.518368	-0.506051	-0.506143
O6	O	1.753252	-0.441518	-0.570690
O7	O	1.582813	-0.570672	-0.271290
O8	O	1.453905	-0.271225	-0.441650
O9	O	1.753177	-0.570618	-0.441621
O10	O	1.582987	-0.271184	-0.570707
O11	O	1.453806	-0.441613	-0.271302
O12	O	1.283527	-0.441534	-0.441615
O13	O	1.453880	-0.570480	-0.740976
O14	O	1.283516	-0.570533	-0.570645
O15	O	1.582973	-0.441439	-0.741003
O16	O	1.582799	-0.740927	-0.441585
O17	O	1.453781	-0.740868	-0.570628
C18	C	1.245400	-0.506032	-0.506128
C19	C	1.128624	-0.506049	-0.506147
C20	C	1.073784	-0.573326	-0.573222
C21	C	0.964060	-0.573340	-0.573234
C22	C	0.964025	-0.438795	-0.439086
C23	C	1.073747	-0.438777	-0.439081
C24	C	1.073802	-0.651008	-0.650668
C25	C	0.964078	-0.651021	-0.650680
C26	C	1.518306	-0.779018	-0.506124
C27	C	1.518375	-0.895795	-0.506151
C28	C	1.585559	-0.950546	-0.573408
C29	C	1.585618	-1.060270	-0.573437
C30	C	1.451306	-1.060483	-0.438942
C31	C	1.451243	-0.950761	-0.438920
C32	C	1.623175	-1.210096	-0.697405
C33	C	1.690375	-1.264850	-0.764653
C34	C	1.792860	-1.229142	-0.780863
C35	C	1.828165	-1.138680	-0.729811
C36	C	1.760971	-1.083931	-0.662555
C37	C	1.658471	-1.119639	-0.646364
C38	C	1.413697	-0.800932	-0.314950
C39	C	1.346507	-0.746181	-0.247688
C40	C	1.244020	-0.781888	-0.231467
C41	C	1.208718	-0.872353	-0.282501
C42	C	1.275909	-0.927104	-0.349763
C43	C	1.378394	-0.891390	-0.365986
C44	C	1.792401	-0.506071	-0.506158
C45	C	1.909178	-0.506080	-0.506164
C46	C	1.518436	-0.505944	-0.780176
C47	C	1.518465	-0.505898	-0.896953
C48	C	1.518459	-0.232018	-0.506184
C49	C	1.518498	-0.115241	-0.506202
C50	C	1.451320	-0.438685	-0.951828
C51	C	1.451351	-0.438653	-1.061552
C52	C	1.585683	-0.573052	-1.061517
C53	C	1.585645	-0.573088	-0.951795
C54	C	1.373767	-0.361087	-0.951849
C55	C	1.373799	-0.361056	-1.061573
C56	C	1.518360	-0.506082	-0.233175
C57	C	1.518535	-0.505831	-0.116399
H58	H	1.118394	-0.383986	-0.384469
N59	N	1.271416	-0.399635	-1.106654
H60	H	1.275182	-0.398209	-1.185710
H61	H	1.258078	-0.473722	-1.082132
N62	N	0.904837	-0.366256	-0.366737
H63	H	0.827007	-0.376478	-0.376914
H64	H	0.923995	-0.382533	-0.291679
N65	N	1.113298	-0.622270	-0.758495
H66	H	1.051781	-0.609450	-0.806616
H67	H	1.157308	-0.556635	-0.753851
H68	H	1.107817	-0.728260	-0.621385
H69	H	1.497145	-0.771841	-0.328167
H70	H	1.640221	-0.905795	-0.628154
N71	N	0.924612	-0.758771	-0.621613
H72	H	0.880601	-0.754028	-0.555980
H73	H	0.880699	-0.787576	-0.680812
N74	N	1.938712	-1.100180	-0.747288
H75	H	1.936786	-1.027077	-0.777627
H76	H	1.977434	-1.099139	-0.678271
H77	H	1.395616	-0.279674	-1.091369
H78	H	1.375261	-0.672524	-0.206128
H79	H	1.789717	-1.010281	-0.620986
N80	N	0.919075	-0.612476	-0.753125
H81	H	0.943511	-0.659336	-0.812033
H82	H	0.840023	-0.613846	-0.749326
H83	H	1.125266	-0.901428	-0.269291
N84	N	1.865336	-1.288193	-0.853401
H85	H	1.935622	-1.251847	-0.855923
H86	H	1.874745	-1.362133	-0.826730
N87	N	1.652302	-1.362417	-0.819716
H88	H	1.577174	-1.376727	-0.799254
H89	H	1.656830	-1.351886	-0.898043
N90	N	1.378915	-1.119765	-0.366417
H91	H	1.330231	-1.165305	-0.409074
H92	H	1.421747	-1.165223	-0.317791
H93	H	1.402931	-0.283809	-0.917831
H94	H	1.189316	-0.737301	-0.176693
H95	H	1.292378	-0.382876	-0.922071
N96	N	1.512633	-1.248611	-0.679921
H97	H	1.500475	-1.314230	-0.722456
H98	H	1.502125	-1.264632	-0.603109
H99	H	1.640306	-0.627835	-0.907120
H100	H	1.640380	-0.627755	-1.106182
N101	N	1.237839	-1.024680	-0.404809
H102	H	1.162718	-1.038997	-0.384329
H103	H	1.242348	-1.014152	-0.483138
