data_functionalizedCrystal
_audit_creation_method	'MofGen! by Chris Wilmer'
_symmetry_space_group_name_H-M	'P1'
_symmetry_Int_Tables_number	1
_symmetry_cell_setting	triclinic
loop_
_symmetry_equiv_pos_as_xyz
  x,y,z
_cell_length_a	12.759395
_cell_length_b	16.120531
_cell_length_c	12.759387
_cell_angle_alpha	87.139831
_cell_angle_beta	89.983849
_cell_angle_gamma	87.068019
loop_
_atom_site_label
_atom_site_type_symbol
_atom_site_fract_x
_atom_site_fract_y
_atom_site_fract_z
Zn1	Zn	1.584900	0.331868	-0.615114
Zn2	Zn	1.575837	0.471303	-0.448316
Zn3	Zn	1.409206	0.331908	-0.439457
Zn4	Zn	1.400231	0.471240	-0.623954
O5	O	1.492543	0.401580	-0.531710
O6	O	1.730718	0.350373	-0.592996
O7	O	1.553696	0.452855	-0.300122
O8	O	1.440061	0.215238	-0.455350
O9	O	1.724060	0.452816	-0.470450
O10	O	1.569143	0.215208	-0.584405
O11	O	1.431273	0.350443	-0.293613
O12	O	1.260995	0.350382	-0.463923
O13	O	1.424764	0.452709	-0.769800
O14	O	1.254401	0.452748	-0.599472
O15	O	1.560440	0.350312	-0.763305
O16	O	1.544993	0.587960	-0.479022
O17	O	1.415976	0.587914	-0.608063
C18	C	1.219577	0.401563	-0.531696
C19	C	1.102799	0.401576	-0.531716
C20	C	1.109703	0.295075	-0.659551
C21	C	1.058293	0.241835	-0.723478
C22	C	0.948570	0.241849	-0.723492
C23	C	0.890255	0.295109	-0.659570
C24	C	0.941664	0.348349	-0.595644
C25	C	1.051390	0.348330	-0.595639
C26	C	0.934762	0.454845	-0.467805
C27	C	1.044484	0.454836	-0.467795
C28	C	0.876446	0.508104	-0.403883
C29	C	0.927855	0.561350	-0.339960
C30	C	1.037585	0.561334	-0.339950
C31	C	1.095894	0.508076	-0.403868
C32	C	1.478556	0.618187	-0.545486
C33	C	1.472668	0.710853	-0.551415
C34	C	1.461925	0.880513	-0.562260
C35	C	1.523201	0.921806	-0.501101
C36	C	1.517224	1.016211	-0.507135
C37	C	1.467901	0.786100	-0.556227
C38	C	1.766576	0.401597	-0.531725
C39	C	1.883352	0.401604	-0.531731
C40	C	1.492612	0.401499	-0.805739
C41	C	1.492641	0.401465	-0.922513
C42	C	1.506576	1.184127	-0.517884
C43	C	1.512461	1.091461	-0.511943
C44	C	1.620198	0.508049	-1.148712
C45	C	1.683917	0.561388	-1.097231
C46	C	1.683880	0.561419	-0.987511
C47	C	1.620115	0.508109	-0.929270
C48	C	1.556397	0.454771	-0.980752
C49	C	1.556443	0.454743	-1.090474
C50	C	1.428923	0.348127	-0.973994
C51	C	1.428964	0.348089	-1.083714
C52	C	1.365158	0.294816	-0.915753
C53	C	1.301444	0.241473	-0.967234
C54	C	1.301484	0.241443	-1.076961
C55	C	1.365245	0.294751	-1.135195
C56	C	1.492539	0.401600	-0.258744
C57	C	1.492728	0.401400	-0.141955
H58	H	0.880367	0.604706	-0.287916
H59	H	1.404978	0.916060	-0.619147
H60	H	1.580151	0.886257	-0.444208
O61	O	1.214238	0.508055	-0.403862
H62	H	1.240193	0.554026	-0.348677
O63	O	1.620307	0.507959	-1.267049
H64	H	1.675369	0.553972	-1.298898
O65	O	1.228047	0.295056	-0.659546
H66	H	1.252935	0.357954	-0.684646
O67	O	1.752695	0.618883	-1.160044
H68	H	1.742028	0.609897	-1.244988
O69	O	1.121186	0.184391	-0.792422
H70	H	1.206120	0.193328	-0.781683
O71	O	1.232763	0.183901	-1.132474
H72	H	1.282559	0.141477	-1.179763
O73	O	1.620076	0.508143	-0.810930
H74	H	1.594766	0.571032	-0.785992
O75	O	0.893110	0.184429	-0.792439
H76	H	0.952088	0.147395	-0.836890
H77	H	0.787104	0.508110	-0.403896
O78	O	0.771911	0.295117	-0.659568
H79	H	0.741908	0.312052	-0.739849
O80	O	1.365409	0.294689	-1.253534
H81	H	1.340154	0.357552	-1.286517
O82	O	1.093035	0.618756	-0.270997
H83	H	1.034047	0.655792	-0.226560
O84	O	1.752610	0.618939	-0.931974
H85	H	1.796963	0.655999	-0.990899
H86	H	1.365129	0.294849	-0.826414
O87	O	1.232683	0.183974	-0.904420
H88	H	1.176797	0.221296	-0.856799
