data_functionalizedCrystal
_audit_creation_method	'MofGen! by Chris Wilmer'
_symmetry_space_group_name_H-M	'P1'
_symmetry_Int_Tables_number	1
_symmetry_cell_setting	triclinic
loop_
_symmetry_equiv_pos_as_xyz
  x,y,z
_cell_length_a	10.489741
_cell_length_b	10.489741
_cell_length_c	9.565339
_cell_angle_alpha	90.000900
_cell_angle_beta	90.000516
_cell_angle_gamma	95.460826
loop_
_atom_site_label
_atom_site_type_symbol
_atom_site_fract_x
_atom_site_fract_y
_atom_site_fract_z
O1	O	0.179959	-1.694053	-0.116173
O2	O	0.196852	-1.322857	-0.116194
O3	O	0.002807	-1.516901	-0.116175
O4	O	0.374003	-1.500009	-0.116192
O5	O	0.002819	-1.516886	0.116345
O6	O	0.196864	-1.322842	0.116326
O7	O	0.179971	-1.694038	0.116347
Zn8	Zn	0.188419	-1.508437	0.153254
Zn9	Zn	0.188403	-1.508458	-0.153101
O10	O	0.374015	-1.499993	0.116328
C11	C	0.195582	-1.275318	0.000063
C12	C	0.191765	-1.133688	0.000055
N13	N	0.188429	-1.508433	0.362334
C14	C	-0.044718	-1.515618	0.000084
C15	C	-0.186348	-1.511801	0.000082
C16	C	-0.254488	-1.388336	0.000064
C17	C	-0.346604	-1.446652	0.114712
C18	C	-0.346591	-1.446696	-0.114534
C19	C	-0.276599	-1.570168	0.114824
C20	C	-0.276576	-1.570195	-0.114525
C21	C	-0.368665	-1.628600	0.000150
C22	C	0.421541	-1.501277	0.000066
C23	C	0.563170	-1.505094	0.000059
C24	C	0.181241	-1.741577	0.000087
C25	C	0.185058	-1.883206	0.000086
C26	C	0.068300	-1.065548	0.000074
C27	C	0.126617	-0.973429	-0.114571
C28	C	0.126659	-0.973448	0.114676
C29	C	0.250133	-1.043435	-0.114684
C30	C	0.250157	-1.043463	0.114665
C31	C	0.308564	-0.951371	-0.000007
N32	N	0.188383	-1.508472	-0.362180
C33	C	0.278138	-1.418666	0.453528
C34	C	0.303949	-1.534163	0.546712
C35	C	0.162629	-1.392986	0.546704
C36	C	0.214298	-1.623988	0.453466
C37	C	0.072928	-1.482735	0.453451
C38	C	0.098690	-1.598314	0.546593
H39	H	-0.204837	-1.286824	0.000174
C40	C	0.056063	-0.931592	0.245618
N41	N	0.002882	-0.900071	0.344237
C42	C	0.320635	-1.085087	-0.245779
N43	N	0.373730	-1.116464	-0.344522
H44	H	0.354073	-1.342823	0.412665
C45	C	0.445821	-0.884590	-0.000099
N46	N	0.549200	-0.834285	-0.000177
H47	H	-0.024699	-1.460936	0.412454
H48	H	0.401606	-1.555926	0.587676
C49	C	0.320675	-1.085410	0.245608
N50	N	0.373779	-1.117009	0.344245
H51	H	-0.033196	-1.115238	-0.000065
C52	C	0.243916	-1.755936	0.398374
N53	N	0.266231	-1.855315	0.356876
C54	C	0.056034	-0.931528	-0.245499
N55	N	0.002862	-0.899971	-0.344109
H56	H	0.022802	-1.674328	0.587199
H57	H	-0.377611	-1.394405	0.211633
H58	H	-0.245762	-1.622356	0.211859
H59	H	0.140828	-1.295338	0.587664
H60	H	-0.418089	-1.730204	0.000220
H61	H	-0.245536	-1.622398	-0.211451
C62	C	-0.388447	-1.376104	-0.245477
N63	N	-0.419966	-1.322925	-0.344099
