data_functionalizedCrystal
_audit_creation_method	'MofGen! by Chris Wilmer'
_symmetry_space_group_name_H-M	'P1'
_symmetry_Int_Tables_number	1
_symmetry_cell_setting	triclinic
loop_
_symmetry_equiv_pos_as_xyz
  x,y,z
_cell_length_a	13.897448
_cell_length_b	13.033385
_cell_length_c	13.032268
_cell_angle_alpha	105.160384
_cell_angle_beta	82.851959
_cell_angle_gamma	97.153102
loop_
_atom_site_label
_atom_site_type_symbol
_atom_site_fract_x
_atom_site_fract_y
_atom_site_fract_z
Zn1	Zn	-0.611412	-1.547436	0.393984
Zn2	Zn	-0.111412	-1.047436	0.893984
Zn3	Zn	-0.754546	-1.569889	0.216387
Zn4	Zn	-0.254546	-1.069889	0.716387
Zn5	Zn	-0.575126	-1.392389	0.238985
Zn6	Zn	-0.075126	-0.892389	0.738985
Zn7	Zn	-0.754504	-1.369808	0.416530
Zn8	Zn	-0.254504	-0.869808	0.916530
O9	O	-0.673897	-1.469880	0.316471
O10	O	-0.173897	-0.969880	0.816471
O11	O	-0.645602	-1.699037	0.351532
O12	O	-0.145602	-1.199037	0.851532
O13	O	-0.715577	-1.565191	0.070757
O14	O	-0.215577	-1.065191	0.570757
O15	O	-0.444966	-1.413010	0.259568
O16	O	0.055034	-0.913010	0.759568
O17	O	-0.750762	-1.715533	0.221053
O18	O	-0.250762	-1.215533	0.721053
O19	O	-0.471625	-1.526922	0.373445
O20	O	0.028375	-1.026922	0.873445
O21	O	-0.583758	-1.434782	0.087359
O22	O	-0.083758	-0.934782	0.587359
O23	O	-0.583717	-1.240771	0.281430
O24	O	-0.083717	-0.740771	0.781430
O25	O	-0.750691	-1.374523	0.562167
O26	O	-0.250691	-0.874523	1.062167
O27	O	-0.715506	-1.224181	0.411871
O28	O	-0.215506	-0.724181	0.911871
O29	O	-0.645562	-1.505026	0.545602
O30	O	-0.145562	-1.005026	1.045602
O31	O	-0.889513	-1.543294	0.242915
O32	O	-0.389513	-1.043294	0.742915
O33	O	-0.889483	-1.396295	0.389959
O34	O	-0.389483	-0.896295	0.889959
C35	C	-0.645670	-1.193940	0.351549
C36	C	-0.145670	-0.693940	0.851549
C37	C	-0.633620	-1.075888	0.366581
C38	C	-0.133620	-0.575888	0.866581
C39	C	-0.667725	-0.909415	0.324161
C40	C	-0.167725	-0.409415	0.824161
C41	C	-0.680182	-1.031429	0.308620
C42	C	-0.180182	-0.531429	0.808620
C43	C	-0.924500	-1.469807	0.316451
C44	C	-0.424500	-0.969807	0.816451
C45	C	-1.031723	-1.469868	0.316465
C46	C	-0.531723	-0.969868	0.816465
C47	C	-1.228036	-1.469971	0.316517
C48	C	-0.728036	-0.969971	0.816517
C49	C	-1.118794	-1.469910	0.316492
C50	C	-0.618794	-0.969910	0.816492
C51	C	-0.422320	-1.469980	0.316512
C52	C	0.077680	-0.969980	0.816512
C53	C	-0.315113	-1.470023	0.316529
C54	C	0.184887	-0.970023	0.816529
C55	C	-0.702169	-1.434751	0.593500
C56	C	-0.202169	-0.934751	1.093500
C57	C	-0.714217	-1.419781	0.711553
C58	C	-0.214217	-0.919781	1.211553
C59	C	-0.702227	-0.746900	0.281246
C60	C	-0.202227	-0.246900	0.781246
C61	C	-0.714281	-0.864953	0.266208
C62	C	-0.214281	-0.364953	0.766208
C63	C	-0.645671	-1.504934	0.040513
C64	C	-0.145671	-1.004934	0.540513
C65	C	-0.633373	-1.520110	-0.077565
C66	C	-0.133373	-1.020110	0.422435
C67	C	-0.667573	-1.477677	0.755989
C68	C	-0.167573	-0.977677	1.255989
C69	C	-0.680024	-1.462206	0.878002
C70	C	-0.180024	-0.962206	1.378002
H71	H	-0.729272	-1.083688	0.247500
H72	H	-0.229272	-0.583688	0.747500
O73	O	-0.574638	-1.592771	0.859985
O74	O	-0.074638	-1.092771	1.359985
C75	C	-0.433110	-1.622850	0.732916
C76	C	0.066890	-1.122850	1.232916
C77	C	-0.499568	-1.540464	0.803562
C78	C	0.000432	-1.040464	1.303562
H79	H	-0.372388	-1.580589	0.687297
H80	H	0.127612	-1.080589	1.187297
H81	H	-0.477726	-1.684911	0.673837
H82	H	0.022274	-1.184911	1.173837
H83	H	-0.399978	-1.664042	0.785382
H84	H	0.100022	-1.164042	1.285382
H85	H	-0.532715	-1.499194	0.751182
H86	H	-0.032715	-0.999194	1.251182
H87	H	-0.454905	-1.478471	0.862648
H88	H	0.045095	-0.978471	1.362648
O89	O	-0.738667	-1.389485	0.940518
O90	O	-0.238667	-0.889485	1.440518
C91	C	-0.804469	-1.307693	1.119138
C92	C	-0.304469	-0.807693	1.619138
C93	C	-0.738044	-1.390098	1.048463
C94	C	-0.238044	-0.890098	1.548463
H95	H	-0.803972	-1.308145	1.206427
H96	H	-0.303972	-0.808145	1.706427
H97	H	-0.881976	-1.329049	1.095087
H98	H	-0.381976	-0.829049	1.595087
H99	H	-0.776579	-1.224816	1.108218
H100	H	-0.276579	-0.724816	1.608218
H101	H	-0.765847	-1.473004	1.059346
H102	H	-0.265847	-0.973004	1.559346
H103	H	-0.660549	-1.368651	1.072531
H104	H	-0.160549	-0.868651	1.572531
H105	H	-0.763362	-1.358754	0.763840
H106	H	-0.263362	-0.858754	1.263840
O107	O	-0.609175	-0.846924	0.397002
O108	O	-0.109175	-0.346924	0.897002
C109	C	-0.543452	-0.668328	0.478983
C110	C	-0.043452	-0.168328	0.978983
C111	C	-0.609774	-0.738973	0.396435
C112	C	-0.109774	-0.238973	0.896435
H113	H	-0.543931	-0.581034	0.478567
H114	H	-0.043931	-0.081034	0.978567
H115	H	-0.465935	-0.692352	0.457736
H116	H	0.034065	-0.192352	0.957736
H117	H	-0.571448	-0.679303	0.561819
H118	H	-0.071448	-0.179303	1.061819
H119	H	-0.581866	-0.728034	0.313568
H120	H	-0.081866	-0.228034	0.813568
H121	H	-0.687280	-0.714932	0.417773
H122	H	-0.187280	-0.214932	0.917773
H123	H	-0.763367	-0.917215	0.205092
H124	H	-0.263367	-0.417215	0.705092
O125	O	-0.575069	-1.013401	0.439430
O126	O	-0.075069	-0.513401	0.939430
C127	C	-0.509351	-0.834807	0.521421
C128	C	-0.009351	-0.334807	1.021421
C129	C	-0.575668	-0.905449	0.438867
C130	C	-0.075668	-0.405449	0.938867
H131	H	-0.509829	-0.747512	0.521009
H132	H	-0.009829	-0.247512	1.021009
H133	H	-0.431833	-0.858829	0.500178
H134	H	0.068167	-0.358829	1.000178
H135	H	-0.537351	-0.845786	0.604255
H136	H	-0.037351	-0.345786	1.104255
H137	H	-0.547755	-0.894506	0.356003
H138	H	-0.047755	-0.394506	0.856003
H139	H	-0.653175	-0.881410	0.460202
H140	H	-0.153175	-0.381410	0.960202
H141	H	-0.618417	-1.538693	0.703702
H142	H	-0.118417	-1.038693	1.203702
