data_functionalizedCrystal
_audit_creation_method	'MofGen! by Chris Wilmer'
_symmetry_space_group_name_H-M	'P1'
_symmetry_Int_Tables_number	1
_symmetry_cell_setting	triclinic
loop_
_symmetry_equiv_pos_as_xyz
  x,y,z
_cell_length_a	14.519709
_cell_length_b	27.731996
_cell_length_c	13.596369
_cell_angle_alpha	89.988048
_cell_angle_beta	90.000291
_cell_angle_gamma	83.150767
loop_
_atom_site_label
_atom_site_type_symbol
_atom_site_fract_x
_atom_site_fract_y
_atom_site_fract_z
O1	O	1.222743	0.063364	-0.081677
O2	O	1.722743	0.563364	0.418323
O3	O	0.954134	0.070825	-0.081708
O4	O	1.454134	0.570825	0.418292
O5	O	1.096806	-0.003264	-0.081670
O6	O	1.596806	0.496736	0.418330
O7	O	1.080071	0.137453	-0.081715
O8	O	1.580071	0.637453	0.418285
O9	O	1.096792	-0.003268	0.081913
O10	O	1.596792	0.496732	0.581913
O11	O	0.954120	0.070822	0.081874
O12	O	1.454120	0.570822	0.581874
O13	O	1.222729	0.063360	0.081906
O14	O	1.722729	0.563360	0.581906
Zn15	Zn	1.088422	0.067090	0.107863
Zn16	Zn	1.588422	0.567090	0.607863
Zn17	Zn	1.088441	0.067095	-0.107665
Zn18	Zn	1.588441	0.567095	0.392335
O19	O	1.080057	0.137449	0.081868
O20	O	1.580057	0.637449	0.581868
C21	C	0.919773	0.070476	0.000079
C22	C	1.419773	0.570476	0.500079
C23	C	0.817411	0.069434	0.000068
C24	C	1.317411	0.569434	0.500068
C25	C	0.442583	0.065597	0.000114
C26	C	0.942583	0.565597	0.500114
C27	C	0.546872	0.066663	0.000101
C28	C	1.046872	0.566663	0.500101
C29	C	0.629994	0.067515	0.000090
C30	C	1.129994	0.567515	0.500090
C31	C	0.734289	0.068581	0.000079
C32	C	1.234289	0.568581	0.500079
C33	C	1.096455	-0.021275	0.000124
C34	C	1.596455	0.478725	0.500124
C35	C	1.095420	-0.074936	0.000134
C36	C	1.595420	0.425064	0.500134
C37	C	1.088913	-0.407681	-0.089084
C38	C	1.588913	0.092319	0.410916
C39	C	1.084981	-0.609358	-0.089101
C40	C	1.584981	-0.109358	0.410899
O41	O	1.084439	-0.635430	-0.164937
O42	O	1.584439	-0.135430	0.335063
N43	N	1.084485	-0.634580	0.000067
N44	N	1.584485	-0.134580	0.500067
C45	C	1.084966	-0.609379	0.089246
C46	C	1.584966	-0.109379	0.589246
O47	O	1.084444	-0.635458	0.165088
O48	O	1.584444	-0.135458	0.665088
C49	C	1.088891	-0.407702	0.089262
C50	C	1.588891	0.092298	0.589262
C51	C	1.089397	-0.382484	0.000088
C52	C	1.589397	0.117516	0.500088
C53	C	1.089417	-0.382463	-0.178250
C54	C	1.589417	0.117537	0.321750
C55	C	1.090405	-0.332047	-0.178245
C56	C	1.590405	0.167953	0.321755
C57	C	1.090889	-0.306850	-0.089073
C58	C	1.590889	0.193150	0.410927
C59	C	1.090385	-0.332068	0.000094
C60	C	1.590385	0.167932	0.500094
C61	C	1.089366	-0.382502	0.178440
C62	C	1.589366	0.117498	0.678440
C63	C	1.090345	-0.332079	0.178437
C64	C	1.590345	0.167921	0.678437
C65	C	1.090850	-0.306861	0.089263
C66	C	1.590850	0.193139	0.589263
C67	C	1.091856	-0.256455	0.089271
C68	C	1.591856	0.243545	0.589271
N69	N	1.092352	-0.231233	0.000103
N70	N	1.592352	0.268767	0.500103
C71	C	1.091869	-0.256431	-0.089069
C72	C	1.591869	0.243569	0.410931
C73	C	1.082907	-0.715262	0.089231
C74	C	1.582907	-0.215262	0.589231
C75	C	1.081927	-0.765681	0.089227
C76	C	1.581927	-0.265681	0.589227
C77	C	1.081941	-0.765657	-0.089121
C78	C	1.581941	-0.265657	0.410879
C79	C	1.082927	-0.715238	-0.089116
C80	C	1.582927	-0.215238	0.410884
C81	C	1.083403	-0.690041	0.000063
C82	C	1.583403	-0.190041	0.500063
C83	C	1.093944	-0.150554	-0.089051
C84	C	1.593944	0.349446	0.410949
C85	C	1.094936	-0.100134	-0.089038
C86	C	1.594936	0.399866	0.410962
C87	C	1.094918	-0.100162	0.089309
C88	C	1.594918	0.399838	0.589309
C89	C	1.093931	-0.150578	0.089296
C90	C	1.593931	0.349422	0.589296
C91	C	1.093441	-0.175772	0.000108
C92	C	1.593441	0.324228	0.500108
O93	O	1.092388	-0.230352	0.165067
O94	O	1.592388	0.269648	0.665067
O95	O	1.092370	-0.230341	-0.164900
O96	O	1.592370	0.269659	0.335100
C97	C	1.087925	-0.458097	-0.089089
C98	C	1.587925	0.041903	0.410911
C99	C	1.087421	-0.483316	0.000078
C100	C	1.587421	0.016684	0.500078
C101	C	1.087904	-0.458118	0.089250
C102	C	1.587904	0.041882	0.589250
C103	C	1.086441	-0.533735	0.000074
C104	C	1.586441	-0.033735	0.500074
C105	C	1.085957	-0.558932	-0.089098
C106	C	1.585957	-0.058932	0.410902
C107	C	1.086453	-0.533711	-0.178266
C108	C	1.586453	-0.033711	0.321734
C109	C	1.087441	-0.483295	-0.178261
C110	C	1.587441	0.016705	0.321739
C111	C	1.087408	-0.483340	0.178418
C112	C	1.587408	0.016660	0.678418
C113	C	1.086421	-0.533756	0.178405
C114	C	1.586421	-0.033756	0.678405
C115	C	1.085938	-0.558953	0.089233
C116	C	1.585938	-0.058953	0.589233
C117	C	1.257090	0.063709	0.000116
C118	C	1.757090	0.563709	0.500116
C119	C	1.359453	0.064752	0.000121
C120	C	1.859453	0.564752	0.500121
C121	C	1.080408	0.155460	0.000071
C122	C	1.580408	0.655460	0.500071
C123	C	1.081443	0.209121	0.000055
C124	C	1.581443	0.709121	0.500055
N125	N	1.088417	0.067086	0.254954
N126	N	1.588417	0.567086	0.754954
N127	N	1.088454	0.067095	-0.254757
N128	N	1.588454	0.567095	0.245243
C129	C	1.088440	0.067096	0.656245
C130	C	1.588440	0.567096	1.156245
C131	C	1.088431	0.067095	0.544594
C132	C	1.588431	0.567095	1.044594
C133	C	1.088429	0.067091	0.455603
C134	C	1.588429	0.567091	0.955603
C135	C	1.088419	0.067090	0.343945
C136	C	1.588419	0.567090	0.843945
H137	H	1.095350	-0.079603	-0.161657
H138	H	1.595350	0.420397	0.338343
H139	H	1.093541	-0.171061	-0.161676
H140	H	1.593541	0.328939	0.338324
H141	H	1.090813	-0.311519	-0.250860
H142	H	1.590813	0.188481	0.249140
Cl143	Cl	1.088811	-0.414131	-0.290368
Cl144	Cl	1.588811	0.085869	0.209632
Cl145	Cl	1.081327	-0.797343	-0.201222
Cl146	Cl	1.581327	-0.297343	0.298778
Cl147	Cl	1.095526	-0.068476	0.201405
Cl148	Cl	1.595526	0.431524	0.701405
H149	H	1.088956	-0.403026	0.251056
H150	H	1.588956	0.096974	0.751056
H151	H	1.086017	-0.554285	0.251027
H152	H	1.586017	-0.054285	0.751027
H153	H	1.083299	-0.694752	0.161854
H154	H	1.583299	-0.194752	0.661854
H155	H	1.090718	-0.311565	0.251058
H156	H	1.590718	0.188435	0.751058
H157	H	1.087804	-0.462829	0.251034
H158	H	1.587804	0.037171	0.751034
H159	H	1.083337	-0.694708	-0.161729
H160	H	1.583337	-0.194708	0.338271
Cl161	Cl	1.093313	-0.182283	0.201402
Cl162	Cl	1.593313	0.317717	0.701402
Cl163	Cl	1.085849	-0.565397	-0.290367
Cl164	Cl	1.585849	-0.065397	0.209633
Cl165	Cl	1.081310	-0.797379	0.201336
Cl166	Cl	1.581310	-0.297379	0.701336
Cl167	Cl	1.088074	-0.451599	-0.290372
Cl168	Cl	1.588074	0.048401	0.209628
