data_functionalizedCrystal
_audit_creation_method	'MofGen! by Chris Wilmer'
_symmetry_space_group_name_H-M	'P1'
_symmetry_Int_Tables_number	1
_symmetry_cell_setting	triclinic
loop_
_symmetry_equiv_pos_as_xyz
  x,y,z
_cell_length_a	17.640112
_cell_length_b	18.050590
_cell_length_c	17.640968
_cell_angle_alpha	78.766172
_cell_angle_beta	92.139080
_cell_angle_gamma	101.243844
loop_
_atom_site_label
_atom_site_type_symbol
_atom_site_fract_x
_atom_site_fract_y
_atom_site_fract_z
Zn1	Zn	1.247780	-0.021338	-0.195079
Zn2	Zn	1.747780	0.478662	0.304921
Zn3	Zn	1.222020	-0.174557	-0.068090
Zn4	Zn	1.722020	0.325443	0.431910
Zn5	Zn	1.095115	-0.069647	-0.093723
Zn6	Zn	1.595115	0.430353	0.406277
Zn7	Zn	1.120761	-0.164781	-0.220672
Zn8	Zn	1.620761	0.335219	0.279328
O9	O	1.171419	-0.107581	-0.144391
O10	O	1.671419	0.392419	0.355609
O11	O	1.350631	-0.025537	-0.156795
O12	O	1.850631	0.474463	0.343205
O13	O	1.183673	-0.184949	0.034784
O14	O	1.683673	0.315051	0.534784
O15	O	1.115414	0.040698	-0.107185
O16	O	1.615414	0.540698	0.392815
O17	O	1.331706	-0.138106	-0.063497
O18	O	1.831706	0.361894	0.436503
O19	O	1.227576	0.076190	-0.181651
O20	O	1.727576	0.576190	0.318349
O21	O	1.090436	-0.107872	0.015951
O22	O	1.590436	0.392128	0.515951
O23	O	0.992249	-0.098393	-0.132001
O24	O	1.492249	0.401607	0.367999
O25	O	1.159123	-0.121445	-0.323551
O26	O	1.659123	0.378555	0.176449
O27	O	1.011090	-0.168288	-0.225271
O28	O	1.511090	0.331712	0.274729
O29	O	1.252443	-0.016058	-0.304748
O30	O	1.752443	0.483942	0.195252
O31	O	1.208540	-0.277197	-0.088314
O32	O	1.708540	0.222803	0.411686
O33	O	1.134145	-0.270015	-0.200415
O34	O	1.634145	0.229985	0.299585
C35	C	0.974116	-0.137522	-0.184195
C36	C	1.474116	0.362478	0.315805
C37	C	0.889712	-0.150345	-0.201242
C38	C	1.389712	0.349655	0.298758
C39	C	0.563040	-0.010153	-0.014898
C40	C	1.063040	0.489847	0.485102
C41	C	0.483732	-0.022215	-0.030926
C42	C	0.983732	0.477785	0.469074
C43	C	0.503372	-0.095166	-0.127879
C44	C	1.003372	0.404834	0.372121
C45	C	0.582684	-0.083107	-0.111862
C46	C	1.082684	0.416893	0.388138
C47	C	0.612511	-0.040601	-0.055370
C48	C	1.112511	0.459399	0.444630
C49	C	0.632155	-0.113555	-0.152334
C50	C	1.132155	0.386445	0.347666
C51	C	0.711459	-0.101500	-0.136315
C52	C	1.211459	0.398500	0.363685
C53	C	0.741292	-0.058998	-0.079824
C54	C	1.241292	0.441002	0.420176
C55	C	0.691815	-0.028547	-0.039351
C56	C	1.191815	0.471453	0.460649
C57	C	0.602326	-0.156065	-0.208822
C58	C	1.102326	0.343935	0.291178
C59	C	0.651797	-0.186513	-0.249295
C60	C	1.151797	0.313487	0.250705
C61	C	0.731103	-0.174454	-0.233280
C62	C	1.231103	0.325546	0.266720
C63	C	0.760936	-0.131952	-0.176788
C64	C	1.260936	0.368048	0.323212
C65	C	0.780581	-0.204905	-0.273753
C66	C	1.280581	0.295095	0.226247
C67	C	0.859885	-0.192851	-0.257734
C68	C	1.359885	0.307149	0.242266
C69	C	0.840241	-0.119897	-0.160769
C70	C	1.340241	0.380103	0.339231
C71	C	1.171354	-0.300549	-0.144373
C72	C	1.671354	0.199451	0.355627
C73	C	1.171401	-0.383085	-0.144376
C74	C	1.671401	0.116915	0.355624
C75	C	1.211977	-0.586382	-0.083465
C76	C	1.711977	-0.086382	0.416535
C77	C	1.244542	-0.617065	-0.149036
C78	C	1.744542	-0.117065	0.350964
C79	C	1.171451	-0.534202	-0.144398
C80	C	1.671451	-0.034202	0.355602
C81	C	1.138970	-0.650582	-0.078842
C82	C	1.638970	-0.150582	0.421158
C83	C	1.171498	-0.680175	-0.144412
C84	C	1.671498	-0.180175	0.355588
C85	C	1.204058	-0.563783	-0.209998
C86	C	1.704058	-0.063783	0.290002
C87	C	1.098444	-0.597312	-0.139764
C88	C	1.598444	-0.097312	0.360236
C89	C	1.130992	-0.627965	-0.205388
C90	C	1.630992	-0.127965	0.294612
C91	C	1.171425	-0.450110	-0.144388
C92	C	1.671425	0.049890	0.355612
C93	C	1.171526	-0.764263	-0.144430
C94	C	1.671526	-0.264263	0.355570
C95	C	1.369493	-0.077523	-0.104432
C96	C	1.869493	0.422477	0.395568
C97	C	1.453900	-0.064714	-0.087404
C98	C	1.953900	0.435286	0.412596
C99	C	1.211517	-0.062272	-0.342476
C100	C	1.711517	0.437728	0.157524
C101	C	1.228605	-0.042964	-0.426888
C102	C	1.728605	0.457036	0.073112
C103	C	1.171508	0.086148	-0.144422
C104	C	1.671508	0.586148	0.355578
C105	C	1.171546	0.168703	-0.144435
C106	C	1.671546	0.668703	0.355565
C107	C	1.041898	-0.253812	-0.753452
C108	C	1.541898	0.246188	-0.253452
C109	C	1.057970	-0.235658	-0.832766
C110	C	1.557970	0.264342	-0.332766
C111	C	1.155137	-0.125928	-0.813178
C112	C	1.655137	0.374072	-0.313178
C113	C	1.139070	-0.144071	-0.733860
C114	C	1.639070	0.355929	-0.233860
C115	C	1.082450	-0.208015	-0.704004
C116	C	1.582450	0.291985	-0.204004
C117	C	1.179622	-0.098273	-0.684412
C118	C	1.679622	0.401727	-0.184412
C119	C	1.163559	-0.116417	-0.605101
C120	C	1.663559	0.383583	-0.105101
C121	C	1.106944	-0.180359	-0.575238
C122	C	1.606944	0.319641	-0.075238
C123	C	1.066387	-0.226159	-0.624693
C124	C	1.566387	0.273841	-0.124693
C125	C	1.236245	-0.034332	-0.714270
C126	C	1.736245	0.465668	-0.214270
C127	C	1.276797	0.011465	-0.664822
C128	C	1.776797	0.511465	-0.164822
C129	C	1.260731	-0.006676	-0.585510
C130	C	1.760731	0.493324	-0.085510
C131	C	1.204116	-0.070618	-0.555647
C132	C	1.704116	0.429382	-0.055647
C133	C	1.301287	0.039124	-0.536056
C134	C	1.801287	0.539124	-0.036056
C135	C	1.285224	0.020980	-0.456744
C136	C	1.785224	0.520980	0.043256
C137	C	1.188053	-0.088762	-0.476336
C138	C	1.688053	0.411238	0.023664
C139	C	1.131520	-0.152653	0.052932
C140	C	1.631520	0.347347	0.552932
C141	C	1.114580	-0.171729	0.137373
C142	C	1.614580	0.328271	0.637373
H143	H	0.756282	-0.239520	-0.319743
H144	H	1.256282	0.260480	0.180257
H145	H	0.537750	-0.165878	-0.221863
H146	H	1.037750	0.334122	0.278137
O147	O	0.872417	-0.074045	-0.099842
O148	O	1.372417	0.425955	0.400158
H149	H	0.935874	-0.070776	-0.095509
H150	H	1.435874	0.429224	0.404491
O151	O	1.326351	-0.629205	-0.154247
O152	O	1.826351	-0.129205	0.345753
H153	H	1.332845	-0.651647	-0.207439
H154	H	1.832845	-0.151647	0.292561
H155	H	0.443455	0.002589	0.002031
H156	H	0.943455	0.502589	0.502031
H157	H	0.627500	-0.221124	-0.295288
H158	H	1.127500	0.278876	0.204712
O159	O	0.980825	-0.322779	-0.721246
O160	O	1.480825	0.177221	-0.221246
H161	H	0.934887	-0.303658	-0.692920
H162	H	1.434887	0.196342	-0.192920
O163	O	0.826827	-0.045996	-0.062537
O164	O	1.326827	0.454004	0.437463
H165	H	0.859358	-0.014778	-0.115613
H166	H	1.359358	0.485222	0.384387
H167	H	1.246273	-0.567974	-0.031977
H168	H	1.746273	-0.067974	0.468023
H169	H	1.024944	-0.272957	-0.873026
H170	H	1.524944	0.227043	-0.373026
H171	H	1.111479	-0.688087	-0.023396
H172	H	1.611479	-0.188087	0.476604
O173	O	1.216183	-0.056950	-0.845399
O174	O	1.716183	0.443050	-0.345399
H175	H	1.262124	-0.076047	-0.873743
H176	H	1.762124	0.423953	-0.373743
O177	O	1.240577	-0.514215	-0.283445
O178	O	1.740577	-0.014215	0.216555
H179	H	1.240299	-0.452894	-0.282848
H180	H	1.740299	0.047106	0.217152
O181	O	0.913253	-0.225682	-0.301387
O182	O	1.413253	0.274318	0.198613
H183	H	0.879191	-0.257256	-0.343367
H184	H	1.379191	0.242744	0.156633
O185	O	1.085629	-0.652138	-0.273711
O186	O	1.585629	-0.152138	0.226289
H187	H	1.112773	-0.616722	-0.328017
H188	H	1.612773	-0.116722	0.171983
O189	O	1.253568	-0.014755	-0.799814
O190	O	1.753568	0.485245	-0.299814
H191	H	1.273115	-0.063665	-0.817628
H192	H	1.773115	0.436335	-0.317628
O193	O	1.337843	0.080449	-0.697029
O194	O	1.837843	0.580449	-0.197029
H195	H	1.342191	0.085382	-0.760489
H196	H	1.842191	0.585382	-0.260489
O197	O	1.328956	0.070375	-0.403403
O198	O	1.828956	0.570375	0.096597
H199	H	1.371019	0.117892	-0.437490
H200	H	1.871019	0.617892	0.062510
H201	H	1.093869	-0.195134	-0.510657
H202	H	1.593869	0.304866	-0.010657
H203	H	1.036695	-0.588134	-0.135807
H204	H	1.536695	-0.088134	0.364193
H205	H	1.347392	0.091182	-0.560376
H206	H	1.847392	0.591182	-0.060376
H207	H	1.141929	-0.140816	-0.452029
H208	H	1.641929	0.359184	0.047971
H209	H	1.020264	-0.278213	-0.600386
H210	H	1.520264	0.221787	-0.100386
H211	H	0.479075	-0.129777	-0.173873
H212	H	0.979075	0.370223	0.326127
H213	H	0.716104	0.006080	0.006639
H214	H	1.216104	0.506080	0.506639
H215	H	0.587329	0.024473	0.031093
H216	H	1.087329	0.524473	0.531093
