data_functionalizedCrystal
_audit_creation_method	'MofGen! by Chris Wilmer'
_symmetry_space_group_name_H-M	'P1'
_symmetry_Int_Tables_number	1
_symmetry_cell_setting	triclinic
loop_
_symmetry_equiv_pos_as_xyz
  x,y,z
_cell_length_a	14.908782
_cell_length_b	16.625545
_cell_length_c	16.625539
_cell_angle_alpha	89.973757
_cell_angle_beta	93.285106
_cell_angle_gamma	86.732496
loop_
_atom_site_label
_atom_site_type_symbol
_atom_site_fract_x
_atom_site_fract_y
_atom_site_fract_z
Zn1	Zn	1.379088	-0.392086	-0.384643
Zn2	Zn	1.712422	-0.058752	-0.051310
Zn3	Zn	2.045755	0.274581	0.282023
Zn4	Zn	1.378981	-0.526919	-0.249817
Zn5	Zn	1.712315	-0.193586	0.083517
Zn6	Zn	2.045648	0.139748	0.416850
Zn7	Zn	1.228239	-0.384336	-0.257619
Zn8	Zn	1.561572	-0.051002	0.075714
Zn9	Zn	1.894906	0.282331	0.409047
Zn10	Zn	1.228189	-0.519103	-0.392399
Zn11	Zn	1.561522	-0.185770	-0.059066
Zn12	Zn	1.894855	0.147563	0.274268
O13	O	1.303624	-0.455611	-0.321120
O14	O	1.636958	-0.122278	0.012214
O15	O	1.970291	0.211056	0.345547
O16	O	1.505313	-0.416486	-0.360247
O17	O	1.838646	-0.083153	-0.026914
O18	O	2.171979	0.250181	0.306420
O19	O	1.358961	-0.508032	-0.138020
O20	O	1.692295	-0.174699	0.195313
O21	O	2.025628	0.158634	0.528646
O22	O	1.248315	-0.272535	-0.274489
O23	O	1.581649	0.060799	0.058844
O24	O	1.914982	0.394132	0.392178
O25	O	1.505234	-0.515547	-0.261190
O26	O	1.838567	-0.182214	0.072143
O27	O	2.171901	0.151119	0.405476
O28	O	1.359144	-0.278229	-0.367813
O29	O	1.692477	0.055105	-0.034480
O30	O	2.025811	0.388438	0.298854
O31	O	1.248212	-0.403277	-0.143753
O32	O	1.581545	-0.069944	0.189580
O33	O	1.914878	0.263390	0.522914
O34	O	1.101994	-0.395699	-0.282009
O35	O	1.435327	-0.062365	0.051324
O36	O	1.768661	0.270968	0.384657
O37	O	1.248229	-0.502227	-0.504201
O38	O	1.581563	-0.168894	-0.170868
O39	O	1.914896	0.164440	0.162465
O40	O	1.101957	-0.494712	-0.381031
O41	O	1.435290	-0.161379	-0.047698
O42	O	1.768624	0.171955	0.285635
O43	O	1.359095	-0.408908	-0.498503
O44	O	1.692428	-0.075574	-0.165170
O45	O	2.025762	0.257759	0.168163
O46	O	1.358912	-0.638711	-0.268711
O47	O	1.692246	-0.305378	0.064623
O48	O	2.025579	0.027955	0.397956
O49	O	1.248126	-0.632969	-0.373465
O50	O	1.581459	-0.299636	-0.040132
O51	O	1.914792	0.033697	0.293201
C52	C	1.069243	-0.443517	-0.333209
C53	C	1.402577	-0.110183	0.000124
C54	C	1.735910	0.223150	0.333457
C55	C	0.968974	-0.438362	-0.338400
C56	C	1.302307	-0.105029	-0.005067
C57	C	1.635641	0.228304	0.328266
C58	C	0.780474	-0.531688	-0.244850
C59	C	1.113807	-0.198354	0.088484
C60	C	1.447140	0.134979	0.421817
C61	C	0.686262	-0.526847	-0.249725
C62	C	1.019595	-0.193514	0.083609
C63	C	1.352929	0.139820	0.416942
C64	C	0.686336	-0.423846	-0.353029
C65	C	1.019670	-0.090512	-0.019695
C66	C	1.353003	0.242821	0.313638
C67	C	0.780548	-0.428686	-0.348154
C68	C	1.113882	-0.095353	-0.014820
C69	C	1.447215	0.237981	0.318513
C70	C	0.827614	-0.482608	-0.294062
C71	C	1.160947	-0.149275	0.039272
C72	C	1.494280	0.184059	0.372605
C73	C	0.921827	-0.487444	-0.289183
C74	C	1.255161	-0.154110	0.044150
C75	C	1.588494	0.179223	0.377484
C76	C	0.921900	-0.384447	-0.392491
C77	C	1.255234	-0.051113	-0.059157
C78	C	1.588567	0.282220	0.274176
C79	C	0.827688	-0.379606	-0.397366
C80	C	1.161022	-0.046273	-0.064032
C81	C	1.494355	0.287060	0.269301
C82	C	1.303526	-0.665097	-0.321099
C83	C	1.636860	-0.331763	0.012234
C84	C	1.970193	0.001570	0.345567
C85	C	1.303567	-0.754720	-0.321113
C86	C	1.636900	-0.421387	0.012220
C87	C	1.970234	-0.088053	0.345553
C88	C	1.303602	-0.827504	-0.321128
C89	C	1.636935	-0.494171	0.012206
C90	C	1.970269	-0.160837	0.345539
C91	C	1.303654	-0.918815	-0.321143
C92	C	1.636988	-0.585482	0.012191
C93	C	1.970321	-0.252149	0.345524
C94	C	1.303701	-0.991594	-0.321150
C95	C	1.637035	-0.658261	0.012183
C96	C	1.970368	-0.324927	0.345516
C97	C	1.303753	-1.082911	-0.321164
C98	C	1.637086	-0.749578	0.012169
C99	C	1.970420	-0.416244	0.345502
C100	C	1.538921	-0.467753	-0.308983
C101	C	1.872254	-0.134420	0.024350
C102	C	2.205587	0.198914	0.357683
C103	C	1.639190	-0.472927	-0.303812
C104	C	1.972523	-0.139594	0.029522
C105	C	2.305857	0.193740	0.362855
C106	C	1.303669	-0.455560	-0.531426
C107	C	1.637002	-0.122227	-0.198093
C108	C	1.970335	0.211107	0.135240
C109	C	1.303687	-0.455538	-0.621047
C110	C	1.637021	-0.122205	-0.287713
C111	C	1.970354	0.211128	0.045620
C112	C	1.303747	-0.245308	-0.321156
C113	C	1.637081	0.088025	0.012177
C114	C	1.970414	0.421358	0.345510
C115	C	1.303800	-0.155690	-0.321172
C116	C	1.637133	0.177643	0.012161
C117	C	1.970466	0.510977	0.345495
C118	C	1.303702	-0.455521	-0.693828
C119	C	1.637035	-0.122188	-0.360495
C120	C	1.970369	0.211145	-0.027162
C121	C	1.303723	-0.455492	-0.785136
C122	C	1.637056	-0.122159	-0.451802
C123	C	1.970390	0.211174	-0.118469
C124	C	1.303744	-0.455465	-0.857911
C125	C	1.637078	-0.122132	-0.524578
C126	C	1.970411	0.211202	-0.191244
C127	C	1.303767	-0.455437	-0.949224
C128	C	1.637100	-0.122104	-0.615891
C129	C	1.970434	0.211230	-0.282558
C130	C	1.303632	-0.455606	-0.111628
C131	C	1.636966	-0.122273	0.221705
C132	C	1.970299	0.211061	0.555038
C133	C	1.303788	-0.455410	-0.022000
C134	C	1.637121	-0.122076	0.311334
C135	C	1.970455	0.211257	0.644667
H136	H	0.647884	-0.566814	-0.209653
H137	H	0.981217	-0.233481	0.123681
H138	H	1.314551	0.099852	0.457014
H139	H	0.648000	-0.379952	-0.397074
H140	H	0.981333	-0.046618	-0.063741
H141	H	1.314666	0.286715	0.269592
H142	H	0.789355	-0.335707	-0.441408
H143	H	1.122688	-0.002374	-0.108075
H144	H	1.456021	0.330960	0.225259
H145	H	0.960147	-0.531348	-0.245137
H146	H	1.293480	-0.198015	0.088197
H147	H	1.626813	0.135318	0.421530
H148	H	0.818795	-0.575588	-0.200801
H149	H	1.152129	-0.242255	0.132532
H150	H	1.485462	0.091079	0.465866
H151	H	0.960292	-0.344479	-0.432559
H152	H	1.293625	-0.011145	-0.099226
H153	H	1.626958	0.322188	0.234108
