data_functionalizedCrystal
_audit_creation_method	'MofGen! by Chris Wilmer'
_symmetry_space_group_name_H-M	'P1'
_symmetry_Int_Tables_number	1
_symmetry_cell_setting	triclinic
loop_
_symmetry_equiv_pos_as_xyz
  x,y,z
_cell_length_a	12.837943
_cell_length_b	11.792241
_cell_length_c	11.892095
_cell_angle_alpha	93.915739
_cell_angle_beta	85.689438
_cell_angle_gamma	89.511178
loop_
_atom_site_label
_atom_site_type_symbol
_atom_site_fract_x
_atom_site_fract_y
_atom_site_fract_z
O1	O	1.383703	0.288690	-0.093984
O2	O	1.081816	0.274106	-0.093991
O3	O	1.240085	0.116971	-0.093980
O4	O	1.225434	0.445825	-0.093996
O5	O	1.226889	0.130050	0.094027
O6	O	1.068620	0.287185	0.094016
O7	O	1.370507	0.301770	0.094022
Zn8	Zn	1.217468	0.296554	0.123869
Zn9	Zn	1.234855	0.279322	-0.123838
O10	O	1.212238	0.458904	0.094011
C11	C	1.036570	0.275719	0.000012
C12	C	0.921410	0.261025	0.000009
C13	C	0.681444	0.437671	0.000017
C14	C	0.573241	0.423870	0.000015
C15	C	0.596797	0.219624	0.000013
C16	C	0.705001	0.233425	0.000015
C17	C	0.747320	0.342452	0.000015
C18	C	0.855526	0.356251	0.000008
C19	C	0.879080	0.152006	0.000014
C20	C	0.770877	0.138205	0.000013
C21	C	1.232566	0.081126	0.000023
C22	C	1.229812	-0.045167	0.000022
C23	C	1.224748	-0.276394	0.000003
C24	C	1.227561	-0.147723	0.000014
C25	C	1.415753	0.300157	0.000017
C26	C	1.530913	0.314850	0.000012
C27	C	1.219756	0.494749	0.000005
C28	C	1.222512	0.621042	-0.000001
N29	N	1.205610	0.308315	0.292922
N30	N	1.246721	0.267553	-0.292891
C31	C	1.329237	0.185651	0.529579
C32	C	1.320956	0.193880	0.647920
C33	C	1.180761	0.332997	0.647948
C34	C	1.189043	0.324768	0.529607
C35	C	1.263284	0.251093	0.470427
C36	C	1.271570	0.242870	0.352083
C37	C	1.131371	0.381980	0.352113
C38	C	1.123090	0.390210	0.470454
H39	H	0.889980	0.445026	0.000010
C40	C	1.479595	0.167152	0.396500
C41	C	1.410871	0.104696	0.464537
H42	H	1.530003	0.117178	0.356358
H43	H	1.441498	0.204918	0.344325
H44	H	1.513904	0.221706	0.442680
H45	H	1.376556	0.050148	0.418355
H46	H	1.448972	0.066911	0.516718
C47	C	1.118375	0.525504	0.684402
C48	C	1.099144	0.413964	0.713002
H49	H	1.067979	0.575483	0.724557
H50	H	1.186295	0.546715	0.703799
H51	H	1.113874	0.529959	0.605454
H52	H	1.103653	0.409507	0.791949
H53	H	1.031207	0.392747	0.693613
C54	C	0.805031	-0.062297	0.000004
C55	C	0.724355	0.018366	0.000008
H56	H	0.776310	-0.136281	0.000004
H57	H	0.851341	-0.057218	-0.065554
H58	H	0.842145	-0.048105	0.065571
H59	H	0.687245	0.004179	-0.065564
H60	H	0.678027	0.013283	0.065572
H61	H	0.932729	0.074471	0.000005
H62	H	1.077670	0.435272	0.303938
C63	C	1.302452	0.081456	0.219059
C64	C	1.353142	0.161832	0.287056
H65	H	1.352805	0.031413	0.178921
H66	H	1.255794	0.039182	0.265258
H67	H	1.264391	0.119266	0.166870
H68	H	1.391197	0.124023	0.339251
H69	H	1.399818	0.204111	0.240853
H70	H	0.715901	0.526445	0.000015
C71	C	1.460363	0.055545	0.636001
C72	C	1.393454	0.121945	0.712942
H73	H	1.505124	0.011138	0.676145
H74	H	1.420186	0.006795	0.589857
H75	H	1.501167	0.103676	0.589832
H76	H	1.352644	0.073814	0.759105
H77	H	1.433635	0.170700	0.759105
C78	C	0.560830	0.627142	0.000005
C79	C	0.500829	0.528538	0.000008
H80	H	0.516124	0.691760	-0.000005
H81	H	0.598917	0.632836	0.065566
H82	H	0.608130	0.623709	-0.065559
H83	H	0.453534	0.531967	0.065578
H84	H	0.462724	0.522843	-0.065558
H85	H	1.062641	0.450192	0.518653
H86	H	0.562315	0.130865	0.000107
