data_functionalizedCrystal
_audit_creation_method	'MofGen! by Chris Wilmer'
_symmetry_space_group_name_H-M	'P1'
_symmetry_Int_Tables_number	1
_symmetry_cell_setting	triclinic
loop_
_symmetry_equiv_pos_as_xyz
  x,y,z
_cell_length_a	16.992694
_cell_length_b	8.559649
_cell_length_c	15.455313
_cell_angle_alpha	92.289439
_cell_angle_beta	87.142206
_cell_angle_gamma	80.223444
loop_
_atom_site_label
_atom_site_type_symbol
_atom_site_fract_x
_atom_site_fract_y
_atom_site_fract_z
O1	O	1.023967	0.329735	-0.072017
O2	O	0.795905	0.326044	-0.072043
O3	O	0.930028	0.097853	-0.072027
O4	O	0.889844	0.557925	-0.072033
O5	O	0.922362	0.110845	0.072234
O6	O	0.788239	0.339035	0.072218
O7	O	1.016301	0.342726	0.072244
Cu8	Cu	0.901570	0.342067	0.085403
Cu9	Cu	0.910636	0.326703	-0.085202
O10	O	0.882177	0.570917	0.072228
C11	C	0.763145	0.327794	0.000084
C12	C	0.676954	0.313635	0.000075
C13	C	0.929241	0.045208	0.000102
C14	C	0.938306	-0.131015	0.000099
C15	C	0.618488	0.450242	0.000073
C16	C	0.537502	0.436931	0.000086
C17	C	0.514985	0.287010	0.000093
C18	C	0.573459	0.150392	0.000096
C19	C	0.654442	0.163706	0.000090
C20	C	0.274709	0.231831	0.000117
C21	C	0.193718	0.218527	0.000120
C22	C	0.157767	0.505067	0.000111
C23	C	0.238755	0.518367	0.000099
C24	C	0.297221	0.381750	0.000108
N25	N	0.432205	0.273400	0.000102
N26	N	0.379998	0.395362	0.000104
C27	C	1.049061	0.340976	0.000115
C28	C	1.135252	0.355134	0.000119
C29	C	0.882965	0.623562	0.000097
C30	C	0.873900	0.799784	0.000095
N31	N	0.895199	0.352873	0.205398
N32	N	0.917014	0.315885	-0.205197
C33	C	0.952194	0.255970	0.250799
C34	C	0.947382	0.264158	0.341606
C35	C	0.885578	0.369258	0.387011
C36	C	0.828576	0.466164	0.341604
C37	C	0.833386	0.457968	0.250798
C38	C	0.864822	0.404595	0.658590
C39	C	0.860018	0.412788	0.749402
C40	C	0.978824	0.210778	0.749398
C41	C	0.983631	0.202598	0.658591
C42	C	0.926627	0.299499	0.613191
N43	N	0.880659	0.377633	0.479831
N44	N	0.931543	0.291114	0.520373
H45	H	0.489900	0.548172	0.000084
H46	H	0.257081	0.640447	0.000084
C47	C	0.169388	0.055636	-0.000006
C48	C	0.203884	-0.034272	-0.074209
C49	C	0.181494	-0.184331	-0.074352
H50	H	0.112802	0.067055	-0.000052
H51	H	0.187402	0.003397	0.050278
H52	H	0.185865	0.017954	-0.124480
H53	H	0.260469	-0.045736	-0.074178
H54	H	0.199508	-0.236569	-0.024068
H55	H	0.124908	-0.172895	-0.074397
H56	H	0.204902	-0.245356	-0.124694
C57	C	0.643093	0.612872	0.000018
C58	C	0.726531	0.595299	-0.000012
C59	C	0.749224	0.745080	-0.000074
H60	H	0.619849	0.674222	0.050311
H61	H	0.625143	0.665039	-0.050310
H62	H	0.744473	0.543156	0.050311
H63	H	0.749795	0.533976	-0.050301
H64	H	0.731273	0.797247	-0.050402
H65	H	0.725974	0.806419	0.050220
H66	H	0.805838	0.733176	-0.000102
C67	C	0.803066	0.509913	0.609202
C68	C	0.841430	0.607589	0.557044
C69	C	0.784567	0.704627	0.511525
H70	H	0.765551	0.573824	0.649155
H71	H	0.775994	0.445559	0.573735
H72	H	0.868489	0.671936	0.592507
H73	H	0.878940	0.543720	0.517074
H74	H	0.757494	0.640274	0.476059
H75	H	0.747054	0.768528	0.551485
H76	H	0.810589	0.770901	0.476125
H77	H	1.002525	0.170394	0.213836
H78	H	0.811825	-0.124646	0.000091
H79	H	0.702046	0.052465	0.000091
C80	C	0.771452	0.563370	0.201659
C81	C	0.716309	0.657199	0.260856
C82	C	0.659247	0.754327	0.215622
H83	H	0.744292	0.499131	0.166242
H84	H	0.797313	0.629874	0.166244
H85	H	0.690450	0.590702	0.296255
H86	H	0.743444	0.721470	0.296274
H87	H	0.685108	0.820831	0.180207
H88	H	0.632094	0.690076	0.180206
H89	H	0.621830	0.818012	0.255779
H90	H	1.033957	0.117017	0.621624
C91	C	0.094367	0.653533	0.000244
C92	C	0.099303	0.749908	0.074450
C93	C	0.040919	0.886704	0.074599
H94	H	0.042868	0.624367	0.000294
H95	H	0.102925	0.710140	-0.050039
H96	H	0.090740	0.693311	0.124720
H97	H	0.150789	0.779116	0.074416
H98	H	0.049477	0.943311	0.024316
H99	H	-0.010576	0.857522	0.074646
H100	H	0.044265	0.952117	0.124942
H101	H	1.000384	-0.206593	0.000112
H102	H	0.322303	0.120586	0.000124
H103	H	0.555118	0.028324	0.000115
H104	H	0.993792	0.185251	0.378571
C105	C	1.040684	0.105291	0.798582
C106	C	1.038629	-0.054142	0.776487
C107	C	1.095608	-0.151373	0.821770
H108	H	1.029036	0.125006	0.859178
H109	H	1.092385	0.127754	0.783676
H110	H	0.986939	-0.076596	0.791399
H111	H	1.050286	-0.073906	0.715899
H112	H	1.147310	-0.128911	0.806864
H113	H	1.083955	-0.131644	0.882364
H114	H	1.094227	-0.259558	0.806779
H115	H	0.809687	0.498379	0.786366
H116	H	0.778250	0.551733	0.378578
