data_functionalizedCrystal
_audit_creation_method	'MofGen! by Chris Wilmer'
_symmetry_space_group_name_H-M	'P1'
_symmetry_Int_Tables_number	1
_symmetry_cell_setting	triclinic
loop_
_symmetry_equiv_pos_as_xyz
  x,y,z
_cell_length_a	14.853566
_cell_length_b	14.185569
_cell_length_c	14.853569
_cell_angle_alpha	103.174964
_cell_angle_beta	83.634990
_cell_angle_gamma	76.824025
loop_
_atom_site_label
_atom_site_type_symbol
_atom_site_fract_x
_atom_site_fract_y
_atom_site_fract_z
O1	O	1.175956	0.083356	0.138098
O2	O	0.913493	0.083373	0.152125
O3	O	1.051737	0.083355	0.013879
O4	O	1.037712	0.083375	0.276344
O5	O	1.092576	-0.083485	-0.026955
O6	O	0.954331	-0.083467	0.111290
O7	O	1.216795	-0.083484	0.097264
Cu8	Cu	1.089292	-0.098709	0.100549
Cu9	Cu	1.040996	0.098599	0.148840
O10	O	1.078551	-0.083465	0.235509
C11	C	0.900323	-0.000045	0.131073
C12	C	0.800238	-0.000039	0.129171
C13	C	0.354796	0.090888	0.143375
C14	C	0.399341	-0.091008	0.098856
C15	C	0.493374	-0.091005	0.100644
C16	C	0.518122	-0.000054	0.123800
C17	C	0.448837	0.090894	0.145167
C18	C	0.562665	-0.181950	0.079287
C19	C	0.656705	-0.181951	0.081075
C20	C	0.681455	-0.090999	0.104224
C21	C	0.612163	-0.000048	0.125591
C22	C	0.636911	0.090903	0.148746
C23	C	0.567622	0.181855	0.170107
C24	C	0.473587	0.181846	0.168316
C25	C	0.775490	-0.090989	0.106016
C26	C	0.730952	0.090909	0.150538
N27	N	1.123268	-0.237485	0.066582
C28	C	0.907207	-0.605106	0.282553
C29	C	0.932949	-0.710131	0.256830
C30	C	1.055389	-0.710108	0.134459
C31	C	1.029654	-0.605081	0.160169
C32	C	0.955563	-0.552588	0.234217
C33	C	1.078010	-0.552563	0.111833
C34	C	1.052280	-0.447545	0.137544
C35	C	0.978194	-0.395045	0.211591
C36	C	0.929833	-0.447570	0.259928
C37	C	1.152106	-0.605058	0.037789
C38	C	1.200462	-0.552540	-0.010546
C39	C	1.174728	-0.447521	0.015160
C40	C	1.100641	-0.395020	0.089207
C41	C	1.223089	-0.394995	-0.033177
C42	C	1.197359	-0.289978	-0.007466
C43	C	1.074911	-0.290002	0.114918
C44	C	1.229964	-0.000064	0.118316
C45	C	1.330048	-0.000063	0.120220
C46	C	1.071521	-0.000066	-0.040127
C47	C	1.069617	-0.000066	-0.140210
N48	N	1.007027	0.237374	0.182799
C49	C	0.986605	-0.000063	-0.176586
C50	C	1.150837	-0.000063	-0.197876
C51	C	1.149050	-0.000058	-0.291909
C52	C	1.066038	-0.000055	-0.328284
C53	C	0.984814	-0.000055	-0.270626
C54	C	1.230270	-0.000047	-0.349571
C55	C	1.228486	-0.000042	-0.443610
C56	C	1.145474	-0.000045	-0.479989
C57	C	1.064247	-0.000047	-0.422325
C58	C	0.981236	-0.000044	-0.458700
C59	C	0.900009	-0.000053	-0.401040
C60	C	0.901803	-0.000059	-0.307005
C61	C	1.143681	-0.000039	-0.574024
C62	C	0.979445	-0.000036	-0.552741
C63	C	1.058766	-0.000043	0.289516
C64	C	1.060669	-0.000035	0.389601
H65	H	0.379184	-0.165056	0.080010
N66	N	0.594315	0.279952	0.195076
H67	H	0.560974	0.319722	0.260337
H68	H	0.664408	0.266068	0.192916
N69	N	1.249506	-0.233346	-0.059627
H70	H	1.204324	-0.189791	-0.088940
H71	H	1.278796	-0.189815	-0.014403
N72	N	0.898998	-0.000062	-0.114398
H73	H	0.846142	-0.000056	-0.151714
H74	H	0.911304	-0.061916	-0.090066
H75	H	1.014573	-0.247261	0.175209
N76	N	1.231281	-0.000041	-0.636213
H77	H	1.217554	-0.000041	-0.701306
H78	H	1.252310	0.061809	-0.609282
H79	H	0.751093	0.164973	0.169391
H80	H	0.846868	-0.562364	0.342844
H81	H	0.417164	0.255894	0.185705
N82	N	1.316090	-0.000038	-0.505799
H83	H	1.368948	-0.000043	-0.468485
H84	H	1.334064	-0.061890	-0.560419
H85	H	0.298377	0.164939	0.160763
H86	H	0.542507	-0.255997	0.060441
H87	H	1.218427	-0.000085	-0.168258
H88	H	0.893566	-0.752885	0.296198
N89	N	0.849911	-0.390941	0.339786
H90	H	0.823175	-0.440144	0.366506
H91	H	0.873794	-0.347360	0.390376
N92	N	1.319801	-0.000071	-0.310339
H93	H	1.309069	0.061762	-0.256642
H94	H	1.339283	-0.061974	-0.287010
N95	N	0.731434	-0.280042	0.058040
H96	H	0.701485	-0.337659	0.043102
H97	H	0.778659	-0.284009	0.001967
N98	N	0.950440	-0.281775	0.239311
H99	H	0.882980	-0.256499	0.232271
H100	H	0.957485	-0.256546	0.306775
N101	N	0.850220	-0.189074	0.082990
H102	H	0.820272	-0.246691	0.068055
H103	H	0.897447	-0.193045	0.026917
N104	N	0.889912	-0.000046	-0.591976
H105	H	0.838734	-0.000056	-0.541179
H106	H	0.870442	0.061806	-0.615381
H107	H	0.832419	-0.000044	-0.430667
H108	H	1.283421	-0.437749	-0.093462
H109	H	1.173055	-0.690570	0.016861
N110	N	1.135303	-0.766727	0.054600
H111	H	1.144268	-0.841226	0.045646
H112	H	1.120311	-0.748376	-0.004883
H113	H	1.260790	-0.595292	-0.070835
N114	N	0.814214	-0.000084	-0.244807
H115	H	0.796153	0.061758	-0.190168
H116	H	0.761407	-0.000127	-0.282180
