data_functionalizedCrystal
_audit_creation_method	'MofGen! by Chris Wilmer'
_symmetry_space_group_name_H-M	'P1'
_symmetry_Int_Tables_number	1
_symmetry_cell_setting	triclinic
loop_
_symmetry_equiv_pos_as_xyz
  x,y,z
_cell_length_a	10.654550
_cell_length_b	8.559649
_cell_length_c	9.730223
_cell_angle_alpha	90.000781
_cell_angle_beta	89.996251
_cell_angle_gamma	77.131784
loop_
_atom_site_label
_atom_site_type_symbol
_atom_site_fract_x
_atom_site_fract_y
_atom_site_fract_z
O1	O	1.644677	0.224178	-0.114394
O2	O	1.276992	0.245537	-0.114371
O3	O	1.493228	0.002614	-0.114383
O4	O	1.428441	0.467100	-0.114382
O5	O	1.493225	0.002620	0.114197
O6	O	1.276989	0.245543	0.114209
O7	O	1.644674	0.224184	0.114186
Zn8	Zn	1.460831	0.234864	0.150489
Zn9	Zn	1.460835	0.234856	-0.150675
O10	O	1.428438	0.467106	0.114198
C11	C	1.230355	0.243972	-0.000079
C12	C	1.091396	0.239279	-0.000070
C13	C	1.498136	-0.056858	-0.000096
C14	C	1.512750	-0.234076	-0.000105
C15	C	0.997136	0.382308	-0.000090
C16	C	0.866571	0.377890	-0.000114
C17	C	0.924542	0.087401	-0.000104
C18	C	1.055103	0.091821	-0.000070
C19	C	0.963666	0.550020	-0.000101
C20	C	0.833101	0.545601	-0.000125
C21	C	1.691311	0.225749	-0.000110
C22	C	1.830270	0.230441	-0.000128
C23	C	1.423530	0.526579	-0.000092
C24	C	1.408916	0.703797	-0.000093
N25	N	1.460838	0.234869	0.356026
N26	N	1.460839	0.234839	-0.356211
C27	C	1.556605	0.127340	0.427946
C28	C	1.556604	0.127320	0.571829
C29	C	1.365062	0.342373	0.571858
C30	C	1.365060	0.342384	0.427978
C31	C	1.667193	0.003185	0.427931
C32	C	1.667192	0.003165	0.571814
H33	H	1.131848	-0.024647	-0.000034
H34	H	0.993806	0.603419	-0.098789
H35	H	0.894975	-0.032654	-0.000125
H36	H	1.308838	-0.213815	-0.000082
H37	H	0.784843	0.608790	-0.095793
H38	H	0.782193	0.596288	0.098559
H39	H	1.612835	-0.316473	-0.000100
O40	O	1.271962	0.446980	0.358326
C41	C	1.081920	0.660194	0.373544
C42	C	1.187300	0.541849	0.452595
H43	H	1.013428	0.736904	0.449726
H44	H	1.128289	0.740701	0.306220
H45	H	1.025977	0.590499	0.306148
H46	H	1.243279	0.611414	0.520066
H47	H	1.140852	0.461342	0.519832
O48	O	1.656661	-0.143235	0.381560
C49	C	1.637648	-0.410096	0.441626
C50	C	1.649541	-0.244348	0.494327
H51	H	1.631915	-0.491903	0.532771
H52	H	1.546867	-0.396672	0.376596
H53	H	1.725457	-0.464454	0.376478
H54	H	1.561801	-0.189897	0.559532
H55	H	1.740375	-0.257875	0.559283
O56	O	1.771287	0.049519	0.374900
C57	C	1.966796	0.136807	0.422640
C58	C	1.848991	0.084320	0.482881
H59	H	2.029638	0.164990	0.509913
H60	H	2.024891	0.036101	0.356735
H61	H	1.933016	0.248305	0.356656
H62	H	1.882659	-0.027142	0.548927
H63	H	1.790921	0.185121	0.548708
H64	H	1.287082	0.429908	0.630457
H65	H	1.648655	-0.112769	0.616431
O66	O	1.779028	0.035507	0.618479
C67	C	1.971861	-0.056843	0.751827
C68	C	1.845272	-0.093689	0.699044
H69	H	2.025442	-0.161259	0.816998
H70	H	2.034418	-0.038669	0.660762
H71	H	1.949389	0.056751	0.816879
H72	H	1.867625	-0.207296	0.634015
H73	H	1.782752	-0.111761	0.790170
H74	H	0.986220	0.615614	0.095564
