data_functionalizedCrystal
_audit_creation_method	'MofGen! by Chris Wilmer'
_symmetry_space_group_name_H-M	'P1'
_symmetry_Int_Tables_number	1
_symmetry_cell_setting	triclinic
loop_
_symmetry_equiv_pos_as_xyz
  x,y,z
_cell_length_a	15.995350
_cell_length_b	17.038272
_cell_length_c	14.472310
_cell_angle_alpha	89.999298
_cell_angle_beta	89.990621
_cell_angle_gamma	87.301966
loop_
_atom_site_label
_atom_site_type_symbol
_atom_site_fract_x
_atom_site_fract_y
_atom_site_fract_z
O1	O	1.118175	0.100774	-0.076763
O2	O	1.618175	0.600774	0.423237
O3	O	0.875286	0.113219	-0.076782
O4	O	1.375286	0.613219	0.423218
O5	O	0.995287	-0.006819	-0.076766
O6	O	1.495287	0.493181	0.423234
O7	O	0.998174	0.220812	-0.076780
O8	O	1.498174	0.720812	0.423220
O9	O	0.995254	-0.006812	0.076916
O10	O	1.495254	0.493188	0.576916
O11	O	0.875253	0.113226	0.076900
O12	O	1.375253	0.613226	0.576900
O13	O	1.118142	0.100781	0.076919
O14	O	1.618142	0.600781	0.576919
Cu15	Cu	0.996695	0.107004	0.090942
Cu16	Cu	1.496695	0.607004	0.590942
Cu17	Cu	0.996733	0.106996	-0.090805
Cu18	Cu	1.496733	0.606996	0.409195
O19	O	0.998141	0.220819	0.076902
O20	O	1.498141	0.720819	0.576902
C21	C	0.844038	0.112708	0.000056
C22	C	1.344038	0.612708	0.500056
C23	C	0.750978	0.111165	0.000049
C24	C	1.250978	0.611165	0.500049
C25	C	0.992645	-0.035945	0.000075
C26	C	1.492645	0.464055	0.500075
C27	C	0.984810	-0.122740	0.000074
C28	C	1.484810	0.377260	0.500074
C29	C	0.412836	0.105626	0.000069
C30	C	0.912836	0.605626	0.500069
C31	C	0.454180	0.020137	0.000417
C32	C	0.954180	0.520137	0.500417
C33	C	0.550981	0.021680	0.000064
C34	C	1.050981	0.521680	0.500064
C35	C	0.580592	0.108374	0.000060
C36	C	1.080592	0.608374	0.500060
C37	C	0.542527	0.150536	-0.087699
C38	C	1.042527	0.650536	0.412301
C39	C	0.445739	0.148388	-0.087766
C40	C	0.945739	0.648388	0.412234
C41	C	0.445488	0.150162	0.086999
C42	C	0.945488	0.650162	0.586999
C43	C	0.542432	0.150142	0.088152
C44	C	1.042432	0.650142	0.588152
C45	C	0.675401	0.109931	0.000051
C46	C	1.175401	0.609931	0.500051
C47	C	0.318027	0.104071	0.000071
C48	C	0.818027	0.604071	0.500071
C49	C	1.056739	-0.172836	0.000081
C50	C	1.556739	0.327164	0.500081
C51	C	1.049373	-0.254389	0.000072
C52	C	1.549373	0.245611	0.500072
C53	C	0.970077	-0.285843	0.000062
C54	C	1.470077	0.214157	0.500062
C55	C	0.898143	-0.235740	0.000053
C56	C	1.398143	0.264260	0.500053
C57	C	0.905510	-0.154189	0.000056
C58	C	1.405510	0.345811	0.500056
C59	C	0.944051	-0.531607	0.000047
C60	C	1.444051	-0.031607	0.500047
C61	C	0.936689	-0.613164	0.000048
C62	C	1.436689	-0.113164	0.500048
C63	C	1.087920	-0.631807	0.000065
C64	C	1.587920	-0.131807	0.500065
C65	C	1.095280	-0.550254	0.000073
C66	C	1.595280	-0.050254	0.500073
C67	C	1.023346	-0.500158	0.000059
C68	C	1.523346	-0.000158	0.500059
C69	C	0.962546	-0.369202	0.000056
C70	C	1.462546	0.130798	0.500056
C71	C	1.030878	-0.416801	0.000059
C72	C	1.530878	0.083199	0.500059
C73	C	1.149390	0.101292	0.000078
C74	C	1.649390	0.601292	0.500078
C75	C	1.242450	0.102834	0.000079
C76	C	1.742450	0.602834	0.500079
C77	C	1.000784	0.249944	0.000059
C78	C	1.500784	0.749944	0.500059
C79	C	1.008618	0.336739	0.000054
C80	C	1.508618	0.836739	0.500054
N81	N	0.996674	0.107009	0.218773
N82	N	1.496674	0.607009	0.718773
N83	N	0.996761	0.106984	-0.218636
N84	N	1.496761	0.606984	0.281364
C85	C	0.996732	0.106993	0.592864
C86	C	1.496732	0.606993	1.092864
C87	C	0.932276	0.171007	0.553689
C88	C	1.432276	0.671007	1.053689
C89	C	0.932452	0.171241	0.446601
C90	C	1.432452	0.671241	0.946601
C91	C	0.996702	0.107001	0.407273
C92	C	1.496702	0.607001	0.907273
C93	C	1.085336	0.124819	0.446115
C94	C	1.585336	0.624819	0.946115
C95	C	1.084981	0.125274	0.553237
C96	C	1.584981	0.625274	1.053237
C97	C	0.973320	0.024970	0.553397
C98	C	1.473320	0.524970	1.053397
C99	C	0.971356	0.025517	0.446269
C100	C	1.471356	0.525517	0.946269
C101	C	0.996691	0.107004	0.302385
C102	C	1.496691	0.607004	0.802385
C103	C	0.996749	0.106991	0.697752
C104	C	1.496749	0.606991	1.197752
H105	H	0.577035	-0.011462	0.062974
H106	H	1.077035	0.488538	0.562974
H107	H	0.866382	0.160566	0.579472
H108	H	1.366382	0.660566	1.079472
N109	N	1.111924	0.203149	0.410567
N110	N	1.611924	0.703149	0.910567
H111	H	1.066691	0.227199	0.369311
H112	H	1.566691	0.727199	0.869311
H113	H	1.121355	0.239332	0.464462
H114	H	1.621355	0.739332	0.964462
H115	H	1.146484	-0.672604	0.000074
H116	H	1.646484	-0.172604	0.500074
H117	H	0.897983	-0.394821	0.000050
H118	H	1.397983	0.105179	0.500050
N119	N	0.889138	0.002282	0.589215
N120	N	1.389138	0.502282	1.089215
H121	H	0.865323	0.044948	0.631395
H122	H	1.365323	0.544948	1.131395
H123	H	0.849863	-0.004642	0.535500
H124	H	1.349863	0.495358	1.035500
N125	N	0.415648	0.113139	0.175113
N126	N	0.915648	0.613139	0.675113
H127	H	0.437315	0.142617	0.230011
H128	H	0.937315	0.642617	0.730011
H129	H	0.352447	0.115482	0.176268
H130	H	0.852447	0.615482	0.676268
H131	H	0.425254	0.117636	-0.153365
H132	H	0.925254	0.617636	0.346635
N133	N	1.028915	-0.040542	0.410826
N134	N	1.528915	0.459458	0.910826
H135	H	0.995303	-0.079150	0.375261
H136	H	1.495303	0.420850	0.875261
H137	H	1.072418	-0.018419	0.368842
H138	H	1.572418	0.481581	0.868842
H139	H	0.885477	-0.490828	0.000036
H140	H	1.385477	0.009172	0.500036
H141	H	1.020257	-0.022668	0.578729
H142	H	1.520257	0.477332	1.078729
H143	H	0.906126	0.011995	0.420882
H144	H	1.406126	0.511995	0.920882
H145	H	0.417962	0.211153	-0.091752
H146	H	0.917962	0.711153	0.408248
H147	H	0.433211	-0.014032	0.063353
H148	H	0.933211	0.485968	0.563353
H149	H	0.432177	-0.013880	-0.062167
H150	H	0.932177	0.486120	0.437833
H151	H	0.576475	-0.011692	-0.062951
H152	H	1.076475	0.488308	0.437049
N153	N	1.150823	0.065861	0.587543
N154	N	1.650823	0.565861	1.087543
H155	H	1.193174	0.093282	0.626199
H156	H	1.693174	0.593282	1.126199
H157	H	1.123407	0.025005	0.626293
H158	H	1.623407	0.525005	1.126293
N159	N	1.142266	-0.138914	0.000093
N160	N	1.642266	0.361086	0.500093
H161	H	1.148680	-0.105498	0.057068
H162	H	1.648680	0.394502	0.557068
H163	H	1.186660	-0.183071	0.000061
H164	H	1.686660	0.316929	0.500061
N165	N	1.126952	-0.308422	0.000084
N166	N	1.626952	0.191578	0.500084
H167	H	1.178303	-0.276121	0.000099
H168	H	1.678303	0.223879	0.500099
H169	H	1.127170	-0.342664	0.057056
H170	H	1.627170	0.157336	0.557056
H171	H	0.833579	-0.261356	0.000039
H172	H	1.333579	0.238644	0.500039
N173	N	0.845428	0.157186	0.411819
N174	N	1.345428	0.657186	0.911819
H175	H	0.805211	0.200166	0.435193
H176	H	1.305211	0.700166	0.935193
H177	H	0.845445	0.157295	0.342033
H178	H	1.345445	0.657295	0.842033
N179	N	0.567253	0.234900	-0.092044
N180	N	1.067253	0.734900	0.407956
H181	H	0.603454	0.246628	-0.037033
H182	H	1.103454	0.746628	0.462967
H183	H	0.599531	0.243562	-0.150864
H184	H	1.099531	0.743562	0.349136
H185	H	0.872114	-0.638770	0.000055
H186	H	1.372114	-0.138770	0.500055
H187	H	0.568829	0.121246	-0.153008
H188	H	1.068829	0.621246	0.346992
N189	N	0.568738	0.233887	0.095176
N190	N	1.068738	0.733887	0.595176
H191	H	0.631756	0.234358	0.099086
H192	H	1.131756	0.734358	0.599086
H193	H	0.548732	0.264177	0.038754
H194	H	1.048732	0.764177	0.538754
H195	H	0.418217	0.213193	0.087589
H196	H	0.918217	0.713193	0.587589
N197	N	0.827931	-0.100152	0.000043
N198	N	1.327931	0.399848	0.500043
H199	H	0.776579	-0.132451	0.000038
H200	H	1.276579	0.367549	0.500038
H201	H	0.827679	-0.065909	0.057014
H202	H	1.327679	0.434091	0.557014
H203	H	0.567542	0.119364	0.153076
H204	H	1.067542	0.619364	0.653076
H205	H	1.159850	-0.524651	0.000081
H206	H	1.659850	-0.024651	0.500081
H207	H	1.095440	-0.391187	0.000046
H208	H	1.595440	0.108813	0.500046
H209	H	0.947652	0.231532	0.580596
H210	H	1.447652	0.731532	1.080596
N211	N	0.952835	0.251922	0.412630
N212	N	1.452835	0.751922	0.912630
H213	H	0.961770	0.287466	0.467244
H214	H	1.461770	0.787466	0.967244
H215	H	1.005404	0.247913	0.373918
H216	H	1.505404	0.747913	0.873918
N217	N	1.111125	0.204507	0.586335
N218	N	1.611125	0.704507	1.086335
H219	H	1.169202	0.214137	0.562805
H220	H	1.669202	0.714137	1.062805
H221	H	1.070483	0.246829	0.562252
H222	H	1.570483	0.746829	1.062252
H223	H	1.134688	0.079434	0.420639
H224	H	1.634688	0.579434	0.920639
