data_functionalizedCrystal
_audit_creation_method	'MofGen! by Chris Wilmer'
_symmetry_space_group_name_H-M	'P1'
_symmetry_Int_Tables_number	1
_symmetry_cell_setting	triclinic
loop_
_symmetry_equiv_pos_as_xyz
  x,y,z
_cell_length_a	10.654562
_cell_length_b	14.853567
_cell_length_c	9.130313
_cell_angle_alpha	90.002541
_cell_angle_beta	89.996930
_cell_angle_gamma	84.062517
loop_
_atom_site_label
_atom_site_type_symbol
_atom_site_fract_x
_atom_site_fract_y
_atom_site_fract_z
O1	O	1.666509	0.126676	-0.121882
O2	O	1.300907	0.138729	-0.121863
O3	O	1.493474	0.001525	-0.121877
O4	O	1.473942	0.263880	-0.121867
O5	O	1.493471	0.001529	0.121722
O6	O	1.300905	0.138732	0.121736
O7	O	1.666506	0.126680	0.121717
Cu8	Cu	1.483705	0.132707	0.143969
Cu9	Cu	1.483708	0.132702	-0.144115
O10	O	1.473940	0.263883	0.121731
C11	C	1.254117	0.137843	-0.000061
C12	C	1.114703	0.135188	-0.000054
C13	C	1.049183	0.133952	0.132720
C14	C	0.918187	0.131465	0.132696
C15	C	0.918240	0.131454	-0.132889
C16	C	1.049235	0.133935	-0.132863
C17	C	1.049151	0.133962	0.286054
C18	C	0.918155	0.131475	0.286029
C19	C	1.492588	-0.032066	-0.000082
C20	C	1.489936	-0.132164	-0.000095
C21	C	1.364336	-0.545375	-0.000060
C22	C	1.593110	-0.565423	-0.000072
C23	C	1.595603	-0.471376	-0.000081
C24	C	1.482462	-0.414324	-0.000077
C25	C	1.366826	-0.451318	-0.000064
C26	C	1.711237	-0.434374	-0.000079
C27	C	1.713735	-0.340322	-0.000086
C28	C	1.600592	-0.283267	-0.000093
C29	C	1.484952	-0.320268	-0.000082
C30	C	1.371810	-0.263215	-0.000078
C31	C	1.256169	-0.300213	-0.000077
C32	C	1.253683	-0.394264	-0.000071
C33	C	1.603077	-0.189217	-0.000099
C34	C	1.374300	-0.169159	-0.000082
C35	C	1.713296	0.127566	-0.000088
C36	C	1.852711	0.130220	-0.000105
C37	C	1.474826	0.297475	-0.000067
C38	C	1.477478	0.397573	-0.000064
N39	N	1.483713	0.132709	0.346592
N40	N	1.483711	0.132693	-0.346737
C41	C	1.569003	0.071976	0.423237
C42	C	1.568999	0.071966	0.576574
C43	C	1.398412	0.193428	0.576606
C44	C	1.398410	0.193434	0.423272
C45	C	1.667494	0.001853	0.423220
C46	C	1.667491	0.001843	0.576556
H47	H	1.096058	0.071659	0.344934
O48	O	1.087443	0.221040	0.349120
H49	H	1.001806	0.265199	0.382537
H50	H	1.328949	0.242879	0.360869
H51	H	1.803350	-0.480833	-0.000069
H52	H	1.637658	-0.063642	0.624103
O53	O	1.134137	-0.238677	-0.000069
H54	H	1.155306	-0.167064	-0.000074
O55	O	0.879844	0.044394	0.349067
H56	H	0.965469	0.000238	0.382514
O57	O	0.847612	0.130098	-0.276118
H58	H	0.883838	0.069226	-0.339770
O59	O	1.128963	-0.434166	-0.000039
H60	H	1.146243	-0.509150	-0.000011
H61	H	1.328960	0.242868	0.639056
O62	O	1.795109	0.022320	0.631681
H63	H	1.783928	0.084768	0.699224
O64	O	1.119910	0.135260	-0.276067
H65	H	1.052374	0.133979	-0.368416
H66	H	1.646771	-0.067442	0.381598
O67	O	1.787983	0.030924	0.360211
H68	H	1.800055	0.100564	0.397825
H69	H	1.282165	-0.122712	-0.000085
O70	O	0.855958	0.214002	0.363991
H71	H	0.879536	0.275949	0.306621
H72	H	1.685224	-0.611881	-0.000064
O73	O	1.239610	-0.585270	-0.000042
H74	H	1.256879	-0.660254	-0.000029
H75	H	1.807897	-0.310206	-0.000089
H76	H	1.697230	-0.159097	-0.000090
