data_functionalizedCrystal
_audit_creation_method	'MofGen! by Chris Wilmer'
_symmetry_space_group_name_H-M	'P1'
_symmetry_Int_Tables_number	1
_symmetry_cell_setting	triclinic
loop_
_symmetry_equiv_pos_as_xyz
  x,y,z
_cell_length_a	18.050591
_cell_length_b	19.121063
_cell_length_c	18.050583
_cell_angle_alpha	92.405296
_cell_angle_beta	89.975765
_cell_angle_gamma	92.465257
loop_
_atom_site_label
_atom_site_type_symbol
_atom_site_fract_x
_atom_site_fract_y
_atom_site_fract_z
Zn1	Zn	1.122704	-0.279663	-0.432627
Zn2	Zn	1.622704	0.220337	0.067373
Zn3	Zn	1.117311	-0.397127	-0.313727
Zn4	Zn	1.617311	0.102873	0.186273
Zn5	Zn	0.998515	-0.279686	-0.308439
Zn6	Zn	1.498515	0.220314	0.191561
Zn7	Zn	0.993177	-0.397069	-0.437860
Zn8	Zn	1.493177	0.102931	0.062140
O9	O	1.057927	-0.338386	-0.373163
O10	O	1.557927	0.161614	0.126837
O11	O	1.225913	-0.295259	-0.416877
O12	O	1.725913	0.204741	0.083123
O13	O	1.101529	-0.381582	-0.209102
O14	O	1.601529	0.118418	0.290898
O15	O	1.019481	-0.181399	-0.320509
O16	O	1.519481	0.318601	0.179491
O17	O	1.221950	-0.381559	-0.329522
O18	O	1.721950	0.118441	0.170478
O19	O	1.110722	-0.181382	-0.411750
O20	O	1.610722	0.318618	0.088250
O21	O	1.014251	-0.295299	-0.205217
O22	O	1.514251	0.204701	0.294783
O23	O	0.893883	-0.295243	-0.325584
O24	O	1.393883	0.204757	0.174416
O25	O	1.010382	-0.381461	-0.541089
O26	O	1.510382	0.118539	-0.041089
O27	O	0.889961	-0.381484	-0.420669
O28	O	1.389961	0.118516	0.079331
O29	O	1.105546	-0.295204	-0.537244
O30	O	1.605546	0.204796	-0.037244
O31	O	1.096352	-0.495403	-0.334596
O32	O	1.596352	0.004597	0.165404
O33	O	1.005152	-0.495361	-0.425796
O34	O	1.505152	0.004639	0.074204
C35	C	0.864976	-0.338360	-0.373121
C36	C	1.364976	0.161640	0.126879
C37	C	0.782430	-0.338366	-0.373121
C38	C	1.282430	0.161634	0.126879
C39	C	0.585093	-0.291414	-0.321526
C40	C	1.085093	0.208586	0.178474
C41	C	0.532783	-0.355476	-0.306135
C42	C	1.032783	0.144524	0.193865
C43	C	0.631299	-0.338387	-0.373155
C44	C	1.131299	0.161613	0.126845
C45	C	0.536526	-0.274347	-0.388545
C46	C	1.036526	0.225653	0.111455
C47	C	0.485313	-0.338402	-0.373187
C48	C	0.985313	0.161598	0.126813
C49	C	0.580074	-0.402483	-0.357731
C50	C	1.080074	0.097517	0.142269
C51	C	0.583823	-0.321311	-0.440171
C52	C	1.083823	0.178689	0.059829
C53	C	0.531534	-0.385418	-0.424808
C54	C	1.031534	0.114582	0.075192
C55	C	0.715397	-0.338378	-0.373135
C56	C	1.215397	0.161622	0.126865
C57	C	0.401215	-0.338419	-0.373208
C58	C	0.901215	0.161581	0.126792
C59	C	1.049608	-0.520866	-0.381354
C60	C	1.549608	-0.020866	0.118646
C61	C	1.046117	-0.598931	-0.384883
C62	C	1.546117	-0.098931	0.115117
C63	C	1.091997	-0.635605	-0.339098
C64	C	1.591997	-0.135605	0.160902
C65	C	1.088718	-0.708956	-0.342421
C66	C	1.588718	-0.208956	0.157579
C67	C	1.039555	-0.745632	-0.391527
C68	C	1.539555	-0.245632	0.108473
C69	C	0.993673	-0.708953	-0.437318
C70	C	1.493673	-0.208953	0.062682
C71	C	0.996956	-0.635603	-0.433997
C72	C	1.496956	-0.135603	0.066003
C73	C	1.027268	-0.967100	-0.403929
C74	C	1.527268	-0.467100	0.096071
C75	C	1.023986	-1.040455	-0.407244
C76	C	1.523986	-0.540455	0.092756
C77	C	1.119033	-1.040453	-0.312348
C78	C	1.619033	-0.540453	0.187652
C79	C	1.122308	-0.967102	-0.309029
C80	C	1.622308	-0.467102	0.190971
C81	C	1.076429	-0.930430	-0.354823
C82	C	1.576429	-0.430430	0.145177
C83	C	1.036200	-0.820608	-0.394924
C84	C	1.536200	-0.320608	0.105076
C85	C	1.079788	-0.855455	-0.351429
C86	C	1.579788	-0.355455	0.148571
C87	C	1.251631	-0.338413	-0.373206
C88	C	1.751631	0.161587	0.126794
C89	C	1.334176	-0.338425	-0.373224
C90	C	1.834176	0.161575	0.126776
C91	C	1.057970	-0.338324	-0.566866
C92	C	1.557970	0.161676	-0.066866
C93	C	1.057988	-0.338297	-0.649410
C94	C	1.557988	0.161703	-0.149410
C95	C	1.066299	-0.155194	-0.364956
C96	C	1.566299	0.344806	0.135044
C97	C	1.069866	-0.077129	-0.361459
C98	C	1.569866	0.422871	0.138541
C99	C	1.109787	-0.291342	-0.896143
C100	C	1.609787	0.208658	-0.396143
C101	C	1.125018	-0.355429	-0.849617
C102	C	1.625018	0.144571	-0.349617
C103	C	1.058038	-0.338252	-0.946529
C104	C	1.558038	0.161748	-0.446529
C105	C	1.042817	-0.274191	-0.845974
C106	C	1.542817	0.225809	-0.345974
C107	C	1.058016	-0.338271	-0.800545
C108	C	1.558016	0.161729	-0.300545
C109	C	1.073304	-0.402372	-0.901092
C110	C	1.573304	0.097628	-0.401092
C111	C	0.991073	-0.321092	-0.897451
C112	C	1.491073	0.178908	-0.397451
C113	C	1.006276	-0.385222	-0.850949
C114	C	1.506276	0.114778	-0.350949
C115	C	1.058053	-0.338241	-1.030627
C116	C	1.558053	0.161759	-0.530627
C117	C	1.058000	-0.338290	-0.716449
C118	C	1.558000	0.161710	-0.216449
C119	C	1.057929	-0.338398	-0.180211
C120	C	1.557929	0.161602	0.319789
C121	C	1.058063	-0.338227	-0.097658
C122	C	1.558063	0.161773	0.402342
H123	H	0.508221	-0.425194	-0.468485
H124	H	1.008221	0.074806	0.031515
H125	H	0.608538	-0.251733	-0.277820
H126	H	1.108538	0.248267	0.222180
H127	H	1.132027	-0.605749	-0.299107
H128	H	1.632027	-0.105749	0.200893
H129	H	0.606235	-0.306837	-0.496813
H130	H	1.106235	0.193163	0.003187
C131	C	0.982113	-0.860959	-0.448931
C132	C	1.482113	-0.360959	0.051069
N133	N	0.941374	-0.891353	-0.489607
N134	N	1.441374	-0.391353	0.010393
C135	C	0.510556	-0.201173	-0.406117
C136	C	1.010556	0.298827	0.093883
N137	N	0.490999	-0.146057	-0.419347
N138	N	0.990999	0.353943	0.080653
H139	H	1.086251	-0.456567	-0.925117
H140	H	1.586251	0.043433	-0.425117
C141	C	0.947158	-0.438890	-0.824208
C142	C	1.447158	0.061110	-0.324208
N143	N	0.902639	-0.479316	-0.804055
N144	N	1.402639	0.020684	-0.304055
C145	C	0.502525	-0.375001	-0.229591
C146	C	1.002525	0.124999	0.270409
N147	N	0.479735	-0.389701	-0.171937
N148	N	0.979735	0.110299	0.328063
H149	H	1.126078	-0.738813	-0.305137
H150	H	1.626078	-0.238813	0.194863
C151	C	0.914605	-0.301438	-0.925898
C152	C	1.414605	0.198562	-0.425898
N153	N	0.857010	-0.286626	-0.947327
N154	N	1.357010	0.213374	-0.447327
C155	C	1.176373	-0.926765	-0.254990
C156	C	1.676373	-0.426765	0.245010
N157	N	1.217086	-0.896382	-0.214278
N158	N	1.717086	-0.396382	0.285722
C159	C	1.169499	-1.080799	-0.261981
C160	C	1.669499	-0.580799	0.238019
N161	N	1.207513	-1.111188	-0.224045
N162	N	1.707513	-0.611188	0.275955
H163	H	0.983961	-1.070314	-0.447245
H164	H	1.483961	-0.570314	0.052755
H165	H	0.989910	-0.937247	-0.441214
H166	H	1.489910	-0.437247	0.058786
C167	C	1.025433	-0.200992	-0.813398
C168	C	1.525433	0.299008	-0.313398
N169	N	1.012345	-0.145857	-0.788864
N170	N	1.512345	0.354143	-0.288864
H171	H	0.953646	-0.738820	-0.477304
H172	H	1.453646	-0.238820	0.022696
C173	C	0.605921	-0.475677	-0.340069
C174	C	1.105921	0.024323	0.159931
N175	N	0.625391	-0.530804	-0.326762
N176	N	1.125391	-0.030804	0.173238
C177	C	0.946484	-0.595262	-0.484366
C178	C	1.446484	-0.095262	0.015634
N179	N	0.908470	-0.564878	-0.522307
N180	N	1.408470	-0.064878	-0.022307
C181	C	1.133865	-0.815109	-0.297413
C182	C	1.633865	-0.315109	0.202587
N183	N	1.174592	-0.784715	-0.256725
N184	N	1.674592	-0.284715	0.243275
H185	H	1.153588	-0.251714	-0.916057
H186	H	1.653588	0.248286	-0.416057
H187	H	1.181640	-0.369955	-0.828579
H188	H	1.681640	0.130045	-0.328579
