data_functionalizedCrystal
_audit_creation_method	'MofGen! by Chris Wilmer'
_symmetry_space_group_name_H-M	'P1'
_symmetry_Int_Tables_number	1
_symmetry_cell_setting	triclinic
loop_
_symmetry_equiv_pos_as_xyz
  x,y,z
_cell_length_a	15.995280
_cell_length_b	14.971506
_cell_length_c	13.448316
_cell_angle_alpha	89.994233
_cell_angle_beta	90.007482
_cell_angle_gamma	96.457007
loop_
_atom_site_label
_atom_site_type_symbol
_atom_site_fract_x
_atom_site_fract_y
_atom_site_fract_z
O1	O	-1.111148	0.114995	-0.082706
O2	O	-0.611148	0.614995	0.417294
O3	O	-0.867380	0.129297	-0.082705
O4	O	-0.367380	0.629297	0.417295
O5	O	-0.995789	-0.008062	-0.082701
O6	O	-0.495789	0.491938	0.417299
O7	O	-0.982739	0.252354	-0.082710
O8	O	-0.482739	0.752354	0.417290
O9	O	-0.995772	-0.008071	0.082683
O10	O	-0.495772	0.491929	0.582683
O11	O	-0.867364	0.129289	0.082679
O12	O	-0.367364	0.629289	0.582679
O13	O	-1.111132	0.114986	0.082677
O14	O	-0.611132	0.614986	0.582677
Cu15	Cu	-0.989246	0.122137	0.097779
Cu16	Cu	-0.489246	0.622137	0.597779
Cu17	Cu	-0.989265	0.122147	-0.097806
Cu18	Cu	-0.489265	0.622147	0.402194
O19	O	-0.982723	0.252346	0.082674
O20	O	-0.482723	0.752346	0.582674
C21	C	-0.836175	0.128713	-0.000012
C22	C	-0.336175	0.628713	0.499988
C23	C	-0.743220	0.126974	-0.000012
C24	C	-0.243220	0.626974	0.499988
C25	C	-0.405473	0.120579	-0.000026
C26	C	0.094527	0.620579	0.499974
C27	C	-0.428891	0.219716	-0.000398
C28	C	0.071109	0.719716	0.499602
C29	C	-0.525569	0.221595	-0.000020
C30	C	-0.025569	0.721595	0.499980
C31	C	-0.573033	0.123752	-0.000019
C32	C	-0.073033	0.623752	0.499981
C33	C	-0.543869	0.074184	0.094421
C34	C	-0.043869	0.574184	0.594421
C35	C	-0.447076	0.072995	0.094495
C36	C	0.052924	0.572995	0.594495
C37	C	-0.447237	0.070980	-0.093577
C38	C	0.052763	0.570980	0.406423
C39	C	-0.543734	0.074650	-0.094821
C40	C	-0.043734	0.574650	0.405179
C41	C	-0.667732	0.125540	-0.000012
C42	C	-0.167732	0.625540	0.499988
C43	C	-0.310774	0.118788	-0.000026
C44	C	0.189226	0.618788	0.499974
C45	C	-0.142335	0.115582	-0.000019
C46	C	0.357665	0.615582	0.499981
C47	C	-0.235286	0.117357	-0.000034
C48	C	0.264714	0.617357	0.499966
C49	C	-0.995194	-0.041390	-0.000010
C50	C	-0.495194	0.458610	0.499990
C51	C	-0.993436	-0.140684	-0.000013
C52	C	-0.493436	0.359316	0.499987
C53	C	-0.983317	0.285673	-0.000019
C54	C	-0.483317	0.785673	0.499981
C55	C	-0.985075	0.384967	-0.000023
C56	C	-0.485075	0.884967	0.499977
N57	N	-0.989239	0.122129	0.235343
N58	N	-0.489239	0.622129	0.735343
C59	C	-0.916346	0.823347	-0.000011
C60	C	-0.416346	1.323347	0.499989
C61	C	-0.914701	0.730049	-0.000007
C62	C	-0.414701	1.230049	0.499993
C63	C	-0.990146	0.672722	-0.000012
C64	C	-0.490146	1.172722	0.499988
C65	C	-1.067242	0.708698	-0.000011
C66	C	-0.567242	1.208698	0.499989
C67	C	-1.068886	0.801994	-0.000008
C68	C	-0.568886	1.301994	0.499992
C69	C	-1.063809	0.514240	-0.000020
C70	C	-0.563809	1.014240	0.499980
C71	C	-1.062165	0.420937	-0.000025
C72	C	-0.562165	0.920937	0.499975
C73	C	-0.909624	0.442294	-0.000019
C74	C	-0.409624	0.942294	0.499981
C75	C	-0.911268	0.535591	-0.000016
C76	C	-0.411268	1.035591	0.499984
C77	C	-0.988364	0.571560	-0.000017
C78	C	-0.488364	1.071560	0.499983
N79	N	-0.989279	0.122147	-0.235371
N80	N	-0.489279	0.622147	0.264629
C81	C	-1.046116	0.061331	0.287385
C82	C	-0.546116	0.561331	0.787385
C83	C	-1.046121	0.061331	0.391489
C84	C	-0.546121	0.561331	0.891489
C85	C	-0.989253	0.122133	0.443548
C86	C	-0.489253	0.622133	0.943548
C87	C	-0.932369	0.182933	0.391499
C88	C	-0.432369	0.682933	0.891499
C89	C	-0.932361	0.182929	0.287397
C90	C	-0.432361	0.682929	0.787397
C91	C	-0.932393	0.182939	0.608479
C92	C	-0.432393	0.682939	1.108479
C93	C	-0.932402	0.182945	0.712587
C94	C	-0.432402	0.682945	1.212587
C95	C	-1.046153	0.061341	0.712570
C96	C	-0.546153	0.561341	1.212570
C97	C	-1.046144	0.061337	0.608469
C98	C	-0.546144	0.561337	1.108469
C99	C	-0.989262	0.122139	0.556427
C100	C	-0.489262	0.622139	1.056427
H101	H	-0.418950	0.101972	-0.165158
H102	H	0.081050	0.601972	0.334842
O103	O	-0.834973	0.885177	0.000002
O104	O	-0.334973	1.385177	0.500002
H105	H	-0.781092	0.844486	0.000017
H106	H	-0.281092	1.344486	0.500017
O107	O	-0.390521	0.270053	0.088817
O108	O	0.109479	0.770053	0.588817
H109	H	-0.354844	0.224770	0.133423
H110	H	0.145156	0.724770	0.633423
O111	O	-0.411597	0.118460	0.188009
O112	O	0.088403	0.618460	0.688009
H113	H	-0.378816	0.070255	0.232078
H114	H	0.121184	0.570255	0.732078
H115	H	-0.544008	0.260642	0.067791
H116	H	-0.044008	0.760642	0.567791
H117	H	-0.849834	0.582264	-0.000020
H118	H	-0.349834	1.082264	0.499980
O119	O	-1.152033	0.840795	-0.000011
O120	O	-0.652033	1.340795	0.499989
H121	H	-1.156431	0.882805	-0.067412
H122	H	-0.656431	1.382805	0.432588
H123	H	-0.562349	0.110740	-0.164687
H124	H	-0.062349	0.610740	0.335313
H125	H	-1.123599	0.374263	-0.000034
H126	H	-0.623599	0.874263	0.499966
O127	O	-0.587304	-0.019949	-0.102394
O128	O	-0.087304	0.480051	0.397606
H129	H	-0.539573	-0.068326	-0.101476
H130	H	-0.039573	0.431674	0.398524
O131	O	-1.146962	0.553037	-0.000021
O132	O	-0.646962	1.053037	0.499979
H133	H	-1.151355	0.595045	-0.067426
H134	H	-0.651355	1.095045	0.432574
O135	O	-1.107481	-0.004242	0.552318
O136	O	-0.607481	0.495758	1.052318
H137	H	-1.072182	-0.047721	0.504903
H138	H	-0.572182	0.452279	1.004903
O139	O	-0.871000	0.248493	0.231267
O140	O	-0.371000	0.748493	0.731267
H141	H	-0.880536	0.238264	0.150133
H142	H	-0.380536	0.738264	0.650133
H143	H	-1.092434	0.011824	0.433861
H144	H	-0.592434	0.511824	0.933861
H145	H	-1.092468	0.011834	0.754949
H146	H	-0.592468	0.511834	1.254949
O147	O	-0.871036	0.248523	0.447641
O148	O	-0.371036	0.748523	0.947641
H149	H	-0.830310	0.210865	0.495099
H150	H	-0.330310	0.710865	0.995099
O151	O	-0.871050	0.248504	0.768744
O152	O	-0.371050	0.748504	1.268744
H153	H	-0.831482	0.290768	0.715069
H154	H	-0.331482	0.790768	1.215069
H155	H	-0.846850	0.413004	-0.000017
H156	H	-0.346850	0.913004	0.499983
O157	O	-1.148615	0.646868	-0.000006
O158	O	-0.648615	1.146868	0.499994
H159	H	-1.185514	0.659667	-0.067409
H160	H	-0.685514	1.159667	0.432591
H161	H	-1.092428	0.011823	0.245005
H162	H	-0.592428	0.511823	0.745005
O163	O	-0.428599	-0.025678	-0.094437
O164	O	0.071401	0.474322	0.405563
H165	H	-0.389783	-0.038375	-0.028597
H166	H	0.110217	0.461625	0.471403
H167	H	-0.544644	0.260410	-0.067721
H168	H	-0.044644	0.760410	0.432279
H169	H	-0.432448	0.000307	0.098785
H170	H	0.067552	0.500307	0.598785
O171	O	-0.391855	0.270348	-0.090101
O172	O	0.108145	0.770348	0.409899
H173	H	-0.416847	0.236046	-0.158842
H174	H	0.083153	0.736046	0.341158
O175	O	-0.585993	-0.021182	0.099089
O176	O	-0.085993	0.478818	0.599089
H177	H	-0.569299	-0.058292	0.031818
H178	H	-0.069299	0.441708	0.531818
O179	O	-0.570466	0.119767	0.187526
O180	O	-0.070466	0.619767	0.687526
H181	H	-0.604446	0.177717	0.166775
H182	H	-0.104446	0.677717	0.666775
O183	O	-0.831556	0.691249	-0.000003
O184	O	-0.331556	1.191249	0.499997
H185	H	-0.779371	0.746785	-0.000010
H186	H	-0.279371	1.246785	0.499990
H187	H	-0.886070	0.232448	0.566110
H188	H	-0.386070	0.732448	1.066110
