data_functionalizedCrystal
_audit_creation_method	'MofGen! by Chris Wilmer'
_symmetry_space_group_name_H-M	'P1'
_symmetry_Int_Tables_number	1
_symmetry_cell_setting	triclinic
loop_
_symmetry_equiv_pos_as_xyz
  x,y,z
_cell_length_a	13.635800
_cell_length_b	11.102183
_cell_length_c	17.982968
_cell_angle_alpha	85.767222
_cell_angle_beta	77.548040
_cell_angle_gamma	108.603876
loop_
_atom_site_label
_atom_site_type_symbol
_atom_site_fract_x
_atom_site_fract_y
_atom_site_fract_z
V1	V	-2.020681	-0.177029	0.237547
O2	O	-2.000871	0.007282	0.233027
O3	O	-2.009304	-0.349841	0.235921
O4	O	-1.993772	-0.174843	0.341150
O5	O	-2.016510	-0.168927	0.127069
V6	V	-2.261184	-0.154920	0.224333
O7	O	-2.154070	-0.225527	0.266533
O8	O	-2.352894	-0.106421	0.195347
O9	O	-2.160958	0.017892	0.225959
O10	O	-2.339693	-0.339231	0.228854
O11	O	-2.324054	-0.163022	0.334811
O12	O	-2.176490	-0.157105	0.120730
V13	V	-1.520681	-0.177029	0.237547
O14	O	-1.500871	0.007282	0.233027
O15	O	-1.509304	-0.349841	0.235921
O16	O	-1.493772	-0.174843	0.341150
O17	O	-1.516510	-0.168927	0.127069
V18	V	-1.761184	-0.154920	0.224333
O19	O	-1.654070	-0.225527	0.266533
O20	O	-1.852894	-0.106421	0.195347
O21	O	-1.660958	0.017892	0.225959
O22	O	-1.839693	-0.339231	0.228854
O23	O	-1.824054	-0.163022	0.334811
O24	O	-1.676490	-0.157105	0.120730
C25	C	-1.935012	-0.391952	0.232173
C26	C	-1.966335	-0.533231	0.231535
C27	C	-1.926764	-0.496254	0.091988
C28	C	-1.921693	-0.544138	0.021917
C29	C	-1.951127	-0.676883	0.021321
C30	C	-1.985640	-0.761749	0.090803
C31	C	-1.990711	-0.713865	0.160874
C32	C	-1.961271	-0.581115	0.161463
C33	C	-2.030289	-0.750842	0.300419
C34	C	-2.000847	-0.618097	0.301017
C35	C	-2.064801	-0.835708	0.369902
C36	C	-2.069866	-0.787824	0.439974
C37	C	-2.040427	-0.655070	0.440567
C38	C	-2.005919	-0.570213	0.371088
C39	C	-1.915199	-0.168724	0.366403
C40	C	-1.933925	-0.168080	0.451099
C41	C	-2.066922	0.059996	0.229705
C42	C	-2.025217	0.201274	0.230349
C43	C	-2.086735	-0.163229	0.095474
C44	C	-2.057627	-0.163866	0.010777
C45	C	-1.435012	-0.391952	0.232173
C46	C	-1.466335	-0.533231	0.231535
C47	C	-1.415199	-0.168724	0.366403
C48	C	-1.433925	-0.168080	0.451099
C49	C	-2.034155	-0.174146	0.494770
C50	C	-2.051744	-0.173541	0.574351
C51	C	-1.969103	-0.166878	0.610259
C52	C	-1.868864	-0.160808	0.566581
C53	C	-1.851274	-0.161404	0.487001
C54	C	-1.939799	-0.158401	0.887518
C55	C	-1.957398	-0.157809	0.967105
C56	C	-2.140269	-0.170538	0.974868
C57	C	-2.122679	-0.171134	0.895288
C58	C	-2.022440	-0.165057	0.851616
C59	C	-2.003369	-0.165711	0.765326
C60	C	-1.988176	-0.166233	0.696549
C61	C	-1.566922	0.059996	0.229705
C62	C	-1.525217	0.201274	0.230349
C63	C	-1.586735	-0.163229	0.095474
C64	C	-1.557627	-0.163866	0.010777
C65	C	-1.534159	-0.174134	0.494756
C66	C	-1.551764	-0.173513	0.574336
C67	C	-1.469136	-0.166847	0.610258
C68	C	-1.368892	-0.160789	0.566594
C69	C	-1.351286	-0.161401	0.487015
C70	C	-1.458024	-0.170518	-0.025125
C71	C	-1.430656	-0.171101	-0.104708
C72	C	-1.502896	-0.165042	-0.148386
C73	C	-1.602507	-0.158386	-0.112479
C74	C	-1.629870	-0.157794	-0.032899
C75	C	-1.649232	-0.546234	0.239130
C76	C	-1.755392	-0.619107	0.242625
C77	C	-1.784817	-0.751850	0.242025
C78	C	-1.708074	-0.811724	0.237933
C79	C	-1.601915	-0.738852	0.234438
C80	C	-1.572498	-0.606105	0.235035
C81	C	-1.419022	-0.725850	0.226848
C82	C	-1.389593	-0.593105	0.227442
C83	C	-1.342279	-0.785724	0.222756
C84	C	-1.236116	-0.712850	0.219255
C85	C	-1.206693	-0.580098	0.219854
C86	C	-1.283433	-0.520232	0.223947
H87	H	-1.902765	-0.388162	0.092465
H88	H	-1.480607	-0.165541	-0.213183
H89	H	-1.890096	-0.152381	0.996338
Cl90	Cl	-1.878344	-0.437448	-0.065426
H91	H	-2.101455	-0.179580	0.465541
H92	H	-1.366246	-0.893813	0.222273
H93	H	-1.633394	-0.178451	0.609877
Cl94	Cl	-1.693317	-0.150786	-0.167398
Cl95	Cl	-1.073232	-0.488499	0.215466
Cl96	Cl	-1.968906	-0.403329	0.371827
Cl97	Cl	-1.745073	-0.978607	0.237193
Cl98	Cl	-1.944758	-0.737084	-0.066768
Cl99	Cl	-1.764973	-0.152433	0.611724
H100	H	-1.301622	-0.155362	0.595854
Cl101	Cl	-1.139656	-0.788127	0.214117
Cl102	Cl	-1.225272	-0.153807	0.432142
H103	H	-1.259484	-0.412145	0.224430
H104	H	-1.769650	-0.156433	0.451442
H105	H	-1.483486	-0.166350	0.675057
H106	H	-1.601452	-0.179565	0.465520
H107	H	-2.088773	-0.943795	0.369412
Cl108	Cl	-2.022663	-0.928631	0.090052
Cl109	Cl	-1.367188	-0.178133	0.029768
Cl110	Cl	-1.305432	-0.179480	-0.149830
H111	H	-1.858192	-0.153498	0.851975
H112	H	-2.097972	-0.856931	0.496541
H113	H	-1.710981	-0.152385	-0.003673
H114	H	-2.044573	-0.616094	0.497628
H115	H	-1.817871	-0.570343	0.245959
Cl116	Cl	-2.266285	-0.178172	1.029774
H117	H	-1.625279	-0.438145	0.239607
Cl118	Cl	-1.918278	-0.843467	0.246426
H119	H	-2.133358	-0.178473	0.609905
H120	H	-2.189977	-0.176566	0.866056
