data_functionalizedCrystal
_audit_creation_method	'MofGen! by Chris Wilmer'
_symmetry_space_group_name_H-M	'P1'
_symmetry_Int_Tables_number	1
_symmetry_cell_setting	triclinic
loop_
_symmetry_equiv_pos_as_xyz
  x,y,z
_cell_length_a	14.908782
_cell_length_b	18.101395
_cell_length_c	14.908803
_cell_angle_alpha	86.714233
_cell_angle_beta	83.226378
_cell_angle_gamma	86.738007
loop_
_atom_site_label
_atom_site_type_symbol
_atom_site_fract_x
_atom_site_fract_y
_atom_site_fract_z
Zn1	Zn	1.354034	-0.379487	0.431806
Zn2	Zn	1.362680	-0.496537	0.280452
Zn3	Zn	1.211445	-0.365972	0.289209
Zn4	Zn	1.202616	-0.496539	0.440514
O5	O	1.282694	-0.434634	0.360495
O6	O	1.481842	-0.400669	0.404419
O7	O	1.349931	-0.473560	0.154949
O8	O	1.230437	-0.264136	0.308145
O9	O	1.488194	-0.486665	0.293220
O10	O	1.335197	-0.274066	0.412911
O11	O	1.238820	-0.377634	0.161383
O12	O	1.083613	-0.377637	0.316589
O13	O	1.215389	-0.486669	0.566023
O14	O	1.077126	-0.473564	0.427753
O15	O	1.326635	-0.400671	0.559625
O16	O	1.341370	-0.600165	0.301664
O17	O	1.223772	-0.600167	0.419261
C18	C	1.047528	-0.424134	0.374067
C19	C	0.946922	-0.419662	0.379894
C20	C	0.764494	-0.500666	0.274876
C21	C	0.669966	-0.496466	0.280349
C22	C	0.663335	-0.407065	0.396316
C23	C	0.757863	-0.411265	0.390843
C24	C	0.808440	-0.458067	0.330120
C25	C	0.902970	-0.462263	0.324644
C26	C	0.896337	-0.372866	0.440615
C27	C	0.801808	-0.368666	0.446088
C28	C	1.282574	-0.627038	0.360476
C29	C	1.282604	-0.709354	0.360493
C30	C	1.282800	-1.008456	0.360530
C31	C	1.208963	-0.977178	0.434683
C32	C	1.208644	-0.891535	0.434483
C33	C	1.282703	-0.860068	0.360512
C34	C	1.262407	-0.885786	0.266609
C35	C	1.261933	-0.971430	0.267055
C36	C	1.377134	-0.982165	0.379431
C37	C	1.376450	-0.896583	0.381556
C38	C	1.282650	-0.776205	0.360496
C39	C	1.282851	-1.092318	0.360540
C40	C	1.518778	-0.445174	0.346871
C41	C	1.619383	-0.449666	0.341065
C42	C	1.269063	-0.445178	0.596585
C43	C	1.263254	-0.449671	0.697192
C44	C	1.282837	-0.241480	0.360533
C45	C	1.282899	-0.159170	0.360549
C46	C	1.368177	-0.368548	0.879584
C47	C	1.362722	-0.372768	0.974114
C48	C	1.246886	-0.462325	0.980783
C49	C	1.252341	-0.458106	0.886253
C50	C	1.312989	-0.411217	0.835657
C51	C	1.318448	-0.407002	0.741126
C52	C	1.202607	-0.496555	0.747797
C53	C	1.197153	-0.500774	0.842326
C54	C	1.296266	-0.424147	1.125324
C55	C	1.302080	-0.419656	1.024716
H56	H	0.760616	-0.330564	0.495529
H57	H	1.396716	-1.007831	0.446447
N58	N	1.224602	-0.868787	0.526944
H59	H	1.224420	-0.812985	0.526991
H60	H	1.285014	-0.890838	0.542282
H61	H	1.433929	-0.875485	0.331043
N62	N	1.170810	-0.992627	0.245005
H63	H	1.178976	-1.021419	0.188303
H64	H	1.131372	-0.946326	0.235132
H65	H	0.932127	-0.338175	0.485595
H66	H	1.432078	-1.002440	0.325355
N67	N	1.383862	-0.356434	0.686550
H68	H	1.417994	-0.330044	0.728726
H69	H	1.349305	-0.318771	0.649461
N70	N	1.433596	-0.317987	0.825005
H71	H	1.467735	-0.291600	0.867177
H72	H	1.399043	-0.280321	0.787915
N73	N	1.224690	-1.009560	0.527463
H74	H	1.279830	-1.044821	0.522331
H75	H	1.170146	-1.037163	0.554591
N76	N	0.622570	-0.542404	0.220753
H77	H	0.555011	-0.532643	0.233430
H78	H	0.638263	-0.596670	0.233773
N79	N	1.131740	-0.551350	0.896888
H80	H	1.068029	-0.536230	0.884165
H81	H	1.136726	-0.547535	0.963420
N82	N	0.608776	-0.356597	0.461813
H83	H	0.542225	-0.360406	0.456896
H84	H	0.626120	-0.303798	0.446879
N85	N	1.116746	-1.000649	0.418922
H86	H	1.122591	-1.031456	0.363956
H87	H	1.075922	-0.955226	0.408751
H88	H	1.313680	-0.991890	0.210218
H89	H	1.157672	-0.531300	0.712022
H90	H	1.138609	-0.867221	0.422399
H91	H	1.314739	-0.865202	0.210095
H92	H	1.194377	-0.860369	0.249541
H93	H	1.407660	-0.338021	1.009875
N94	N	0.957519	-0.512737	0.259148
H95	H	0.940242	-0.565558	0.274053
H96	H	1.024054	-0.508872	0.264088
N97	N	0.819053	-0.551132	0.209377
H98	H	0.776869	-0.577479	0.175205
H99	H	0.856143	-0.588836	0.243876
N100	N	1.396866	-0.874936	0.473058
H101	H	1.345611	-0.841614	0.500771
H102	H	1.454825	-0.847790	0.465833
H103	H	1.197508	-0.500500	1.021994
