data_functionalizedCrystal
_audit_creation_method	'MofGen! by Chris Wilmer'
_symmetry_space_group_name_H-M	'P1'
_symmetry_Int_Tables_number	1
_symmetry_cell_setting	triclinic
loop_
_symmetry_equiv_pos_as_xyz
  x,y,z
_cell_length_a	16.109301
_cell_length_b	11.804365
_cell_length_c	16.109301
_cell_angle_alpha	78.174178
_cell_angle_beta	83.461481
_cell_angle_gamma	101.842029
loop_
_atom_site_label
_atom_site_type_symbol
_atom_site_fract_x
_atom_site_fract_y
_atom_site_fract_z
O1	O	1.119920	0.098953	0.090088
O2	O	1.619920	0.598953	0.590088
O3	O	0.877862	0.098973	0.103384
O4	O	1.377862	0.598973	0.603384
O5	O	1.005539	0.098950	-0.024293
O6	O	1.505539	0.598950	0.475707
O7	O	0.992244	0.098976	0.217765
O8	O	1.492244	0.598976	0.717765
O9	O	0.971926	-0.099100	0.009286
O10	O	1.471926	0.400900	0.509286
O11	O	0.844249	-0.099077	0.136963
O12	O	1.344249	0.400923	0.636963
O13	O	1.086308	-0.099097	0.123667
O14	O	1.586308	0.400903	0.623667
Cu15	Cu	0.962210	-0.117170	0.133381
Cu16	Cu	1.462210	0.382830	0.633381
Cu17	Cu	1.001960	0.117047	0.093670
Cu18	Cu	1.501960	0.617047	0.593670
O19	O	0.958631	-0.099074	0.251343
O20	O	1.458631	0.400926	0.751343
C21	C	0.830081	-0.000050	0.119634
C22	C	1.330081	0.499950	0.619634
C23	C	0.737787	-0.000043	0.118018
C24	C	1.237787	0.499957	0.618018
N25	N	0.934257	-0.281906	0.161310
N26	N	1.434257	0.218094	0.661310
C27	C	0.515513	-0.000049	0.190027
C28	C	1.015513	0.499951	0.690027
C29	C	0.428792	-0.000057	0.188504
C30	C	0.928792	0.499943	0.688504
C31	C	0.448664	-0.000068	0.037017
C32	C	0.948664	0.499932	0.537017
C33	C	0.535383	-0.000068	0.038542
C34	C	1.035383	0.499932	0.538542
C35	C	0.568806	-0.000053	0.115048
C36	C	1.068806	0.499947	0.615048
C37	C	0.395366	-0.000060	0.112001
C38	C	0.895366	0.499940	0.612001
C39	C	0.301338	-0.000069	0.110349
C40	C	0.801338	0.499931	0.610349
C41	C	0.662839	-0.000047	0.116701
C42	C	1.162839	0.499953	0.616701
C43	C	1.097043	-0.655883	-0.001352
C44	C	1.597043	-0.155883	0.498648
C45	C	1.118188	-0.531225	-0.022484
C46	C	1.618188	-0.031225	0.477516
C47	C	1.072207	-0.468889	0.023462
C48	C	1.572207	0.031111	0.523462
C49	C	1.005078	-0.531224	0.090545
C50	C	1.505078	-0.031224	0.590545
C51	C	0.983935	-0.655894	0.111684
C52	C	1.483935	-0.155894	0.611684
C53	C	0.959099	-0.468900	0.136499
C54	C	1.459099	0.031100	0.636499
C55	C	0.891970	-0.531234	0.203582
C56	C	1.391970	-0.031234	0.703582
C57	C	0.870830	-0.655892	0.224717
C58	C	1.370830	-0.155892	0.724717
C59	C	0.916811	-0.718228	0.178770
C60	C	1.416811	-0.218228	0.678770
C61	C	0.980241	-0.344230	0.115360
C62	C	1.480241	0.155770	0.615360
C63	C	0.867133	-0.344240	0.228396
C64	C	1.367133	0.155760	0.728396
C65	C	0.845988	-0.468898	0.249528
C66	C	1.345988	0.031102	0.749528
C67	C	1.134089	-0.000071	0.107416
C68	C	1.634089	0.499929	0.607416
C69	C	1.226385	-0.000070	0.109031
C70	C	1.726385	0.499930	0.609031
C71	C	0.988194	-0.000075	-0.038478
C72	C	1.488194	0.499925	0.461522
C73	C	0.986578	-0.000077	-0.130773
C74	C	1.486578	0.499923	0.369227
N75	N	1.029919	0.281782	0.065734
N76	N	1.529919	0.781782	0.565734
C77	C	1.058588	-0.000064	-0.353048
C78	C	1.558588	0.499936	0.146952
C79	C	1.057066	-0.000054	-0.439770
C80	C	1.557066	0.499946	0.060230
C81	C	0.905578	-0.000046	-0.419897
C82	C	1.405578	0.499954	0.080103
C83	C	0.907103	-0.000048	-0.333178
C84	C	1.407103	0.499952	0.166822
C85	C	0.983609	-0.000062	-0.299755
C86	C	1.483609	0.499938	0.200245
C87	C	0.980562	-0.000051	-0.473196
C88	C	1.480562	0.499949	0.026804
C89	C	0.978911	-0.000040	-0.567224
C90	C	1.478911	0.499960	-0.067224
C91	C	0.985261	-0.000071	-0.205722
C92	C	1.485261	0.499929	0.294278
C93	C	0.975977	-0.000046	0.265528
C94	C	1.475977	0.499954	0.765528
C95	C	0.977593	-0.000037	0.357822
C96	C	1.477593	0.499963	0.857822
H97	H	0.542722	-0.000046	0.252324
H98	H	1.042722	0.499954	0.752324
H99	H	1.089426	-0.367387	0.006253
H100	H	1.589426	0.132613	0.506253
H101	H	1.034898	-0.293488	0.060741
H102	H	1.534898	0.206512	0.560741
Cl103	Cl	1.154768	-0.000079	-0.311034
Cl104	Cl	1.654768	0.499921	0.188966
H105	H	1.118122	-0.000052	-0.483159
H106	H	1.618122	0.499948	0.016841
Cl107	Cl	0.809404	-0.000028	-0.461921
Cl108	Cl	1.309404	0.499972	0.038079
H109	H	0.846043	-0.000043	-0.289785
H110	H	1.346043	0.499957	0.210215
H111	H	1.134479	-0.706645	-0.038751
H112	H	1.634479	-0.206645	0.461249
Cl113	Cl	0.361798	-0.000053	0.282767
Cl114	Cl	0.861798	0.499947	0.782767
H115	H	0.421439	-0.000087	-0.025271
H116	H	0.921439	0.499913	0.474729
H117	H	0.578776	-0.000075	-0.022518
H118	H	1.078776	0.499925	0.477482
H119	H	1.172844	-0.480477	-0.077102
H120	H	1.672844	0.019523	0.422898
Cl121	Cl	0.890224	-0.874948	0.205334
Cl122	Cl	1.390224	-0.374948	0.705334
Cl123	Cl	0.786449	-0.734257	0.309058
Cl124	Cl	1.286449	-0.234257	0.809058
H125	H	0.829693	-0.293487	0.265812
H126	H	1.329693	0.206513	0.765812
Cl127	Cl	0.761600	-0.547274	0.333860
Cl128	Cl	1.261600	-0.047274	0.833860
