data_functionalizedCrystal
_audit_creation_method	'MofGen! by Chris Wilmer'
_symmetry_space_group_name_H-M	'P1'
_symmetry_Int_Tables_number	1
_symmetry_cell_setting	triclinic
loop_
_symmetry_equiv_pos_as_xyz
  x,y,z
_cell_length_a	16.992694
_cell_length_b	10.540539
_cell_length_c	16.053802
_cell_angle_alpha	92.593658
_cell_angle_beta	87.249047
_cell_angle_gamma	87.596857
loop_
_atom_site_label
_atom_site_type_symbol
_atom_site_fract_x
_atom_site_fract_y
_atom_site_fract_z
O1	O	1.045174	0.264306	-0.069318
O2	O	0.816873	0.261349	-0.069343
O3	O	0.936232	0.078573	-0.069329
O4	O	0.925815	0.447082	-0.069332
O5	O	0.929662	0.088589	0.069529
O6	O	0.810303	0.271366	0.069516
O7	O	1.038604	0.274322	0.069540
Zn8	Zn	0.923410	0.274434	0.091575
Zn9	Zn	0.932067	0.261237	-0.091377
O10	O	0.919245	0.457098	0.069526
C11	C	0.784355	0.262556	0.000083
C12	C	0.697247	0.251215	0.000074
C13	C	0.647620	0.360635	0.000073
C14	C	0.565773	0.349973	0.000085
C15	C	0.533555	0.229889	0.000091
C16	C	0.583189	0.120461	0.000094
C17	C	0.665034	0.131125	0.000088
C18	C	0.289709	0.185691	0.000114
C19	C	0.207858	0.175036	0.000117
C20	C	0.190447	0.404549	0.000110
C21	C	0.272294	0.415202	0.000099
C22	C	0.321921	0.305774	0.000106
N23	N	0.449895	0.218988	0.000100
N24	N	0.405579	0.316677	0.000103
C25	C	0.932166	0.036210	0.000099
C26	C	0.929829	-0.104941	0.000094
C27	C	0.840283	-0.296162	-0.000227
C28	C	0.842638	-0.149316	0.000086
C29	C	0.968037	-0.157237	0.079393
C30	C	0.965058	-0.304035	0.079460
C31	C	0.974303	-0.315790	-0.078448
C32	C	0.975156	-0.168814	-0.079496
C33	C	1.071123	0.273115	0.000112
C34	C	1.158230	0.284456	0.000117
C35	C	0.923311	0.499461	0.000097
C36	C	0.925649	0.640612	0.000096
N37	N	0.917508	0.283440	0.216434
N38	N	0.937975	0.252222	-0.216237
C39	C	0.968315	0.205700	0.260134
C40	C	0.964193	0.212013	0.347540
C41	C	0.909269	0.296073	0.391245
C42	C	0.858458	0.373817	0.347539
C43	C	0.862576	0.367497	0.260134
C44	C	0.891281	0.323645	0.652653
C45	C	0.887169	0.329962	0.740063
C46	C	0.992904	0.168156	0.740059
C47	C	0.997020	0.161848	0.652652
C48	C	0.946206	0.239587	0.608954
N49	N	0.905057	0.302531	0.480588
N50	N	0.950415	0.233122	0.519612
H51	H	0.556951	0.022687	0.000111
N52	N	0.307038	0.544724	0.000108
H53	H	0.366417	0.534875	0.000104
H54	H	0.291358	0.589263	-0.051367
N55	N	0.799221	0.464481	0.394682
H56	H	0.809474	0.554448	0.379460
H57	H	0.744201	0.442944	0.379465
H58	H	0.330106	0.096587	0.000120
H59	H	1.005563	0.148710	0.383120
H60	H	0.673844	0.458420	0.000068
H61	H	1.027595	-0.346303	0.083064
H62	H	0.808532	-0.331853	-0.057095
H63	H	0.936097	-0.112911	0.138399
H64	H	1.013043	0.137255	0.224555
H65	H	0.705441	0.042023	0.000088
N66	N	0.791295	-0.334696	0.074667
H67	H	0.787769	-0.430190	0.072716
H68	H	0.816777	-0.305966	0.127442
N69	N	0.807774	0.451337	0.212997
H70	H	0.772355	0.505549	0.253945
H71	H	0.839825	0.507940	0.176720
H72	H	0.806696	-0.106338	0.057018
N73	N	1.056261	0.071185	0.605515
H74	H	1.087822	0.022892	0.646462
H75	H	1.027622	0.009340	0.569258
N76	N	1.059662	-0.129891	-0.085830
H77	H	1.096233	-0.207840	-0.085120
H78	H	1.069495	-0.085695	-0.139631
H79	H	0.525369	0.439075	0.000084
N80	N	0.136918	0.522567	0.000131
H81	H	0.169747	0.600257	0.000133
H82	H	0.105000	0.519449	-0.051337
H83	H	1.031928	-0.129114	0.082349
H84	H	0.181630	0.077244	0.000121
N85	N	1.047708	0.084312	0.787189
H86	H	1.036767	0.101067	0.849192
H87	H	1.038862	-0.007821	0.771919
N88	N	0.938231	-0.123706	-0.157208
H89	H	0.967636	-0.165103	-0.208190
H90	H	0.881251	-0.147470	-0.156635
N91	N	0.940698	-0.366570	-0.158065
H92	H	0.893589	-0.418360	-0.144023
H93	H	0.923864	-0.293222	-0.192476
H94	H	0.842440	0.398419	0.775644
N95	N	0.802466	-0.102096	-0.075208
H96	H	0.783065	-0.176706	-0.108901
H97	H	0.756297	-0.042621	-0.056209
H98	H	1.037306	-0.357589	-0.078974
H99	H	0.849907	0.386945	0.617080
N100	N	0.920268	-0.339304	0.157968
H101	H	0.902640	-0.259532	0.192206
H102	H	0.872609	-0.387703	0.142531
