data_functionalizedCrystal
_audit_creation_method	'MofGen! by Chris Wilmer'
_symmetry_space_group_name_H-M	'P1'
_symmetry_Int_Tables_number	1
_symmetry_cell_setting	triclinic
loop_
_symmetry_equiv_pos_as_xyz
  x,y,z
_cell_length_a	11.792241
_cell_length_b	14.853567
_cell_length_c	13.930277
_cell_angle_alpha	90.004245
_cell_angle_beta	89.995317
_cell_angle_gamma	96.085827
loop_
_atom_site_label
_atom_site_type_symbol
_atom_site_fract_x
_atom_site_fract_y
_atom_site_fract_z
O1	O	0.148181	-1.196945	-0.079765
O2	O	0.165833	-0.934554	-0.079782
O3	O	-0.008203	-1.072117	-0.079766
O4	O	0.322217	-1.059382	-0.079780
O5	O	-0.008206	-1.072098	0.079896
O6	O	0.165829	-0.934535	0.079880
O7	O	0.148177	-1.196926	0.079897
Zn8	Zn	0.157003	-1.065728	0.105238
Zn9	Zn	0.157008	-1.065753	-0.105123
O10	O	0.322213	-1.059363	0.079881
C11	C	-0.050491	-1.071308	0.000064
C12	C	-0.176489	-1.068913	0.000063
C13	C	0.165032	-0.900953	0.000047
C14	C	0.162635	-0.800860	0.000041
N15	N	0.156999	-1.065717	0.248804
C16	C	-0.407174	-1.064511	0.000047
C17	C	-0.278804	-1.066957	0.000056
C18	C	0.364501	-1.060173	0.000049
C19	C	0.490500	-1.062567	0.000044
C20	C	0.148979	-1.230527	0.000066
C21	C	0.151376	-1.330621	0.000066
C22	C	0.049122	-0.387884	0.000068
C23	C	0.255880	-0.367408	0.000058
C24	C	0.258134	-0.461451	0.000055
C25	C	0.155880	-0.518715	0.000056
C26	C	0.051372	-0.481936	0.000062
C27	C	0.362640	-0.498237	0.000040
C28	C	0.364898	-0.592285	0.000035
C29	C	0.262642	-0.649550	0.000044
C30	C	0.158131	-0.612766	0.000050
C31	C	0.055877	-0.670030	0.000052
C32	C	-0.048637	-0.633248	0.000065
C33	C	-0.050883	-0.539201	0.000070
C34	C	0.264889	-0.743596	0.000039
C35	C	0.058127	-0.764081	0.000046
N36	N	0.157003	-1.065771	-0.248689
C37	C	0.234041	-1.004838	0.701067
C38	C	0.079966	-1.126693	0.701050
C39	C	0.079963	-1.126682	0.600554
C40	C	0.157000	-1.065749	0.550310
C41	C	0.234042	-1.004827	0.600562
C42	C	0.002930	-1.187610	0.550295
C43	C	0.002925	-1.187602	0.449793
C44	C	0.079958	-1.126664	0.399547
C45	C	0.157001	-1.065738	0.449805
C46	C	0.234039	-1.004805	0.399561
C47	C	0.311078	-0.943875	0.449817
C48	C	0.311075	-0.943889	0.550316
C49	C	0.079961	-1.126650	0.299048
C50	C	0.234040	-1.004794	0.299056
H51	H	-0.025142	-0.810700	0.000052
H52	H	-0.135972	-0.509244	0.000104
H53	H	0.017242	-1.176263	0.258135
H54	H	0.349982	-0.773540	0.000030
H55	H	0.017250	-1.176308	0.741962
H56	H	-0.059786	-1.237224	0.591207
H57	H	0.296762	-0.955226	0.741988
H58	H	-0.059805	-1.237214	0.408881
H59	H	0.339131	-0.320779	0.000048
H60	H	0.373808	-0.894266	0.408897
N61	N	-0.153073	-0.691758	0.000055
N62	N	-0.151037	-0.775725	0.000039
H63	H	-0.224793	-0.817052	0.000030
H64	H	0.445889	-0.451606	0.000028
H65	H	0.296770	-0.955172	0.258153
N66	N	-0.057621	-0.350303	0.000090
N67	N	-0.059624	-0.266334	0.000103
H68	H	-0.135012	-0.239790	0.000119
H69	H	0.449998	-0.622224	0.000025
N70	N	0.389753	-0.881660	0.601666
N71	N	0.389741	-0.881683	0.691397
H72	H	0.445308	-0.837736	0.727667
