data_functionalizedCrystal
_audit_creation_method	'MofGen! by Chris Wilmer'
_symmetry_space_group_name_H-M	'P1'
_symmetry_Int_Tables_number	1
_symmetry_cell_setting	triclinic
loop_
_symmetry_equiv_pos_as_xyz
  x,y,z
_cell_length_a	13.262533
_cell_length_b	13.339070
_cell_length_c	11.804365
_cell_angle_alpha	105.112168
_cell_angle_beta	93.582318
_cell_angle_gamma	99.431353
loop_
_atom_site_label
_atom_site_type_symbol
_atom_site_fract_x
_atom_site_fract_y
_atom_site_fract_z
O1	O	1.378749	0.207897	0.347526
O2	O	1.091830	0.203620	0.254596
O3	O	1.202360	0.056157	0.290399
O4	O	1.268219	0.355360	0.311723
O5	O	1.173250	0.094936	0.479026
O6	O	1.062720	0.242400	0.443223
O7	O	1.349639	0.246677	0.536152
Cu8	Cu	1.203522	0.248079	0.506911
Cu9	Cu	1.237947	0.202218	0.283838
O10	O	1.239109	0.394140	0.500350
C11	C	1.039802	0.219683	0.336773
C12	C	0.928142	0.209756	0.300607
C13	C	1.176680	0.037067	0.381108
C14	C	1.143521	-0.077591	0.370363
C15	C	0.549914	0.266344	0.609948
C16	C	0.654824	0.275676	0.643932
C17	C	0.723158	0.259197	0.558104
C18	C	0.686573	0.233384	0.438285
C19	C	0.581653	0.224058	0.404297
C20	C	0.754898	0.216911	0.352454
C21	C	0.718312	0.191098	0.232635
C22	C	0.613403	0.181773	0.198653
C23	C	0.545068	0.198253	0.284481
C24	C	0.859817	0.226237	0.386442
C25	C	0.891557	0.183951	0.180791
C26	C	0.786647	0.174618	0.146806
C27	C	1.401357	-0.424070	0.453873
C28	C	1.432514	-0.316342	0.463976
C29	C	1.360269	-0.256649	0.440573
C30	C	1.256860	-0.304695	0.407067
C31	C	1.225699	-0.412431	0.396972
C32	C	1.184610	-0.245010	0.383672
C33	C	1.081202	-0.293056	0.350166
C34	C	1.050046	-0.400782	0.340072
C35	C	1.122292	-0.460475	0.363475
C36	C	1.215772	-0.137274	0.393767
C37	C	1.040114	-0.125635	0.336866
C38	C	1.008957	-0.233363	0.326763
C39	C	1.401667	0.230614	0.453973
C40	C	1.513329	0.240539	0.490131
C41	C	1.264789	0.413229	0.409638
C42	C	1.297950	0.527886	0.420376
N43	N	1.179316	0.280335	0.663811
N44	N	1.262159	0.169954	0.126940
C45	C	1.320281	0.092475	1.083421
C46	C	1.338591	0.068069	0.964690
C47	C	1.298773	0.121133	0.889464
C48	C	1.240644	0.198608	0.932981
C49	C	1.222339	0.223023	1.051726
C50	C	1.200831	0.251681	0.857769
C51	C	1.142702	0.329156	0.901286
C52	C	1.124399	0.353566	1.020019
C53	C	1.164217	0.300502	1.095245
C54	C	1.219136	0.227266	0.739025
C55	C	1.121194	0.357814	0.707330
C56	C	1.102884	0.382220	0.826061
H57	H	0.889595	0.247256	0.483999
Br58	Br	0.402687	0.185613	0.238363
H59	H	0.494269	0.279766	0.679816
H60	H	0.808580	0.266797	0.585782
Br61	Br	1.374329	0.020479	1.185515
Br62	Br	0.563755	0.146763	0.036042
Br63	Br	1.139358	0.333620	1.256384
H64	H	0.924760	-0.272497	0.299482
H65	H	0.684604	0.296692	0.741489
Br66	Br	1.356106	-0.072082	0.439241
Br67	Br	1.045529	0.458726	1.079088
Br68	Br	1.323621	0.088009	0.728326
H69	H	0.756843	0.153602	0.049248
H70	H	0.981284	-0.077032	0.317815
H71	H	0.947196	0.170535	0.110903
Br72	Br	1.080033	-0.606716	0.349611
H73	H	1.055554	0.445303	0.861507
H74	H	1.088773	0.401026	0.646082
Br75	Br	1.499388	-0.505079	0.485657
H76	H	1.516708	-0.277231	0.491258
Br77	Br	1.417480	-0.037066	0.905632
H78	H	1.385643	-0.168933	0.448801
Br79	Br	0.909703	-0.465981	0.294621
H80	H	1.266465	0.164186	0.703604
