data_functionalizedCrystal
_audit_creation_method	'MofGen! by Chris Wilmer'
_symmetry_space_group_name_H-M	'P1'
_symmetry_Int_Tables_number	1
_symmetry_cell_setting	triclinic
loop_
_symmetry_equiv_pos_as_xyz
  x,y,z
_cell_length_a	15.995350
_cell_length_b	15.995350
_cell_length_c	12.996460
_cell_angle_alpha	89.998059
_cell_angle_beta	90.002563
_cell_angle_gamma	83.492375
loop_
_atom_site_label
_atom_site_type_symbol
_atom_site_fract_x
_atom_site_fract_y
_atom_site_fract_z
O1	O	1.110988	0.107921	0.085474
O2	O	1.610988	0.607921	0.585474
O3	O	0.867213	0.121248	0.085495
O4	O	1.367213	0.621248	0.585495
O5	O	0.995764	-0.007303	0.085483
O6	O	1.495764	0.492697	0.585483
O7	O	0.982437	0.236472	0.085486
O8	O	1.482437	0.736472	0.585486
O9	O	0.995748	-0.007296	-0.085651
O10	O	1.495748	0.492704	0.414349
O11	O	0.867196	0.121256	-0.085639
O12	O	1.367196	0.621256	0.414361
O13	O	1.110972	0.107928	-0.085659
O14	O	1.610972	0.607928	0.414341
Cu15	Cu	0.989083	0.114593	-0.101275
Cu16	Cu	1.489083	0.614593	0.398725
Cu17	Cu	0.989102	0.114584	0.101111
Cu18	Cu	1.489102	0.614584	0.601111
O19	O	0.982420	0.236480	-0.085648
O20	O	1.482420	0.736480	0.414352
C21	C	0.836010	0.120701	-0.000069
C22	C	1.336010	0.620701	0.499931
C23	C	0.743060	0.119049	-0.000061
C24	C	1.243060	0.619049	0.499939
C25	C	0.995205	-0.038494	-0.000082
C26	C	1.495205	0.461506	0.499918
C27	C	0.993553	-0.131444	-0.000076
C28	C	1.493553	0.368556	0.499924
C29	C	0.405312	0.113117	-0.000083
C30	C	0.905312	0.613117	0.499917
C31	C	0.452746	0.021565	-0.000466
C32	C	0.952746	0.521565	0.499534
C33	C	0.549436	0.023217	-0.000073
C34	C	1.049436	0.523217	0.499927
C35	C	0.572873	0.116060	-0.000073
C36	C	1.072873	0.616060	0.499927
C37	C	0.531795	0.161212	0.097650
C38	C	1.031795	0.661212	0.597650
C39	C	0.435159	0.158912	0.097724
C40	C	0.935159	0.658912	0.597724
C41	C	0.434801	0.160812	-0.096887
C42	C	0.934801	0.660812	0.403113
C43	C	0.531747	0.160790	-0.098171
C44	C	1.031747	0.660790	0.401829
C45	C	0.667570	0.117727	-0.000063
C46	C	1.167570	0.617727	0.499937
C47	C	0.310614	0.111452	-0.000085
C48	C	0.810614	0.611452	0.499915
C49	C	0.987621	-0.469192	-0.000079
C50	C	1.487621	0.030808	0.499921
C51	C	0.896069	-0.421758	0.000313
C52	C	1.396069	0.078242	0.500313
C53	C	0.897721	-0.325068	-0.000073
C54	C	1.397721	0.174932	0.499927
C55	C	0.990564	-0.301631	-0.000077
C56	C	1.490564	0.198369	0.499923
C57	C	1.035711	-0.342705	-0.097804
C58	C	1.535711	0.157295	0.402196
C59	C	1.033411	-0.439340	-0.097886
C60	C	1.533411	0.060660	0.402114
C61	C	1.035321	-0.439707	0.096725
C62	C	1.535321	0.060293	0.596725
C63	C	1.035299	-0.342762	0.098017
C64	C	1.535299	0.157238	0.598017
C65	C	0.992231	-0.206934	-0.000079
C66	C	1.492231	0.293066	0.499921
C67	C	0.985956	-0.563890	-0.000083
C68	C	1.485956	-0.063890	0.499917
C69	C	1.142175	0.108476	-0.000093
C70	C	1.642175	0.608476	0.499907
C71	C	1.235125	0.110127	-0.000094
C72	C	1.735125	0.610127	0.499906
C73	C	0.982980	0.267671	-0.000080
C74	C	1.482980	0.767671	0.499920
C75	C	0.984631	0.360621	-0.000080
C76	C	1.484631	0.860621	0.499920
N77	N	0.989075	0.114598	-0.243622
N78	N	1.489075	0.614598	0.256378
C79	C	0.989079	0.114601	-0.336728
C80	C	1.489079	0.614601	0.163272
C81	C	0.989086	0.114595	-0.453533
C82	C	1.489086	0.614595	0.046467
C83	C	0.989097	0.114586	-0.546631
C84	C	1.489097	0.614586	-0.046631
C85	C	0.989106	0.114581	-0.663444
C86	C	1.489106	0.614581	-0.163444
N87	N	0.989116	0.114572	0.243458
N88	N	1.489116	0.614572	0.743458
H89	H	0.577858	-0.012275	-0.070124
H90	H	1.077858	0.487725	0.429876
F91	F	0.851002	-0.288638	-0.091787
F92	F	1.351002	0.211362	0.408213
H93	H	0.859484	-0.440293	0.070396
H94	H	1.359484	0.059707	0.570396
F95	F	1.123549	-0.481221	0.097582
F96	F	1.623549	0.018779	0.597582
H97	H	0.559056	0.127830	-0.170466
H98	H	1.059056	0.627830	0.329534
H99	H	0.545920	0.229421	0.101283
H100	H	1.045920	0.729421	0.601283
F101	F	0.992487	-0.306761	0.192527
F102	F	1.492487	0.193239	0.692527
F103	F	0.996200	-0.466549	0.193543
F104	F	1.496200	0.033451	0.693543
F105	F	0.990359	-0.463260	-0.193365
F106	F	1.490359	0.036740	0.306635
H107	H	1.100627	-0.471588	-0.102323
H108	H	1.600627	0.028412	0.397677
F109	F	0.393006	0.246766	0.103522
F110	F	0.893006	0.746766	0.603522
F111	F	0.411235	0.115865	0.193205
F112	F	0.911235	0.615865	0.693205
H113	H	0.434217	-0.015027	-0.070546
H114	H	0.934217	0.484973	0.429454
F115	F	0.585836	-0.023306	0.091794
F116	F	1.085836	0.476694	0.591794
H117	H	0.560176	0.129845	0.170376
H118	H	1.060176	0.629845	0.670376
H119	H	0.547111	0.228494	-0.104074
H120	H	1.047111	0.728494	0.395926
F121	F	0.393288	0.249040	-0.097752
F122	F	0.893288	0.749040	0.402248
H123	H	0.433159	-0.014865	0.069228
H124	H	0.933159	0.485135	0.569228
H125	H	0.414259	0.130885	-0.170958
H126	H	0.914259	0.630885	0.329042
F127	F	0.851334	-0.287919	0.091494
F128	F	1.351334	0.212081	0.591494
H129	H	0.859632	-0.441349	-0.069373
H130	H	1.359632	0.058651	0.430627
H131	H	1.103919	-0.328579	-0.101441
H132	H	1.603919	0.171421	0.398559
H133	H	1.004340	-0.314320	-0.170527
H134	H	1.504340	0.185680	0.329473
F135	F	1.123794	-0.322679	0.105732
F136	F	1.623794	0.177321	0.605732
