data_functionalizedCrystal
_audit_creation_method	'MofGen! by Chris Wilmer'
_symmetry_space_group_name_H-M	'P1'
_symmetry_Int_Tables_number	1
_symmetry_cell_setting	triclinic
loop_
_symmetry_equiv_pos_as_xyz
  x,y,z
_cell_length_a	12.827893
_cell_length_b	12.827892
_cell_length_c	12.827885
_cell_angle_alpha	89.970024
_cell_angle_beta	89.980728
_cell_angle_gamma	90.015362
loop_
_atom_site_label
_atom_site_type_symbol
_atom_site_fract_x
_atom_site_fract_y
_atom_site_fract_z
Zn1	Zn	1.597670	-0.415983	-0.590847
Zn2	Zn	1.931003	-0.082650	-0.257514
Zn3	Zn	2.264336	0.250683	0.075819
Zn4	Zn	1.597564	-0.590761	-0.416107
Zn5	Zn	1.930897	-0.257427	-0.082774
Zn6	Zn	2.264230	0.075906	0.250560
Zn7	Zn	1.422911	-0.416034	-0.416121
Zn8	Zn	1.756244	-0.082701	-0.082788
Zn9	Zn	2.089578	0.250633	0.250546
Zn10	Zn	1.422896	-0.590683	-0.590807
Zn11	Zn	1.756230	-0.257350	-0.257474
Zn12	Zn	2.089563	0.075984	0.075860
O13	O	1.510260	-0.503365	-0.503471
O14	O	1.843593	-0.170032	-0.170137
O15	O	2.176927	0.163301	0.163196
O16	O	1.743892	-0.439179	-0.567679
O17	O	2.077225	-0.105846	-0.234345
O18	O	2.410558	0.227488	0.098988
O19	O	1.574357	-0.567637	-0.269873
O20	O	1.907691	-0.234303	0.063461
O21	O	2.241024	0.099030	0.396794
O22	O	1.446144	-0.269791	-0.439321
O23	O	1.779477	0.063542	-0.105988
O24	O	2.112810	0.396875	0.227345
O25	O	1.743814	-0.567587	-0.439298
O26	O	2.077147	-0.234254	-0.105964
O27	O	2.410480	0.099079	0.227369
O28	O	1.574538	-0.269754	-0.567692
O29	O	1.907871	0.063579	-0.234359
O30	O	2.241205	0.396913	0.098975
O31	O	1.446041	-0.439266	-0.269883
O32	O	1.779374	-0.105932	0.063450
O33	O	2.112708	0.227401	0.396784
O34	O	1.276673	-0.439190	-0.439282
O35	O	1.610006	-0.105857	-0.105949
O36	O	1.943340	0.227476	0.227384
O37	O	1.446118	-0.567455	-0.737048
O38	O	1.779452	-0.234121	-0.403715
O39	O	2.112785	0.099212	-0.070382
O40	O	1.276662	-0.567504	-0.567623
O41	O	1.609996	-0.234171	-0.234290
O42	O	1.943329	0.099163	0.099043
O43	O	1.574524	-0.439104	-0.737078
O44	O	1.907857	-0.105770	-0.403745
O45	O	2.241190	0.227563	-0.070411
O46	O	1.574343	-0.736986	-0.439259
O47	O	1.907677	-0.403653	-0.105925
O48	O	2.241010	-0.070320	0.227408
O49	O	1.446016	-0.736929	-0.567610
O50	O	1.779349	-0.403596	-0.234277
O51	O	2.112682	-0.070263	0.099057
C52	C	1.238750	-0.503345	-0.503451
C53	C	1.572084	-0.170012	-0.170117
C54	C	1.905417	0.163322	0.163216
C55	C	1.122597	-0.503362	-0.503467
C56	C	1.455930	-0.170028	-0.170134
C57	C	1.789264	0.163305	0.163200
C58	C	1.070835	-0.566954	-0.566876
C59	C	1.404168	-0.233621	-0.233543
C60	C	1.737501	0.099712	0.099790
C61	C	0.950784	-0.566973	-0.566895
C62	C	1.284118	-0.233640	-0.233561
C63	C	1.617451	0.099694	0.099772
C64	C	1.510195	-0.774875	-0.503451
C65	C	1.843528	-0.441542	-0.170118
C66	C	2.176861	-0.108208	0.163215
C67	C	1.510262	-0.891028	-0.503478
C68	C	1.843596	-0.557695	-0.170145
C69	C	2.176929	-0.224362	0.163189
C70	C	1.573768	-0.942711	-0.567057
C71	C	1.907101	-0.609378	-0.233724
C72	C	2.240434	-0.276044	0.099610
C73	C	1.573839	-1.062761	-0.567086
C74	C	1.907172	-0.729428	-0.233753
C75	C	2.240506	-0.396095	0.099581
C76	C	1.782830	-0.503386	-0.503491
C77	C	2.116164	-0.170053	-0.170158
C78	C	2.449497	0.163280	0.163176
C79	C	1.898983	-0.503395	-0.503500
C80	C	2.232317	-0.170062	-0.170167
C81	C	2.565650	0.163272	0.163167
C82	C	1.510331	-0.503265	-0.776041
C83	C	1.843665	-0.169932	-0.442708
C84	C	2.176998	0.163402	-0.109374
C85	C	1.510362	-0.503222	-0.892194
C86	C	1.843695	-0.169889	-0.558861
C87	C	2.177028	0.163445	-0.225527
C88	C	1.510354	-0.230795	-0.503513
C89	C	1.843688	0.102538	-0.170180
C90	C	2.177021	0.435872	0.163154
C91	C	1.510394	-0.114642	-0.503531
C92	C	1.843728	0.218691	-0.170198
C93	C	2.177061	0.552025	0.163136
C94	C	1.573907	-0.439697	-0.943993
C95	C	1.907241	-0.106364	-0.610660
C96	C	2.240574	0.226969	-0.277327
C97	C	1.573940	-0.439652	-1.064044
C98	C	1.907274	-0.106319	-0.730711
C99	C	2.240607	0.227015	-0.397377
C100	C	1.510249	-0.503390	-0.231961
C101	C	1.843583	-0.170056	0.101373
C102	C	2.176916	0.163277	0.434706
C103	C	1.510422	-0.503138	-0.115808
C104	C	1.843755	-0.169805	0.217525
C105	C	2.177088	0.163529	0.550859
H106	H	1.115396	-0.621381	-0.621153
H107	H	1.448729	-0.288048	-0.287820
H108	H	1.782062	0.045286	0.045513
O109	O	1.438339	-0.575165	-1.056805
O110	O	1.771672	-0.241832	-0.723472
O111	O	2.105006	0.091501	-0.390139
H112	H	1.356321	-0.557233	-1.077701
H113	H	1.689654	-0.223899	-0.744367
H114	H	2.022987	0.109434	-0.411034
O115	O	0.957942	-0.431279	-0.431581
O116	O	1.291275	-0.097946	-0.098248
O117	O	1.624608	0.235387	0.235085
H118	H	0.937016	-0.449102	-0.349520
H119	H	1.270350	-0.115768	-0.016186
H120	H	1.603683	0.217565	0.317147
H121	H	1.456026	-1.070203	-0.449091
H122	H	1.789359	-0.736870	-0.115758
H123	H	2.122692	-0.403537	0.217575
H124	H	1.455941	-0.935657	-0.449072
H125	H	1.789274	-0.602324	-0.115739
H126	H	2.122608	-0.268991	0.217595
O127	O	1.645999	-0.367607	-1.123054
O128	O	1.979332	-0.034273	-0.789721
O129	O	2.312665	0.299060	-0.456388
H130	H	1.728026	-0.385524	-1.102183
H131	H	2.061360	-0.052190	-0.768850
H132	H	2.394693	0.281143	-0.435516
H133	H	1.455975	-0.557567	-0.936724
H134	H	1.789309	-0.224234	-0.603390
H135	H	2.122642	0.109099	-0.270057
H136	H	1.628212	-1.107208	-0.621514
H137	H	1.961546	-0.773875	-0.288181
H138	H	2.294879	-0.440541	0.045152
H139	H	0.906270	-0.621420	-0.621179
H140	H	1.239603	-0.288087	-0.287845
H141	H	1.572936	0.045246	0.045488
H142	H	1.628283	-0.385342	-0.899464
H143	H	1.961617	-0.052009	-0.566131
H144	H	2.294950	0.281325	-0.232797
H145	H	1.078036	-0.448927	-0.449198
H146	H	1.411369	-0.115594	-0.115864
H147	H	1.744703	0.217740	0.217469
H148	H	1.628081	-0.898084	-0.621473
H149	H	1.961414	-0.564751	-0.288139
H150	H	2.294748	-0.231418	0.045194
