data_functionalizedCrystal
_audit_creation_method	'MofGen! by Chris Wilmer'
_symmetry_space_group_name_H-M	'P1'
_symmetry_Int_Tables_number	1
_symmetry_cell_setting	triclinic
loop_
_symmetry_equiv_pos_as_xyz
  x,y,z
_cell_length_a	13.897449
_cell_length_b	25.639240
_cell_length_c	13.897441
_cell_angle_alpha	90.041488
_cell_angle_beta	90.020733
_cell_angle_gamma	90.034037
loop_
_atom_site_label
_atom_site_type_symbol
_atom_site_fract_x
_atom_site_fract_y
_atom_site_fract_z
Zn1	Zn	1.474602	-0.208116	0.545308
Zn2	Zn	1.974602	0.291884	1.045308
Zn3	Zn	1.474453	-0.295559	0.383979
Zn4	Zn	1.974453	0.204441	0.883979
Zn5	Zn	1.313291	-0.208141	0.384027
Zn6	Zn	1.813291	0.291859	0.884027
Zn7	Zn	1.313230	-0.295524	0.545232
Zn8	Zn	1.813230	0.204476	1.045232
O9	O	1.393894	-0.251835	0.464636
O10	O	1.893894	0.248165	0.964636
O11	O	1.609564	-0.219720	0.523920
O12	O	2.109564	0.280280	1.023920
O13	O	1.453038	-0.283987	0.249003
O14	O	1.953038	0.216013	0.749003
O15	O	1.334776	-0.134973	0.405473
O16	O	1.834776	0.365027	0.905473
O17	O	1.609454	-0.283963	0.405392
O18	O	2.109454	0.216037	0.905392
O19	O	1.453291	-0.134954	0.523966
O20	O	1.953291	0.365046	1.023966
O21	O	1.334633	-0.219762	0.249039
O22	O	1.834633	0.280238	0.749039
O23	O	1.178301	-0.219729	0.405399
O24	O	1.678301	0.280271	0.905399
O25	O	1.334673	-0.283905	0.680223
O26	O	1.834673	0.216095	1.180223
O27	O	1.178257	-0.283929	0.523835
O28	O	1.678257	0.216071	1.023835
O29	O	1.453232	-0.219686	0.680280
O30	O	1.953232	0.280314	1.180280
O31	O	1.452979	-0.368719	0.405317
O32	O	1.952979	0.131281	0.905317
O33	O	1.334529	-0.368694	0.523789
O34	O	1.834529	0.131306	1.023789
C35	C	1.143280	-0.251828	0.464614
C36	C	1.643280	0.248172	0.964614
C37	C	1.036066	-0.251838	0.464628
C38	C	1.536066	0.248162	0.964628
C39	C	0.839771	-0.251840	0.464653
C40	C	1.339771	0.248160	0.964653
C41	C	0.949003	-0.251837	0.464636
C42	C	1.449003	0.248163	0.964636
C43	C	1.393758	-0.387678	0.464561
C44	C	1.893758	0.112322	0.964561
C45	C	1.393788	-0.445792	0.464561
C46	C	1.893788	0.054208	0.964561
C47	C	1.455635	-0.806107	0.526447
C48	C	1.955635	-0.306107	1.026447
C49	C	1.455663	-0.860711	0.526466
C50	C	1.955663	-0.360711	1.026466
O51	O	1.508086	-0.888907	0.579007
O52	O	2.008086	-0.388907	1.079007
N53	N	1.394028	-0.888074	0.464729
N54	N	1.894028	-0.388074	0.964729
C55	C	1.332353	-0.860830	0.402976
C56	C	1.832353	-0.360830	0.902976
O57	O	1.279929	-0.889119	0.350466
O58	O	1.779929	-0.389119	0.850466
C59	C	1.332320	-0.806227	0.402962
C60	C	1.832320	-0.306227	0.902962
C61	C	1.393967	-0.778867	0.464696
C62	C	1.893967	-0.278867	0.964696
C63	C	1.517276	-0.778747	0.588177
C64	C	2.017276	-0.278747	1.088177
C65	C	1.517248	-0.724146	0.588156
C66	C	2.017248	-0.224146	1.088156
C67	C	1.455580	-0.696906	0.526405
C68	C	1.955580	-0.196906	1.026405
C69	C	1.393939	-0.724266	0.464675
C70	C	1.893939	-0.224266	0.964675
C71	C	1.270641	-0.778984	0.341214
C72	C	1.770641	-0.278984	0.841214
C73	C	1.270613	-0.724377	0.341206
C74	C	1.770613	-0.224377	0.841206
C75	C	1.332260	-0.697017	0.402940
C76	C	1.832260	-0.197017	0.902940
C77	C	1.332244	-0.642425	0.402903
C78	C	1.832244	-0.142425	0.902903
N79	N	1.393879	-0.615062	0.464640
N80	N	1.893879	-0.115062	0.964640
C81	C	1.455548	-0.642302	0.526391
C82	C	1.955548	-0.142302	1.026391
C83	C	1.332425	-0.975501	0.403011
C84	C	1.832425	-0.475501	0.903011
C85	C	1.332461	-1.030103	0.403020
C86	C	1.832461	-0.530103	0.903020
C87	C	1.455771	-1.029980	0.526512
C88	C	1.955771	-0.529980	1.026512
C89	C	1.455739	-0.975377	0.526498
C90	C	1.955739	-0.475377	1.026498
C91	C	1.394060	-0.948138	0.464748
C92	C	1.894060	-0.448138	0.964748
C93	C	1.455486	-0.527637	0.526341
C94	C	1.955486	-0.027637	1.026341
C95	C	1.455456	-0.473032	0.526312
C96	C	1.955456	0.026968	1.026312
C97	C	1.332143	-0.473160	0.402823
C98	C	1.832143	0.026840	0.902823
C99	C	1.332176	-0.527760	0.402849
C100	C	1.832176	-0.027760	0.902849
C101	C	1.393851	-0.554998	0.464615
C102	C	1.893851	-0.054998	0.964615
O103	O	1.279845	-0.614195	0.350392
O104	O	1.779845	-0.114195	0.850392
O105	O	1.507954	-0.614007	0.578900
O106	O	2.007954	-0.114007	1.078900
C107	C	1.645487	-0.251843	0.464659
C108	C	2.145487	0.248157	0.964659
C109	C	1.752701	-0.251846	0.464669
C110	C	2.252701	0.248154	0.964669
C111	C	1.393962	-0.251789	0.716229
C112	C	1.893962	0.248211	1.216229
C113	C	1.393992	-0.251769	0.823443
C114	C	1.893992	0.248231	1.323443
C115	C	1.394057	-0.115462	0.464733
C116	C	1.894057	0.384538	0.964733
C117	C	1.394127	-0.057348	0.464775
C118	C	1.894127	0.442652	0.964775
C119	C	1.393881	-0.251843	0.214022
C120	C	1.893881	0.248157	0.714022
C121	C	1.394039	-0.251716	0.106809
C122	C	1.894039	0.248284	0.606809
C123	C	1.394018	-0.251734	1.019739
C124	C	1.894018	0.248266	1.519739
C125	C	1.394000	-0.251755	0.910506
C126	C	1.894000	0.248245	1.410506
H127	H	1.505701	-0.549808	0.576644
H128	H	2.005701	-0.049808	1.076644
H129	H	1.282202	-0.953325	0.352719
H130	H	1.782202	-0.453325	0.852719
N131	N	1.204089	-0.695003	0.274593
N132	N	1.704089	-0.195003	0.774593
H133	H	1.243299	-0.672352	0.229916
H134	H	1.743299	-0.172352	0.729916
H135	H	1.159365	-0.672379	0.313808
H136	H	1.659365	-0.172379	0.813808
H137	H	1.281986	-0.550038	0.352572
H138	H	1.781986	-0.050038	0.852572
N139	N	1.583726	-0.694642	0.654757
N140	N	2.083726	-0.194642	1.154757
H141	H	1.574358	-0.655916	0.645387
H142	H	2.074358	-0.155916	1.145387
H143	H	1.652629	-0.704162	0.639814
H144	H	2.152629	-0.204162	1.139814
N145	N	1.583770	-0.808122	0.654810
N146	N	2.083770	-0.308122	1.154810
H147	H	1.622800	-0.782496	0.693915
H148	H	2.122800	-0.282496	1.193915
H149	H	1.628457	-0.830779	0.615618
H150	H	2.128457	-0.330779	1.115618
N151	N	1.204151	-0.808485	0.274627
N152	N	1.704151	-0.308485	0.774627
H153	H	1.165083	-0.782935	0.235516
H154	H	1.665083	-0.282935	0.735516
H155	H	1.159501	-0.831142	0.313857
H156	H	1.659501	-0.331142	0.813857
H157	H	1.505983	-1.052169	0.576795
H158	H	2.005983	-0.552169	1.076795
N159	N	1.521950	-0.443522	0.592897
N160	N	2.021950	0.056478	1.092897
H161	H	1.561016	-0.469068	0.632020
H162	H	2.061016	0.030932	1.132020
H163	H	1.482651	-0.420863	0.637493
H164	H	1.982651	0.079137	1.137493
N165	N	1.522226	-0.945869	0.593082
N166	N	2.022226	-0.445869	1.093082
H167	H	1.561296	-0.971416	0.632198
H168	H	2.061296	-0.471416	1.132198
H169	H	1.482927	-0.923214	0.637685
H170	H	1.982927	-0.423214	1.137685
H171	H	1.282273	-1.052375	0.352739
H172	H	1.782273	-0.552375	0.852739
N173	N	1.265637	-0.443774	0.336217
N174	N	1.765637	0.056226	0.836217
H175	H	1.274978	-0.405032	0.345579
H176	H	1.774978	0.094968	0.845579
H177	H	1.196744	-0.453341	0.351173
H178	H	1.696744	0.046659	0.851173
