data_functionalizedCrystal
_audit_creation_method	'MofGen! by Chris Wilmer'
_symmetry_space_group_name_H-M	'P1'
_symmetry_Int_Tables_number	1
_symmetry_cell_setting	triclinic
loop_
_symmetry_equiv_pos_as_xyz
  x,y,z
_cell_length_a	17.699083
_cell_length_b	19.188930
_cell_length_c	16.176319
_cell_angle_alpha	89.988074
_cell_angle_beta	89.998611
_cell_angle_gamma	83.213899
loop_
_atom_site_label
_atom_site_type_symbol
_atom_site_fract_x
_atom_site_fract_y
_atom_site_fract_z
O1	O	1.003963	0.088294	-0.068640
O2	O	1.503963	0.588294	0.431360
O3	O	0.783569	0.099782	-0.068668
O4	O	1.283569	0.599782	0.431332
O5	O	0.900126	-0.007610	-0.068637
O6	O	1.400126	0.492390	0.431363
O7	O	0.887406	0.195687	-0.068671
O8	O	1.387406	0.695687	0.431329
O9	O	0.900110	-0.007617	0.068856
O10	O	1.400110	0.492383	0.568856
O11	O	0.783553	0.099775	0.068825
O12	O	1.283553	0.599775	0.568825
O13	O	1.003947	0.088288	0.068853
O14	O	1.503947	0.588288	0.568853
Cu15	Cu	0.893748	0.094031	0.081393
Cu16	Cu	1.393748	0.594031	0.581393
Cu17	Cu	0.893767	0.094039	-0.081208
Cu18	Cu	1.393767	0.594039	0.418792
O19	O	0.887390	0.195680	0.068822
O20	O	1.387390	0.695680	0.568822
C21	C	0.755365	0.099367	0.000075
C22	C	1.255365	0.599367	0.500075
C23	C	0.671348	0.098132	0.000065
C24	C	1.171348	0.598132	0.500065
C25	C	0.899706	-0.033625	0.000112
C26	C	1.399706	0.466375	0.500112
C27	C	0.898469	-0.111131	0.000119
C28	C	1.398469	0.388869	0.500119
C29	C	0.622644	0.161169	0.000055
C30	C	1.122644	0.661169	0.500055
C31	C	0.543702	0.160004	0.000065
C32	C	1.043702	0.660004	0.500065
C33	C	0.513466	0.095802	0.000081
C34	C	1.013466	0.595802	0.500081
C35	C	0.562176	0.032761	0.000093
C36	C	1.062176	0.532761	0.500093
C37	C	0.641117	0.033926	0.000088
C38	C	1.141117	0.533926	0.500088
C39	C	0.243819	0.028060	0.000115
C40	C	0.743819	0.528060	0.500115
C41	C	0.164873	0.026900	0.000117
C42	C	0.664873	0.526900	0.500117
C43	C	0.146405	0.154139	0.000092
C44	C	0.646405	0.654139	0.500092
C45	C	0.225345	0.155304	0.000087
C46	C	0.725345	0.655304	0.500087
C47	C	0.274049	0.092263	0.000104
C48	C	0.774049	0.592263	0.500104
C49	C	0.359646	0.093526	0.000094
C50	C	0.859646	0.593526	0.500094
C51	C	0.427870	0.094538	0.000085
C52	C	0.927870	0.594538	0.500085
C53	C	0.966861	-0.155978	0.000131
C54	C	1.466861	0.344022	0.500131
C55	C	0.965699	-0.228804	0.000118
C56	C	1.465699	0.271196	0.500118
C57	C	0.896142	-0.256778	0.000108
C58	C	1.396142	0.243222	0.500108
C59	C	0.827741	-0.211921	0.000091
C60	C	1.327741	0.288079	0.500091
C61	C	0.828905	-0.139098	0.000096
C62	C	1.328905	0.360902	0.500096
N63	N	0.842968	-0.364845	0.046893
N64	N	1.342968	0.135155	0.546893
N65	N	0.841868	-0.434025	0.046890
N66	N	1.341868	0.065975	0.546890
C67	C	0.892632	-0.476191	0.000091
C68	C	1.392632	0.023809	0.500091
N69	N	0.944550	-0.446565	-0.046694
N70	N	1.444550	0.053435	0.453306
N71	N	0.945653	-0.377379	-0.046687
N72	N	1.445653	0.122621	0.453313
C73	C	0.894873	-0.335742	0.000102
C74	C	1.394873	0.164258	0.500102
C75	C	0.959769	-0.600004	0.000088
C76	C	1.459769	-0.100004	0.500088
C77	C	0.958604	-0.672830	0.000070
C78	C	1.458604	-0.172830	0.500070
C79	C	0.820644	-0.655946	0.000051
C80	C	1.320644	-0.155946	0.500051
C81	C	0.821811	-0.583121	0.000061
C82	C	1.321811	-0.083121	0.500061
C83	C	0.891375	-0.555155	0.000084
C84	C	1.391375	-0.055155	0.500084
C85	C	1.032151	0.088703	0.000108
C86	C	1.532151	0.588703	0.500108
C87	C	1.116167	0.089938	0.000113
C88	C	1.616167	0.589938	0.500113
C89	C	0.887810	0.221695	0.000071
C90	C	1.387810	0.721695	0.500071
C91	C	0.889046	0.299201	0.000059
C92	C	1.389046	0.799201	0.500059
N93	N	0.893741	0.094025	0.195758
N94	N	1.393741	0.594025	0.695758
N95	N	0.893781	0.094039	-0.195574
N96	N	1.393781	0.594039	0.304426
C97	C	0.945367	0.046491	0.239036
C98	C	1.445367	0.546491	0.739036
C99	C	0.945371	0.046490	0.325584
C100	C	1.445371	0.546490	0.825584
C101	C	0.893751	0.094027	0.368851
C102	C	1.393751	0.594027	0.868851
C103	C	0.842119	0.141563	0.325567
C104	C	1.342119	0.641563	0.825567
C105	C	0.842112	0.141560	0.239022
C106	C	1.342112	0.641560	0.739022
C107	C	0.842145	0.141576	0.674595
C108	C	1.342145	0.641576	1.174595
C109	C	0.842157	0.141577	0.761147
C110	C	1.342157	0.641577	1.261147
C111	C	0.945404	0.046506	0.761157
C112	C	1.445404	0.546506	1.261157
C113	C	0.945397	0.046503	0.674612
C114	C	1.445397	0.546503	1.174612
C115	C	0.893763	0.094036	0.631335
C116	C	1.393763	0.594036	1.131335
C117	C	0.893758	0.094036	0.537491
C118	C	1.393758	0.594036	1.037491
C119	C	0.893759	0.094031	0.462694
C120	C	1.393759	0.594031	0.962694
H121	H	0.504050	0.211335	0.000056
H122	H	1.004050	0.711335	0.500056
C123	C	0.131611	-0.043724	0.000137
C124	C	0.631611	0.456276	0.500137
H125	H	0.077621	-0.035386	0.000127
H126	H	0.577621	0.464614	0.500127
H127	H	0.148339	-0.069676	0.048089
H128	H	0.648339	0.430324	0.548089
H129	H	0.148342	-0.069673	-0.047810
H130	H	0.648342	0.430327	0.452190
H131	H	0.773210	-0.102582	0.000086
H132	H	1.273210	0.397418	0.500086
C133	C	0.785326	0.193850	0.191416
C134	C	1.285326	0.693850	0.691416
H135	H	0.754588	0.222167	0.229578
H136	H	1.254588	0.722167	0.729578
H137	H	0.753904	0.168769	0.157665
H138	H	1.253904	0.668769	0.657665
H139	H	0.812455	0.222884	0.157643
H140	H	1.312455	0.722884	0.657643
C141	C	0.694691	-0.035415	0.000091
C142	C	1.194691	0.464585	0.500091
H143	H	0.665379	-0.073819	0.000092
H144	H	1.165379	0.426181	0.500092
H145	H	0.725873	-0.037610	0.048035
H146	H	1.225873	0.462390	0.548035
H147	H	0.725865	-0.037600	-0.047864
H148	H	1.225865	0.462400	0.452136
C149	C	0.258602	0.225926	0.000073
C150	C	0.758602	0.725926	0.500073
H151	H	0.218288	0.263303	0.000077
H152	H	0.718288	0.763303	0.500077
H153	H	0.289013	0.229030	-0.047874
H154	H	0.789013	0.729030	0.452126
H155	H	0.289011	0.229019	0.048026
H156	H	0.789011	0.729019	0.548026
H157	H	0.987409	0.007784	0.360820
H158	H	1.487409	0.507784	0.860820
C159	C	1.002149	-0.005802	0.191450
C160	C	1.502149	0.494198	0.691450
H161	H	1.032891	-0.034116	0.229623
H162	H	1.532891	0.465884	0.729623
H163	H	1.033568	0.019274	0.157675
H164	H	1.533568	0.519274	0.657675
H165	H	0.975014	-0.034839	0.157703
H166	H	1.475014	0.465161	0.657703
H167	H	0.766119	-0.546605	0.000056
H168	H	1.266119	-0.046605	0.500056
H169	H	0.771107	-0.234702	0.000081
H170	H	1.271107	0.265298	0.500081
H171	H	0.987446	0.007800	0.796402
H172	H	1.487446	0.507800	1.296402
H173	H	0.647256	0.213450	0.000042
H174	H	1.147256	0.713450	0.500042
C175	C	0.785356	0.193866	0.627002
C176	C	1.285356	0.693866	1.127002
H177	H	0.754622	0.222182	0.665168
H178	H	1.254622	0.722182	1.165168
H179	H	0.753930	0.168789	0.593252
H180	H	1.253930	0.668789	1.093252
H181	H	0.812484	0.222901	0.593229
H182	H	1.312484	0.722901	1.093229
H183	H	0.106741	0.205470	0.000082
H184	H	0.606741	0.705470	0.500082
C185	C	0.785371	0.193866	0.808744
C186	C	1.285371	0.693866	1.308744
H187	H	0.792778	0.187063	0.866485
H188	H	1.292778	0.687063	1.366485
H189	H	0.734885	0.186338	0.794574
H190	H	1.234885	0.686338	1.294574
H191	H	0.793431	0.240458	0.794545
H192	H	1.293431	0.740458	1.294545
C193	C	0.297383	-0.041282	0.000128
C194	C	0.797383	0.458718	0.500128
H195	H	0.268067	-0.079683	0.000129
H196	H	0.768067	0.420317	0.500129
H197	H	0.328562	-0.043477	0.048074
H198	H	0.828562	0.456523	0.548074
H199	H	0.328560	-0.043472	-0.047826
H200	H	0.828560	0.456528	0.452174
C201	C	0.528918	-0.037860	0.000109
C202	C	1.028918	0.462140	0.500109
H203	H	0.474929	-0.029527	0.000101
H204	H	0.974929	0.470473	0.500101
H205	H	0.545651	-0.063814	0.048059
H206	H	1.045651	0.436186	0.548059
H207	H	0.545651	-0.063805	-0.047841
H208	H	1.045651	0.436195	0.452159
H209	H	1.023506	-0.133213	0.000147
H210	H	1.523506	0.366787	0.500147
C211	C	0.785339	0.193854	0.373159
C212	C	1.285339	0.693854	0.873159
H213	H	0.792742	0.187054	0.430901
H214	H	1.292742	0.687054	0.930901
H215	H	0.734853	0.186331	0.358987
H216	H	1.234853	0.686331	0.858987
H217	H	0.793407	0.240444	0.358957
H218	H	1.293407	0.740444	0.858957
C219	C	1.040933	-0.278144	0.000138
C220	C	1.540933	0.221856	0.500138
H221	H	1.082529	-0.251058	0.000157
H222	H	1.582529	0.248942	0.500157
H223	H	1.043357	-0.306897	-0.047808
H224	H	1.543357	0.193103	0.452192
H225	H	1.043332	-0.306910	0.048092
H226	H	1.543332	0.193090	0.548092
H227	H	1.016412	-0.577233	0.000103
H228	H	1.516412	-0.077233	0.500103
C229	C	1.033837	-0.722166	0.000074
C230	C	1.533837	-0.222166	0.500074
H231	H	1.023183	-0.769543	0.000056
H232	H	1.523183	-0.269543	0.500056
H233	H	1.062365	-0.713715	0.048027
H234	H	1.562365	-0.213715	0.548027
H235	H	1.062373	-0.713684	-0.047873
H236	H	1.562373	-0.213684	0.452127
C237	C	0.744132	-0.686709	0.000038
C238	C	1.244132	-0.186709	0.500038
H239	H	0.753233	-0.736504	0.000040
H240	H	1.253233	-0.236504	0.500040
H241	H	0.715987	-0.671294	-0.047911
H242	H	1.215987	-0.171294	0.452089
H243	H	0.715976	-0.671318	0.047988
H244	H	1.215976	-0.171318	0.547988
C245	C	1.002176	-0.005789	0.627022
C246	C	1.502176	0.494211	1.127022
H247	H	1.032920	-0.034105	0.665193
H248	H	1.532920	0.465895	1.165193
H249	H	1.033594	0.019287	0.593246
H250	H	1.533594	0.519287	1.093246
H251	H	0.975038	-0.034825	0.593276
H252	H	1.475038	0.465175	1.093276
