data_functionalizedCrystal
_audit_creation_method	'MofGen! by Chris Wilmer'
_symmetry_space_group_name_H-M	'P1'
_symmetry_Int_Tables_number	1
_symmetry_cell_setting	triclinic
loop_
_symmetry_equiv_pos_as_xyz
  x,y,z
_cell_length_a	10.654556
_cell_length_b	9.130307
_cell_length_c	10.654550
_cell_angle_alpha	89.996840
_cell_angle_beta	95.513766
_cell_angle_gamma	89.999869
loop_
_atom_site_label
_atom_site_type_symbol
_atom_site_fract_x
_atom_site_fract_y
_atom_site_fract_z
O1	O	1.667831	0.121744	-0.176435
O2	O	1.302354	0.121759	-0.193233
O3	O	1.493496	0.121742	-0.002095
O4	O	1.476690	0.121761	-0.367573
O5	O	1.493489	-0.121857	-0.002093
O6	O	1.302348	-0.121840	-0.193231
O7	O	1.667825	-0.121855	-0.176433
Cu8	Cu	1.485086	-0.144090	-0.184832
Cu9	Cu	1.485093	0.143994	-0.184834
O10	O	1.476683	-0.121838	-0.367571
C11	C	1.255553	-0.000039	-0.191997
C12	C	1.116110	-0.000033	-0.188302
C13	C	0.919568	0.132741	-0.183100
C14	C	1.050590	0.132750	-0.186564
C15	C	1.050602	-0.132835	-0.186562
C16	C	0.919583	-0.132843	-0.183089
N17	N	1.485090	-0.346713	-0.184830
C18	C	1.654415	-0.346718	-0.015627
C19	C	1.739087	-0.423388	0.068971
C20	C	1.739099	-0.576721	0.068972
C21	C	1.654429	-0.653389	-0.015632
C22	C	1.569758	-0.576719	-0.100229
C23	C	1.569757	-0.423382	-0.100224
C24	C	1.400428	-0.576714	-0.269424
C25	C	1.400419	-0.423381	-0.269433
C26	C	1.315758	-0.653382	-0.354028
C27	C	1.231090	-0.576713	-0.438634
C28	C	1.231082	-0.423370	-0.438632
C29	C	1.315748	-0.346712	-0.354031
C30	C	1.714626	-0.000054	-0.177669
C31	C	1.854069	-0.000050	-0.181364
C32	C	1.492258	-0.000057	0.044704
C33	C	1.488567	-0.000055	0.184147
N34	N	1.485099	0.346616	-0.184826
C35	C	1.477920	-0.000036	-0.414370
C36	C	1.481612	-0.000029	-0.553813
C37	C	1.601108	-0.000059	0.263630
C38	C	1.597631	-0.000041	0.394651
C39	C	1.369063	-0.000021	0.366693
C40	C	1.372540	-0.000028	0.235675
H41	H	1.103960	-0.240950	-0.187969
H42	H	1.689274	-0.000041	0.459362
H43	H	1.315766	-0.778234	-0.354018
C44	C	1.728730	-0.000071	0.206953
H45	H	1.795257	-0.000058	0.273060
H46	H	1.734840	-0.085022	0.156431
H47	H	1.734839	0.084886	0.156419
H48	H	0.866253	-0.240984	-0.181674
H49	H	1.654434	-0.778241	-0.015615
H50	H	1.162128	-0.360954	-0.507517
H51	H	0.866230	0.240869	-0.181694
H52	H	1.103914	0.240882	-0.187976
C53	C	1.137968	-0.661046	-0.531685
H54	H	1.150103	-0.763346	-0.519569
H55	H	1.054034	-0.635921	-0.517265
H56	H	1.152336	-0.635919	-0.615641
C57	C	1.315743	-0.178049	-0.354024
H58	H	1.378287	-0.143376	-0.291517
H59	H	1.333610	-0.143345	-0.434457
H60	H	1.235325	-0.143373	-0.336064
C61	C	1.654410	-0.178056	-0.015639
H62	H	1.591864	-0.143376	-0.078145
H63	H	1.636543	-0.143365	0.064795
H64	H	1.734827	-0.143373	-0.033599
C65	C	1.832216	-0.339052	0.162028
H66	H	1.820094	-0.236751	0.149909
H67	H	1.817864	-0.364190	0.245978
H68	H	1.916153	-0.364174	0.147589
H69	H	1.808041	-0.639145	0.137863
C70	C	1.241441	0.000003	0.423373
H71	H	1.174913	0.000021	0.357267
H72	H	1.235323	-0.084939	0.473911
H73	H	1.235344	0.084968	0.473892
C74	C	1.248739	-0.000028	0.148238
H75	H	1.179140	-0.000032	0.197689
H76	H	1.245351	0.084917	0.096539
H77	H	1.245345	-0.084990	0.096556
