data_functionalizedCrystal
_audit_creation_method	'MofGen! by Chris Wilmer'
_symmetry_space_group_name_H-M	'P1'
_symmetry_Int_Tables_number	1
_symmetry_cell_setting	triclinic
loop_
_symmetry_equiv_pos_as_xyz
  x,y,z
_cell_length_a	9.065215
_cell_length_b	8.140239
_cell_length_c	10.654554
_cell_angle_alpha	90.004886
_cell_angle_beta	84.750770
_cell_angle_gamma	90.002190
loop_
_atom_site_label
_atom_site_type_symbol
_atom_site_fract_x
_atom_site_fract_y
_atom_site_fract_z
O1	O	1.959397	0.136600	0.184140
O2	O	1.530030	0.136608	0.199249
O3	O	1.754582	0.136588	0.008995
O4	O	1.734845	0.136621	0.374394
O5	O	1.754569	-0.136639	0.008992
O6	O	1.530017	-0.136619	0.199247
O7	O	1.959385	-0.136627	0.184137
Zn8	Zn	1.744699	-0.180003	0.191692
Zn9	Zn	1.744716	0.179985	0.191695
O10	O	1.734833	-0.136606	0.374392
C11	C	1.475045	-0.000004	0.197797
C12	C	1.311225	-0.000002	0.193457
N13	N	1.744699	-0.425686	0.191689
C14	C	2.014370	-0.000010	0.185590
C15	C	2.178189	-0.000002	0.189929
C16	C	1.753125	-0.000027	-0.037810
C17	C	1.748785	-0.000029	-0.177270
N18	N	1.744728	0.425668	0.191688
C19	C	1.608411	0.000010	-0.360387
C20	C	1.612488	-0.000011	-0.229349
C21	C	1.881014	-0.000009	-0.256237
C22	C	1.876935	0.000024	-0.387272
C23	C	1.453380	0.000001	-0.344862
C24	C	1.457457	-0.000020	-0.213825
C25	C	1.736290	0.000012	0.421197
C26	C	1.740630	0.000025	0.560657
H27	H	1.984601	0.000055	-0.451554
C28	C	2.030937	-0.000026	-0.198953
H29	H	2.014432	-0.000057	-0.109605
H30	H	2.085443	0.095255	-0.225935
H31	H	2.085424	-0.095318	-0.225969
H32	H	1.410616	0.117947	-0.168344
C33	C	1.371497	0.154479	-0.384829
H34	H	1.340600	0.217997	-0.312346
H35	H	1.287308	0.122741	-0.425956
H36	H	1.436089	0.218019	-0.440830
H37	H	1.403994	-0.117954	-0.380712
H38	H	1.399043	-0.114375	-0.172325
