data_functionalizedCrystal
_audit_creation_method	'MofGen! by Chris Wilmer'
_symmetry_space_group_name_H-M	'P1'
_symmetry_Int_Tables_number	1
_symmetry_cell_setting	triclinic
loop_
_symmetry_equiv_pos_as_xyz
  x,y,z
_cell_length_a	14.853567
_cell_length_b	11.792241
_cell_length_c	13.330367
_cell_angle_alpha	89.995231
_cell_angle_beta	89.995418
_cell_angle_gamma	83.914173
loop_
_atom_site_label
_atom_site_type_symbol
_atom_site_fract_x
_atom_site_fract_y
_atom_site_fract_z
O1	O	1.196946	0.148181	-0.083355
O2	O	0.934555	0.165833	-0.083372
O3	O	1.072118	-0.008203	-0.083356
O4	O	1.059383	0.322217	-0.083371
O5	O	1.072098	-0.008206	0.083491
O6	O	0.934535	0.165829	0.083475
O7	O	1.196926	0.148177	0.083492
Cu8	Cu	1.065728	0.157003	0.098718
Cu9	Cu	1.065752	0.157008	-0.098598
O10	O	1.059363	0.322213	0.083476
C11	C	0.900953	0.165032	0.000049
C12	C	0.800860	0.162635	0.000043
C13	C	0.387884	0.049122	0.000071
C14	C	0.367408	0.255880	0.000060
C15	C	0.461451	0.258134	0.000057
C16	C	0.518715	0.155880	0.000059
C17	C	0.481936	0.051372	0.000064
C18	C	0.498237	0.362640	0.000042
C19	C	0.592285	0.364898	0.000037
C20	C	0.649550	0.262642	0.000046
C21	C	0.612766	0.158131	0.000053
C22	C	0.670030	0.055877	0.000055
C23	C	0.633248	-0.048637	0.000068
C24	C	0.539201	-0.050883	0.000073
C25	C	0.743596	0.264889	0.000041
C26	C	0.764081	0.058127	0.000048
C27	C	1.071308	-0.050491	0.000067
C28	C	1.068913	-0.176489	0.000066
C29	C	1.064511	-0.407174	0.000049
C30	C	1.066957	-0.278804	0.000058
C31	C	1.230527	0.148979	0.000069
C32	C	1.330621	0.151376	0.000069
C33	C	1.060173	0.364501	0.000051
C34	C	1.062567	0.490500	0.000046
N35	N	1.065718	0.156999	0.237500
N36	N	1.065769	0.157003	-0.237379
C37	C	1.004837	0.234040	0.710116
C38	C	1.126692	0.079966	0.710098
C39	C	1.126682	0.079962	0.605079
C40	C	1.065749	0.157000	0.552574
C41	C	1.004826	0.234042	0.605087
C42	C	1.187610	0.002930	0.552558
C43	C	1.187602	0.002925	0.447534
C44	C	1.126665	0.079958	0.395027
C45	C	1.065739	0.157001	0.447546
C46	C	1.004806	0.234039	0.395041
C47	C	0.943875	0.311078	0.447559
C48	C	0.943888	0.311075	0.552580
C49	C	1.126651	0.079961	0.290005
C50	C	1.004796	0.234040	0.290013
H51	H	0.509244	-0.135972	0.000108
N52	N	0.939127	0.317135	0.766754
H53	H	0.900528	0.365936	0.717552
H54	H	0.899064	0.273590	0.810337
H55	H	0.894267	0.373808	0.404797
H56	H	1.237214	-0.059805	0.404780
N57	N	0.939078	0.317134	0.233380
H58	H	0.898952	0.273668	0.189816
H59	H	0.900544	0.365914	0.282648
N60	N	1.192341	-0.003146	0.233364
H61	H	1.183082	0.008533	0.158865
H62	H	1.256366	0.010096	0.251693
H63	H	1.176306	0.017249	0.752851
N64	N	0.305648	0.366161	0.000051
H65	H	0.343220	0.432707	0.000043
H66	H	0.266191	0.369723	-0.061806
N67	N	0.436467	0.472913	0.000023
H68	H	0.396994	0.476560	-0.061826
H69	H	0.397046	0.476519	0.061915
H70	H	0.894281	0.373798	0.595347
N71	N	1.253321	-0.080145	0.609203
H72	H	1.218623	-0.130473	0.652782
H73	H	1.291910	-0.128876	0.559948
N74	N	0.825836	-0.052169	0.000059
H75	H	0.813944	-0.097759	-0.061784
H76	H	0.890971	-0.034799	0.000090
N77	N	0.695009	-0.158926	0.000069
H78	H	0.734483	-0.162597	-0.061786
H79	H	0.734429	-0.162529	0.061955
N80	N	0.348211	-0.063593	0.000095
H81	H	0.309644	-0.069139	-0.061749
H82	H	0.398806	-0.127963	0.000134
N83	N	0.631944	0.477622	0.000020
H84	H	0.611095	0.522425	0.061868
H85	H	0.700204	0.463448	-0.000020
N86	N	0.783264	0.377602	0.000018
H87	H	0.762418	0.422412	0.061863
H88	H	0.851524	0.363422	-0.000022
