data_functionalizedCrystal
_audit_creation_method	'MofGen! by Chris Wilmer'
_symmetry_space_group_name_H-M	'P1'
_symmetry_Int_Tables_number	1
_symmetry_cell_setting	triclinic
loop_
_symmetry_equiv_pos_as_xyz
  x,y,z
_cell_length_a	14.044209
_cell_length_b	14.044220
_cell_length_c	13.101039
_cell_angle_alpha	86.332810
_cell_angle_beta	86.324717
_cell_angle_gamma	86.811585
loop_
_atom_site_label
_atom_site_type_symbol
_atom_site_fract_x
_atom_site_fract_y
_atom_site_fract_z
O1	O	-0.234985	1.272343	0.085226
O2	O	0.098348	1.605677	0.418559
O3	O	0.431681	1.939010	0.751893
O4	O	-0.226680	0.995672	0.085228
O5	O	0.106653	1.329005	0.418561
O6	O	0.439987	1.662339	0.751895
O7	O	-0.092496	1.129857	0.085212
O8	O	0.240837	1.463190	0.418546
O9	O	0.574171	1.796523	0.751879
O10	O	-0.369169	1.138159	0.085242
O11	O	-0.035836	1.471492	0.418575
O12	O	0.297497	1.804825	0.751908
O13	O	-0.082856	1.139488	-0.085218
O14	O	0.250477	1.472821	0.248115
O15	O	0.583811	1.806155	0.581448
O16	O	-0.217040	1.005303	-0.085203
O17	O	0.116294	1.338636	0.248130
O18	O	0.449627	1.671970	0.581464
O19	O	-0.225345	1.281975	-0.085205
O20	O	0.107988	1.615308	0.248128
O21	O	0.441321	1.948641	0.581462
Zn22	Zn	-0.219662	1.145168	-0.112264
Zn23	Zn	0.113671	1.478501	0.221070
Zn24	Zn	0.447005	1.811835	0.554403
Zn25	Zn	-0.232363	1.132479	0.112287
Zn26	Zn	0.100970	1.465812	0.445620
Zn27	Zn	0.434303	1.799145	0.778953
O28	O	-0.359529	1.147790	-0.085189
O29	O	-0.026196	1.481123	0.248144
O30	O	0.307137	1.814456	0.581477
C31	C	-0.052054	1.131037	-0.000005
C32	C	0.281279	1.464370	0.333329
C33	C	0.614613	1.797704	0.666662
C34	C	0.054089	1.120194	-0.000009
C35	C	0.387422	1.453527	0.333324
C36	C	0.720756	1.786860	0.666658
C37	C	-0.218224	0.964866	0.000013
C38	C	0.115109	1.298199	0.333346
C39	C	0.448442	1.631532	0.666679
C40	C	-0.207380	0.858723	0.000013
C41	C	0.125954	1.192056	0.333346
C42	C	0.459287	1.525390	0.666680
C43	C	-0.233801	1.312781	0.000013
C44	C	0.099532	1.646114	0.333346
C45	C	0.432865	1.979447	0.666679
C46	C	-0.244646	1.418923	0.000019
C47	C	0.088687	1.752256	0.333353
C48	C	0.422021	2.085590	0.666686
C49	C	0.248426	1.100368	-0.000000
C50	C	0.581760	1.433702	0.333333
C51	C	0.915093	1.767035	0.666666
C52	C	0.299556	1.177283	0.000000
C53	C	0.632889	1.510616	0.333334
C54	C	0.966223	1.843950	0.666667
C55	C	0.407692	1.166252	0.000005
C56	C	0.741025	1.499586	0.333339
C57	C	1.074359	1.832919	0.666672
C58	C	0.140280	1.111398	-0.000005
C59	C	0.473614	1.444731	0.333328
C60	C	0.806947	1.778065	0.666661
C61	C	0.600029	1.146612	0.000022
C62	C	0.933363	1.479945	0.333355
C63	C	1.266696	1.813278	0.666688
C64	C	0.493887	1.157462	0.000009
C65	C	0.827221	1.490796	0.333342
C66	C	1.160554	1.824129	0.666676
C67	C	-0.264472	1.613260	0.000020
C68	C	0.068861	1.946594	0.333354
C69	C	0.402194	2.279927	0.666687
C70	C	-0.187558	1.664391	0.000012
C71	C	0.145776	1.997725	0.333345
C72	C	0.479109	2.331058	0.666679
C73	C	-0.198589	1.772527	0.000012
C74	C	0.134744	2.105861	0.333346
C75	C	0.468077	2.439194	0.666679
C76	C	-0.253442	1.505115	0.000020
C77	C	0.079891	1.838448	0.333353
C78	C	0.413224	2.171781	0.666686
N79	N	-0.241024	1.123818	0.265536
N80	N	0.092309	1.457152	0.598869
N81	N	0.425642	1.790485	0.932203
N82	N	-0.210994	1.153835	-0.265513
N83	N	0.122340	1.487168	0.067820
N84	N	0.455673	1.820502	0.401154
C85	C	-0.252808	1.112027	0.474580
C86	C	0.080526	1.445361	0.807913
C87	C	0.413859	1.778694	1.141247
C88	C	-0.199213	1.165623	0.525450
C89	C	0.134120	1.498957	0.858783
C90	C	0.467453	1.832290	1.192116
C91	C	-0.205770	1.159063	0.641769
C92	C	0.127564	1.492396	0.975102
C93	C	0.460897	1.825729	1.308435
C94	C	-0.246253	1.118587	0.358250
C95	C	0.087081	1.451920	0.691584
C96	C	0.420414	1.785254	1.024917
H97	H	0.262113	1.251412	0.000070
H98	H	0.595446	1.584746	0.333403
H99	H	0.928780	1.918079	0.666736
N100	N	0.298013	1.002177	-0.000017
N101	N	0.631346	1.335511	0.333316
N102	N	0.964680	1.668844	0.666649
H103	H	0.248827	0.952378	-0.000023
H104	H	0.582160	1.285711	0.333310
H105	H	0.915493	1.619044	0.666643
H106	H	0.335648	0.990691	0.063162
H107	H	0.668981	1.324024	0.396495
H108	H	1.002314	1.657358	0.729828
N109	N	-0.320094	1.044710	0.532594
N110	N	0.013239	1.378043	0.865928
N111	N	0.346572	1.711377	1.199261
H112	H	-0.387759	1.062471	0.514011
H113	H	-0.054426	1.395804	0.847344
H114	H	0.278907	1.729138	1.180678
H115	H	-0.315212	1.049532	0.608650
H116	H	0.018121	1.382865	0.941983
H117	H	0.351455	1.716198	1.275316
N118	N	-0.362670	1.662835	0.000040
N119	N	-0.029337	1.996169	0.333373
N120	N	0.303996	2.329502	0.666707
H121	H	-0.367100	1.707617	-0.063134
H122	H	-0.033767	2.040951	0.270199
H123	H	0.299566	2.374284	0.603532
H124	H	-0.374173	1.700414	0.063265
H125	H	-0.040839	2.033748	0.396598
H126	H	0.292494	2.367081	0.729932
H127	H	-0.148405	1.216435	0.481641
H128	H	0.184928	1.549768	0.814975
H129	H	0.518262	1.883101	1.148308
N130	N	-0.089356	1.614811	0.000003
N131	N	0.243978	1.948144	0.333336
N132	N	0.577311	2.281477	0.666669
H133	H	-0.095290	1.543470	0.000006
H134	H	0.238043	1.876803	0.333339
H135	H	0.571377	2.210136	0.666673
H136	H	-0.057124	1.630375	0.063183
H137	H	0.276210	1.963708	0.396516
H138	H	0.609543	2.297041	0.729850
