data_functionalizedCrystal
_audit_creation_method	'MofGen! by Chris Wilmer'
_symmetry_space_group_name_H-M	'P1'
_symmetry_Int_Tables_number	1
_symmetry_cell_setting	triclinic
loop_
_symmetry_equiv_pos_as_xyz
  x,y,z
_cell_length_a	11.792241
_cell_length_b	14.971486
_cell_length_c	14.048226
_cell_angle_alpha	90.006640
_cell_angle_beta	90.002244
_cell_angle_gamma	83.903772
loop_
_atom_site_label
_atom_site_type_symbol
_atom_site_fract_x
_atom_site_fract_y
_atom_site_fract_z
O1	O	-1.506121	-0.122599	-0.079069
O2	O	-1.175698	-0.135234	-0.079091
O3	O	-1.349766	0.001248	-0.079072
O4	O	-1.332053	-0.259081	-0.079087
O5	O	-1.349745	0.001256	0.079249
O6	O	-1.175677	-0.135226	0.079230
O7	O	-1.506100	-0.122591	0.079253
Zn8	Zn	-1.340885	-0.128907	0.104378
Zn9	Zn	-1.340913	-0.128918	-0.104217
O10	O	-1.332032	-0.259073	0.079234
C11	C	-1.133402	-0.134436	0.000067
C12	C	-1.007404	-0.132061	0.000059
C13	C	-1.348963	0.034580	0.000088
C14	C	-1.346589	0.133887	0.000087
C15	C	-1.548396	-0.123389	0.000093
C16	C	-1.674395	-0.125764	0.000095
C17	C	-0.776720	-0.127692	0.000086
C18	C	-0.905089	-0.130120	0.000071
C19	C	-1.332835	-0.292405	0.000072
C20	C	-1.335209	-0.391711	0.000066
N21	N	-1.340875	-0.128899	0.246739
C22	C	-1.448849	0.190702	0.000094
C23	C	-1.446612	0.284011	0.000085
C24	C	-1.342114	0.320502	0.000074
C25	C	-1.239846	0.263679	0.000064
C26	C	-1.242084	0.170372	0.000067
C27	C	-1.235188	0.458160	0.000060
C28	C	-1.232949	0.551473	0.000059
C29	C	-1.439715	0.571798	0.000078
C30	C	-1.441954	0.478492	0.000081
C31	C	-1.339685	0.421675	0.000072
N32	N	-1.340932	-0.128919	-0.246577
C33	C	-1.417976	-0.068490	0.296565
C34	C	-1.417984	-0.068490	0.396223
C35	C	-1.340895	-0.128903	0.446053
C36	C	-1.263785	-0.189315	0.396219
C37	C	-1.263773	-0.189311	0.296564
C38	C	-1.263818	-0.189322	0.603934
C39	C	-1.263831	-0.189328	0.703596
C40	C	-1.418029	-0.068501	0.703593
C41	C	-1.418016	-0.068496	0.603937
C42	C	-1.340908	-0.128910	0.554111
H43	H	-1.533944	0.160999	0.000109
H44	H	-1.154761	0.293397	0.000049
H45	H	-1.158814	0.124113	0.000060
O46	O	-1.501118	-0.003326	0.242821
H47	H	-1.554723	0.038687	0.294215
H48	H	-1.480765	-0.019299	0.436791
O49	O	-1.180648	-0.254485	0.449961
H50	H	-1.092153	-0.242618	0.430859
O51	O	-1.501156	-0.003335	0.550186
H52	H	-1.554768	0.038680	0.601574
O53	O	-1.501192	-0.003331	0.757325
H54	H	-1.488242	-0.013473	0.834993
O55	O	-1.556912	0.345286	0.000108
H56	H	-1.606937	0.332236	-0.064406
O57	O	-1.550019	0.633078	0.000091
H58	H	-1.623058	0.592028	0.000115
O59	O	-1.180665	-0.254467	0.757348
H60	H	-1.127026	-0.296461	0.705960
O61	O	-1.554659	0.439127	0.000081
H62	H	-1.625397	0.494309	0.000072
O63	O	-1.180659	-0.254484	0.550186
H64	H	-1.127065	-0.296503	0.601576
O65	O	-1.180620	-0.254469	0.242815
H66	H	-1.127024	-0.296487	0.294205
H67	H	-1.147857	0.581181	0.000066
H68	H	-1.151910	0.411902	0.000051
