data_functionalizedCrystal
_audit_creation_method	'MofGen! by Chris Wilmer'
_symmetry_space_group_name_H-M	'P1'
_symmetry_Int_Tables_number	1
_symmetry_cell_setting	triclinic
loop_
_symmetry_equiv_pos_as_xyz
  x,y,z
_cell_length_a	15.995292
_cell_length_b	15.995350
_cell_length_c	15.072220
_cell_angle_alpha	90.001101
_cell_angle_beta	89.986330
_cell_angle_gamma	83.480495
loop_
_atom_site_label
_atom_site_type_symbol
_atom_site_fract_x
_atom_site_fract_y
_atom_site_fract_z
O1	O	1.111026	0.107689	-0.073802
O2	O	1.611026	0.607689	0.426198
O3	O	0.867244	0.121068	-0.073798
O4	O	1.367244	0.621068	0.426202
O5	O	0.995799	-0.007511	-0.073799
O6	O	1.495799	0.492489	0.426201
O7	O	0.982471	0.236267	-0.073801
O8	O	1.482471	0.736267	0.426199
O9	O	0.995767	-0.007503	0.073766
O10	O	1.495767	0.492497	0.573766
O11	O	0.867213	0.121075	0.073767
O12	O	1.367213	0.621075	0.573767
O13	O	1.110994	0.107696	0.073763
O14	O	1.610994	0.607696	0.573763
Zn15	Zn	0.989098	0.114387	0.097194
Zn16	Zn	1.489098	0.614387	0.597194
Zn17	Zn	0.989140	0.114377	-0.097229
Zn18	Zn	1.489140	0.614377	0.402771
O19	O	0.982440	0.236275	0.073764
O20	O	1.482440	0.736275	0.573764
C21	C	0.836033	0.120527	-0.000015
C22	C	1.336033	0.620527	0.499985
C23	C	0.743080	0.118894	-0.000014
C24	C	1.243080	0.618894	0.499986
C25	C	0.405341	0.112893	-0.000024
C26	C	0.905341	0.612893	0.499976
C27	C	0.428654	0.205697	-0.000354
C28	C	0.928654	0.705697	0.499646
C29	C	0.525329	0.207461	-0.000017
C30	C	1.025329	0.707461	0.499983
C31	C	0.572897	0.115871	-0.000019
C32	C	1.072897	0.615871	0.499981
C33	C	0.543777	0.069477	0.084245
C34	C	1.043777	0.569477	0.584245
C35	C	0.446987	0.068360	0.084312
C36	C	0.946987	0.568360	0.584312
C37	C	0.447168	0.066457	-0.083497
C38	C	0.947168	0.566457	0.416503
C39	C	0.543660	0.069896	-0.084607
C40	C	1.043660	0.569896	0.415393
C41	C	0.667593	0.117549	-0.000014
C42	C	1.167593	0.617549	0.499986
C43	C	0.310646	0.111212	-0.000023
C44	C	0.810646	0.611212	0.499977
C45	C	0.995232	-0.038702	-0.000018
C46	C	1.495232	0.461298	0.499982
C47	C	0.993580	-0.131652	-0.000023
C48	C	1.493580	0.368348	0.499977
C49	C	1.142206	0.108237	-0.000022
C50	C	1.642206	0.608237	0.499978
C51	C	1.235159	0.109870	-0.000029
C52	C	1.735159	0.609870	0.499971
C53	C	0.987648	-0.469398	-0.000020
C54	C	1.487648	0.030602	0.499980
C55	C	0.896094	-0.421945	-0.000350
C56	C	1.396094	0.078055	0.499650
C57	C	0.897746	-0.325255	-0.000017
C58	C	1.397746	0.174745	0.499983
C59	C	0.990591	-0.301838	-0.000022
C60	C	1.490591	0.198162	0.499978
C61	C	1.035730	-0.342921	0.084242
C62	C	1.535730	0.157079	0.584242
C63	C	1.033430	-0.439556	0.084313
C64	C	1.533430	0.060444	0.584313
C65	C	1.035358	-0.439923	-0.083496
C66	C	1.535358	0.060077	0.416504
C67	C	1.035336	-0.342978	-0.084610
C68	C	1.535336	0.157022	0.415390
C69	C	0.992259	-0.207141	-0.000021
C70	C	1.492259	0.292859	0.499979
C71	C	0.985983	-0.564095	-0.000016
C72	C	1.485983	-0.064095	0.499984
C73	C	0.983006	0.267466	-0.000018
C74	C	1.483006	0.767466	0.499982
C75	C	0.984658	0.360416	-0.000019
C76	C	1.484658	0.860416	0.499981
N77	N	0.989076	0.114393	0.229883
N78	N	1.489076	0.614393	0.729883
N79	N	0.989169	0.114365	-0.229918
N80	N	1.489169	0.614365	0.270082
C81	C	0.989139	0.114374	0.589085
C82	C	1.489139	0.614374	1.089085
C83	C	0.920120	0.182943	0.551478
C84	C	1.420120	0.682943	1.051478
C85	C	0.920279	0.183193	0.448653
C86	C	1.420279	0.683193	0.948653
C87	C	0.989107	0.114383	0.410880
C88	C	1.489107	0.614383	0.910880
C89	C	1.076474	0.133447	0.448170
C90	C	1.576474	0.633447	0.948170
C91	C	1.076087	0.133934	0.551028
C92	C	1.576087	0.633934	1.051028
C93	C	0.971569	0.026538	0.551186
C94	C	1.471569	0.526538	1.051186
C95	C	0.969564	0.027124	0.448322
C96	C	1.469564	0.527124	0.948322
C97	C	0.989094	0.114387	0.310167
C98	C	1.489094	0.614387	0.810167
C99	C	0.989157	0.114372	0.689798
C100	C	1.489157	0.614372	1.189798
H101	H	0.576631	0.003044	-0.089698
H102	H	1.076631	0.503044	0.410302
Br103	Br	0.399986	0.114806	-0.189949
Br104	Br	0.899986	0.614806	0.310051
H105	H	0.862262	-0.296828	-0.060421
H106	H	1.362262	0.203172	0.439579
H107	H	1.129060	0.084832	0.423701
H108	H	1.629060	0.584832	0.923701
H109	H	0.400671	0.241465	-0.060784
H110	H	0.900671	0.741465	0.439216
H111	H	1.000488	-0.457848	0.147305
H112	H	1.500488	0.042152	0.647305
Br113	Br	0.423853	-0.047400	-0.084446
Br114	Br	0.923853	0.452600	0.415554
H115	H	0.563823	0.101701	0.146956
H116	H	1.063823	0.601701	0.646956
Br117	Br	1.164173	0.053767	0.592493
Br118	Br	1.664173	0.553767	1.092493
Br119	Br	0.938939	0.291846	0.407618
Br120	Br	1.438939	0.791846	0.907618
Br121	Br	0.835118	-0.452819	-0.101069
Br122	Br	1.335118	0.047181	0.398931
H123	H	0.432436	0.000316	0.088138
H124	H	0.932436	0.500316	0.588138
H125	H	0.859650	-0.441528	0.059742
H126	H	1.359650	0.058472	0.559742
H127	H	1.021900	-0.024489	0.575504
H128	H	1.521900	0.475511	1.075504
Br129	Br	0.574673	0.126166	-0.188513
Br130	Br	1.074673	0.626166	0.311487
H131	H	1.102861	-0.471698	-0.084066
H132	H	1.602861	0.028302	0.415934
H133	H	0.855337	0.171838	0.423443
H134	H	1.355337	0.671838	0.923443
Br135	Br	1.101894	0.240700	0.591003
Br136	Br	1.601894	0.740700	1.091003
H137	H	1.103940	-0.328809	0.087372
H138	H	1.603940	0.171191	0.587372
H139	H	1.092327	0.196774	0.422400
H140	H	1.592327	0.696774	0.922400
H141	H	0.909244	0.008203	0.577177
H142	H	1.409244	0.508203	1.077177
Br143	Br	0.980791	-0.297016	-0.188527
Br144	Br	1.480791	0.202984	0.311473
Br145	Br	0.555990	0.268391	0.100835
Br146	Br	1.055990	0.768391	0.600835
H147	H	0.854969	0.171775	0.576241
H148	H	1.354969	0.671775	1.076241
Br149	Br	0.596878	-0.042863	0.089464
Br150	Br	1.096878	0.457137	0.589464
H151	H	0.861997	-0.297380	0.060491
H152	H	1.361997	0.202620	0.560491
Br153	Br	1.145459	-0.493333	0.090690
Br154	Br	1.645459	0.006667	0.590690
H155	H	0.905296	0.012657	0.423951
H156	H	1.405296	0.512657	0.923951
Br157	Br	0.557067	0.268016	-0.100695
Br158	Br	1.057067	0.768016	0.399305
Br159	Br	0.983435	-0.295605	0.188767
Br160	Br	1.483435	0.204395	0.688767
H161	H	1.016568	-0.026291	0.422614
H162	H	1.516568	0.473709	0.922614
Br163	Br	1.148187	-0.317392	-0.093106
Br164	Br	1.648187	0.182608	0.406894
Br165	Br	0.985482	-0.474139	-0.189948
Br166	Br	1.485482	0.025861	0.310052
Br167	Br	0.938570	0.290978	0.594522
Br168	Br	1.438570	0.790978	1.094522
H169	H	0.399622	0.241273	0.059736
H170	H	0.899622	0.741273	0.559736
H171	H	0.420156	0.100496	0.147302
H172	H	0.920156	0.600496	0.647302
