data_functionalizedCrystal
_audit_creation_method	'MofGen! by Chris Wilmer'
_symmetry_space_group_name_H-M	'P1'
_symmetry_Int_Tables_number	1
_symmetry_cell_setting	triclinic
loop_
_symmetry_equiv_pos_as_xyz
  x,y,z
_cell_length_a	6.817900
_cell_length_b	10.992668
_cell_length_c	19.453114
_cell_angle_alpha	94.464472
_cell_angle_beta	101.709288
_cell_angle_gamma	108.769342
loop_
_atom_site_label
_atom_site_type_symbol
_atom_site_fract_x
_atom_site_fract_y
_atom_site_fract_z
V1	V	-4.034022	-0.179101	-0.218996
O2	O	-3.993644	0.007230	-0.214830
O3	O	-4.012182	-0.353804	-0.217495
O4	O	-3.976610	-0.176950	-0.314509
O5	O	-4.029462	-0.170848	-0.117145
V6	V	-4.515376	-0.156742	-0.206814
O7	O	-4.300038	-0.228147	-0.245718
O8	O	-4.699558	-0.107697	-0.180092
O9	O	-4.314010	0.017960	-0.208315
O10	O	-4.673152	-0.343074	-0.210980
O11	O	-4.637334	-0.164996	-0.308665
O12	O	-4.349582	-0.158893	-0.111301
C13	C	-3.863936	-0.396373	-0.214040
C14	C	-3.927306	-0.539199	-0.213450
C15	C	-4.172319	-0.601532	-0.217456
C16	C	-4.238143	-0.750012	-0.216564
C17	C	-3.868263	-0.719141	-0.143223
C18	C	-3.803778	-0.570576	-0.143821
C19	C	-3.878172	-0.609423	-0.277954
C20	C	-3.948712	-0.758440	-0.278291
C21	C	-3.818559	-0.170778	-0.337790
C22	C	-3.853078	-0.170175	-0.415872
C23	C	-4.052057	-0.176341	-0.456129
C24	C	-4.084492	-0.175775	-0.529496
C25	C	-3.917948	-0.169069	-0.562605
C26	C	-3.718937	-0.162894	-0.522338
C27	C	-3.686502	-0.163448	-0.448971
N28	N	-3.868520	-0.236920	-0.681393
N29	N	-3.899346	-0.236398	-0.751088
C30	C	-4.015660	-0.167398	-0.783653
N31	N	-4.100023	-0.098959	-0.743891
N32	N	-4.069203	-0.099487	-0.674190
C33	C	-3.953097	-0.168467	-0.642158
C34	C	-4.249820	-0.172949	-0.903463
C35	C	-4.282244	-0.172375	-0.976830
C36	C	-3.916689	-0.159507	-0.969672
C37	C	-3.884265	-0.160069	-0.896305
C38	C	-4.050841	-0.166796	-0.863205
C39	C	-4.125599	0.060523	-0.211768
C40	C	-4.041468	0.203347	-0.212363
C41	C	-4.170976	-0.165070	-0.088017
C42	C	-4.115695	-0.165666	-0.009934
H43	H	-3.931378	-0.744443	-0.094281
O44	O	-4.429466	-0.180179	-0.867758
H45	H	-4.466192	-0.268769	-0.842006
O46	O	-4.411166	-0.821070	-0.282399
H47	H	-4.448477	-0.749447	-0.315161
O48	O	-3.642472	-0.555315	-0.274888
H49	H	-3.550830	-0.571354	-0.224485
O50	O	-4.299124	-0.182426	-0.572924
H51	H	-4.293684	-0.180902	-0.629501
H52	H	-3.524462	-0.158417	-0.416193
H53	H	-3.583336	-0.157430	-0.549299
H54	H	-4.187698	-0.181814	-0.429184
O55	O	-3.671956	-0.757277	-0.135835
H56	H	-3.531646	-0.670360	-0.135061
O57	O	-4.496867	-0.179018	-1.020255
H58	H	-4.477651	-0.091040	-1.046346
H59	H	-3.781080	-0.154035	-0.996627
O60	O	-4.227155	-0.537593	-0.156056
H61	H	-4.080662	-0.461614	-0.122697
O62	O	-3.669659	-0.153441	-0.852879
H63	H	-3.559300	-0.148694	-0.888226
H64	H	-4.271577	-0.582995	-0.267496
O65	O	-3.989627	-0.582910	-0.347516
H66	H	-4.081290	-0.519373	-0.336888
O67	O	-3.847313	-0.508861	-0.079135
H68	H	-3.914149	-0.585200	-0.047725
O69	O	-4.335914	-0.782508	-0.154318
H70	H	-4.336291	-0.692107	-0.124733
H71	H	-3.624068	-0.527931	-0.138000
O72	O	-4.114123	-0.828209	-0.346047
H73	H	-4.261787	-0.889851	-0.332832
H74	H	-3.806441	-0.790992	-0.279308
