data_functionalizedCrystal
_audit_creation_method	'MofGen! by Chris Wilmer'
_symmetry_space_group_name_H-M	'P1'
_symmetry_Int_Tables_number	1
_symmetry_cell_setting	triclinic
loop_
_symmetry_equiv_pos_as_xyz
  x,y,z
_cell_length_a	16.109302
_cell_length_b	10.723024
_cell_length_c	15.186229
_cell_angle_alpha	89.989223
_cell_angle_beta	89.990142
_cell_angle_gamma	83.964825
loop_
_atom_site_label
_atom_site_type_symbol
_atom_site_fract_x
_atom_site_fract_y
_atom_site_fract_z
O1	O	1.104079	0.160409	-0.073266
O2	O	1.604079	0.660409	0.426734
O3	O	0.862134	0.180369	-0.073259
O4	O	1.362134	0.680369	0.426741
O5	O	0.988687	-0.011261	-0.073259
O6	O	1.488687	0.488739	0.426741
O7	O	0.977525	0.352039	-0.073265
O8	O	1.477525	0.852039	0.426735
O9	O	0.988670	-0.011292	0.073198
O10	O	1.488670	0.488708	0.573198
O11	O	0.862117	0.180338	0.073199
O12	O	1.362117	0.680338	0.573199
O13	O	1.104061	0.160378	0.073191
O14	O	1.604061	0.660378	0.573191
Zn15	Zn	0.983086	0.170353	0.096448
Zn16	Zn	1.483086	0.670353	0.596448
Zn17	Zn	0.983109	0.170394	-0.096516
Zn18	Zn	1.483109	0.670394	0.403484
O19	O	0.977508	0.352008	0.073192
O20	O	1.477508	0.852008	0.573192
C21	C	0.831146	0.179544	-0.000029
C22	C	1.331146	0.679544	0.499971
C23	C	0.738836	0.177120	-0.000026
C24	C	1.238836	0.677120	0.499974
C25	C	0.526453	0.171497	0.079799
C26	C	1.026453	0.671497	0.579799
C27	C	0.439719	0.169206	0.079796
C28	C	0.939719	0.669206	0.579796
C29	C	0.439749	0.169246	-0.079880
C30	C	0.939749	0.669246	0.420120
C31	C	0.526481	0.171528	-0.079876
C32	C	1.026481	0.671528	0.420124
C33	C	0.569831	0.172660	-0.000034
C34	C	1.069831	0.672660	0.499966
C35	C	0.396364	0.168086	-0.000041
C36	C	0.896364	0.668086	0.499959
C37	C	0.302324	0.165602	-0.000045
C38	C	0.802324	0.665602	0.499955
C39	C	0.663877	0.175142	-0.000030
C40	C	1.163877	0.675142	0.499970
C41	C	0.987866	-0.057766	-0.000032
C42	C	1.487866	0.442234	0.499968
C43	C	0.985436	-0.196288	-0.000035
C44	C	1.485436	0.303712	0.499965
C45	C	1.056248	-0.272209	-0.000038
C46	C	1.556248	0.227791	0.499962
C47	C	1.053738	-0.415379	-0.000041
C48	C	1.553738	0.084621	0.499959
C49	C	1.135049	0.161202	-0.000040
C50	C	1.635049	0.661202	0.499960
C51	C	1.227359	0.163627	-0.000049
C52	C	1.727359	0.663627	0.499951
C53	C	0.978329	0.398512	-0.000038
C54	C	1.478329	0.898512	0.499962
C55	C	0.980759	0.537034	-0.000040
C56	C	1.480759	1.037034	0.499960
N57	N	0.983076	0.170324	0.228141
N58	N	1.483076	0.670324	0.728141
N59	N	0.983125	0.170412	-0.228208
N60	N	1.483125	0.670412	0.271792
C61	C	0.932250	0.094677	0.546096
C62	C	1.432250	0.594677	1.046096
C63	C	0.932243	0.094659	0.453906
C64	C	1.432243	0.594659	0.953906
C65	C	1.033957	0.246063	0.453843
C66	C	1.533957	0.746063	0.953843
C67	C	1.033968	0.246074	0.546031
C68	C	1.533968	0.746074	1.046031
C69	C	0.983110	0.170383	0.592155
C70	C	1.483110	0.670383	1.092155
C71	C	0.983092	0.170354	0.407778
C72	C	1.483092	0.670354	0.907778
C73	C	0.983084	0.170335	0.307821
C74	C	1.483084	0.670335	0.807821
C75	C	0.983118	0.170400	0.692118
C76	C	1.483118	0.670400	1.192118
H77	H	0.404443	0.168326	-0.144885
H78	H	0.904443	0.668326	0.355115
O79	O	0.902667	-0.250581	-0.000028
O80	O	1.402667	0.249419	0.499972
H81	H	0.866810	-0.218513	-0.059722
H82	H	1.366810	0.281487	0.440278
H83	H	0.404405	0.168259	0.144804
H84	H	0.904405	0.668259	0.644804
H85	H	1.114359	-0.480615	-0.000040
H86	H	1.614359	0.019385	0.499960
O87	O	0.900448	-0.376577	-0.000031
O88	O	1.400448	0.123423	0.499969
H89	H	0.897919	-0.316555	-0.059725
H90	H	1.397919	0.183445	0.440275
O91	O	0.573277	0.172770	-0.165986
O92	O	1.073277	0.672770	0.334014
H93	H	0.605877	0.258799	-0.169801
H94	H	1.105877	0.758799	0.330199
H95	H	1.118732	-0.231215	-0.000034
H96	H	1.618732	0.268785	0.499966
O97	O	0.877392	0.012976	0.404244
O98	O	1.377392	0.512976	0.904244
H99	H	0.916871	-0.054092	0.362264
H100	H	1.416871	0.445908	0.862264
H101	H	0.890839	0.033043	0.583647
H102	H	1.390839	0.533043	1.083647
H103	H	1.075363	0.307690	0.416278
H104	H	1.575363	0.807690	0.916278
O105	O	0.573206	0.172712	0.165913
O106	O	1.073206	0.672712	0.665913
H107	H	0.640804	0.174508	0.152507
H108	H	1.140804	0.674508	0.652507
H109	H	1.075389	0.307724	0.583534
H110	H	1.575389	0.807724	1.083534
