data_functionalizedCrystal
_audit_creation_method	'MofGen! by Chris Wilmer'
_symmetry_space_group_name_H-M	'P1'
_symmetry_Int_Tables_number	1
_symmetry_cell_setting	triclinic
loop_
_symmetry_equiv_pos_as_xyz
  x,y,z
_cell_length_a	19.077399
_cell_length_b	19.076808
_cell_length_c	19.805399
_cell_angle_alpha	87.672943
_cell_angle_beta	92.276093
_cell_angle_gamma	94.711600
loop_
_atom_site_label
_atom_site_type_symbol
_atom_site_fract_x
_atom_site_fract_y
_atom_site_fract_z
Zn1	Zn	1.066424	-0.237392	-0.332415
Zn2	Zn	1.399757	0.095941	0.000918
Zn3	Zn	1.733091	0.429275	0.334251
Zn4	Zn	1.061601	-0.355291	-0.214855
Zn5	Zn	1.394934	-0.021958	0.118478
Zn6	Zn	1.728268	0.311376	0.451812
Zn7	Zn	0.948539	-0.242147	-0.223602
Zn8	Zn	1.281872	0.091186	0.109731
Zn9	Zn	1.615205	0.424520	0.443064
Zn10	Zn	0.943769	-0.359987	-0.332365
Zn11	Zn	1.277102	-0.026654	0.000969
Zn12	Zn	1.610435	0.306679	0.334302
O13	O	1.005083	-0.298704	-0.275809
O14	O	1.338417	0.034629	0.057524
O15	O	1.671750	0.367962	0.390857
O16	O	1.164433	-0.249076	-0.313181
O17	O	1.497766	0.084257	0.020152
O18	O	1.831100	0.417591	0.353485
O19	O	1.046581	-0.340307	-0.121299
O20	O	1.379914	-0.006974	0.212035
O21	O	1.713248	0.326360	0.545368
O22	O	0.968191	-0.142859	-0.241719
O23	O	1.301525	0.190475	0.091615
O24	O	1.634858	0.523808	0.424948
O25	O	1.160890	-0.335696	-0.226810
O26	O	1.494223	-0.002363	0.106523
O27	O	1.827556	0.330971	0.439856
O28	O	1.054801	-0.139365	-0.321663
O29	O	1.388134	0.193968	0.011670
O30	O	1.721468	0.527302	0.345004
O31	O	0.963515	-0.257181	-0.127725
O32	O	1.296848	0.076153	0.205608
O33	O	1.630181	0.409486	0.538941
O34	O	0.849257	-0.261734	-0.241669
O35	O	1.182591	0.071599	0.091664
O36	O	1.515924	0.404932	0.424997
O37	O	0.960061	-0.343700	-0.427088
O38	O	1.293395	-0.010367	-0.093755
O39	O	1.626728	0.322967	0.239579
O40	O	0.845753	-0.348311	-0.321576
O41	O	1.179086	-0.014978	0.011757
O42	O	1.512420	0.318356	0.345090
O43	O	1.050176	-0.253630	-0.427125
O44	O	1.383509	0.079704	-0.093792
O45	O	1.716842	0.413037	0.239541
O46	O	1.041956	-0.454572	-0.226761
O47	O	1.375289	-0.121238	0.106572
O48	O	1.708622	0.212095	0.439906
O49	O	0.955385	-0.458022	-0.313095
O50	O	1.288718	-0.124689	0.020239
O51	O	1.622051	0.208645	0.353572
C52	C	0.821927	-0.306049	-0.282567
C53	C	1.155260	0.027285	0.050766
C54	C	1.488593	0.360618	0.384100
C55	C	0.743571	-0.309208	-0.285473
C56	C	1.076904	0.024126	0.047860
C57	C	1.410237	0.357459	0.381193
C58	C	0.997648	-0.481877	-0.268987
C59	C	1.330982	-0.148543	0.064346
C60	C	1.664315	0.184790	0.397680
C61	C	0.994532	-0.560236	-0.266089
C62	C	1.327866	-0.226903	0.067245
C63	C	1.661199	0.106431	0.400578
C64	C	0.708566	-0.265548	-0.245309
C65	C	1.041899	0.067785	0.088024
C66	C	1.375232	0.401119	0.421358
C67	C	0.634942	-0.268522	-0.248039
C68	C	0.968275	0.064811	0.085294
C69	C	1.301608	0.398145	0.418627
C70	C	0.596324	-0.315153	-0.290938
C71	C	0.929658	0.018180	0.042395
C72	C	1.262991	0.351514	0.375728
C73	C	0.631334	-0.358818	-0.331104
C74	C	0.964668	-0.025484	0.002229
C75	C	1.298001	0.307849	0.335563
C76	C	0.704957	-0.355846	-0.328370
C77	C	1.038290	-0.022513	0.004964
C78	C	1.371623	0.310820	0.338297
C79	C	0.375943	-0.328883	-0.303566
C80	C	0.709276	0.004450	0.029767
C81	C	1.042609	0.337783	0.363100
C82	C	0.302315	-0.331850	-0.306299
C83	C	0.635649	0.001484	0.027034
C84	C	0.968982	0.334817	0.360367
C85	C	0.305928	-0.241555	-0.223233
C86	C	0.639261	0.091778	0.110100
C87	C	0.972594	0.425112	0.443433
C88	C	0.379551	-0.238585	-0.220506
C89	C	0.712885	0.094748	0.112828
C90	C	1.046218	0.428082	0.446161
C91	C	0.414555	-0.282252	-0.260669
C92	C	0.747888	0.051081	0.072664
C93	C	1.081222	0.384415	0.405998
N94	N	0.521069	-0.318193	-0.293732
N95	N	0.854402	0.015141	0.039602
N96	N	1.187736	0.348474	0.372935
N97	N	0.489809	-0.279215	-0.257871
N98	N	0.823142	0.054118	0.075462
N99	N	1.156476	0.387451	0.408795
C100	C	1.038128	-0.595171	-0.306386
C101	C	1.371461	-0.261838	0.026947
C102	C	1.704794	0.071495	0.360280
C103	C	1.035197	-0.668799	-0.303664
C104	C	1.368530	-0.335465	0.029669
C105	C	1.701864	-0.002132	0.363002
C106	C	0.988674	-0.707489	-0.260641
C107	C	1.322007	-0.374156	0.072693
C108	C	1.655340	-0.040822	0.406026
C109	C	0.945074	-0.672549	-0.220342
C110	C	1.278407	-0.339215	0.112991
C111	C	1.611740	-0.005882	0.446325
C112	C	0.948001	-0.598923	-0.223068
C113	C	1.281335	-0.265590	0.110265
C114	C	1.614668	0.067744	0.443599
C115	C	0.975083	-0.927888	-0.248024
C116	C	1.308416	-0.594554	0.085309
C117	C	1.641749	-0.261221	0.418643
C118	C	0.972160	-1.001518	-0.245300
C119	C	1.305493	-0.668185	0.088034
C120	C	1.638826	-0.334851	0.421367
C121	C	1.062282	-0.997763	-0.328623
C122	C	1.395616	-0.664430	0.004710
C123	C	1.728949	-0.331096	0.338043
C124	C	1.065209	-0.924136	-0.331342
C125	C	1.398542	-0.590803	0.001991
C126	C	1.731876	-0.257469	0.335324
C127	C	1.021606	-0.889202	-0.291046
C128	C	1.354940	-0.555869	0.042287
C129	C	1.688273	-0.222536	0.375621
N130	N	0.985678	-0.782748	-0.257856
N131	N	1.319012	-0.449414	0.075477
N132	N	1.652345	-0.116081	0.408811
N133	N	1.024598	-0.813945	-0.293835
N134	N	1.357932	-0.480612	0.039498
N135	N	1.691265	-0.147278	0.372832
C136	C	1.188955	-0.291332	-0.269026
C137	C	1.522288	0.042002	0.064308
C138	C	1.855622	0.375335	0.397641
C139	C	1.267310	-0.288190	-0.266135
C140	C	1.600644	0.045143	0.067198
C141	C	1.933977	0.378477	0.400532
C142	C	1.005125	-0.298658	-0.452352
C143	C	1.338458	0.034675	-0.119019
C144	C	1.671791	0.368008	0.214314
C145	C	1.005142	-0.298639	-0.527584
C146	C	1.338475	0.034695	-0.194251
C147	C	1.671809	0.368028	0.139082
C148	C	1.012566	-0.114816	-0.282672
C149	C	1.345900	0.218518	0.050661
C150	C	1.679233	0.551851	0.383994
C151	C	1.015755	-0.036453	-0.285597
C152	C	1.349088	0.296880	0.047736
C153	C	1.682422	0.630213	0.381070
C154	C	1.052066	-0.251737	-0.562949
C155	C	1.385399	0.081596	-0.229616
C156	C	1.718732	0.414930	0.103717
C157	C	1.052074	-0.251716	-0.633638
C158	C	1.385407	0.081617	-0.300305
C159	C	1.718740	0.414951	0.033028
C160	C	1.005161	-0.298601	-0.668961
C161	C	1.338494	0.034732	-0.335628
C162	C	1.671828	0.368066	-0.002294
C163	C	0.958232	-0.345505	-0.633591
C164	C	1.291566	-0.012172	-0.300258
C165	C	1.624899	0.321161	0.033075
C166	C	0.958222	-0.345522	-0.562904
C167	C	1.291555	-0.012189	-0.229570
C168	C	1.624888	0.321145	0.103763
C169	C	0.958275	-0.345438	-0.918666
C170	C	1.291608	-0.012105	-0.585332
C171	C	1.624942	0.321229	-0.251999
C172	C	0.958291	-0.345419	-0.989358
C173	C	1.291624	-0.012086	-0.656025
C174	C	1.624958	0.321248	-0.322691
C175	C	1.052127	-0.251632	-0.989400
C176	C	1.385461	0.081701	-0.656067
C177	C	1.718794	0.415035	-0.322733
C178	C	1.052116	-0.251649	-0.918713
C179	C	1.385450	0.081685	-0.585379
C180	C	1.718783	0.415018	-0.252046
C181	C	1.005185	-0.298550	-0.883349
C182	C	1.338519	0.034783	-0.550016
C183	C	1.671852	0.368117	-0.216683
C184	C	1.005176	-0.298571	-0.806700
C185	C	1.338510	0.034762	-0.473367
C186	C	1.671843	0.368096	-0.140034
C187	C	1.005173	-0.298584	-0.745608
C188	C	1.338506	0.034749	-0.412275
C189	C	1.671840	0.368083	-0.078942
C190	C	1.005085	-0.298698	-0.099954
C191	C	1.338418	0.034636	0.233380
C192	C	1.671751	0.367969	0.566713
C193	C	1.005212	-0.298513	-0.024724
C194	C	1.338545	0.034820	0.308609
C195	C	1.671878	0.368154	0.641942
H196	H	0.740003	-0.227570	-0.210382
H197	H	1.073336	0.105763	0.122952
H198	H	1.406670	0.439096	0.456285
O199	O	0.907631	-0.396071	-0.671690
O200	O	1.240964	-0.062738	-0.338357
O201	O	1.574298	0.270596	-0.005023
H202	H	0.874995	-0.428683	-0.635221
H203	H	1.208328	-0.095349	-0.301888
H204	H	1.541661	0.237984	0.031446
H205	H	0.920005	-0.383707	-0.534111
H206	H	1.253338	-0.050374	-0.200778
H207	H	1.586671	0.282959	0.132555
H208	H	1.090320	-0.213472	-0.889956
H209	H	1.423653	0.119861	-0.556623
H210	H	1.756986	0.453194	-0.223290
H211	H	0.733457	-0.391399	-0.361076
H212	H	1.066790	-0.058066	-0.027742
H213	H	1.400124	0.275268	0.305591
H214	H	0.606444	-0.232974	-0.215329
H215	H	0.939777	0.100360	0.118004
H216	H	1.273110	0.433693	0.451337
H217	H	1.076015	-0.563674	-0.341417
H218	H	1.409348	-0.230341	-0.008084
H219	H	1.742681	0.102992	0.325249
O220	O	1.115389	-0.882411	-0.377749
O221	O	1.448722	-0.549077	-0.044415
O222	O	1.782055	-0.215744	0.288918
H223	H	1.110105	-0.825345	-0.372869
H224	H	1.443439	-0.492011	-0.039535
H225	H	1.776772	-0.158678	0.293798
H226	H	0.934272	-1.033018	-0.210264
H227	H	1.267605	-0.699685	0.123069
H228	H	1.600938	-0.366351	0.456402
O229	O	0.421203	-0.188311	-0.174216
O230	O	0.754536	0.145022	0.159117
O231	O	1.087870	0.478356	0.492451
H232	H	0.384492	-0.158461	-0.146734
H233	H	0.717825	0.174872	0.186599
H234	H	1.051158	0.508206	0.519932
H235	H	1.070702	-0.697239	-0.336473
H236	H	1.404036	-0.363906	-0.003140
H237	H	1.737369	-0.030573	0.330193
O238	O	0.894893	-0.714279	-0.173940
O239	O	1.228227	-0.380946	0.159393
O240	O	1.561560	-0.047613	0.492727
H241	H	0.865065	-0.677615	-0.146382
H242	H	1.198399	-0.344282	0.186952
H243	H	1.531732	-0.010949	0.520285
H244	H	0.270875	-0.369822	-0.341237
H245	H	0.604208	-0.036488	-0.007904
H246	H	0.937541	0.296845	0.325430
O247	O	0.268175	-0.194479	-0.179895
O248	O	0.601509	0.138855	0.153438
O249	O	0.934842	0.472188	0.486772
H250	H	0.210493	-0.204386	-0.188992
H251	H	0.543826	0.128947	0.144342
H252	H	0.877159	0.462281	0.477675
O253	O	1.109299	-1.035440	-0.372095
O254	O	1.442632	-0.702106	-0.038762
O255	O	1.775966	-0.368773	0.294571
H256	H	1.099443	-1.093137	-0.362980
H257	H	1.432777	-0.759803	-0.029647
H258	H	1.766110	-0.426470	0.303686
H259	H	0.920071	-0.383638	-0.889881
H260	H	1.253404	-0.050304	-0.556547
H261	H	1.586737	0.283029	-0.223214
H262	H	0.939581	-0.899450	-0.215212
H263	H	1.272914	-0.566117	0.118122
H264	H	1.606248	-0.232784	0.451455
H265	H	0.912500	-0.570480	-0.190254
H266	H	1.245834	-0.237146	0.143079
H267	H	1.579167	0.096187	0.476412
H268	H	0.404434	-0.364440	-0.336270
H269	H	0.737767	-0.031107	-0.002937
H270	H	1.071100	0.302227	0.330397
O271	O	1.102665	-0.201168	-0.524852
O272	O	1.435998	0.132166	-0.191518
O273	O	1.769332	0.465499	0.141815
H274	H	1.135290	-0.168546	-0.561322
H275	H	1.468624	0.164787	-0.227989
H276	H	1.801957	0.498120	0.105344
O277	O	1.102688	-0.201134	-0.671784
O278	O	1.436021	0.132200	-0.338451
O279	O	1.769354	0.465533	-0.005117
H280	H	1.135314	-0.168542	-0.635346
H281	H	1.468648	0.164791	-0.302013
H282	H	1.801981	0.498125	0.031321
O283	O	1.102730	-0.201023	-1.027542
O284	O	1.436063	0.132310	-0.694208
O285	O	1.769396	0.465644	-0.360875
H286	H	1.094849	-0.208874	-1.082630
H287	H	1.428182	0.124459	-0.749297
H288	H	1.761515	0.457792	-0.415964
H289	H	0.599886	-0.396789	-0.366030
H290	H	0.933219	-0.063455	-0.032697
H291	H	1.266553	0.269878	0.300637
O292	O	0.907680	-0.395982	-1.027459
O293	O	1.241013	-0.062648	-0.694125
O294	O	1.574347	0.270685	-0.360792
H295	H	0.917502	-0.450836	-1.011379
H296	H	1.250835	-0.117503	-0.678046
H297	H	1.584168	0.215831	-0.344713
