data_functionalizedCrystal
_audit_creation_method	'MofGen! by Chris Wilmer'
_symmetry_space_group_name_H-M	'P1'
_symmetry_Int_Tables_number	1
_symmetry_cell_setting	triclinic
loop_
_symmetry_equiv_pos_as_xyz
  x,y,z
_cell_length_a	17.917603
_cell_length_b	21.606444
_cell_length_c	17.917603
_cell_angle_alpha	63.037650
_cell_angle_beta	90.239941
_cell_angle_gamma	57.010312
loop_
_atom_site_label
_atom_site_type_symbol
_atom_site_fract_x
_atom_site_fract_y
_atom_site_fract_z
Zr1	Zr	0.757800	0.615661	-0.060788
O2	O	0.638375	0.744780	-0.180202
O3	O	0.794412	0.486542	-0.024185
O4	O	0.801519	0.603885	-0.173091
O5	O	0.625660	0.636727	0.086168
O6	O	0.930208	0.594595	-0.167479
O7	O	0.631268	0.627438	-0.031296
O8	O	0.917495	0.384691	0.098888
O9	O	0.638373	0.846632	-0.180199
O10	O	0.906064	0.532718	-0.004381
O11	O	0.805839	0.546583	0.079092
O12	O	0.814207	0.684739	-0.096226
O13	O	0.713983	0.698604	-0.012753
Zr14	Zr	0.954101	0.615661	0.135505
Zr15	Zr	0.963045	0.600845	-0.051836
Zr16	Zr	0.748856	0.630477	0.126553
Zr17	Zr	0.757798	0.778102	-0.060782
Zr18	Zr	0.954103	0.453220	0.135499
O19	O	0.917489	0.744780	0.098901
O20	O	0.930206	0.723714	-0.167474
O21	O	0.625658	0.765846	0.086173
O22	O	1.073526	0.486541	0.254919
O23	O	1.086243	0.465476	-0.011456
O24	O	0.781695	0.507608	0.242190
O25	O	1.086241	0.594595	-0.011452
O26	O	0.910382	0.627437	0.247808
O27	O	0.781693	0.636727	0.242195
O28	O	1.080633	0.603884	0.106012
O29	O	0.801515	0.834855	-0.173083
O30	O	0.910386	0.396467	0.247800
O31	O	1.073528	0.384690	0.254915
O32	O	1.080637	0.372914	0.106004
O33	O	0.631264	0.858408	-0.031287
O34	O	0.794406	0.846631	-0.024172
O35	O	0.897694	0.546583	0.170943
O36	O	0.997918	0.532718	0.087470
O37	O	0.906062	0.684739	-0.004375
O38	O	0.805837	0.698604	0.079098
C39	C	0.855954	0.412472	0.037351
C40	C	0.855955	0.343512	0.037348
C41	C	0.908269	0.303877	-0.006225
C42	C	0.908272	0.239077	-0.006219
C43	C	0.855955	0.213918	0.037356
C44	C	0.803639	0.253556	0.080935
C45	C	0.803642	0.318350	0.080933
C46	C	0.803627	-0.007752	0.080941
C47	C	0.803626	-0.072549	0.080937
C48	C	0.908257	-0.087025	-0.006211
C49	C	0.908260	-0.022231	-0.006212
C50	C	0.855949	0.017398	0.037370
C51	C	0.855947	0.087660	0.037365
C52	C	0.855950	0.143661	0.037356
C53	C	0.599221	0.634193	0.026161
C54	C	0.512089	0.640483	0.022361
C55	C	0.352576	0.651972	0.015420
C56	C	0.359318	0.579353	0.059294
C57	C	0.270560	0.585746	0.055433
C58	C	0.441341	0.645582	0.019281
C59	C	1.112680	0.597128	0.048556
C60	C	1.199812	0.590838	0.052356
C61	C	0.867138	0.597129	-0.196977
C62	C	0.870935	0.590839	-0.276508
C63	C	0.855947	0.818850	0.037366
C64	C	0.855946	0.887810	0.037368
C65	C	0.877890	0.579349	-0.422137
C66	C	0.834014	0.651969	-0.503148
C67	C	0.837883	0.645576	-0.584182
C68	C	0.874021	0.585741	-0.341096
C69	C	0.844763	0.634193	0.271694
C70	C	0.840966	0.640482	0.351225
C71	C	1.112683	0.393939	0.048548
C72	C	1.199816	0.318689	0.052346
C73	C	0.844766	0.431004	0.271686
C74	C	0.840971	0.368333	0.351215
C75	C	1.101496	0.412471	0.282884
C76	C	1.184832	0.343511	0.366213
C77	C	0.610405	0.818850	-0.208167
C78	C	0.527069	0.887811	-0.291496
C79	C	0.599218	0.837382	0.026168
C80	C	0.512085	0.912632	0.022371
C81	C	0.867135	0.800318	-0.196970
C82	C	0.870930	0.862989	-0.276498
C83	C	1.192788	0.283350	0.006177
C84	C	1.274651	0.212653	0.009727
C85	C	1.363542	0.177292	0.059453
C86	C	1.370568	0.212637	0.105624
C87	C	1.288706	0.283337	0.102067
C88	C	0.887135	0.338903	0.436516
C89	C	0.883564	0.280027	0.511248
C90	C	0.833835	0.250577	0.500679
C91	C	0.787665	0.280014	0.415369
C92	C	0.791230	0.338894	0.340638
C93	C	1.276292	0.303888	0.361773
C94	C	1.354603	0.239100	0.440063
C95	C	1.341452	0.213932	0.522791
C96	C	1.249983	0.253561	0.527229
C97	C	1.171674	0.318352	0.448940
C98	C	0.435609	0.927442	-0.287057
C99	C	0.357298	0.992250	-0.365346
C100	C	0.370449	1.017422	-0.448075
C101	C	0.461918	0.977788	-0.452512
C102	C	0.540227	0.912985	-0.374223
C103	C	0.519113	0.947977	0.068532
C104	C	0.437251	1.018691	0.064961
C105	C	0.348361	1.054055	0.015233
C106	C	0.341334	1.018706	-0.030935
C107	C	0.423196	0.947998	-0.027368
C108	C	0.920668	0.892419	-0.265900
C109	C	0.924253	0.951296	-0.340618
C110	C	0.878094	0.980746	-0.425933
C111	C	0.828355	0.951309	-0.436530
C112	C	0.824776	0.892429	-0.361813
H113	H	0.950866	0.324360	-0.041713
F114	F	0.742097	0.370205	0.249857
F115	F	0.421591	0.900663	-0.199019
F116	F	1.098192	0.320974	-0.046754
H117	H	0.927630	0.362874	0.445139
H118	H	0.417460	0.919223	-0.064957
H119	H	0.280150	0.718940	-0.025039
H120	H	0.431750	0.512380	0.099756
H121	H	1.442954	0.183835	0.146109
F122	F	1.296200	0.320936	0.151216
H123	H	1.287018	0.324369	0.294419
F124	F	0.747964	0.360531	0.127312
F125	F	0.963938	0.004545	-0.052595
H126	H	0.268949	1.047510	-0.071423
H127	H	0.921165	0.256066	0.580704
H128	H	1.405225	0.161173	0.586532
F129	F	0.930779	0.491817	-0.411031
H130	H	0.830939	0.202634	0.561537
H131	H	0.793541	0.718942	-0.511646
F132	F	1.267154	0.175046	-0.039414
F133	F	0.259957	1.034418	-0.360605
H134	H	1.430192	0.119722	0.062342
F135	F	0.969802	0.861087	-0.175108
F136	F	0.287095	1.086391	-0.531391
H137	H	0.964755	0.975257	-0.331973
F138	F	0.747942	-0.099324	0.127319
F139	F	0.881909	1.043414	-0.505447
F140	F	0.475900	1.004585	-0.540566
H141	H	0.747176	0.256027	0.406776
F142	F	0.637565	0.870808	-0.378962
F143	F	1.236001	0.226766	0.615282
F144	F	1.451944	0.196931	0.435322
F145	F	0.613710	0.910356	0.121461
H146	H	0.784270	0.868473	-0.370454
H147	H	1.097205	0.350606	0.452567
H148	H	0.442990	1.047460	0.102560
F149	F	0.261243	1.129309	0.011446
H150	H	0.950870	0.206805	-0.041699
F151	F	0.963936	-0.129210	-0.052593
H152	H	0.761047	0.233062	0.116419
F153	F	0.747956	0.034414	0.127329
F154	F	0.779225	0.982666	-0.527336
