data_functionalizedCrystal
_audit_creation_method	'MofGen! by Chris Wilmer'
_symmetry_space_group_name_H-M	'P1'
_symmetry_Int_Tables_number	1
_symmetry_cell_setting	triclinic
loop_
_symmetry_equiv_pos_as_xyz
  x,y,z
_cell_length_a	19.288864
_cell_length_b	14.519709
_cell_length_c	18.366186
_cell_angle_alpha	89.992822
_cell_angle_beta	89.977106
_cell_angle_gamma	83.408195
loop_
_atom_site_label
_atom_site_type_symbol
_atom_site_fract_x
_atom_site_fract_y
_atom_site_fract_z
O1	O	0.921767	0.115045	-0.060785
O2	O	0.719562	0.130564	-0.060735
O3	O	0.826026	-0.011468	-0.060755
O4	O	0.815303	0.257077	-0.060765
O5	O	0.826007	-0.011475	0.060345
O6	O	0.719544	0.130557	0.060364
O7	O	0.921749	0.115038	0.060315
Zn8	Zn	0.820643	0.122797	0.079567
Zn9	Zn	0.820667	0.122806	-0.079987
O10	O	0.815285	0.257070	0.060334
C11	C	0.693675	0.130061	-0.000179
C12	C	0.616566	0.128562	-0.000160
C13	C	0.572169	0.211900	-0.000175
C14	C	0.499717	0.210492	-0.000183
C15	C	0.471665	0.125741	-0.000191
C16	C	0.516071	0.042392	-0.000172
C17	C	0.588521	0.043803	-0.000156
C18	C	0.363169	0.059120	-0.042639
C19	C	0.290720	0.057713	-0.042659
C20	C	0.248203	0.121387	-0.000234
C21	C	0.278144	0.186484	0.042200
C22	C	0.350595	0.187894	0.042215
C23	C	0.393105	0.124202	-0.000207
C24	C	0.125246	0.203203	-0.000257
C25	C	0.052792	0.201792	-0.000260
C26	C	0.069148	0.033689	-0.000257
C27	C	0.141599	0.035103	-0.000246
C28	C	0.169644	0.119863	-0.000249
C29	C	0.825517	-0.045828	-0.000205
C30	C	0.824019	-0.148200	-0.000204
C31	C	0.818507	-0.523061	-0.000222
C32	C	0.820037	-0.418762	-0.000216
C33	C	0.821263	-0.335633	-0.000212
C34	C	0.822794	-0.231329	-0.000208
C35	C	0.947636	0.115541	-0.000243
C36	C	1.024745	0.117040	-0.000267
C37	C	0.815794	0.291430	-0.000217
C38	C	0.817291	0.393802	-0.000223
N39	N	0.820632	0.122790	0.188458
N40	N	0.820684	0.122805	-0.188878
C41	C	0.867790	0.059929	0.226549
C42	C	0.867794	0.059925	0.302777
C43	C	0.820648	0.122797	0.340910
C44	C	0.773481	0.185663	0.302809
C45	C	0.773473	0.185659	0.226583
C46	C	0.811652	0.206826	0.461669
C47	C	0.811664	0.206831	0.537894
C48	C	0.820667	0.122809	0.576018
C49	C	0.829673	0.038778	0.537908
C50	C	0.829665	0.038775	0.461681
C51	C	0.820650	0.122808	0.423565
C52	C	0.867832	0.059938	0.696765
C53	C	0.867832	0.059933	0.772994
C54	C	0.773522	0.185679	0.773025
C55	C	0.773519	0.185677	0.696797
C56	C	0.820678	0.122807	0.658671
H57	H	0.148080	0.272220	-0.000249
N58	N	0.918664	-0.007867	0.343878
H59	H	0.892081	-0.048612	0.375527
H60	H	0.948526	-0.047633	0.308116
H61	H	0.594998	0.280918	-0.000179
N62	N	0.722605	0.253464	0.185499
H63	H	0.730681	0.318893	0.198753
H64	H	0.729779	0.243845	0.131437
N65	N	0.722633	0.253479	0.343936
H66	H	0.692756	0.293302	0.308235
H67	H	0.691891	0.218275	0.375585
N68	N	0.636412	-0.046087	-0.000137
H69	H	0.607650	-0.099992	-0.000140
H70	H	0.666853	-0.049163	-0.045024
N71	N	0.451820	0.300381	-0.000200
H72	H	0.480580	0.354288	-0.000200
H73	H	0.421433	0.303448	-0.045102
N74	N	0.801948	0.297457	0.578995
H75	H	0.796232	0.350684	0.543279
H76	H	0.758966	0.299520	0.610643
H77	H	0.906231	0.008739	0.804009
N78	N	0.189490	-0.054783	-0.000230
H79	H	0.160727	-0.108688	-0.000235
H80	H	0.219933	-0.057860	-0.045115
N81	N	0.258427	-0.012494	-0.088423
H82	H	0.270233	-0.003666	-0.141361
H83	H	0.277350	-0.077101	-0.072511
N84	N	0.918648	-0.007886	0.185431
H85	H	0.911490	0.001649	0.131361
H86	H	0.967931	0.002610	0.198729
N87	N	0.382893	0.258085	0.087990
H88	H	0.409120	0.298281	0.055500
H89	H	0.344935	0.298148	0.114861
H90	H	0.016645	0.269658	-0.000268
H91	H	0.493226	-0.026613	-0.000188
N92	N	0.722664	0.253486	0.814144
H93	H	0.749251	0.294236	0.845753
H94	H	0.692802	0.293245	0.778395
N95	N	0.232305	0.255171	0.087965
H96	H	0.198407	0.294197	0.055464
H97	H	0.205569	0.220653	0.124241
N98	N	0.038902	-0.057723	-0.000257
H99	H	-0.013732	-0.045973	-0.000266
H100	H	0.055160	-0.094179	-0.045146
N101	N	0.409021	-0.009566	-0.088398
H102	H	0.395608	-0.001215	-0.141341
H103	H	0.459445	0.001239	-0.081889
H104	H	0.804308	0.275251	0.430634
N105	N	0.839376	-0.051849	0.420576
H106	H	0.800722	-0.090170	0.433862
H107	H	0.838023	-0.039016	0.366517
H108	H	0.906230	0.008743	0.665722
H109	H	0.837003	-0.029640	0.568947
H110	H	0.735122	0.236868	0.665780
