data_functionalizedCrystal
_audit_creation_method	'MofGen! by Chris Wilmer'
_symmetry_space_group_name_H-M	'P1'
_symmetry_Int_Tables_number	1
_symmetry_cell_setting	triclinic
loop_
_symmetry_equiv_pos_as_xyz
  x,y,z
_cell_length_a	15.944551
_cell_length_b	10.654550
_cell_length_c	9.130313
_cell_angle_alpha	90.000276
_cell_angle_beta	89.994529
_cell_angle_gamma	96.008166
loop_
_atom_site_label
_atom_site_type_symbol
_atom_site_fract_x
_atom_site_fract_y
_atom_site_fract_z
O1	O	0.117977	-1.666313	-0.121694
O2	O	0.129217	-1.300689	-0.121721
O3	O	0.001379	-1.493485	-0.121693
O4	O	0.245814	-1.473517	-0.121721
O5	O	0.001376	-1.493472	0.121906
O6	O	0.129213	-1.300676	0.121878
O7	O	0.117973	-1.666300	0.121905
Cu8	Cu	0.123592	-1.483487	0.144134
Cu9	Cu	0.123597	-1.483502	-0.143950
O10	O	0.245810	-1.473503	0.121878
C11	C	0.128389	-1.253895	0.000075
C12	C	0.125920	-1.114484	0.000065
C13	C	-0.029921	-1.492650	0.000106
C14	C	-0.123182	-1.490165	0.000107
N15	N	0.123589	-1.483485	0.346757
C16	C	-0.338764	-1.364720	0.000077
C17	C	-0.399446	-1.422966	0.120191
C18	C	-0.293933	-1.485668	0.000095
C19	C	-0.399426	-1.423007	-0.119979
C20	C	-0.458871	-1.481317	0.000078
C21	C	-0.353387	-1.543947	0.120308
C22	C	-0.353360	-1.543972	-0.119969
C23	C	-0.414024	-1.602306	0.000173
C24	C	-0.198917	-1.488172	0.000107
C25	C	-0.553887	-1.478822	0.000077
C26	C	0.277110	-1.474339	0.000075
C27	C	0.370371	-1.476824	0.000065
C28	C	0.118800	-1.713094	0.000106
C29	C	0.121269	-1.852505	0.000106
C30	C	0.201189	-1.034024	0.000061
C31	C	0.198863	-0.903034	0.000087
C32	C	0.045995	-0.932975	0.000115
C33	C	0.048321	-1.063963	0.000100
N34	N	0.123594	-1.483514	-0.346572
C35	C	0.067007	-1.568884	0.423421
C36	C	0.067007	-1.568896	0.576758
C37	C	0.180179	-1.398106	0.576753
C38	C	0.180174	-1.398089	0.423419
H39	H	-0.306038	-1.264327	0.000190
Br40	Br	-0.433457	-1.337699	0.289433
H41	H	-0.333102	-1.595055	0.221966
Br42	Br	-0.468324	-1.769778	0.000288
H43	H	-0.332933	-1.595090	-0.221513
H44	H	0.226250	-1.328580	0.639186
H45	H	0.260155	-0.837528	0.000086
Br46	Br	-0.009790	-1.684792	0.680799
Br47	Br	-0.059313	-0.864402	0.000156
Br48	Br	-0.009789	-1.684775	0.319385
Br49	Br	0.256963	-1.282173	0.319362
H50	H	-0.419797	-1.371841	-0.221532
H51	H	0.264375	-1.075154	0.000044
Br52	Br	-0.053837	-1.173168	0.000124
