data_functionalizedCrystal
_audit_creation_method	'MofGen! by Chris Wilmer'
_symmetry_space_group_name_H-M	'P1'
_symmetry_Int_Tables_number	1
_symmetry_cell_setting	triclinic
loop_
_symmetry_equiv_pos_as_xyz
  x,y,z
_cell_length_a	10.723022
_cell_length_b	13.262508
_cell_length_c	9.198806
_cell_angle_alpha	105.915142
_cell_angle_beta	89.996352
_cell_angle_gamma	84.450641
loop_
_atom_site_label
_atom_site_type_symbol
_atom_site_fract_x
_atom_site_fract_y
_atom_site_fract_z
O1	O	1.656452	0.147205	-0.062674
O2	O	1.293229	0.161298	-0.057107
O3	O	1.483982	0.001528	-0.120272
O4	O	1.465700	0.306974	0.000491
O5	O	1.483966	0.001527	0.121513
O6	O	1.293214	0.161297	0.184678
O7	O	1.656437	0.147204	0.179111
Cu8	Cu	1.474824	0.154251	0.203971
Cu9	Cu	1.474842	0.154251	-0.081967
O10	O	1.465685	0.306974	0.242276
C11	C	1.246727	0.160272	0.063380
C12	C	1.108188	0.157205	0.062165
C13	C	1.060088	0.065071	0.025738
C14	C	0.916901	0.061899	0.024482
C15	C	1.482951	-0.037583	-0.014845
C16	C	1.479886	-0.154121	-0.060929
C17	C	1.471208	-0.482635	0.336371
C18	C	1.474077	-0.373141	0.379671
C19	C	1.475530	-0.318380	0.269525
C20	C	1.474112	-0.373124	0.116071
C21	C	1.471232	-0.482628	0.072767
C22	C	1.475555	-0.318374	0.005920
C23	C	1.474137	-0.373118	-0.147534
C24	C	1.471258	-0.482611	-0.190830
C25	C	1.469805	-0.537371	-0.080684
C26	C	1.478434	-0.208870	0.049225
C27	C	1.478459	-0.208864	-0.214380
C28	C	1.475589	-0.318357	-0.257680
C29	C	1.702939	0.148230	0.058621
C30	C	1.841478	0.151297	0.059826
C31	C	1.466716	0.346085	0.136846
C32	C	1.469781	0.462622	0.182921
N33	N	1.474821	0.154250	0.405085
N34	N	1.474856	0.154244	-0.283084
C35	C	1.554914	0.086871	0.450644
C36	C	1.554933	0.086868	0.618055
H37	H	0.882887	0.230185	0.091025
H38	H	1.475245	-0.328577	0.504613
N39	N	1.469817	-0.541632	-0.356355
H40	H	1.393095	-0.514635	-0.403373
H41	H	1.547674	-0.530455	-0.409339
H42	H	1.406286	0.211936	0.677648
N43	N	1.479978	-0.149810	-0.333194
H44	H	1.482008	-0.072137	-0.282477
H45	H	1.556730	-0.176884	-0.401488
H46	H	1.406260	0.211929	0.490017
N47	N	1.645775	0.010460	0.670078
H48	H	1.630799	-0.064111	0.614189
H49	H	1.734439	0.023099	0.648600
N50	N	1.022356	0.258597	0.102259
H51	H	0.967711	0.261615	0.013825
H52	H	0.967788	0.261544	0.193115
N53	N	1.645738	0.010452	0.338174
H54	H	1.630751	-0.064113	0.335123
H55	H	1.632819	0.021364	0.234579
N56	N	1.466712	-0.655472	-0.127366
H57	H	1.388754	-0.673894	-0.082899
H58	H	1.466075	-0.681776	-0.241295
H59	H	1.477865	-0.229225	0.304790
N60	N	0.862050	-0.042597	-0.016844
H61	H	0.932062	-0.101820	-0.040259
H62	H	0.808648	-0.047898	0.070693
N63	N	1.469654	-0.541698	0.455156
H64	H	1.391200	-0.579183	0.446204
H65	H	1.545778	-0.595022	0.439841
H66	H	1.474434	-0.362945	-0.382625
N67	N	1.479973	-0.149826	0.214720
H68	H	1.402205	-0.160934	0.267947
H69	H	1.556781	-0.176866	0.261535
N70	N	1.145941	-0.036310	-0.014350
H71	H	1.236060	-0.019673	-0.007770
H72	H	1.129529	-0.078544	0.058587
