data_functionalizedCrystal
_audit_creation_method	'MofGen! by Chris Wilmer'
_symmetry_space_group_name_H-M	'P1'
_symmetry_Int_Tables_number	1
_symmetry_cell_setting	triclinic
loop_
_symmetry_equiv_pos_as_xyz
  x,y,z
_cell_length_a	19.077105
_cell_length_b	12.594516
_cell_length_c	12.594509
_cell_angle_alpha	89.973801
_cell_angle_beta	87.681710
_cell_angle_gamma	87.712633
loop_
_atom_site_label
_atom_site_type_symbol
_atom_site_fract_x
_atom_site_fract_y
_atom_site_fract_z
Zn1	Zn	1.076044	-0.489188	-0.667170
Zn2	Zn	1.075971	-0.667194	-0.489194
Zn3	Zn	0.958342	-0.482072	-0.482057
Zn4	Zn	0.958330	-0.659962	-0.659985
O5	O	1.017172	-0.574604	-0.574601
O6	O	1.174526	-0.518805	-0.649555
O7	O	1.060342	-0.642685	-0.339299
O8	O	0.973991	-0.334072	-0.506633
O9	O	1.174473	-0.649585	-0.518796
O10	O	1.060465	-0.339300	-0.642635
O11	O	0.973921	-0.506677	-0.334056
O12	O	0.859849	-0.499665	-0.499666
O13	O	0.973971	-0.637260	-0.809886
O14	O	0.859840	-0.630360	-0.630389
O15	O	1.060454	-0.511793	-0.815164
O16	O	1.060331	-0.815178	-0.511829
O17	O	0.973901	-0.809865	-0.637309
C18	C	0.834307	-0.563456	-0.563474
C19	C	0.756076	-0.558713	-0.558738
C20	C	0.719338	-0.624633	-0.624467
C21	C	0.645832	-0.620162	-0.620023
C22	C	0.609066	-0.549775	-0.549844
C23	C	0.645810	-0.483848	-0.484112
C24	C	0.719315	-0.488314	-0.488563
C25	C	0.389230	-0.529104	-0.529253
C26	C	0.315720	-0.524645	-0.524805
C27	C	0.315747	-0.660958	-0.660718
C28	C	0.389253	-0.665423	-0.665157
C29	C	0.425990	-0.599492	-0.599430
N30	N	0.533931	-0.545206	-0.545297
N31	N	0.501124	-0.604056	-0.603982
C32	C	1.017126	-0.851142	-0.574588
C33	C	1.017170	-0.969450	-0.574622
C34	C	0.970156	-1.035852	-0.642820
C35	C	0.953008	-1.105674	-0.544656
C36	C	1.034383	-1.110431	-0.672806
C37	C	0.999988	-1.037712	-0.476405
C38	C	1.081393	-1.042465	-0.604622
C39	C	1.064269	-1.112256	-0.506393
C40	C	1.200751	-0.585796	-0.585773
C41	C	1.278981	-0.590565	-0.590534
C42	C	1.017219	-0.574513	-0.852225
C43	C	1.017239	-0.574475	-0.970532
C44	C	1.017237	-0.296987	-0.574639
C45	C	1.017265	-0.178683	-0.574655
C46	C	0.970216	-0.642677	-1.036915
C47	C	1.034437	-0.672591	-1.111603
C48	C	0.953067	-0.544500	-1.106646
C49	C	1.081494	-0.604442	-1.043664
C50	C	1.000081	-0.476303	-1.038698
C51	C	1.064347	-0.506183	-1.113357
C52	C	1.017165	-0.574619	-0.298060
C53	C	1.017282	-0.574366	-0.179762
H54	H	0.615922	-0.673842	-0.673546
N55	N	0.426758	-0.461766	-0.462121
N56	N	0.467794	-0.396473	-0.502162
H57	H	0.494301	-0.348912	-0.454746
N58	N	0.426800	-0.737338	-0.736833
N59	N	0.418569	-0.835043	-0.729101
H60	H	0.445085	-0.885840	-0.779719
N61	N	0.884973	-0.512731	-1.141531
N62	N	0.874229	-0.506842	-1.238643
H63	H	0.826137	-0.484411	-1.263280
N64	N	0.884926	-1.140653	-0.512820
N65	N	0.836143	-1.074096	-0.490847
H66	H	0.788059	-1.098795	-0.468367
H67	H	1.135797	-0.629844	-1.016001
N68	N	0.608247	-0.411947	-0.412440
N69	N	0.542618	-0.407968	-0.408474
H70	H	0.516089	-0.357188	-0.357852
H71	H	1.048903	-1.142338	-0.755826
N72	N	0.278209	-0.728295	-0.727844
N73	N	0.212581	-0.724303	-0.723863
H74	H	0.186068	-0.771861	-0.771275
N75	N	0.756834	-0.420961	-0.421425
N76	N	0.724002	-0.358115	-0.358774
H77	H	0.750498	-0.310539	-0.311360
H78	H	0.930327	-1.002394	-0.700401
N79	N	0.278175	-0.452737	-0.453109
N80	N	0.310983	-0.393875	-0.394430
H81	H	0.284467	-0.343093	-0.343796
N82	N	0.981684	-0.997832	-0.372231
N83	N	0.978659	-0.899920	-0.355415
H84	H	0.965726	-0.871751	-0.281846
N85	N	1.114204	-1.153975	-0.433984
N86	N	1.149361	-1.092217	-0.381923
H87	H	1.184626	-1.121681	-0.330781
H88	H	1.135649	-1.014550	-0.630016
H89	H	0.930480	-0.700448	-1.003448
H90	H	1.048973	-0.755567	-1.143593
N91	N	1.114317	-0.433777	-1.155096
N92	N	1.177840	-0.447406	-1.136048
H93	H	1.213134	-0.396274	-1.165527
H94	H	0.985527	-0.393349	-1.006683
H95	H	0.749267	-0.681952	-0.681611
