data_functionalizedCrystal
_audit_creation_method	'MofGen! by Chris Wilmer'
_symmetry_space_group_name_H-M	'P1'
_symmetry_Int_Tables_number	1
_symmetry_cell_setting	triclinic
loop_
_symmetry_equiv_pos_as_xyz
  x,y,z
_cell_length_a	19.077105
_cell_length_b	19.077432
_cell_length_c	11.169409
_cell_angle_alpha	92.335551
_cell_angle_beta	92.320653
_cell_angle_gamma	85.334714
loop_
_atom_site_label
_atom_site_type_symbol
_atom_site_fract_x
_atom_site_fract_y
_atom_site_fract_z
Zn1	Zn	1.089015	-0.323957	0.730944
Zn2	Zn	1.093654	-0.441863	0.522489
Zn3	Zn	0.971121	-0.319255	0.522522
Zn4	Zn	0.975825	-0.437063	0.715388
O5	O	1.032404	-0.380534	0.622836
O6	O	1.188281	-0.343574	0.709789
O7	O	1.077372	-0.425640	0.354538
O8	O	0.982850	-0.221231	0.556694
O9	O	1.191689	-0.430199	0.556637
O10	O	1.069466	-0.224686	0.709821
O11	O	0.987348	-0.335560	0.354563
O12	O	0.873094	-0.330906	0.541610
O13	O	0.990867	-0.422019	0.885406
O14	O	0.876550	-0.417459	0.683307
O15	O	1.074028	-0.338920	0.896835
O16	O	1.081933	-0.539874	0.541553
O17	O	0.995365	-0.536347	0.683275
C18	C	0.849243	-0.373152	0.610775
C19	C	0.770887	-0.370010	0.605642
C20	C	0.735896	-0.413666	0.676880
C21	C	0.662271	-0.410705	0.672064
C22	C	0.623640	-0.364092	0.596003
C23	C	0.658636	-0.320431	0.524762
C24	C	0.732259	-0.323389	0.529585
C25	C	0.403256	-0.350402	0.573687
C26	C	0.329628	-0.347449	0.568866
C27	C	0.333268	-0.437723	0.716171
C28	C	0.406892	-0.440680	0.720982
C29	C	0.441882	-0.397016	0.649746
N30	N	0.548384	-0.361065	0.591076
N31	N	0.517136	-0.400039	0.654680
C32	C	1.039682	-0.563689	0.610750
C33	C	1.042860	-0.642047	0.605623
C34	C	0.999251	-0.677047	0.676937
C35	C	1.002240	-0.750672	0.672116
C36	C	1.048843	-0.789295	0.595986
C37	C	1.092454	-0.754289	0.524665
C38	C	1.089460	-0.680666	0.529481
C39	C	1.062628	-1.009681	0.573673
C40	C	1.065620	-1.083310	0.568865
C41	C	0.975405	-1.079688	0.716315
C42	C	0.972419	-1.006063	0.721129
C43	C	1.016027	-0.971063	0.649803
N44	N	1.051901	-0.864552	0.591059
N45	N	1.012965	-0.895808	0.654725
C46	C	1.216279	-0.387946	0.634944
C47	C	1.294636	-0.391105	0.640104
C48	C	1.032455	-0.380458	0.935887
C49	C	1.032476	-0.380426	1.069291
C50	C	1.025116	-0.196665	0.634996
C51	C	1.022011	-0.118311	0.640179
C52	C	1.032391	-0.380561	0.311008
C53	C	1.032498	-0.380400	0.177627
H54	H	0.633785	-0.446255	0.730073
H55	H	0.767344	-0.451627	0.738814
H56	H	0.627177	-0.282474	0.462837
Br57	Br	0.459316	-0.503948	0.824204
Br58	Br	0.285778	-0.496980	0.812838
H59	H	0.298176	-0.309482	0.506936
H60	H	1.098137	-0.981190	0.515599
Br61	Br	0.779748	-0.264135	0.432908
H62	H	0.431736	-0.314854	0.515672
H63	H	1.130395	-0.785742	0.462673
H64	H	0.961305	-0.645605	0.738935
Br65	Br	0.943060	-0.798171	0.768915
Br66	Br	0.909175	-0.953651	0.824460
Br67	Br	1.128872	-1.135727	0.465543
H68	H	0.939901	-1.108192	0.774383
H69	H	1.124971	-0.652169	0.471408
