data_functionalizedCrystal
_audit_creation_method	'MofGen! by Chris Wilmer'
_symmetry_space_group_name_H-M	'P1'
_symmetry_Int_Tables_number	1
_symmetry_cell_setting	triclinic
loop_
_symmetry_equiv_pos_as_xyz
  x,y,z
_cell_length_a	18.215407
_cell_length_b	12.594516
_cell_length_c	12.594509
_cell_angle_alpha	89.973672
_cell_angle_beta	89.978547
_cell_angle_gamma	90.012264
loop_
_atom_site_label
_atom_site_type_symbol
_atom_site_fract_x
_atom_site_fract_y
_atom_site_fract_z
Zn1	Zn	1.125151	-0.423714	-0.601858
Zn2	Zn	1.125084	-0.601719	-0.423881
Zn3	Zn	1.002080	-0.423756	-0.423887
Zn4	Zn	1.002077	-0.601652	-0.601811
O5	O	1.063598	-0.512710	-0.512859
O6	O	1.228126	-0.447337	-0.578266
O7	O	1.108740	-0.578158	-0.274936
O8	O	1.018434	-0.274805	-0.447518
O9	O	1.228077	-0.578116	-0.447506
O10	O	1.108854	-0.274773	-0.578272
O11	O	1.018369	-0.447409	-0.274941
O12	O	0.899095	-0.447344	-0.447472
O13	O	1.018430	-0.578002	-0.750763
O14	O	0.899093	-0.578043	-0.578192
O15	O	1.108852	-0.447271	-0.750798
O16	O	1.108737	-0.750656	-0.447461
O17	O	1.018365	-0.750606	-0.578186
C18	C	0.872391	-0.512692	-0.512829
C19	C	0.790593	-0.512710	-0.512841
C20	C	0.602417	-0.580872	-0.580821
C21	C	0.525558	-0.580875	-0.580835
C22	C	0.525531	-0.444568	-0.444920
C23	C	0.602388	-0.444560	-0.444913
C24	C	0.640829	-0.512718	-0.512862
C25	C	0.487113	-0.512729	-0.512883
C26	C	0.403779	-0.512732	-0.512896
C27	C	0.724168	-0.512714	-0.512850
C28	C	1.063564	-0.789251	-0.512841
C29	C	1.063616	-0.907557	-0.512868
C30	C	1.112827	-0.976798	-0.441843
C31	C	1.130812	-1.047497	-0.538992
C32	C	1.045724	-1.047656	-0.415781
C33	C	1.081635	-0.976697	-0.610069
C34	C	0.996516	-0.976851	-0.486792
C35	C	1.014475	-1.047518	-0.584008
C36	C	1.255551	-0.512729	-0.512890
C37	C	1.337349	-0.512737	-0.512904
C38	C	1.063648	-0.512624	-0.790480
C39	C	1.063669	-0.512588	-0.908786
C40	C	1.063652	-0.235089	-0.512901
C41	C	1.063675	-0.116784	-0.512919
C42	C	1.014520	-0.583603	-1.048784
C43	C	0.996522	-0.486538	-0.977982
C44	C	1.081634	-0.609643	-0.978016
C45	C	1.045679	-0.415338	-1.048769
C46	C	1.130822	-0.538508	-1.048810
C47	C	1.112850	-0.441376	-0.978040
C48	C	1.063590	-0.512719	-0.236318
C49	C	1.063711	-0.512455	-0.118013
H50	H	0.494286	-0.636371	-0.636175
H51	H	1.030438	-0.333180	-1.079718
H52	H	1.154431	-0.381196	-0.947175
H53	H	1.096812	-0.691778	-0.946939
O54	O	1.198550	-0.564582	-1.086017
C55	C	1.226408	-0.480163	-1.147585
H56	H	1.198239	-0.403061	-1.123378
H57	H	1.215449	-0.496428	-1.235196
C58	C	1.344291	-0.564827	-1.158922
C59	C	1.309698	-0.470127	-1.129184
H60	H	1.395669	-0.558638	-1.147577
H61	H	1.325523	-0.621704	-1.117446
H62	H	1.335151	-0.578371	-1.231930
H63	H	1.318831	-0.456592	-1.056175
H64	H	1.328470	-0.413247	-1.170648
H65	H	0.939762	-0.945793	-0.464678
O66	O	0.488152	-0.378519	-0.378803
C67	C	0.443654	-0.439036	-0.309977
H68	H	0.466806	-0.522855	-0.303256
H69	H	0.385415	-0.442752	-0.342889
C70	C	0.414004	-0.283951	-0.207673
C71	C	0.442444	-0.386896	-0.199411
H72	H	0.413255	-0.251787	-0.139472
H73	H	0.443982	-0.243178	-0.254044
H74	H	0.365475	-0.287061	-0.235104
H75	H	0.490976	-0.383783	-0.171994
H76	H	0.412475	-0.427667	-0.153032
H77	H	1.187582	-1.078531	-0.561077
O78	O	0.964981	-0.655342	-1.085906
C79	C	1.001537	-0.732393	-1.147523
H80	H	1.061809	-0.735702	-1.123408
H81	H	0.997230	-0.710455	-1.235129
C82	C	0.891843	-0.837659	-1.158679
C83	C	0.965869	-0.841730	-1.129055
H84	H	0.869840	-0.905103	-1.147292
H85	H	0.867213	-0.785747	-1.117170
H86	H	0.888264	-0.819373	-1.231683
H87	H	0.969447	-0.860002	-1.056049
H88	H	0.990499	-0.893648	-1.170551
H89	H	0.633713	-0.636368	-0.636152
O90	O	1.099925	-0.939630	-0.708008
C91	C	1.164008	-0.877270	-0.700591
H92	H	1.196024	-0.900824	-0.626480
H93	H	1.148255	-0.789824	-0.695434
C94	C	1.172716	-0.866529	-0.890592
C95	C	1.212043	-0.895465	-0.799572
H96	H	1.202346	-0.877748	-0.951649
H97	H	1.129541	-0.908539	-0.895589
H98	H	1.159591	-0.793659	-0.886280
H99	H	1.225159	-0.968337	-0.803879
H100	H	1.255222	-0.853468	-0.794577
O101	O	1.027721	-1.084713	-0.317727
C102	C	1.079731	-1.048701	-0.243083
H103	H	1.107731	-0.974125	-0.274639
H104	H	1.122615	-1.113149	-0.229237
C105	C	1.006403	-1.114640	-0.098867
C106	C	1.040788	-1.023039	-0.137621
H107	H	0.982383	-1.098815	-0.033811
H108	H	0.971364	-1.138906	-0.149155
H109	H	1.042146	-1.168338	-0.087337
H110	H	1.005045	-0.969348	-0.149162
H111	H	1.075821	-0.998764	-0.087332
H112	H	1.154449	-0.945745	-0.381833
O113	O	0.964941	-1.084288	-0.655911
C114	C	0.984099	-1.047909	-0.758123
H115	H	1.045150	-1.028092	-0.760224
H116	H	0.950897	-0.973756	-0.777828
C117	C	0.892421	-1.159451	-0.837736
C118	C	0.967407	-1.135119	-0.840320
H119	H	0.882122	-1.213243	-0.888441
H120	H	0.879511	-1.183958	-0.768874
H121	H	0.864762	-1.097650	-0.854154
H122	H	0.995064	-1.196917	-0.823889
H123	H	0.980321	-1.110625	-0.909181
H124	H	0.633664	-0.389054	-0.389573
H125	H	0.939750	-0.464552	-0.946870
