data_functionalizedCrystal
_audit_creation_method	'MofGen! by Chris Wilmer'
_symmetry_space_group_name_H-M	'P1'
_symmetry_Int_Tables_number	1
_symmetry_cell_setting	triclinic
loop_
_symmetry_equiv_pos_as_xyz
  x,y,z
_cell_length_a	21.395364
_cell_length_b	25.639240
_cell_length_c	25.639234
_cell_angle_alpha	90.032088
_cell_angle_beta	90.020766
_cell_angle_gamma	90.031090
loop_
_atom_site_label
_atom_site_type_symbol
_atom_site_fract_x
_atom_site_fract_y
_atom_site_fract_z
Zn1	Zn	0.957826	-0.208206	0.295596
Zn2	Zn	1.457826	0.291794	0.795596
Zn3	Zn	0.957732	-0.295634	0.208150
Zn4	Zn	1.457732	0.204366	0.708150
Zn5	Zn	0.853048	-0.208212	0.208174
Zn6	Zn	1.353048	0.291788	0.708174
Zn7	Zn	0.853006	-0.295610	0.295553
Zn8	Zn	1.353006	0.204390	0.795553
O9	O	0.905403	-0.251915	0.251868
O10	O	1.405403	0.248085	0.751868
O11	O	1.045491	-0.219811	0.284005
O12	O	1.545491	0.280189	0.784005
O13	O	0.943823	-0.284050	0.134988
O14	O	1.443823	0.215950	0.634988
O15	O	0.867004	-0.135046	0.219799
O16	O	1.367004	0.364954	0.719799
O17	O	1.045422	-0.284044	0.219758
O18	O	1.545422	0.215956	0.719758
O19	O	0.943983	-0.135041	0.284028
O20	O	1.443983	0.364959	0.784028
O21	O	0.866913	-0.219821	0.135005
O22	O	1.366913	0.280179	0.635005
O23	O	0.765364	-0.219798	0.219756
O24	O	1.265364	0.280202	0.719756
O25	O	0.866932	-0.284002	0.368724
O26	O	1.366932	0.215998	0.868724
O27	O	0.765334	-0.284008	0.283953
O28	O	1.265334	0.215992	0.783953
O29	O	0.943943	-0.219787	0.368756
O30	O	1.443943	0.280213	0.868756
O31	O	0.943783	-0.368796	0.219716
O32	O	1.443783	0.131204	0.719716
O33	O	0.866841	-0.368778	0.283930
O34	O	1.366841	0.131222	0.783930
C35	C	0.742615	-0.251901	0.251853
C36	C	1.242615	0.248099	0.751853
C37	C	0.672974	-0.251908	0.251859
C38	C	1.172974	0.248092	0.751859
C39	C	0.171178	-0.285411	0.285263
C40	C	0.671178	0.214589	0.785263
C41	C	0.236614	-0.285411	0.285258
C42	C	0.736614	0.214589	0.785258
C43	C	0.269336	-0.251927	0.251885
C44	C	0.769336	0.248073	0.751885
C45	C	0.236617	-0.218449	0.218505
C46	C	0.736617	0.281551	0.718505
C47	C	0.171183	-0.218454	0.218508
C48	C	0.671183	0.281546	0.718508
C49	C	0.373027	-0.204808	0.247843
C50	C	0.873027	0.295192	0.747843
C51	C	0.438460	-0.204803	0.247844
C52	C	0.938460	0.295197	0.747844
C53	C	0.471156	-0.251913	0.251873
C54	C	0.971156	0.248087	0.751873
C55	C	0.438412	-0.299030	0.255913
C56	C	0.938412	0.200970	0.755913
C57	C	0.372978	-0.299035	0.255915
C58	C	0.872978	0.200965	0.755915
C59	C	0.340288	-0.251918	0.251878
C60	C	0.840288	0.248082	0.751878
C61	C	0.574820	-0.285391	0.285242
C62	C	1.074820	0.214609	0.785242
C63	C	0.640256	-0.285392	0.285233
C64	C	1.140256	0.214608	0.785233
C65	C	0.640258	-0.218426	0.218483
C66	C	1.140258	0.281574	0.718483
C67	C	0.574823	-0.218429	0.218490
C68	C	1.074823	0.281571	0.718490
C69	C	0.542108	-0.251911	0.251872
C70	C	1.042108	0.248089	0.751872
C71	C	0.905314	-0.387758	0.251827
C72	C	1.405314	0.112242	0.751827
C73	C	0.905334	-0.445872	0.251827
C74	C	1.405334	0.054128	0.751827
C75	C	0.945506	-0.806194	0.285373
C76	C	1.445506	-0.306194	0.785373
C77	C	0.945525	-0.860799	0.285383
C78	C	1.445525	-0.360799	0.785383
O79	O	0.979575	-0.889001	0.313863
O80	O	1.479575	-0.389001	0.813863
N81	N	0.905490	-0.888154	0.251919
N82	N	1.405490	-0.388154	0.751919
C83	C	0.865429	-0.860903	0.218445
C84	C	1.365429	-0.360903	0.718445
O85	O	0.831378	-0.889185	0.189982
O86	O	1.331378	-0.389185	0.689982
C87	C	0.865408	-0.806300	0.218437
C88	C	1.365408	-0.306300	0.718437
C89	C	0.905450	-0.778947	0.251900
C90	C	1.405450	-0.278947	0.751900
C91	C	0.985544	-0.778841	0.318833
C92	C	1.485544	-0.278841	0.818833
C93	C	0.985526	-0.724241	0.318822
C94	C	1.485526	-0.224241	0.818822
C95	C	0.945470	-0.696993	0.285350
C96	C	1.445470	-0.196993	0.785350
C97	C	0.905432	-0.724346	0.251889
C98	C	1.405432	-0.224346	0.751889
C99	C	0.825345	-0.779050	0.184967
C100	C	1.325345	-0.279050	0.684967
C101	C	0.825327	-0.724443	0.184962
C102	C	1.325327	-0.224443	0.684962
C103	C	0.865369	-0.697089	0.218425
C104	C	1.365369	-0.197089	0.718425
C105	C	0.865358	-0.642498	0.218405
C106	C	1.365358	-0.142498	0.718405
N107	N	0.905393	-0.615142	0.251870
N108	N	1.405393	-0.115142	0.751870
C109	C	0.945449	-0.642390	0.285342
C110	C	1.445449	-0.142390	0.785342
C111	C	0.865476	-0.975574	0.218464
C112	C	1.365476	-0.475574	0.718464
C113	C	0.865500	-1.030176	0.218469
C114	C	1.365500	-0.530176	0.718469
C115	C	0.945594	-1.030068	0.285408
C116	C	1.445594	-0.530068	0.785408
C117	C	0.945573	-0.975464	0.285400
C118	C	1.445573	-0.475464	0.785400
C119	C	0.905511	-0.948218	0.251929
C120	C	1.405511	-0.448218	0.751929
C121	C	0.945409	-0.527725	0.285315
C122	C	1.445409	-0.027725	0.785315
C123	C	0.945390	-0.473119	0.285299
C124	C	1.445390	0.026881	0.785299
C125	C	0.865293	-0.473233	0.218362
C126	C	1.365293	0.026767	0.718362
C127	C	0.865315	-0.527833	0.218376
C128	C	1.365315	-0.027833	0.718376
C129	C	0.905375	-0.555078	0.251857
C130	C	1.405375	-0.055078	0.751857
O131	O	0.831323	-0.614262	0.189942
O132	O	1.331323	-0.114262	0.689942
O133	O	0.979489	-0.614101	0.313805
O134	O	1.479489	-0.114101	0.813805
C135	C	1.068826	-0.251930	0.251884
C136	C	1.568826	0.248070	0.751884
C137	C	1.138467	-0.251936	0.251890
C138	C	1.638467	0.248064	0.751890
C139	C	0.905443	-0.251892	0.388241
C140	C	1.405443	0.248108	0.888241
C141	C	0.905461	-0.251881	0.446355
C142	C	1.405461	0.248119	0.946355
C143	C	0.905509	-0.115542	0.251921
C144	C	1.405509	0.384458	0.751921
C145	C	0.905554	-0.057428	0.251943
C146	C	1.405554	0.442572	0.751943
C147	C	0.905398	-0.251901	0.116026
C148	C	1.405398	0.248099	0.616026
C149	C	0.905502	-0.251764	0.057912
C150	C	1.405502	0.248236	0.557912
C151	C	0.865431	-0.218375	0.806733
C152	C	1.365431	0.281625	1.306733
C153	C	0.865434	-0.218366	0.861337
C154	C	1.365434	0.281634	1.361337
O155	O	0.831368	-0.189935	0.889587
O156	O	1.331368	0.310065	1.389587
N157	N	0.905482	-0.251799	0.888638
N158	N	1.405482	0.248201	1.388638
C159	C	0.945524	-0.285248	0.861331
C160	C	1.445524	0.214752	1.361331
O161	O	0.979587	-0.313686	0.889567
O162	O	1.479587	0.186314	1.389567
C163	C	0.945517	-0.285260	0.806728
C164	C	1.445517	0.214740	1.306728
C165	C	0.905471	-0.251821	0.779430
C166	C	1.405471	0.248179	1.279430
C167	C	0.825388	-0.184939	0.779435
C168	C	1.325388	0.315061	1.279435
C169	C	0.825386	-0.184948	0.724835
C170	C	1.325386	0.315052	1.224835
C171	C	0.865426	-0.218393	0.697532
C172	C	1.365426	0.281607	1.197532
C173	C	0.905469	-0.251829	0.724830
C174	C	1.405469	0.248171	1.224830
C175	C	0.985555	-0.318711	0.779422
C176	C	1.485555	0.181289	1.279422
C177	C	0.985544	-0.318720	0.724815
C178	C	1.485544	0.181280	1.224815
C179	C	0.945499	-0.285281	0.697518
C180	C	1.445499	0.214719	1.197518
C181	C	0.945507	-0.285284	0.642926
C182	C	1.445507	0.214716	1.142926
N183	N	0.905459	-0.251850	0.615626
N184	N	1.405459	0.248150	1.115626
C185	C	0.865419	-0.218405	0.642929
C186	C	1.365419	0.281595	1.142929
C187	C	0.945535	-0.285222	0.976002
C188	C	1.445535	0.214778	1.476002
C189	C	0.945545	-0.285208	1.030604
C190	C	1.445545	0.214792	1.530604
C191	C	0.865455	-0.218326	1.030607
C192	C	1.365455	0.281674	1.530607
C193	C	0.865448	-0.218338	0.976003
C194	C	1.365448	0.281662	1.476003
C195	C	0.905487	-0.251788	0.948701
C196	C	1.405487	0.248212	1.448701
C197	C	0.865418	-0.218426	0.528263
C198	C	1.365418	0.281574	1.028263
C199	C	0.865421	-0.218436	0.473658
C200	C	1.365421	0.281564	0.973658
C201	C	0.945508	-0.285320	0.473660
C202	C	1.445508	0.214680	0.973660
C203	C	0.945508	-0.285308	0.528261
C204	C	1.445508	0.214692	1.028261
C205	C	0.905457	-0.251859	0.555561
C206	C	1.405457	0.248141	1.055561
O207	O	0.979554	-0.313701	0.614642
O208	O	1.479554	0.186299	1.114642
O209	O	0.831356	-0.189977	0.614687
O210	O	1.331356	0.310023	1.114687
H211	H	0.666900	-0.191164	0.191308
H212	H	1.166900	0.308836	0.691308
H213	H	0.977999	-0.450850	0.312549
H214	H	1.477999	0.049150	0.812549
H215	H	0.548182	-0.312655	0.312423
H216	H	1.048182	0.187345	0.812423
H217	H	0.666889	-0.312655	0.312408
H218	H	1.166889	0.187345	0.812408
H219	H	0.978161	-0.312432	1.052826
H220	H	1.478161	0.187568	1.552826
N221	N	0.473675	-0.349843	0.260254
N222	N	0.973675	0.150157	0.760254
H223	H	0.462256	-0.373201	0.229978
H224	H	0.962256	0.126799	0.729978
H225	H	0.462286	-0.367639	0.294076
H226	H	0.962286	0.132361	0.794076
N227	N	0.988693	-0.321374	0.557712
N228	N	1.488693	0.178626	1.057712
H229	H	1.017746	-0.300129	0.580388
H230	H	1.517746	0.199871	1.080388
H231	H	1.014018	-0.342557	0.532099
H232	H	1.514018	0.157443	1.032099
H233	H	0.832714	-0.550105	0.191124
H234	H	1.332714	-0.050105	0.691124
N235	N	0.135894	-0.321530	0.321260
N236	N	0.635894	0.178470	0.821260
H237	H	0.108723	-0.345731	0.299963
H238	H	0.608723	0.154269	0.799963
H239	H	0.108802	-0.300282	0.345524
H240	H	0.608802	0.199718	0.845524
H241	H	0.346411	-0.166443	0.244553
H242	H	0.846411	0.333557	0.744553
H243	H	0.263252	-0.312671	0.312436
H244	H	0.763252	0.187329	0.812436
H245	H	0.548190	-0.191168	0.191315
H246	H	1.048190	0.308832	0.691315
N247	N	0.473774	-0.153987	0.243490
N248	N	0.973774	0.346013	0.743490
H249	H	0.443134	-0.124144	0.240931
H250	H	0.943134	0.375856	0.740931
H251	H	0.500908	-0.154698	0.211273
H252	H	1.000908	0.345302	0.711273
H253	H	0.263263	-0.191187	0.191332
H254	H	0.763263	0.308813	0.691332
N255	N	0.822095	-0.443839	0.182258
N256	N	1.322095	0.056161	0.682258
H257	H	0.828162	-0.405098	0.187333
H258	H	1.328162	0.094902	0.687333
H259	H	0.777345	-0.453406	0.190364
H260	H	1.277345	0.046594	0.690364
N261	N	0.337659	-0.349849	0.260267
N262	N	0.837659	0.150151	0.760267
H263	H	0.368297	-0.379695	0.262818
H264	H	0.868297	0.120305	0.762818
H265	H	0.310494	-0.354659	0.228400
H266	H	0.810494	0.145341	0.728400
N267	N	0.135897	-0.182348	0.182511
N268	N	0.635897	0.317652	0.682511
H269	H	0.166553	-0.161136	0.161365
H270	H	0.666553	0.338864	0.661365
H271	H	0.108773	-0.158181	0.203840
H272	H	0.608773	0.341819	0.703840
H273	H	0.978026	-0.549901	0.312582
H274	H	1.478026	-0.049901	0.812582
H275	H	0.832805	-0.191188	0.550485
H276	H	1.332805	0.308812	1.050485
H277	H	1.018130	-0.701973	0.346072
H278	H	1.518130	-0.201973	0.846072
N279	N	1.028757	-0.808213	0.354943
N280	N	1.528757	-0.308213	0.854943
H281	H	1.057823	-0.830861	0.333727
H282	H	1.557823	-0.330861	0.833727
H283	H	1.003252	-0.830838	0.379157
H284	H	1.503252	-0.330838	0.879157
H285	H	0.978178	-0.953197	0.312649
H286	H	1.478178	-0.453197	0.812649
H287	H	0.792780	-0.157703	0.801659
H288	H	1.292780	0.342297	1.301659
N289	N	0.988695	-0.321390	0.444207
N290	N	1.488695	0.178610	0.944207
H291	H	0.982541	-0.316379	0.405475
H292	H	1.482541	0.183621	0.905475
H293	H	0.978978	-0.358724	0.453796
H294	H	1.478978	0.141276	0.953796
H295	H	1.018164	-0.345942	0.801639
H296	H	1.518164	0.154058	1.301639
N297	N	0.822319	-1.059672	0.182368
N298	N	1.322319	-0.559672	0.682368
H299	H	0.777544	-1.050191	0.190452
H300	H	1.277544	-0.550191	0.690452
H301	H	0.828457	-1.098389	0.187465
H302	H	1.328457	-0.598389	0.687465
H303	H	0.978209	-1.052262	0.312664
H304	H	1.478209	-0.552262	0.812664
H305	H	0.978147	-0.312458	0.953776
H306	H	1.478147	0.187542	1.453776
N307	N	0.822269	-0.946188	0.182356
N308	N	1.322269	-0.446188	0.682356
H309	H	0.796914	-0.971807	0.161159
H310	H	1.296914	-0.471807	0.661159
H311	H	0.847781	-0.923533	0.158176
H312	H	1.347781	-0.423533	0.658176
H313	H	1.018154	-0.345957	0.702589
H314	H	1.518154	0.154043	1.202589
N315	N	0.782158	-0.808543	0.148873
N316	N	1.282158	-0.308543	0.648873
H317	H	0.756781	-0.782988	0.127673
H318	H	1.256781	-0.282988	0.627673
H319	H	0.753154	-0.831202	0.170137
H320	H	1.253154	-0.331202	0.670137
N321	N	0.782114	-0.695055	0.148862
N322	N	1.282114	-0.195055	0.648862
H323	H	0.756754	-0.720673	0.127667
H324	H	1.256754	-0.220673	0.627667
H325	H	0.807624	-0.672401	0.124679
H326	H	1.307624	-0.172401	0.624679
N327	N	0.822260	-0.182269	0.946563
N328	N	1.322260	0.317731	1.446563
H329	H	0.796900	-0.161080	0.972150
H330	H	1.296900	0.338920	1.472150
H331	H	0.793240	-0.203550	0.923894
H332	H	1.293240	0.296450	1.423894
N333	N	0.822234	-0.182363	0.444216
N334	N	1.322234	0.317637	0.944216
H335	H	0.796870	-0.161175	0.469801
H336	H	1.296870	0.338825	0.969801
H337	H	0.793218	-0.203641	0.421542
H338	H	1.293218	0.296359	0.921542
N339	N	0.782200	-0.148876	0.695396
N340	N	1.282200	0.351124	1.195396
H341	H	0.756840	-0.127689	0.720985
H342	H	1.256840	0.372311	1.220985
H343	H	0.753181	-0.170153	0.672724
H344	H	1.253181	0.329847	1.172724
N345	N	0.822265	-0.182253	1.060060
N346	N	1.322265	0.317747	1.560060
H347	H	0.828347	-0.187324	1.098792
H348	H	1.328347	0.312676	1.598792
H349	H	0.777510	-0.190390	1.050503
H350	H	1.277510	0.309610	1.550503
