data_functionalizedCrystal
_audit_creation_method	'MofGen! by Chris Wilmer'
_symmetry_space_group_name_H-M	'P1'
_symmetry_Int_Tables_number	1
_symmetry_cell_setting	triclinic
loop_
_symmetry_equiv_pos_as_xyz
  x,y,z
_cell_length_a	14.853577
_cell_length_b	14.853567
_cell_length_c	13.330367
_cell_angle_alpha	90.000844
_cell_angle_beta	89.992649
_cell_angle_gamma	96.363046
loop_
_atom_site_label
_atom_site_type_symbol
_atom_site_fract_x
_atom_site_fract_y
_atom_site_fract_z
O1	O	1.196363	-0.117746	-0.083410
O2	O	0.933905	-0.131758	-0.083412
O3	O	1.072145	0.006477	-0.083414
O4	O	1.058123	-0.255982	-0.083408
O5	O	1.072125	0.006480	0.083433
O6	O	0.933885	-0.131755	0.083435
O7	O	1.196343	-0.117743	0.083437
Cu8	Cu	1.065112	-0.124749	0.098670
Cu9	Cu	1.065136	-0.124752	-0.098646
O10	O	1.058103	-0.255979	0.083439
C11	C	0.900306	-0.131120	0.000011
C12	C	0.800223	-0.129213	0.000010
C13	C	1.071499	0.040068	0.000007
C14	C	1.069596	0.140151	-0.000002
C15	C	1.229942	-0.118381	0.000012
C16	C	1.330025	-0.120288	0.000006
N17	N	1.065102	-0.124746	0.237452
C18	C	1.753215	-0.128322	-0.090943
C19	C	1.753188	-0.128318	0.090961
C20	C	1.659154	-0.126535	0.090962
C21	C	1.612146	-0.125644	0.000009
C22	C	1.659172	-0.126536	-0.090945
C23	C	1.612121	-0.125633	0.181913
C24	C	1.518081	-0.123849	0.181918
C25	C	1.471070	-0.122965	0.090964
C26	C	1.518103	-0.123858	0.000007
C27	C	1.471095	-0.122966	-0.090945
C28	C	1.518124	-0.123866	-0.181904
C29	C	1.612162	-0.125651	-0.181898
C30	C	1.377033	-0.121180	0.090959
C31	C	1.377052	-0.121180	-0.090947
C32	C	1.058749	-0.289569	0.000016
C33	C	1.060653	-0.389653	0.000018
C34	C	0.979430	0.552688	0.000016
C35	C	1.143662	0.573964	0.000017
C36	C	1.145453	0.479930	0.000012
C37	C	1.064230	0.422271	0.000009
C38	C	0.981218	0.458646	0.000013
C39	C	1.228463	0.443548	0.000018
C40	C	1.230257	0.349509	0.000013
C41	C	1.149034	0.291848	0.000004
C42	C	1.066018	0.328228	0.000007
C43	C	0.984796	0.270569	0.000005
C44	C	0.901779	0.306947	0.000000
C45	C	0.899995	0.400985	0.000004
C46	C	1.150818	0.197810	-0.000000
C47	C	0.986583	0.176526	0.000002
N48	N	1.065153	-0.124748	-0.237427
C49	C	1.003921	-0.185939	0.710076
C50	C	1.126375	-0.063559	0.710042
C51	C	1.126365	-0.063556	0.605024
C52	C	1.065133	-0.124747	0.552526
C53	C	1.003910	-0.185940	0.605048
C54	C	1.187593	-0.002370	0.552495
C55	C	1.187586	-0.002365	0.447470
C56	C	1.126348	-0.063552	0.394971
C57	C	1.065123	-0.124747	0.447498
C58	C	1.003890	-0.185938	0.395001
C59	C	0.942659	-0.247130	0.447527
C60	C	0.942673	-0.247127	0.552549
C61	C	1.126335	-0.063555	0.289949
C62	C	1.003880	-0.185939	0.289973
H63	H	1.338784	-0.120460	-0.165013
O64	O	0.883270	-0.306694	0.396572
C65	C	0.830596	-0.463357	0.364482
C66	C	0.897914	-0.396002	0.422238
H67	H	0.842399	-0.535576	0.385227
H68	H	0.841114	-0.452923	0.280387
H69	H	0.758385	-0.451425	0.385126
H70	H	0.970151	-0.407893	0.401677
H71	H	0.887317	-0.406451	0.506318
O72	O	0.822965	0.250805	-0.000045
C73	C	0.752951	0.096497	0.000023
C74	C	0.842270	0.159978	0.000049
H75	H	0.768528	0.023051	0.000120
H76	H	0.712102	0.109662	-0.069821
H77	H	0.712093	0.109792	0.069829
H78	H	0.883201	0.146720	-0.069710
H79	H	0.883051	0.146800	0.069940
H80	H	0.832407	0.430613	0.000002
H81	H	1.237442	0.047460	0.404710
O82	O	1.307331	0.499595	-0.000153
C83	C	1.400604	0.618165	-0.086553
C84	C	1.311261	0.554721	-0.086496
H85	H	1.403803	0.662763	-0.156343
H86	H	1.460282	0.576063	-0.086611
H87	H	1.403842	0.662681	-0.016696
H88	H	1.307935	0.510192	-0.156341
H89	H	1.251626	0.596877	-0.086386
O90	O	1.798808	-0.129075	-0.179361
C91	C	1.837748	-0.051568	-0.334818
C92	C	1.786058	-0.050609	-0.234731
H93	H	1.827473	0.011874	-0.379603
H94	H	1.811076	-0.114217	-0.379731
H95	H	1.913024	-0.053046	-0.319178
H96	H	1.710774	-0.049098	-0.250279
H97	H	1.812804	0.012034	-0.189848
H98	H	1.479798	-0.123116	0.255982
H99	H	1.338745	-0.120456	0.165015
H100	H	0.911840	0.582312	0.000009
O101	O	1.310973	0.314324	-0.000034
C102	C	1.473682	0.345359	0.000025
C103	C	1.382335	0.385327	0.000059
H104	H	1.531403	0.402745	0.000122
H105	H	1.478695	0.301904	-0.069821
H106	H	1.478569	0.301828	0.069830
H107	H	1.377387	0.428899	-0.069698
H108	H	1.377362	0.428730	0.069951
H109	H	1.237451	0.047446	0.595241
O110	O	1.798965	-0.129063	0.179241
C111	C	1.915198	-0.053006	0.284834
C112	C	1.863436	-0.052059	0.184806
H113	H	1.967321	0.009255	0.289374
H114	H	1.951126	-0.116840	0.289392
H115	H	1.865411	-0.052107	0.349824
H116	H	1.913162	-0.052924	0.119758
H117	H	1.827493	0.011770	0.180335
O118	O	1.231528	0.162621	-0.000044
C119	C	1.394237	0.193653	0.000022
C120	C	1.302891	0.233622	0.000053
H121	H	1.451959	0.251037	0.000121
H122	H	1.399251	0.150198	-0.069825
H123	H	1.399121	0.150120	0.069826
H124	H	1.297946	0.277195	-0.069704
H125	H	1.297917	0.277025	0.069946
O126	O	1.222532	0.630008	-0.000155
C127	C	1.315805	0.748579	-0.086553
C128	C	1.226459	0.685140	-0.086493
H129	H	1.319001	0.793183	-0.156339
H130	H	1.375479	0.706473	-0.086622
H131	H	1.319052	0.793090	-0.016692
H132	H	1.223124	0.640617	-0.156342
H133	H	1.166826	0.727300	-0.086372
H134	H	0.954013	-0.235765	0.247236
H135	H	1.650403	-0.126351	0.255962
O136	O	0.944319	-0.245286	0.761049
C137	C	0.787631	-0.297847	0.793167
C138	C	0.855030	-0.230574	0.735394
H139	H	0.715426	-0.285988	0.772430
H140	H	0.798072	-0.287335	0.877259
H141	H	0.799506	-0.370073	0.772530
H142	H	0.843195	-0.158321	0.755947
H143	H	0.844573	-0.241164	0.651316
O144	O	1.185808	-0.003995	0.760929
C145	C	1.238381	0.152674	0.793117
C146	C	1.171042	0.085310	0.735399
H147	H	1.226454	0.224892	0.772514
H148	H	1.310623	0.140880	0.772437
H149	H	1.227878	0.142112	0.877194
H150	H	1.181463	0.095832	0.651309
H151	H	1.098825	0.097121	0.756162
H152	H	0.920441	0.129585	-0.000004
O153	O	0.883078	-0.306474	0.603530
C154	C	0.726395	-0.359039	0.635679
C155	C	0.793784	-0.291765	0.577892
H156	H	0.654187	-0.347183	0.614956
H157	H	0.736850	-0.348526	0.719769
H158	H	0.738270	-0.431265	0.615040
H159	H	0.781950	-0.219513	0.598447
H160	H	0.783313	-0.302358	0.493816
O161	O	1.185841	-0.004036	0.239082
C162	C	1.307348	0.117305	0.250137
C163	C	1.239989	0.049957	0.307868
H164	H	1.351157	0.160963	0.305725
H165	H	1.268418	0.162483	0.201010
H166	H	1.352379	0.078275	0.200925
H167	H	1.194941	0.088913	0.357134
H168	H	1.278975	0.004779	0.356932
H169	H	1.479839	-0.123135	-0.255957
H170	H	1.650462	-0.126382	-0.255951
