data_functionalizedCrystal
_audit_creation_method	'MofGen! by Chris Wilmer'
_symmetry_space_group_name_H-M	'P1'
_symmetry_Int_Tables_number	1
_symmetry_cell_setting	triclinic
loop_
_symmetry_equiv_pos_as_xyz
  x,y,z
_cell_length_a	19.288840
_cell_length_b	23.532407
_cell_length_c	18.366186
_cell_angle_alpha	89.986457
_cell_angle_beta	90.006306
_cell_angle_gamma	97.012658
loop_
_atom_site_label
_atom_site_type_symbol
_atom_site_fract_x
_atom_site_fract_y
_atom_site_fract_z
O1	O	0.921135	-0.070979	0.060681
O2	O	0.718842	-0.080578	0.060657
O3	O	0.826088	0.007141	0.060654
O4	O	0.813888	-0.158698	0.060684
O5	O	0.826091	0.007149	-0.060446
O6	O	0.718844	-0.080570	-0.060443
O7	O	0.921137	-0.070971	-0.060419
Zn8	Zn	0.819991	-0.075769	-0.079658
Zn9	Zn	0.819988	-0.075780	0.079896
O10	O	0.813891	-0.158690	-0.060416
C11	C	0.692967	-0.080267	0.000104
C12	C	0.615866	-0.079347	0.000094
C13	C	0.579662	-0.078910	0.066107
C14	C	0.507218	-0.078039	0.066116
C15	C	0.470982	-0.077594	0.000108
C16	C	0.507194	-0.078035	-0.065914
C17	C	0.579636	-0.078912	-0.065921
C18	C	0.361762	-0.042844	-0.050460
C19	C	0.289323	-0.041964	-0.050450
C20	C	0.247547	-0.074894	0.000126
C21	C	0.278221	-0.108695	0.050705
C22	C	0.350663	-0.109572	0.050698
C23	C	0.392431	-0.076644	0.000108
C24	C	0.132791	-0.073513	0.066153
C25	C	0.060344	-0.072646	0.066159
C26	C	0.060323	-0.072636	-0.065872
C27	C	0.132766	-0.073509	-0.065877
C28	C	0.168997	-0.073944	0.000138
C29	C	0.825779	0.028362	0.000101
C30	C	0.824845	0.091581	0.000094
C31	C	0.882453	0.490568	0.000129
C32	C	0.881585	0.549970	0.000132
O33	O	0.934988	0.586608	0.000164
N34	N	0.817827	0.572724	0.000123
C35	C	0.754932	0.536072	0.000118
O36	O	0.700622	0.560880	0.000112
C37	C	0.755801	0.476671	0.000120
C38	C	0.819563	0.453921	0.000121
C39	C	0.946209	0.467818	0.000131
C40	C	0.947077	0.408420	0.000126
C41	C	0.884187	0.371773	0.000119
C42	C	0.820430	0.394523	0.000116
C43	C	0.692907	0.440021	0.000120
C44	C	0.693781	0.380616	0.000122
C45	C	0.757543	0.357866	0.000124
C46	C	0.758408	0.298478	0.000104
N47	N	0.822166	0.275725	0.000113
C48	C	0.885056	0.312372	0.000120
C49	C	0.753113	0.660818	0.000116
C50	C	0.752244	0.720218	0.000110
C51	C	0.878897	0.734112	0.000125
C52	C	0.879765	0.674711	0.000126
C53	C	0.816871	0.638065	0.000125
C54	C	0.886873	0.187631	0.000109
C55	C	0.887734	0.128228	0.000101
C56	C	0.761082	0.114339	0.000090
C57	C	0.760220	0.173737	0.000094
C58	C	0.823121	0.210383	0.000106
O59	O	0.705034	0.261806	0.000075
O60	O	0.939358	0.287555	0.000136
C61	C	0.947012	-0.071282	0.000136
C62	C	1.024113	-0.072202	0.000151
C63	C	0.814200	0.820089	0.000131
C64	C	0.815134	0.756870	0.000121
N65	N	0.819986	-0.075784	0.188787
N66	N	0.819999	-0.075761	-0.188549
C67	C	0.867559	-0.037017	0.226886
C68	C	0.867565	-0.037016	0.303114
C69	C	0.819986	-0.075776	0.341240
C70	C	0.772410	-0.114549	0.303131
C71	C	0.772410	-0.114553	0.226905
C72	C	0.756675	-0.083279	0.462000
C73	C	0.756674	-0.083271	0.538225
C74	C	0.819987	-0.075767	0.576347
C75	C	0.883303	-0.068259	0.538235
C76	C	0.883303	-0.068263	0.462009
C77	C	0.819981	-0.075776	0.423894
C78	C	0.867570	-0.036997	0.697101
C79	C	0.867577	-0.037000	0.773331
C80	C	0.772416	-0.114531	0.773347
C81	C	0.772415	-0.114531	0.697119
C82	C	0.819991	-0.075761	0.659001
H83	H	0.477735	-0.077684	0.119873
O84	O	0.951588	-0.060172	0.420900
H85	H	0.955680	-0.098220	0.386184
O86	O	0.618691	-0.079382	-0.137123
H87	H	0.645223	-0.118592	-0.140272
O88	O	0.691446	0.198273	0.000084
H89	H	0.688017	0.225013	-0.049274
O90	O	1.015848	0.383884	0.000135
H91	H	1.019268	0.357142	0.049492
O92	O	0.951600	-0.060166	0.579336
H93	H	0.955709	-0.098214	0.614070
O94	O	0.721094	-0.156368	0.185811
H95	H	0.729090	-0.149861	0.126402
H96	H	0.997425	0.497651	0.000140
O97	O	0.693255	0.074804	0.000084
H98	H	0.662721	0.082875	-0.049278
H99	H	0.244208	-0.135512	0.091887
H100	H	0.906306	-0.005447	0.334140
H101	H	0.733679	-0.146092	0.804388
O102	O	0.918890	0.004808	0.655979
H103	H	0.951982	0.031758	0.695282
O104	O	0.918886	0.004818	0.814428
H105	H	0.972954	-0.002397	0.799802
O106	O	0.618740	-0.079388	0.137305
H107	H	0.581388	-0.078943	0.183210
O108	O	0.685273	0.621293	0.000104
H109	H	0.682643	0.593905	-0.049253
O110	O	0.918885	0.004784	0.185771
H111	H	0.951974	0.031736	0.225075
H112	H	0.162290	-0.073874	0.119907
O113	O	0.383750	-0.146034	0.105238
H114	H	0.342535	-0.168790	0.140406
O115	O	0.721084	-0.156344	0.344256
H116	H	0.750052	-0.184007	0.379011
H117	H	0.395771	-0.016028	-0.091649
O118	O	0.721120	-0.156356	0.656018
H119	H	0.688040	-0.183313	0.695333
H120	H	0.705115	-0.089392	0.430968
H121	H	0.705118	-0.089377	0.569250
O122	O	0.171812	-0.073981	-0.137083
H123	H	0.211289	-0.035576	-0.140259
O124	O	0.021294	-0.072154	0.137362
H125	H	0.058663	-0.072591	0.183262
H126	H	0.030819	-0.072277	-0.119618
H127	H	0.264354	-0.014438	-0.091631
H128	H	0.700323	0.738735	0.000096
H129	H	0.642564	0.350781	0.000122
O130	O	0.946731	0.773645	0.000132
H131	H	0.977266	0.765566	0.049490
O132	O	0.467957	-0.077763	-0.137034
H133	H	0.441293	-0.038627	-0.140311
O134	O	0.956509	0.103689	0.000114
H135	H	1.000092	0.139155	0.000131
O136	O	0.954715	0.227151	0.000109
H137	H	0.985254	0.219066	0.049463
O138	O	0.948536	0.650174	0.000142
H139	H	0.992117	0.685642	0.000152
H140	H	0.640985	0.458533	0.000123
