data_functionalizedCrystal
_audit_creation_method	'MofGen! by Chris Wilmer'
_symmetry_space_group_name_H-M	'P1'
_symmetry_Int_Tables_number	1
_symmetry_cell_setting	triclinic
loop_
_symmetry_equiv_pos_as_xyz
  x,y,z
_cell_length_a	10.654550
_cell_length_b	11.026607
_cell_length_c	10.065918
_cell_angle_alpha	82.346549
_cell_angle_beta	80.212982
_cell_angle_gamma	96.535460
loop_
_atom_site_label
_atom_site_type_symbol
_atom_site_fract_x
_atom_site_fract_y
_atom_site_fract_z
O1	O	-1.725027	-0.186787	0.113607
O2	O	-1.363076	-0.203054	0.113584
O3	O	-1.514052	-0.018014	0.113589
O4	O	-1.574050	-0.371827	0.113602
O5	O	-1.473839	0.014001	-0.113403
O6	O	-1.322863	-0.171039	-0.113407
O7	O	-1.684814	-0.154773	-0.113385
Zn8	Zn	-1.497454	-0.157823	-0.149436
Zn9	Zn	-1.550436	-0.200004	0.149635
O10	O	-1.533837	-0.339812	-0.113389
C11	C	-1.295912	-0.185852	0.000086
C12	C	-1.155691	-0.182276	0.000077
C13	C	-1.482878	0.043297	0.000094
C14	C	-1.449884	0.178288	0.000097
C15	C	-1.751979	-0.171975	0.000116
C16	C	-1.892201	-0.175552	0.000134
C17	C	-1.099859	-0.291228	0.000101
C18	C	-0.968112	-0.287866	0.000125
C19	C	-0.948040	-0.066591	0.000106
C20	C	-1.079784	-0.069953	0.000073
C21	C	-1.175767	-0.403552	0.000106
C22	C	-1.119936	-0.512513	0.000132
C23	C	-0.988189	-0.509151	0.000155
C24	C	-0.912272	-0.396827	0.000153
C25	C	-1.565012	-0.401124	0.000108
C26	C	-1.598008	-0.536117	0.000115
N27	N	-1.461304	-0.129035	-0.353544
C28	C	-1.540989	0.251326	0.000104
C29	C	-1.506890	0.390847	0.000107
C30	C	-1.537850	-0.189988	-0.421317
C31	C	-1.510036	-0.167820	-0.578487
N32	N	-1.586594	-0.228782	0.353744
H33	H	-1.283044	-0.406303	0.000093
C34	C	-1.367410	0.445894	0.000100
H35	H	-1.362787	0.532447	0.000094
H36	H	-1.340718	0.408436	0.079251
H37	H	-1.312676	0.430776	-0.079073
H38	H	-1.701276	0.423115	0.000223
C39	C	-1.680461	0.196275	0.000108
H40	H	-1.685081	0.109724	0.000095
H41	H	-1.735201	0.211397	0.079265
H42	H	-1.707142	0.233732	-0.079059
H43	H	-1.346643	0.219048	0.000099
C44	C	-0.864540	0.056950	0.000123
H45	H	-0.778085	0.043345	0.000161
H46	H	-0.867958	0.113027	-0.079038
H47	H	-0.896058	0.090684	0.079286
H48	H	-1.423908	-0.099218	-0.636816
H49	H	-1.672727	-0.297379	-0.587930
C50	C	-1.654198	-0.282658	-0.342527
H51	H	-1.657623	-0.285406	-0.247227
H52	H	-1.730994	-0.257348	-0.365854
H53	H	-1.645740	-0.362405	-0.365879
H54	H	-1.375181	-0.060437	-0.411878
C55	C	-1.203436	-0.636058	0.000132
H56	H	-1.289898	-0.622461	0.000128
H57	H	-1.171931	-0.669807	-0.079015
H58	H	-1.200008	-0.692124	0.079309
H59	H	-0.804992	-0.394095	0.000151
C60	C	-0.926770	-0.628996	0.000179
H61	H	-0.837434	-0.610909	0.000184
H62	H	-0.966526	-0.686165	0.079336
H63	H	-0.938442	-0.663842	-0.078988
C64	C	-1.141207	0.049889	0.000065
H65	H	-1.077137	0.117262	0.000091
H66	H	-1.178145	0.064344	-0.079101
H67	H	-1.206225	0.042000	0.079223
