data_functionalizedCrystal
_audit_creation_method	'MofGen! by Chris Wilmer'
_symmetry_space_group_name_H-M	'P1'
_symmetry_Int_Tables_number	1
_symmetry_cell_setting	triclinic
loop_
_symmetry_equiv_pos_as_xyz
  x,y,z
_cell_length_a	23.096457
_cell_length_b	18.878441
_cell_length_c	18.878441
_cell_angle_alpha	89.998124
_cell_angle_beta	60.001121
_cell_angle_gamma	119.998830
loop_
_atom_site_label
_atom_site_type_symbol
_atom_site_fract_x
_atom_site_fract_y
_atom_site_fract_z
Zr1	Zr	0.633734	0.092920	0.682406
O2	O	0.754523	0.206022	0.569301
O3	O	0.512948	0.058252	0.717077
O4	O	0.633738	0.206027	0.717075
O5	O	0.633730	-0.058324	0.569307
O6	O	0.633738	0.206025	0.833645
O7	O	0.633733	0.058247	0.569303
O8	O	0.417667	-0.058316	0.833648
O9	O	0.849801	0.206017	0.569304
O10	O	0.562629	0.043461	0.818861
O11	O	0.562626	-0.043535	0.731870
O12	O	0.704841	0.130451	0.731867
O13	O	0.704838	0.043455	0.644876
Zr14	Zr	0.633730	-0.093001	0.868329
Zr15	Zr	0.633735	0.092918	0.868322
Zr16	Zr	0.633729	-0.092999	0.682414
Zr17	Zr	0.785692	0.092912	0.682411
Zr18	Zr	0.481772	-0.092993	0.868324
O19	O	0.754516	-0.058333	0.833658
O20	O	0.754524	0.206019	0.833648
O21	O	0.754515	-0.058331	0.569311
O22	O	0.512941	-0.206103	0.981434
O23	O	0.512949	0.058250	0.981424
O24	O	0.512940	-0.206100	0.717087
O25	O	0.633735	0.058243	0.981428
O26	O	0.633726	-0.206108	0.833660
O27	O	0.633726	-0.206107	0.717091
O28	O	0.633731	-0.058329	0.981432
O29	O	0.849802	0.206016	0.717082
O30	O	0.417662	-0.206097	0.833654
O31	O	0.417663	-0.206098	0.981431
O32	O	0.417667	-0.058317	0.981426
O33	O	0.849797	0.058236	0.569310
O34	O	0.849797	0.058235	0.717087
O35	O	0.562624	-0.130532	0.818868
O36	O	0.562626	-0.043536	0.905859
O37	O	0.704838	0.043453	0.818865
O38	O	0.704835	-0.043542	0.731874
C39	C	0.443657	-0.000031	0.775362
C40	C	0.379147	-0.000027	0.775360
C41	C	0.633739	0.232516	0.775359
C42	C	0.633741	0.311443	0.775356
C43	C	0.633725	-0.232597	0.775376
C44	C	0.633723	-0.311524	0.775379
C45	C	0.348847	0.045386	0.820762
C46	C	0.288225	0.045379	0.820771
C47	C	0.257916	-0.000030	0.775360
C48	C	0.288220	-0.045454	0.729955
C49	C	0.348835	-0.045453	0.729955
N50	N	0.195520	0.006268	0.701459
N51	N	0.137939	0.006271	0.701460
C52	C	0.075284	-0.000038	0.775359
N53	N	0.072392	-0.006334	0.849254
N54	N	0.129981	-0.006333	0.849251
C55	C	0.192188	-0.000037	0.775355
C56	C	-0.020750	0.045371	0.820775
C57	C	-0.081377	0.045357	0.820786
C58	C	-0.081375	-0.045470	0.729962
C59	C	-0.020755	-0.045463	0.729959
C60	C	0.009557	-0.000038	0.775364
C61	C	0.823808	-0.000050	0.775373
C62	C	0.888317	-0.000054	0.775375
C63	C	0.633731	-0.000038	0.542816
C64	C	0.633731	-0.000037	0.463890
C65	C	0.707974	0.393931	0.729946
C66	C	0.707971	0.468089	0.729954
C67	C	0.633735	0.459756	0.775368
C68	C	0.559497	0.377260	0.820783
C69	C	0.559500	0.303104	0.820779
C70	C	0.559494	0.531827	0.820786
C71	C	0.559491	0.605988	0.820789
C72	C	0.707965	0.696812	0.729961
C73	C	0.707969	0.622656	0.729958
C74	C	0.633730	0.540164	0.775372
C75	C	0.633735	0.064185	0.426808
C76	C	0.633731	0.064182	0.352651
C77	C	0.633728	-0.000042	0.315575
C78	C	0.633721	-0.064271	0.352664
C79	C	0.633720	-0.064270	0.426823
C80	C	0.633726	-0.064266	0.198092
C81	C	0.633729	-0.064266	0.123927
C82	C	0.633737	0.064185	0.123921
C83	C	0.633735	0.064186	0.198080
C84	C	0.633730	-0.000042	0.235163
C85	C	0.633733	-0.000043	1.007919
C86	C	0.633733	-0.000044	1.086845
C87	C	0.443657	-0.000033	1.007913
C88	C	0.379148	-0.000031	1.086837
C89	C	0.443650	-0.232587	0.775371
C90	C	0.379138	-0.311511	0.775372
C91	C	0.443651	-0.232589	1.007922
C92	C	0.379139	-0.311514	1.086849
C93	C	0.823813	0.232508	0.542813
C94	C	0.888325	0.311433	0.463886
C95	C	0.823807	-0.000048	0.542822
C96	C	0.888316	-0.000051	0.463898
C97	C	0.823814	0.232506	0.775365
C98	C	0.888326	0.311430	0.775364
C99	C	0.348855	0.045390	1.078488
C100	C	0.288249	0.045410	1.152639
C101	C	0.257934	0.000003	1.235137
C102	C	0.288234	-0.045419	1.243483
C103	C	0.348842	-0.045433	1.169334
C104	C	0.348841	-0.393994	0.820784
C105	C	0.288233	-0.468159	0.820782
C106	C	0.257919	-0.459838	0.775371
C107	C	0.288222	-0.377347	0.729953
C108	C	0.348833	-0.303184	0.729951
C109	C	0.348845	-0.303167	1.169330
C110	C	0.288237	-0.377319	1.243497
C111	C	0.257921	-0.459816	1.235181
C112	C	0.288221	-0.468161	1.152692
C113	C	0.348831	-0.394010	1.078526
C114	C	0.918627	0.303086	0.381405
C115	C	0.979253	0.377237	0.307238
C116	C	1.009572	0.459735	0.315554
C117	C	0.979269	0.468080	0.398044
C118	C	0.918648	0.393929	0.472209
C119	C	0.918616	-0.045463	0.472247
C120	C	0.979238	-0.045463	0.398097
C121	C	1.009555	-0.000054	0.315599
C122	C	0.979253	0.045365	0.307252
C123	C	0.918636	0.045369	0.381401
C124	C	0.918621	0.303082	0.820783
C125	C	0.979229	0.377232	0.820799
C126	C	1.009546	0.459730	0.775390
C127	C	0.979245	0.468076	0.729970
C128	C	0.918634	0.393927	0.729959
H129	H	0.263550	0.082362	0.857745
H130	H	0.373523	0.082372	0.857736
C131	C	0.254904	-0.558892	0.870751
C132	C	0.288242	-0.568036	0.920712
C133	C	0.254914	-0.658766	0.970681
C134	C	0.188248	-0.740352	0.970690
C135	C	0.154906	-0.731211	0.920727
C136	C	0.188234	-0.640481	0.870758
H137	H	0.337595	-0.507638	0.920707
H138	H	0.279596	-0.665532	1.007666
H139	H	0.163577	-0.807516	1.007680
H140	H	0.105553	-0.791609	0.920732
H141	H	0.163552	-0.633715	0.833772
C142	C	0.254909	-0.368127	1.334229
C143	C	0.263253	-0.406595	1.397707
C144	C	0.229925	-0.397402	1.488436
C145	C	0.188254	-0.349741	1.515687
C146	C	0.179909	-0.311270	1.452208
C147	C	0.213236	-0.320463	1.361479
H148	H	0.294102	-0.441879	1.377535
H149	H	0.236103	-0.425881	1.535427
H150	H	0.163583	-0.342936	1.582850
H151	H	0.149060	-0.275986	1.472380
H152	H	0.207058	-0.291984	1.314488
C153	C	0.885322	0.403118	0.679983
C154	C	0.918681	0.493867	0.630032
C155	C	0.885373	0.503066	0.580053
C156	C	0.818707	0.421516	0.580025
C157	C	0.785345	0.330761	0.629979
C158	C	0.818653	0.321562	0.679958
H159	H	0.968035	0.554241	0.630051
H160	H	0.910071	0.570250	0.543074
H161	H	0.794051	0.428326	0.543028
H162	H	0.735992	0.270387	0.629960
H163	H	0.793955	0.254378	0.716936
C164	C	0.191244	-0.541378	1.316769
C165	C	0.107912	-0.557166	1.382526
C166	C	0.041232	-0.638724	1.464117
C167	C	0.057885	-0.704494	1.479951
C168	C	0.141221	-0.688707	1.414192
C169	C	0.207900	-0.607149	1.332602
H170	H	0.095581	-0.508478	1.370806
H171	H	-0.020459	-0.650410	1.512795
H172	H	0.008525	-0.764868	1.540349
H173	H	0.153551	-0.737395	1.425912
H174	H	0.269591	-0.595463	1.283923
H175	H	0.373516	-0.400785	0.857763
H176	H	1.003916	0.370426	0.240078
H177	H	0.263528	-0.535340	1.145933
C178	C	0.885280	-0.095412	0.562989
C179	C	0.918628	-0.145352	0.572153
C180	C	0.885301	-0.195299	0.662892
C181	C	0.818627	-0.195306	0.744467
C182	C	0.785275	-0.145364	0.735305
C183	C	0.818602	-0.095417	0.644566
H184	H	0.967988	-0.145349	0.511765
H185	H	0.909991	-0.232269	0.669674
H186	H	0.793957	-0.232279	0.811637
H187	H	0.735916	-0.145367	0.795693
H188	H	0.793913	-0.058447	0.637784
H189	H	0.263587	0.082398	1.145825
H190	H	1.058934	0.520105	0.255156
H191	H	0.768425	0.400726	0.692959
C192	C	0.382149	-0.212453	0.680001
C193	C	0.348795	-0.203312	0.630059
C194	C	0.382108	-0.112583	0.580105
C195	C	0.448776	-0.030995	0.580093
C196	C	0.482133	-0.040134	0.630037
C197	C	0.448820	-0.130863	0.679991
H198	H	0.299440	-0.263711	0.630066
H199	H	0.357414	-0.105818	0.543133
H200	H	0.473436	0.036168	0.543115
H201	H	0.531488	0.020265	0.630030
H202	H	0.473514	-0.137627	0.716963
C203	C	0.254877	-0.095370	1.334235
C204	C	0.288187	-0.145341	1.343435
C205	C	0.254824	-0.195297	1.434189
C206	C	0.188151	-0.195282	1.515743
C207	C	0.154837	-0.145309	1.506545
C208	C	0.188200	-0.095353	1.415792
H209	H	0.337546	-0.145354	1.283062
H210	H	0.279485	-0.232290	1.440997
H211	H	0.163453	-0.232262	1.582924
H212	H	0.105478	-0.145296	1.566919
H213	H	0.163538	-0.058359	1.408984
H214	H	0.208583	0.000021	1.295507
H215	H	0.373489	-0.400819	1.011369
H216	H	0.893944	0.235920	0.374618
C217	C	0.633739	0.134831	0.238867
C218	C	0.563027	0.144561	0.271928
C219	C	0.563028	0.215204	0.312718
C220	C	0.633743	0.276117	0.320447
C221	C	0.704461	0.266388	0.287385
C222	C	0.704459	0.195745	0.246595
H223	H	0.510675	0.099468	0.266208
H224	H	0.510678	0.222406	0.337193
H225	H	0.633744	0.328411	0.350642
H226	H	0.756813	0.311481	0.293105
H227	H	0.756810	0.188543	0.222120
H228	H	0.263538	-0.082427	0.692982
C229	C	0.477833	0.441084	0.870741
C230	C	0.416586	0.413808	0.969383
C231	C	0.334928	0.323065	1.019332
C232	C	0.314517	0.259598	0.970640
C233	C	0.375766	0.286873	0.871993
C234	C	0.457424	0.377615	0.822043
H235	H	0.431695	0.460791	1.005432
H236	H	0.289588	0.302875	1.092357
H237	H	0.254069	0.192425	1.007615
H238	H	0.360657	0.239890	0.835943
H239	H	0.502764	0.397805	0.749018
H240	H	0.208566	-0.520234	0.775380
H241	H	0.373505	-0.082434	0.692981
H242	H	0.633742	0.116486	0.456988
C243	C	0.789635	0.558821	0.680001
C244	C	0.850877	0.586067	0.703713
C245	C	0.932548	0.676799	0.653759
C246	C	0.952976	0.740284	0.580092
C247	C	0.891732	0.713038	0.556375
C248	C	0.810061	0.622307	0.606330
H249	H	0.835756	0.539071	0.758249
H250	H	0.977884	0.696967	0.671315
H251	H	1.013433	0.807448	0.543112
H252	H	0.906853	0.760035	0.501839
H253	H	0.764725	0.602139	0.588773
C254	C	0.477843	0.212363	0.870730
C255	C	0.396184	0.203193	0.920684
C256	C	0.314524	0.112451	0.970641
C257	C	0.314524	0.030880	0.970644
C258	C	0.396187	0.040048	0.920688
C259	C	0.477846	0.130790	0.870731
H260	H	0.396181	0.263579	0.920684
H261	H	0.254072	0.105665	1.007622
H262	H	0.254075	-0.036292	1.007625
H263	H	0.396190	-0.020338	0.920689
H264	H	0.538298	0.137576	0.833751
H265	H	0.373499	-0.082425	1.176144
H266	H	1.003963	0.535258	0.404804
H267	H	0.003928	0.082355	0.857749
C268	C	1.012553	-0.095436	0.407292
C269	C	1.054198	-0.071742	0.454980
C270	C	1.087510	-0.121716	0.464178
C271	C	1.079176	-0.195384	0.425690
C272	C	1.037529	-0.219082	0.378000
C273	C	1.004218	-0.169107	0.368801
H274	H	1.060369	-0.017205	0.483474
H275	H	1.118340	-0.104173	0.499482
H276	H	1.103835	-0.232378	0.432499
H277	H	1.031359	-0.273618	0.349505
H278	H	0.973388	-0.186650	0.333497
H279	H	-0.106051	0.082335	0.857763
H280	H	0.893947	0.235915	0.857760
H281	H	0.893977	0.400736	0.539367
H282	H	1.058913	-0.000064	0.255228
H283	H	0.768418	0.629446	0.692973
C284	C	0.885300	0.095314	0.372209
C285	C	0.918647	0.145251	0.281460
C286	C	0.885314	0.195198	0.272260
C287	C	0.818633	0.195208	0.353810
C288	C	0.785282	0.145269	0.444566
C289	C	0.818615	0.095322	0.453765
H290	H	0.968012	0.145246	0.221086
H291	H	0.910003	0.232166	0.205076
H292	H	0.793957	0.232182	0.347000
H293	H	0.735917	0.145275	0.504939
H294	H	0.793926	0.058354	0.520949
H295	H	1.003946	0.082336	0.240072
H296	H	1.058899	0.520100	0.775405
C297	C	0.633738	0.134834	0.083134
C298	C	0.563021	0.109243	0.075412
C299	C	0.563027	0.179891	0.034617
C300	C	0.633749	0.276131	0.001544
C301	C	0.704471	0.301726	0.009265
C302	C	0.704466	0.231078	0.050060
H303	H	0.510663	0.037997	0.099895
H304	H	0.510673	0.160943	0.028902
H305	H	0.633753	0.328429	-0.028654
H306	H	0.756829	0.372973	-0.015218
H307	H	0.756819	0.250026	0.055775
C308	C	1.012558	0.368038	0.870756
C309	C	0.979218	0.277290	0.920686
C310	C	1.012546	0.268093	0.970642
C311	C	1.079214	0.349644	0.970666
C312	C	1.112557	0.440399	0.920733
C313	C	1.079229	0.449596	0.870778
H314	H	0.929864	0.216915	0.920670
H315	H	0.987863	0.200910	1.007605
H316	H	1.103885	0.342836	1.007646
H317	H	1.161912	0.500774	0.920750
H318	H	1.103913	0.516779	0.833815
H319	H	-0.106052	-0.082443	0.692987
H320	H	0.003918	-0.082440	0.692984
H321	H	0.499041	0.599198	0.857768
H322	H	0.633726	-0.116564	0.093744
H323	H	0.768413	0.763982	0.692980
H324	H	0.499052	0.370481	0.857765
H325	H	0.633733	0.116476	0.322460
H326	H	0.633718	-0.116570	0.228285
H327	H	1.003938	0.535256	0.692999
H328	H	0.633714	-0.116566	0.322475
H329	H	0.263532	-0.370585	0.692981
H330	H	0.633715	-0.116567	0.457015
H331	H	0.373520	-0.236001	1.176118
H332	H	0.373536	0.082376	1.011321
