data_functionalizedCrystal
_audit_creation_method	'MofGen! by Chris Wilmer'
_symmetry_space_group_name_H-M	'P1'
_symmetry_Int_Tables_number	1
_symmetry_cell_setting	triclinic
loop_
_symmetry_equiv_pos_as_xyz
  x,y,z
_cell_length_a	23.196402
_cell_length_b	23.196402
_cell_length_c	23.196401
_cell_angle_alpha	90.011712
_cell_angle_beta	60.007472
_cell_angle_gamma	60.000700
loop_
_atom_site_label
_atom_site_type_symbol
_atom_site_fract_x
_atom_site_fract_y
_atom_site_fract_z
Zr1	Zr	0.631016	0.555361	-0.075664
O2	O	0.751283	0.463292	-0.167711
O3	O	0.510749	0.583583	-0.047448
O4	O	0.631018	0.583557	-0.167717
O5	O	0.631013	0.463340	0.047429
O6	O	0.631020	0.678427	-0.167720
O7	O	0.631014	0.463317	-0.047442
O8	O	0.415881	0.678473	0.047419
O9	O	0.846152	0.463294	-0.167709
O10	O	0.560218	0.666422	-0.035415
O11	O	0.560216	0.595639	0.035389
O12	O	0.701817	0.595609	-0.106212
O13	O	0.701815	0.524825	-0.035408
Zr14	Zr	0.631016	0.706704	0.075640
Zr15	Zr	0.631019	0.706667	-0.075669
Zr16	Zr	0.631014	0.555397	0.075645
Zr17	Zr	0.782321	0.555365	-0.075662
Zr18	Zr	0.479712	0.706699	0.075637
O19	O	0.751283	0.678482	0.047424
O20	O	0.751287	0.678430	-0.167718
O21	O	0.751280	0.463343	0.047431
O22	O	0.510749	0.798773	0.167686
O23	O	0.510753	0.798721	-0.047456
O24	O	0.510746	0.583634	0.167694
O25	O	0.631020	0.798724	-0.047454
O26	O	0.631014	0.678507	0.167692
O27	O	0.631013	0.583637	0.167696
O28	O	0.631018	0.798747	0.047418
O29	O	0.846154	0.583563	-0.167713
O30	O	0.415879	0.678501	0.167689
O31	O	0.415881	0.798770	0.167685
O32	O	0.415883	0.798741	0.047414
O33	O	0.846150	0.463323	-0.047439
O34	O	0.846152	0.583592	-0.047443
O35	O	0.560216	0.666456	0.106188
O36	O	0.560218	0.737239	0.035384
O37	O	0.701817	0.666426	-0.035413
O38	O	0.701815	0.595642	0.035391
C39	C	0.441757	0.631027	-0.000015
C40	C	0.377525	0.631025	-0.000016
C41	C	-0.033058	0.578768	-0.052276
C42	C	0.027300	0.578762	-0.052275
C43	C	0.005218	0.631038	-0.000012
C44	C	-0.077231	0.683314	0.052264
C45	C	-0.137586	0.683314	0.052266
C46	C	0.060798	0.694835	0.016273
C47	C	0.121154	0.694835	0.016266
C48	C	0.191370	0.631037	-0.000015
C49	C	0.201233	0.567236	-0.016305
C50	C	0.140878	0.567236	-0.016303
C51	C	0.070657	0.631043	-0.000009
C52	C	0.339255	0.578756	-0.052285
C53	C	0.399612	0.578749	-0.052280
C54	C	0.295078	0.683307	0.052257
C55	C	0.234724	0.683307	0.052254
C56	C	0.256818	0.631032	-0.000020
C57	C	0.631013	0.441771	-0.000006
C58	C	0.631012	0.377537	-0.000003
C59	C	0.557102	0.384326	0.036945
C60	C	0.557100	0.323972	0.036948
C61	C	0.631014	0.256829	-0.000011
C62	C	0.704935	0.250042	-0.036961
C63	C	0.704934	0.310397	-0.036957
C64	C	0.687643	0.132886	-0.061921
C65	C	0.687641	0.072535	-0.061927
C66	C	0.631021	0.070675	-0.000022
C67	C	0.574388	0.129181	0.061888
C68	C	0.574387	0.189535	0.061892
C69	C	0.631024	0.191381	-0.000019
C70	C	0.557104	0.012023	0.036933
C71	C	0.557105	-0.048334	0.036938
C72	C	0.704942	-0.122263	-0.036978
C73	C	0.704938	-0.061906	-0.036977
C74	C	0.631016	0.005235	-0.000023
C75	C	0.820275	0.631037	-0.000009
C76	C	0.884508	0.631039	-0.000008
C77	C	0.631019	0.630987	-0.189277
C78	C	0.631020	0.630972	-0.253511
C79	C	0.631019	0.820294	-0.000019
C80	C	0.631020	0.884527	-0.000021
C81	C	0.704931	0.594011	-0.320639
C82	C	0.704932	0.594029	-0.380995
C83	C	0.631018	0.630998	-0.374217
C84	C	0.557098	0.667966	-0.307077
C85	C	0.557099	0.667953	-0.246724
C86	C	0.574389	0.625746	-0.441535
C87	C	0.574391	0.625755	-0.501889
C88	C	0.631012	0.631042	-0.560365
C89	C	0.687644	0.636308	-0.558487
C90	C	0.687645	0.636295	-0.498134
C91	C	0.631009	0.631017	-0.439656
C92	C	0.704929	0.594100	-0.692940
C93	C	0.704927	0.594123	-0.753295
C94	C	0.557090	0.668055	-0.679375
C95	C	0.557095	0.668037	-0.619022
C96	C	0.631016	0.631055	-0.625810
C97	C	0.631013	0.631077	0.189252
C98	C	0.631012	0.631093	0.253487
C99	C	0.441760	0.820289	-0.000022
C100	C	0.377529	0.884520	-0.000025
C101	C	0.441754	0.631072	0.189249
C102	C	0.377521	0.631086	0.253483
C103	C	0.441757	0.820334	0.189243
C104	C	0.377525	0.884581	0.253474
C105	C	0.820275	0.441731	-0.189267
C106	C	0.884508	0.377483	-0.253498
C107	C	0.820272	0.441776	-0.000003
C108	C	0.884504	0.377544	0.000001
C109	C	0.820278	0.630992	-0.189274
C110	C	0.884512	0.630978	-0.253507
C111	C	0.347365	0.877718	-0.036989
C112	C	0.287021	0.938065	-0.037006
C113	C	0.256837	1.005213	-0.000055
C114	C	0.287007	1.012014	0.036911
C115	C	0.347354	0.951668	0.036923
C116	C	0.347356	0.668058	0.320610
C117	C	0.287010	0.668068	0.380970
C118	C	0.256826	0.631110	0.374202
C119	C	0.286997	0.594133	0.307067
C120	C	0.347346	0.594119	0.246708
C121	C	0.347361	0.951707	0.246679
C122	C	0.287016	1.012080	0.307025
C123	C	0.256832	1.005325	0.374166
C124	C	0.287001	0.938192	0.380960
C125	C	0.347349	0.877821	0.320614
C126	C	0.914678	0.310358	-0.246703
C127	C	0.975042	0.249985	-0.307050
C128	C	1.005230	0.256739	-0.374190
C129	C	0.975057	0.323872	-0.380984
C130	C	0.914699	0.384243	-0.320639
C131	C	0.914674	0.384346	0.036959
C132	C	0.975035	0.323999	0.036959
C133	C	1.005220	0.256851	0.000005
C134	C	0.975048	0.250050	-0.036957
C135	C	0.914692	0.310397	-0.036961
C136	C	0.914677	0.667944	-0.246716
C137	C	0.975023	0.667945	-0.307064
C138	C	1.005208	0.630976	-0.374204
C139	C	0.975037	0.594009	-0.380994
C140	C	0.914687	0.594013	-0.320646
H141	H	0.357246	0.536189	-0.094849
C142	C	0.475795	0.085877	0.077593
H143	H	0.431775	0.081275	0.099610
H144	H	0.472715	0.110958	0.045698
H145	H	0.472729	0.110958	0.112568
C146	C	0.253794	0.930768	0.454815
H147	H	0.280402	0.882144	0.450227
H148	H	0.196814	0.952788	0.479891
H149	H	0.263694	0.952784	0.479889
C150	C	0.253836	0.930572	-0.077661
H151	H	0.280447	0.881937	-0.099653
H152	H	0.263732	0.952560	-0.112645
H153	H	0.196853	0.952587	-0.045758
C154	C	0.475786	0.708720	-0.671913
H155	H	0.486370	0.703432	-0.717472
H156	H	0.445414	0.757342	-0.646822
H157	H	0.445418	0.690463	-0.646853
C158	C	0.881523	0.553336	-0.328121
H159	H	0.841256	0.558629	-0.282569
H160	H	0.924864	0.504713	-0.353202
H161	H	0.857976	0.571579	-0.353201
H162	H	1.054366	0.207719	0.000015
H163	H	0.371900	0.823167	0.326157
C164	C	1.008252	0.176186	-0.077597
H165	H	1.048510	0.141225	-0.072290
H166	H	1.031801	0.170867	-0.126221
H167	H	0.964923	0.170891	-0.059336
H168	H	0.371925	0.698154	0.326135
H169	H	0.890103	0.304844	-0.192039
C170	C	1.008215	0.176148	-0.299564
H171	H	0.981577	0.180777	-0.250933
H172	H	1.065192	0.151059	-0.321558
H173	H	0.998322	0.151060	-0.321573
C174	C	1.008210	0.708601	-0.299582
H175	H	0.981598	0.730605	-0.250953
H176	H	0.998317	0.743578	-0.321580
H177	H	1.065193	0.676692	-0.321589
C178	C	0.786237	0.302933	-0.077491
H179	H	0.775650	0.348493	-0.072158
H180	H	0.816715	0.277836	-0.126130
H181	H	0.816500	0.277872	-0.059146
H182	H	1.054348	0.630978	-0.423337
H183	H	0.262452	0.698182	0.435628
H184	H	0.207692	1.054489	0.423298
C185	C	0.881508	0.458078	-0.328122
H186	H	0.908129	0.453447	-0.376753
H187	H	0.891388	0.483179	-0.306117
H188	H	0.824527	0.483154	-0.306125
C189	C	0.490293	0.521249	-0.109778
H190	H	0.494802	0.490123	-0.140912
H191	H	0.516016	0.495432	-0.088314
H192	H	0.516004	0.542723	-0.135592
C193	C	1.008252	0.553340	-0.454849
H194	H	1.048521	0.558629	-0.489811
H195	H	0.964938	0.571577	-0.460160
H196	H	1.031810	0.504712	-0.460144
C197	C	0.881501	0.302906	-0.077607
H198	H	0.908120	0.254271	-0.099606
H199	H	0.891384	0.324902	-0.112585
H200	H	0.824520	0.324912	-0.045701
C201	C	0.190438	0.631135	0.440600
H202	H	0.176795	0.658456	0.481546
H203	H	0.210211	0.584053	0.440615
H204	H	0.143341	0.650930	0.440609
H205	H	0.262412	0.564042	0.301566
C206	C	0.253793	1.085879	0.077560
H207	H	0.213526	1.120839	0.072262
H208	H	0.297109	1.091185	0.059321
H209	H	0.230234	1.091187	0.126187
C210	C	0.881482	0.708616	-0.172870
H211	H	0.908091	0.730635	-0.177479
H212	H	0.891374	0.676727	-0.147785
H213	H	0.824499	0.743595	-0.147794
C214	C	1.008206	0.331492	0.077627
H215	H	0.981571	0.380127	0.099643
H216	H	1.065184	0.309490	0.045737
H217	H	0.998310	0.309492	0.112604
C218	C	0.786241	-0.069372	-0.077630
H219	H	0.830263	-0.118003	-0.099647
H220	H	0.789316	-0.047359	-0.045731
H221	H	0.789310	-0.047371	-0.112605
H222	H	0.262459	1.066737	0.301481
H223	H	0.371929	0.957220	0.192015
C224	C	-0.008754	0.521262	-0.109770
H225	H	0.048990	0.490127	-0.140895
H226	H	-0.030127	0.542725	-0.135585
H227	H	-0.030122	0.495447	-0.088294
H228	H	0.094431	0.536187	-0.094831
H229	H	0.148912	0.515287	-0.029564
H230	H	0.528281	0.621463	-0.503413
C231	C	0.475792	0.708685	-0.545179
H232	H	0.431770	0.730700	-0.549785
H233	H	0.472717	0.743652	-0.520082
H234	H	0.472722	0.676773	-0.520117
C235	C	0.881480	0.458201	0.077612
H236	H	0.908106	0.453599	0.099614
H237	H	0.824502	0.483288	0.112587
H238	H	0.891375	0.483275	0.045707
C239	C	0.380516	0.553455	0.172870
H240	H	0.420785	0.558732	0.137887
H241	H	0.337180	0.571708	0.167588
H242	H	0.404063	0.504830	0.167580
C243	C	0.278454	0.497057	-0.034193
H244	H	0.312980	0.506192	-0.031848
H245	H	0.306517	0.467442	-0.080485
H246	H	0.263499	0.474246	-0.001265
H247	H	0.999644	0.329363	-0.435658
C248	C	0.270781	0.740806	0.109748
H249	H	0.318532	0.733322	0.102261
H250	H	0.239416	0.738645	0.154865
H251	H	0.239415	0.785928	0.107580
H252	H	0.733753	0.640611	-0.606101
C253	C	0.786237	0.553364	-0.454844
H254	H	0.830261	0.531333	-0.450242
H255	H	0.789318	0.585261	-0.479919
H256	H	0.789296	0.518395	-0.479927
H257	H	0.528282	0.621435	-0.393926
C258	C	0.380519	0.959159	0.077596
H259	H	0.353889	1.007794	0.099605
H260	H	0.437499	0.937149	0.045711
H261	H	0.370610	0.937167	0.112579
H262	H	0.765116	0.195371	-0.067053
H263	H	1.054378	0.207575	-0.423322
H264	H	0.167600	0.725875	0.094814
C265	C	0.749930	0.642091	-0.496062
H266	H	0.741822	0.641320	-0.451745
H267	H	0.742805	0.685075	-0.502373
H268	H	0.803592	0.603441	-0.532788
H269	H	0.496910	0.698051	-0.192063
C270	C	0.110303	0.765011	0.034187
H271	H	0.156308	0.755874	0.031847
H272	H	0.062473	0.794605	0.080484
H273	H	0.105448	0.787843	0.001276
C274	C	-0.016439	0.765016	0.034185
H275	H	-0.013664	0.803011	0.043876
H276	H	-0.063138	0.771057	0.074466
H277	H	-0.020153	0.764280	-0.004746
C278	C	-0.101522	0.740817	0.109750
H279	H	-0.053771	0.733335	0.102260
H280	H	-0.132886	0.738658	0.154870
H281	H	-0.132890	0.785937	0.107580
H282	H	-0.204711	0.725881	0.094830
C283	C	0.475794	0.708628	-0.299621
H284	H	0.486379	0.703337	-0.345179
H285	H	0.445423	0.757251	-0.274532
H286	H	0.445426	0.690373	-0.274557
H287	H	0.496909	0.438991	0.067031
C288	C	0.190451	1.071590	-0.000066
H289	H	0.176793	1.112559	0.027232
H290	H	0.143368	1.071587	0.019717
H291	H	0.210243	1.071577	-0.047158
C292	C	0.475798	0.331430	0.077588
H293	H	0.486387	0.285868	0.072295
H294	H	0.445431	0.356501	0.059333
H295	H	0.445421	0.356514	0.126215
C296	C	0.512106	0.253882	0.129990
H297	H	0.478387	0.244134	0.166862
H298	H	0.479359	0.293802	0.122149
H299	H	0.540157	0.263399	0.142978
H300	H	0.528270	0.127677	0.112293
H301	H	0.371939	0.823048	-0.067088
H302	H	0.765121	0.563988	-0.698467
C303	C	0.786246	-0.196112	-0.077630
H304	H	0.775663	-0.231086	-0.072344
H305	H	0.816616	-0.201401	-0.059378
H306	H	0.816617	-0.201415	-0.126255
C307	C	0.475801	-0.040868	0.077587
H308	H	0.486387	-0.086428	0.072302
H309	H	0.445430	-0.015798	0.059336
H310	H	0.445432	-0.015781	0.126212
C311	C	0.749962	0.008169	-0.130012
H312	H	0.741857	-0.028044	-0.121149
H313	H	0.803605	-0.008753	-0.144996
H314	H	0.742868	0.021590	-0.165892
H315	H	0.733763	0.134386	-0.112332
H316	H	0.765124	0.563901	-0.326172
C317	C	0.786231	0.553463	-0.827140
H318	H	0.775645	0.558772	-0.862113
H319	H	0.816595	0.504836	-0.832446
H320	H	0.816608	0.571707	-0.832422
