data_functionalizedCrystal
_audit_creation_method	'MofGen! by Chris Wilmer'
_symmetry_space_group_name_H-M	'P1'
_symmetry_Int_Tables_number	1
_symmetry_cell_setting	triclinic
loop_
_symmetry_equiv_pos_as_xyz
  x,y,z
_cell_length_a	29.839134
_cell_length_b	29.839131
_cell_length_c	29.839104
_cell_angle_alpha	89.871467
_cell_angle_beta	89.921457
_cell_angle_gamma	90.021992
loop_
_atom_site_label
_atom_site_type_symbol
_atom_site_fract_x
_atom_site_fract_y
_atom_site_fract_z
Zn1	Zn	0.687014	-0.178658	-0.254009
Zn2	Zn	1.187014	0.321342	0.245991
Zn3	Zn	0.686859	-0.253915	-0.178878
Zn4	Zn	1.186859	0.246085	0.321122
Zn5	Zn	0.611810	-0.178774	-0.178891
Zn6	Zn	1.111810	0.321226	0.321109
Zn7	Zn	0.611844	-0.253736	-0.253980
Zn8	Zn	1.111844	0.246264	0.246020
O9	O	0.649382	-0.216271	-0.216439
O10	O	1.149382	0.283729	0.283561
O11	O	0.749860	-0.188667	-0.244049
O12	O	1.249860	0.311333	0.255951
O13	O	0.676824	-0.244071	-0.116013
O14	O	1.176824	0.255929	0.383987
O15	O	0.621836	-0.115892	-0.188873
O16	O	1.121836	0.384108	0.311127
O17	O	0.749747	-0.243958	-0.188851
O18	O	1.249747	0.256042	0.311149
O19	O	0.677088	-0.115806	-0.244061
O20	O	1.177088	0.384194	0.255939
O21	O	0.621686	-0.188866	-0.116022
O22	O	1.121686	0.311134	0.383978
O23	O	0.548947	-0.188692	-0.188845
O24	O	1.048947	0.311308	0.311155
O25	O	0.621895	-0.243653	-0.316851
O26	O	1.121895	0.256347	0.183149
O27	O	0.548973	-0.243766	-0.244012
O28	O	1.048973	0.256234	0.255988
O29	O	0.677122	-0.188493	-0.316872
O30	O	1.177122	0.311507	0.183128
O31	O	0.676858	-0.316759	-0.188823
O32	O	1.176858	0.183241	0.311177
O33	O	0.621745	-0.316627	-0.244000
O34	O	1.121745	0.183373	0.256000
C35	C	0.532659	-0.216223	-0.216427
C36	C	1.032659	0.283777	0.283573
C37	C	0.482725	-0.216213	-0.216432
C38	C	0.982725	0.283787	0.283568
C39	C	0.126193	-0.187540	-0.245238
C40	C	0.626193	0.312460	0.254762
C41	C	0.313866	-0.187504	-0.245227
C42	C	0.813866	0.312496	0.254773
O43	O	0.338177	-0.163069	-0.269716
O44	O	0.838177	0.336931	0.230284
N45	N	0.337280	-0.216242	-0.216443
N46	N	0.837280	0.283758	0.283557
C47	C	0.313772	-0.244993	-0.187661
C48	C	0.813772	0.255007	0.312339
O49	O	0.337993	-0.269439	-0.163181
O50	O	0.837993	0.230561	0.336819
C51	C	0.126100	-0.245031	-0.187674
C52	C	0.626100	0.254969	0.312326
C53	C	0.102689	-0.216288	-0.216457
C54	C	0.602689	0.283712	0.283543
C55	C	0.102781	-0.158800	-0.274019
C56	C	0.602781	0.341200	0.225981
C57	C	0.055866	-0.158808	-0.274019
C58	C	0.555866	0.341192	0.225981
C59	C	0.032362	-0.187556	-0.245239
C60	C	0.532362	0.312444	0.254761
C61	C	0.055773	-0.216296	-0.216458
C62	C	0.555773	0.283704	0.283542
C63	C	0.102594	-0.273785	-0.158895
C64	C	0.602594	0.226215	0.341105
C65	C	0.055672	-0.273792	-0.158902
C66	C	0.555672	0.226208	0.341098
C67	C	0.032261	-0.245049	-0.187685
C68	C	0.532261	0.254951	0.312315
C69	C	-0.014646	-0.245052	-0.187678
C70	C	0.485354	0.254948	0.312322
N71	N	-0.038060	-0.216314	-0.216462
N72	N	0.461940	0.283686	0.283538
C73	C	-0.014556	-0.187566	-0.245243
C74	C	0.485444	0.312434	0.254757
C75	C	0.412303	-0.244971	-0.187656
C76	C	0.912303	0.255029	0.312344
C77	C	0.459221	-0.244961	-0.187652
C78	C	0.959221	0.255039	0.312348
C79	C	0.459311	-0.187472	-0.245219
C80	C	0.959311	0.312528	0.254781
C81	C	0.412392	-0.187480	-0.245220
C82	C	0.912392	0.312520	0.254780
C83	C	0.388889	-0.216233	-0.216440
C84	C	0.888889	0.283767	0.283560
C85	C	-0.113082	-0.187583	-0.245241
C86	C	0.386918	0.312417	0.254759
C87	C	-0.160002	-0.187592	-0.245238
C88	C	0.339998	0.312408	0.254762
C89	C	-0.160088	-0.245082	-0.187673
C90	C	0.339912	0.254918	0.312327
C91	C	-0.113172	-0.245072	-0.187675
C92	C	0.386828	0.254928	0.312325
C93	C	-0.089670	-0.216321	-0.216462
C94	C	0.410330	0.283679	0.283538
O95	O	-0.038987	-0.269478	-0.163205
O96	O	0.461013	0.230522	0.336795
O97	O	-0.038785	-0.163131	-0.269726
O98	O	0.461215	0.336869	0.230274
C99	C	0.173108	-0.187533	-0.245237
C100	C	0.673108	0.312467	0.254763
C101	C	0.196520	-0.216273	-0.216456
C102	C	0.696520	0.283727	0.283544
C103	C	0.173016	-0.245021	-0.187675
C104	C	0.673016	0.254979	0.312325
C105	C	0.243437	-0.216263	-0.216452
C106	C	0.743437	0.283737	0.283548
C107	C	0.266941	-0.187515	-0.245232
C108	C	0.766941	0.312485	0.254768
C109	C	0.243528	-0.158777	-0.274017
C110	C	0.743528	0.341223	0.225983
C111	C	0.196612	-0.158785	-0.274017
C112	C	0.696612	0.341215	0.225983
C113	C	0.196429	-0.273759	-0.158891
C114	C	0.696429	0.226241	0.341109
C115	C	0.243345	-0.273749	-0.158893
C116	C	0.743345	0.226251	0.341107
C117	C	0.266849	-0.245001	-0.187673
C118	C	0.766849	0.254999	0.312327
C119	C	0.649301	-0.332993	-0.216417
C120	C	1.149301	0.167007	0.283583
C121	C	0.649307	-0.382928	-0.216423
C122	C	1.149307	0.117072	0.283577
C123	C	0.678131	-0.692627	-0.187751
C124	C	1.178131	-0.192627	0.312249
C125	C	0.678187	-0.880300	-0.187768
C126	C	1.178187	-0.380300	0.312232
O127	O	0.702630	-0.904612	-0.163373
O128	O	1.202630	-0.404612	0.336627
N129	N	0.649475	-0.903713	-0.216473
N130	N	1.149475	-0.403713	0.283527
C131	C	0.620749	-0.880205	-0.245178
C132	C	1.120749	-0.380205	0.254822
O133	O	0.596333	-0.904425	-0.269597
O134	O	1.096333	-0.404425	0.230403
C135	C	0.620696	-0.692532	-0.245163
C136	C	1.120696	-0.192532	0.254837
C137	C	0.649407	-0.669122	-0.216452
C138	C	1.149407	-0.169122	0.283548
C139	C	0.706840	-0.669217	-0.159043
C140	C	1.206840	-0.169217	0.340957
C141	C	0.706824	-0.622301	-0.159038
C142	C	1.206824	-0.122301	0.340962
C143	C	0.678099	-0.598796	-0.187739
C144	C	1.178099	-0.098796	0.312261
C145	C	0.649391	-0.622207	-0.216447
C146	C	1.149391	-0.122207	0.283553
C147	C	0.591973	-0.669025	-0.273869
C148	C	1.091973	-0.169025	0.226131
C149	C	0.591963	-0.622104	-0.273864
C150	C	1.091963	-0.122104	0.226136
C151	C	0.620674	-0.598693	-0.245154
C152	C	1.120674	-0.098693	0.254846
C153	C	0.620651	-0.551786	-0.245142
C154	C	1.120651	-0.051786	0.254858
N155	N	0.649362	-0.528373	-0.216437
N156	N	1.149362	-0.028373	0.283563
C157	C	0.678087	-0.551878	-0.187736
C158	C	1.178087	-0.051878	0.312264
C159	C	0.620778	-0.978735	-0.245184
C160	C	1.120778	-0.478735	0.254816
C161	C	0.620791	-1.025653	-0.245187
C162	C	1.120791	-0.525653	0.254813
C163	C	0.678229	-1.025745	-0.187778
C164	C	1.178229	-0.525745	0.312222
C165	C	0.678214	-0.978827	-0.187772
C166	C	1.178214	-0.478827	0.312228
C167	C	0.649490	-0.955322	-0.216479
C168	C	1.149490	-0.455322	0.283521
C169	C	0.678051	-0.453353	-0.187726
C170	C	1.178051	0.046647	0.312274
C171	C	0.678031	-0.406433	-0.187721
C172	C	1.178031	0.093567	0.312279
C173	C	0.620595	-0.406345	-0.245132
C174	C	1.120595	0.093655	0.254868
C175	C	0.620613	-0.453260	-0.245135
C176	C	1.120613	0.046740	0.254865
C177	C	0.649345	-0.476763	-0.216430
C178	C	1.149345	0.023237	0.283570
O179	O	0.596224	-0.527445	-0.269528
O180	O	1.096224	-0.027445	0.230472
O181	O	0.702507	-0.527650	-0.163327
O182	O	1.202507	-0.027650	0.336673
C183	C	0.678147	-0.739542	-0.187757
C184	C	1.178147	-0.239542	0.312243
C185	C	0.649439	-0.762953	-0.216464
C186	C	1.149439	-0.262953	0.283536
C187	C	0.620714	-0.739448	-0.245166
C188	C	1.120714	-0.239448	0.254834
C189	C	0.649451	-0.809871	-0.216467
C190	C	1.149451	-0.309871	0.283533
C191	C	0.678176	-0.833376	-0.187766
C192	C	1.178176	-0.333376	0.312234
C193	C	0.706887	-0.809963	-0.159061
C194	C	1.206887	-0.309963	0.340939
C195	C	0.706872	-0.763048	-0.159055
C196	C	1.206872	-0.263048	0.340945
C197	C	0.592002	-0.762861	-0.273871
C198	C	1.092002	-0.262861	0.226129
C199	C	0.592020	-0.809776	-0.273874
C200	C	1.092020	-0.309776	0.226126
C201	C	0.620745	-0.833281	-0.245172
C202	C	1.120745	-0.333281	0.254828
C203	C	0.766560	-0.216320	-0.216452
C204	C	1.266560	0.283680	0.283548
C205	C	0.816494	-0.216340	-0.216458
C206	C	1.316494	0.283660	0.283542
C207	C	0.649530	-0.216040	-0.333618
C208	C	1.149530	0.283960	0.166382
C209	C	0.649593	-0.215942	-0.383553
C210	C	1.149593	0.284058	0.116447
C211	C	0.649475	-0.099092	-0.216472
C212	C	1.149475	0.400908	0.283528
C213	C	0.649515	-0.049158	-0.216485
C214	C	1.149515	0.450842	0.283515
C215	C	0.649260	-0.216468	-0.099716
C216	C	1.149260	0.283532	0.400284
C217	C	0.649284	-0.216440	-0.049782
C218	C	1.149284	0.283560	0.450218
C219	C	0.620515	-0.187666	0.259837
C220	C	1.120515	0.312334	0.759837
C221	C	0.620602	-0.187528	0.447510
C222	C	1.120602	0.312472	0.947510
O223	O	0.596036	-0.163232	0.471755
O224	O	1.096036	0.336768	0.971755
N225	N	0.649527	-0.216046	0.471002
N226	N	1.149527	0.283954	0.971002
C227	C	0.678435	-0.244597	0.447573
C228	C	1.178435	0.255403	0.947573
O229	O	0.703042	-0.268846	0.471861
O230	O	1.203042	0.231154	0.971861
C231	C	0.678350	-0.244731	0.259901
C232	C	1.178350	0.255269	0.759901
C233	C	0.649420	-0.216216	0.236412
C234	C	1.149420	0.283784	0.736412
C235	C	0.591588	-0.159152	0.236347
C236	C	1.091588	0.340848	0.736347
C237	C	0.591564	-0.159188	0.189432
C238	C	1.091564	0.340812	0.689432
C239	C	0.620469	-0.187738	0.166006
C240	C	1.120469	0.312262	0.666006
C241	C	0.649396	-0.216252	0.189496
C242	C	1.149396	0.283748	0.689496
C243	C	0.707259	-0.273280	0.236473
C244	C	1.207259	0.226720	0.736473
C245	C	0.707236	-0.273310	0.189552
C246	C	1.207236	0.226690	0.689552
C247	C	0.678306	-0.244795	0.166063
C248	C	1.178306	0.255205	0.666063
C249	C	0.678278	-0.244838	0.119155
C250	C	1.178278	0.255162	0.619155
N251	N	0.649353	-0.216321	0.095663
N252	N	1.149353	0.283679	0.595663
C253	C	0.620448	-0.187771	0.119089
C254	C	1.120448	0.312229	0.619089
C255	C	0.678476	-0.244525	0.546104
C256	C	1.178476	0.255475	1.046104
C257	C	0.678497	-0.244492	0.593022
C258	C	1.178497	0.255508	1.093022
C259	C	0.620665	-0.187423	0.592955
C260	C	1.120665	0.312577	1.092955
C261	C	0.620642	-0.187458	0.546036
C262	C	1.120642	0.312542	1.046036
C263	C	0.649551	-0.216008	0.522612
C264	C	1.149551	0.283992	1.022612
C265	C	0.620402	-0.187850	0.020563
C266	C	1.120402	0.312150	0.520563
C267	C	0.620380	-0.187890	-0.026356
C268	C	1.120380	0.312110	0.473644
C269	C	0.678214	-0.244957	-0.026286
C270	C	1.178214	0.255043	0.473714
C271	C	0.678234	-0.244919	0.020630
C272	C	1.178234	0.255081	0.520630
C273	C	0.649326	-0.216362	0.044053
C274	C	1.149326	0.283638	0.544053
O275	O	0.702834	-0.269119	0.094882
O276	O	1.202834	0.230881	0.594882
O277	O	0.595851	-0.163519	0.094793
O278	O	1.095851	0.336481	0.594793
C279	C	0.620538	-0.187629	0.306753
C280	C	1.120538	0.312371	0.806753
C281	C	0.649466	-0.216143	0.330242
C282	C	1.149466	0.283857	0.830242
C283	C	0.678370	-0.244693	0.306817
C284	C	1.178370	0.255307	0.806817
C285	C	0.649486	-0.216110	0.377160
C286	C	1.149486	0.283890	0.877160
C287	C	0.620582	-0.187560	0.400586
C288	C	1.120582	0.312440	0.900586
C289	C	0.591657	-0.159043	0.377094
C290	C	1.091657	0.340957	0.877094
C291	C	0.591634	-0.159079	0.330178
C292	C	1.091634	0.340921	0.830178
C293	C	0.707295	-0.273210	0.330309
C294	C	1.207295	0.226790	0.830309
C295	C	0.707316	-0.273172	0.377224
C296	C	1.207316	0.226828	0.877224
C297	C	0.678411	-0.244622	0.400650
C298	C	1.178411	0.255378	0.900650
H299	H	-0.179233	-0.268486	-0.164239
H300	H	0.320767	0.231514	0.335761
C301	C	0.738439	-0.695066	-0.127467
C302	C	1.238439	-0.195066	0.372533
C303	C	0.734743	-0.688727	-0.076393
C304	C	1.234743	-0.188727	0.423607
C305	C	0.766343	-0.714572	-0.044811
C306	C	1.266343	-0.214572	0.455189
C307	C	0.801638	-0.746757	-0.064303
C308	C	1.301638	-0.246757	0.435697
C309	C	0.805335	-0.753098	-0.115380
C310	C	1.305335	-0.253098	0.384620
C311	C	0.773736	-0.727252	-0.146962
C312	C	1.273736	-0.227252	0.353038
H313	H	0.708614	-0.664901	-0.061961
H314	H	1.208614	-0.164901	0.438039
H315	H	0.763605	-0.709878	-0.007000
H316	H	1.263605	-0.209878	0.493000
H317	H	0.825030	-0.765889	-0.040925
H318	H	1.325030	-0.265889	0.459075
H319	H	0.831464	-0.776924	-0.129812
H320	H	1.331464	-0.276924	0.370188
H321	H	0.776473	-0.731946	-0.184772
H322	H	1.276473	-0.231946	0.315228
C323	C	0.560392	-0.694766	-0.305455
C324	C	1.060392	-0.194766	0.194545
C325	C	0.509318	-0.688350	-0.301748
C326	C	1.009318	-0.188350	0.198252
C327	C	0.477735	-0.714089	-0.333337
C328	C	0.977735	-0.214089	0.166663
C329	C	0.497227	-0.746244	-0.368634
C330	C	0.997227	-0.246244	0.131366
C331	C	0.548304	-0.752661	-0.372342
C332	C	1.048304	-0.252661	0.127658
C333	C	0.579887	-0.726922	-0.340753
C334	C	1.079887	-0.226922	0.159247
H335	H	0.494886	-0.664546	-0.275619
H336	H	0.994886	-0.164546	0.224381
H337	H	0.439924	-0.709339	-0.330592
H338	H	0.939924	-0.209339	0.169408
H339	H	0.473848	-0.765298	-0.392018
H340	H	0.973848	-0.265298	0.107982
H341	H	0.562736	-0.776465	-0.398471
H342	H	1.062736	-0.276465	0.101529
H343	H	0.617698	-0.731673	-0.343498
H344	H	1.117698	-0.231673	0.156502
H345	H	0.701448	-0.472483	-0.164353
H346	H	1.201448	0.027517	0.335647
C347	C	0.560436	-0.835524	-0.305458
C348	C	1.060436	-0.335524	0.194542
C349	C	0.509360	-0.829115	-0.301749
C350	C	1.009360	-0.329115	0.198251
C351	C	0.477780	-0.854860	-0.333336
C352	C	0.977780	-0.354860	0.166664
C353	C	0.497275	-0.887014	-0.368631
C354	C	0.997275	-0.387014	0.131369
C355	C	0.548353	-0.893424	-0.372341
C356	C	1.048353	-0.393424	0.127659
C357	C	0.579933	-0.867679	-0.340755
C358	C	1.079933	-0.367679	0.159245
H359	H	0.494926	-0.805311	-0.275621
H360	H	0.994926	-0.305311	0.224379
H361	H	0.439968	-0.850115	-0.330589
H362	H	0.939968	-0.350115	0.169411
H363	H	0.473897	-0.906072	-0.392013
H364	H	0.973897	-0.406072	0.107987
H365	H	0.562787	-0.917228	-0.398470
H366	H	1.062787	-0.417228	0.101530
H367	H	0.617745	-0.872424	-0.343501
H368	H	1.117745	-0.372424	0.156499
C369	C	-0.087418	-0.276687	-0.156011
C370	C	0.412582	0.223313	0.343989
C371	C	-0.055148	-0.311947	-0.175415
C372	C	0.444852	0.188053	0.324585
C373	C	-0.029399	-0.343567	-0.143755
C374	C	0.470601	0.156433	0.356245
C375	C	-0.035920	-0.339927	-0.092689
C376	C	0.464080	0.160073	0.407311
C377	C	-0.068191	-0.304665	-0.073282
C378	C	0.431809	0.195335	0.426718
C379	C	-0.093941	-0.273046	-0.104943
C380	C	0.406059	0.226954	0.395057
H381	H	-0.050320	-0.314643	-0.213219
H382	H	0.449680	0.185357	0.286781
H383	H	-0.005510	-0.369670	-0.158121
H384	H	0.494490	0.130330	0.341879
H385	H	-0.016859	-0.363334	-0.069252
H386	H	0.483141	0.136666	0.430748
H387	H	-0.073020	-0.301970	-0.035478
H388	H	0.426980	0.198030	0.464522
H389	H	-0.117830	-0.246943	-0.090576
H390	H	0.382170	0.253057	0.409424
C391	C	0.739099	-0.304639	0.262297
C392	C	1.239099	0.195361	0.762297
C393	C	0.774264	-0.284894	0.294415
C394	C	1.274264	0.215106	0.794415
C395	C	0.806112	-0.316251	0.320234
C396	C	1.306112	0.183749	0.820234
C397	C	0.802797	-0.367352	0.313936
C398	C	1.302797	0.132648	0.813936
C399	C	0.767630	-0.387099	0.281816
C400	C	1.267630	0.112901	0.781816
C401	C	0.735782	-0.355743	0.255997
C402	C	1.235782	0.144257	0.755997
H403	H	0.776720	-0.247064	0.299078
H404	H	1.276720	0.252936	0.799078
H405	H	0.832145	-0.301632	0.344011
H406	H	1.332145	0.198368	0.844011
H407	H	0.826373	-0.390564	0.333049
H408	H	1.326373	0.109436	0.833049
H409	H	0.765175	-0.424930	0.277153
H410	H	1.265175	0.075070	0.777153
H411	H	0.709749	-0.370361	0.232220
H412	H	1.209749	0.129639	0.732220
H413	H	0.036808	-0.135404	-0.297459
H414	H	0.536808	0.364596	0.202541
C415	C	0.170865	-0.127169	-0.305683
C416	C	0.670865	0.372831	0.194317
C417	C	0.177395	-0.130815	-0.356747
C418	C	0.677395	0.369185	0.143253
C419	C	0.151652	-0.099198	-0.388416
C420	C	0.651652	0.400802	0.111584
C421	C	0.119378	-0.063936	-0.369021
C422	C	0.619378	0.436064	0.130979
C423	C	0.112847	-0.060289	-0.317954
C424	C	0.612847	0.439711	0.182046
C425	C	0.138590	-0.091906	-0.286286
C426	C	0.638590	0.408094	0.213714
H427	H	0.201287	-0.156919	-0.371106
H428	H	0.701287	0.343081	0.128894
H429	H	0.156487	-0.101898	-0.426218
H430	H	0.656487	0.398102	0.073782
H431	H	0.100322	-0.040532	-0.392464
H432	H	0.600322	0.459468	0.107536
H433	H	0.088955	-0.034185	-0.303595
H434	H	0.588955	0.465815	0.196405
H435	H	0.133755	-0.089206	-0.248483
H436	H	0.633755	0.410794	0.251517
H437	H	0.702051	-0.267716	0.612143
H438	H	1.202051	0.232284	1.112143
C439	C	0.560364	-0.596250	-0.305441
C440	C	1.060364	-0.096250	0.194559
C441	C	0.579835	-0.563900	-0.340728
C442	C	1.079835	-0.063900	0.159272
C443	C	0.548235	-0.538048	-0.372304
C444	C	1.048235	-0.038048	0.127696
C445	C	0.497165	-0.544546	-0.368592
C446	C	0.997165	-0.044546	0.131408
C447	C	0.477691	-0.576898	-0.333304
C448	C	0.977691	-0.076898	0.166696
C449	C	0.509291	-0.602750	-0.301728
C450	C	1.009291	-0.102750	0.198272
H451	H	0.617643	-0.559088	-0.343477
H452	H	1.117643	-0.059088	0.156523
H453	H	0.562652	-0.514099	-0.398426
H454	H	1.062652	-0.014099	0.101574
H455	H	0.473772	-0.525409	-0.391966
H456	H	0.973772	-0.025409	0.108034
H457	H	0.439883	-0.581710	-0.330555
H458	H	0.939883	-0.081710	0.169445
H459	H	0.494874	-0.626699	-0.275605
H460	H	0.994874	-0.126699	0.224395
C461	C	0.709799	-0.953078	-0.156194
C462	C	1.209799	-0.453078	0.343806
C463	C	0.745073	-0.920757	-0.175690
C464	C	1.245073	-0.420757	0.324310
C465	C	0.776660	-0.895011	-0.144111
C466	C	1.276660	-0.395011	0.355889
C467	C	0.772974	-0.901586	-0.093037
C468	C	1.272974	-0.401586	0.406963
C469	C	0.737698	-0.933908	-0.073538
C470	C	1.237698	-0.433908	0.426462
C471	C	0.706111	-0.959654	-0.105117
C472	C	1.206111	-0.459654	0.394883
H473	H	0.747803	-0.915889	-0.213500
H474	H	1.247803	-0.415889	0.286500
H475	H	0.802774	-0.871084	-0.158545
H476	H	1.302774	-0.371084	0.341455
H477	H	0.796357	-0.882527	-0.069660
H478	H	1.296357	-0.382527	0.430340
H479	H	0.734968	-0.938776	-0.035728
H480	H	1.234968	-0.438776	0.464272
H481	H	0.679998	-0.983580	-0.090683
H482	H	1.179998	-0.483580	0.409317
C483	C	0.589001	-0.380482	-0.276703
C484	C	1.089001	0.119518	0.223297
C485	C	0.553715	-0.348293	-0.257201
C486	C	1.053715	0.151707	0.242799
C487	C	0.522124	-0.322428	-0.288775
C488	C	1.022124	0.177572	0.211225
C489	C	0.525819	-0.328753	-0.339851
C490	C	1.025819	0.171247	0.160149
C491	C	0.561106	-0.360943	-0.359356
C492	C	1.061106	0.139057	0.140644
C493	C	0.592697	-0.386808	-0.327782
C494	C	1.092697	0.113192	0.172218
H495	H	0.550978	-0.343610	-0.219389
H496	H	1.050978	0.156390	0.280611
H497	H	0.496002	-0.298599	-0.274336
H498	H	0.996002	0.201401	0.225664
H499	H	0.502433	-0.309606	-0.363224
H500	H	1.002433	0.190394	0.136776
H501	H	0.563843	-0.365626	-0.397168
H502	H	1.063843	0.134374	0.102832
H503	H	0.618820	-0.410637	-0.342221
H504	H	1.118820	0.089363	0.157779
H505	H	0.597236	-0.472322	-0.268514
H506	H	1.097236	0.027678	0.231486
C507	C	-0.087235	-0.155954	-0.276905
C508	C	0.412765	0.344046	0.223095
C509	C	-0.055003	-0.120684	-0.257499
C510	C	0.444997	0.379316	0.242501
C511	C	-0.029157	-0.089052	-0.289159
C512	C	0.470843	0.410948	0.210841
C513	C	-0.035543	-0.092690	-0.340224
C514	C	0.464457	0.407310	0.159776
C515	C	-0.067776	-0.127962	-0.359632
C516	C	0.432224	0.372038	0.140368
C517	C	-0.093623	-0.159594	-0.327972
C518	C	0.406377	0.340406	0.172028
H519	H	-0.050275	-0.117990	-0.219696
H520	H	0.449725	0.382010	0.280304
H521	H	-0.005296	-0.062942	-0.274792
H522	H	0.494704	0.437058	0.225208
H523	H	-0.016410	-0.069274	-0.363661
H524	H	0.483590	0.430726	0.136339
H525	H	-0.072505	-0.130656	-0.397436
H526	H	0.427495	0.369344	0.102564
H527	H	-0.117484	-0.185704	-0.342339
H528	H	0.382516	0.314296	0.157661
H529	H	0.568120	-0.135798	0.396175
H530	H	1.068120	0.364202	0.896175
H531	H	0.730250	-0.743990	-0.135677
H532	H	1.230250	-0.243990	0.364323
C533	C	0.269388	-0.127155	-0.305676
C534	C	0.769388	0.372845	0.194324
C535	C	0.301689	-0.146606	-0.340907
C536	C	0.801689	0.353394	0.159093
C537	C	0.327552	-0.114987	-0.372567
C538	C	0.827552	0.385013	0.127433
C539	C	0.321115	-0.063917	-0.368995
C540	C	0.821115	0.436083	0.131005
C541	C	0.288812	-0.044463	-0.333762
C542	C	0.788812	0.455537	0.166238
C543	C	0.262949	-0.076082	-0.302103
C544	C	0.762949	0.423918	0.197897
H545	H	0.306456	-0.184413	-0.343553
H546	H	0.806456	0.315587	0.156447
H547	H	0.351465	-0.129388	-0.398648
H548	H	0.851465	0.370612	0.101352
H549	H	0.340260	-0.040511	-0.392431
H550	H	0.840260	0.459489	0.107569
H551	H	0.284045	-0.006656	-0.331117
H552	H	0.784045	0.493344	0.168883
H553	H	0.239037	-0.061680	-0.276022
H554	H	0.739037	0.438320	0.223978
C555	C	0.588556	-0.156519	-0.052194
C556	C	1.088556	0.343481	0.447806
C557	C	0.537513	-0.160528	-0.045633
C558	C	1.037513	0.339472	0.454367
C559	C	0.505691	-0.129157	-0.071469
C560	C	1.005691	0.370843	0.428531
C561	C	0.524913	-0.093777	-0.103865
C562	C	1.024913	0.406223	0.396135
C563	C	0.575959	-0.089767	-0.110428
C564	C	1.075959	0.410233	0.389572
C565	C	0.607781	-0.121138	-0.084592
C566	C	1.107781	0.378862	0.415408
H567	H	0.523281	-0.186719	-0.021650
H568	H	1.023281	0.313281	0.478350
H569	H	0.467903	-0.132126	-0.066610
H570	H	0.967903	0.367874	0.433390
H571	H	0.501357	-0.070555	-0.122991
H572	H	1.001357	0.429445	0.377009
H573	H	0.590191	-0.063576	-0.134411
H574	H	1.090191	0.436424	0.365589
H575	H	0.645569	-0.118169	-0.089451
H576	H	1.145569	0.381831	0.410549
H577	H	0.597130	-0.164176	0.612036
H578	H	1.097130	0.335824	1.112036
H579	H	0.478456	-0.164063	-0.268652
H580	H	0.978456	0.335937	0.231348
H581	H	0.730874	-0.296397	0.396346
H582	H	1.230874	0.203603	0.896346
C583	C	-0.185753	-0.155975	-0.276903
C584	C	0.314247	0.344025	0.223097
C585	C	-0.179229	-0.159619	-0.327968
C586	C	0.320771	0.340381	0.172032
C587	C	-0.204978	-0.128003	-0.359633
C588	C	0.295022	0.371997	0.140367
C589	C	-0.237250	-0.092743	-0.340233
C590	C	0.262750	0.407257	0.159767
C591	C	-0.243775	-0.089097	-0.289166
C592	C	0.256225	0.410903	0.210834
C593	C	-0.218027	-0.120713	-0.257501
C594	C	0.281973	0.379287	0.242499
H595	H	-0.155338	-0.185722	-0.342331
H596	H	0.344662	0.314278	0.157669
H597	H	-0.200147	-0.130702	-0.397436
H598	H	0.299853	0.369298	0.102564
H599	H	-0.256311	-0.069339	-0.363673
H600	H	0.243689	0.430661	0.136327
H601	H	-0.267667	-0.062994	-0.274803
H602	H	0.232333	0.437006	0.225197
H603	H	-0.222857	-0.118014	-0.219698
H604	H	0.277143	0.381986	0.280302
H605	H	0.701618	-1.044891	-0.164408
H606	H	1.201618	-0.544891	0.335592
H607	H	0.596864	-0.164595	0.039629
H608	H	1.096864	0.335405	0.539629
H609	H	0.701795	-0.268135	0.039756
H610	H	1.201795	0.231865	0.539756
H611	H	0.568007	-0.135967	0.170311
H612	H	1.068007	0.364033	0.670311
H613	H	0.262402	-0.297154	-0.135450
H614	H	0.762402	0.202846	0.364550
C615	C	0.170580	-0.305383	-0.127228
C616	C	0.670580	0.194617	0.372772
C617	C	0.176968	-0.301734	-0.076164
C618	C	0.676968	0.198266	0.423836
C619	C	0.151121	-0.333359	-0.044497
C620	C	0.651121	0.166641	0.455503
C621	C	0.118887	-0.368632	-0.063893
C622	C	0.618887	0.131368	0.436107
C623	C	0.112498	-0.372282	-0.114960
C624	C	0.612498	0.127718	0.385040
C625	C	0.138345	-0.340657	-0.146627
C626	C	0.638345	0.159343	0.353373
H627	H	0.200831	-0.275622	-0.061803
H628	H	0.700831	0.224378	0.438197
H629	H	0.155851	-0.330656	-0.006694
H630	H	0.655851	0.169344	0.493306
H631	H	0.099754	-0.392042	-0.040451
H632	H	0.599754	0.107958	0.459549
H633	H	0.088635	-0.398394	-0.129321
H634	H	0.588635	0.101606	0.370679
H635	H	0.133615	-0.343360	-0.184431
H636	H	0.633615	0.156640	0.315569
H637	H	0.121913	-0.135390	-0.297457
H638	H	0.621913	0.364610	0.202543
H639	H	0.393334	-0.164075	-0.268657
H640	H	0.893334	0.335925	0.231343
H641	H	0.702019	-0.267775	0.527036
H642	H	1.202019	0.232225	1.027036
C643	C	0.709616	-0.380683	-0.156139
C644	C	1.209616	0.119317	0.343861
C645	C	0.705931	-0.387261	-0.105065
C646	C	1.205931	0.112739	0.394935
C647	C	0.737515	-0.361512	-0.073485
C648	C	1.237515	0.138488	0.426515
C649	C	0.772785	-0.329186	-0.092979
C650	C	1.272785	0.170814	0.407021
C651	C	0.776472	-0.322607	-0.144056
C652	C	1.276472	0.177393	0.355944
C653	C	0.744887	-0.348355	-0.175636
C654	C	1.244887	0.151645	0.324364
H655	H	0.679821	-0.411192	-0.090632
H656	H	1.179821	0.088808	0.409368
H657	H	0.734786	-0.366383	-0.035675
H658	H	1.234786	0.133617	0.464325
H659	H	0.796166	-0.310126	-0.069602
H660	H	1.296166	0.189874	0.430398
H661	H	0.802582	-0.298676	-0.158489
H662	H	1.302582	0.201324	0.341511
H663	H	0.747617	-0.343484	-0.213446
H664	H	1.247617	0.156516	0.286554
H665	H	0.730275	-0.829109	-0.135690
H666	H	1.230275	-0.329109	0.364310
C667	C	0.738411	-0.596556	-0.127459
C668	C	1.238411	-0.096556	0.372541
C669	C	0.734728	-0.603136	-0.076385
C670	C	1.234728	-0.103136	0.423615
C671	C	0.766320	-0.577395	-0.044806
C672	C	1.266320	-0.077395	0.455194
C673	C	0.801594	-0.545074	-0.064301
C674	C	1.301594	-0.045074	0.435699
C675	C	0.805278	-0.538493	-0.115377
C676	C	1.305278	-0.038493	0.384623
C677	C	0.773687	-0.564233	-0.146957
C678	C	1.273687	-0.064233	0.353043
H679	H	0.708615	-0.627063	-0.061952
H680	H	1.208615	-0.127063	0.438048
H681	H	0.763592	-0.582267	-0.006996
H682	H	1.263592	-0.082267	0.493004
H683	H	0.824980	-0.526019	-0.040924
H684	H	1.324980	-0.026019	0.459076
H685	H	0.831392	-0.514565	-0.129811
H686	H	1.331392	-0.014565	0.370189
H687	H	0.776415	-0.559361	-0.184767
H688	H	1.276415	-0.059361	0.315233
C689	C	0.559787	-0.127745	0.262110
C690	C	1.059787	0.372255	0.762110
C691	C	0.563115	-0.076654	0.255496
C692	C	1.063115	0.423346	0.755496
C693	C	0.531309	-0.045248	0.281254
C694	C	1.031309	0.454752	0.781254
C695	C	0.496175	-0.064933	0.313626
C696	C	0.996175	0.435067	0.813626
C697	C	0.492845	-0.116026	0.320242
C698	C	0.992845	0.383974	0.820242
C699	C	0.524651	-0.147432	0.294484
C700	C	1.024651	0.352568	0.794484
H701	H	0.589125	-0.062080	0.231530
H702	H	1.089125	0.437920	0.731530
H703	H	0.533774	-0.007426	0.276356
H704	H	1.033774	0.492574	0.776356
H705	H	0.472630	-0.041684	0.332694
H706	H	0.972630	0.458316	0.832694
H707	H	0.466835	-0.130600	0.344207
H708	H	0.966835	0.369400	0.844207
H709	H	0.522186	-0.185255	0.299381
H710	H	1.022186	0.314745	0.799381
H711	H	0.597408	-1.044710	-0.268561
H712	H	1.097408	-0.544710	0.231439
H713	H	0.597387	-0.959601	-0.268560
H714	H	1.097387	-0.459601	0.231440
H715	H	0.478278	-0.268361	-0.164209
H716	H	0.978278	0.231639	0.335791
H717	H	0.568612	-0.743726	-0.297244
H718	H	1.068612	-0.243726	0.202756
H719	H	0.730779	-0.296558	0.170482
H720	H	1.230779	0.203442	0.670482
C721	C	0.588822	-0.156088	0.520200
C722	C	1.088822	0.343912	1.020200
C723	C	0.537778	-0.160099	0.526758
C724	C	1.037778	0.339901	1.026758
C725	C	0.505957	-0.128727	0.500924
C726	C	1.005957	0.371273	1.000924
C727	C	0.525179	-0.093343	0.468532
C728	C	1.025179	0.406657	0.968532
C729	C	0.576225	-0.089330	0.461973
C730	C	1.076225	0.410670	0.961973
C731	C	0.608047	-0.120703	0.487806
C732	C	1.108047	0.379297	0.987806
H733	H	0.523546	-0.186293	0.550738
H734	H	1.023546	0.313707	1.050738
H735	H	0.468169	-0.131697	0.505780
H736	H	0.968169	0.368303	1.005780
H737	H	0.501623	-0.070119	0.449408
H738	H	1.001623	0.429881	0.949408
H739	H	0.590457	-0.063136	0.437993
H740	H	1.090457	0.436864	0.937993
H741	H	0.645835	-0.117732	0.482950
H742	H	1.145835	0.382268	0.982950
H743	H	0.393171	-0.268386	-0.164218
H744	H	0.893171	0.231614	0.335782
H745	H	0.121647	-0.297190	-0.135457
H746	H	0.621647	0.202810	0.364543
H747	H	0.701745	-0.268204	-0.045367
H748	H	1.201745	0.231796	0.454633
H749	H	0.568076	-0.135858	0.311057
H750	H	1.068076	0.364142	0.811057
H751	H	0.036539	-0.297208	-0.135466
H752	H	0.536539	0.202792	0.364534
H753	H	0.730834	-0.296459	0.311241
H754	H	1.230834	0.203541	0.811241
