data_functionalizedCrystal
_audit_creation_method	'MofGen! by Chris Wilmer'
_symmetry_space_group_name_H-M	'P1'
_symmetry_Int_Tables_number	1
_symmetry_cell_setting	triclinic
loop_
_symmetry_equiv_pos_as_xyz
  x,y,z
_cell_length_a	10.654550
_cell_length_b	16.992695
_cell_length_c	9.730223
_cell_angle_alpha	89.995280
_cell_angle_beta	89.999957
_cell_angle_gamma	87.576577
loop_
_atom_site_label
_atom_site_type_symbol
_atom_site_fract_x
_atom_site_fract_y
_atom_site_fract_z
O1	O	1.677361	0.110190	-0.114188
O2	O	2.177361	0.610190	0.385812
O3	O	1.312790	0.120688	-0.114214
O4	O	1.812790	0.620688	0.385786
O5	O	1.493614	0.001288	-0.114190
O6	O	1.993614	0.501288	0.385810
O7	O	1.496537	0.229590	-0.114212
O8	O	1.996537	0.729590	0.385788
O9	O	1.493601	0.001285	0.114390
O10	O	1.993601	0.501285	0.614390
O11	O	1.312777	0.120685	0.114366
O12	O	1.812777	0.620685	0.614366
O13	O	1.677349	0.110187	0.114391
O14	O	2.177349	0.610187	0.614391
Zn15	Zn	1.495061	0.115435	0.150671
Zn16	Zn	1.995061	0.615435	0.650671
Zn17	Zn	1.495078	0.115439	-0.150493
Zn18	Zn	1.995078	0.615439	0.349507
O19	O	1.496525	0.229586	0.114368
O20	O	1.996525	0.729586	0.614368
C21	C	1.265919	0.119916	0.000073
C22	C	1.765919	0.619916	0.500073
C23	C	1.126277	0.117609	0.000064
C24	C	1.626277	0.617609	0.500064
C25	C	1.052866	0.187910	0.000061
C26	C	1.552866	0.687910	0.500061
C27	C	0.921658	0.185738	0.000085
C28	C	1.421658	0.685738	0.500085
C29	C	0.937282	0.042959	0.000109
C30	C	1.437282	0.542959	0.500109
C31	C	1.068488	0.045132	0.000095
C32	C	1.568488	0.545132	0.500095
C33	C	1.489848	-0.027946	0.000099
C34	C	1.989848	0.472054	0.500099
C35	C	1.478628	-0.115051	0.000098
C36	C	1.978628	0.384949	0.500098
C37	C	1.586879	-0.164703	0.000107
C38	C	2.086879	0.335297	0.500107
C39	C	1.576330	-0.246547	0.000093
C40	C	2.076330	0.253453	0.500093
C41	C	1.457529	-0.278738	0.000080
C42	C	1.957529	0.221262	0.500080
C43	C	1.349270	-0.229080	0.000067
C44	C	1.849270	0.270920	0.500067
C45	C	1.359820	-0.147237	0.000071
C46	C	1.859820	0.352763	0.500071
C47	C	1.413802	-0.522573	0.000058
C48	C	1.913802	-0.022573	0.500058
C49	C	1.403260	-0.604422	0.000059
C50	C	1.903260	-0.104422	0.500059
C51	C	1.630321	-0.621884	0.000082
C52	C	2.130321	-0.121884	0.500082
C53	C	1.640861	-0.540039	0.000094
C54	C	2.140861	-0.040039	0.500094
C55	C	1.532602	-0.490388	0.000074
C56	C	2.032602	0.009612	0.500074
N57	N	1.446743	-0.362395	0.000071
N58	N	1.946743	0.137605	0.500071
N59	N	1.543389	-0.406733	0.000074
N60	N	2.043389	0.093267	0.500074
C61	C	1.724220	0.110959	0.000102
C62	C	2.224220	0.610959	0.500102
C63	C	1.863862	0.113265	0.000102
C64	C	2.363862	0.613265	0.500102
C65	C	1.500291	0.258821	0.000075
C66	C	2.000291	0.758821	0.500075
C67	C	1.511510	0.345926	0.000068
C68	C	2.011510	0.845926	0.500068
N69	N	1.495059	0.115432	0.356207
N70	N	1.995059	0.615432	0.856207
N71	N	1.495089	0.115437	-0.356030
N72	N	1.995089	0.615437	0.143970
C73	C	1.575159	0.062584	0.428144
C74	C	2.075159	0.562584	0.928144
C75	C	1.575171	0.062584	0.572026
C76	C	2.075171	0.562584	1.072026
C77	C	1.414980	0.168287	0.572024
C78	C	1.914980	0.668287	1.072024
C79	C	1.414962	0.168282	0.428144
C80	C	1.914962	0.668282	0.928144
H81	H	0.861892	0.242984	0.000086
H82	H	1.361892	0.742984	0.500086
F83	F	1.329700	0.224529	0.351578
F84	F	1.829700	0.724529	0.851578
F85	F	1.146622	-0.029696	0.000107
F86	F	1.646622	0.470304	0.500107
H87	H	1.252539	-0.255296	0.000048
H88	H	1.752539	0.244704	0.500048
H89	H	1.349770	0.211318	0.630609
H90	H	1.849770	0.711318	1.130609
H91	H	1.640394	0.019550	0.630593
H92	H	2.140394	0.519550	1.130593
F93	F	1.114364	0.265047	0.000034
F94	F	1.614364	0.765047	0.500034
F95	F	1.713324	-0.130452	0.000134
F96	F	2.213324	0.369548	0.500134
F97	F	0.875769	-0.034172	0.000136
F98	F	1.375769	0.465828	0.500136
H99	H	1.664480	-0.286971	0.000104
H100	H	2.164480	0.213029	0.500104
H101	H	1.737601	-0.513836	0.000105
H102	H	2.237601	-0.013836	0.500105
H103	H	1.718458	-0.662318	0.000096
H104	H	2.218458	-0.162318	0.500096
H105	H	1.306513	-0.630628	0.000070
H106	H	1.806513	-0.130628	0.500070
F107	F	1.298581	-0.469741	0.000033
F108	F	1.798581	0.030259	0.500033
F109	F	1.244605	-0.094394	0.000058
F110	F	1.744605	0.405606	0.500058
H111	H	1.640376	0.019549	0.369576
H112	H	2.140376	0.519549	0.869576
