data_functionalizedCrystal
_audit_creation_method	'MofGen! by Chris Wilmer'
_symmetry_space_group_name_H-M	'P1'
_symmetry_Int_Tables_number	1
_symmetry_cell_setting	triclinic
loop_
_symmetry_equiv_pos_as_xyz
  x,y,z
_cell_length_a	18.215407
_cell_length_b	18.215405
_cell_length_c	17.077396
_cell_angle_alpha	90.028580
_cell_angle_beta	90.017277
_cell_angle_gamma	90.020175
loop_
_atom_site_label
_atom_site_type_symbol
_atom_site_fract_x
_atom_site_fract_y
_atom_site_fract_z
Zn1	Zn	1.125082	-0.293034	0.443796
Zn2	Zn	1.124995	-0.416108	0.312529
Zn3	Zn	1.002015	-0.293054	0.312549
Zn4	Zn	1.001985	-0.416058	0.443758
O5	O	1.063520	-0.354564	0.378158
O6	O	1.228055	-0.309373	0.426390
O7	O	1.108658	-0.399814	0.202685
O8	O	1.018389	-0.190067	0.329983
O9	O	1.227991	-0.399794	0.329950
O10	O	1.108806	-0.190053	0.426409
O11	O	1.018305	-0.309407	0.202699
O12	O	0.899027	-0.309359	0.329946
O13	O	1.018338	-0.399710	0.553610
O14	O	0.899005	-0.399729	0.426345
O15	O	1.108777	-0.309325	0.553638
O16	O	1.108629	-0.519086	0.329913
O17	O	1.018254	-0.519049	0.426326
C18	C	0.872313	-0.354541	0.378144
C19	C	0.790514	-0.354549	0.378157
C20	C	0.602353	-0.307564	0.428453
C21	C	0.525494	-0.307570	0.428456
C22	C	0.525438	-0.401585	0.327877
C23	C	0.602296	-0.401574	0.327871
C24	C	0.640751	-0.354565	0.378163
C25	C	0.487035	-0.354581	0.378172
C26	C	0.403701	-0.354589	0.378174
C27	C	0.724090	-0.354556	0.378160
C28	C	1.063449	-0.545770	0.378131
C29	C	1.063486	-0.627569	0.378146
C30	C	1.110589	-0.815694	0.428423
C31	C	1.110615	-0.892553	0.428438
C32	C	1.016541	-0.892681	0.327942
C33	C	1.016512	-0.815824	0.327931
C34	C	1.063539	-0.777332	0.378171
C35	C	1.063596	-0.931048	0.378196
C36	C	1.063625	-1.014382	0.378211
C37	C	1.063510	-0.693993	0.378157
C38	C	1.255472	-0.354587	0.378172
C39	C	1.337271	-0.354597	0.378178
C40	C	1.063564	-0.354510	0.582902
C41	C	1.063583	-0.354486	0.670152
C42	C	1.063610	-0.162611	0.378202
C43	C	1.063649	-0.080812	0.378221
C44	C	1.063518	-0.354565	0.174210
C45	C	1.063641	-0.354380	0.086961
C46	C	1.110676	-0.307419	0.711158
C47	C	1.110685	-0.307395	0.793138
C48	C	1.063604	-0.354442	0.834112
C49	C	1.016506	-0.401511	0.793100
C50	C	1.016494	-0.401531	0.711121
C51	C	1.016535	-0.401467	0.963970
C52	C	1.016548	-0.401448	1.045955
C53	C	1.110727	-0.307330	1.045988
C54	C	1.110715	-0.307350	0.964009
C55	C	1.063617	-0.354421	0.923003
H56	H	0.494119	-0.439859	0.286931
F57	F	0.966493	-0.933653	0.274477
H58	H	0.633661	-0.269283	0.469402
F59	F	1.160852	-0.257234	1.089630
F60	F	0.643164	-0.451596	0.274336
F61	F	0.966428	-0.774994	0.274448
F62	F	1.160791	-0.257348	0.667558
H63	H	1.148926	-0.923784	0.469359
F64	F	1.160828	-0.257282	0.920403
H65	H	1.149035	-0.269069	0.826522
F66	F	1.160638	-0.774731	0.481894
F67	F	0.966433	-0.451515	1.089560
F68	F	0.966407	-0.451564	0.920331
F69	F	0.966395	-0.451580	0.836709
H70	H	0.494233	-0.269296	0.469405
F71	F	0.966369	-0.451625	0.667480
