data_functionalizedCrystal
_audit_creation_method	'MofGen! by Chris Wilmer'
_symmetry_space_group_name_H-M	'P1'
_symmetry_Int_Tables_number	1
_symmetry_cell_setting	triclinic
loop_
_symmetry_equiv_pos_as_xyz
  x,y,z
_cell_length_a	13.897449
_cell_length_b	19.077068
_cell_length_c	13.897441
_cell_angle_alpha	87.735129
_cell_angle_beta	89.981404
_cell_angle_gamma	87.671720
loop_
_atom_site_label
_atom_site_type_symbol
_atom_site_fract_x
_atom_site_fract_y
_atom_site_fract_z
Zn1	Zn	1.459191	0.280161	-0.560773
Zn2	Zn	1.452582	0.397870	-0.405941
Zn3	Zn	1.297884	0.280193	-0.399493
Zn4	Zn	1.291356	0.397825	-0.567191
O5	O	1.375253	0.339012	-0.483350
O6	O	1.593296	0.295781	-0.540247
O7	O	1.432028	0.382291	-0.270106
O8	O	1.324780	0.181698	-0.415503
O9	O	1.588440	0.382261	-0.426492
O10	O	1.443291	0.181675	-0.533994
O11	O	1.318372	0.295835	-0.265368
O12	O	1.162037	0.295792	-0.421726
O13	O	1.313653	0.382185	-0.701320
O14	O	1.157240	0.382216	-0.544933
O15	O	1.436961	0.295738	-0.696604
O16	O	1.425697	0.496355	-0.432716
O17	O	1.307245	0.496322	-0.551186
C18	C	1.365072	0.521876	-0.493368
C19	C	1.360804	0.600106	-0.497686
C20	C	1.124639	0.339003	-0.483327
C21	C	1.017425	0.339016	-0.483341
C22	C	1.375316	0.338953	-0.734939
C23	C	1.375342	0.338928	-0.842152
C24	C	0.821130	0.339018	-0.483367
C25	C	0.930362	0.339015	-0.483350
C26	C	1.626846	0.339022	-0.483373
C27	C	1.734059	0.339027	-0.483383
C28	C	1.385501	0.155434	-0.473313
C29	C	1.389868	0.077205	-0.469036
C30	C	1.420519	0.636852	-0.438085
C31	C	1.416511	0.710357	-0.442152
C32	C	1.352782	0.747115	-0.505816
C33	C	1.293065	0.710364	-0.565424
C34	C	1.297079	0.636860	-0.561361
C35	C	1.334164	0.966949	-0.524581
C36	C	1.330153	1.040458	-0.528637
C37	C	1.453601	1.040447	-0.405366
C38	C	1.457605	0.966941	-0.401305
C39	C	1.397891	0.930197	-0.460916
N40	N	1.348682	0.822250	-0.509973
N41	N	1.401997	0.855064	-0.456764
C42	C	1.375363	0.338908	-0.929221
C43	C	1.375392	0.338876	-1.038452
C44	C	1.375250	0.339020	-0.232736
C45	C	1.375421	0.338847	-0.125513
H46	H	1.465136	0.740273	-0.393618
C47	C	1.499446	1.063146	-0.243330
C48	C	1.519241	1.080842	-0.339855
H49	H	1.539970	1.088089	-0.202889
H50	H	1.510961	1.014116	-0.231804
H51	H	1.433982	1.075244	-0.229832
H52	H	1.584703	1.068739	-0.353355
H53	H	1.507733	1.129883	-0.351386
C54	C	1.468834	0.614288	-0.273543
C55	C	1.490571	0.596452	-0.368101
H56	H	1.512088	0.589350	-0.230340
H57	H	1.404696	0.602285	-0.258711
H58	H	1.474991	0.663325	-0.267448
H59	H	1.484406	0.547415	-0.374198
H60	H	1.554725	0.608450	-0.382938
C61	C	1.171455	0.702987	-0.686870
C62	C	1.223016	0.750766	-0.635410
H63	H	1.128213	0.727930	-0.730081
H64	H	1.136144	0.674365	-0.643231
H65	H	1.215041	0.674270	-0.722213
H66	H	1.179430	0.779479	-0.600061
H67	H	1.258328	0.779399	-0.679056
H68	H	1.278269	1.070385	-0.580497
C69	C	1.211717	0.974354	-0.646810
C70	C	1.268509	0.926566	-0.590086
H71	H	1.171174	0.949420	-0.687243
H72	H	1.252156	1.002972	-0.685333
H73	H	1.173291	1.003074	-0.606319
H74	H	1.306939	0.897849	-0.630577
H75	H	1.228065	0.897936	-0.551559
H76	H	1.248454	0.606942	-0.609895
C77	C	1.475594	0.884352	-0.266996
C78	C	1.527661	0.926544	-0.331322
H79	H	1.518844	0.859417	-0.223785
H80	H	1.440616	0.851947	-0.301909
H81	H	1.432021	0.913081	-0.231656
H82	H	1.571229	0.897814	-0.366667
H83	H	1.562655	0.958953	-0.296405
