data_functionalizedCrystal
_audit_creation_method	'MofGen! by Chris Wilmer'
_symmetry_space_group_name_H-M	'P1'
_symmetry_Int_Tables_number	1
_symmetry_cell_setting	triclinic
loop_
_symmetry_equiv_pos_as_xyz
  x,y,z
_cell_length_a	17.077404
_cell_length_b	14.908520
_cell_length_c	17.077396
_cell_angle_alpha	86.732643
_cell_angle_beta	90.017244
_cell_angle_gamma	93.320938
loop_
_atom_site_label
_atom_site_type_symbol
_atom_site_fract_x
_atom_site_fract_y
_atom_site_fract_z
Zn1	Zn	1.182006	-0.359146	0.461867
Zn2	Zn	1.682006	0.140854	0.961867
Zn3	Zn	1.174344	-0.510020	0.338173
Zn4	Zn	1.674344	-0.010020	0.838173
Zn5	Zn	1.050741	-0.359180	0.330617
Zn6	Zn	1.550741	0.140820	0.830617
Zn7	Zn	1.043134	-0.509964	0.469394
Zn8	Zn	1.543134	-0.009964	0.969394
O9	O	1.112556	-0.434578	0.400013
O10	O	1.612556	0.065422	0.900013
O11	O	1.290836	-0.379169	0.445471
O12	O	1.790836	0.120831	0.945471
O13	O	1.157924	-0.490048	0.227326
O14	O	1.657924	0.009952	0.727326
O15	O	1.074544	-0.232931	0.341715
O16	O	1.574544	0.267069	0.841715
O17	O	1.285206	-0.490015	0.354594
O18	O	1.785206	0.009985	0.854594
O19	O	1.170984	-0.232906	0.438144
O20	O	1.670984	0.267094	0.938144
O21	O	1.067114	-0.379227	0.221774
O22	O	1.567114	0.120773	0.721774
O23	O	0.939886	-0.379173	0.349013
O24	O	1.439886	0.120827	0.849013
O25	O	1.061579	-0.489920	0.578240
O26	O	1.561579	0.010080	1.078240
O27	O	0.934297	-0.489953	0.450972
O28	O	1.434297	0.010047	0.950972
O29	O	1.163607	-0.379115	0.572711
O30	O	1.663607	0.120885	1.072711
O31	O	1.150548	-0.636257	0.361892
O32	O	1.650548	-0.136257	0.861892
O33	O	1.054149	-0.636216	0.458299
O34	O	1.554149	-0.136216	0.958299
C35	C	0.908609	-0.434561	0.399990
C36	C	1.408609	0.065439	0.899990
C37	C	0.821359	-0.434576	0.400000
C38	C	1.321359	0.065424	0.900000
C39	C	0.777474	-0.492346	0.453014
C40	C	1.277474	0.007654	0.953014
C41	C	0.695494	-0.492348	0.453027
C42	C	1.195494	0.007652	0.953027
C43	C	0.657399	-0.434584	0.400021
C44	C	1.157399	0.065416	0.900021
C45	C	0.701289	-0.376807	0.347005
C46	C	1.201289	0.123193	0.847005
C47	C	0.783268	-0.376801	0.346997
C48	C	1.283268	0.123199	0.846997
C49	C	0.530418	-0.376825	0.347025
C50	C	1.030418	0.123175	0.847025
C51	C	0.448433	-0.376832	0.347032
C52	C	0.948433	0.123168	0.847032
C53	C	0.442644	-0.492372	0.453055
C54	C	0.942644	0.007628	0.953055
C55	C	0.524623	-0.492366	0.453047
C56	C	1.024623	0.007634	0.953047
C57	C	0.568507	-0.434590	0.400029
C58	C	1.068507	0.065410	0.900029
C59	C	1.100713	-0.668971	0.411749
C60	C	1.600713	-0.168971	0.911749
C61	C	1.095718	-0.769245	0.416797
C62	C	1.595718	-0.269245	0.916797
C63	C	1.186815	-0.957653	0.325973
C64	C	1.686815	-0.457653	0.825973
C65	C	1.182125	-1.051870	0.330713
C66	C	1.682125	-0.551870	0.830713
C67	C	1.081650	-1.051897	0.431020
C68	C	1.581650	-0.551897	0.931020
C69	C	1.086341	-0.957680	0.426280
C70	C	1.586341	-0.457680	0.926280
C71	C	1.138924	-0.910561	0.373754
C72	C	1.638924	-0.410561	0.873754
C73	C	1.143610	-0.816343	0.369011
C74	C	1.643610	-0.316343	0.869011
C75	C	1.043141	-0.816372	0.469321
C76	C	1.543141	-0.316372	0.969321
C77	C	1.038450	-0.910589	0.474061
C78	C	1.538450	-0.410589	0.974061
C79	C	1.317300	-0.434595	0.400036
C80	C	1.817300	0.065405	0.900036
C81	C	1.404549	-0.434602	0.400046
C82	C	1.904549	0.065398	0.900046
C83	C	1.112599	-0.434508	0.604754
C84	C	1.612599	0.065492	1.104754
C85	C	1.112617	-0.434478	0.692002
C86	C	1.612617	0.065522	1.192002
C87	C	1.124467	-0.199269	0.388247
C88	C	1.624467	0.300731	0.888247
C89	C	1.129543	-0.098995	0.383234
C90	C	1.629543	0.401005	0.883234
C91	C	1.112562	-0.434582	0.196065
C92	C	1.612562	0.065418	0.696065
C93	C	1.112708	-0.434358	0.108804
C94	C	1.612708	0.065642	0.608804
C95	C	1.065348	-0.376766	0.730100
C96	C	1.565348	0.123234	1.230100
C97	C	1.065362	-0.376746	0.812080
C98	C	1.565362	0.123254	1.312080
C99	C	1.112650	-0.434433	0.855959
C100	C	1.612650	0.065567	1.355959
C101	C	1.159921	-0.492151	0.817855
C102	C	1.659921	0.007849	1.317855
C103	C	1.159902	-0.492175	0.735877
C104	C	1.659902	0.007825	1.235877
C105	C	1.159958	-0.492095	0.988722
C106	C	1.659958	0.007905	1.488722
C107	C	1.159978	-0.492069	1.070706
C108	C	1.659978	0.007931	1.570706
C109	C	1.065417	-0.376665	1.064925
C110	C	1.565417	0.123335	1.564925
C111	C	1.065399	-0.376690	0.982947
C112	C	1.565399	0.123310	1.482947
C113	C	1.112671	-0.434407	0.944849
C114	C	1.612671	0.065593	1.444849
H115	H	0.406909	-0.539413	0.496226
H116	H	0.906909	-0.039413	0.996226
H117	H	1.038845	-1.090277	0.473789
H118	H	1.538845	-0.590277	0.973789
H119	H	0.995640	-0.948966	0.516828
H120	H	1.495640	-0.448966	1.016828
H121	H	0.566147	-0.329770	0.303859
H122	H	1.066147	0.170230	0.803859
H123	H	1.186424	-0.777980	0.326239
H124	H	1.686424	-0.277980	0.826239
Cl125	Cl	0.400543	-0.304216	0.280392
Cl126	Cl	0.900543	0.195784	0.780392
Cl127	Cl	1.252906	-0.898415	0.259931
Cl128	Cl	1.752906	-0.398415	0.759931
Cl129	Cl	0.982921	-0.757166	0.529381
Cl130	Cl	1.482921	-0.257166	1.029381
H131	H	1.026897	-0.329711	0.947222
H132	H	1.526897	0.170289	1.447222
Cl133	Cl	1.242335	-1.111067	0.270645
Cl134	Cl	1.742335	-0.611067	0.770645
H135	H	0.818998	-0.329754	0.303831
H136	H	1.318998	0.170246	0.803831
Cl137	Cl	0.653398	-0.304182	0.280374
Cl138	Cl	1.153398	0.195818	0.780374
H139	H	1.026846	-0.329786	0.694379
H140	H	1.526846	0.170214	1.194379
Cl141	Cl	1.005896	-0.304233	0.859974
Cl142	Cl	1.505896	0.195767	1.359974
H143	H	1.198459	-0.539086	0.957705
H144	H	1.698459	-0.039086	1.457705
H145	H	0.808485	-0.539388	0.496175
H146	H	1.308485	-0.039388	0.996175
H147	H	1.026928	-0.329669	1.095948
H148	H	1.526928	0.170331	1.595948
H149	H	1.198419	-0.539126	0.853588
H150	H	1.698419	-0.039126	1.353588
Cl151	Cl	0.640328	-0.564978	0.519676
Cl152	Cl	1.140328	-0.064978	1.019676
Cl153	Cl	0.572513	-0.564992	0.519678
Cl154	Cl	1.072513	-0.064992	1.019678
Cl155	Cl	1.219431	-0.564586	1.125867
Cl156	Cl	1.719431	-0.064586	1.625867
Cl157	Cl	1.219325	-0.564734	0.687982
Cl158	Cl	1.719325	-0.064734	1.187982
