data_functionalizedCrystal
_audit_creation_method	'MofGen! by Chris Wilmer'
_symmetry_space_group_name_H-M	'P1'
_symmetry_Int_Tables_number	1
_symmetry_cell_setting	triclinic
loop_
_symmetry_equiv_pos_as_xyz
  x,y,z
_cell_length_a	10.654562
_cell_length_b	8.559649
_cell_length_c	9.730223
_cell_angle_alpha	90.000781
_cell_angle_beta	89.996961
_cell_angle_gamma	77.134384
loop_
_atom_site_label
_atom_site_type_symbol
_atom_site_fract_x
_atom_site_fract_y
_atom_site_fract_z
O1	O	1.644658	0.224273	-0.114372
O2	O	1.276977	0.245611	-0.114354
O3	O	1.493210	0.002701	-0.114363
O4	O	1.428425	0.467183	-0.114363
O5	O	1.493208	0.002707	0.114217
O6	O	1.276974	0.245617	0.114226
O7	O	1.644655	0.224279	0.114208
Zn8	Zn	1.460814	0.234949	0.150509
Zn9	Zn	1.460818	0.234941	-0.150655
O10	O	1.428422	0.467189	0.114217
C11	C	1.230340	0.244043	-0.000062
C12	C	1.091383	0.239343	-0.000055
C13	C	1.498119	-0.056771	-0.000076
C14	C	1.512733	-0.233989	-0.000084
C15	C	1.026078	0.237154	0.124533
C16	C	0.895510	0.232750	0.124510
C17	C	0.895565	0.232732	-0.124700
C18	C	1.026132	0.237124	-0.124676
C19	C	1.026044	0.237171	0.268413
C20	C	0.895476	0.232768	0.268390
C21	C	1.691292	0.225847	-0.000087
C22	C	1.830249	0.230547	-0.000103
C23	C	1.423513	0.526661	-0.000073
C24	C	1.408899	0.703879	-0.000074
N25	N	1.460821	0.234954	0.356045
N26	N	1.460822	0.234924	-0.356191
C27	C	1.556587	0.127430	0.427967
C28	C	1.556586	0.127410	0.571850
C29	C	1.365047	0.342453	0.571877
C30	C	1.365044	0.342463	0.427996
C31	C	1.667174	0.003281	0.427953
C32	C	1.667173	0.003262	0.571836
H33	H	1.079304	0.238881	-0.226128
H34	H	1.287054	0.430003	0.369439
Cl35	Cl	0.806412	0.403072	0.353665
H36	H	0.877912	0.116363	0.313036
Cl37	Cl	0.813529	0.229924	-0.281358
Cl38	Cl	1.115065	0.066877	0.353717
Cl39	Cl	1.053150	0.416893	0.337339
H40	H	1.612816	-0.316380	-0.000078
Cl41	Cl	1.254382	-0.168934	-0.000063
Cl42	Cl	1.244647	0.477600	0.662338
Cl43	Cl	1.653633	-0.186125	0.367648
Cl44	Cl	1.801741	0.063328	0.359036
H45	H	1.648636	-0.112674	0.616453
Cl46	Cl	1.811814	0.045479	0.632131
