data_functionalizedCrystal
_audit_creation_method	'MofGen! by Chris Wilmer'
_symmetry_space_group_name_H-M	'P1'
_symmetry_Int_Tables_number	1
_symmetry_cell_setting	triclinic
loop_
_symmetry_equiv_pos_as_xyz
  x,y,z
_cell_length_a	11.169417
_cell_length_b	13.897447
_cell_length_c	13.897449
_cell_angle_alpha	90.007994
_cell_angle_beta	90.001373
_cell_angle_gamma	90.020779
loop_
_atom_site_label
_atom_site_type_symbol
_atom_site_fract_x
_atom_site_fract_y
_atom_site_fract_z
Zn1	Zn	1.834671	-0.384155	0.545325
Zn2	Zn	2.084671	-0.134155	0.795325
Zn3	Zn	2.334671	0.115845	1.045325
Zn4	Zn	2.584671	0.365845	1.295325
Zn5	Zn	1.834591	-0.545417	0.384030
Zn6	Zn	2.084591	-0.295417	0.634030
Zn7	Zn	2.334591	-0.045417	0.884030
Zn8	Zn	2.584591	0.204583	1.134030
Zn9	Zn	1.634020	-0.384141	0.384050
Zn10	Zn	1.884020	-0.134141	0.634050
Zn11	Zn	2.134020	0.115859	0.884050
Zn12	Zn	2.384020	0.365859	1.134050
Zn13	Zn	1.633932	-0.545413	0.545290
Zn14	Zn	1.883932	-0.295413	0.795290
Zn15	Zn	2.133932	-0.045413	1.045290
Zn16	Zn	2.383932	0.204587	1.295290
O17	O	1.734304	-0.464782	0.464674
O18	O	1.984304	-0.214782	0.714674
O19	O	2.234304	0.035218	0.964674
O20	O	2.484304	0.285218	1.214674
O21	O	2.002610	-0.405554	0.523935
O22	O	2.252610	-0.155554	0.773935
O23	O	2.502610	0.094446	1.023935
O24	O	2.752610	0.344446	1.273935
O25	O	1.807989	-0.524019	0.249051
O26	O	2.057989	-0.274019	0.499051
O27	O	2.307989	-0.024019	0.749051
O28	O	2.557989	0.225981	0.999051
O29	O	1.660707	-0.249161	0.405467
O30	O	1.910707	0.000839	0.655467
O31	O	2.160707	0.250839	0.905467
O32	O	2.410707	0.500839	1.155467
O33	O	2.002552	-0.524032	0.405432
O34	O	2.252552	-0.274032	0.655432
O35	O	2.502552	-0.024032	0.905432
O36	O	2.752552	0.225968	1.155432
O37	O	1.808124	-0.249172	0.523955
O38	O	2.058124	0.000828	0.773955
O39	O	2.308124	0.250828	1.023955
O40	O	2.558124	0.500828	1.273955
O41	O	1.660630	-0.405530	0.249066
O42	O	1.910630	-0.155530	0.499066
O43	O	2.160630	0.094470	0.749066
O44	O	2.410630	0.344470	0.999066
O45	O	1.466059	-0.405527	0.405433
O46	O	1.716059	-0.155527	0.655433
O47	O	1.966059	0.094473	0.905433
O48	O	2.216059	0.344473	1.155433
O49	O	1.660557	-0.524027	0.680276
O50	O	1.910557	-0.274027	0.930276
O51	O	2.160557	-0.024027	1.180276
O52	O	2.410557	0.225973	1.430276
O53	O	1.465994	-0.524013	0.523895
O54	O	1.715994	-0.274013	0.773895
O55	O	1.965994	-0.024013	1.023895
O56	O	2.215994	0.225987	1.273895
O57	O	1.808039	-0.405551	0.680302
O58	O	2.058039	-0.155551	0.930302
O59	O	2.308039	0.094449	1.180302
O60	O	2.558039	0.344449	1.430302
O61	O	1.807903	-0.680398	0.405398
O62	O	2.057903	-0.430398	0.655398
O63	O	2.307903	-0.180398	0.905398
O64	O	2.557903	0.069602	1.155398
O65	O	1.660480	-0.680395	0.523875
O66	O	1.910480	-0.430395	0.773875
O67	O	2.160480	-0.180395	1.023875
O68	O	2.410480	0.069605	1.273875
C69	C	1.422479	-0.464769	0.464663
C70	C	1.672479	-0.214769	0.714663
C71	C	1.922479	0.035231	0.964663
C72	C	2.172479	0.285231	1.214663
C73	C	1.289079	-0.464786	0.464681
C74	C	1.539079	-0.214786	0.714681
C75	C	1.789079	0.035214	0.964681
C76	C	2.039079	0.285214	1.214681
C77	C	1.734206	-0.715396	0.464651
C78	C	1.984206	-0.465396	0.714651
C79	C	2.234206	-0.215396	0.964651
C80	C	2.484206	0.034604	1.214651
C81	C	1.734274	-0.822610	0.464674
C82	C	1.984274	-0.572610	0.714674
C83	C	2.234274	-0.322610	0.964674
C84	C	2.484274	-0.072610	1.214674
C85	C	1.734332	-0.909680	0.464696
C86	C	1.984332	-0.659680	0.714696
C87	C	2.234332	-0.409680	0.964696
C88	C	2.484332	-0.159680	1.214696
C89	C	1.734416	-1.018912	0.464721
C90	C	1.984416	-0.768912	0.714721
C91	C	2.234416	-0.518912	0.964721
C92	C	2.484416	-0.268912	1.214721
C93	C	2.047346	-0.464795	0.464685
C94	C	2.297346	-0.214795	0.714685
C95	C	2.547346	0.035205	0.964685
C96	C	2.797346	0.285205	1.214685
C97	C	2.180746	-0.464801	0.464690
C98	C	2.430746	-0.214801	0.714690
C99	C	2.680746	0.035199	0.964690
C100	C	2.930746	0.285199	1.214690
C101	C	1.734297	-0.464790	0.716267
C102	C	1.984297	-0.214790	0.966267
C103	C	2.234297	0.035210	1.216267
C104	C	2.484297	0.285210	1.466267
C105	C	1.734294	-0.464794	0.823481
C106	C	1.984294	-0.214794	1.073481
C107	C	2.234294	0.035206	1.323481
C108	C	2.484294	0.285206	1.573481
C109	C	1.734434	-0.213189	0.464717
C110	C	1.984434	0.036811	0.714717
C111	C	2.234434	0.286811	0.964717
C112	C	2.484434	0.536811	1.214717
C113	C	1.734490	-0.105975	0.464736
C114	C	1.984490	0.144025	0.714736
C115	C	2.234490	0.394025	0.964736
C116	C	2.484490	0.644025	1.214736
C117	C	1.734290	-0.464797	0.910550
C118	C	1.984290	-0.214797	1.160550
C119	C	2.234290	0.035203	1.410550
C120	C	2.484290	0.285203	1.660550
C121	C	1.734290	-0.464793	1.019783
C122	C	1.984290	-0.214793	1.269783
C123	C	2.234290	0.035207	1.519783
C124	C	2.484290	0.285207	1.769783
C125	C	1.734299	-0.464793	1.214059
C126	C	1.984299	-0.214793	1.464059
C127	C	2.234299	0.035207	1.714059
C128	C	2.484299	0.285207	1.964059
C129	C	1.734295	-0.464784	1.106845
C130	C	1.984295	-0.214784	1.356845
C131	C	2.234295	0.035216	1.606845
C132	C	2.484295	0.285216	1.856845
