data_functionalizedCrystal
_audit_creation_method	'MofGen! by Chris Wilmer'
_symmetry_space_group_name_H-M	'P1'
_symmetry_Int_Tables_number	1
_symmetry_cell_setting	triclinic
loop_
_symmetry_equiv_pos_as_xyz
  x,y,z
_cell_length_a	14.519709
_cell_length_b	10.654550
_cell_length_c	9.130313
_cell_angle_alpha	89.996987
_cell_angle_beta	89.999908
_cell_angle_gamma	95.917476
loop_
_atom_site_label
_atom_site_type_symbol
_atom_site_fract_x
_atom_site_fract_y
_atom_site_fract_z
O1	O	0.129525	-1.666588	0.121923
O2	O	0.629525	-1.166588	0.621923
O3	O	0.141866	-1.300991	0.121900
O4	O	0.641866	-0.800991	0.621900
O5	O	0.001507	-1.493482	0.121899
O6	O	0.501507	-0.993482	0.621899
O7	O	0.269884	-1.474096	0.121924
O8	O	0.769884	-0.974096	0.621924
O9	O	0.001517	-1.493482	-0.121700
O10	O	0.501517	-0.993482	0.378300
O11	O	0.141876	-1.300990	-0.121699
O12	O	0.641876	-0.800990	0.378301
O13	O	0.129535	-1.666587	-0.121676
O14	O	0.629535	-1.166587	0.378324
Cu15	Cu	0.135706	-1.483789	-0.143930
Cu16	Cu	0.635706	-0.983789	0.356070
Cu17	Cu	0.135695	-1.483789	0.144154
Cu18	Cu	0.635695	-0.983789	0.644154
O19	O	0.269894	-1.474095	-0.121675
O20	O	0.769894	-0.974095	0.378325
C21	C	0.140965	-1.254201	0.000098
C22	C	0.640965	-0.754201	0.500098
C23	C	0.138254	-1.114784	0.000088
C24	C	0.638254	-0.614784	0.500088
C25	C	-0.032852	-1.492579	0.000099
C26	C	0.467148	-0.992579	0.500099
C27	C	-0.135247	-1.489871	0.000098
C28	C	0.364753	-0.989871	0.500098
N29	N	0.135714	-1.483797	-0.346552
N30	N	0.635714	-0.983797	0.153448
C31	C	-0.510195	-1.479904	0.000136
C32	C	-0.010195	-0.979904	0.500136
C33	C	-0.405873	-1.482672	0.000125
C34	C	0.094127	-0.982672	0.500125
C35	C	-0.322725	-1.484887	0.000116
C36	C	0.177275	-0.984887	0.500116
C37	C	-0.218396	-1.487656	0.000108
C38	C	0.281604	-0.987656	0.500108
C39	C	0.304253	-1.474999	0.000128
C40	C	0.804253	-0.974999	0.500128
C41	C	0.406648	-1.477707	0.000139
C42	C	0.906648	-0.977707	0.500139
C43	C	0.130436	-1.713377	0.000130
C44	C	0.630436	-1.213377	0.500130
C45	C	0.133147	-1.852794	0.000149
C46	C	0.633147	-1.352794	0.500149
C47	C	0.220895	-1.034504	0.000117
C48	C	0.720895	-0.534504	0.500117
C49	C	0.218342	-0.903507	0.000143
C50	C	0.718342	-0.403507	0.500143
C51	C	0.050500	-0.933085	0.000116
C52	C	0.550500	-0.433085	0.500116
C53	C	0.053054	-1.064078	0.000080
C54	C	0.553054	-0.564078	0.500080
C55	C	0.317797	-1.017426	0.000139
C56	C	0.817797	-0.517426	0.500139
C57	C	0.315244	-0.886430	0.000164
C58	C	0.815244	-0.386430	0.500164
C59	C	0.197818	-1.398541	-0.576579
C60	C	0.697818	-0.898541	-0.076579
C61	C	0.197833	-1.398541	-0.423243
C62	C	0.697833	-0.898541	0.076757
C63	C	0.073569	-1.569051	-0.423207
C64	C	0.573569	-1.069051	0.076793
C65	C	0.073550	-1.569044	-0.576541
C66	C	0.573550	-1.069044	-0.076541
C67	C	0.269564	-1.300102	-0.576599
C68	C	0.769564	-0.800102	-0.076599
C69	C	0.269580	-1.300102	-0.423262
C70	C	0.769580	-0.800102	0.076738
N71	N	0.135680	-1.483790	0.346777
N72	N	0.635680	-0.983790	0.846777
H73	H	-0.014241	-1.129439	0.000035
H74	H	0.485759	-0.629439	0.500035
N75	N	0.361032	-0.833621	0.128065
N76	N	0.861032	-0.333621	0.628065
N77	N	0.430070	-0.753985	0.115534
N78	N	0.930070	-0.253985	0.615534
H79	H	0.462404	-0.716693	0.205865
H80	H	0.962404	-0.216693	0.705865
H81	H	0.344534	-0.840477	-0.105001
H82	H	0.844534	-0.340477	0.394999
N83	N	0.010058	-1.656114	-0.654809
N84	N	0.510058	-1.156114	-0.154809
N85	N	-0.045409	-1.732220	-0.586321
N86	N	0.454591	-1.232220	-0.086321
H87	H	-0.090255	-1.793717	-0.641596
H88	H	0.409745	-1.293717	-0.141596
N89	N	0.010110	-1.656118	-0.344852
N90	N	0.510110	-1.156118	0.155148
N91	N	0.010129	-1.656107	-0.207948
N92	N	0.510129	-1.156107	0.292052
H93	H	-0.034689	-1.717600	-0.152610
H94	H	0.465311	-1.217600	0.347390
H95	H	0.247128	-1.209129	-0.375697
H96	H	0.747128	-0.709129	0.124303
N97	N	-0.036518	-0.881266	0.000098
N98	N	0.463482	-0.381266	0.500098
N99	N	-0.038788	-0.764307	0.000117
N100	N	0.461212	-0.264307	0.500117
H101	H	-0.100246	-0.727710	0.000104
H102	H	0.399754	-0.227710	0.500104
H103	H	0.355700	-1.046393	-0.101809
H104	H	0.855700	-0.546393	0.398191
H105	H	0.348648	-1.052785	0.105314
H106	H	0.848648	-0.552785	0.605314
H107	H	0.253767	-1.203737	-0.618202
H108	H	0.753767	-0.703737	-0.118202
H109	H	0.340472	-1.320864	-0.381669
H110	H	0.840472	-0.820864	0.118331
H111	H	0.336535	-1.329980	-0.624181
H112	H	0.836535	-0.829980	-0.124181
