data_functionalizedCrystal
_audit_creation_method	'MofGen! by Chris Wilmer'
_symmetry_space_group_name_H-M	'P1'
_symmetry_Int_Tables_number	1
_symmetry_cell_setting	triclinic
loop_
_symmetry_equiv_pos_as_xyz
  x,y,z
_cell_length_a	15.944551
_cell_length_b	15.944493
_cell_length_c	9.130307
_cell_angle_alpha	89.999396
_cell_angle_beta	89.999495
_cell_angle_gamma	83.486891
loop_
_atom_site_label
_atom_site_type_symbol
_atom_site_fract_x
_atom_site_fract_y
_atom_site_fract_z
O1	O	1.114501	0.108336	0.121627
O2	O	0.869948	0.121692	0.121661
O3	O	0.998928	-0.007264	0.121656
O4	O	0.985521	0.237292	0.121633
O5	O	0.998919	-0.007270	-0.121943
O6	O	0.869939	0.121687	-0.121938
O7	O	1.114491	0.108330	-0.121972
Cu8	Cu	0.992214	0.115008	-0.144197
Cu9	Cu	0.992226	0.115014	0.143887
O10	O	0.985511	0.237287	-0.121966
C11	C	0.838650	0.121135	-0.000133
C12	C	0.745404	0.119473	-0.000119
C13	C	0.998375	-0.038562	-0.000138
C14	C	0.996733	-0.131810	-0.000119
C15	C	0.530565	0.035566	-0.000140
C16	C	0.469541	0.074532	0.119963
C17	C	0.574679	0.116465	-0.000136
C18	C	0.469554	0.074546	-0.120206
C19	C	0.409767	0.113555	-0.000159
C20	C	0.514884	0.155454	0.120066
C21	C	0.514903	0.155456	-0.120211
C22	C	0.453897	0.194481	-0.000078
C23	C	0.669681	0.118140	-0.000122
C24	C	0.314766	0.111886	-0.000163
C25	C	1.072653	-0.367570	-0.000157
C26	C	1.031717	-0.418136	0.119955
C27	C	0.993688	-0.302531	-0.000136
C28	C	1.031689	-0.418117	-0.120215
C29	C	0.990754	-0.467441	-0.000160
C30	C	0.952774	-0.351868	0.120075
C31	C	0.952757	-0.351846	-0.120203
C32	C	0.911763	-0.402379	-0.000061
C33	C	0.995381	-0.207531	-0.000122
C34	C	0.989055	-0.562438	-0.000164
C35	C	1.145790	0.108887	-0.000174
C36	C	1.239036	0.110550	-0.000178
C37	C	0.986064	0.268584	-0.000170
C38	C	0.987707	0.361833	-0.000179
N39	N	0.992212	0.115003	-0.346820
C40	C	0.890357	0.013036	-0.346855
C41	C	0.839439	-0.037950	-0.423539
C42	C	0.839451	-0.037950	-0.576872
C43	C	0.890385	0.013042	-0.653525
C44	C	0.941304	0.064028	-0.576841
C45	C	0.941288	0.064021	-0.423504
C46	C	1.043153	0.165998	-0.576806
C47	C	1.043146	0.165996	-0.423473
C48	C	1.094087	0.216991	-0.653459
C49	C	1.145011	0.267973	-0.576775
C50	C	1.144997	0.267971	-0.423432
C51	C	1.094065	0.216981	-0.346789
N52	N	0.992234	0.115013	0.346510
H53	H	0.563912	-0.031574	0.000015
O54	O	0.821590	-0.422846	0.000022
H55	H	0.810439	-0.460588	0.098837
O56	O	1.199916	0.322964	-0.340722
H57	H	1.235335	0.358415	-0.419789
H58	H	1.065049	-0.447050	-0.221753
H59	H	0.890349	0.013025	-0.222003
H60	H	1.094089	0.216991	-0.778311
H61	H	0.797968	-0.079465	-0.361111
H62	H	0.919449	-0.323046	0.221729
H63	H	0.797985	-0.079463	-0.639308
H64	H	0.449442	0.040317	0.221509
H65	H	0.890383	0.013045	-0.778377
H66	H	0.534868	0.189647	0.221715
H67	H	0.420724	0.261690	-0.000017
H68	H	0.919434	-0.322888	-0.221744
O69	O	1.199951	0.322960	-0.659442
H70	H	1.191408	0.314391	-0.778947
O71	O	1.094048	0.216985	-0.181407
H72	H	1.050071	0.172968	-0.140996
H73	H	0.535023	0.189643	-0.221761
O74	O	0.442955	0.029212	-0.254715
H75	H	0.473973	-0.036726	-0.254446
H76	H	1.140671	-0.351942	-0.000046
O77	O	1.075890	-0.456495	0.254441
H78	H	1.142627	-0.442866	0.254184
