data_functionalizedCrystal
_audit_creation_method	'MofGen! by Chris Wilmer'
_symmetry_space_group_name_H-M	'P1'
_symmetry_Int_Tables_number	1
_symmetry_cell_setting	triclinic
loop_
_symmetry_equiv_pos_as_xyz
  x,y,z
_cell_length_a	19.120904
_cell_length_b	12.827893
_cell_length_c	12.827892
_cell_angle_alpha	90.015362
_cell_angle_beta	87.582710
_cell_angle_gamma	87.575240
loop_
_atom_site_label
_atom_site_type_symbol
_atom_site_fract_x
_atom_site_fract_y
_atom_site_fract_z
Zn1	Zn	-0.397100	-1.572422	0.441262
Zn2	Zn	0.102900	-1.072422	0.941262
Zn3	Zn	-0.279660	-1.579783	0.608563
Zn4	Zn	0.220340	-1.079783	1.108563
Zn5	Zn	-0.279669	-1.405130	0.433837
Zn6	Zn	0.220331	-0.905130	0.933837
Zn7	Zn	-0.397073	-1.397650	0.615960
Zn8	Zn	0.102927	-0.897650	1.115960
O9	O	-0.338375	-1.488746	0.524906
O10	O	0.161625	-0.988746	1.024906
O11	O	-0.381528	-1.719634	0.463467
O12	O	0.118472	-1.219634	0.963467
O13	O	-0.181378	-1.562826	0.579183
O14	O	0.318622	-1.062826	1.079183
O15	O	-0.295261	-1.427371	0.288587
O16	O	0.204739	-0.927371	0.788587
O17	O	-0.295246	-1.725042	0.586382
O18	O	0.204754	-1.225042	1.086382
O19	O	-0.381537	-1.550280	0.294042
O20	O	0.118463	-1.050280	0.794042
O21	O	-0.181385	-1.434508	0.450813
O22	O	0.318615	-0.934508	0.950813
O23	O	-0.295235	-1.257902	0.457985
O24	O	0.204765	-0.757902	0.957985
O25	O	-0.495359	-1.414624	0.598989
O26	O	0.004641	-0.914624	1.098989
O27	O	-0.381492	-1.252407	0.591789
O28	O	0.118508	-0.752407	1.091789
O29	O	-0.495379	-1.543028	0.470639
O30	O	0.004621	-1.043028	0.970639
O31	O	-0.295220	-1.555573	0.755780
O32	O	0.204780	-1.055573	1.255780
O33	O	-0.381483	-1.421761	0.761214
O34	O	0.118517	-0.921761	1.261214
C35	C	-0.338362	-1.217237	0.524885
C36	C	0.161638	-0.717237	1.024885
C37	C	-0.338373	-1.101083	0.524902
C38	C	0.161627	-0.601083	1.024902
C39	C	-0.521565	-1.477170	0.536467
C40	C	-0.021565	-0.977170	1.036467
C41	C	-0.599630	-1.472237	0.541394
C42	C	-0.099630	-0.972237	1.041394
C43	C	-0.338363	-1.488682	0.796415
C44	C	0.161637	-0.988682	1.296415
C45	C	-0.338381	-1.488748	0.912569
C46	C	0.161619	-0.988748	1.412569
C47	C	-0.636316	-1.536769	0.476887
C48	C	-0.136316	-1.036769	0.976887
C49	C	-0.709666	-1.532121	0.481512
C50	C	-0.209666	-1.032121	0.981512
C51	C	-0.746329	-1.462946	0.550650
C52	C	-0.246329	-0.962946	1.050650
C53	C	-0.709637	-1.398407	0.615160
C54	C	-0.209637	-0.898407	1.115160
C55	C	-0.636288	-1.403050	0.610529
C56	C	-0.136288	-0.903050	1.110529
C57	C	-0.967794	-1.445577	0.567972
C58	C	-0.467794	-0.945577	1.067972
C59	C	-1.041147	-1.440941	0.572600
C60	C	-0.541147	-0.940941	1.072600
C61	C	-1.041171	-1.574655	0.438950
C62	C	-0.541171	-1.074655	0.938950
C63	C	-0.967821	-1.579296	0.434329
C64	C	-0.467821	-1.079296	0.934329
C65	C	-0.931136	-1.514753	0.498835
C66	C	-0.431136	-1.014753	0.998835
C67	C	-0.821304	-1.458196	0.555382
C68	C	-0.321304	-0.958196	1.055382
C69	C	-0.856162	-1.519499	0.494098
C70	C	-0.356162	-1.019499	0.994098
C71	C	-0.155898	-1.500337	0.513314
C72	C	0.344102	-1.000337	1.013314
C73	C	-0.077834	-1.505473	0.508093
C74	C	0.422166	-1.005473	1.008093
C75	C	-0.338389	-1.761316	0.524928
C76	C	0.161611	-1.261316	1.024928
C77	C	-0.338395	-1.877468	0.524937
C78	C	0.161605	-1.377468	1.024937
C79	C	-0.380989	-1.046611	0.591208
C80	C	0.119011	-0.546611	1.091208
C81	C	-0.381002	-0.926560	0.591227
C82	C	0.118998	-0.426560	1.091227
C83	C	-0.338403	-1.488839	0.252337
C84	C	0.161597	-0.988839	0.752337
C85	C	-0.338415	-1.488878	0.136185
C86	C	0.161585	-0.988878	0.636185
C87	C	-0.295743	-1.555035	0.961633
C88	C	0.204257	-1.055035	1.461633
C89	C	-0.295761	-1.555105	1.081685
C90	C	0.204239	-1.055105	1.581685
H91	H	-0.606471	-1.593103	0.420590
H92	H	-0.106471	-1.093103	0.920590
H93	H	-1.071048	-1.627200	0.386432
H94	H	-0.571048	-1.127200	0.886432
H95	H	-0.301905	-0.924296	0.468171
H96	H	0.198095	-0.424296	0.968171
H97	H	-0.259255	-1.611853	1.123889
H98	H	0.240745	-1.111853	1.623889
H99	H	-0.374901	-1.432054	0.959441
H100	H	0.125099	-0.932054	1.459441
H101	H	-0.739533	-1.584673	0.428986
H102	H	-0.239533	-1.084673	0.928986
H103	H	-0.937976	-1.635629	0.378032
H104	H	-0.437976	-1.135629	0.878032
H105	H	-0.374918	-1.432120	1.093988
H106	H	0.125082	-0.932120	1.593988
H107	H	-0.259228	-1.611738	0.914764
H108	H	0.240772	-1.111738	1.414764
H109	H	-1.070996	-1.384607	0.628904
H110	H	-0.570996	-0.884607	1.128904
H111	H	-0.937934	-1.393037	0.620512
H112	H	-0.437934	-0.893037	1.120512
H113	H	-0.739494	-1.342079	0.671450
H114	H	-0.239494	-0.842079	1.171450
H115	H	-0.606419	-1.350491	0.663047
H116	H	-0.106419	-0.850491	1.163047
H117	H	-0.826308	-1.575817	0.437801
H118	H	-0.326308	-1.075817	0.937801
H119	H	-0.417485	-0.879726	0.647997
H120	H	0.082515	-0.379726	1.147997
H121	H	-0.851163	-1.401878	0.611679
H122	H	-0.351163	-0.901878	1.111679
H123	H	-0.417468	-1.088853	0.647957
H124	H	0.082532	-0.588853	1.147957
H125	H	-0.301899	-1.058841	0.468146
H126	H	0.198101	-0.558841	0.968146
