data_functionalizedCrystal
_audit_creation_method	'MofGen! by Chris Wilmer'
_symmetry_space_group_name_H-M	'P1'
_symmetry_Int_Tables_number	1
_symmetry_cell_setting	triclinic
loop_
_symmetry_equiv_pos_as_xyz
  x,y,z
_cell_length_a	12.645330
_cell_length_b	19.805407
_cell_length_c	19.805399
_cell_angle_alpha	90.024201
_cell_angle_beta	90.021721
_cell_angle_gamma	90.016939
loop_
_atom_site_label
_atom_site_type_symbol
_atom_site_fract_x
_atom_site_fract_y
_atom_site_fract_z
Zn1	Zn	-0.422085	1.034777	0.382831
Zn2	Zn	-0.599363	1.034709	0.269654
Zn3	Zn	-0.422112	0.921591	0.269646
Zn4	Zn	-0.599305	0.921572	0.382792
O5	O	-0.510716	0.978162	0.326231
O6	O	-0.445615	1.129484	0.367837
O7	O	-0.575886	1.019683	0.174936
O8	O	-0.273761	0.936642	0.284673
O9	O	-0.575860	1.129434	0.284687
O10	O	-0.273741	1.019799	0.367830
O11	O	-0.445661	0.936576	0.174931
O12	O	-0.445604	0.826872	0.284636
O13	O	-0.575760	0.936609	0.477514
O14	O	-0.575786	0.826858	0.367763
O15	O	-0.445558	1.019780	0.477542
O16	O	-0.747703	1.019664	0.284649
O17	O	-0.747660	0.936543	0.367771
C18	C	-0.510692	0.802306	0.326195
C19	C	-0.510708	0.727074	0.326195
C20	C	-0.786146	0.978113	0.326221
C21	C	-0.903976	0.978154	0.326240
C22	C	-0.578630	0.265294	0.369491
C23	C	-0.578628	0.335982	0.369476
C24	C	-0.510742	0.371313	0.326257
C25	C	-0.442861	0.335951	0.283045
C26	C	-0.442869	0.265264	0.283056
C27	C	-0.442828	0.621024	0.282997
C28	C	-0.442823	0.691716	0.282991
C29	C	-0.578588	0.691742	0.369417
C30	C	-0.578596	0.621055	0.369429
C31	C	-0.510719	0.585700	0.326214
C32	C	-0.510723	0.509051	0.326229
C33	C	-0.510732	0.447960	0.326245
C34	C	-1.071557	0.926078	0.378693
C35	C	-0.948998	0.925811	0.378524
C36	C	-0.948564	0.958847	0.254906
C37	C	-1.071162	0.958530	0.255224
C38	C	-1.071068	1.049854	0.344542
C39	C	-0.948462	1.049415	0.346102
C40	C	-0.234211	0.978230	0.326255
C41	C	-0.116381	0.978259	0.326265
C42	C	-0.510650	0.978200	0.502774
C43	C	-0.510621	0.978216	0.578006
C44	C	-0.510741	1.154705	0.326267
C45	C	-0.510752	1.229937	0.326283
C46	C	-0.510706	0.978163	0.150375
C47	C	-0.510436	0.978278	0.075143
C48	C	-0.442821	1.021524	0.613366
C49	C	-0.442791	1.021531	0.684054
C50	C	-0.510566	0.978233	0.719381
C51	C	-0.578369	0.934920	0.684016
C52	C	-0.578393	0.934910	0.613329
C53	C	-0.578270	0.934959	0.969089
C54	C	-0.578242	0.934973	1.039782
C55	C	-0.442667	1.021579	1.039815
C56	C	-0.442692	1.021570	0.969128
C57	C	-0.510490	0.978255	0.933769
C58	C	-0.510521	0.978247	0.857120
C59	C	-0.510541	0.978244	0.796028
H60	H	-0.633905	0.236533	0.404688
Br61	Br	-0.350822	1.080341	0.732041
Br62	Br	-0.350651	1.080365	1.087806
Br63	Br	-0.670231	0.876208	1.087725
Br64	Br	-0.670280	0.876172	0.921111
Br65	Br	-0.670758	0.383964	0.428115
Br66	Br	-0.900258	0.837344	0.358347
H67	H	-0.633548	0.899664	0.712785
H68	H	-0.633592	0.899638	0.584539
Br69	Br	-0.670724	0.573110	0.428089
H70	H	-0.918848	0.937890	0.431418
Br71	Br	-0.897363	1.117631	0.287099
Br72	Br	-0.899967	1.020185	0.188015
Br73	Br	-0.670714	0.739728	0.428064
Br74	Br	-1.119400	1.114655	0.280910
H75	H	-1.099851	0.906193	0.239742
Br76	Br	-0.350684	0.739665	0.224333
Br77	Br	-0.899888	1.073685	0.433603
Br78	Br	-0.350734	0.383899	0.224385
Br79	Br	-0.350700	0.573051	0.224355
Br80	Br	-0.350844	1.080295	0.565429
H81	H	-0.387592	0.236477	0.247874
Br82	Br	-1.120588	0.946020	0.467145
Br83	Br	-1.120595	1.019119	0.187893
Br84	Br	-0.897547	0.872525	0.228633
Br85	Br	-1.123084	0.838167	0.358787
H86	H	-1.101917	1.067466	0.395675
H87	H	-0.387506	1.056830	0.940368
