data_functionalizedCrystal
_audit_creation_method	'MofGen! by Chris Wilmer'
_symmetry_space_group_name_H-M	'P1'
_symmetry_Int_Tables_number	1
_symmetry_cell_setting	triclinic
loop_
_symmetry_equiv_pos_as_xyz
  x,y,z
_cell_length_a	16.109302
_cell_length_b	16.109301
_cell_length_c	15.186229
_cell_angle_alpha	90.013398
_cell_angle_beta	90.009858
_cell_angle_gamma	83.461631
loop_
_atom_site_label
_atom_site_type_symbol
_atom_site_fract_x
_atom_site_fract_y
_atom_site_fract_z
O1	O	1.103135	0.106878	0.073271
O2	O	0.861073	0.120177	0.073264
O3	O	0.988753	-0.007503	0.073259
O4	O	0.975454	0.234559	0.073276
O5	O	0.988736	-0.007524	-0.073198
O6	O	0.861055	0.120156	-0.073193
O7	O	1.103117	0.106858	-0.073186
Zn8	Zn	0.982084	0.113504	-0.096443
Zn9	Zn	0.982106	0.113531	0.096521
O10	O	0.975437	0.234538	-0.073181
C11	C	0.830089	0.119628	0.000035
C12	C	0.737794	0.118013	0.000032
C13	C	0.525444	0.114266	-0.079793
C14	C	0.438724	0.112739	-0.079790
C15	C	0.438753	0.112766	0.079885
C16	C	0.525472	0.114287	0.079881
C17	C	0.568815	0.115041	0.000039
C18	C	0.395375	0.111994	0.000046
C19	C	0.301350	0.110338	0.000050
C20	C	0.662847	0.116695	0.000035
C21	C	0.988206	-0.038488	0.000030
C22	C	0.986591	-0.130784	0.000028
C23	C	1.058599	-0.353056	0.000044
C24	C	1.057074	-0.439776	0.000052
C25	C	0.905586	-0.419902	0.000044
C26	C	0.907111	-0.333184	0.000043
C27	C	0.983620	-0.299763	0.000039
C28	C	0.980571	-0.473202	0.000047
C29	C	0.978918	-0.567228	0.000055
C30	C	0.985273	-0.205731	0.000033
C31	C	1.134101	0.107407	0.000045
C32	C	1.226396	0.109022	0.000054
C33	C	0.975984	0.265523	0.000050
C34	C	0.977599	0.357819	0.000057
N35	N	0.982074	0.113485	-0.228136
C36	C	0.931693	0.063082	-0.546093
C37	C	0.931686	0.063070	-0.453903
C38	C	1.032509	0.163949	-0.453835
C39	C	1.032520	0.163956	-0.546023
C40	C	0.982107	0.113524	-0.592150
C41	C	0.982089	0.113505	-0.407772
C42	C	0.982082	0.113492	-0.307816
C43	C	0.982116	0.113535	-0.692112
N44	N	0.982123	0.113543	0.228214
H45	H	0.403453	0.112153	0.144890
H46	H	1.120897	-0.325848	0.000043
H47	H	0.560786	0.114916	0.144895
H48	H	1.073553	0.205009	-0.416268
H49	H	0.890644	0.022016	-0.583646
C50	C	0.877026	0.008343	-0.403740
C51	C	0.887816	0.019114	-0.313132
C52	C	0.837479	-0.031293	-0.266894
H53	H	0.820112	0.023739	-0.418759
H54	H	0.892487	-0.048560	-0.418809
H55	H	0.872350	0.076005	-0.298068
H56	H	0.944719	0.003713	-0.298086
H57	H	0.852940	-0.088195	-0.281964
H58	H	0.780569	-0.015893	-0.281921
H59	H	0.844799	-0.023997	-0.205413
C60	C	1.087398	0.218669	-0.595921
C61	C	1.171174	0.195767	-0.573460
C62	C	1.221751	0.246153	-0.619399
H63	H	1.080297	0.211495	-0.657444
H64	H	1.071985	0.275563	-0.580782
H65	H	1.186583	0.138888	-0.588605
H66	H	1.178301	0.202945	-0.511945
H67	H	1.206337	0.303046	-0.604259
H68	H	1.214643	0.238974	-0.680920
H69	H	1.278598	0.230626	-0.604159
C70	C	0.572359	0.115029	-0.166568
C71	C	0.515814	0.113999	-0.236481
C72	C	0.559002	0.114687	-0.316432
H73	H	0.599839	0.164062	-0.170017
H74	H	0.612526	0.067147	-0.169935
H75	H	0.475662	0.161877	-0.233116
H76	H	0.488332	0.064970	-0.233061
H77	H	0.599169	0.066804	-0.319799
H78	H	0.586480	0.163720	-0.319872
H79	H	0.520644	0.113980	-0.363877
H80	H	0.403415	0.112109	-0.144798
H81	H	0.843295	-0.447124	0.000046
C82	C	1.138571	-0.497499	0.000010
C83	C	1.205896	-0.449666	-0.000016
C84	C	1.280987	-0.502811	-0.000065
H85	H	1.141252	-0.531747	0.051070
H86	H	1.141165	-0.531742	-0.051082
H87	H	1.203303	-0.415437	0.051071
H88	H	1.203243	-0.415419	-0.051073
H89	H	1.283581	-0.537054	-0.051156
H90	H	1.283658	-0.537056	0.050997
H91	H	1.326675	-0.470364	-0.000090
H92	H	0.846050	-0.289790	0.000041
