data_functionalizedCrystal
_audit_creation_method	'MofGen! by Chris Wilmer'
_symmetry_space_group_name_H-M	'P1'
_symmetry_Int_Tables_number	1
_symmetry_cell_setting	triclinic
loop_
_symmetry_equiv_pos_as_xyz
  x,y,z
_cell_length_a	10.268362
_cell_length_b	10.489716
_cell_length_c	11.792241
_cell_angle_alpha	84.361276
_cell_angle_beta	89.998512
_cell_angle_gamma	89.995734
loop_
_atom_site_label
_atom_site_type_symbol
_atom_site_fract_x
_atom_site_fract_y
_atom_site_fract_z
O1	O	-0.108290	1.693528	0.159998
O2	O	0.391710	2.193528	0.659998
O3	O	-0.108295	1.322277	0.175059
O4	O	0.391705	1.822277	0.675059
O5	O	-0.108284	1.516911	0.002382
O6	O	0.391716	2.016911	0.502382
O7	O	-0.108302	1.498893	0.332676
O8	O	0.391698	1.998893	0.832676
O9	O	0.108317	1.516893	0.002388
O10	O	0.608317	2.016893	0.502388
O11	O	0.108305	1.322258	0.175065
O12	O	0.608305	1.822258	0.675065
O13	O	0.108310	1.693509	0.160004
O14	O	0.608310	2.193509	0.660004
Cu15	Cu	0.128085	1.507882	0.167535
Cu16	Cu	0.628085	2.007882	0.667535
Cu17	Cu	-0.128070	1.507904	0.167528
Cu18	Cu	0.371930	2.007904	0.667528
O19	O	0.108299	1.498874	0.332681
O20	O	0.608299	1.998874	0.832681
C21	C	0.000004	1.274739	0.173930
C22	C	0.500004	1.774739	0.673930
C23	C	0.000003	1.133119	0.170545
C24	C	0.500003	1.633119	0.670545
N25	N	0.308251	1.507875	0.167539
N26	N	0.808251	2.007875	0.667539
N27	N	-0.308236	1.507920	0.167515
N28	N	0.191764	2.007920	0.667515
C29	C	-0.000006	1.035085	0.276436
C30	C	0.499994	1.535085	0.776436
C31	C	0.106798	0.957920	0.220484
C32	C	0.606798	1.457920	0.720484
C33	C	-0.106753	0.957945	0.220453
C34	C	0.393247	1.457945	0.720453
C35	C	0.106895	1.057820	0.114637
C36	C	0.606895	1.557820	0.614637
C37	C	-0.106752	1.057851	0.114622
C38	C	0.393248	1.557851	0.614622
C39	C	0.000079	0.980735	0.058592
C40	C	0.500079	1.480735	0.558592
C41	C	0.426093	1.507885	0.167540
C42	C	0.926093	2.007885	0.667540
C43	C	0.573931	1.507901	0.167530
C44	C	1.073931	2.007901	0.667530
C45	C	0.000016	1.515770	-0.039909
C46	C	0.500016	2.015770	0.460091
C47	C	0.000015	1.512382	-0.165932
C48	C	0.500015	2.012382	0.334068
C49	C	0.000008	1.741047	0.161133
C50	C	0.500008	2.241047	0.661133
C51	C	0.000001	1.882666	0.164518
C52	C	0.500001	2.382666	0.664518
C53	C	-0.000007	1.506153	-0.396660
C54	C	0.499993	2.006153	0.103340
C55	C	0.000005	1.509614	-0.268266
C56	C	0.500005	2.009614	0.231734
C57	C	-0.000004	1.500015	0.374972
C58	C	0.499996	2.000015	0.874972
C59	C	-0.000011	1.503403	0.500995
C60	C	0.499989	2.003403	1.000995
H61	H	0.197087	0.914278	0.265187
H62	H	0.697087	1.414278	0.765187
N63	N	0.000185	0.950470	-0.057038
N64	N	0.500185	1.450470	0.442962
N65	N	0.091085	0.885948	-0.092741
N66	N	0.591085	1.385948	0.407259
H67	H	0.091168	0.864570	-0.174404
H68	H	0.591168	1.364570	0.325596
H69	H	-0.197035	0.914317	0.265173
H70	H	0.302965	1.414317	0.765173
N71	N	0.220278	1.112349	0.058599
N72	N	0.720278	1.612349	0.558599
N73	N	0.238598	1.230641	0.052223
N74	N	0.738598	1.730641	0.552223
H75	H	0.318674	1.269156	0.012649
H76	H	0.818674	1.769156	0.512649
N77	N	-0.220031	1.112618	0.058597
N78	N	0.279969	1.612618	0.558597
N79	N	-0.330841	1.080357	0.094731
N80	N	0.169159	1.580357	0.594731
H81	H	-0.410856	1.119036	0.055171
H82	H	0.089144	1.619036	0.555171
H83	H	0.000088	1.059440	0.368545
H84	H	0.500088	1.559440	0.868545
