data_functionalizedCrystal
_audit_creation_method	'MofGen! by Chris Wilmer'
_symmetry_space_group_name_H-M	'P1'
_symmetry_Int_Tables_number	1
_symmetry_cell_setting	triclinic
loop_
_symmetry_equiv_pos_as_xyz
  x,y,z
_cell_length_a	12.759401
_cell_length_b	15.299816
_cell_length_c	12.759393
_cell_angle_alpha	80.349000
_cell_angle_beta	90.020993
_cell_angle_gamma	80.349861
loop_
_atom_site_label
_atom_site_type_symbol
_atom_site_fract_x
_atom_site_fract_y
_atom_site_fract_z
Zn1	Zn	1.678563	-0.359030	0.666445
Zn2	Zn	1.708828	-0.509871	0.521192
Zn3	Zn	1.502870	-0.359072	0.490788
Zn4	Zn	1.533214	-0.509802	0.696816
O5	O	1.605869	-0.434444	0.593810
O6	O	1.829601	-0.379051	0.647191
O7	O	1.681474	-0.489914	0.370147
O8	O	1.500811	-0.232858	0.488655
O9	O	1.851836	-0.489873	0.540474
O10	O	1.629891	-0.232827	0.617709
O11	O	1.530158	-0.379122	0.347810
O12	O	1.359872	-0.379056	0.518104
O13	O	1.552527	-0.489756	0.839799
O14	O	1.382165	-0.489796	0.669472
O15	O	1.659315	-0.378984	0.817485
O16	O	1.710897	-0.636071	0.569924
O17	O	1.581874	-0.636020	0.698953
C18	C	1.332897	-0.434424	0.593785
C19	C	1.216123	-0.434437	0.593804
C20	C	1.039880	-0.376719	0.515114
C21	C	1.149600	-0.376698	0.515094
C22	C	1.172920	-0.492194	0.672545
C23	C	1.063202	-0.492210	0.672568
C24	C	1.278108	-0.270273	0.456274
C25	C	1.321309	-0.212526	0.377527
C26	C	1.282834	-0.198579	0.272233
C27	C	1.201163	-0.242392	0.245670
C28	C	1.157969	-0.300145	0.324414
C29	C	1.196439	-0.314075	0.429718
C30	C	0.934691	-0.598636	0.731377
C31	C	0.891496	-0.656395	0.810117
C32	C	0.929971	-0.670351	0.915414
C33	C	1.011649	-0.626554	0.941977
C34	C	1.054844	-0.568796	0.863237
C35	C	1.016361	-0.554838	0.757941
C36	C	1.652991	-0.668770	0.641056
C37	C	1.673247	-0.769016	0.661304
C38	C	1.461789	-1.051955	0.449457
C39	C	1.442752	-0.957769	0.430437
C40	C	1.500374	-0.910576	0.488151
C41	C	1.577036	-0.957578	0.564891
C42	C	1.596068	-1.051773	0.583919
C43	C	1.634654	-0.910395	0.622613
C44	C	1.711316	-0.957397	0.699353
C45	C	1.730345	-1.051582	0.718377
C46	C	1.672723	-1.098775	0.660662
C47	C	1.615622	-0.816199	0.603585
C48	C	1.749901	-0.816018	0.738047
C49	C	1.768938	-0.910204	0.757067
C50	C	1.879906	-0.434465	0.593836
C51	C	1.996684	-0.434474	0.593847
C52	C	1.605930	-0.434357	0.867826
C53	C	1.605956	-0.434320	0.984596
C54	C	1.558590	-0.199203	0.546403
C55	C	1.538443	-0.098957	0.526200
C56	C	1.605855	-0.434465	0.320847
C57	C	1.605981	-0.434248	0.204027
C58	C	1.661563	-0.376632	1.027839
C59	C	1.661573	-0.376593	1.137555
C60	C	1.550367	-0.491939	1.160777
C61	C	1.550352	-0.491972	1.051061
C62	C	1.677758	-0.270185	1.266069
C63	C	1.733383	-0.212505	1.309317
C64	C	1.833112	-0.198679	1.270937
C65	C	1.877239	-0.242546	1.189312
C66	C	1.821621	-0.300232	1.146071
C67	C	1.721874	-0.314042	1.184446
C68	C	1.534177	-0.598381	0.922546
C69	C	1.478565	-0.656074	0.879304
C70	C	1.378836	-0.669909	0.917684
C71	C	1.334716	-0.626058	0.999315
C72	C	1.390329	-0.568366	1.042557
C73	C	1.490056	-0.554529	1.004169
H74	H	1.309434	-0.281615	0.542013
O75	O	1.521285	-0.698769	0.800028
C76	C	1.450803	-0.752636	0.770074
H77	H	1.396163	-0.769404	0.838506
H78	H	1.498230	-0.817540	0.750206
H79	H	1.401023	-0.714524	0.697291
H80	H	1.958452	-0.231289	1.158076
O81	O	1.324855	-0.726069	0.875843
C82	C	1.307163	-0.796668	0.956588
H83	H	1.368695	-0.805327	1.023970
H84	H	1.314493	-0.861732	0.922713
H85	H	1.223996	-0.780034	0.988374
H86	H	0.903340	-0.587261	0.645641
O87	O	1.580788	-0.283518	1.303182
C88	C	1.503955	-0.256423	1.219486
H89	H	1.533322	-0.205917	1.154949
H90	H	1.426162	-0.223798	1.251165
H91	H	1.490250	-0.317644	1.184667
H92	H	1.354398	-0.532661	1.109026
O93	O	1.541036	-0.770646	0.529115
C94	C	1.440972	-0.793707	0.556664
H95	H	1.452590	-0.862069	0.610861
H96	H	1.394567	-0.797017	0.481468
H97	H	1.394844	-0.740685	0.599936
H98	H	1.796820	-0.777594	0.785045
O99	O	1.864643	-0.342884	1.066885
C100	C	1.962335	-0.397529	1.103222
H101	H	1.995728	-0.371246	1.172443
H102	H	2.020959	-0.395896	1.035805
H103	H	1.949315	-0.469632	1.130800
H104	H	1.227092	-0.539202	0.736635
O105	O	1.715428	-0.320495	0.963295
C106	C	1.674418	-0.230599	0.972011
H107	H	1.589573	-0.226034	1.001237
H108	H	1.674503	-0.186061	0.890883
H109	H	1.726014	-0.207010	1.030959
H110	H	1.878402	-0.151713	1.306157
H111	H	1.253511	-0.637327	1.030568
O112	O	0.812242	-0.698984	0.784196
C113	C	0.848433	-0.753538	0.708365
H114	H	0.917607	-0.727228	0.664396
H115	H	0.780925	-0.751823	0.649107
H116	H	0.876029	-0.825674	0.750273
O117	O	1.164007	-0.228866	0.143311
C118	C	1.247653	-0.255931	0.077362
H119	H	1.327010	-0.254177	0.117346
H120	H	1.238643	-0.208241	-0.002201
H121	H	1.244944	-0.327257	0.063612
O122	O	1.400753	-0.170050	0.403237
C123	C	1.491566	-0.195278	0.345130
H124	H	1.487984	-0.262794	0.319941
H125	H	1.566068	-0.201378	0.397010
H126	H	1.494080	-0.142065	0.271457
O127	O	1.324642	-0.142477	0.195620
C128	C	1.243945	-0.071797	0.149578
H129	H	1.163201	-0.093880	0.162005
H130	H	1.257316	-0.053997	0.060766
H131	H	1.246066	-0.010363	0.188728
H132	H	1.697446	-0.176789	1.375776
H133	H	1.615382	-0.587114	0.891282
H134	H	1.091476	-0.335817	0.302786
H135	H	1.121350	-0.533135	0.884873
H136	H	0.985723	-0.329703	0.451019
H137	H	1.042979	-0.637921	1.027718
O138	O	1.496455	-0.547914	1.225501
C139	C	1.508371	-0.535501	1.331609
H140	H	1.583520	-0.505967	1.340657
H141	H	1.514825	-0.603044	1.386918
H142	H	1.436406	-0.487456	1.353055
O143	O	0.887864	-0.726461	0.991782
C144	C	0.807550	-0.762155	0.945758
H145	H	0.775671	-0.715556	0.869080
H146	H	0.740122	-0.768321	1.003682
H147	H	0.841911	-0.831451	0.927298
H148	H	1.831356	-0.948486	0.819550
H149	H	1.484871	-0.833886	0.472659
H150	H	1.380334	-0.919503	0.367957
O151	O	1.405662	-1.097758	0.393508
C152	C	1.296298	-1.074787	0.411722
H153	H	1.285710	-1.048834	0.490403
H154	H	1.256925	-1.136776	0.415159
H155	H	1.257825	-1.020177	0.344333
H156	H	1.792763	-1.089849	0.780868
O157	O	1.691038	-1.190270	0.679231
C158	C	1.596689	-1.221788	0.712456
H159	H	1.542269	-1.167510	0.747262
H160	H	1.616902	-1.284768	0.775554
H161	H	1.554603	-1.238572	0.641421
