data_functionalizedCrystal
_audit_creation_method	'MofGen! by Chris Wilmer'
_symmetry_space_group_name_H-M	'P1'
_symmetry_Int_Tables_number	1
_symmetry_cell_setting	triclinic
loop_
_symmetry_equiv_pos_as_xyz
  x,y,z
_cell_length_a	18.215407
_cell_length_b	19.805404
_cell_length_c	18.215399
_cell_angle_alpha	90.028419
_cell_angle_beta	90.019833
_cell_angle_gamma	90.030041
loop_
_atom_site_label
_atom_site_type_symbol
_atom_site_fract_x
_atom_site_fract_y
_atom_site_fract_z
Zn1	Zn	1.125048	-0.269462	0.416113
Zn2	Zn	1.124946	-0.382653	0.293046
Zn3	Zn	1.001980	-0.269484	0.293061
Zn4	Zn	1.001936	-0.382615	0.416071
O5	O	1.063478	-0.326054	0.354573
O6	O	1.228019	-0.284484	0.399800
O7	O	1.108610	-0.367666	0.190064
O8	O	1.018367	-0.174765	0.309408
O9	O	1.227944	-0.367644	0.309383
O10	O	1.108784	-0.174748	0.399814
O11	O	1.018268	-0.284521	0.190075
O12	O	0.898990	-0.284485	0.309367
O13	O	1.018291	-0.367580	0.519061
O14	O	0.898958	-0.367602	0.399742
O15	O	1.108741	-0.284447	0.519092
O16	O	1.108568	-0.477365	0.309342
O17	O	1.018193	-0.477337	0.399728
C18	C	0.872271	-0.326042	0.354552
C19	C	0.790473	-0.326053	0.354560
C20	C	0.602281	-0.369400	0.401559
C21	C	0.525422	-0.369403	0.401569
C22	C	0.525426	-0.282719	0.307602
C23	C	0.602284	-0.282714	0.307597
C24	C	0.640709	-0.326059	0.354575
C25	C	0.486993	-0.326066	0.354589
C26	C	0.403659	-0.326068	0.354599
C27	C	0.724048	-0.326056	0.354566
C28	C	1.063384	-0.501910	0.354545
C29	C	1.063412	-0.577142	0.354557
C30	C	1.110717	-1.038925	0.307612
C31	C	1.110682	-0.968236	0.307598
C32	C	1.063574	-0.932903	0.354612
C33	C	1.016492	-0.968263	0.401638
C34	C	1.016524	-1.038950	0.401648
C35	C	1.016364	-0.683189	0.401598
C36	C	1.016338	-0.612497	0.401586
C37	C	1.110523	-0.612476	0.307547
C38	C	1.110554	-0.683163	0.307557
C39	C	1.063470	-0.718516	0.354581
C40	C	1.063507	-0.795164	0.354595
C41	C	1.063540	-0.856256	0.354602
C42	C	1.255431	-0.326066	0.354594
C43	C	1.337229	-0.326071	0.354604
C44	C	1.063523	-0.326007	0.546526
C45	C	1.063542	-0.325987	0.628325
C46	C	1.063592	-0.149511	0.354617
C47	C	1.063640	-0.074279	0.354636
C48	C	1.063475	-0.326051	0.163367
C49	C	1.063599	-0.325880	0.081568
C50	C	1.110656	-0.282659	0.816536
C51	C	1.110664	-0.282639	0.893395
C52	C	1.016480	-0.369210	0.893351
C53	C	1.016468	-0.369226	0.816494
C54	C	1.063560	-0.325952	0.778088
C55	C	1.063581	-0.325916	0.931805
C56	C	1.063590	-0.325895	1.015138
C57	C	1.063550	-0.325972	0.694749
H58	H	1.149015	-0.939451	0.269306
H59	H	0.978132	-0.939491	0.439916
O60	O	0.970810	-0.411227	0.930774
C61	C	0.980906	-0.401919	1.006855
H62	H	1.037715	-0.379752	1.017370
H63	H	0.937279	-0.365869	1.028669
C64	C	0.904351	-0.497622	1.033378
C65	C	0.974128	-0.470401	1.046293
H66	H	0.900168	-0.539863	1.057706
H67	H	0.897547	-0.503891	0.982121
H68	H	0.868004	-0.467573	1.051556
H69	H	1.010474	-0.500445	1.028106
H70	H	0.980939	-0.464138	1.097548
H71	H	1.148999	-0.247420	0.785269
H72	H	1.148917	-0.711927	0.269276
O73	O	0.970772	-1.073191	0.447400
C74	C	0.929174	-1.026849	0.488882
H75	H	0.959294	-0.976434	0.491452
H76	H	0.873294	-1.019394	0.461879
C77	C	0.881539	-1.116323	0.564044
C78	C	0.918536	-1.054403	0.567206
H79	H	0.874973	-1.133320	0.612357
H80	H	0.909562	-1.147545	0.536095
H81	H	0.834976	-1.110102	0.541538
H82	H	0.965101	-1.060626	0.589703
H83	H	0.890520	-1.023183	0.595161
O84	O	1.156219	-0.578206	0.261758
C85	C	1.140175	-0.595527	0.188398
H86	H	1.111909	-0.646876	0.186856
H87	H	1.102336	-0.555792	0.163566
C88	C	1.246665	-0.535692	0.145781
C89	C	1.211954	-0.598762	0.143888
H90	H	1.290940	-0.537684	0.118324
H91	H	1.257473	-0.524020	0.195205
H92	H	1.215125	-0.502586	0.125090
H93	H	1.243490	-0.631865	0.164588
H94	H	1.201153	-0.610440	0.094466
O95	O	1.156485	-0.240565	0.930629
C96	C	1.198029	-0.202363	0.880247
H97	H	1.200552	-0.230101	0.825454
H98	H	1.171111	-0.150958	0.872080
C99	C	1.273267	-0.158537	0.977559
C100	C	1.276370	-0.192608	0.910263
H101	H	1.321590	-0.152516	0.996074
H102	H	1.245276	-0.184272	1.011503
H103	H	1.250832	-0.115703	0.970744
H104	H	1.298796	-0.235444	0.917080
H105	H	1.304367	-0.166880	0.876321
O106	O	0.639698	-0.240704	0.261916
C107	C	0.684105	-0.279184	0.214298
H108	H	0.695601	-0.330507	0.240155
H109	H	0.654461	-0.286558	0.159746
C110	C	0.743007	-0.178888	0.169284
C111	C	0.757132	-0.241923	0.201046
H112	H	0.788052	-0.155904	0.161107
H113	H	0.713088	-0.152963	0.201364
H114	H	0.718302	-0.185043	0.123828
H115	H	0.781827	-0.235767	0.246505
H116	H	0.787057	-0.267846	0.168974
H117	H	0.977974	-0.583731	0.439872
O118	O	0.487980	-0.411443	0.447184
C119	C	0.411903	-0.402166	0.437107
H120	H	0.401421	-0.349904	0.413107
H121	H	0.390054	-0.442269	0.397841
C122	C	0.385349	-0.472649	0.541038
C123	C	0.372474	-0.408457	0.511567
H124	H	0.361026	-0.476532	0.586967
H125	H	0.436603	-0.478901	0.547826
H126	H	0.367141	-0.506060	0.508310
H127	H	0.390690	-0.375047	0.544291
H128	H	0.321222	-0.402199	0.504786
O129	O	1.156502	-1.073139	0.261873
C130	C	1.198057	-1.026773	0.220377
H131	H	1.167892	-0.976412	0.217795
H132	H	1.253931	-1.019191	0.247377
C133	C	1.245772	-1.116249	0.145237
C134	C	1.208719	-1.054397	0.142060
H135	H	1.252352	-1.133289	0.096928
H136	H	1.217778	-1.147487	0.173194
H137	H	1.292329	-1.109922	0.167740
H138	H	1.162159	-1.060726	0.119566
H139	H	1.236706	-1.023159	0.114097
O140	O	0.970694	-0.411348	0.779255
C141	C	0.929124	-0.449533	0.829631
H142	H	0.959272	-0.451869	0.884424
H143	H	0.873247	-0.424744	0.837801
C144	C	0.881441	-0.518705	0.732310
C145	C	0.918472	-0.521579	0.799606
H146	H	0.874867	-0.563146	0.713789
H147	H	0.909445	-0.492978	0.698370
H148	H	0.834881	-0.498045	0.739128
H149	H	0.965035	-0.542231	0.792786
H150	H	0.890476	-0.547311	0.833545
O151	O	0.970608	-0.717421	0.447347
C152	C	0.929014	-0.671075	0.488827
H153	H	0.959139	-0.620662	0.491395
H154	H	0.873135	-0.663616	0.461823
C155	C	0.881370	-0.760542	0.563992
C156	C	0.918372	-0.698625	0.567152
H157	H	0.874802	-0.777537	0.612306
H158	H	0.909390	-0.791767	0.536045
H159	H	0.834808	-0.754318	0.541486
H160	H	0.964937	-0.704851	0.589650
H161	H	0.890360	-0.667402	0.595105
O162	O	0.488212	-0.240558	0.261942
C163	C	0.538614	-0.202313	0.220458
H164	H	0.593413	-0.199998	0.250604
H165	H	0.546755	-0.227037	0.164519
C166	C	0.441343	-0.133110	0.172960
C167	C	0.508646	-0.130262	0.209989
H168	H	0.422857	-0.088667	0.166499
H169	H	0.407385	-0.158878	0.200906
H170	H	0.448136	-0.153716	0.126348
H171	H	0.501850	-0.109665	0.256603
H172	H	0.542602	-0.104490	0.182050
O173	O	0.639494	-0.411520	0.447266
C174	C	0.589091	-0.449785	0.488726
H175	H	0.534319	-0.422068	0.491327
H176	H	0.580881	-0.501162	0.461682
C177	C	0.686384	-0.493668	0.563837
C178	C	0.619114	-0.459622	0.567037
H179	H	0.704903	-0.499739	0.612142
H180	H	0.720342	-0.467890	0.535903
H181	H	0.679532	-0.536478	0.541297
H182	H	0.625967	-0.416810	0.589567
H183	H	0.585157	-0.485393	0.594976
