data_functionalizedCrystal
_audit_creation_method	'MofGen! by Chris Wilmer'
_symmetry_space_group_name_H-M	'P1'
_symmetry_Int_Tables_number	1
_symmetry_cell_setting	triclinic
loop_
_symmetry_equiv_pos_as_xyz
  x,y,z
_cell_length_a	16.109296
_cell_length_b	15.186229
_cell_length_c	16.109301
_cell_angle_alpha	90.005167
_cell_angle_beta	83.460385
_cell_angle_gamma	90.001331
loop_
_atom_site_label
_atom_site_type_symbol
_atom_site_fract_x
_atom_site_fract_y
_atom_site_fract_z
O1	O	-1.103133	-0.073190	-0.106845
O2	O	-0.603133	0.426810	0.393155
O3	O	-0.861071	-0.073201	-0.120149
O4	O	-0.361071	0.426799	0.379851
O5	O	-0.988752	-0.073186	0.007534
O6	O	-0.488752	0.426814	0.507534
O7	O	-0.975452	-0.073205	-0.234528
O8	O	-0.475452	0.426795	0.265472
O9	O	-0.988743	0.073271	0.007536
O10	O	-0.488743	0.573271	0.507536
O11	O	-0.861062	0.073256	-0.120147
O12	O	-0.361062	0.573256	0.379853
O13	O	-1.103125	0.073267	-0.106843
O14	O	-0.603125	0.573267	0.393157
Zn15	Zn	-0.982092	0.096515	-0.113495
Zn16	Zn	-0.482092	0.596515	0.386505
Zn17	Zn	-0.982103	-0.096449	-0.113497
Zn18	Zn	-0.482103	0.403551	0.386503
O19	O	-0.975444	0.073253	-0.234526
O20	O	-0.475444	0.573253	0.265474
C21	C	-0.830092	0.000026	-0.119610
C22	C	-0.330092	0.500026	0.380390
C23	C	-0.737796	0.000022	-0.117996
C24	C	-0.237796	0.500022	0.382004
C25	C	-0.428797	0.000034	-0.188486
C26	C	0.071203	0.500034	0.311514
C27	C	-0.515517	0.000028	-0.190009
C28	C	-0.015517	0.500028	0.309991
C29	C	-0.535391	0.000028	-0.038520
C30	C	-0.035391	0.500028	0.461480
C31	C	-0.448672	0.000028	-0.036998
C32	C	0.051328	0.500028	0.463002
C33	C	-0.395377	0.000035	-0.111983
C34	C	0.104623	0.500035	0.388017
C35	C	-0.568816	0.000030	-0.115029
C36	C	-0.068816	0.500030	0.384971
C37	C	-0.662843	0.000024	-0.116681
C38	C	-0.162843	0.500024	0.383319
C39	C	-0.301345	0.000040	-0.110332
C40	C	0.198655	0.500040	0.389668
N41	N	-0.982091	0.228208	-0.113493
N42	N	-0.482091	0.728208	0.386507
C43	C	-0.988209	0.000043	0.038510
C44	C	-0.488209	0.500043	0.538510
C45	C	-0.986594	0.000044	0.130805
C46	C	-0.486594	0.500044	0.630805
C47	C	-0.134103	0.000040	-0.107387
C48	C	0.365897	0.500040	0.392613
C49	C	-0.226397	0.000043	-0.109016
C50	C	0.273603	0.500043	0.390984
N51	N	-0.982112	-0.228141	-0.113493
N52	N	-0.482112	0.271859	0.386507
C53	C	-1.038647	0.453937	-0.056974
C54	C	-0.538647	0.953937	0.443026
C55	C	-1.038650	0.546127	-0.056972
C56	C	-0.538650	1.046127	0.443028
C57	C	-0.925549	0.546123	-0.170014
C58	C	-0.425549	1.046123	0.329986
C59	C	-0.925543	0.453935	-0.170012
C60	C	-0.425543	0.953935	0.329988
C61	C	-0.982097	0.407844	-0.113492
C62	C	-0.482097	0.907844	0.386508
C63	C	-0.982105	0.592222	-0.113493
C64	C	-0.482105	1.092222	0.386507
C65	C	-0.982108	0.692178	-0.113491
C66	C	-0.482108	1.192178	0.386509
C67	C	-0.982094	0.307882	-0.113493
C68	C	-0.482094	0.807882	0.386507
C69	C	-0.975987	0.000022	-0.265502
C70	C	-0.475987	0.500022	0.234498
C71	C	-0.977602	0.000015	-0.357797
C72	C	-0.477602	0.500015	0.142203
C73	C	-1.058602	0.000033	0.353079
C74	C	-0.558602	0.500033	0.853079
C75	C	-1.057078	0.000026	0.439800
C76	C	-0.557078	0.500026	0.939800
C77	C	-0.905588	0.000023	0.419922
C78	C	-0.405588	0.500023	0.919922
C79	C	-0.907113	0.000024	0.333204
C80	C	-0.407113	0.500024	0.833204
C81	C	-0.983622	0.000033	0.299785
C82	C	-0.483622	0.500033	0.799785
C83	C	-0.980573	0.000025	0.473224
C84	C	-0.480573	0.500025	0.973224
C85	C	-0.978920	0.000017	0.567250
C86	C	-0.478920	0.500017	1.067250
C87	C	-0.985276	0.000040	0.205753
C88	C	-0.485276	0.500040	0.705753
H89	H	-0.421462	0.000025	0.025304
H90	H	0.078538	0.500025	0.525304
H91	H	-0.542723	0.000027	-0.252306
H92	H	-0.042723	0.500027	0.247694
H93	H	-0.843297	0.000016	0.447143
H94	H	-0.343297	0.500016	0.947143
H95	H	-0.879506	0.583659	-0.216032
H96	H	-0.379506	1.083659	0.283968
F97	F	-0.865349	0.404875	-0.230166
F98	F	-0.365349	0.904875	0.269834
H99	H	-0.846052	0.000021	0.289808
H100	H	-0.346052	0.500021	0.789808
H101	H	-1.120900	0.000040	0.325873
H102	H	-0.620900	0.500040	0.825873
F103	F	-1.136881	0.000024	0.496516
F104	F	-0.636881	0.500024	0.996516
H105	H	-0.385406	0.000040	-0.249544
H106	H	0.114594	0.500040	0.250456
H107	H	-0.578794	0.000024	0.022530
H108	H	-0.078794	0.500024	0.522530
F109	F	-1.098834	0.404888	0.003182
F110	F	-0.598834	0.904888	0.503182
H111	H	-1.084697	0.583653	-0.010948
H112	H	-0.584697	1.083653	0.489052
