data_functionalizedCrystal
_audit_creation_method	'MofGen! by Chris Wilmer'
_symmetry_space_group_name_H-M	'P1'
_symmetry_Int_Tables_number	1
_symmetry_cell_setting	triclinic
loop_
_symmetry_equiv_pos_as_xyz
  x,y,z
_cell_length_a	19.188933
_cell_length_b	16.992695
_cell_length_c	16.053802
_cell_angle_alpha	87.258926
_cell_angle_beta	92.571113
_cell_angle_gamma	86.906896
loop_
_atom_site_label
_atom_site_type_symbol
_atom_site_fract_x
_atom_site_fract_y
_atom_site_fract_z
O1	O	-0.934631	-0.094570	-0.069402
O2	O	-0.434631	0.405430	0.430598
O3	O	-0.732091	-0.107744	-0.069410
O4	O	-0.232091	0.392256	0.430590
O5	O	-0.832549	0.012983	-0.069399
O6	O	-0.332549	0.512983	0.430601
O7	O	-0.834173	-0.215297	-0.069413
O8	O	-0.334173	0.284703	0.430587
O9	O	-0.827018	0.006365	0.069459
O10	O	-0.327018	0.506365	0.569459
O11	O	-0.726560	-0.114362	0.069448
O12	O	-0.226560	0.385638	0.569448
O13	O	-0.929100	-0.101188	0.069456
O14	O	-0.429100	0.398812	0.569456
Zn15	Zn	-0.826952	-0.108826	0.091499
Zn16	Zn	-0.326952	0.391174	0.591499
Zn17	Zn	-0.834239	-0.100106	-0.091453
Zn18	Zn	-0.334239	0.399894	0.408547
O19	O	-0.828642	-0.221914	0.069446
O20	O	-0.328642	0.278086	0.569446
C21	C	-0.703290	-0.110626	0.000018
C22	C	-0.203290	0.389374	0.500018
C23	C	-0.625711	-0.109344	0.000015
C24	C	-0.125711	0.390656	0.500015
C25	C	-0.957902	-0.098306	0.000026
C26	C	-0.457902	0.401694	0.500026
C27	C	-1.035481	-0.099587	0.000024
C28	C	-0.535481	0.400413	0.500024
C29	C	-0.074935	-0.096592	-0.075667
C30	C	0.425065	0.403408	0.424333
C31	C	-0.147829	-0.097791	-0.075670
C32	C	0.352171	0.402209	0.424330
C33	C	-0.181266	-0.102002	0.000021
C34	C	0.318734	0.397998	0.500021
C35	C	-0.141804	-0.104993	0.075722
C36	C	0.358196	0.395007	0.575722
C37	C	-0.068912	-0.103786	0.075723
C38	C	0.431088	0.396214	0.575723
N39	N	-0.290764	-0.151192	0.056359
N40	N	0.209236	0.348808	0.556359
N41	N	-0.360009	-0.152340	0.056353
N42	N	0.139991	0.347660	0.556353
C43	C	-0.400888	-0.105637	0.000023
C44	C	0.099112	0.394363	0.500023
N45	N	-0.369906	-0.057752	-0.056314
N46	N	0.130094	0.442248	0.443686
N47	N	-0.300654	-0.056607	-0.056310
N48	N	0.199346	0.443393	0.443690
C49	C	-0.260306	-0.103310	0.000029
C50	C	0.239694	0.396690	0.500029
C51	C	-0.519382	-0.103940	-0.075677
C52	C	-0.019382	0.396060	0.424323
C53	C	-0.592278	-0.105135	-0.075677
C54	C	-0.092278	0.394865	0.424323
C55	C	-0.586251	-0.112345	0.075717
C56	C	-0.086251	0.387655	0.575717
C57	C	-0.513357	-0.111143	0.075715
C58	C	-0.013357	0.388857	0.575715
C59	C	-0.479927	-0.106944	0.000016
C60	C	0.020073	0.393056	0.500016
C61	C	-0.827695	0.038879	0.000030
C62	C	-0.327695	0.538879	0.500030
C63	C	-0.821462	0.125902	0.000029
C64	C	-0.321462	0.625902	0.500029
C65	C	-0.833497	-0.247811	0.000015
C66	C	-0.333497	0.252189	0.500015
C67	C	-0.839730	-0.334833	0.000010
C68	C	-0.339730	0.165167	0.500010
N69	N	-0.821984	-0.114776	0.216359
N70	N	-0.321984	0.385224	0.716359
C71	C	-0.881601	0.176348	0.000032
C72	C	-0.381601	0.676348	0.500032
C73	C	-0.875741	0.258115	0.000024
C74	C	-0.375741	0.758115	0.500024
C75	C	-0.809740	0.289434	0.000019
C76	C	-0.309740	0.789434	0.500019
C77	C	-0.749596	0.238981	0.000013
C78	C	-0.249596	0.738981	0.500013
C79	C	-0.755457	0.157216	0.000015
C80	C	-0.255457	0.657216	0.500015
C81	C	-0.785448	0.532949	0.000006
C82	C	-0.285448	1.032949	0.500006
C83	C	-0.779591	0.614720	0.000007
C84	C	-0.279591	1.114720	0.500007
C85	C	-0.905736	0.633848	0.000016
C86	C	-0.405736	1.133848	0.500016
C87	C	-0.911591	0.552081	0.000023
C88	C	-0.411591	1.052081	0.500023
C89	C	-0.851448	0.501636	0.000013
C90	C	-0.351448	1.001636	0.500013
N91	N	-0.803748	0.373012	0.000013
N92	N	-0.303748	0.873012	0.500013
N93	N	-0.857440	0.418059	0.000013
N94	N	-0.357440	0.918059	0.500013
N95	N	-0.839213	-0.094150	-0.216313
N96	N	-0.339213	0.405850	0.283687
C97	C	-0.864746	-0.063425	0.260057
C98	C	-0.364746	0.436575	0.760057
C99	C	-0.861278	-0.067594	0.347464
C100	C	-0.361278	0.432406	0.847464
C101	C	-0.815050	-0.123119	0.391170
C102	C	-0.315050	0.376881	0.891170
C103	C	-0.772283	-0.174473	0.347466
C104	C	-0.272283	0.325527	0.847466
C105	C	-0.775748	-0.170299	0.260061
C106	C	-0.275748	0.329701	0.760061
C107	C	-0.799911	-0.141329	0.652578
C108	C	-0.299911	0.358671	1.152578
C109	C	-0.796450	-0.145501	0.739989
C110	C	-0.296450	0.354499	1.239989
C111	C	-0.885445	-0.038621	0.739981
C112	C	-0.385445	0.461379	1.239981
C113	C	-0.888909	-0.034455	0.652575
C114	C	-0.388909	0.465545	1.152575
C115	C	-0.846140	-0.085806	0.608878
C116	C	-0.346140	0.414194	1.108878
N117	N	-0.811505	-0.127384	0.480513
N118	N	-0.311505	0.372616	0.980513
N119	N	-0.849681	-0.081537	0.519536
N120	N	-0.349681	0.418463	1.019536
H121	H	-0.047720	-0.093170	-0.137307
H122	H	0.452280	0.406830	0.362693
H123	H	-0.725842	0.640216	0.000016
H124	H	-0.225842	1.140216	0.500016
Cl125	Cl	-0.019310	-0.107556	0.170884
Cl126	Cl	0.480690	0.392444	0.670884
Cl127	Cl	-0.641878	-0.101360	-0.170840
Cl128	Cl	-0.141878	0.398640	0.329160
H129	H	-0.169034	-0.108420	0.137350
H130	H	0.330966	0.391580	0.637350
Cl131	Cl	-0.964577	0.136984	0.000048
Cl132	Cl	-0.464577	0.636984	0.500048
Cl133	Cl	-0.915037	-0.003037	0.402400
Cl134	Cl	-0.415037	0.496963	0.902400
Cl135	Cl	-0.709838	0.469543	-0.000008
Cl136	Cl	-0.209838	0.969543	0.499992
H137	H	-0.758804	-0.190719	0.775571
H138	H	-0.258804	0.309281	1.275571
Cl139	Cl	-0.666624	0.278354	-0.000004
Cl140	Cl	-0.166624	0.778354	0.499996
Cl141	Cl	-0.679850	0.093798	0.000008
Cl142	Cl	-0.179850	0.593798	0.500008
H143	H	-0.179958	-0.095356	-0.137308
H144	H	0.320042	0.404644	0.362692
Cl145	Cl	-0.477352	-0.098656	-0.170839
Cl146	Cl	0.022648	0.401344	0.329161
Cl147	Cl	-0.628281	-0.117626	0.170873
Cl148	Cl	-0.128281	0.382374	0.670873
Cl149	Cl	-0.463755	-0.114922	0.170874
Cl150	Cl	0.036245	0.385078	0.670874
Cl151	Cl	-0.947026	0.035347	0.597629
Cl152	Cl	-0.447026	0.535347	1.097629
Cl153	Cl	-0.951348	0.321530	0.000031
Cl154	Cl	-0.451348	0.821530	0.500031
Cl155	Cl	-0.721984	-0.234855	0.205126
Cl156	Cl	-0.221984	0.265145	0.705126
H157	H	-0.902393	-0.018214	0.224477
H158	H	-0.402393	0.481786	0.724477
H159	H	-0.965336	0.526587	0.000028
H160	H	-0.465336	1.026587	0.500028
Cl161	Cl	-0.939207	0.025933	0.794918
Cl162	Cl	-0.439207	0.525933	1.294918
H163	H	-0.954701	0.674929	0.000023
H164	H	-0.454701	1.174929	0.500023
Cl165	Cl	-0.746148	-0.205886	0.597651
Cl166	Cl	-0.246148	0.294114	1.097651
H167	H	-0.734639	-0.219680	0.383056
H168	H	-0.234639	0.280320	0.883056
