data_functionalizedCrystal
_audit_creation_method	'MofGen! by Chris Wilmer'
_symmetry_space_group_name_H-M	'P1'
_symmetry_Int_Tables_number	1
_symmetry_cell_setting	triclinic
loop_
_symmetry_equiv_pos_as_xyz
  x,y,z
_cell_length_a	17.019282
_cell_length_b	17.019294
_cell_length_c	16.098538
_cell_angle_alpha	88.846036
_cell_angle_beta	91.140572
_cell_angle_gamma	83.655696
loop_
_atom_site_label
_atom_site_type_symbol
_atom_site_fract_x
_atom_site_fract_y
_atom_site_fract_z
O1	O	1.046637	0.100374	-0.001363
O2	O	1.379971	0.433707	0.331970
O3	O	1.713304	0.767041	0.665303
O4	O	0.817840	0.112321	-0.018637
O5	O	1.151173	0.445654	0.314697
O6	O	1.484506	0.778988	0.648030
O7	O	0.938205	-0.008053	-0.001364
O8	O	1.271538	0.325281	0.331970
O9	O	1.604871	0.658614	0.665303
O10	O	0.926272	0.220748	-0.018636
O11	O	1.259606	0.554081	0.314697
O12	O	1.592939	0.887414	0.648030
O13	O	0.931174	-0.001049	0.136142
O14	O	1.264507	0.332285	0.469475
O15	O	1.597840	0.665618	0.802809
O16	O	0.810808	0.119325	0.118869
O17	O	1.144142	0.452658	0.452203
O18	O	1.477475	0.785992	0.785536
O19	O	1.039606	0.107378	0.136142
O20	O	1.372940	0.440711	0.469476
O21	O	1.706273	0.774045	0.802809
Zn22	Zn	0.924091	0.114464	0.149338
Zn23	Zn	1.257424	0.447797	0.482671
Zn24	Zn	1.590758	0.781130	0.816005
Zn25	Zn	0.933355	0.105235	-0.031832
Zn26	Zn	1.266688	0.438569	0.301501
Zn27	Zn	1.600022	0.771902	0.634835
O28	O	0.919241	0.227752	0.118870
O29	O	1.252574	0.561085	0.452203
O30	O	1.585908	0.894418	0.785536
C31	C	0.785040	0.115234	0.048058
C32	C	1.118374	0.448567	0.381391
C33	C	1.451707	0.781900	0.714724
C34	C	0.697785	0.113468	0.041924
C35	C	1.031118	0.446802	0.375257
C36	C	1.364452	0.780135	0.708590
C37	C	0.652964	0.116455	0.113998
C38	C	0.986297	0.449788	0.447332
C39	C	1.319631	0.783122	0.780665
C40	C	0.570980	0.114784	0.108238
C41	C	0.904313	0.448117	0.441571
C42	C	1.237646	0.781451	0.774905
C43	C	0.533817	0.110132	0.030402
C44	C	0.867150	0.443465	0.363735
C45	C	1.200484	0.776798	0.697069
C46	C	0.578644	0.107142	-0.041678
C47	C	0.911978	0.440476	0.291655
C48	C	1.245311	0.773809	0.624989
C49	C	0.660628	0.108808	-0.035917
C50	C	0.993961	0.442141	0.297417
C51	C	1.327294	0.775475	0.630750
C52	C	0.286472	0.104906	0.009257
C53	C	0.619805	0.438240	0.342590
C54	C	0.953139	0.771573	0.675923
C55	C	0.204482	0.103243	0.003500
C56	C	0.537815	0.436577	0.336834
C57	C	0.871149	0.769910	0.670167
C58	C	0.196823	0.110884	0.153417
C59	C	0.530157	0.444217	0.486751
C60	C	0.863490	0.777550	0.820084
C61	C	0.278808	0.112554	0.159171
C62	C	0.612142	0.445887	0.492505
C63	C	0.945475	0.779220	0.825838
C64	C	0.323629	0.109560	0.087092
C65	C	0.656962	0.442893	0.420425
C66	C	0.990295	0.776227	0.753759
C67	C	0.450016	0.108426	0.024512
C68	C	0.783349	0.441759	0.357845
C69	C	1.116682	0.775092	0.691179
C70	C	0.407429	0.111260	0.092983
C71	C	0.740763	0.444594	0.426316
C72	C	1.074096	0.777927	0.759650
C73	C	0.934098	-0.033835	0.069446
C74	C	1.267431	0.299499	0.402779
C75	C	1.600765	0.632832	0.736113
C76	C	0.932328	-0.121091	0.075574
C77	C	1.265661	0.212242	0.408908
C78	C	1.598994	0.545576	0.742241
C79	C	0.935330	-0.165898	0.003500
C80	C	1.268664	0.167436	0.336833
C81	C	1.601997	0.500769	0.670166
C82	C	0.933661	-0.247884	0.009260
C83	C	1.266995	0.085450	0.342593
C84	C	1.600328	0.418783	0.675927
C85	C	0.928995	-0.285062	0.087096
C86	C	1.262329	0.048271	0.420430
C87	C	1.595662	0.381605	0.753763
C88	C	0.925990	-0.240249	0.159176
C89	C	1.259324	0.093084	0.492510
C90	C	1.592657	0.426418	0.825843
C91	C	0.927653	-0.158264	0.153415
C92	C	1.260987	0.175069	0.486748
C93	C	1.594320	0.508403	0.820081
C94	C	0.923777	-0.532412	0.108242
C95	C	1.257110	-0.199079	0.441576
C96	C	1.590443	0.134254	0.774909
C97	C	0.922116	-0.614404	0.113999
C98	C	1.255449	-0.281071	0.447332
C99	C	1.588783	0.052263	0.780665
C100	C	0.929786	-0.622033	-0.035918
C101	C	1.263119	-0.288699	0.297415
C102	C	1.596452	0.044634	0.630748
C103	C	0.931453	-0.540046	-0.041673
C104	C	1.264787	-0.206713	0.291661
C105	C	1.598120	0.126621	0.624994
C106	C	0.928444	-0.495240	0.030407
C107	C	1.261777	-0.161906	0.363740
C108	C	1.595111	0.171427	0.697074
C109	C	0.927292	-0.368865	0.092987
C110	C	1.260625	-0.035532	0.426320
C111	C	1.593959	0.297802	0.759653
C112	C	0.930142	-0.411438	0.024516
C113	C	1.263475	-0.078104	0.357849
C114	C	1.596808	0.255229	0.691182
C115	C	1.072405	0.104465	0.069446
C116	C	1.405739	0.437798	0.402780
C117	C	1.739072	0.771132	0.736113
C118	C	1.159661	0.106230	0.075575
C119	C	1.492995	0.439563	0.408908
C120	C	1.826328	0.772897	0.742242
C121	C	0.923348	0.253533	0.048058
C122	C	1.256681	0.586867	0.381391
C123	C	1.590014	0.920200	0.714725
C124	C	0.925119	0.340790	0.041924
C125	C	1.258452	0.674123	0.375257
C126	C	1.591785	1.007456	0.708591
N127	N	0.917774	0.120761	0.272982
N128	N	1.251108	0.454094	0.606315
N129	N	1.584441	0.787428	0.939649
N130	N	0.939678	0.098932	-0.155475
N131	N	1.273011	0.432265	0.177858
N132	N	1.606344	0.765598	0.511191
C133	C	0.968881	0.069688	0.323898
C134	C	1.302214	0.403021	0.657232
C135	C	1.635548	0.736354	0.990565
C136	C	0.964469	0.074101	0.410454
C137	C	1.297803	0.407434	0.743788
C138	C	1.631136	0.740767	1.077121
C139	C	0.908955	0.129591	0.446092
C140	C	1.242288	0.462924	0.779425
C141	C	1.575621	0.796258	1.112759
C142	C	0.857842	0.180666	0.395169
C143	C	1.191176	0.514000	0.728502
C144	C	1.524509	0.847333	1.061836
C145	C	0.862251	0.176249	0.308615
C146	C	1.195584	0.509583	0.641948
C147	C	1.528917	0.842916	0.975281
C148	C	0.892974	0.145590	0.707047
C149	C	1.226307	0.478923	1.040381
C150	C	1.559641	0.812257	1.373714
C151	C	0.888571	0.150005	0.793608
C152	C	1.221904	0.483338	1.126942
C153	C	1.555238	0.816672	1.460275
C154	C	0.995198	0.043438	0.808888
C155	C	1.328531	0.376771	1.142221
C156	C	1.661864	0.710104	1.475554
C157	C	0.999604	0.039028	0.722331
C158	C	1.332937	0.372362	1.055664
C159	C	1.666271	0.705695	1.388998
C160	C	0.948489	0.090101	0.671416
C161	C	1.281823	0.423434	1.004749
C162	C	1.615156	0.756768	1.338082
C163	C	0.904446	0.134105	0.534566
C164	C	1.237779	0.467438	0.867899
C165	C	1.571112	0.800771	1.201232
C166	C	0.952995	0.085583	0.582944
C167	C	1.286328	0.418917	0.916277
C168	C	1.619662	0.752250	1.249610
H169	H	0.160322	0.113319	0.212100
H170	H	0.493655	0.446653	0.545434
H171	H	0.826989	0.779986	0.878767
H172	H	0.534491	0.117203	0.166930
H173	H	0.867825	0.450536	0.500264
H174	H	1.201158	0.783870	0.833597
Br175	Br	0.920952	-0.419327	0.198619
Br176	Br	1.254286	-0.085994	0.531952
Br177	Br	1.587619	0.247340	0.865285
Br178	Br	0.399579	0.102070	-0.081117
Br179	Br	0.732913	0.435404	0.252216
Br180	Br	1.066246	0.768737	0.585550
Br181	Br	1.033826	0.004783	0.479558
Br182	Br	1.367160	0.338117	0.812891
Br183	Br	1.700493	0.671450	1.146225
Br184	Br	0.721458	0.104747	-0.133736
Br185	Br	1.054792	0.438081	0.199598
Br186	Br	1.388125	0.771414	0.532931
Br187	Br	0.937791	-0.489596	-0.147311
Br188	Br	1.271125	-0.156263	0.186022
Br189	Br	1.604458	0.177071	0.519356
Br190	Br	0.915792	-0.664861	0.219642
Br191	Br	1.249125	-0.331528	0.552975
Br192	Br	1.582458	0.001806	0.886308
Br193	Br	1.044232	-0.005619	0.275543
Br194	Br	1.377565	0.327714	0.608876
Br195	Br	1.710899	0.661048	0.942209
H196	H	0.859246	0.179287	0.563589
H197	H	1.192579	0.512621	0.896922
H198	H	1.525912	0.845954	1.230256
Br199	Br	0.936476	-0.360980	-0.081116
Br200	Br	1.269810	-0.027647	0.252217
Br201	Br	1.603143	0.305686	0.585551
Br202	Br	0.933871	-0.682845	-0.133735
Br203	Br	1.267204	-0.349511	0.199598
Br204	Br	1.600537	-0.016178	0.532932
H205	H	0.851356	0.187177	0.665599
H206	H	1.184689	0.520510	0.998932
H207	H	1.518022	0.853844	1.332265
H208	H	0.921342	-0.495943	0.166936
H209	H	1.254675	-0.162609	0.500269
H210	H	1.588008	0.170724	0.833603
Br211	Br	0.782493	0.255971	0.443531
Br212	Br	1.115827	0.589304	0.776864
Br213	Br	1.449160	0.922638	1.110198
H214	H	0.922186	-0.270526	0.222552
H215	H	1.255520	0.062808	0.555885
H216	H	1.588853	0.396141	0.889219
Br217	Br	1.074949	-0.036277	0.673964
Br218	Br	1.408282	0.297056	1.007297
Br219	Br	1.741616	0.630390	1.340631
H220	H	0.925197	-0.121782	0.212105
H221	H	1.258531	0.211552	0.545438
H222	H	1.591864	0.544885	0.878772
H223	H	1.036812	0.001856	0.850351
H224	H	1.370145	0.335189	1.183684
H225	H	1.703479	0.668522	1.517017
Br226	Br	0.941671	-0.115450	-0.102140
Br227	Br	1.275004	0.217883	0.231193
Br228	Br	1.608338	0.551216	0.564527
Br229	Br	0.457866	0.117569	0.198615
Br230	Br	0.791199	0.450902	0.531948
Br231	Br	1.124533	0.784235	0.865282
H232	H	0.683215	0.120250	0.177380
H233	H	1.016548	0.453583	0.510714
H234	H	1.349881	0.786917	0.844047
H235	H	0.843362	0.195195	0.822619
H236	H	1.176695	0.528529	1.155953
H237	H	1.510029	0.861862	1.489286
H238	H	0.820633	0.217838	0.267159
H239	H	1.153967	0.551171	0.600492
H240	H	1.487300	0.884504	0.933825
H241	H	0.548381	0.103349	-0.105054
H242	H	0.881714	0.436682	0.228280
H243	H	1.215047	0.770016	0.561613
Br244	Br	0.329236	0.118877	0.264810
Br245	Br	0.662570	0.452210	0.598143
Br246	Br	0.995903	0.785543	0.931476
Br247	Br	0.154047	0.096935	-0.102142
Br248	Br	0.487380	0.430268	0.231191
Br249	Br	0.820713	0.763602	0.564525
H250	H	0.322956	0.102466	-0.049436
H251	H	0.656289	0.435800	0.283898
H252	H	0.989622	0.769133	0.617231
H253	H	0.936110	-0.284362	-0.049431
H254	H	1.269443	0.048971	0.283903
H255	H	1.602776	0.382304	0.617236
H256	H	0.998193	0.040400	0.553925
H257	H	1.331526	0.373733	0.887258
H258	H	1.664859	0.707067	1.220591
