data_functionalizedCrystal
_audit_creation_method	'MofGen! by Chris Wilmer'
_symmetry_space_group_name_H-M	'P1'
_symmetry_Int_Tables_number	1
_symmetry_cell_setting	triclinic
loop_
_symmetry_equiv_pos_as_xyz
  x,y,z
_cell_length_a	12.811457
_cell_length_b	15.995292
_cell_length_c	11.295483
_cell_angle_alpha	94.097347
_cell_angle_beta	91.289320
_cell_angle_gamma	83.757111
loop_
_atom_site_label
_atom_site_type_symbol
_atom_site_fract_x
_atom_site_fract_y
_atom_site_fract_z
O1	O	1.388988	0.115662	0.050985
O2	O	1.085743	0.126071	0.018235
O3	O	1.245687	-0.000944	0.035507
O4	O	1.229044	0.242678	0.033713
O5	O	1.231638	0.010194	0.232040
O6	O	1.071695	0.137210	0.214769
O7	O	1.374940	0.126801	0.247518
Cu8	Cu	1.222035	0.133022	0.249089
Cu9	Cu	1.238648	0.119850	0.016665
O10	O	1.214996	0.253816	0.230247
C11	C	1.039915	0.130716	0.112311
C12	C	0.924290	0.127951	0.099823
C13	C	0.691704	0.134884	0.290643
C14	C	0.583064	0.132286	0.278916
C15	C	0.598370	0.120151	0.064643
C16	C	0.707010	0.122749	0.076370
C17	C	0.753672	0.130117	0.189374
C18	C	0.862313	0.132721	0.201100
C19	C	0.877618	0.120580	-0.013172
C20	C	0.768978	0.117982	-0.024899
C21	C	1.237985	-0.026577	0.133697
C22	C	1.235955	-0.119550	0.133469
C23	C	1.228489	-0.457360	0.132674
C24	C	1.343901	-0.432911	0.145580
C25	C	1.346127	-0.336240	0.145370
C26	C	1.232194	-0.289769	0.133069
C27	C	1.182500	-0.325786	0.014609
C28	C	1.181117	-0.422595	0.014369
C29	C	1.162784	-0.409808	0.237611
C30	C	1.166956	-0.313190	0.239551
C31	C	1.234282	-0.195053	0.133288
C32	C	1.226399	-0.552076	0.132447
C33	C	1.420768	0.122156	0.153440
C34	C	1.536393	0.124921	0.165920
C35	C	1.222698	0.279449	0.132053
C36	C	1.224728	0.372422	0.132274
N37	N	1.210357	0.142287	0.412564
N38	N	1.250334	0.110579	-0.146810
C39	C	1.334395	0.043841	0.675248
C40	C	1.325578	0.050848	0.798959
C41	C	1.183900	0.163304	0.783700
C42	C	1.192718	0.156297	0.659989
C43	C	1.267969	0.096564	0.605767
C44	C	1.276791	0.089561	0.482054
C45	C	1.135109	0.202013	0.466797
C46	C	1.126291	0.209021	0.590508
H47	H	0.729695	0.140894	0.382655
H48	H	0.730971	0.111979	-0.116903
C49	C	1.076630	0.344203	0.422135
C50	C	1.062087	0.259976	0.390424
H51	H	1.031557	0.379986	0.374980
H52	H	1.060607	0.356913	0.503563
H53	H	1.147588	0.352832	0.409346
H54	H	0.991130	0.251345	0.403221
H55	H	1.078103	0.247261	0.308976
H56	H	1.379668	0.007914	0.855528
H57	H	1.227085	-0.453781	-0.065208
C58	C	1.398950	-0.551814	0.258771
C59	C	1.396215	-0.463976	0.260711
H60	H	1.431252	-0.570994	0.329849
H61	H	1.329376	-0.567183	0.252652
H62	H	1.438095	-0.576836	0.192504
H63	H	1.357063	-0.438954	0.326974
H64	H	1.465801	-0.448599	0.266843
C65	C	0.912379	0.182860	-0.193458
C66	C	0.945736	0.115340	-0.124499
H67	H	0.954436	0.179629	-0.262180
H68	H	0.841008	0.180250	-0.216608
H69	H	0.919087	0.234495	-0.148357
H70	H	0.939020	0.063704	-0.169598
H71	H	1.017124	0.117942	-0.101350
C72	C	1.044717	0.273741	0.756203
C73	C	1.101172	0.228945	0.843312
H74	H	0.993637	0.314258	0.793007
H75	H	1.091494	0.301578	0.712639
H76	H	1.010719	0.235766	0.703900
H77	H	1.135177	0.266919	0.895611
H78	H	1.054388	0.201107	0.886896
H79	H	1.393872	-0.466039	0.070328
H80	H	0.900303	0.138725	0.293113
H81	H	1.385578	-0.312220	0.230699
H82	H	1.065021	0.257652	0.634669
C83	C	0.578851	0.144548	0.491891
C84	C	0.514946	0.137531	0.390234
H85	H	0.536795	0.147791	0.560615
H86	H	0.629494	0.096590	0.492863
H87	H	0.613591	0.194033	0.491144
H88	H	0.480212	0.088043	0.390977
H89	H	0.464285	0.185494	0.389262
H90	H	0.560361	0.114138	-0.027359
C91	C	1.000739	-0.369220	-0.016142
C92	C	1.067351	-0.443736	-0.004876
H93	H	0.930509	-0.382273	-0.028040
H94	H	1.005115	-0.333293	0.054065
H95	H	1.021409	-0.341568	-0.082106
H96	H	1.046685	-0.471386	0.061094
H97	H	1.062970	-0.479677	-0.075091
C98	C	1.454850	-0.392548	-0.018064
C99	C	1.415274	-0.316960	0.043200
H100	H	1.497533	-0.380644	-0.081148
H101	H	1.495670	-0.426907	0.034782
H102	H	1.398183	-0.421350	-0.049393
H103	H	1.471941	-0.288162	0.074536
H104	H	1.374453	-0.282588	-0.009655
C105	C	1.242176	-0.216959	-0.094278
C106	C	1.244667	-0.304584	-0.092302
H107	H	1.280565	-0.203873	-0.160274
H108	H	1.171447	-0.192673	-0.100908
H109	H	1.272845	-0.194908	-0.022996
H110	H	1.213991	-0.326635	-0.163580
H111	H	1.315410	-0.328880	-0.085681
H112	H	1.098958	-0.294961	0.001385
H113	H	1.193059	-0.432725	0.326604
C114	C	1.245732	-0.349554	0.426439
C115	C	1.215678	-0.281229	0.357760
H116	H	1.275821	-0.329819	0.499410
H117	H	1.185879	-0.377055	0.441862
H118	H	1.295895	-0.388120	0.384628
H119	H	1.165509	-0.242666	0.399568
H120	H	1.275539	-0.253715	0.342340
H121	H	1.083312	-0.280637	0.237351
C122	C	0.981935	-0.354881	0.215463
C123	C	1.047997	-0.429738	0.226259
H124	H	0.911075	-0.367190	0.208442
H125	H	0.989869	-0.317778	0.283779
H126	H	1.000049	-0.328916	0.146831
H127	H	1.029888	-0.455700	0.294896
H128	H	1.040057	-0.466855	0.157936
C129	C	1.415936	-0.020900	0.509566
C130	C	1.359500	0.023901	0.422449
H131	H	1.466992	-0.061441	0.472768
H132	H	1.449954	0.017062	0.561852
H133	H	1.369135	-0.048715	0.553148
H134	H	1.406300	0.051722	0.378873
H135	H	1.325481	-0.014067	0.370144
H136	H	1.395674	-0.004791	0.631101
