data_functionalizedCrystal
_audit_creation_method	'MofGen! by Chris Wilmer'
_symmetry_space_group_name_H-M	'P1'
_symmetry_Int_Tables_number	1
_symmetry_cell_setting	triclinic
loop_
_symmetry_equiv_pos_as_xyz
  x,y,z
_cell_length_a	19.805407
_cell_length_b	15.299816
_cell_length_c	19.805399
_cell_angle_alpha	99.658849
_cell_angle_beta	89.975799
_cell_angle_gamma	80.351068
loop_
_atom_site_label
_atom_site_type_symbol
_atom_site_fract_x
_atom_site_fract_y
_atom_site_fract_z
Zn1	Zn	1.081373	-0.359103	-0.429497
Zn2	Zn	1.100876	-0.509929	-0.335920
Zn3	Zn	0.968191	-0.359126	-0.316315
Zn4	Zn	0.987733	-0.509879	-0.449051
O5	O	1.034543	-0.434509	-0.382696
O6	O	1.178678	-0.379122	-0.417105
O7	O	1.083258	-0.489955	-0.238607
O8	O	0.966864	-0.232912	-0.314941
O9	O	1.193007	-0.489933	-0.348354
O10	O	1.050019	-0.232895	-0.398095
O11	O	0.985775	-0.379161	-0.224203
O12	O	0.876065	-0.379113	-0.333902
O13	O	1.000171	-0.489848	-0.541170
O14	O	0.890422	-0.489870	-0.431423
O15	O	1.068968	-0.379074	-0.526803
O16	O	1.102207	-0.636134	-0.367316
O17	O	1.019082	-0.636097	-0.450433
C18	C	0.858684	-0.434489	-0.382657
C19	C	0.783454	-0.434502	-0.382660
C20	C	1.064900	-0.668841	-0.413138
C21	C	1.077948	-0.769089	-0.426184
C22	C	0.329172	-0.492289	-0.433464
C23	C	0.399860	-0.492288	-0.433450
C24	C	0.427696	-0.434531	-0.382725
C25	C	0.384841	-0.376779	-0.332008
C26	C	0.314154	-0.376786	-0.332020
C27	C	0.669910	-0.376751	-0.331957
C28	C	0.740602	-0.376747	-0.331949
C29	C	0.755616	-0.492253	-0.433386
C30	C	0.684930	-0.492260	-0.433399
C31	C	0.642081	-0.434512	-0.382680
C32	C	0.565433	-0.434515	-0.382695
C33	C	0.504342	-0.434522	-0.382712
C34	C	0.941726	-1.052005	-0.289684
C35	C	0.929463	-0.957817	-0.277429
C36	C	0.966583	-0.910630	-0.314616
C37	C	1.015969	-0.957641	-0.364062
C38	C	1.028230	-1.051838	-0.376323
C39	C	1.053087	-0.910463	-0.401255
C40	C	1.102473	-0.957474	-0.450701
C41	C	1.114731	-1.051662	-0.462959
C42	C	1.077611	-1.098848	-0.425771
C43	C	1.040826	-0.816266	-0.388994
C44	C	1.127330	-0.816099	-0.475632
C45	C	1.139593	-0.910287	-0.487888
C46	C	1.211088	-0.434531	-0.382735
C47	C	1.286322	-0.434539	-0.382752
C48	C	1.034574	-0.434453	-0.559231
C49	C	1.034587	-0.434428	-0.634460
C50	C	1.004086	-0.199263	-0.352150
C51	C	0.991107	-0.099015	-0.339133
C52	C	1.070410	-0.376745	-0.662324
C53	C	1.070413	-0.376719	-0.733010
C54	C	1.034597	-0.434381	-0.775830
C55	C	0.998770	-0.492067	-0.747961
C56	C	0.998762	-0.492088	-0.677276
C57	C	0.998797	-0.491983	-1.033023
C58	C	0.998808	-0.491959	-1.103713
C59	C	1.070448	-0.376614	-1.088756
C60	C	1.070441	-0.376635	-1.018072
C61	C	1.034610	-0.434317	-0.990209
C62	C	1.034606	-0.434343	-0.913564
C63	C	1.034605	-0.434360	-0.852474
C64	C	1.034543	-0.434501	-0.206839
C65	C	1.034628	-0.434271	-0.131577
H66	H	0.306513	-0.539317	-0.474773
C67	C	0.953094	-0.807020	-0.301130
N68	N	0.942935	-0.728978	-0.290967
C69	C	0.875126	-0.906112	-0.223054
N70	N	0.834191	-0.867168	-0.182101
H71	H	0.434746	-0.539315	-0.474744
H72	H	0.969605	-0.539013	-0.782831
C73	C	1.109853	-0.313151	-1.119411
N74	N	1.139531	-0.265352	-1.142498
H75	H	0.279266	-0.329757	-0.290726
H76	H	0.969640	-0.538916	-1.138576
C77	C	0.802757	-0.555788	-0.489174
N78	N	0.838263	-0.603640	-0.531191
H79	H	1.099586	-0.329750	-0.755693
H80	H	1.179803	-0.948576	-0.528148
C81	C	0.900947	-1.103916	-0.248737
N82	N	0.870247	-1.143017	-0.217875
C83	C	0.654315	-0.555804	-0.489195
N84	N	0.631259	-0.603673	-0.531218
H85	H	1.154942	-1.089935	-0.503224
C86	C	1.109838	-0.313199	-0.970973
N87	N	1.139509	-0.265413	-0.935498
C88	C	0.771220	-0.313213	-0.276142
N89	N	0.794282	-0.265362	-0.234110
C90	C	0.959380	-0.555432	-1.002383
N91	N	0.929688	-0.603223	-0.979303
H92	H	0.635031	-0.329732	-0.290656
C93	C	1.091098	-1.202461	-0.439250
N94	N	1.101254	-1.280504	-0.449401
H95	H	0.407511	-0.329757	-0.290704
C96	C	1.168167	-0.764198	-0.516540
N97	N	1.198922	-0.725100	-0.547350
C98	C	0.959355	-0.555545	-0.646627
N99	N	0.929671	-0.603342	-0.623543
C100	C	1.109810	-0.313311	-0.615228
N101	N	1.139485	-0.265526	-0.579756
H102	H	1.000616	-0.777998	-0.348735
