data_functionalizedCrystal
_audit_creation_method	'MofGen! by Chris Wilmer'
_symmetry_space_group_name_H-M	'P1'
_symmetry_Int_Tables_number	1
_symmetry_cell_setting	triclinic
loop_
_symmetry_equiv_pos_as_xyz
  x,y,z
_cell_length_a	19.805407
_cell_length_b	21.295417
_cell_length_c	19.805407
_cell_angle_alpha	90.016337
_cell_angle_beta	90.002724
_cell_angle_gamma	90.029702
loop_
_atom_site_label
_atom_site_type_symbol
_atom_site_fract_x
_atom_site_fract_y
_atom_site_fract_z
Zn1	Zn	1.034608	-0.250707	0.382709
Zn2	Zn	1.034549	-0.355951	0.269516
Zn3	Zn	0.921456	-0.250700	0.269534
Zn4	Zn	0.921379	-0.355943	0.382663
O5	O	0.977998	-0.303325	0.326106
O6	O	1.129316	-0.264675	0.367706
O7	O	1.019555	-0.341990	0.174802
O8	O	0.936522	-0.162612	0.284573
O9	O	1.129274	-0.341997	0.284544
O10	O	1.019654	-0.162617	0.367722
O11	O	0.936465	-0.264662	0.174815
O12	O	0.826729	-0.264654	0.284529
O13	O	0.936392	-0.341982	0.477386
O14	O	0.826673	-0.341975	0.367644
O15	O	1.019580	-0.264667	0.477419
O16	O	1.019481	-0.444040	0.284499
O17	O	0.936335	-0.444033	0.367628
C18	C	0.802142	-0.303313	0.326084
C19	C	0.726910	-0.303323	0.326090
C20	C	0.977912	-0.466877	0.326071
C21	C	0.977937	-0.536845	0.326079
C22	C	0.691554	-0.343645	0.369299
C23	C	0.620866	-0.343646	0.369308
C24	C	0.585534	-0.303328	0.326106
C25	C	0.620895	-0.263002	0.282895
C26	C	0.691582	-0.262998	0.282890
C27	C	0.335822	-0.263016	0.282918
C28	C	0.265129	-0.263024	0.282925
C29	C	0.265105	-0.343664	0.369336
C30	C	0.335793	-0.343660	0.369331
C31	C	0.371147	-0.303332	0.326123
C32	C	0.447795	-0.303330	0.326114
C33	C	0.508887	-0.303333	0.326111
C34	C	1.021199	-0.569657	0.369406
C35	C	1.021223	-0.635400	0.369423
C36	C	0.977992	-0.668328	0.326101
C37	C	0.934721	-0.635507	0.282771
C38	C	0.934693	-0.569766	0.282760
N39	N	0.972898	-0.771576	0.266865
N40	N	0.972928	-0.834027	0.266877
C41	C	0.978071	-0.866402	0.326131
N42	N	0.983196	-0.833967	0.385374
N43	N	0.983169	-0.771509	0.385361
C44	C	0.978016	-0.739613	0.326108
C45	C	1.021361	-0.970500	0.369480
C46	C	1.021380	-1.036244	0.369498
C47	C	0.934882	-1.036350	0.282839
C48	C	0.934859	-0.970608	0.282828
C49	C	0.978102	-0.937687	0.326147
C50	C	1.154541	-0.303338	0.326128
C51	C	1.229773	-0.303343	0.326137
C52	C	0.977984	-0.303324	0.502648
C53	C	0.977978	-0.303324	0.577880
C54	C	0.978103	-0.139135	0.326155
C55	C	0.978148	-0.069167	0.326176
C56	C	1.021266	-0.343597	1.039662
C57	C	1.021260	-0.343597	0.968974
C58	C	0.977997	-0.303337	0.933642
C59	C	0.934733	-0.263077	0.969002
C60	C	0.934736	-0.263080	1.039689
C61	C	0.934720	-0.263064	0.683929
C62	C	0.934722	-0.263063	0.613237
C63	C	1.021243	-0.343581	0.613213
C64	C	1.021246	-0.343584	0.683900
C65	C	0.977980	-0.303328	0.719255
C66	C	0.977986	-0.303328	0.795903
C67	C	0.977994	-0.303332	0.856995
C68	C	0.978005	-0.303340	1.150250
C69	C	0.978006	-0.303339	1.075018
H70	H	0.720316	-0.376479	0.404477
H71	H	1.056470	-0.376362	0.584419
H72	H	1.056609	-1.062959	0.404783
H73	H	0.899678	-1.063159	0.247570
H74	H	0.899511	-0.230298	1.068475
H75	H	0.364599	-0.230183	0.247730
H76	H	0.592122	-0.230172	0.247722
H77	H	0.899634	-0.943890	0.247544
H78	H	1.056408	-0.542855	0.404681
H79	H	1.056498	-0.376379	1.068424
H80	H	0.236364	-0.230189	0.247744
H81	H	0.592082	-0.376481	0.404492
H82	H	0.899490	-0.230276	0.584472
H83	H	0.236311	-0.376499	0.404520
H84	H	0.364556	-0.376493	0.404508
H85	H	1.056477	-0.376387	0.940191
H86	H	1.056477	-0.376367	0.712664
H87	H	0.720368	-0.230161	0.247709
H88	H	0.899489	-0.230285	0.712706
H89	H	1.056446	-0.662121	0.404713
H90	H	0.899505	-0.230299	0.940229
H91	H	0.899520	-0.662321	0.247499
H92	H	0.899463	-0.543050	0.247477
H93	H	1.056570	-0.943695	0.404755
