data_functionalizedCrystal
_audit_creation_method	'MofGen! by Chris Wilmer'
_symmetry_space_group_name_H-M	'P1'
_symmetry_Int_Tables_number	1
_symmetry_cell_setting	triclinic
loop_
_symmetry_equiv_pos_as_xyz
  x,y,z
_cell_length_a	10.723023
_cell_length_b	10.654550
_cell_length_c	9.130313
_cell_angle_alpha	90.004369
_cell_angle_beta	89.996623
_cell_angle_gamma	95.523761
loop_
_atom_site_label
_atom_site_type_symbol
_atom_site_fract_x
_atom_site_fract_y
_atom_site_fract_z
O1	O	1.657214	-0.176145	-0.121795
O2	O	1.294064	-0.193006	-0.121799
O3	O	1.483988	-0.001835	-0.121788
O4	O	1.467289	-0.367316	-0.121806
O5	O	1.483975	-0.001829	0.121811
O6	O	1.294050	-0.193001	0.121800
O7	O	1.657200	-0.176139	0.121804
Cu8	Cu	1.475624	-0.184569	0.144045
Cu9	Cu	1.475640	-0.184576	-0.144039
O10	O	1.467276	-0.367310	0.121793
C11	C	1.247557	-0.191777	0.000000
C12	C	1.109002	-0.188106	-0.000001
C13	C	0.904027	-0.182673	0.126185
C14	C	1.047230	-0.186467	0.126189
C15	C	1.482755	0.044966	0.000011
C16	C	1.479087	0.184408	0.000009
C17	C	1.703707	-0.177369	0.000002
C18	C	1.842262	-0.181039	-0.000007
C19	C	1.468509	-0.414111	-0.000009
C20	C	1.472177	-0.553554	-0.000016
N21	N	1.475622	-0.184564	0.346667
C22	C	1.590911	0.263911	0.000009
C23	C	1.587457	0.394931	-0.000008
C24	C	1.360344	0.366933	-0.000021
C25	C	1.363800	0.235916	-0.000014
N26	N	1.475651	-0.184572	-0.346662
C27	C	1.559750	-0.099949	0.423324
C28	C	1.559762	-0.099949	0.576661
C29	C	1.391515	-0.269190	0.576671
C30	C	1.391498	-0.269183	0.423336
H31	H	1.055894	-0.186698	-0.108044
H32	H	0.850887	-0.181270	0.234220
C33	C	1.118976	-0.188364	0.272151
C34	C	1.195285	-0.299602	0.308536
C35	C	1.267033	-0.301500	0.454503
C36	C	1.262472	-0.192160	0.564086
C37	C	1.186159	-0.080914	0.527705
C38	C	1.114411	-0.079016	0.381737
H39	H	1.198665	-0.380550	0.227413
H40	H	1.323525	-0.383852	0.481434
H41	H	1.315584	-0.193564	0.672140
H42	H	1.182780	0.000034	0.608827
H43	H	1.057920	0.003336	0.354806
H44	H	0.895399	-0.182457	-0.108041
H45	H	1.684786	0.221979	0.000025
H46	H	1.628264	-0.031047	0.639071
H47	H	1.322986	-0.338087	0.360918
C48	C	1.298990	-0.362278	0.661008
C49	C	1.299075	-0.362370	0.829669
C50	C	1.206550	-0.455464	0.914001
C51	C	1.113942	-0.548467	0.829671
C52	C	1.113854	-0.548379	0.661000
C53	C	1.206378	-0.455284	0.576668
H54	H	1.367632	-0.293521	0.892103
H55	H	1.206616	-0.455529	1.038862
H56	H	1.045449	-0.617381	0.892098
H57	H	1.045296	-0.617228	0.598566
H58	H	1.206313	-0.455220	0.451807
C59	C	1.710467	0.482384	-0.000002
C60	C	1.804608	0.475933	0.126504
C61	C	1.927625	0.563385	0.126507
C62	C	1.956500	0.657287	0.000004
C63	C	1.862357	0.663741	-0.126512
C64	C	1.739340	0.576289	-0.126515
H65	H	1.783235	0.406418	0.220158
H66	H	1.997315	0.558607	0.220163
H67	H	2.047564	0.722024	0.000007
H68	H	1.883730	0.733256	-0.220165
H69	H	1.669650	0.581067	-0.220171
H70	H	1.272733	0.171181	-0.000019
C71	C	1.652274	-0.006861	0.338987
C72	C	1.648950	0.136176	0.360095
C73	C	1.741474	0.229270	0.275763
C74	C	1.837323	0.179327	0.170324
C75	C	1.840652	0.036283	0.149211
C76	C	1.748127	-0.056811	0.233542
H77	H	1.577993	0.173153	0.438152
H78	H	1.739010	0.335161	0.291393
H79	H	1.905815	0.248241	0.107896
H80	H	1.911608	-0.000694	0.071154
H81	H	1.750592	-0.162702	0.217913
H82	H	1.266481	0.408887	-0.000037
