data_functionalizedCrystal
_audit_creation_method	'MofGen! by Chris Wilmer'
_symmetry_space_group_name_H-M	'P1'
_symmetry_Int_Tables_number	1
_symmetry_cell_setting	triclinic
loop_
_symmetry_equiv_pos_as_xyz
  x,y,z
_cell_length_a	12.759401
_cell_length_b	12.645330
_cell_length_c	12.759401
_cell_angle_alpha	90.008188
_cell_angle_beta	90.005232
_cell_angle_gamma	90.019217
loop_
_atom_site_label
_atom_site_type_symbol
_atom_site_fract_x
_atom_site_fract_y
_atom_site_fract_z
Zn1	Zn	1.606082	-0.422162	0.594031
Zn2	Zn	2.106082	0.077838	1.094031
Zn3	Zn	1.606012	-0.599399	0.418356
Zn4	Zn	2.106012	-0.099399	0.918356
Zn5	Zn	1.430429	-0.422155	0.418366
Zn6	Zn	1.930429	0.077845	0.918366
Zn7	Zn	1.430363	-0.599389	0.593993
Zn8	Zn	1.930363	-0.099389	1.093993
O9	O	1.518221	-0.510776	0.506186
O10	O	2.018221	-0.010776	1.006186
O11	O	1.753093	-0.445681	0.570739
O12	O	2.253093	0.054319	1.070739
O13	O	1.582718	-0.575888	0.271336
O14	O	2.082718	-0.075888	0.771336
O15	O	1.453786	-0.273808	0.441689
O16	O	1.953786	0.226192	0.941689
O17	O	1.753042	-0.575895	0.441671
O18	O	2.253042	-0.075895	0.941671
O19	O	1.582838	-0.273814	0.570749
O20	O	2.082838	0.226186	1.070749
O21	O	1.453718	-0.445667	0.271344
O22	O	1.953718	0.054333	0.771344
O23	O	1.283399	-0.445658	0.441652
O24	O	1.783399	0.054342	0.941652
O25	O	1.453674	-0.575879	0.741019
O26	O	1.953674	-0.075879	1.241019
O27	O	1.283351	-0.575871	0.570684
O28	O	1.783351	-0.075871	1.070684
O29	O	1.582774	-0.445671	0.741047
O30	O	2.082774	0.054329	1.241047
O31	O	1.582655	-0.747745	0.441634
O32	O	2.082655	-0.247745	0.941634
O33	O	1.453607	-0.747738	0.570674
O34	O	1.953607	-0.247738	1.070674
C35	C	1.245254	-0.510763	0.506165
C36	C	1.745254	-0.010763	1.006165
C37	C	1.128477	-0.510783	0.506181
C38	C	1.628477	-0.010783	1.006181
C39	C	1.518145	-0.786206	0.506172
C40	C	2.018145	-0.286206	1.006172
C41	C	1.518208	-0.904036	0.506200
C42	C	2.018208	-0.404036	1.006200
C43	C	1.073618	-0.578688	0.573263
C44	C	1.573618	-0.078688	1.073263
C45	C	0.963894	-0.578692	0.573284
C46	C	1.463894	-0.078692	1.073284
C47	C	0.963898	-0.442883	0.439133
C48	C	1.463898	0.057117	0.939133
C49	C	1.073620	-0.442875	0.439118
C50	C	1.573620	0.057125	0.939118
C51	C	1.437358	-1.071640	0.587630
C52	C	1.937358	-0.571640	1.087630
C53	C	1.436945	-0.949080	0.587368
C54	C	1.936945	-0.449080	1.087368
C55	C	1.488263	-0.948598	0.395478
C56	C	1.988263	-0.448598	0.895478
C57	C	1.487769	-1.071197	0.395973
C58	C	1.987769	-0.571197	0.895973
C59	C	1.629497	-1.071131	0.534595
C60	C	2.129497	-0.571131	1.034595
C61	C	1.628815	-0.948524	0.537016
C62	C	2.128815	-0.448524	1.037016
C63	C	1.792254	-0.510790	0.506208
C64	C	2.292254	-0.010790	1.006208
C65	C	1.909031	-0.510796	0.506217
C66	C	2.409031	-0.010796	1.006217
C67	C	1.518225	-0.510775	0.780220
C68	C	2.018225	-0.010775	1.280220
C69	C	1.518226	-0.510774	0.896996
C70	C	2.018226	-0.010774	1.396996
C71	C	1.518327	-0.234271	0.506224
C72	C	2.018327	0.265729	1.006224
C73	C	1.518372	-0.116441	0.506240
C74	C	2.018372	0.383559	1.006240
C75	C	1.585431	-0.442986	1.061605
C76	C	2.085431	0.057014	1.561605
C77	C	1.585440	-0.442986	0.951881
C78	C	2.085440	0.057014	1.451881
C79	C	1.451006	-0.578575	0.951841
C80	C	1.951006	-0.078575	1.451841
C81	C	1.451003	-0.578579	1.061563
C82	C	1.951003	-0.078579	1.561563
C83	C	1.518211	-0.510796	1.233219
C84	C	2.018211	-0.010796	1.733219
C85	C	1.518214	-0.510779	1.116442
C86	C	2.018214	-0.010779	1.616442
H87	H	1.118279	-0.633981	0.627873
H88	H	1.618279	-0.133981	1.127873
Cl89	Cl	1.669948	-0.357758	0.882948
Cl90	Cl	2.169948	0.142242	1.382948
H91	H	1.545400	-0.919420	0.333180
H92	H	2.045400	-0.419420	0.833180
Cl93	Cl	1.671680	-1.118783	0.657132
Cl94	Cl	2.171680	-0.618783	1.157132
Cl95	Cl	1.366502	-0.663819	1.130506
Cl96	Cl	1.866502	-0.163819	1.630506
H97	H	1.118288	-0.387571	0.384492
H98	H	1.618288	0.112429	0.884492
Cl99	Cl	1.465861	-0.902556	0.714125
Cl100	Cl	1.965861	-0.402556	1.214125
H101	H	1.455918	-1.101075	0.669999
H102	H	1.955918	-0.601075	1.169999
H103	H	0.919220	-0.387596	0.384531
H104	H	1.419220	0.112404	0.884531
Cl105	Cl	1.310961	-1.119365	0.559021
Cl106	Cl	1.810961	-0.619365	1.059021
H107	H	1.640158	-0.387778	1.106285
H108	H	2.140158	0.112222	1.606285
Cl109	Cl	0.894932	-0.664061	0.657620
Cl110	Cl	1.394932	-0.164061	1.157620
H111	H	1.396284	-0.633774	0.907144
H112	H	1.896284	-0.133774	1.407144
H113	H	1.354561	-0.919842	0.568583
H114	H	1.854561	-0.419842	1.068583
H115	H	1.651398	-0.919397	0.618502
H116	H	2.151398	-0.419397	1.118502
H117	H	1.406537	-1.099883	0.371952
H118	H	1.906537	-0.599883	0.871952
H119	H	1.544217	-1.100834	0.333263
H120	H	2.044217	-0.600834	0.833263
H121	H	1.407877	-0.917982	0.371023
H122	H	1.907877	-0.417982	0.871023
Cl123	Cl	1.726915	-0.901169	0.452164
Cl124	Cl	2.226915	-0.401169	0.952164
H125	H	1.689854	-1.100100	0.475316
H126	H	2.189854	-0.600100	0.975316
