data_functionalizedCrystal
_audit_creation_method	'MofGen! by Chris Wilmer'
_symmetry_space_group_name_H-M	'P1'
_symmetry_Int_Tables_number	1
_symmetry_cell_setting	triclinic
loop_
_symmetry_equiv_pos_as_xyz
  x,y,z
_cell_length_a	12.759395
_cell_length_b	19.121449
_cell_length_c	12.759387
_cell_angle_alpha	92.474395
_cell_angle_beta	90.019431
_cell_angle_gamma	87.585129
loop_
_atom_site_label
_atom_site_type_symbol
_atom_site_fract_x
_atom_site_fract_y
_atom_site_fract_z
Zn1	Zn	1.624022	-0.279576	0.576117
Zn2	Zn	1.631372	-0.397043	0.392935
Zn3	Zn	1.448323	-0.279611	0.400455
Zn4	Zn	1.455769	-0.396990	0.568580
O5	O	1.539872	-0.338305	0.484522
O6	O	1.772019	-0.295166	0.551824
O7	O	1.607050	-0.381502	0.246909
O8	O	1.465437	-0.181323	0.430059
O9	O	1.777419	-0.381469	0.417241
O10	O	1.594523	-0.181298	0.559117
O11	O	1.472565	-0.295226	0.252434
O12	O	1.302289	-0.295174	0.422750
O13	O	1.478128	-0.381378	0.716604
O14	O	1.307760	-0.381411	0.546271
O15	O	1.601743	-0.295115	0.722141
O16	O	1.614271	-0.495319	0.409933
O17	O	1.485255	-0.495280	0.538979
C18	C	1.266903	-0.338291	0.484510
C19	C	1.150127	-0.338302	0.484528
C20	C	1.144494	-0.248581	0.624878
C21	C	1.086817	-0.203729	0.695061
C22	C	0.977097	-0.203741	0.695073
C23	C	0.925050	-0.248609	0.624893
C24	C	0.982727	-0.293461	0.554710
C25	C	1.092450	-0.293445	0.554708
C26	C	0.988360	-0.383178	0.414357
C27	C	1.098081	-0.383170	0.414348
C28	C	0.936314	-0.428046	0.344177
C29	C	0.993991	-0.472903	0.273998
C30	C	1.103718	-0.472889	0.273989
C31	C	1.155758	-0.428022	0.344166
C32	C	1.551397	-0.520784	0.472845
C33	C	1.556424	-0.598849	0.467885
C34	C	1.491568	-0.635529	0.532686
C35	C	1.496296	-0.708879	0.528021
C36	C	1.565885	-0.745548	0.458559
C37	C	1.630743	-0.708863	0.393751
C38	C	1.626010	-0.635514	0.398411
C39	C	1.583536	-0.967015	0.441124
C40	C	1.588267	-1.040369	0.436471
C41	C	1.453818	-1.040380	0.570741
C42	C	1.449094	-0.967030	0.575399
C43	C	1.513949	-0.930351	0.510587
C44	C	1.570722	-0.820524	0.453791
C45	C	1.509106	-0.855376	0.515350
C46	C	1.813906	-0.338320	0.484534
C47	C	1.930683	-0.338326	0.484540
C48	C	1.539947	-0.338236	0.758560
C49	C	1.539979	-0.338207	0.875338
C50	C	1.528330	-0.155114	0.496267
C51	C	1.523411	-0.077049	0.501273
C52	C	1.539854	-0.338323	0.211553
C53	C	1.540013	-0.338155	0.094788
C54	C	1.668708	-0.248387	0.881124
C55	C	1.733087	-0.203467	0.938878
C56	C	1.733111	-0.203441	1.048601
C57	C	1.668747	-0.248339	1.100573
C58	C	1.604368	-0.293260	1.042819
C59	C	1.604354	-0.293282	0.933093
C60	C	1.475634	-0.383075	1.037034
C61	C	1.475614	-0.383105	0.927310
C62	C	1.411270	-0.427973	1.089005
C63	C	1.346895	-0.472898	1.031251
C64	C	1.346875	-0.472922	0.921521
C65	C	1.411235	-0.428025	0.869556
H66	H	1.434906	-0.605678	0.589254
C67	C	1.276058	-0.522338	0.857993
C68	C	1.191646	-0.491914	0.784500
C69	C	1.120830	-0.541331	0.720976
C70	C	1.134425	-0.621171	0.730944
C71	C	1.218841	-0.651599	0.804440
C72	C	1.289657	-0.602182	0.867964
H73	H	1.181579	-0.432808	0.777118
H74	H	1.058340	-0.518806	0.666569
H75	H	1.082003	-0.657752	0.683920
H76	H	1.228909	-0.710705	0.811823
H77	H	1.352148	-0.624707	0.922371
H78	H	1.392429	-0.937176	0.631961
H79	H	1.668706	-0.248410	0.791781
H80	H	1.627382	-0.850388	0.397236
H81	H	1.233834	-0.248563	0.624871
H82	H	1.245098	-0.428003	0.344160
C83	C	1.424953	-0.749223	0.599310
C84	C	1.304876	-0.739208	0.591279
C85	C	1.233527	-0.779550	0.662571
C86	C	1.282255	-0.829906	0.741895
C87	C	1.402338	-0.839924	0.749929
C88	C	1.473687	-0.799582	0.678637
H89	H	1.268800	-0.701929	0.532556
H90	H	1.144634	-0.772134	0.656623
H91	H	1.229439	-0.859770	0.794670
H92	H	1.438415	-0.877203	0.808652
H93	H	1.562581	-0.806998	0.684585
H94	H	1.401016	-1.070252	0.623506
H95	H	0.846973	-0.428051	0.344189
H96	H	1.644941	-1.070223	0.379907
H97	H	1.785490	-0.166911	0.896551
H98	H	1.294489	-0.509447	1.073575
C99	C	1.654885	-0.926679	0.369836
C100	C	1.647032	-0.936842	0.249749
C101	C	1.718387	-0.896505	0.178457
C102	C	1.797594	-0.846004	0.227252
C103	C	1.805450	-0.835838	0.347345
C104	C	1.734095	-0.876175	0.418638
H105	H	1.588396	-0.974228	0.213623
H106	H	1.712571	-0.904031	0.089555
H107	H	1.850415	-0.816144	0.174477
H108	H	1.864086	-0.798452	0.383472
H109	H	1.739911	-0.868649	0.507539
H110	H	1.129205	-0.167197	0.752198
H111	H	1.785527	-0.166859	1.095625
H112	H	1.687400	-0.738724	0.337188
H113	H	0.930136	-0.167215	0.752216
H114	H	1.411290	-0.427946	1.178348
H115	H	1.678821	-0.605649	0.345641
H116	H	1.668763	-0.248309	1.189916
H117	H	1.452443	-0.825518	0.571902
H118	H	1.411230	-0.428044	0.780213
H119	H	0.835709	-0.248610	0.624901
C120	C	0.936741	-0.522252	0.196807
C121	C	0.816051	-0.522263	0.196813
C122	C	0.758797	-0.571615	0.119622
C123	C	0.822232	-0.620956	0.042426
C124	C	0.942928	-0.620948	0.042418
C125	C	1.000182	-0.571596	0.119609
H126	H	0.769087	-0.485736	0.253960
H127	H	0.669449	-0.571621	0.119629
H128	H	0.779848	-0.657490	-0.014715
H129	H	0.989892	-0.657475	-0.014729
H130	H	1.089530	-0.571590	0.119602
H131	H	1.150672	-0.509411	0.216834
