data_functionalizedCrystal
_audit_creation_method	'MofGen! by Chris Wilmer'
_symmetry_space_group_name_H-M	'P1'
_symmetry_Int_Tables_number	1
_symmetry_cell_setting	triclinic
loop_
_symmetry_equiv_pos_as_xyz
  x,y,z
_cell_length_a	15.995350
_cell_length_b	14.044220
_cell_length_c	13.101039
_cell_angle_alpha	86.332523
_cell_angle_beta	86.648674
_cell_angle_gamma	91.659374
loop_
_atom_site_label
_atom_site_type_symbol
_atom_site_fract_x
_atom_site_fract_y
_atom_site_fract_z
O1	O	1.124319	-0.116957	-0.085064
O2	O	1.624319	0.383043	0.414936
O3	O	0.881672	-0.132043	-0.085100
O4	O	1.381672	0.367957	0.414900
O5	O	0.999353	0.013484	-0.085072
O6	O	1.499353	0.513484	0.414928
O7	O	1.006638	-0.262484	-0.085091
O8	O	1.506638	0.237516	0.414909
O9	O	0.990911	0.003025	0.085356
O10	O	1.490911	0.503025	0.585356
O11	O	0.873230	-0.142501	0.085328
O12	O	1.373230	0.357499	0.585328
O13	O	1.115877	-0.127416	0.085364
O14	O	1.615877	0.372584	0.585364
Zn15	Zn	0.993213	-0.136619	0.112405
Zn16	Zn	1.493213	0.363381	0.612405
Zn17	Zn	1.004336	-0.122840	-0.112141
Zn18	Zn	1.504336	0.377160	0.387859
O19	O	0.998196	-0.272943	0.085336
O20	O	1.498196	0.227057	0.585336
C21	C	0.846210	-0.136648	0.000110
C22	C	1.346210	0.363352	0.500110
C23	C	0.753121	-0.134777	0.000097
C24	C	1.253121	0.365223	0.500097
C25	C	1.151339	-0.122811	0.000152
C26	C	1.651339	0.377189	0.500152
C27	C	1.244429	-0.124681	0.000159
C28	C	1.744429	0.375319	0.500159
C29	C	0.991943	0.043569	0.000142
C30	C	1.491943	0.543569	0.500142
C31	C	0.982432	0.148795	0.000142
C32	C	1.482432	0.648795	0.500142
C33	C	1.582680	-0.131394	0.000117
C34	C	2.082680	0.368606	0.500117
C35	C	1.542968	-0.235060	0.000495
C36	C	2.042968	0.264940	0.500495
C37	C	1.446157	-0.233167	0.000122
C38	C	1.946157	0.266833	0.500122
C39	C	1.414870	-0.128064	0.000138
C40	C	1.914870	0.371936	0.500138
C41	C	1.456933	-0.070971	-0.097182
C42	C	1.956933	0.429029	0.402818
C43	C	1.553768	-0.073569	-0.097275
C44	C	2.053768	0.426431	0.402725
C45	C	1.544399	-0.083322	0.096534
C46	C	2.044399	0.416678	0.596534
C47	C	1.447392	-0.083427	0.097831
C48	C	1.947392	0.416573	0.597831
C49	C	1.320031	-0.126177	0.000147
C50	C	1.820031	0.373823	0.500147
C51	C	1.677519	-0.133278	0.000102
C52	C	2.177519	0.366722	0.500102
C53	C	1.005606	-0.303028	0.000120
C54	C	1.505606	0.196972	0.500120
C55	C	1.015117	-0.408253	0.000114
C56	C	1.515117	0.091747	0.500114
N57	N	0.985628	-0.146023	0.265652
N58	N	1.485628	0.353977	0.765652
C59	C	0.965045	0.341457	0.000124
C60	C	1.465045	0.841457	0.500124
C61	C	1.032501	0.399090	0.000131
C62	C	1.532501	0.899090	0.500131
C63	C	1.022826	0.506294	0.000121
C64	C	1.522826	1.006294	0.500121
C65	C	0.974718	0.234243	0.000134
C66	C	1.474718	0.734243	0.500134
N67	N	1.011927	-0.113428	-0.265388
N68	N	1.511927	0.386572	0.234612
C69	C	0.975309	-0.158826	0.474692
C70	C	1.475309	0.341174	0.974692
C71	C	1.022244	-0.100629	0.525579
C72	C	1.522244	0.399371	1.025579
C73	C	1.016502	-0.107752	0.641896
C74	C	1.516502	0.392248	1.141896
C75	C	0.981050	-0.151703	0.358364
C76	C	1.481050	0.348297	0.858364
H77	H	1.417292	-0.277636	0.069881
H78	H	1.917292	0.222364	0.569881
O79	O	1.567057	-0.295622	0.092920
O80	O	2.067057	0.204378	0.592920
H81	H	1.607596	-0.252489	0.139575
H82	H	2.107596	0.247511	0.639575
O83	O	1.118626	0.357811	0.000162
O84	O	1.618626	0.857811	0.500162
H85	H	1.112810	0.278864	0.000179
H86	H	1.612810	0.778864	0.500179
O87	O	1.081185	-0.027546	0.467576
O88	O	1.581185	0.472454	0.967576
H89	H	1.114679	0.013992	0.522799
H90	H	1.614679	0.513992	1.022799
O91	O	1.430817	0.031604	-0.101965
O92	O	1.930817	0.531604	0.398035
H93	H	1.487142	0.079502	-0.100897
H94	H	1.987142	0.579502	0.399103
H95	H	0.900034	0.372627	0.000112
H96	H	1.400034	0.872627	0.500112
O97	O	0.916386	-0.231923	0.532685
O98	O	1.416386	0.268077	1.032685
H99	H	0.870276	-0.195041	0.581582
H100	H	1.370276	0.304959	1.081582
O101	O	1.577524	-0.284039	-0.091458
O102	O	2.077524	0.215961	0.408542
H103	H	1.646553	-0.288239	-0.088746
H104	H	2.146553	0.211761	0.411254
O105	O	1.417800	-0.281153	-0.092389
O106	O	1.917800	0.218847	0.407611
H107	H	1.473262	-0.305784	-0.137047
H108	H	1.973262	0.194216	0.362953
O109	O	1.427601	-0.112112	-0.193127
O110	O	1.927601	0.387888	0.306873
H111	H	1.383088	-0.173198	-0.171743
H112	H	1.883088	0.326802	0.328257
O113	O	1.589248	0.027580	-0.103124
O114	O	2.089248	0.527580	0.396876
H115	H	1.658610	0.026484	-0.103225
H116	H	2.158610	0.526484	0.396775
H117	H	1.578444	-0.106384	-0.170030
H118	H	2.078444	0.393616	0.329970
H119	H	1.563831	-0.121733	0.170292
H120	H	2.063831	0.378267	0.670292
H121	H	1.426017	-0.007141	0.103717
H122	H	1.926017	0.492859	0.603717
O123	O	1.410234	-0.138726	0.193207
O124	O	1.910234	0.361274	0.693207
H125	H	1.368768	-0.197753	0.171137
H126	H	1.868768	0.302247	0.671137
O127	O	1.578871	0.017840	0.097428
O128	O	2.078871	0.517840	0.597428
H129	H	1.623054	0.033847	0.029576
H130	H	2.123054	0.533847	0.529576
