data_functionalizedCrystal
_audit_creation_method	'MofGen! by Chris Wilmer'
_symmetry_space_group_name_H-M	'P1'
_symmetry_Int_Tables_number	1
_symmetry_cell_setting	triclinic
loop_
_symmetry_equiv_pos_as_xyz
  x,y,z
_cell_length_a	17.077404
_cell_length_b	18.101395
_cell_length_c	17.077396
_cell_angle_alpha	89.971698
_cell_angle_beta	89.982756
_cell_angle_gamma	90.031329
loop_
_atom_site_label
_atom_site_type_symbol
_atom_site_fract_x
_atom_site_fract_y
_atom_site_fract_z
Zn1	Zn	1.199992	-0.294819	-0.443848
Zn2	Zn	1.533326	0.038514	-0.110515
Zn3	Zn	1.866659	0.371848	0.222818
Zn4	Zn	1.199886	-0.418670	-0.312585
Zn5	Zn	1.533219	-0.085336	0.020749
Zn6	Zn	1.866552	0.247997	0.354082
Zn7	Zn	1.068729	-0.294847	-0.312596
Zn8	Zn	1.402063	0.038486	0.020737
Zn9	Zn	1.735396	0.371820	0.354070
Zn10	Zn	1.068673	-0.418624	-0.443808
Zn11	Zn	1.402007	-0.085290	-0.110475
Zn12	Zn	1.735340	0.248043	0.222859
O13	O	1.134320	-0.356740	-0.378209
O14	O	1.467654	-0.023406	-0.044876
O15	O	1.800987	0.309927	0.288457
O16	O	1.309825	-0.311256	-0.426448
O17	O	1.643158	0.022078	-0.093114
O18	O	1.976492	0.355411	0.240219
O19	O	1.182466	-0.402275	-0.202739
O20	O	1.515800	-0.068942	0.130594
O21	O	1.849133	0.264392	0.463928
O22	O	1.086210	-0.191210	-0.330029
O23	O	1.419543	0.142123	0.003305
O24	O	1.752876	0.475456	0.336638
O25	O	1.309747	-0.402248	-0.330009
O26	O	1.643080	-0.068915	0.003324
O27	O	1.976413	0.264419	0.336658
O28	O	1.182648	-0.191190	-0.426459
O29	O	1.515981	0.142143	-0.093126
O30	O	1.849315	0.475477	0.240208
O31	O	1.086106	-0.311303	-0.202748
O32	O	1.419440	0.022030	0.130586
O33	O	1.752773	0.355364	0.463919
O34	O	0.958875	-0.311259	-0.329990
O35	O	1.292208	0.022075	0.003344
O36	O	1.625542	0.355408	0.336677
O37	O	1.086114	-0.402170	-0.553660
O38	O	1.419448	-0.068837	-0.220327
O39	O	1.752781	0.264497	0.113006
O40	O	0.958834	-0.402197	-0.426391
O41	O	1.292167	-0.068864	-0.093057
O42	O	1.625500	0.264470	0.240276
O43	O	1.182594	-0.311211	-0.553690
O44	O	1.515927	0.022122	-0.220357
O45	O	1.849260	0.355455	0.112977
O46	O	1.182412	-0.522296	-0.329970
O47	O	1.515745	-0.188963	0.003363
O48	O	1.849079	0.144370	0.336697
O49	O	1.086011	-0.522263	-0.426379
O50	O	1.419344	-0.188929	-0.093046
O51	O	1.752678	0.144404	0.240287
C52	C	0.930372	-0.356726	-0.378188
C53	C	1.263706	-0.023393	-0.044854
C54	C	1.597039	0.309940	0.288479
C55	C	0.843123	-0.356738	-0.378197
C56	C	1.176456	-0.023405	-0.044864
C57	C	1.509789	0.309928	0.288470
C58	C	0.802131	-0.404162	-0.428312
C59	C	1.135465	-0.070828	-0.094979
C60	C	1.468798	0.262505	0.238354
C61	C	0.720151	-0.404163	-0.428325
C62	C	1.053484	-0.070830	-0.094992
C63	C	1.386818	0.262504	0.238342
C64	C	0.679163	-0.356745	-0.378218
C65	C	1.012496	-0.023412	-0.044884
C66	C	1.345830	0.309922	0.288449
C67	C	0.720160	-0.309317	-0.328100
C68	C	1.053493	0.024017	0.005233
C69	C	1.386827	0.357350	0.338567
C70	C	0.802139	-0.309312	-0.328092
C71	C	1.135472	0.024022	0.005241
C72	C	1.468806	0.357355	0.338575
C73	C	0.549290	-0.309331	-0.328119
C74	C	0.882623	0.024002	0.005215
C75	C	1.215957	0.357335	0.338548
C76	C	0.467305	-0.309337	-0.328126
C77	C	0.800639	0.023997	0.005208
C78	C	1.133972	0.357330	0.338541
C79	C	0.467302	-0.404183	-0.428352
C80	C	0.800635	-0.070849	-0.095018
C81	C	1.133969	0.262484	0.238315
C82	C	0.549281	-0.404178	-0.428344
C83	C	0.882614	-0.070844	-0.095010
C84	C	1.215948	0.262489	0.238323
C85	C	0.590272	-0.356750	-0.378225
C86	C	0.923605	-0.023417	-0.044892
C87	C	1.256939	0.309916	0.288442
C88	C	1.134215	-0.549150	-0.378186
C89	C	1.467548	-0.215817	-0.044853
C90	C	1.800882	0.117516	0.288480
C91	C	1.134242	-0.631464	-0.378203
C92	C	1.467575	-0.298131	-0.044869
C93	C	1.800909	0.035202	0.288464
C94	C	1.134414	-0.930555	-0.378245
C95	C	1.467748	-0.597222	-0.044912
C96	C	1.801081	-0.263889	0.288422
C97	C	1.073902	-0.899240	-0.439054
C98	C	1.407235	-0.565907	-0.105720
C99	C	1.740569	-0.232573	0.227613
C100	C	1.073614	-0.813622	-0.438863
C101	C	1.406948	-0.480289	-0.105530
C102	C	1.740281	-0.146955	0.227803
C103	C	1.134329	-0.782173	-0.378225
C104	C	1.467662	-0.448840	-0.044891
C105	C	1.800995	-0.115506	0.288442
C106	C	1.111935	-0.813326	-0.295495
C107	C	1.445268	-0.479992	0.037838
C108	C	1.778602	-0.146659	0.371172
C109	C	1.111545	-0.898971	-0.295859
C110	C	1.444878	-0.565638	0.037474
C111	C	1.778212	-0.232304	0.370808
C112	C	1.217453	-0.898898	-0.399437
C113	C	1.550786	-0.565565	-0.066104
C114	C	1.884120	-0.232232	0.267229
C115	C	1.216965	-0.813247	-0.401252
C116	C	1.550298	-0.479914	-0.067918
C117	C	1.883631	-0.146581	0.265415
C118	C	1.134282	-0.698313	-0.378208
C119	C	1.467615	-0.364980	-0.044875
C120	C	1.800948	-0.031647	0.288459
C121	C	1.134459	-1.014415	-0.378256
C122	C	1.467793	-0.681081	-0.044923
C123	C	1.801126	-0.347748	0.288411
C124	C	1.339064	-0.356754	-0.378231
C125	C	1.672398	-0.023420	-0.044898
C126	C	2.005731	0.309913	0.288435
C127	C	1.426314	-0.356760	-0.378241
C128	C	1.759648	-0.023426	-0.044908
C129	C	2.092981	0.309907	0.288426
C130	C	1.134360	-0.356682	-0.582954
C131	C	1.467693	-0.023349	-0.249620
C132	C	1.801026	0.309984	0.083713
C133	C	1.134376	-0.356658	-0.670203
C134	C	1.467710	-0.023325	-0.336870
C135	C	1.801043	0.310009	-0.003537
C136	C	1.134447	-0.163578	-0.378250
C137	C	1.467780	0.169755	-0.044916
C138	C	1.801114	0.503089	0.288417
C139	C	1.134501	-0.081264	-0.378267
C140	C	1.467834	0.252070	-0.044933
C141	C	1.801168	0.585403	0.288400
C142	C	1.084217	-0.309283	-0.711197
C143	C	1.417550	0.024050	-0.377864
C144	C	1.750884	0.357383	-0.044531
C145	C	1.084230	-0.309266	-0.793178
C146	C	1.417563	0.024067	-0.459845
C147	C	1.750896	0.357400	-0.126511
C148	C	1.134407	-0.356621	-0.834163
C149	C	1.467740	-0.023288	-0.500830
C150	C	1.801073	0.310045	-0.167496
C151	C	1.184568	-0.404001	-0.793163
C152	C	1.517902	-0.070668	-0.459830
C153	C	1.851235	0.262665	-0.126497
C154	C	1.184551	-0.404021	-0.711184
C155	C	1.517884	-0.070688	-0.377851
C156	C	1.851218	0.262645	-0.044518
C157	C	1.184602	-0.403955	-0.964033
C158	C	1.517936	-0.070622	-0.630700
C159	C	1.851269	0.262712	-0.297367
C160	C	1.184621	-0.403934	-1.046018
C161	C	1.517954	-0.070601	-0.712685
C162	C	1.851287	0.262733	-0.379351
C163	C	1.084281	-0.309200	-1.046027
C164	C	1.417614	0.024133	-0.712694
C165	C	1.750948	0.357467	-0.379360
C166	C	1.084264	-0.309220	-0.964048
C167	C	1.417597	0.024113	-0.630715
C168	C	1.750930	0.357447	-0.297381
C169	C	1.134427	-0.356599	-0.923054
C170	C	1.467760	-0.023266	-0.589721
C171	C	1.801093	0.310067	-0.256387
C172	C	1.134326	-0.356744	-0.174261
C173	C	1.467659	-0.023410	0.159072
C174	C	1.800993	0.309923	0.492405
C175	C	1.134461	-0.356559	-0.087012
C176	C	1.467795	-0.023226	0.246321
C177	C	1.801128	0.310107	0.579655
H178	H	0.582662	-0.270704	-0.287314
H179	H	0.915996	0.062629	0.046020
H180	H	1.249329	0.395963	0.379353
H181	H	1.043362	-0.270717	-0.677833
H182	H	1.376695	0.062616	-0.344500
H183	H	1.710028	0.395949	-0.011167
F184	F	0.845747	-0.454635	-0.481641
F185	F	1.179080	-0.121302	-0.148307
F186	F	1.512413	0.212032	0.185026
F187	F	1.030814	-0.258871	-0.836803
F188	F	1.364148	0.074462	-0.503470
F189	F	1.697481	0.407796	-0.170137
F190	F	1.237966	-0.454404	-0.836785
F191	F	1.571299	-0.121071	-0.503451
F192	F	1.904632	0.212262	-0.170118
H193	H	1.043409	-0.270656	-0.930680
H194	H	1.376742	0.062677	-0.597347
H195	H	1.710076	0.396010	-0.264014
H196	H	0.433923	-0.442798	-0.469163
H197	H	0.767256	-0.109464	-0.135829
H198	H	1.100590	0.223869	0.197504
F199	F	1.238029	-0.454330	-1.089636
F200	F	1.571362	-0.120997	-0.756302
F201	F	1.904695	0.212336	-0.422969
F202	F	1.091925	-0.786086	-0.519044
F203	F	1.425258	-0.452753	-0.185710
F204	F	1.758591	-0.119419	0.147623
H205	H	0.433935	-0.270716	-0.287333
H206	H	0.767268	0.062618	0.046000
H207	H	1.100602	0.395951	0.379334
F208	F	1.167730	-0.786703	-0.234658
F209	F	1.501063	-0.453370	0.098675
F210	F	1.834397	-0.120036	0.432009
H211	H	0.686780	-0.442780	-0.469133
H212	H	1.020113	-0.109447	-0.135800
H213	H	1.353446	0.223886	0.197533
F214	F	1.237935	-0.454447	-0.667556
F215	F	1.571268	-0.121113	-0.334222
F216	F	1.904601	0.212220	-0.000889
F217	F	1.030895	-0.258774	-1.089657
F218	F	1.364228	0.074559	-0.756323
F219	F	1.697561	0.407892	-0.422990
F220	F	1.092029	-0.926097	-0.519495
F221	F	1.425362	-0.592764	-0.186162
F222	F	1.758695	-0.259430	0.147172
H223	H	1.012726	-0.920827	-0.425192
H224	H	1.346059	-0.587493	-0.091859
H225	H	1.679392	-0.254160	0.241474
F226	F	1.237988	-0.454385	-0.920406
F227	F	1.571321	-0.121051	-0.587073
F228	F	1.904655	0.212282	-0.253740
H229	H	0.582651	-0.442794	-0.469141
H230	H	0.915984	-0.109461	-0.135808
H231	H	1.249318	0.223873	0.197525
H232	H	1.153708	-0.919689	-0.249007
H233	H	1.487041	-0.586355	0.084327
H234	H	1.820374	-0.253022	0.417660
F235	F	0.676535	-0.258846	-0.274777
F236	F	1.009869	0.074488	0.058557
F237	F	1.343202	0.407821	0.391890
H238	H	0.835513	-0.270691	-0.287287
H239	H	1.168846	0.062642	0.046046
H240	H	1.502179	0.395975	0.379380
H241	H	1.012064	-0.793199	-0.424826
H242	H	1.345397	-0.459866	-0.091492
H243	H	1.678731	-0.126533	0.241841
H244	H	1.051877	-0.791941	-0.277221
H245	H	1.385211	-0.458608	0.056112
H246	H	1.718544	-0.125275	0.389446
F247	F	1.032205	-0.925171	-0.272395
F248	F	1.365538	-0.591838	0.060939
F249	F	1.698872	-0.258505	0.394272
F250	F	1.239040	-0.786631	-0.480832
F251	F	1.572373	-0.453298	-0.147499
F252	F	1.905706	-0.119964	0.185835
F253	F	1.244140	-0.927061	-0.476945
F254	F	1.577474	-0.593728	-0.143611
F255	F	1.910807	-0.260394	0.189722
H256	H	1.262537	-0.919149	-0.355148
H257	H	1.595870	-0.585816	-0.021815
H258	H	1.929203	-0.252482	0.311519
F259	F	1.279014	-0.785256	-0.347586
F260	F	1.612348	-0.451923	-0.014253
F261	F	1.945681	-0.118589	0.319081
