data_functionalizedCrystal
_audit_creation_method	'MofGen! by Chris Wilmer'
_symmetry_space_group_name_H-M	'P1'
_symmetry_Int_Tables_number	1
_symmetry_cell_setting	triclinic
loop_
_symmetry_equiv_pos_as_xyz
  x,y,z
_cell_length_a	14.446369
_cell_length_b	20.875650
_cell_length_c	20.875641
_cell_angle_alpha	60.100828
_cell_angle_beta	89.999801
_cell_angle_gamma	62.450172
loop_
_atom_site_label
_atom_site_type_symbol
_atom_site_fract_x
_atom_site_fract_y
_atom_site_fract_z
Zr1	Zr	0.934373	0.694185	-0.105592
O2	O	0.798772	0.820386	-0.208813
O3	O	0.970830	0.562968	-0.070703
O4	O	0.984511	0.686957	-0.204137
O5	O	0.780115	0.703848	0.026183
O6	O	1.136841	0.686963	-0.204143
O7	O	0.785091	0.696397	-0.075378
O8	O	1.112368	0.465169	0.034547
O9	O	0.804588	0.925641	-0.212507
O10	O	1.106237	0.618802	-0.059750
O11	O	0.988841	0.624359	0.016049
O12	O	1.004949	0.770340	-0.141054
O13	O	0.887553	0.775896	-0.065255
Zr14	Zr	1.169384	0.706078	0.056378
Zr15	Zr	1.177321	0.694194	-0.105601
Zr16	Zr	0.926436	0.706069	0.056387
Zr17	Zr	0.943648	0.862056	-0.111484
Zr18	Zr	1.160109	0.538207	0.062269
O19	O	1.132927	0.837295	0.021488
O20	O	1.144213	0.820398	-0.208826
O21	O	0.787487	0.837283	0.021500
O22	O	1.304985	0.579878	0.159598
O23	O	1.316271	0.562981	-0.070715
O24	O	0.959545	0.579865	0.159611
O25	O	1.323643	0.696416	-0.075398
O26	O	1.119246	0.713306	0.154922
O27	O	0.966917	0.713300	0.154928
O28	O	1.318666	0.703867	0.026163
O29	O	0.997699	0.925648	-0.212514
O30	O	1.106059	0.474615	0.163299
O31	O	1.299170	0.474622	0.163292
O32	O	1.305479	0.465176	0.034540
O33	O	0.798279	0.935087	-0.083755
O34	O	0.991390	0.935094	-0.083762
O35	O	1.098809	0.629923	0.091839
O36	O	1.216204	0.624367	0.016040
O37	O	1.114916	0.775905	-0.065263
O38	O	0.997521	0.781461	0.010535
C39	C	1.040277	0.490151	-0.017238
C40	C	1.036340	0.418885	-0.014737
C41	C	1.007961	0.017782	0.003890
C42	C	1.011606	0.084784	0.001492
C43	C	1.074702	0.115386	-0.039278
C44	C	1.134166	0.078976	-0.077647
C45	C	1.130526	0.011970	-0.075244
C46	C	1.092164	0.315469	-0.050703
C47	C	1.095797	0.382481	-0.053105
C48	C	0.973238	0.388284	0.026036
C49	C	0.969598	0.321281	0.028431
C50	C	1.029067	0.284873	-0.009934
N51	N	1.078427	0.183875	-0.041732
N52	N	1.025347	0.216381	-0.007475
C53	C	0.747988	0.700121	-0.024596
C54	C	0.644851	0.700117	-0.024592
C55	C	0.562064	0.604535	0.026437
C56	C	0.669376	0.604488	0.026712
C57	C	0.571301	0.751890	0.008549
C58	C	0.464391	0.751286	0.008915
C59	C	0.468698	0.744691	-0.108868
C60	C	0.577260	0.742833	-0.108667
C61	C	1.355769	0.700142	-0.024619
C62	C	1.458907	0.700146	-0.024623
C63	C	1.061807	0.685267	-0.227219
C64	C	1.065176	0.680222	-0.295983
C65	C	1.063480	0.910113	-0.031977
C66	C	1.067417	0.981378	-0.034478
C67	C	1.013890	0.756951	-0.370728
C68	C	1.017070	0.752205	-0.435337
C69	C	1.071531	0.670730	-0.425199
C70	C	1.122824	0.593995	-0.350445
C71	C	1.119650	0.598742	-0.285839
C72	C	1.086700	0.648053	-0.613872
C73	C	1.089868	0.643312	-0.678487
C74	C	0.984115	0.801523	-0.763374
C75	C	0.980940	0.806262	-0.698762
C76	C	1.032238	0.729527	-0.624015
N77	N	1.074780	0.665878	-0.491238
N78	N	1.028995	0.734381	-0.557977
C79	C	1.041951	0.714996	0.178004
C80	C	1.038581	0.720041	0.246768
C81	C	1.344168	0.490161	-0.017249
C82	C	1.443368	0.418899	-0.014752
C83	C	1.030349	0.505015	0.185373
C84	C	1.023042	0.438795	0.256638
C85	C	1.334240	0.505026	0.185362
C86	C	1.430071	0.438809	0.256623
C87	C	0.769518	0.895237	-0.234577
C88	C	0.673687	0.961454	-0.305838
C89	C	0.759589	0.910102	-0.031966
C90	C	0.660389	0.981364	-0.034463
C91	C	1.073408	0.895248	-0.234588
C92	C	1.080715	0.961468	-0.305853
C93	C	1.432552	0.382529	-0.053148
C94	C	1.525753	0.315579	-0.050817
C95	C	1.629769	0.284996	-0.010085
C96	C	1.640584	0.321374	0.028312
C97	C	1.547384	0.388327	0.025976
C98	C	1.077013	0.410602	0.329674
C99	C	1.070143	0.348391	0.396641
C100	C	1.009309	0.314368	0.390572
C101	C	0.955332	0.342567	0.317528
C102	C	0.962196	0.404782	0.250562
C103	C	1.536363	0.404812	0.250523
C104	C	1.626417	0.342603	0.317474
C105	C	1.610175	0.314388	0.390525
C106	C	1.503871	0.348391	0.396625
C107	C	1.413820	0.410603	0.329674
C108	C	0.567395	0.995459	-0.299738
C109	C	0.477342	1.057689	-0.366690
C110	C	0.493585	1.085908	-0.439742
C111	C	0.599888	1.051901	-0.445840
C112	C	0.689938	0.989676	-0.378889
C113	C	0.671206	1.017741	0.003926
C114	C	0.578007	1.084708	0.001576
C115	C	0.473991	1.115293	-0.039158
C116	C	0.463176	1.078912	-0.077551
C117	C	0.556375	1.011951	-0.075206
C118	C	1.141558	0.995471	-0.299759
C119	C	1.148445	1.057684	-0.366714
C120	C	1.094482	1.085898	-0.439763
C121	C	1.033636	1.051888	-0.445856
C122	C	1.026756	0.989672	-0.378901
H123	H	1.185547	0.103892	-0.110840
C124	C	0.946239	0.124797	0.043730
N125	N	0.897017	0.154924	0.075557
C126	C	1.486023	0.317337	0.476989
N127	N	1.472582	0.293940	0.537522
C128	C	1.709245	0.245945	0.464167
N129	N	1.783869	0.194390	0.519631
C130	C	1.215375	1.095088	-0.359994
N131	N	1.265785	1.123259	-0.354931
C132	C	0.544457	0.971933	-0.117429
N133	N	0.535472	0.941794	-0.149233
C134	C	1.559299	0.428319	0.068226
N135	N	1.568282	0.458438	0.100052
C136	C	1.143931	0.448020	0.336369
N137	N	1.194331	0.476205	0.341419
C138	C	0.617736	1.082943	-0.526205
N139	N	0.631175	1.106320	-0.586737
C140	C	0.959804	0.952287	-0.385619
N141	N	0.909369	0.924134	-0.390684
C142	C	1.182729	0.504371	-0.339295
N143	N	1.227845	0.436865	-0.330895
H144	H	1.100092	1.136559	-0.494275
H145	H	1.327275	0.438276	0.334652
C146	C	0.458130	0.710044	0.092559
N147	N	0.453421	0.678975	0.155563
C148	C	0.542142	0.847095	-0.039463
N149	N	0.520183	0.918804	-0.075627
H150	H	0.554148	0.972486	-0.240261
H151	H	1.114103	0.325439	0.456109
C152	C	0.371479	1.188950	-0.041726
N153	N	0.294271	1.244426	-0.043655
C154	C	1.743341	0.305203	0.310748
N155	N	1.831405	0.277032	0.305679
H156	H	0.390794	1.085368	-0.361709
H157	H	1.185503	0.972510	-0.240285
H158	H	0.918220	0.296368	0.061632
H159	H	1.347866	0.407427	-0.086325
C160	C	1.001781	0.245922	0.464244
N161	N	0.996120	0.194363	0.519737
C162	C	0.394514	1.154350	-0.513383
N163	N	0.319890	1.205897	-0.568847
C164	C	0.960602	0.836614	-0.517557
N165	N	0.918050	0.900194	-0.579487
C166	C	0.785615	0.984115	0.048735
N167	N	0.871787	0.958796	0.082483
H168	H	1.134215	0.576962	-0.670223
C169	C	0.589927	1.124708	0.043822
N170	N	0.598908	1.154832	0.075643
H171	H	0.956574	-0.007125	0.037085
H172	H	0.776484	0.961989	-0.383866
C173	C	0.902833	0.435777	0.170225
N174	N	0.858119	0.459118	0.109716
H175	H	0.905801	0.314857	0.312598
H176	H	0.378475	1.103825	-0.110716
H177	H	0.989702	1.074869	-0.505341
C178	C	0.550731	0.836735	-0.164020
N179	N	0.530750	0.907464	-0.205711
H180	H	0.942352	0.863996	-0.824238
H181	H	0.924823	0.417933	0.057271
C182	C	0.365804	0.846300	-0.038315
N183	N	0.291554	0.917863	-0.073882
H184	H	1.147180	0.407395	-0.086308
H185	H	1.516927	0.285968	-0.082084
H186	H	1.549609	0.427776	0.191046
H187	H	1.140583	0.285833	-0.081943
H188	H	1.128471	0.585570	-0.553018
H189	H	0.722654	0.564172	0.004668
C190	C	1.195930	-0.028071	-0.117455
N191	N	1.245195	-0.058230	-0.149248
C192	C	0.645771	0.691771	-0.142157
N193	N	0.697379	0.653308	-0.167379
H194	H	0.563390	0.563930	0.004535
H195	H	0.718104	0.569982	0.088924
C196	C	0.556814	0.558370	0.110048
N197	N	0.552945	0.523650	0.173054
C198	C	0.462706	0.698956	-0.146715
N199	N	0.458199	0.664500	-0.175213
C200	C	0.370840	0.839787	-0.160448
N201	N	0.297130	0.911412	-0.199292
C202	C	0.921038	0.895891	-0.709922
N203	N	0.875918	0.963402	-0.718329
C204	C	0.634477	0.711665	0.091383
N205	N	0.682063	0.681362	0.153776
C206	C	1.755011	0.287717	0.073120
N207	N	1.841200	0.262359	0.106875
H208	H	0.969535	0.823297	-0.378992
H209	H	1.161412	0.536261	-0.224977
H210	H	1.705649	0.230478	-0.008188
