data_functionalizedCrystal
_audit_creation_method	'MofGen! by Chris Wilmer'
_symmetry_space_group_name_H-M	'P1'
_symmetry_Int_Tables_number	1
_symmetry_cell_setting	triclinic
loop_
_symmetry_equiv_pos_as_xyz
  x,y,z
_cell_length_a	29.019771
_cell_length_b	29.019011
_cell_length_c	29.015668
_cell_angle_alpha	60.004890
_cell_angle_beta	60.009825
_cell_angle_gamma	59.993818
loop_
_atom_site_label
_atom_site_type_symbol
_atom_site_fract_x
_atom_site_fract_y
_atom_site_fract_z
O1	O	0.063866	-0.673289	0.563007
O2	O	0.024059	-0.524205	0.453633
O3	O	0.118464	-0.618532	0.453552
O4	O	-0.030540	-0.578962	0.563088
O5	O	0.149785	-0.587215	0.484789
O6	O	0.055379	-0.492888	0.484869
O7	O	0.095186	-0.641972	0.594244
Cu8	Cu	0.078143	-0.564571	0.542409
Cu9	Cu	0.041102	-0.601606	0.505468
O10	O	0.000781	-0.547645	0.594325
N11	N	0.104196	-0.538525	0.568394
N12	N	0.015054	-0.627656	0.479483
C13	C	0.143783	-0.499167	0.850823
C14	C	0.386758	-0.499111	0.607645
C15	C	0.143618	-0.499136	0.607763
C16	C	0.143598	-0.256029	0.607770
C17	C	0.182748	-0.373362	0.646852
C18	C	0.182758	-0.460025	0.646847
C19	C	0.204440	-0.438361	0.668500
C20	C	0.298958	-0.422064	0.618723
C21	C	0.358043	-0.441753	0.599006
C22	C	0.358069	-0.537354	0.635461
C23	C	0.298985	-0.517664	0.655180
C24	C	0.196983	-0.343808	0.588767
C25	C	0.177262	-0.284720	0.569090
C26	C	0.129075	-0.284743	0.665586
C27	C	0.148797	-0.343831	0.685263
C28	C	0.124666	-0.445760	0.661149
C29	C	0.104961	-0.465454	0.641458
C30	C	0.201435	-0.513678	0.593176
C31	C	0.221143	-0.493984	0.612860
C32	C	0.124738	-0.445777	0.763064
C33	C	0.105085	-0.465488	0.822151
C34	C	0.201594	-0.513722	0.822097
C35	C	0.221247	-0.494012	0.763009
C36	C	0.182817	-0.460038	0.733494
C37	C	0.269432	-0.460018	0.646809
C38	C	0.121399	-0.520450	0.915812
C39	C	0.451745	-0.520012	0.585655
C40	C	0.121177	-0.520429	0.586502
C41	C	0.121544	-0.191035	0.586883
C42	C	-0.110592	-0.666601	0.440035
C43	C	-0.023978	-0.666709	0.440231
C44	C	-0.045598	-0.688342	0.418486
C45	C	-0.061967	-0.782825	0.468184
C46	C	-0.042323	-0.841914	0.487907
C47	C	0.053280	-0.842025	0.451623
C48	C	0.033634	-0.782937	0.431899
C49	C	-0.140218	-0.680832	0.498102
C50	C	-0.199302	-0.661065	0.517690
C51	C	-0.199129	-0.612843	0.421140
C52	C	-0.140045	-0.632610	0.401552
C53	C	-0.038209	-0.608622	0.425941
C54	C	-0.018555	-0.588961	0.445716
C55	C	0.029562	-0.685470	0.494059
C56	C	0.009908	-0.705133	0.474291
C57	C	-0.038037	-0.608631	0.323917
C58	C	-0.018247	-0.588973	0.264830
C59	C	0.029955	-0.685489	0.264893
C60	C	0.010165	-0.705145	0.323981
C61	C	-0.023833	-0.666715	0.353492
C62	C	-0.023990	-0.753339	0.440182
N63	N	0.504925	-0.538487	0.568205
O64	O	0.685342	-0.543679	0.433426
O65	O	0.685533	-0.653395	0.582361
O66	O	0.685457	-0.653145	0.487904
O67	O	0.685418	-0.543929	0.527882
O68	O	0.591592	-0.621921	0.519268
O69	O	0.591667	-0.622171	0.613725
O70	O	0.591477	-0.512455	0.464790
Cu71	Cu	0.583001	-0.564462	0.542121
Cu72	Cu	0.694008	-0.601388	0.505029
O73	O	0.591553	-0.512705	0.559246
N74	N	0.772084	-0.627363	0.478939
N75	N	0.104168	-0.137853	0.568408
O76	O	-0.030538	0.042663	0.563097
O77	O	0.118403	0.042683	0.453379
O78	O	0.023918	0.042657	0.453664
O79	O	0.063947	0.042689	0.562813
O80	O	0.055242	-0.051215	0.484950
O81	O	0.149727	-0.051189	0.484666
O82	O	0.000787	-0.051210	0.594384
Cu83	Cu	0.078117	-0.059771	0.542381
Cu84	Cu	0.041072	0.051244	0.505382
O85	O	0.095272	-0.051184	0.594099
N86	N	0.015015	0.129326	0.479356
N87	N	0.104469	-0.538576	0.968995
O88	O	0.099171	-0.673268	1.149499
O89	O	-0.010519	-0.524279	1.149527
O90	O	-0.010265	-0.618748	1.149494
O91	O	0.098916	-0.578799	1.149533
O92	O	0.021008	-0.587443	1.055625
O93	O	0.020753	-0.492974	1.055659
O94	O	0.130444	-0.641963	1.055630
Cu95	Cu	0.078454	-0.564610	1.047074
Cu96	Cu	0.041470	-0.601632	1.158084
O97	O	0.130189	-0.547494	1.055664
N98	N	0.015455	-0.627672	1.236163
C99	C	0.035988	-0.489761	0.454182
C100	C	0.152897	-0.606574	0.454082
C101	C	0.083257	-0.676417	0.593694
C102	C	-0.033653	-0.559604	0.593794
C103	C	0.638623	-0.652892	0.616806
C104	C	0.638531	-0.652583	0.499833
C105	C	0.638384	-0.512957	0.430345
C106	C	0.638480	-0.513267	0.547317
C107	C	0.152789	-0.004135	0.453875
C108	C	0.035820	-0.004282	0.454266
C109	C	-0.033639	-0.004275	0.593849
C110	C	0.083370	-0.004245	0.593498
C111	C	-0.009989	-0.489856	1.102597
C112	C	-0.009667	-0.606839	1.102536
C113	C	0.129914	-0.676386	1.102561
C114	C	0.129599	-0.559396	1.102601
H115	H	0.057789	-0.453866	0.846219
O116	O	0.170468	-0.549101	1.102581
C117	C	0.149905	-0.493623	1.102609
H118	H	0.113669	-0.466914	1.084841
H119	H	0.134171	-0.494457	1.147647
C120	C	0.242152	-0.500779	1.087627
C121	C	0.197649	-0.467973	1.065799
H122	H	0.271602	-0.484957	1.064923
H123	H	0.256005	-0.538156	1.087610
H124	H	0.229033	-0.501471	1.125158
H125	H	0.210767	-0.467287	1.028272
H126	H	0.183799	-0.430594	1.065809
O127	O	0.638572	-0.693587	0.489716
C128	C	0.638626	-0.742301	0.538173
H129	H	0.656420	-0.741811	0.565108
H130	H	0.593612	-0.743008	0.563675
C131	C	0.653602	-0.795824	0.487189
C132	C	0.675461	-0.795224	0.520269
H133	H	0.676321	-0.828470	0.476146
H134	H	0.653563	-0.763004	0.454543
H135	H	0.616090	-0.796411	0.508445
H136	H	0.712969	-0.794629	0.499011
H137	H	0.675507	-0.828045	0.552911
H138	H	0.638322	-0.478510	0.387573
H139	H	-0.043953	-0.615372	1.102487
O140	O	0.171052	-0.727389	1.102451
C141	C	0.218607	-0.719947	1.053847
H142	H	0.204998	-0.678614	1.019874
H143	H	0.250463	-0.718651	1.064849
C144	C	0.262619	-0.820167	1.073512
C145	C	0.245903	-0.769404	1.031784
H146	H	0.279458	-0.850675	1.059904
H147	H	0.230581	-0.825182	1.106259
H148	H	0.289162	-0.819080	1.082677
H149	H	0.219355	-0.770489	1.022625
H150	H	0.277937	-0.764391	0.999035
H151	H	0.638471	-0.478960	0.555871
O152	O	0.203761	-0.003892	0.412749
C153	C	0.246523	-0.052402	0.431810
H154	H	0.231157	-0.068793	0.479917
H155	H	0.257216	-0.086393	0.415655
C156	C	0.318418	-0.017201	0.350383
C157	C	0.299547	-0.037330	0.409469
H158	H	0.351126	-0.007906	0.336600
H159	H	0.289609	0.015480	0.337539
H160	H	0.327324	-0.045530	0.336928
H161	H	0.290634	-0.008999	0.422922
H162	H	0.328356	-0.070006	0.422314
O163	O	0.087329	-0.412800	0.734481
C164	C	0.031851	-0.404425	0.773250
H165	H	0.031988	-0.440053	0.815361
H166	H	0.014923	-0.362335	0.779543
C167	C	-0.006236	-0.360245	0.698495
C168	C	-0.006068	-0.404007	0.750214
H169	H	-0.029628	-0.359985	0.684285
H170	H	0.031140	-0.365886	0.672375
H171	H	-0.020341	-0.325174	0.703746
H172	H	0.008044	-0.439077	0.744962
H173	H	-0.043443	-0.398373	0.776333
H174	H	0.027485	-0.446933	0.419832
H175	H	0.027247	-0.004286	0.419974
O176	O	-0.071142	-0.571220	0.392886
C177	C	-0.079479	-0.515735	0.384507
H178	H	-0.072943	-0.515847	0.420179
H179	H	-0.047975	-0.498852	0.342458
C180	C	-0.148000	-0.477643	0.340158
C181	C	-0.139977	-0.477780	0.383973
H182	H	-0.185317	-0.454230	0.339825
H183	H	-0.142382	-0.515024	0.345800
H184	H	-0.121742	-0.463575	0.305121
H185	H	-0.166229	-0.491855	0.419009
H186	H	-0.145601	-0.440401	0.378336
O187	O	-0.084709	-0.004247	0.634871
C188	C	-0.119846	-0.004270	0.614574
H189	H	-0.104577	0.013490	0.566497
H190	H	-0.118320	-0.049307	0.628936
C191	C	-0.199669	0.010738	0.696997
C192	C	-0.180918	0.032556	0.637948
H193	H	-0.237341	0.033451	0.711416
H194	H	-0.175997	0.010752	0.710672
H195	H	-0.198393	-0.026792	0.708957
H196	H	-0.182188	0.070082	0.625989
H197	H	-0.204592	0.032549	0.624271
H198	H	0.195693	-0.615009	0.419684
H199	H	-0.030145	-0.541661	0.434082
H200	H	0.091761	-0.719242	0.628046
H201	H	-0.076451	-0.551170	0.628189
H202	H	0.091941	-0.004235	0.627787
O203	O	-0.051006	-0.438762	1.102531
C204	C	-0.031722	-0.396213	1.053918
H205	H	0.016385	-0.411743	1.037711
H206	H	-0.047734	-0.385657	1.019870
C207	C	-0.113101	-0.323942	1.088607
C208	C	-0.054014	-0.343015	1.068704
H209	H	-0.126854	-0.291126	1.097726
H210	H	-0.126094	-0.352608	1.121357
H211	H	-0.126437	-0.315150	1.060230
H212	H	-0.040680	-0.351814	1.097083
H213	H	-0.041019	-0.314349	1.035959
O214	O	0.238948	-0.546794	0.850738
C215	C	0.273125	-0.596337	0.836269
H216	H	0.250298	-0.604559	0.820044
H217	H	0.314616	-0.590953	0.801952
C218	C	0.313282	-0.636520	0.908663
C219	C	0.285243	-0.646622	0.888740
H220	H	0.320760	-0.667539	0.941029
H221	H	0.290258	-0.603142	0.918410
H222	H	0.347855	-0.632033	0.880061
H223	H	0.250668	-0.651102	0.917340
H224	H	0.308261	-0.680003	0.878999
O225	O	0.048544	-0.451702	0.655371
C226	C	0.034294	-0.501356	0.685121
H227	H	0.073237	-0.538475	0.674441
H228	H	0.018103	-0.509670	0.732412
C229	C	-0.059840	-0.448635	0.681281
C230	C	-0.012010	-0.494224	0.668159
H231	H	-0.088404	-0.444235	0.670820
H232	H	-0.050240	-0.415181	0.661239
H233	H	-0.073325	-0.455569	0.720690
H234	H	0.001479	-0.487286	0.628750
H235	H	-0.021608	-0.527676	0.688194
H236	H	0.268542	-0.505632	0.738936
H237	H	0.188851	-0.260656	0.521790
O238	O	0.238753	-0.546579	0.560082
C239	C	0.272889	-0.516728	0.510535
H240	H	0.250050	-0.469457	0.502340
H241	H	0.314406	-0.529298	0.515891
C242	C	0.312997	-0.589051	0.470315
C243	C	0.284944	-0.530992	0.460246
H244	H	0.320435	-0.597851	0.439294
H245	H	0.290000	-0.609164	0.503696
H246	H	0.347591	-0.599519	0.474779
H247	H	0.250347	-0.520526	0.455790
H248	H	0.307934	-0.510878	0.426863
O249	O	0.270328	-0.554544	0.682370
C250	C	0.284756	-0.582219	0.646213
H251	H	0.300969	-0.555312	0.600472
H252	H	0.319067	-0.624860	0.655724
C253	C	0.212352	-0.624243	0.711839
C254	C	0.232261	-0.591193	0.655659
H255	H	0.179972	-0.629782	0.717667
H256	H	0.202633	-0.605600	0.736200
H257	H	0.240950	-0.659774	0.719758
H258	H	0.203666	-0.555661	0.647743
H259	H	0.241975	-0.609831	0.631297
O260	O	0.386868	-0.593331	0.643521
C261	C	0.445349	-0.602572	0.620107
H262	H	0.453395	-0.561906	0.586238
H263	H	0.462141	-0.616189	0.654680
C264	C	0.465793	-0.699154	0.635178
C265	C	0.475676	-0.649208	0.593577
H266	H	0.484502	-0.727923	0.618815
H267	H	0.426394	-0.692929	0.650954
H268	H	0.479787	-0.710493	0.663985
H269	H	0.461676	-0.637866	0.564774
H270	H	0.515074	-0.655432	0.577795
O271	O	0.386699	-0.404848	0.571637
C272	C	0.372215	-0.364729	0.522943
H273	H	0.355962	-0.382937	0.509375
H274	H	0.337916	-0.324901	0.532615
C275	C	0.444642	-0.327745	0.491683
C276	C	0.424684	-0.350111	0.475015
H277	H	0.477006	-0.318725	0.462119
H278	H	0.454399	-0.354772	0.524490
H279	H	0.416055	-0.294557	0.499742
H280	H	0.453268	-0.383301	0.466963
H281	H	0.414932	-0.323088	0.442205
O282	O	0.229934	-0.372409	0.551381
C283	C	0.238274	-0.333651	0.495892
H284	H	0.202642	-0.291536	0.496019
H285	H	0.280361	-0.327358	0.478942
C286	C	0.282427	-0.408431	0.457852
C287	C	0.238661	-0.356706	0.458006
H288	H	0.282669	-0.422653	0.434481
H289	H	0.276811	-0.434544	0.495236
H290	H	0.317495	-0.403180	0.443728
H291	H	0.203594	-0.361959	0.472137
H292	H	0.244272	-0.330595	0.420624
H293	H	0.638671	-0.687334	0.659583
H294	H	0.268446	-0.505593	0.601208
O295	O	0.096163	-0.256111	0.702947
C296	C	0.126033	-0.270530	0.737072
H297	H	0.160437	-0.313427	0.737639
H298	H	0.146073	-0.237265	0.719286
C299	C	0.042858	-0.220581	0.796914
C300	C	0.085112	-0.273270	0.797614
H301	H	0.017616	-0.222269	0.834258
H302	H	0.022734	-0.210865	0.773922
H303	H	0.059565	-0.192866	0.782089
H304	H	0.068405	-0.300983	0.812432
H305	H	0.105232	-0.282991	0.820610
O306	O	0.062985	-0.722897	0.236319
C307	C	0.071262	-0.778378	0.275096
H308	H	0.064594	-0.778260	0.317236
H309	H	0.039813	-0.795257	0.281308
C310	C	0.139980	-0.816487	0.200379
C311	C	0.131796	-0.816343	0.252136
H312	H	0.177320	-0.839907	0.186216
H313	H	0.134403	-0.779109	0.174254
H314	H	0.113769	-0.830552	0.205563
H315	H	0.158002	-0.802272	0.246950
H316	H	0.137379	-0.853720	0.278260
O317	O	-0.031960	-0.532552	0.236080
C318	C	0.017711	-0.518333	0.201976
H319	H	0.053157	-0.551667	0.219859
H320	H	0.030213	-0.516391	0.157185
C321	C	-0.036336	-0.419453	0.179105
C322	C	0.007198	-0.460392	0.201073
H323	H	-0.042821	-0.383711	0.178546
H324	H	-0.069801	-0.429032	0.202080
H325	H	-0.025912	-0.417841	0.141782
H326	H	-0.003230	-0.462008	0.238398
H327	H	0.040661	-0.450811	0.178104
H328	H	0.093408	-0.418110	0.688821
H329	H	0.274901	-0.375125	0.611905
H330	H	0.137197	-0.367895	0.732563
H331	H	-0.065723	-0.577332	0.347941
H332	H	0.057158	-0.716762	0.521784
O333	O	0.023805	-0.761578	0.488199
C334	C	0.057917	-0.791278	0.522511
H335	H	0.079401	-0.763135	0.515032
H336	H	0.030593	-0.803980	0.568766
C337	C	0.076682	-0.879145	0.516798
C338	C	0.103073	-0.844581	0.507608
H339	H	0.104534	-0.912026	0.507607
H340	H	0.053698	-0.859136	0.493683
H341	H	0.053912	-0.889724	0.555344
H342	H	0.125836	-0.833997	0.469062
H343	H	0.126061	-0.864589	0.530716
H344	H	0.064563	-0.758931	0.409098
O345	O	-0.079289	-0.870468	0.515082
C346	C	-0.106927	-0.856025	0.478884
H347	H	-0.105478	-0.813167	0.445206
H348	H	-0.084905	-0.889327	0.457787
C349	C	-0.170606	-0.905799	0.554699
C350	C	-0.168830	-0.853157	0.513338
H351	H	-0.208790	-0.904032	0.575952
H352	H	-0.151985	-0.915532	0.579086
H353	H	-0.152251	-0.933545	0.537111
H354	H	-0.187178	-0.825414	0.530926
H355	H	-0.187456	-0.843420	0.488955
O356	O	-0.111693	-0.713824	0.535558
C357	C	-0.150514	-0.722151	0.591012
H358	H	-0.192602	-0.686488	0.590830
H359	H	-0.156833	-0.764218	0.607922
C360	C	-0.075835	-0.766398	0.629215
C361	C	-0.127527	-0.722593	0.628991
H362	H	-0.061656	-0.766673	0.652643
H363	H	-0.049680	-0.760790	0.591854
H364	H	-0.081109	-0.801449	0.643305
H365	H	-0.122252	-0.687542	0.614895
H366	H	-0.153681	-0.728195	0.666350
O367	O	0.109275	-0.870757	0.443480
C368	C	0.139840	-0.856352	0.385163
H369	H	0.110863	-0.840079	0.360677
H370	H	0.156825	-0.822089	0.372003
C371	C	0.225020	-0.928869	0.402388
C372	C	0.189430	-0.908886	0.372314
H373	H	0.255611	-0.961273	0.394462
H374	H	0.204429	-0.938573	0.441678
H375	H	0.239168	-0.900312	0.391418
H376	H	0.175278	-0.937441	0.383290
H377	H	0.210021	-0.899188	0.333026
H378	H	0.021738	-0.752445	0.348058
H379	H	-0.108889	-0.758731	0.474933
H380	H	-0.223425	-0.672650	0.564976
H381	H	-0.223112	-0.585171	0.389803
H382	H	-0.115923	-0.621016	0.354266
