data_functionalizedCrystal
_audit_creation_method	'MofGen! by Chris Wilmer'
_symmetry_space_group_name_H-M	'P1'
_symmetry_Int_Tables_number	1
_symmetry_cell_setting	triclinic
loop_
_symmetry_equiv_pos_as_xyz
  x,y,z
_cell_length_a	18.215407
_cell_length_b	16.120484
_cell_length_c	18.215399
_cell_angle_alpha	87.130211
_cell_angle_beta	90.019833
_cell_angle_gamma	92.926015
loop_
_atom_site_label
_atom_site_type_symbol
_atom_site_fract_x
_atom_site_fract_y
_atom_site_fract_z
Zn1	Zn	1.110213	-0.331906	0.430960
Zn2	Zn	1.443546	0.001427	0.764293
Zn3	Zn	1.776879	0.334760	1.097627
Zn4	Zn	1.103879	-0.471328	0.314129
Zn5	Zn	1.437212	-0.137995	0.647462
Zn6	Zn	1.770546	0.195339	0.980796
Zn7	Zn	0.987144	-0.331934	0.307908
Zn8	Zn	1.320477	0.001400	0.641242
Zn9	Zn	1.653811	0.334733	0.974575
Zn10	Zn	0.980871	-0.471282	0.437152
Zn11	Zn	1.314205	-0.137948	0.770485
Zn12	Zn	1.647538	0.195385	1.103818
O13	O	1.045527	-0.401612	0.372537
O14	O	1.378860	-0.068279	0.705871
O15	O	1.712193	0.265054	1.039204
O16	O	1.212356	-0.350409	0.415474
O17	O	1.545690	-0.017076	0.748807
O18	O	1.879023	0.316258	1.082141
O19	O	1.088368	-0.452868	0.210321
O20	O	1.421702	-0.119535	0.543654
O21	O	1.755035	0.213799	0.876988
O22	O	1.008745	-0.215264	0.319037
O23	O	1.342078	0.118069	0.652370
O24	O	1.675412	0.451403	0.985703
O25	O	1.207703	-0.452841	0.329639
O26	O	1.541036	-0.119508	0.662972
O27	O	1.874370	0.213825	0.996305
O28	O	1.099163	-0.215244	0.409442
O29	O	1.432496	0.118089	0.742775
O30	O	1.765830	0.451423	1.076109
O31	O	1.002604	-0.350456	0.205751
O32	O	1.335937	-0.017122	0.539084
O33	O	1.669270	0.316211	0.872417
O34	O	0.883328	-0.350411	0.325041
O35	O	1.216661	-0.017077	0.658374
O36	O	1.549995	0.316256	0.991708
O37	O	0.998054	-0.452762	0.539313
O38	O	1.331387	-0.119429	0.872647
O39	O	1.664721	0.213904	1.205980
O40	O	0.878719	-0.452789	0.419995
O41	O	1.212053	-0.119455	0.753329
O42	O	1.545386	0.213878	1.086662
O43	O	1.093081	-0.350364	0.534764
O44	O	1.426414	-0.017031	0.868097
O45	O	1.759747	0.316303	1.201431
O46	O	1.082286	-0.587988	0.335643
O47	O	1.415619	-0.254654	0.668976
O48	O	1.748953	0.078679	1.002310
O49	O	0.991913	-0.587954	0.426027
O50	O	1.325246	-0.254620	0.759361
O51	O	1.658579	0.078713	1.092694
C52	C	0.854321	-0.401598	0.372516
C53	C	1.187654	-0.068265	0.705849
C54	C	1.520988	0.265068	1.039182
C55	C	0.772522	-0.401612	0.372525
C56	C	1.105855	-0.068279	0.705858
C57	C	1.439188	0.265055	1.039191
C58	C	1.035751	-0.618221	0.382198
C59	C	1.369085	-0.284888	0.715531
C60	C	1.702418	0.048446	1.048865
C61	C	1.031637	-0.710887	0.386356
C62	C	1.364970	-0.377554	0.719689
C63	C	1.698304	-0.044220	1.053022
C64	C	0.581943	-0.455004	0.421912
C65	C	0.915277	-0.121671	0.755245
C66	C	1.248610	0.211662	1.088579
C67	C	0.505085	-0.455007	0.421921
C68	C	0.838418	-0.121674	0.755255
C69	C	1.171751	0.211660	1.088588
C70	C	0.509861	-0.348236	0.323179
C71	C	0.843195	-0.014902	0.656513
C72	C	1.176528	0.318431	0.989846
C73	C	0.586719	-0.348229	0.323174
C74	C	0.920052	-0.014896	0.656507
C75	C	1.253386	0.318437	0.989841
C76	C	0.622758	-0.401619	0.372540
C77	C	0.956091	-0.068285	0.705873
C78	C	1.289424	0.265048	1.039206
C79	C	0.469041	-0.401627	0.372554
C80	C	0.802375	-0.068294	0.705887
C81	C	1.135708	0.265039	1.039221
C82	C	0.385708	-0.401630	0.372564
C83	C	0.719041	-0.068296	0.705897
C84	C	1.052374	0.265037	1.039230
C85	C	0.706097	-0.401615	0.372531
C86	C	1.039430	-0.068282	0.705864
C87	C	1.372764	0.265051	1.039198
C88	C	1.024129	-0.880549	0.393961
C89	C	1.357462	-0.547215	0.727295
C90	C	1.690796	-0.213882	1.060628
C91	C	1.067056	-0.921836	0.351125
C92	C	1.400390	-0.588502	0.684459
C93	C	1.733723	-0.255169	1.017792
C94	C	1.062879	-1.016241	0.355357
C95	C	1.396212	-0.682908	0.688691
C96	C	1.729545	-0.349575	1.022024
C97	C	1.028305	-0.786135	0.389730
C98	C	1.361639	-0.452801	0.723064
C99	C	1.694972	-0.119468	1.056397
C100	C	1.237479	-0.401627	0.372560
C101	C	1.570812	-0.068294	0.705893
C102	C	1.904146	0.265039	1.039226
C103	C	1.319277	-0.401634	0.372569
C104	C	1.652611	-0.068300	0.705902
C105	C	1.985944	0.265033	1.039236
C106	C	1.045574	-0.401555	0.564488
C107	C	1.378907	-0.068222	0.897821
C108	C	1.712241	0.265112	1.231154
C109	C	1.045594	-0.401530	0.646286
C110	C	1.378928	-0.068197	0.979619
C111	C	1.712261	0.265136	1.312952
C112	C	1.055360	-0.184158	0.362855
C113	C	1.388693	0.149175	0.696188
C114	C	1.722027	0.482509	1.029522
C115	C	1.059551	-0.091492	0.358729
C116	C	1.392884	0.241841	0.692062
C117	C	1.726217	0.575175	1.025396
C118	C	1.045524	-0.401610	0.181331
C119	C	1.378858	-0.068276	0.514664
C120	C	1.712191	0.265057	0.847998
C121	C	1.045657	-0.401399	0.099523
C122	C	1.378991	-0.068066	0.432856
C123	C	1.712324	0.265267	0.766190
C124	C	1.095094	-0.348162	0.832110
C125	C	1.428427	-0.014828	1.165443
C126	C	1.761760	0.318505	1.498776
C127	C	1.095104	-0.348138	0.908967
C128	C	1.428437	-0.014804	1.242301
C129	C	1.761770	0.318529	1.575634
C130	C	0.996153	-0.454770	0.913694
C131	C	1.329486	-0.121437	1.247027
C132	C	1.662819	0.211896	1.580360
C133	C	0.996140	-0.454790	0.836837
C134	C	1.329473	-0.121456	1.170170
C135	C	1.662806	0.211877	1.503504
C136	C	1.045615	-0.401487	0.796047
C137	C	1.378948	-0.068153	1.129380
C138	C	1.712281	0.265180	1.462714
C139	C	1.045637	-0.401443	0.949761
C140	C	1.378971	-0.068110	1.283095
C141	C	1.712304	0.265224	1.616428
C142	C	1.045648	-0.401417	1.033094
C143	C	1.378981	-0.068084	1.366427
C144	C	1.712314	0.265250	1.699761
C145	C	1.045603	-0.401511	0.712709
C146	C	1.378937	-0.068178	1.046043
C147	C	1.712270	0.265155	1.379376
H148	H	0.611284	-0.498475	0.462110
H149	H	0.944617	-0.165142	0.795444
H150	H	1.277951	0.168192	1.128777
H151	H	0.471857	-0.498478	0.462126
H152	H	0.805190	-0.165145	0.795460
H153	H	1.138523	0.168189	1.128793
H154	H	0.984243	-0.916101	0.433809
H155	H	1.317577	-0.582768	0.767142
H156	H	1.650910	-0.249434	1.100475
H157	H	0.480509	-0.304769	0.282986
H158	H	0.813842	0.028564	0.616320
H159	H	1.147176	0.361897	0.949653
H160	H	0.619951	-0.304751	0.282969
H161	H	0.953285	0.028582	0.616302
H162	H	1.286618	0.361916	0.949635
H163	H	1.135377	-0.304757	0.798901
H164	H	1.468711	0.028577	1.132234
H165	H	1.802044	0.361910	1.465567
C166	C	1.114662	-0.788257	0.303481
C167	C	1.447995	-0.454923	0.636815
C168	C	1.781328	-0.121590	0.970148
C169	C	1.120898	-0.873845	0.297318
C170	C	1.454231	-0.540512	0.630651
C171	C	1.787564	-0.207178	0.963985
H172	H	1.147895	-0.758629	0.270259
H173	H	1.481228	-0.425296	0.603592
H174	H	1.814562	-0.091962	0.936925
H175	H	1.126032	-0.773986	0.352303
H176	H	1.459365	-0.440653	0.685636
H177	H	1.792699	-0.107320	1.018969
H178	H	1.065830	-0.774109	0.292050
H179	H	1.399163	-0.440776	0.625383
H180	H	1.732497	-0.107442	0.958717
H181	H	1.169728	-0.887994	0.308755
H182	H	1.503062	-0.554660	0.642088
H183	H	1.836395	-0.221327	0.975421
H184	H	1.109532	-0.888121	0.248486
H185	H	1.442866	-0.554788	0.581819
H186	H	1.776199	-0.221454	0.915153
C187	C	1.192917	-0.242748	0.896571
C188	C	1.526250	0.090585	1.229905
C189	C	1.859584	0.423918	1.563238
C190	C	1.149496	-0.289525	0.948607
C191	C	1.482830	0.043808	1.281941
C192	C	1.816163	0.377142	1.615274
H193	H	1.226500	-0.206566	0.921045
H194	H	1.559834	0.126768	1.254378
H195	H	1.893167	0.460101	1.587712
H196	H	1.162291	-0.210865	0.865170
H197	H	1.495624	0.122468	1.198504
H198	H	1.828958	0.455801	1.531837
H199	H	1.219417	-0.279093	0.868216
H200	H	1.552750	0.054240	1.201550
H201	H	1.886083	0.387573	1.534883
H202	H	1.122992	-0.253180	0.976959
H203	H	1.456326	0.080153	1.310292
H204	H	1.789659	0.413487	1.643626
H205	H	1.180126	-0.321410	0.980021
H206	H	1.513460	0.011923	1.313355
H207	H	1.846793	0.345256	1.646688
C208	C	0.980834	-0.566952	0.755384
C209	C	1.314167	-0.233619	1.088717
C210	C	1.647500	0.099715	1.422050
C211	C	0.941750	-0.513409	0.797189
C212	C	1.275083	-0.180075	1.130522
C213	C	1.608416	0.153258	1.463855
H214	H	0.947255	-0.603133	0.730903
H215	H	1.280588	-0.269800	1.064236
H216	H	1.613921	0.063534	1.397570
H217	H	1.011452	-0.598837	0.786791
H218	H	1.344786	-0.265504	1.120125
H219	H	1.678119	0.067830	1.453458
H220	H	1.010292	-0.535196	0.720096
H221	H	1.343625	-0.201863	1.053430
H222	H	1.676959	0.131470	1.386763
H223	H	0.912295	-0.545165	0.832480
H224	H	1.245629	-0.211831	1.165813
H225	H	1.578962	0.121502	1.499146
H226	H	0.911118	-0.481521	0.765778
H227	H	1.244452	-0.148187	1.099112
H228	H	1.577785	0.185146	1.432445
H229	H	0.955874	-0.498169	0.946914
H230	H	1.289207	-0.164836	1.280247
H231	H	1.622540	0.168497	1.613581
