data_functionalizedCrystal
_audit_creation_method	'MofGen! by Chris Wilmer'
_symmetry_space_group_name_H-M	'P1'
_symmetry_Int_Tables_number	1
_symmetry_cell_setting	triclinic
loop_
_symmetry_equiv_pos_as_xyz
  x,y,z
_cell_length_a	10.686220
_cell_length_b	16.625546
_cell_length_c	16.625539
_cell_angle_alpha	89.969603
_cell_angle_beta	94.350309
_cell_angle_gamma	94.404440
loop_
_atom_site_label
_atom_site_type_symbol
_atom_site_fract_x
_atom_site_fract_y
_atom_site_fract_z
Zn1	Zn	1.929061	-0.226312	-0.361452
Zn2	Zn	1.928909	-0.361163	-0.226622
Zn3	Zn	1.718048	-0.236698	-0.236964
Zn4	Zn	1.718002	-0.371466	-0.371737
O5	O	1.823505	-0.298910	-0.299194
O6	O	2.105616	-0.235542	-0.334934
O7	O	1.900894	-0.344687	-0.115163
O8	O	1.746122	-0.122484	-0.253501
O9	O	2.105504	-0.334616	-0.235875
O10	O	1.901152	-0.114854	-0.344962
O11	O	1.745975	-0.253243	-0.122761
O12	O	1.541467	-0.263234	-0.263474
O13	O	1.746043	-0.352177	-0.483203
O14	O	1.541433	-0.362248	-0.362492
O15	O	1.901107	-0.245533	-0.475647
O16	O	1.900849	-0.475366	-0.245848
O17	O	1.745896	-0.482936	-0.352464
C18	C	1.495666	-0.314986	-0.315222
C19	C	1.355415	-0.321883	-0.322098
C20	C	1.823386	-0.508407	-0.299166
C21	C	1.823450	-0.598025	-0.299175
C22	C	1.823670	-0.926189	-0.299248
C23	C	1.823605	-0.834884	-0.299230
C24	C	1.823559	-0.762110	-0.299211
C25	C	1.823496	-0.670799	-0.299194
C26	C	2.152624	-0.282771	-0.283103
C27	C	2.292875	-0.275894	-0.276247
C28	C	1.823587	-0.298846	-0.509499
C29	C	1.823622	-0.298819	-0.599118
C30	C	1.823659	-0.088593	-0.299238
C31	C	1.823725	0.001031	-0.299256
C32	C	1.823680	-0.298725	-0.927291
C33	C	1.823660	-0.298754	-0.835984
C34	C	1.823652	-0.298773	-0.763207
C35	C	1.823631	-0.298800	-0.671894
C36	C	1.823496	-0.298912	-0.089703
C37	C	1.823705	-0.298700	-0.000072
H38	H	1.346628	-0.231244	-0.231730
O39	O	1.291098	-0.375092	-0.375192
C40	C	1.160685	-0.370381	-0.370459
H41	H	1.142810	-0.308992	-0.345028
H42	H	1.110550	-0.378364	-0.433273
H43	H	1.123239	-0.419975	-0.329249
