data_functionalizedCrystal
_audit_creation_method	'MofGen! by Chris Wilmer'
_symmetry_space_group_name_H-M	'P1'
_symmetry_Int_Tables_number	1
_symmetry_cell_setting	triclinic
loop_
_symmetry_equiv_pos_as_xyz
  x,y,z
_cell_length_a	14.519709
_cell_length_b	26.210047
_cell_length_c	27.731996
_cell_angle_alpha	90.010646
_cell_angle_beta	83.150767
_cell_angle_gamma	90.010823
loop_
_atom_site_label
_atom_site_type_symbol
_atom_site_fract_x
_atom_site_fract_y
_atom_site_fract_z
O1	O	1.222759	0.042370	0.063362
O2	O	1.556092	0.375703	0.396695
O3	O	1.889425	0.709036	0.730028
O4	O	0.954149	0.042386	0.070824
O5	O	1.287483	0.375719	0.404157
O6	O	1.620816	0.709053	0.737490
O7	O	1.096821	0.042366	-0.003266
O8	O	1.430155	0.375700	0.330067
O9	O	1.763488	0.709033	0.663401
O10	O	1.080087	0.042389	0.137451
O11	O	1.413420	0.375723	0.470785
O12	O	1.746753	0.709056	0.804118
O13	O	1.096777	-0.042492	-0.003266
O14	O	1.430110	0.290842	0.330067
O15	O	1.763444	0.624175	0.663401
O16	O	0.954105	-0.042472	0.070823
O17	O	1.287438	0.290861	0.404157
O18	O	1.620771	0.624195	0.737490
O19	O	1.222714	-0.042489	0.063362
O20	O	1.556047	0.290845	0.396695
O21	O	1.889381	0.624178	0.730028
Cu22	Cu	1.088405	-0.050229	0.067092
Cu23	Cu	1.421739	0.283105	0.400426
Cu24	Cu	1.755072	0.616438	0.733759
Cu25	Cu	1.088458	0.050126	0.067093
Cu26	Cu	1.421791	0.383459	0.400426
Cu27	Cu	1.755125	0.716793	0.733759
O28	O	1.080042	-0.042469	0.137451
O29	O	1.413375	0.290865	0.470784
O30	O	1.746709	0.624198	0.804118
C31	C	0.919773	-0.000041	0.070476
C32	C	1.253107	0.333292	0.403809
C33	C	1.586440	0.666626	0.737142
C34	C	0.817411	-0.000035	0.069434
C35	C	1.150744	0.333298	0.402767
C36	C	1.484077	0.666631	0.736100
C37	C	0.442583	-0.000059	0.065597
C38	C	0.775916	0.333274	0.398931
C39	C	1.109250	0.666607	0.732264
C40	C	0.546872	-0.000052	0.066663
C41	C	0.880205	0.333281	0.399996
C42	C	1.213539	0.666614	0.733329
C43	C	0.629994	-0.000047	0.067515
C44	C	0.963327	0.333287	0.400849
C45	C	1.296660	0.666620	0.734182
C46	C	0.734289	-0.000041	0.068581
C47	C	1.067622	0.333292	0.401914
C48	C	1.400956	0.666626	0.735248
N49	N	1.088375	-0.120812	0.067092
N50	N	1.421708	0.212521	0.400425
N51	N	1.755042	0.545854	0.733759
C52	C	1.143949	-0.473325	0.096469
C53	C	1.477283	-0.139992	0.429803
C54	C	1.810616	0.193342	0.763136
C55	C	1.143977	-0.686984	0.096469
C56	C	1.477310	-0.353650	0.429802
C57	C	1.810643	-0.020317	0.763136
O58	O	1.191207	-0.714604	0.121441
O59	O	1.524540	-0.381271	0.454775
O60	O	1.857874	-0.047938	0.788108
N61	N	1.088480	-0.713706	0.067088
N62	N	1.421813	-0.380373	0.400421
N63	N	1.755147	-0.047040	0.733755
C64	C	1.032977	-0.687011	0.037702
C65	C	1.366310	-0.353678	0.371035
C66	C	1.699644	-0.020344	0.704369
O67	O	0.985782	-0.714643	0.012708
O68	O	1.319115	-0.381310	0.346041
O69	O	1.652448	-0.047976	0.679374
C70	C	1.032955	-0.473353	0.037700
C71	C	1.366289	-0.140020	0.371034
C72	C	1.699622	0.193313	0.704367
C73	C	1.088449	-0.446634	0.067087
C74	C	1.421782	-0.113300	0.400420
C75	C	1.755115	0.220033	0.733754
C76	C	1.199439	-0.446605	0.125854
C77	C	1.532772	-0.113272	0.459187
C78	C	1.866106	0.220062	0.792520
C79	C	1.199428	-0.393194	0.125855
C80	C	1.532761	-0.059860	0.459189
C81	C	1.866094	0.273473	0.792522
C82	C	1.143927	-0.366502	0.096473
C83	C	1.477260	-0.033169	0.429806
C84	C	1.810594	0.300164	0.763140
C85	C	1.088438	-0.393222	0.067089
C86	C	1.421771	-0.059889	0.400422
C87	C	1.755104	0.273445	0.733756
C88	C	0.977458	-0.446659	0.008312
C89	C	1.310792	-0.113326	0.341646
C90	C	1.644125	0.220007	0.674979
C91	C	0.977459	-0.393241	0.008314
C92	C	1.310793	-0.059908	0.341647
C93	C	1.644126	0.273425	0.674980
C94	C	1.032953	-0.366522	0.037700
C95	C	1.366286	-0.033188	0.371034
C96	C	1.699619	0.300145	0.704367
C97	C	1.032926	-0.313119	0.037708
C98	C	1.366259	0.020214	0.371042
C99	C	1.699592	0.353548	0.704375
N100	N	1.088422	-0.286397	0.067090
N101	N	1.421756	0.046937	0.400423
N102	N	1.755089	0.380270	0.733756
C103	C	1.143923	-0.313088	0.096472
C104	C	1.477256	0.020245	0.429805
C105	C	1.810590	0.353579	0.763139
C106	C	1.032991	-0.799184	0.037706
C107	C	1.366324	-0.465851	0.371039
C108	C	1.699658	-0.132518	0.704373
C109	C	1.032995	-0.852599	0.037707
C110	C	1.366328	-0.519265	0.371040
C111	C	1.699662	-0.185932	0.704374
C112	C	1.143996	-0.852567	0.096473
C113	C	1.477330	-0.519234	0.429807
C114	C	1.810663	-0.185901	0.763140
C115	C	1.143987	-0.799152	0.096475
C116	C	1.477320	-0.465819	0.429808
C117	C	1.810653	-0.132486	0.763141
C118	C	1.088488	-0.772462	0.067087
C119	C	1.421821	-0.439128	0.400421
C120	C	1.755154	-0.105795	0.733754
C121	C	1.143895	-0.200920	0.096474
C122	C	1.477228	0.132413	0.429807
C123	C	1.810561	0.465747	0.763140
C124	C	1.143876	-0.147504	0.096474
C125	C	1.477209	0.185829	0.429808
C126	C	1.810542	0.519163	0.763141
C127	C	1.032879	-0.147540	0.037706
C128	C	1.366212	0.185794	0.371040
C129	C	1.699545	0.519127	0.704373
C130	C	1.032894	-0.200951	0.037707
C131	C	1.366227	0.132382	0.371041
C132	C	1.699560	0.465715	0.704374
C133	C	1.088409	-0.227640	0.067092
C134	C	1.421742	0.105693	0.400426
C135	C	1.755076	0.439027	0.733759
O136	O	0.985728	-0.285466	0.012745
O137	O	1.319061	0.047868	0.346078
O138	O	1.652395	0.381201	0.679412
O139	O	1.191127	-0.285447	0.121455
O140	O	1.524460	0.047886	0.454788
O141	O	1.857794	0.381220	0.788121
C142	C	1.143961	-0.526737	0.096468
C143	C	1.477294	-0.193403	0.429801
C144	C	1.810627	0.139930	0.763134
C145	C	1.088471	-0.553456	0.067084
C146	C	1.421804	-0.220123	0.400417
C147	C	1.755138	0.113210	0.733750
C148	C	1.032970	-0.526765	0.037701
C149	C	1.366304	-0.193432	0.371035
C150	C	1.699637	0.139902	0.704368
C151	C	1.088475	-0.606871	0.067085
C152	C	1.421808	-0.273537	0.400418
C153	C	1.755142	0.059796	0.733751
C154	C	1.143976	-0.633562	0.096467
C155	C	1.477309	-0.300229	0.429800
C156	C	1.810642	0.033105	0.763134
C157	C	1.199473	-0.606839	0.125848
C158	C	1.532806	-0.273506	0.459182
C159	C	1.866139	0.059827	0.792515
C160	C	1.199461	-0.553428	0.125850
C161	C	1.532795	-0.220095	0.459183
C162	C	1.866128	0.113239	0.792517
C163	C	0.977474	-0.553488	0.008320
C164	C	1.310807	-0.220154	0.341653
C165	C	1.644140	0.113179	0.674987
C166	C	0.977489	-0.606899	0.008321
C167	C	1.310822	-0.273566	0.341654
C168	C	1.644155	0.059768	0.674988
C169	C	1.032989	-0.633591	0.037703
C170	C	1.366323	-0.300257	0.371037
C171	C	1.699656	0.033076	0.704370
C172	C	1.257090	-0.000060	0.063709
C173	C	1.590423	0.333273	0.397043
C174	C	1.923757	0.666606	0.730376
C175	C	1.359453	-0.000063	0.064752
C176	C	1.692786	0.333271	0.398085
C177	C	2.026119	0.666604	0.731418
C178	C	1.096455	-0.000065	-0.021275
C179	C	1.429789	0.333269	0.312058
C180	C	1.763122	0.666602	0.645392
C181	C	1.095420	-0.000070	-0.074936
C182	C	1.428753	0.333264	0.258397
C183	C	1.762087	0.666597	0.591730
N184	N	1.088496	0.120710	0.067089
N185	N	1.421829	0.454043	0.400423
N186	N	1.755162	0.787377	0.733756
C187	C	1.088930	0.046212	-0.407683
C188	C	1.422263	0.379545	-0.074350
C189	C	1.755596	0.712878	0.258983
C190	C	1.084998	0.046221	-0.609361
C191	C	1.418331	0.379554	-0.276027
C192	C	1.751664	0.712888	0.057306
O193	O	1.084470	0.085560	-0.635434
O194	O	1.417804	0.418894	-0.302100
O195	O	1.751137	0.752227	0.031233
N196	N	1.084485	-0.000035	-0.634580
N197	N	1.417818	0.333299	-0.301247
N198	N	1.751152	0.666632	0.032087
C199	C	1.084949	-0.046296	-0.609377
C200	C	1.418283	0.287037	-0.276044
C201	C	1.751616	0.620371	0.057290
O202	O	1.084413	-0.085639	-0.635455
O203	O	1.417747	0.247694	-0.302121
O204	O	1.751080	0.581028	0.031212
C205	C	1.088875	-0.046305	-0.407700
C206	C	1.422208	0.287029	-0.074367
C207	C	1.755541	0.620362	0.258966
C208	C	1.089397	-0.000046	-0.382484
C209	C	1.422730	0.333287	-0.049151
C210	C	1.756063	0.666621	0.284183
C211	C	1.089451	0.092467	-0.382467
C212	C	1.422784	0.425800	-0.049134
C213	C	1.756117	0.759133	0.284200
C214	C	1.090439	0.092464	-0.332051
C215	C	1.423772	0.425797	0.001282
C216	C	1.757105	0.759131	0.334616
C217	C	1.090906	0.046206	-0.306852
C218	C	1.424239	0.379540	0.026482
C219	C	1.757572	0.712873	0.359815
C220	C	1.090385	-0.000049	-0.332068
C221	C	1.423718	0.333285	0.001265
C222	C	1.757051	0.666618	0.334599
C223	C	1.089332	-0.092565	-0.382498
C224	C	1.422666	0.240768	-0.049164
C225	C	1.755999	0.574101	0.284169
C226	C	1.090311	-0.092563	-0.332075
C227	C	1.423645	0.240770	0.001258
C228	C	1.756978	0.574103	0.334592
C229	C	1.090833	-0.046305	-0.306859
C230	C	1.424167	0.287029	0.026474
C231	C	1.757500	0.620362	0.359808
C232	C	1.091840	-0.046309	-0.256453
C233	C	1.425173	0.287024	0.076881
C234	C	1.758506	0.620358	0.410214
N235	N	1.092352	-0.000053	-0.231233
N236	N	1.425686	0.333280	0.102100
N237	N	1.759019	0.666613	0.435433
C238	C	1.091885	0.046204	-0.256433
C239	C	1.425219	0.379538	0.076901
C240	C	1.758552	0.712871	0.410234
C241	C	1.082890	-0.046288	-0.715260
C242	C	1.416224	0.287045	-0.381927
C243	C	1.749557	0.620379	-0.048593
C244	C	1.081911	-0.046286	-0.765679
C245	C	1.415244	0.287047	-0.432346
C246	C	1.748577	0.620381	-0.099012
C247	C	1.081957	0.046231	-0.765659
C248	C	1.415291	0.379564	-0.432326
C249	C	1.748624	0.712898	-0.098992
C250	C	1.082944	0.046228	-0.715240
C251	C	1.416277	0.379562	-0.381906
C252	C	1.749610	0.712895	-0.048573
C253	C	1.083403	-0.000032	-0.690041
C254	C	1.416736	0.333301	-0.356707
C255	C	1.750070	0.666634	-0.023374
C256	C	1.093961	0.046195	-0.150556
C257	C	1.427294	0.379528	0.182778
C258	C	1.760628	0.712862	0.516111
C259	C	1.094953	0.046188	-0.100136
C260	C	1.428286	0.379521	0.233198
C261	C	1.761620	0.712855	0.566531
C262	C	1.094901	-0.046329	-0.100160
C263	C	1.428235	0.287005	0.233174
C264	C	1.761568	0.620338	0.566507
C265	C	1.093914	-0.046322	-0.150576
C266	C	1.427248	0.287011	0.182758
C267	C	1.760581	0.620344	0.516091
C268	C	1.093441	-0.000056	-0.175772
C269	C	1.426774	0.333277	0.157561
C270	C	1.760108	0.666610	0.490894
O271	O	1.092357	-0.085628	-0.230348
O272	O	1.425691	0.247705	0.102985
O273	O	1.759024	0.581039	0.436319
O274	O	1.092401	0.085541	-0.230345
O275	O	1.425734	0.418875	0.102988
O276	O	1.759067	0.752208	0.436322
C277	C	1.087942	0.046215	-0.458099
C278	C	1.421275	0.379548	-0.124766
C279	C	1.754608	0.712881	0.208567
C280	C	1.087421	-0.000040	-0.483316
C281	C	1.420754	0.333293	-0.149982
C282	C	1.754087	0.666626	0.183351
C283	C	1.087888	-0.046298	-0.458116
C284	C	1.421221	0.287035	-0.124783
C285	C	1.754554	0.620369	0.208550
C286	C	1.086441	-0.000038	-0.533735
C287	C	1.419774	0.333295	-0.200402
C288	C	1.753108	0.666628	0.132932
C289	C	1.085974	0.046219	-0.558934
C290	C	1.419307	0.379553	-0.225601
C291	C	1.752641	0.712886	0.107732
C292	C	1.086487	0.092475	-0.533715
C293	C	1.419820	0.425808	-0.200381
C294	C	1.753153	0.759142	0.132952
C295	C	1.087475	0.092472	-0.483299
C296	C	1.420808	0.425806	-0.149966
C297	C	1.754141	0.759139	0.183368
C298	C	1.087375	-0.092554	-0.483336
C299	C	1.420708	0.240780	-0.150003
C300	C	1.754042	0.574113	0.183331
C301	C	1.086388	-0.092547	-0.533752
C302	C	1.419721	0.240786	-0.200419
C303	C	1.753055	0.574120	0.132915
C304	C	1.085921	-0.046289	-0.558951
C305	C	1.419254	0.287044	-0.225618
C306	C	1.752588	0.620377	0.107715
C307	C	1.080408	-0.000037	0.155460
C308	C	1.413741	0.333296	0.488794
C309	C	1.747075	0.666630	0.822127
C310	C	1.081443	-0.000028	0.209121
C311	C	1.414777	0.333305	0.542455
C312	C	1.748110	0.666638	0.875788
H313	H	1.189065	-0.125751	0.120407
H314	H	1.522398	0.207582	0.453740
H315	H	1.855731	0.540916	0.787074
H316	H	1.090672	-0.130236	-0.311560
H317	H	1.424005	0.203098	0.021774
H318	H	1.757338	0.536431	0.355107
H319	H	0.987695	-0.222708	0.013784
H320	H	1.321028	0.110626	0.347118
H321	H	1.654361	0.443959	0.680451
H322	H	1.093498	-0.083990	-0.171108
H323	H	1.426831	0.249344	0.162225
H324	H	1.760164	0.582677	0.495558
H325	H	1.095286	-0.083991	-0.079633
H326	H	1.428619	0.249343	0.253700
H327	H	1.761952	0.582676	0.587033
H328	H	1.189183	-0.874309	0.120400
H329	H	1.522517	-0.540975	0.453733
H330	H	1.855850	-0.207642	0.787066
H331	H	1.189101	-0.222644	0.120402
H332	H	1.522434	0.110689	0.453735
H333	H	1.855768	0.444023	0.787068
H334	H	1.088909	-0.130234	-0.403020
H335	H	1.422242	0.203099	-0.069687
H336	H	1.755575	0.536432	0.263646
H337	H	1.244650	-0.531677	0.149780
H338	H	1.577983	-0.198344	0.483113
H339	H	1.911316	0.134989	0.816447
H340	H	1.087899	0.130141	-0.462772
H341	H	1.421232	0.463474	-0.129439
H342	H	1.754566	0.796808	0.203895
H343	H	1.087757	-0.130223	-0.462824
H344	H	1.421090	0.203110	-0.129490
H345	H	1.754423	0.536444	0.203843
H346	H	1.244620	-0.371443	0.149783
H347	H	1.577953	-0.038110	0.483116
H348	H	1.911287	0.295224	0.816450
H349	H	0.987796	-0.874349	0.013783
H350	H	1.321129	-0.541016	0.347116
H351	H	1.654462	-0.207683	0.680450
H352	H	1.244639	-0.468332	0.149780
H353	H	1.577972	-0.134998	0.483114
H354	H	1.911306	0.198335	0.816447
H355	H	1.244659	-0.628581	0.149775
H356	H	1.577992	-0.295248	0.483108
H357	H	1.911325	0.038086	0.816442
H358	H	1.189174	-0.777400	0.120404
H359	H	1.522507	-0.444067	0.453738
H360	H	1.855840	-0.110734	0.787071
H361	H	1.089067	0.130137	-0.402979
H362	H	1.422400	0.463471	-0.069646
H363	H	1.755734	0.796804	0.263688
H364	H	0.987795	-0.777458	0.013774
H365	H	1.321128	-0.444124	0.347107
H366	H	1.654461	-0.110791	0.680441
H367	H	0.932290	-0.628650	-0.015608
H368	H	1.265624	-0.295317	0.317725
H369	H	1.598957	0.038017	0.651058
H370	H	1.093571	0.083869	-0.171064
H371	H	1.426904	0.417202	0.162269
H372	H	1.760238	0.750536	0.495602
H373	H	0.932265	-0.371513	-0.015618
H374	H	1.265598	-0.038179	0.317715
H375	H	1.598932	0.295154	0.651048
H376	H	0.932271	-0.468405	-0.015618
H377	H	1.265604	-0.135072	0.317715
H378	H	1.598937	0.198261	0.651048
H379	H	0.987689	-0.125798	0.013785
H380	H	1.321022	0.207535	0.347119
H381	H	1.654355	0.540869	0.680452
H382	H	1.081499	-0.083955	-0.786207
H383	H	1.414833	0.249379	-0.452874
H384	H	1.748166	0.582712	-0.119540
H385	H	0.932279	-0.531761	-0.015608
H386	H	1.265612	-0.198427	0.317725
H387	H	1.598946	0.134906	0.651059
H388	H	1.095380	0.083859	-0.079607
H389	H	1.428713	0.417192	0.253726
H390	H	1.762047	0.750526	0.587060
H391	H	1.090860	0.130133	-0.311524
H392	H	1.424194	0.463466	0.021809
H393	H	1.757527	0.796799	0.355142
H394	H	1.083367	0.083896	-0.694712
H395	H	1.416701	0.417230	-0.361378
H396	H	1.750034	0.750563	-0.028045
H397	H	1.081578	0.083896	-0.786185
H398	H	1.414911	0.417229	-0.452852
H399	H	1.748244	0.750563	-0.119519
H400	H	1.086110	0.130140	-0.554241
H401	H	1.419444	0.463473	-0.220908
H402	H	1.752777	0.796806	0.112425
H403	H	1.083269	-0.083961	-0.694748
H404	H	1.416602	0.249372	-0.361415
H405	H	1.749935	0.582705	-0.028081
H406	H	1.085970	-0.130219	-0.554279
H407	H	1.419303	0.203114	-0.220946
H408	H	1.752637	0.536447	0.112387
