data_functionalizedCrystal
_audit_creation_method	'MofGen! by Chris Wilmer'
_symmetry_space_group_name_H-M	'P1'
_symmetry_Int_Tables_number	1
_symmetry_cell_setting	triclinic
loop_
_symmetry_equiv_pos_as_xyz
  x,y,z
_cell_length_a	17.038272
_cell_length_b	9.065218
_cell_length_c	8.140239
_cell_angle_alpha	89.989394
_cell_angle_beta	89.995864
_cell_angle_gamma	91.936245
loop_
_atom_site_label
_atom_site_type_symbol
_atom_site_fract_x
_atom_site_fract_y
_atom_site_fract_z
O1	O	1.039679	-0.320647	0.136455
O2	O	0.812011	-0.315556	0.136502
O3	O	0.930551	-0.103931	0.136435
O4	O	0.921139	-0.532272	0.136521
O5	O	0.930547	-0.103929	-0.136792
O6	O	0.812007	-0.315554	-0.136725
O7	O	1.039675	-0.320645	-0.136772
Zn8	Zn	0.925841	-0.318099	-0.180129
Zn9	Zn	0.925846	-0.318102	0.179859
O10	O	0.921135	-0.532270	-0.136706
C11	C	0.782848	-0.310924	-0.000106
C12	C	0.695955	-0.297108	-0.000090
C13	C	0.646757	-0.423956	-0.000066
C14	C	0.565112	-0.410965	-0.000091
C15	C	0.532668	-0.271125	-0.000129
C16	C	0.581873	-0.144268	-0.000158
C17	C	0.663515	-0.157260	-0.000144
C18	C	0.286579	-0.225228	-0.000182
C19	C	0.204929	-0.212245	-0.000190
C20	C	0.188175	-0.478944	-0.000127
C21	C	0.269820	-0.491923	-0.000103
C22	C	0.319018	-0.365066	-0.000141
C23	C	0.449215	-0.257844	-0.000149
C24	C	0.402469	-0.378349	-0.000132
C25	C	0.929644	-0.048853	-0.000185
C26	C	0.926940	0.115262	-0.000206
C27	C	1.068839	-0.325277	-0.000161
C28	C	1.155731	-0.339093	-0.000166
N29	N	0.925843	-0.318097	-0.425812
C30	C	0.922042	0.412652	-0.000127
C31	C	0.924746	0.248538	-0.000230
N32	N	0.925850	-0.318093	0.425542
H33	H	0.525058	-0.514259	-0.000069
H34	H	0.296230	-0.605795	-0.000053
H35	H	0.148110	-0.582223	-0.000099
O36	O	0.173541	-0.076284	-0.000299
C37	C	0.234470	0.032900	-0.000285
H38	H	0.290215	-0.015444	-0.052007
H39	H	0.216738	0.129912	-0.079629
H40	H	0.245725	0.072521	0.130787
H41	H	0.555450	-0.030407	-0.000212
O42	O	0.334439	-0.102106	0.000021
C43	C	0.382143	-0.101617	0.141555
H44	H	0.387105	-0.219340	0.188750
H45	H	0.443100	-0.054298	0.109730
H46	H	0.354801	-0.030819	0.240629
O47	O	0.711197	-0.033889	-0.000086
C48	C	0.665056	0.092324	-0.000159
H49	H	0.604398	0.062494	0.051568
H50	H	0.694501	0.181832	0.079151
H51	H	0.658958	0.134707	-0.131250
O52	O	0.433946	-0.514217	-0.000382
C53	C	0.408896	-0.592199	-0.141844
H54	H	0.391355	-0.510622	-0.240780
H55	H	0.458795	-0.661221	-0.189313
H56	H	0.356285	-0.667814	-0.109831
O57	O	0.678141	-0.559910	-0.000100
C58	C	0.617205	-0.669082	-0.000045
H59	H	0.561468	-0.620726	-0.051791
H60	H	0.634938	-0.766098	-0.079347
H61	H	0.605936	-0.708701	0.131043
O62	O	0.417735	-0.121972	-0.000458
C63	C	0.442806	-0.043994	-0.141947
H64	H	0.460357	-0.125576	-0.240842
H65	H	0.392916	0.025032	-0.189460
H66	H	0.495416	0.031615	-0.109954
