data_functionalizedCrystal
_audit_creation_method	'MofGen! by Chris Wilmer'
_symmetry_space_group_name_H-M	'P1'
_symmetry_Int_Tables_number	1
_symmetry_cell_setting	triclinic
loop_
_symmetry_equiv_pos_as_xyz
  x,y,z
_cell_length_a	15.625164
_cell_length_b	14.185569
_cell_length_c	16.992695
_cell_angle_alpha	104.070102
_cell_angle_beta	92.703104
_cell_angle_gamma	120.555639
loop_
_atom_site_label
_atom_site_type_symbol
_atom_site_fract_x
_atom_site_fract_y
_atom_site_fract_z
O1	O	-1.292477	-0.386818	0.020103
O2	O	-1.007013	-0.282956	0.054393
O3	O	-1.148603	-0.334480	-0.076809
O4	O	-1.150887	-0.335295	0.151305
O5	O	-1.190430	-0.516535	-0.115564
O6	O	-1.048840	-0.465011	0.015639
O7	O	-1.334304	-0.568873	-0.018652
Cu8	Cu	-1.195391	-0.533565	-0.005045
Cu9	Cu	-1.145926	-0.318264	0.040787
O10	O	-1.192714	-0.517350	0.112551
C11	C	-0.991231	-0.360633	0.037303
C12	C	-0.881888	-0.320851	0.044110
C13	C	-0.704976	-0.165548	0.074829
C14	C	-0.807722	-0.202941	0.068430
C15	C	-0.853330	-0.401414	0.026184
C16	C	-0.750585	-0.364037	0.032583
C17	C	-0.676415	-0.246103	0.056905
C18	C	-0.722024	-0.444592	0.014660
C19	C	-0.619289	-0.407218	0.021054
C20	C	-0.545114	-0.289289	0.045373
C21	C	-0.573680	-0.208729	0.063300
C22	C	-0.796196	-0.562526	-0.009668
C23	C	-0.767636	-0.643081	-0.027591
C24	C	-0.664898	-0.605707	-0.021191
C25	C	-0.590723	-0.487778	0.003127
C26	C	-0.636332	-0.686267	-0.039118
C27	C	-0.533597	-0.648893	-0.032724
C28	C	-0.487988	-0.450404	0.009522
N29	N	-1.230190	-0.684999	-0.037282
C30	C	-1.008894	-0.972122	0.167693
C31	C	-1.035260	-1.086738	0.143279
C32	C	-1.160668	-1.132334	0.027137
C33	C	-1.134309	-1.017718	0.051539
C34	C	-1.058422	-0.937620	0.121818
C35	C	-1.183837	-0.983217	0.005664
C36	C	-1.157483	-0.868612	0.030067
C37	C	-1.081601	-0.788509	0.100345
C38	C	-1.032068	-0.823016	0.146221
C39	C	-1.259729	-1.063318	-0.064611
C40	C	-1.309257	-1.028817	-0.110486
C41	C	-1.282898	-0.914208	-0.086087
C42	C	-1.207016	-0.834105	-0.015809
C43	C	-1.332431	-0.879701	-0.131964
C44	C	-1.306077	-0.765097	-0.107561
C45	C	-1.180662	-0.719501	0.008593
C46	C	-0.350086	-0.491192	-0.001570
C47	C	-0.459427	-0.530959	-0.008402
C48	C	-1.166572	-0.424436	-0.125174
C49	C	-1.157787	-0.421239	-0.211547
N50	N	-1.111135	-0.166833	0.073016
C51	C	-1.242549	-0.452080	-0.268263
C52	C	-1.234287	-0.449064	-0.349417
C53	C	-1.141263	-0.415215	-0.373853
C54	C	-1.056493	-0.384369	-0.317129
C55	C	-1.064755	-0.387378	-0.235976
C56	C	-1.107020	-0.402743	-0.614832
C57	C	-1.098766	-0.399740	-0.695993
C58	C	-1.276559	-0.464433	-0.728275
C59	C	-1.284814	-0.467445	-0.647120
C60	C	-1.200044	-0.436593	-0.590401
N61	N	-1.132816	-0.412135	-0.456806
N62	N	-1.208490	-0.439666	-0.507449
C63	C	-1.174745	-0.427391	0.160916
C64	C	-1.183528	-0.430581	0.247290
H65	H	-0.879849	-0.592952	-0.014872
H66	H	-0.994923	-1.114819	0.180643
Br67	Br	-0.949714	-0.345512	-0.159000
H68	H	-0.830968	-0.137334	0.083032
H69	H	-0.828038	-0.739103	-0.047397
Br70	Br	-0.737001	-0.846315	-0.072137
Br71	Br	-0.991972	-0.360865	-0.537866
H72	H	-0.427592	-0.354371	0.029337
Br73	Br	-1.368806	-0.498035	-0.235112
H74	H	-1.394226	-0.944933	-0.189181
Br75	Br	-0.930241	-0.338413	-0.350288
Br76	Br	-1.295500	-1.218856	-0.097722
Br77	Br	-0.405686	-0.238563	0.054035
H78	H	-0.510342	-0.714489	-0.047304
H79	H	-1.360564	-0.495008	-0.627230
Br80	Br	-1.077655	-0.610785	0.103965
H81	H	-1.371048	-1.094045	-0.167707
H82	H	-0.513285	-0.112695	0.083115
Br83	Br	-0.604306	-0.005492	0.107854
H84	H	-1.060147	-0.695193	0.120215
Br85	Br	-0.953995	-0.561462	-0.006824
Br86	Br	-1.373301	-0.718274	-0.169818
H87	H	-0.970265	-0.757793	0.203445
Br88	Br	-1.349327	-0.490921	-0.426387
H89	H	-0.947091	-0.906899	0.224917
Br90	Br	-1.391599	-0.506301	-0.805252
H91	H	-1.222459	-1.197563	-0.030083
H92	H	-1.023015	-0.372193	-0.715888
