data_functionalizedCrystal
_audit_creation_method	'MofGen! by Chris Wilmer'
_symmetry_space_group_name_H-M	'P1'
_symmetry_Int_Tables_number	1
_symmetry_cell_setting	triclinic
loop_
_symmetry_equiv_pos_as_xyz
  x,y,z
_cell_length_a	27.731993
_cell_length_b	27.732048
_cell_length_c	15.072220
_cell_angle_alpha	89.993868
_cell_angle_beta	89.999078
_cell_angle_gamma	82.631525
loop_
_atom_site_label
_atom_site_type_symbol
_atom_site_fract_x
_atom_site_fract_y
_atom_site_fract_z
O1	O	0.640950	0.057388	-0.073553
O2	O	1.140950	0.557388	0.426447
O3	O	0.500153	0.066161	-0.073609
O4	O	1.000153	0.566161	0.426391
O5	O	0.574925	-0.008623	-0.073562
O6	O	1.074925	0.491377	0.426438
O7	O	0.566179	0.132172	-0.073600
O8	O	1.066179	0.632172	0.426400
O9	O	0.574906	-0.008619	0.074003
O10	O	1.074906	0.491381	0.574003
O11	O	0.500135	0.066166	0.073956
O12	O	1.000135	0.566166	0.573956
O13	O	0.640932	0.057392	0.074012
O14	O	1.140932	0.557392	0.574012
Zn15	Zn	0.570531	0.061780	0.097413
Zn16	Zn	1.070531	0.561780	0.597413
Zn17	Zn	0.570555	0.061774	-0.097010
Zn18	Zn	1.070555	0.561774	0.402990
O19	O	0.566161	0.132177	0.073965
O20	O	1.066161	0.632177	0.573965
C21	C	0.482137	0.065983	0.000167
C22	C	0.982137	0.565983	0.500167
C23	C	0.428480	0.065441	0.000147
C24	C	0.928480	0.565441	0.500147
C25	C	0.045330	0.061508	-0.080247
C26	C	0.545330	0.561508	0.419753
C27	C	0.246988	0.063575	-0.080272
C28	C	0.746988	0.563575	0.419728
O29	O	0.273069	0.063821	-0.148683
O30	O	0.773069	0.563821	0.351317
N31	N	0.272198	0.063836	0.000164
N32	N	0.772198	0.563836	0.500164
C33	C	0.246991	0.063577	0.080612
C34	C	0.746991	0.563577	0.580612
O35	O	0.273062	0.063841	0.149027
O36	O	0.773062	0.563841	0.649027
C37	C	0.045335	0.061507	0.080636
C38	C	0.545335	0.561507	0.580636
C39	C	0.020127	0.061251	0.000194
C40	C	0.520127	0.561251	0.500194
C41	C	0.020122	0.061252	-0.160682
C42	C	0.520122	0.561252	0.339318
C43	C	-0.030290	0.060737	-0.160675
C44	C	0.469710	0.560737	0.339325
C45	C	-0.055493	0.060480	-0.080233
C46	C	0.444507	0.560480	0.419767
C47	C	-0.030285	0.060736	0.000201
C48	C	0.469715	0.560736	0.500201
C49	C	0.020130	0.061244	0.161082
C50	C	0.520130	0.561244	0.661082
C51	C	-0.030287	0.060725	0.161081
C52	C	0.469713	0.560725	0.661081
C53	C	-0.055496	0.060469	0.080640
C54	C	0.444504	0.560469	0.580640
C55	C	-0.105900	0.059965	0.080650
C56	C	0.394100	0.559965	0.580650
N57	N	-0.131110	0.059704	0.000214
N58	N	0.368890	0.559704	0.500214
C59	C	-0.105907	0.059961	-0.080228
C60	C	0.394093	0.559961	0.419772
C61	C	0.352863	0.064665	0.080594
C62	C	0.852863	0.564665	0.580594
C63	C	0.403277	0.065184	0.080588
C64	C	0.903277	0.565184	0.580588
C65	C	0.403270	0.065181	-0.080296
C66	C	0.903270	0.565181	0.419704
C67	C	0.352855	0.064666	-0.080289
C68	C	0.852855	0.564666	0.419711
C69	C	0.327653	0.064404	0.000158
C70	C	0.827653	0.564404	0.500158
C71	C	-0.211775	0.058882	-0.080207
C72	C	0.288225	0.558882	0.419793
C73	C	-0.262192	0.058370	-0.080193
C74	C	0.237808	0.558370	0.419807
C75	C	-0.262180	0.058371	0.080691
C76	C	0.237820	0.558371	0.580691
C77	C	-0.211768	0.058885	0.080677
C78	C	0.288232	0.558885	0.580677
C79	C	-0.186567	0.059139	0.000221
C80	C	0.313433	0.559139	0.500221
O81	O	-0.132012	0.059713	0.149025
O82	O	0.367988	0.559713	0.649025
O83	O	-0.131985	0.059686	-0.148632
O84	O	0.368015	0.559686	0.351368
C85	C	0.095742	0.062022	-0.080254
C86	C	0.595742	0.562022	0.419746
C87	C	0.120950	0.062279	0.000180
C88	C	0.620950	0.562279	0.500180
C89	C	0.095747	0.062021	0.080622
C90	C	0.595747	0.562021	0.580622
C91	C	0.171364	0.062797	0.000175
C92	C	0.671364	0.562797	0.500175
C93	C	0.196567	0.063055	-0.080267
C94	C	0.696567	0.563055	0.419733
C95	C	0.171357	0.062794	-0.160703
C96	C	0.671357	0.562794	0.339297
C97	C	0.120945	0.062280	-0.160696
C98	C	0.620945	0.562280	0.339304
C99	C	0.120957	0.062282	0.161058
C100	C	0.620957	0.562282	0.661058
C101	C	0.171369	0.062797	0.161044
C102	C	0.671369	0.562797	0.661044
C103	C	0.196572	0.063054	0.080603
C104	C	0.696572	0.563054	0.580603
C105	C	0.574732	-0.026628	0.000223
C106	C	1.074732	0.473372	0.500223
C107	C	0.574179	-0.080282	0.000230
C108	C	1.074179	0.419718	0.500230
C109	C	0.614884	-0.419105	0.000200
C110	C	1.114884	0.080895	0.500200
C111	C	0.612833	-0.620765	0.000187
C112	C	1.112833	-0.120765	0.500187
O113	O	0.650055	-0.652028	0.000163
O114	O	1.150055	-0.152028	0.500163
N115	N	0.568497	-0.639880	0.000170
N116	N	1.068497	-0.139880	0.500170
C117	C	0.524670	-0.608576	0.000151
C118	C	1.024670	-0.108576	0.500151
O119	O	0.486912	-0.629462	0.000128
O120	O	0.986912	-0.129462	0.500128
C121	C	0.526721	-0.406918	0.000158
C122	C	1.026721	0.093082	0.500158
C123	C	0.571061	-0.387806	0.000184
C124	C	1.071061	0.112194	0.500184
C125	C	0.659220	-0.399993	0.000225
C126	C	1.159220	0.100007	0.500225
C127	C	0.659732	-0.349581	0.000233
C128	C	1.159732	0.150419	0.500233
C129	C	0.615909	-0.318282	0.000216
C130	C	1.115909	0.181718	0.500216
C131	C	0.571573	-0.337394	0.000192
C132	C	1.071573	0.162606	0.500192
C133	C	0.482895	-0.375616	0.000132
C134	C	0.982895	0.124384	0.500132
C135	C	0.483412	-0.325199	0.000132
C136	C	0.983412	0.174801	0.500132
C137	C	0.527751	-0.306087	0.000158
C138	C	1.027751	0.193913	0.500158
C139	C	0.528262	-0.255683	0.000183
C140	C	1.028262	0.244317	0.500183
N141	N	0.572598	-0.236568	0.000200
N142	N	1.072598	0.263432	0.500200
C143	C	0.616422	-0.267867	0.000216
C144	C	1.116422	0.232133	0.500216
C145	C	0.523596	-0.714450	0.000149
C146	C	1.023596	-0.214450	0.500149
C147	C	0.523083	-0.764865	0.000149
C148	C	1.023083	-0.264865	0.500149
C149	C	0.611246	-0.777049	0.000183
C150	C	1.111246	-0.277049	0.500183
C151	C	0.611759	-0.726634	0.000190
C152	C	1.111759	-0.226634	0.500190
C153	C	0.567932	-0.695335	0.000166
C154	C	1.067932	-0.195335	0.500166
C155	C	0.617494	-0.161998	0.000234
C156	C	1.117494	0.338002	0.500234
C157	C	0.618003	-0.111582	0.000246
C158	C	1.118003	0.388418	0.500246
C159	C	0.529839	-0.099401	0.000207
C160	C	1.029839	0.400599	0.500207
C161	C	0.529331	-0.149814	0.000200
C162	C	1.029331	0.350186	0.500200
C163	C	0.573162	-0.181112	0.000211
C164	C	1.073162	0.318888	0.500211
O165	O	0.491060	-0.224392	0.000198
O166	O	0.991060	0.275608	0.500198
O167	O	0.654174	-0.246972	0.000220
O168	O	1.154174	0.253028	0.500220
C169	C	0.614372	-0.469517	0.000192
C170	C	1.114372	0.030483	0.500192
C171	C	0.570036	-0.488630	0.000167
C172	C	1.070036	0.011370	0.500167
C173	C	0.526213	-0.457331	0.000151
C174	C	1.026213	0.042669	0.500151
C175	C	0.569523	-0.539044	0.000167
C176	C	1.069523	-0.039044	0.500167
C177	C	0.613346	-0.570343	0.000184
C178	C	1.113346	-0.070343	0.500184
C179	C	0.657683	-0.551228	0.000200
C180	C	1.157683	-0.051228	0.500200
C181	C	0.658195	-0.500817	0.000209
C182	C	1.158195	-0.000817	0.500209
C183	C	0.481876	-0.476446	0.000134
C184	C	0.981876	0.023554	0.500134
C185	C	0.481368	-0.526858	0.000127
C186	C	0.981368	-0.026858	0.500127
C187	C	0.525191	-0.558157	0.000144
C188	C	1.025191	-0.058157	0.500144
C189	C	0.658949	0.057570	0.000234
C190	C	1.158949	0.557570	0.500234
C191	C	0.712605	0.058113	0.000249
C192	C	1.212605	0.558113	0.500249
C193	C	0.566353	0.150181	0.000179
C194	C	1.066353	0.650181	0.500179
C195	C	0.566906	0.203836	0.000166
C196	C	1.066906	0.703836	0.500166
N197	N	0.570518	0.061783	0.230102
N198	N	1.070518	0.561783	0.730102
N199	N	0.570572	0.061767	-0.229699
N200	N	1.070572	0.561767	0.270301
C201	C	0.570554	0.061772	0.589304
C202	C	1.070554	0.561772	1.089304
C203	C	0.530413	0.101656	0.551672
C204	C	1.030413	0.601656	1.051672
C205	C	0.530503	0.101799	0.448846
C206	C	1.030503	0.601799	0.948846
C207	C	0.570535	0.061778	0.411100
C208	C	1.070535	0.561778	0.911100
C209	C	0.620892	0.072407	0.448407
C210	C	1.120892	0.572407	0.948407
C211	C	0.620666	0.072690	0.551265
C212	C	1.120666	0.572690	1.051265
C213	C	0.560789	0.011138	0.551412
C214	C	1.060789	0.511138	1.051412
C215	C	0.559629	0.011486	0.448548
C216	C	1.059629	0.511486	0.948548
C217	C	0.570528	0.061780	0.310386
C218	C	1.070528	0.561780	0.810386
C219	C	0.570564	0.061771	0.690017
C220	C	1.070564	0.561771	1.190017
H221	H	-0.282710	0.058163	0.146184
H222	H	0.217290	0.558163	0.646184
H223	H	0.524887	0.000821	0.577392
H224	H	1.024887	0.500821	1.077392
C225	C	0.431004	0.065460	-0.168782
C226	C	0.931004	0.565460	0.331218
N227	N	0.451895	0.065666	-0.235427
N228	N	0.951895	0.565666	0.264573
C229	C	0.662190	0.034187	0.415375
C230	C	1.162190	0.534187	0.915375
N231	N	0.693295	0.005399	0.390492
N232	N	1.193295	0.505399	0.890492
H233	H	-0.282714	0.058163	-0.145700
H234	H	0.217286	0.558163	0.354300
H235	H	-0.191262	0.059090	-0.145722
H236	H	0.308738	0.559090	0.354278
C237	C	0.433664	-0.442023	0.000114
C238	C	0.933664	0.057977	0.500114
N239	N	0.397348	-0.416097	0.000103
N240	N	0.897348	0.083903	0.500103
H241	H	-0.050805	0.060516	0.226592
H242	H	0.449195	0.560516	0.726592
H243	H	-0.050810	0.060527	-0.226178
H244	H	0.449190	0.560527	0.273822
H245	H	0.693365	-0.576721	0.000218
H246	H	1.193365	-0.076721	0.500218
H247	H	0.040637	0.061460	-0.226190
H248	H	0.540637	0.561460	0.273810
C249	C	0.632884	0.121710	0.413600
C250	C	1.132884	0.621710	0.913600
N251	N	0.641913	0.158847	0.387387
N252	N	1.141913	0.658847	0.887387
H253	H	0.522588	0.003410	0.424164
H254	H	1.022588	0.503410	0.924164
H255	H	0.647864	-0.711077	0.000210
H256	H	1.147864	-0.211077	0.500210
C257	C	0.479664	0.093333	0.585126
C258	C	0.979664	0.593333	1.085126
N259	N	0.441439	0.087066	0.610336
N260	N	0.941439	0.587066	1.110336
C261	C	0.093223	0.061992	-0.249188
C262	C	0.593223	0.561992	0.250812
N263	N	0.072347	0.061773	-0.315845
N264	N	0.572347	0.561773	0.184155
C265	C	0.435198	-0.290773	0.000109
C266	C	0.935198	0.209227	0.500109
N267	N	0.398883	-0.264844	0.000095
N268	N	0.898883	0.235156	0.500095
C269	C	0.632359	0.122564	0.583658
C270	C	1.132359	0.622564	1.083658
N271	N	0.641163	0.160132	0.608051
N272	N	1.141163	0.660132	1.108051
H273	H	0.332334	0.064457	-0.145792
H274	H	0.832334	0.564457	0.354208
H275	H	0.586996	-0.019554	0.422858
H276	H	1.086996	0.480446	0.922858
H277	H	0.695838	-0.334025	0.000250
H278	H	1.195838	0.165975	0.500250
C279	C	0.199091	0.063075	-0.249189
C280	C	0.699091	0.563075	0.250811
N281	N	0.219983	0.063284	-0.315832
N282	N	0.719983	0.563284	0.184168
C283	C	0.431000	0.065471	0.169080
C284	C	0.931000	0.565471	0.669080
N285	N	0.451879	0.065683	0.235735
N286	N	0.951879	0.565683	0.735735
C287	C	0.325146	0.064388	0.169098
C288	C	0.825146	0.564388	0.669098
N289	N	0.304271	0.064184	0.235760
N290	N	0.804271	0.564184	0.735760
H291	H	0.646929	-0.802542	0.000197
H292	H	1.146929	-0.302542	0.500197
C293	C	0.480556	-0.170838	0.000178
C294	C	0.980556	0.329162	0.500178
N295	N	0.443817	-0.186669	0.000151
N296	N	0.943817	0.313331	0.500151
H297	H	0.536521	0.139027	0.577503
H298	H	1.036521	0.639027	1.077503
H299	H	0.040646	0.061451	0.226586
H300	H	0.540646	0.561451	0.726586
C301	C	-0.184039	0.059171	0.169166
C302	C	0.315961	0.559171	0.669166
N303	N	-0.163156	0.059380	0.235817
N304	N	0.336844	0.559380	0.735817
C305	C	0.199092	0.063078	0.249542
C306	C	0.699092	0.563078	0.749542
N307	N	0.219972	0.063285	0.316197
N308	N	0.719972	0.563285	0.816197
C309	C	0.432587	-0.547875	0.000100
C310	C	0.932587	-0.047875	0.500100
N311	N	0.395847	-0.563703	0.000071
N312	N	0.895847	-0.063703	0.500071
H313	H	0.446789	-0.391168	0.000106
H314	H	0.946789	0.108832	0.500106
H315	H	0.654110	-0.096024	0.000269
H316	H	1.154110	0.403976	0.500269
C317	C	0.481636	-0.064963	0.000183
C318	C	0.981636	0.435037	0.500183
N319	N	0.445329	-0.039022	0.000156
N320	N	0.945329	0.460978	0.500156
C321	C	0.093239	0.062008	0.249555
C322	C	0.593239	0.562008	0.749555
N323	N	0.072363	0.061806	0.316217
N324	N	0.572363	0.561806	0.816217
H325	H	0.694908	-0.425472	0.000235
H326	H	1.194908	0.074528	0.500235
C327	C	0.479916	0.093329	0.414768
C328	C	0.979916	0.593329	0.914768
N329	N	0.441812	0.086953	0.389105
N330	N	0.941812	0.586953	0.889105
C331	C	0.665711	-0.196419	0.000254
C332	C	1.165711	0.303581	0.500254
N333	N	0.702028	-0.222344	0.000276
N334	N	1.202028	0.277656	0.500276
C335	C	0.474306	-0.785882	0.000132
C336	C	0.974306	-0.285882	0.500132
N337	N	0.437566	-0.801710	0.000113
N338	N	0.937566	-0.301710	0.500113
C339	C	0.706972	-0.479800	0.000231
C340	C	1.206972	0.020200	0.500231
N341	N	0.743714	-0.463975	0.000245
N342	N	1.243714	0.036025	0.500245
C343	C	0.538877	0.152571	0.415581
C344	C	1.038877	0.652571	0.915581
N345	N	0.545187	0.190814	0.390526
N346	N	1.045187	0.690814	0.890526
C347	C	0.662215	0.034924	0.584897
C348	C	1.162215	0.534924	1.084897
N349	N	0.693515	0.006485	0.610225
N350	N	1.193515	0.506485	1.110225
C351	C	0.600339	-0.028952	0.584296
C352	C	1.100339	0.471048	1.084296
N353	N	0.630128	-0.059145	0.609070
N354	N	1.130128	0.440855	1.109070
C355	C	0.475380	-0.680027	0.000124
C356	C	0.975380	-0.180027	0.500124
N357	N	0.439063	-0.654102	0.000107
N358	N	0.939063	-0.154102	0.500107
