data_functionalizedCrystal
_audit_creation_method	'MofGen! by Chris Wilmer'
_symmetry_space_group_name_H-M	'P1'
_symmetry_Int_Tables_number	1
_symmetry_cell_setting	triclinic
loop_
_symmetry_equiv_pos_as_xyz
  x,y,z
_cell_length_a	16.109301
_cell_length_b	18.266242
_cell_length_c	16.109301
_cell_angle_alpha	90.007769
_cell_angle_beta	83.461481
_cell_angle_gamma	90.006317
loop_
_atom_site_label
_atom_site_type_symbol
_atom_site_fract_x
_atom_site_fract_y
_atom_site_fract_z
O1	O	1.103137	0.060837	0.106868
O2	O	0.861075	0.060849	0.120168
O3	O	0.988756	0.060835	-0.007513
O4	O	0.975457	0.060851	0.234549
O5	O	0.988734	-0.060927	-0.007519
O6	O	0.861054	-0.060913	0.120161
O7	O	1.103116	-0.060925	0.106862
Zn8	Zn	0.982081	-0.080251	0.113510
Zn9	Zn	0.982110	0.080175	0.113519
O10	O	0.975435	-0.060911	0.234543
C11	C	0.830090	-0.000031	0.119626
C12	C	0.737794	-0.000026	0.118011
C13	C	0.515522	-0.000030	0.190018
C14	C	0.428801	-0.000035	0.188494
C15	C	0.448676	-0.000042	0.037006
C16	C	0.535394	-0.000042	0.038530
C17	C	0.568815	-0.000033	0.115039
C18	C	0.395376	-0.000037	0.111990
C19	C	0.301350	-0.000042	0.110337
C20	C	0.662847	-0.000029	0.116693
N21	N	0.982068	-0.189738	0.113504
C22	C	1.038623	-0.228053	0.056995
C23	C	1.038629	-0.304698	0.056991
C24	C	0.982086	-0.343025	0.113511
C25	C	0.925520	-0.304701	0.170024
C26	C	0.925511	-0.228058	0.170021
N27	N	0.971484	-0.463353	0.187080
N28	N	0.971498	-0.536161	0.187081
C29	C	0.982110	-0.573948	0.113523
N30	N	0.992723	-0.536176	0.039962
N31	N	0.992714	-0.463361	0.039962
C32	C	0.982090	-0.426132	0.113520
C33	C	1.038674	-0.695370	0.057005
C34	C	1.038673	-0.772016	0.057000
C35	C	0.925569	-0.772017	0.170040
C36	C	0.925565	-0.695373	0.170038
C37	C	0.982122	-0.657053	0.113521
C38	C	1.134101	-0.000044	0.107404
C39	C	1.226397	-0.000043	0.109019
C40	C	0.988206	-0.000046	-0.038491
C41	C	0.986591	-0.000047	-0.130786
N42	N	0.982130	0.189662	0.113519
C43	C	1.058599	-0.000039	-0.353059
C44	C	1.057075	-0.000033	-0.439779
C45	C	0.905586	-0.000028	-0.419905
C46	C	0.907111	-0.000029	-0.333186
C47	C	0.983620	-0.000038	-0.299766
C48	C	0.980571	-0.000031	-0.473205
C49	C	0.978918	-0.000025	-0.567231
C50	C	0.985273	-0.000044	-0.205734
C51	C	0.975984	-0.000028	0.265521
C52	C	0.977600	-0.000023	0.357816
H53	H	0.578788	-0.000046	-0.022530
Br54	Br	0.848823	-0.824026	0.246737
Br55	Br	0.403314	-0.000052	-0.066823
H56	H	0.385413	-0.000034	0.249550
Br57	Br	0.560876	-0.000020	0.293851
H58	H	1.120897	-0.000045	-0.325851
H59	H	1.084684	-0.335900	0.010973
Br60	Br	1.115374	-0.176048	-0.019707
H61	H	0.843295	-0.000022	-0.447127
H62	H	0.879481	-0.335911	0.216042
Br63	Br	1.158837	-0.000030	-0.512103
Br64	Br	0.848750	-0.176054	0.246717
Br65	Br	1.115426	-0.643363	-0.019699
H66	H	1.084725	-0.803213	0.010979
Br67	Br	0.848811	-0.643368	0.246735
H68	H	0.846050	-0.000026	-0.289792
