data_functionalizedCrystal
_audit_creation_method	'MofGen! by Chris Wilmer'
_symmetry_space_group_name_H-M	'P1'
_symmetry_Int_Tables_number	1
_symmetry_cell_setting	triclinic
loop_
_symmetry_equiv_pos_as_xyz
  x,y,z
_cell_length_a	14.519709
_cell_length_b	13.448316
_cell_length_c	14.971494
_cell_angle_alpha	89.999494
_cell_angle_beta	83.648851
_cell_angle_gamma	89.997103
loop_
_atom_site_label
_atom_site_type_symbol
_atom_site_fract_x
_atom_site_fract_y
_atom_site_fract_z
O1	O	1.223807	-0.082558	0.117246
O2	O	1.723807	0.417442	0.617246
O3	O	0.955322	-0.082588	0.131054
O4	O	1.455322	0.417412	0.631054
O5	O	1.096757	-0.082570	-0.006045
O6	O	1.596757	0.417430	0.493955
O7	O	1.082372	-0.082576	0.254346
O8	O	1.582372	0.417424	0.754346
O9	O	1.096733	0.082813	-0.006042
O10	O	1.596733	0.582813	0.493958
O11	O	0.955298	0.082795	0.131058
O12	O	1.455298	0.582795	0.631058
O13	O	1.223783	0.082825	0.117250
O14	O	1.723783	0.582825	0.617250
Cu15	Cu	1.089538	0.097911	0.124154
Cu16	Cu	1.589538	0.597911	0.624154
Cu17	Cu	1.089567	-0.097674	0.124150
Cu18	Cu	1.589567	0.402326	0.624150
O19	O	1.082349	0.082807	0.254349
O20	O	1.582349	0.582807	0.754349
C21	C	0.920951	0.000100	0.130412
C22	C	1.420951	0.500100	0.630412
C23	C	0.818571	0.000088	0.128484
C24	C	1.318571	0.500088	0.628484
C25	C	1.096100	0.000120	-0.039368
C26	C	1.596100	0.500120	0.460632
C27	C	1.094168	0.000115	-0.138666
C28	C	1.594168	0.500115	0.361334
N29	N	1.089525	0.235476	0.124156
N30	N	1.589525	0.735476	0.624156
C31	C	0.443679	0.000134	0.121385
C32	C	0.943679	0.500134	0.621385
C33	C	0.547986	0.000121	0.123356
C34	C	1.047986	0.500121	0.623356
C35	C	0.631121	0.000110	0.124934
C36	C	1.131121	0.500110	0.624934
C37	C	0.735435	0.000099	0.126906
C38	C	1.235435	0.500099	0.626906
C39	C	1.258154	0.000135	0.117892
C40	C	1.758154	0.500135	0.617892
C41	C	1.360534	0.000140	0.119820
C42	C	1.860534	0.500140	0.619820
N43	N	1.089587	-0.235239	0.124140
N44	N	1.589587	0.264761	0.624140
C45	C	1.152223	0.712702	0.063458
C46	C	1.652223	1.212702	0.563458
C47	C	1.152216	0.608599	0.063464
C48	C	1.652216	1.108599	0.563464
C49	C	1.089567	0.556557	0.124149
C50	C	1.589567	1.056557	0.624149
C51	C	1.026927	0.608624	0.184838
C52	C	1.526927	1.108624	0.684838
C53	C	1.026940	0.712725	0.184836
C54	C	1.526940	1.212725	0.684836
C55	C	1.026903	0.391644	0.184838
C56	C	1.526903	0.891644	0.684838
C57	C	1.026889	0.287535	0.184839
C58	C	1.526889	0.787535	0.684839
C59	C	1.152179	0.287517	0.063466
C60	C	1.652179	0.787517	0.563466
C61	C	1.152192	0.391619	0.063463
C62	C	1.652192	0.891619	0.563463
C63	C	1.089551	0.443678	0.124152
C64	C	1.589551	0.943678	0.624152
C65	C	1.093276	-0.090037	-0.185313
C66	C	1.593276	0.409963	0.314687
C67	C	1.091454	-0.090038	-0.278613
C68	C	1.591454	0.409962	0.221387
C69	C	1.090532	0.000113	-0.325265
C70	C	1.590532	0.500113	0.174735
C71	C	1.091422	0.090272	-0.278611
C72	C	1.591422	0.590272	0.221389
C73	C	1.093237	0.090273	-0.185312
C74	C	1.593237	0.590273	0.314688
C75	C	1.087642	0.090265	-0.473077
C76	C	1.587642	0.590265	0.026923
C77	C	1.085830	0.090265	-0.566383
C78	C	1.585830	0.590265	-0.066383
C79	C	1.085860	-0.090046	-0.566378
C80	C	1.585860	0.409954	-0.066378
C81	C	1.087675	-0.090045	-0.473079
C82	C	1.587675	0.409955	0.026921
C83	C	1.088566	0.000114	-0.426431
C84	C	1.588566	0.500114	0.073569
C85	C	1.083005	0.000115	0.287672
C86	C	1.583005	0.500115	0.787672
C87	C	1.084937	0.000113	0.386970
C88	C	1.584937	0.500113	0.886970
H89	H	1.203235	0.755068	0.014037
H90	H	1.703235	1.255068	0.514037
H91	H	0.975920	0.566245	0.234254
H92	H	1.475920	1.066245	0.734254
H93	H	1.090732	-0.163449	-0.316590
H94	H	1.590732	0.336551	0.183410
H95	H	1.085071	0.163674	-0.604363
H96	H	1.585071	0.663674	-0.104363
H97	H	1.094031	-0.163449	-0.147337
H98	H	1.594031	0.336551	0.352663
H99	H	1.088432	-0.163455	-0.435098
H100	H	1.588432	0.336545	0.064902
H101	H	0.975875	0.245168	0.234256
H102	H	1.475875	0.745168	0.734256
C103	C	0.958033	0.769990	0.251590
C104	C	1.458033	1.269990	0.751590
N105	N	0.906132	0.813121	0.301872
N106	N	1.406132	1.313121	0.801872
H107	H	1.085132	-0.163457	-0.604362
H108	H	1.585132	0.336543	-0.104362
C109	C	1.088627	0.189446	-0.421767
C110	C	1.588627	0.689446	0.078233
N111	N	1.089374	0.264147	-0.383122
N112	N	1.589374	0.764147	0.116878
H113	H	0.975898	0.434027	0.234260
H114	H	1.475898	0.934027	0.734260
C115	C	1.094221	0.189447	-0.134001
C116	C	1.594221	0.689447	0.365999
N117	N	1.094960	0.264148	-0.095355
N118	N	1.594960	0.764148	0.404645
H119	H	1.203219	0.566212	0.014052
H120	H	1.703219	1.066212	0.514052
H121	H	1.203201	0.433991	0.014045
H122	H	1.703201	0.933991	0.514045
C123	C	1.221097	0.230250	-0.003280
C124	C	1.721097	0.730250	0.496720
N125	N	1.273006	0.187111	-0.053549
N126	N	1.773006	0.687111	0.446451
H127	H	1.090666	0.163675	-0.316602
H128	H	1.590666	0.663675	0.183398
