data_functionalizedCrystal
_audit_creation_method	'MofGen! by Chris Wilmer'
_symmetry_space_group_name_H-M	'P1'
_symmetry_Int_Tables_number	1
_symmetry_cell_setting	triclinic
loop_
_symmetry_equiv_pos_as_xyz
  x,y,z
_cell_length_a	21.295418
_cell_length_b	21.295417
_cell_length_c	21.295411
_cell_angle_alpha	89.978356
_cell_angle_beta	89.956262
_cell_angle_gamma	90.046319
loop_
_atom_site_label
_atom_site_type_symbol
_atom_site_fract_x
_atom_site_fract_y
_atom_site_fract_z
Zn1	Zn	-0.962356	0.250415	0.356234
Zn2	Zn	-0.629022	0.583749	0.689567
Zn3	Zn	-0.295689	0.917082	1.022900
Zn4	Zn	-0.962258	0.355667	0.250959
Zn5	Zn	-0.628925	0.689000	0.584292
Zn6	Zn	-0.295592	1.022334	0.917626
Zn7	Zn	-0.857079	0.250445	0.250943
Zn8	Zn	-0.523746	0.583778	0.584277
Zn9	Zn	-0.190412	0.917111	0.917610
Zn10	Zn	-0.857048	0.355680	0.356155
Zn11	Zn	-0.523715	0.689013	0.689489
Zn12	Zn	-0.190382	1.022346	1.022822
O13	O	-0.909685	0.303052	0.303573
O14	O	-0.576352	0.636385	0.636906
O15	O	-0.243019	0.969718	0.970240
O16	O	-1.050432	0.264360	0.342308
O17	O	-0.717099	0.597693	0.675641
O18	O	-0.383766	0.931026	1.008975
O19	O	-0.948278	0.341716	0.162867
O20	O	-0.614945	0.675050	0.496201
O21	O	-0.281611	1.008383	0.829534
O22	O	-0.871098	0.162351	0.264937
O23	O	-0.537764	0.495685	0.598270
O24	O	-0.204431	0.829018	0.931603
O25	O	-1.050361	0.341688	0.264963
O26	O	-0.717027	0.675021	0.598296
O27	O	-0.383694	1.008354	0.931630
O28	O	-0.948444	0.162330	0.342293
O29	O	-0.615111	0.495663	0.675626
O30	O	-0.281778	0.828996	1.008960
O31	O	-0.871003	0.264410	0.162856
O32	O	-0.537670	0.597743	0.496189
O33	O	-0.204337	0.931077	0.829523
O34	O	-0.768985	0.264422	0.264861
O35	O	-0.435652	0.597755	0.598194
O36	O	-0.102319	0.931089	0.931527
O37	O	-0.871046	0.341709	0.444255
O38	O	-0.537712	0.675042	0.777589
O39	O	-0.204379	1.008376	1.110922
O40	O	-0.768963	0.341738	0.342160
O41	O	-0.435630	0.675071	0.675493
O42	O	-0.102296	1.008404	1.008826
O43	O	-0.948415	0.264372	0.444313
O44	O	-0.615081	0.597705	0.777646
O45	O	-0.281748	0.931038	1.110979
O46	O	-0.948248	0.443758	0.264887
O47	O	-0.614915	0.777091	0.598221
O48	O	-0.281582	1.110425	0.931554
O49	O	-0.870951	0.443767	0.342175
O50	O	-0.537618	0.777101	0.675508
O51	O	-0.204284	1.110434	1.008841
C52	C	-0.909603	0.466603	0.303538
C53	C	-0.576269	0.799937	0.636871
C54	C	-0.242936	1.133270	0.970205
C55	C	-0.909625	0.536571	0.303544
C56	C	-0.576292	0.869905	0.636877
C57	C	-0.242958	1.203238	0.970211
C58	C	-0.746134	0.303085	0.303500
C59	C	-0.412800	0.636418	0.636834
C60	C	-0.079467	0.969751	0.970167
C61	C	-0.676166	0.303114	0.303484
C62	C	-0.342832	0.636447	0.636818
C63	C	-0.009499	0.969781	0.970151
C64	C	-1.073876	0.303019	0.303646
C65	C	-0.740542	0.636352	0.636979
C66	C	-0.407209	0.969686	0.970313
C67	C	-1.143844	0.303005	0.303677
C68	C	-0.810510	0.636338	0.637010
C69	C	-0.477177	0.969672	0.970344
C70	C	-0.643304	0.343426	0.343674
C71	C	-0.309970	0.676759	0.677007
C72	C	0.023363	1.010092	1.010340
C73	C	-0.577561	0.343410	0.343702
C74	C	-0.244228	0.676743	0.677035
C75	C	0.089106	1.010077	1.010369
C76	C	-0.544683	0.303090	0.303530
C77	C	-0.211350	0.636423	0.636863
C78	C	0.121984	0.969756	0.970196
C79	C	-0.577553	0.262770	0.263337
C80	C	-0.244220	0.596104	0.596671
C81	C	0.089114	0.929437	0.930004
C82	C	-0.643294	0.262783	0.263315
C83	C	-0.309961	0.596116	0.596648
C84	C	0.023373	0.929449	0.929982
N85	N	-0.441407	0.298163	0.248472
N86	N	-0.108074	0.631496	0.581805
N87	N	0.225260	0.964829	0.915139
N88	N	-0.378956	0.298155	0.248495
N89	N	-0.045622	0.631488	0.581829
N90	N	0.287711	0.964821	0.915162
C91	C	-0.346608	0.303050	0.303596
C92	C	-0.013275	0.636383	0.636930
C93	C	0.320058	0.969716	0.970263
N94	N	-0.379072	0.307965	0.358675
N95	N	-0.045739	0.641298	0.692008
N96	N	0.287595	0.974632	1.025341
N97	N	-0.441529	0.307976	0.358650
N98	N	-0.108196	0.641309	0.691984
N99	N	0.225138	0.974643	1.025317
C100	C	-0.473398	0.303072	0.303550
C101	C	-0.140064	0.636405	0.636883
C102	C	0.193269	0.969738	0.970217
C103	C	-0.242461	0.343346	0.343820
C104	C	0.090872	0.676680	0.677153
C105	C	0.424206	1.010013	1.010486
C106	C	-0.176717	0.343326	0.343849
C107	C	0.156616	0.676660	0.677182
C108	C	0.489949	1.009993	1.010516
C109	C	-0.176710	0.262690	0.263479
C110	C	0.156623	0.596023	0.596812
C111	C	0.489956	0.929357	0.930146
C112	C	-0.242453	0.262707	0.263455
C113	C	0.090881	0.596040	0.596789
C114	C	0.424214	0.929373	0.930122
C115	C	-0.275324	0.303038	0.303625
C116	C	0.058009	0.636372	0.636958
C117	C	0.391343	0.969705	0.970291
C118	C	-0.909738	0.303038	0.467763
C119	C	-0.576404	0.636372	0.801097
C120	C	-0.243071	0.969705	1.134430
C121	C	-0.909760	0.303033	0.537731
C122	C	-0.576427	0.636366	0.871065
C123	C	-0.243093	0.969699	1.204398
C124	C	-0.909785	0.138861	0.303622
C125	C	-0.576452	0.472195	0.636955
C126	C	-0.243119	0.805528	0.970288
C127	C	-0.909828	0.068893	0.303642
C128	C	-0.576495	0.402227	0.636976
C129	C	-0.243161	0.735560	0.970309
C130	C	-0.949910	0.569412	0.263342
C131	C	-0.616576	0.902746	0.596675
C132	C	-0.283243	1.236079	0.930009
C133	C	-0.949939	0.635155	0.263356
C134	C	-0.616606	0.968488	0.596689
C135	C	-0.283272	1.301822	0.930023
C136	C	-0.909673	0.668054	0.303566
C137	C	-0.576340	1.001387	0.636899
C138	C	-0.243006	1.334721	0.970233
C139	C	-0.869386	0.635205	0.343776
C140	C	-0.536052	0.968538	0.677109
C141	C	-0.202719	1.301872	1.010443
C142	C	-0.869362	0.569464	0.343765
C143	C	-0.536028	0.902797	0.677098
C144	C	-0.202695	1.236130	1.010432
N145	N	-0.854606	0.771336	0.308340
N146	N	-0.521272	1.104669	0.641674
N147	N	-0.187939	1.438002	0.975007
N148	N	-0.854630	0.833787	0.308347
N149	N	-0.521297	1.167120	0.641680
N150	N	-0.187964	1.500454	0.975014
C151	C	-0.909743	0.866129	0.303602
C152	C	-0.576410	1.199462	0.636935
C153	C	-0.243077	1.532795	0.970269
N154	N	-0.964832	0.833659	0.298838
N155	N	-0.631499	1.166993	0.632171
N156	N	-0.298166	1.500326	0.965504
N157	N	-0.964807	0.771202	0.298828
N158	N	-0.631474	1.104535	0.632161
N159	N	-0.298140	1.437869	0.965494
C160	C	-0.909695	0.739339	0.303582
C161	C	-0.576361	1.072673	0.636916
C162	C	-0.243028	1.406006	0.970249
C163	C	-0.950063	0.970255	0.263413
C164	C	-0.616730	1.303588	0.596746
C165	C	-0.283397	1.636922	0.930080
C166	C	-0.950094	1.035999	0.263431
C167	C	-0.616760	1.369332	0.596765
C168	C	-0.283427	1.702665	0.930098
C169	C	-0.869535	1.036048	0.343848
C170	C	-0.536201	1.369381	0.677181
C171	C	-0.202868	1.702714	1.010515
C172	C	-0.869510	0.970305	0.343833
C173	C	-0.536176	1.303638	0.677166
C174	C	-0.202843	1.636972	1.010500
C175	C	-0.909773	0.937413	0.303612
C176	C	-0.576440	1.270746	0.636945
C177	C	-0.243106	1.604079	0.970279
C178	C	-0.909670	0.303019	0.140021
C179	C	-0.576336	0.636353	0.473355
C180	C	-0.243003	0.969686	0.806688
C181	C	-0.909769	0.302848	0.070054
C182	C	-0.576436	0.636181	0.403387
C183	C	-0.243103	0.969514	0.736720
C184	C	-0.950044	0.262761	0.570629
C185	C	-0.616711	0.596095	0.903962
C186	C	-0.283377	0.929428	1.237296
C187	C	-0.950043	0.262734	0.636371
C188	C	-0.616710	0.596067	0.969705
C189	C	-0.283377	0.929401	1.303038
C190	C	-0.909765	0.302989	0.669214
C191	C	-0.576431	0.636323	1.002547
C192	C	-0.243098	0.969656	1.335881
C193	C	-0.869473	0.343263	0.636308
C194	C	-0.536139	0.676597	0.969642
C195	C	-0.202806	1.009930	1.302975
C196	C	-0.869470	0.343285	0.570567
C197	C	-0.536137	0.676618	0.903900
C198	C	-0.202804	1.009952	1.237234
N199	N	-0.904908	0.358058	0.772428
N200	N	-0.571575	0.691392	1.105761
N201	N	-0.238241	1.024725	1.439094
N202	N	-0.904914	0.358036	0.834879
N203	N	-0.571581	0.691369	1.168213
N204	N	-0.238247	1.024703	1.501546
C205	C	-0.909769	0.302926	0.867289
C206	C	-0.576435	0.636259	1.200622
C207	C	-0.243102	0.969592	1.533955
N208	N	-0.914629	0.247837	0.834888
N209	N	-0.581296	0.581170	1.168221
N210	N	-0.247963	0.914504	1.501554
N211	N	-0.914627	0.247860	0.772430
N212	N	-0.581293	0.581193	1.105764
N213	N	-0.247960	0.914527	1.439097
C214	C	-0.909763	0.302970	0.740499
C215	C	-0.576429	0.636303	1.073833
C216	C	-0.243096	0.969637	1.407166
C217	C	-0.950054	0.262621	0.971472
C218	C	-0.616721	0.595955	1.304805
C219	C	-0.283388	0.929288	1.638139
C220	C	-0.950049	0.262593	1.037216
C221	C	-0.616716	0.595926	1.370549
C222	C	-0.283382	0.929260	1.703882
C223	C	-0.869482	0.343128	1.037151
C224	C	-0.536148	0.676461	1.370485
C225	C	-0.202815	1.009795	1.703818
C226	C	-0.869484	0.343151	0.971409
C227	C	-0.536150	0.676484	1.304742
C228	C	-0.202817	1.009817	1.638076
C229	C	-0.909773	0.302898	0.938573
C230	C	-0.576440	0.636231	1.271906
C231	C	-0.243107	0.969565	1.605240
H232	H	-0.670063	0.376266	0.376384
H233	H	-0.336730	0.709599	0.709717
H234	H	-0.003397	1.042932	1.043050
H235	H	-0.982857	0.229842	0.944736
H236	H	-0.649524	0.563175	1.278069
H237	H	-0.316190	0.896508	1.611402
O238	O	-0.830194	0.537490	0.382730
O239	O	-0.496861	0.870823	0.716063
O240	O	-0.163527	1.204157	1.049396
C241	C	-0.789528	0.499545	0.346831
C242	C	-0.456195	0.832878	0.680164
C243	C	-0.122862	1.166211	1.013498
H244	H	-0.811749	0.489698	0.299151
H245	H	-0.478415	0.823031	0.632485
H246	H	-0.145082	1.156364	0.965818
H247	H	-0.781062	0.453310	0.372451
H248	H	-0.447729	0.786643	0.705784
H249	H	-0.114395	1.119977	1.039118
H250	H	-0.742892	0.524941	0.339863
H251	H	-0.409558	0.858274	0.673196
H252	H	-0.076225	1.191607	1.006529
H253	H	-0.982850	0.943473	0.230664
H254	H	-0.649517	1.276806	0.563998
H255	H	-0.316184	1.610140	0.897331
H256	H	-0.982852	0.229795	1.064000
H257	H	-0.649519	0.563129	1.397333
H258	H	-0.316186	0.896462	1.730666
O259	O	-0.830377	0.382218	0.939351
O260	O	-0.497044	0.715551	1.272685
O261	O	-0.163711	1.048884	1.606018
C262	C	-0.839024	0.373617	0.874285
C263	C	-0.505691	0.706951	1.207618
C264	C	-0.172357	1.040284	1.540951
H265	H	-0.859668	0.325036	0.865323
H266	H	-0.526335	0.658369	1.198656
H267	H	-0.193002	0.991702	1.531990
H268	H	-0.791870	0.377907	0.849264
H269	H	-0.458536	0.711240	1.182597
H270	H	-0.125203	1.044573	1.515930
H271	H	-0.872524	0.410955	0.855652
H272	H	-0.539191	0.744288	1.188986
H273	H	-0.205858	1.077621	1.522319
H274	H	-0.982902	1.062737	0.230695
H275	H	-0.649569	1.396070	0.564029
H276	H	-0.316235	1.729403	0.897362
O277	O	-0.545689	0.223635	0.224224
O278	O	-0.212355	0.556968	0.557557
O279	O	0.120978	0.890302	0.890891
C280	C	-0.561662	0.237313	0.161454
C281	C	-0.228329	0.570647	0.494787
C282	C	0.105004	0.903980	0.828121
H283	H	-0.609370	0.261519	0.160091
H284	H	-0.276036	0.594852	0.493424
H285	H	0.057297	0.928185	0.826758
H286	H	-0.563927	0.191841	0.133311
H287	H	-0.230594	0.525175	0.466644
H288	H	0.102740	0.858508	0.799978
H289	H	-0.524608	0.269639	0.140202
H290	H	-0.191275	0.602973	0.473536
H291	H	0.142058	0.936306	0.806869
H292	H	-0.836676	0.376038	0.663053
H293	H	-0.503342	0.709371	0.996386
H294	H	-0.170009	1.042704	1.329720
H295	H	-0.836752	1.062833	0.376591
H296	H	-0.503419	1.396167	0.709924
H297	H	-0.170085	1.729500	1.043257
H298	H	-0.836704	0.943564	0.376567
H299	H	-0.503370	1.276898	0.709900
H300	H	-0.170037	1.610231	1.043233
O301	O	-0.989196	0.223598	0.538831
O302	O	-0.655862	0.556931	0.872164
O303	O	-0.322529	0.890264	1.205497
C304	C	-1.024763	0.188058	0.581970
C305	C	-0.691429	0.521391	0.915304
C306	C	-0.358096	0.854724	1.248637
H307	H	-0.998982	0.185870	0.628815
H308	H	-0.665649	0.519203	0.962148
H309	H	-0.332315	0.852536	1.295481
H310	H	-1.031508	0.138464	0.562985
H311	H	-0.698174	0.471798	0.896319
H312	H	-0.364841	0.805131	1.229652
H313	H	-1.072557	0.211099	0.588994
H314	H	-0.739224	0.544432	0.922328
H315	H	-0.405891	0.877765	1.255661
H316	H	-0.149942	0.229857	0.230773
H317	H	0.183392	0.563191	0.564106
H318	H	0.516725	0.896524	0.897440
O319	O	-0.989090	0.223550	0.668366
O320	O	-0.655757	0.556883	1.001699
O321	O	-0.322424	0.890216	1.335033
C322	C	-0.953285	0.182895	0.706385
C323	C	-0.619951	0.516229	1.039719
C324	C	-0.286618	0.849562	1.373052
H325	H	-0.903709	0.179012	0.686537
H326	H	-0.570375	0.512346	1.019871
H327	H	-0.237042	0.845679	1.353204
H328	H	-0.976090	0.134450	0.707156
H329	H	-0.642757	0.467784	1.040490
H330	H	-0.309423	0.801117	1.373823
H331	H	-0.951102	0.202348	0.756205
H332	H	-0.617769	0.535681	1.089538
H333	H	-0.284435	0.869015	1.422871
O334	O	-0.274424	0.382584	0.382754
O335	O	0.058910	0.715918	0.716087
O336	O	0.392243	1.049251	1.049420
C337	C	-0.312380	0.423190	0.346828
C338	C	0.020954	0.756523	0.680162
C339	C	0.354287	1.089856	1.013495
H340	H	-0.292508	0.427002	0.297250
H341	H	0.040825	0.760336	0.630583
H342	H	0.374158	1.093669	0.963916
H343	H	-0.313100	0.471667	0.369508
H344	H	0.020233	0.805000	0.702841
H345	H	0.353566	1.138333	1.036174
H346	H	-0.362222	0.403735	0.344677
H347	H	-0.028889	0.737069	0.678010
H348	H	0.304445	1.070402	1.011344
H349	H	-0.269209	0.229884	0.230726
H350	H	0.064124	0.563217	0.564059
H351	H	0.397457	0.896550	0.897392
O352	O	-0.545727	0.382627	0.382767
O353	O	-0.212394	0.715960	0.716100
O354	O	0.120939	1.049294	1.049433
C355	C	-0.588838	0.418211	0.418231
C356	C	-0.255505	0.751544	0.751564
C357	C	0.077829	1.084877	1.084898
H358	H	-0.635670	0.420366	0.392428
H359	H	-0.302337	0.753699	0.725761
H360	H	0.030997	1.087033	1.059095
H361	H	-0.569797	0.467812	0.424862
H362	H	-0.236464	0.801146	0.758196
H363	H	0.096870	1.134479	1.091529
H364	H	-0.595907	0.395229	0.466079
H365	H	-0.262573	0.728563	0.799413
H366	H	0.070760	1.061896	1.132746
O367	O	-0.675289	0.223713	0.224239
O368	O	-0.341955	0.557046	0.557572
O369	O	-0.008622	0.890380	0.890905
C370	C	-0.713220	0.259503	0.183490
C371	C	-0.379886	0.592836	0.516824
C372	C	-0.046553	0.926170	0.850157
H373	H	-0.723042	0.307243	0.205600
H374	H	-0.389709	0.640576	0.538934
H375	H	-0.056376	0.973910	0.872267
H376	H	-0.759467	0.233862	0.175084
H377	H	-0.426134	0.567195	0.508418
H378	H	-0.092800	0.900529	0.841751
H379	H	-0.687823	0.266344	0.136837
H380	H	-0.354490	0.599678	0.470171
H381	H	-0.021156	0.933011	0.803504
H382	H	-0.836680	0.375898	1.063891
H383	H	-0.503346	0.709231	1.397224
H384	H	-0.170013	1.042565	1.730558
O385	O	-0.144890	0.382548	0.382910
O386	O	0.188443	0.715881	0.716244
O387	O	0.521776	1.049214	1.049577
C388	C	-0.188004	0.418135	0.418367
C389	C	0.145329	0.751469	0.751700
C390	C	0.478662	1.084802	1.085034
H391	H	-0.234836	0.420283	0.392562
H392	H	0.098497	0.753617	0.725895
H393	H	0.431831	1.086950	1.059228
H394	H	-0.168967	0.467739	0.424990
H395	H	0.164367	0.801073	0.758324
H396	H	0.497700	1.134406	1.091657
H397	H	-0.195074	0.395162	0.466219
H398	H	0.138260	0.728495	0.799552
H399	H	0.471593	1.061829	1.132886
O400	O	-0.989086	0.537559	0.224259
O401	O	-0.655752	0.870893	0.557592
O402	O	-0.322419	1.204226	0.890926
C403	C	-1.024639	0.580649	0.188768
C404	C	-0.691305	0.913982	0.522101
C405	C	-0.357972	1.247315	0.855435
H406	H	-1.026818	0.627496	0.214561
H407	H	-0.693485	0.960829	0.547895
H408	H	-0.360151	1.294162	0.881228
H409	H	-1.074234	0.561603	0.182115
H410	H	-0.740901	0.894936	0.515448
H411	H	-0.407567	1.228270	0.848782
H412	H	-1.001615	0.587691	0.140930
H413	H	-0.668281	0.921024	0.474264
H414	H	-0.334948	1.254357	0.807597
H415	H	-0.982746	0.661899	0.230619
H416	H	-0.649412	0.995233	0.563952
H417	H	-0.316079	1.328566	0.897285
H418	H	-0.836663	0.376078	0.543782
H419	H	-0.503330	0.709411	0.877116
H420	H	-0.169996	1.042745	1.210449
H421	H	-0.836602	0.661996	0.376516
H422	H	-0.503268	0.995329	0.709850
H423	H	-0.169935	1.328662	1.043183
