data_functionalizedCrystal
_audit_creation_method	'MofGen! by Chris Wilmer'
_symmetry_space_group_name_H-M	'P1'
_symmetry_Int_Tables_number	1
_symmetry_cell_setting	triclinic
loop_
_symmetry_equiv_pos_as_xyz
  x,y,z
_cell_length_a	19.288862
_cell_length_b	14.586319
_cell_length_c	19.288865
_cell_angle_alpha	90.009016
_cell_angle_beta	96.864237
_cell_angle_gamma	89.979846
loop_
_atom_site_label
_atom_site_type_symbol
_atom_site_fract_x
_atom_site_fract_y
_atom_site_fract_z
O1	O	-0.921348	0.076604	0.086639
O2	O	-0.671348	0.326604	0.336639
O3	O	-0.421348	0.576604	0.586639
O4	O	-0.171348	0.826604	0.836639
O5	O	-0.719088	0.076530	0.098329
O6	O	-0.469088	0.326530	0.348329
O7	O	-0.219088	0.576530	0.598329
O8	O	0.030912	0.826530	0.848329
O9	O	-0.826062	0.076551	-0.008646
O10	O	-0.576062	0.326551	0.241354
O11	O	-0.326062	0.576551	0.491354
O12	O	-0.076062	0.826551	0.741354
O13	O	-0.814374	0.076583	0.193615
O14	O	-0.564374	0.326583	0.443615
O15	O	-0.314374	0.576583	0.693615
O16	O	-0.064374	0.826583	0.943615
O17	O	-0.826055	-0.075930	-0.008648
O18	O	-0.576055	0.174070	0.241352
O19	O	-0.326055	0.424070	0.491352
O20	O	-0.076055	0.674070	0.741352
O21	O	-0.719080	-0.075951	0.098328
O22	O	-0.469080	0.174049	0.348328
O23	O	-0.219080	0.424049	0.598328
O24	O	0.030920	0.674049	0.848328
O25	O	-0.921341	-0.075876	0.086637
O26	O	-0.671341	0.174124	0.336637
O27	O	-0.421341	0.424124	0.586637
O28	O	-0.171341	0.674124	0.836637
Cu29	Cu	-0.820210	-0.089836	0.092483
Cu30	Cu	-0.570210	0.160164	0.342483
Cu31	Cu	-0.320210	0.410164	0.592483
Cu32	Cu	-0.070210	0.660164	0.842483
Cu33	Cu	-0.820219	0.090490	0.092484
Cu34	Cu	-0.570219	0.340490	0.342484
Cu35	Cu	-0.320219	0.590490	0.592484
Cu36	Cu	-0.070219	0.840490	0.842484
O37	O	-0.814366	-0.075898	0.193613
O38	O	-0.564366	0.174102	0.443613
O39	O	-0.314366	0.424102	0.693613
O40	O	-0.064366	0.674102	0.943613
C41	C	-0.693207	0.000280	0.097953
C42	C	-0.443207	0.250280	0.347953
C43	C	-0.193207	0.500280	0.597953
C44	C	0.056793	0.750280	0.847953
C45	C	-0.616104	0.000251	0.096824
C46	C	-0.366104	0.250251	0.346824
C47	C	-0.116104	0.500251	0.596824
C48	C	0.133896	0.750251	0.846824
N49	N	-0.820209	-0.216668	0.092481
N50	N	-0.570209	0.033332	0.342481
N51	N	-0.320209	0.283332	0.592481
N52	N	-0.070209	0.533332	0.842481
C53	C	-0.571407	0.000272	0.159593
C54	C	-0.321407	0.250272	0.409593
C55	C	-0.071407	0.500272	0.659593
C56	C	0.178593	0.750272	0.909593
C57	C	-0.498960	0.000278	0.158533
C58	C	-0.248960	0.250278	0.408533
C59	C	0.001040	0.500278	0.658533
C60	C	0.251040	0.750278	0.908533
C61	C	-0.471213	0.000280	0.094701
C62	C	-0.221213	0.250280	0.344701
C63	C	0.028787	0.500280	0.594701
C64	C	0.278787	0.750280	0.844701
C65	C	-0.515919	0.000253	0.031924
C66	C	-0.265919	0.250253	0.281924
C67	C	-0.015919	0.500253	0.531924
C68	C	0.234081	0.750253	0.781924
C69	C	-0.588364	0.000238	0.032986
C70	C	-0.338364	0.250238	0.282986
C71	C	-0.088364	0.500238	0.532986
C72	C	0.161636	0.750238	0.782986
C73	C	-0.362953	0.053716	0.044523
C74	C	-0.112953	0.303716	0.294523
C75	C	0.137047	0.553716	0.544523
C76	C	0.387047	0.803716	0.794523
C77	C	-0.290509	0.053736	0.043464
C78	C	-0.040509	0.303736	0.293464
C79	C	0.209491	0.553736	0.543464
C80	C	0.459491	0.803736	0.793464
C81	C	-0.247767	0.000320	0.091423
C82	C	0.002233	0.250320	0.341423
C83	C	0.252233	0.500320	0.591423
C84	C	0.502233	0.750320	0.841423
C85	C	-0.277477	-0.053104	0.140453
C86	C	-0.027477	0.196896	0.390453
C87	C	0.222523	0.446896	0.640453
C88	C	0.472523	0.696896	0.890453
C89	C	-0.349923	-0.053119	0.141515
C90	C	-0.099923	0.196881	0.391515
C91	C	0.150077	0.446881	0.641515
C92	C	0.400077	0.696881	0.891515
C93	C	-0.392659	0.000295	0.093542
C94	C	-0.142659	0.250295	0.343542
C95	C	0.107341	0.500295	0.593542
C96	C	0.357341	0.750295	0.843542
C97	C	-0.124514	0.000346	0.153046
C98	C	0.125486	0.250346	0.403046
C99	C	0.375486	0.500346	0.653046
C100	C	0.625486	0.750346	0.903046
C101	C	-0.052066	0.000346	0.151983
C102	C	0.197934	0.250346	0.401983
C103	C	0.447934	0.500346	0.651983
C104	C	0.697934	0.750346	0.901983
C105	C	-0.069026	0.000330	0.025373
C106	C	0.180974	0.250330	0.275373
C107	C	0.430974	0.500330	0.525373
C108	C	0.680974	0.750330	0.775373
C109	C	-0.141473	0.000321	0.026438
C110	C	0.108527	0.250321	0.276438
C111	C	0.358527	0.500321	0.526438
C112	C	0.608527	0.750321	0.776438
C113	C	-0.169212	0.000334	0.090276
C114	C	0.080788	0.250334	0.340276
C115	C	0.330788	0.500334	0.590276
C116	C	0.580788	0.750334	0.840276
C117	C	-0.867593	-0.451665	0.045128
C118	C	-0.617593	-0.201665	0.295128
C119	C	-0.367593	0.048335	0.545128
C120	C	-0.117593	0.298335	0.795128
C121	C	-0.867595	-0.547646	0.045126
C122	C	-0.617595	-0.297646	0.295126
C123	C	-0.367595	-0.047646	0.545126
C124	C	-0.117595	0.202354	0.795126
C125	C	-0.772836	-0.547675	0.139836
C126	C	-0.522836	-0.297675	0.389836
C127	C	-0.272836	-0.047675	0.639836
C128	C	-0.022836	0.202325	0.889836
C129	C	-0.772831	-0.451695	0.139834
C130	C	-0.522831	-0.201695	0.389834
C131	C	-0.272831	0.048305	0.639834
C132	C	-0.022831	0.298305	0.889834
C133	C	-0.820214	-0.403693	0.092480
C134	C	-0.570214	-0.153693	0.342480
C135	C	-0.320214	0.096307	0.592480
C136	C	-0.070214	0.346307	0.842480
C137	C	-0.820220	-0.595654	0.092481
C138	C	-0.570220	-0.345654	0.342481
C139	C	-0.320220	-0.095654	0.592481
C140	C	-0.070220	0.154346	0.842481
C141	C	-0.820222	-0.699721	0.092479
C142	C	-0.570222	-0.449721	0.342479
C143	C	-0.320222	-0.199721	0.592479
C144	C	-0.070222	0.050279	0.842479
C145	C	-0.820211	-0.299619	0.092481
C146	C	-0.570211	-0.049619	0.342481
C147	C	-0.320211	0.200381	0.592481
C148	C	-0.070211	0.450381	0.842481
C149	C	0.052779	0.000360	0.087016
C150	C	0.302779	0.250360	0.337016
C151	C	0.552779	0.500360	0.587016
C152	C	0.802779	0.750360	0.837016
C153	C	-0.024324	0.000346	0.088151
C154	C	0.225676	0.250346	0.338151
C155	C	0.475676	0.500346	0.588151
C156	C	0.725676	0.750346	0.838151
C157	C	-0.825683	0.000308	-0.034523
C158	C	-0.575683	0.250308	0.215477
C159	C	-0.325683	0.500308	0.465477
C160	C	-0.075683	0.750308	0.715477
C161	C	-0.824554	0.000299	-0.111627
C162	C	-0.574554	0.250299	0.138373
C163	C	-0.324554	0.500299	0.388373
C164	C	-0.074554	0.750299	0.638373
N165	N	-0.820225	0.217322	0.092481
N166	N	-0.570225	0.467322	0.342481
N167	N	-0.320225	0.717322	0.592481
N168	N	-0.070225	0.967322	0.842481
C169	C	-0.887322	0.000318	-0.156324
C170	C	-0.637322	0.250318	0.093676
C171	C	-0.387322	0.500318	0.343676
C172	C	-0.137322	0.750318	0.593676
C173	C	-0.886261	0.000332	-0.228771
C174	C	-0.636261	0.250332	0.021229
C175	C	-0.386261	0.500332	0.271229
C176	C	-0.136261	0.750332	0.521229
C177	C	-0.822429	0.000309	-0.256518
C178	C	-0.572429	0.250309	-0.006518
C179	C	-0.322429	0.500309	0.243482
C180	C	-0.072429	0.750309	0.493482
C181	C	-0.759652	0.000296	-0.211811
C182	C	-0.509652	0.250296	0.038189
C183	C	-0.259652	0.500296	0.288189
C184	C	-0.009652	0.750296	0.538189
C185	C	-0.760715	0.000291	-0.139366
C186	C	-0.510715	0.250291	0.110634
C187	C	-0.260715	0.500291	0.360634
C188	C	-0.010715	0.750291	0.610634
C189	C	-0.772246	-0.053120	-0.364805
C190	C	-0.522246	0.196880	-0.114805
C191	C	-0.272246	0.446880	0.135195
C192	C	-0.022246	0.696880	0.385195
C193	C	-0.771187	-0.053121	-0.437250
C194	C	-0.521187	0.196879	-0.187250
C195	C	-0.271187	0.446879	0.062750
C196	C	-0.021187	0.696879	0.312750
C197	C	-0.819149	0.000329	-0.479963
C198	C	-0.569149	0.250329	-0.229963
C199	C	-0.319149	0.500329	0.020037
C200	C	-0.069149	0.750329	0.270037
C201	C	-0.868183	0.053767	-0.450225
C202	C	-0.618183	0.303767	-0.200225
C203	C	-0.368183	0.553767	0.049775
C204	C	-0.118183	0.803767	0.299775
C205	C	-0.869246	0.053762	-0.377780
C206	C	-0.619246	0.303762	-0.127780
C207	C	-0.369246	0.553762	0.122220
C208	C	-0.119246	0.803762	0.372220
C209	C	-0.821269	0.000315	-0.335072
C210	C	-0.571269	0.250315	-0.085072
C211	C	-0.321269	0.500315	0.164928
C212	C	-0.071269	0.750315	0.414928
C213	C	-0.880771	0.000364	-0.603216
C214	C	-0.630771	0.250364	-0.353216
C215	C	-0.380771	0.500364	-0.103216
C216	C	-0.130771	0.750364	0.146784
C217	C	-0.879708	0.000384	-0.675664
C218	C	-0.629708	0.250384	-0.425664
C219	C	-0.379708	0.500384	-0.175664
C220	C	-0.129708	0.750384	0.074336
C221	C	-0.753098	0.000338	-0.658703
C222	C	-0.503098	0.250338	-0.408703
C223	C	-0.253098	0.500338	-0.158703
C224	C	-0.003098	0.750338	0.091297
C225	C	-0.754163	0.000328	-0.586257
C226	C	-0.504163	0.250328	-0.336257
C227	C	-0.254163	0.500328	-0.086257
C228	C	-0.004163	0.750328	0.163743
C229	C	-0.818001	0.000336	-0.558518
C230	C	-0.568001	0.250336	-0.308518
C231	C	-0.318001	0.500336	-0.058518
C232	C	-0.068001	0.750336	0.191482
C233	C	-0.814746	0.000348	0.219490
C234	C	-0.564746	0.250348	0.469490
C235	C	-0.314746	0.500348	0.719490
C236	C	-0.064746	0.750348	0.969490
C237	C	-0.815875	0.000362	0.296594
C238	C	-0.565875	0.250362	0.546594
C239	C	-0.315875	0.500362	0.796594
C240	C	-0.065875	0.750362	1.046594
H241	H	-0.593988	0.000284	0.211575
H242	H	-0.343988	0.250284	0.461575
H243	H	-0.093988	0.500284	0.711575
H244	H	0.156012	0.750284	0.961575
O245	O	-0.956172	0.000335	-0.126402
O246	O	-0.706172	0.250335	0.123598
O247	O	-0.456172	0.500335	0.373598
O248	O	-0.206172	0.750335	0.623598
H249	H	-0.959683	0.062481	-0.093789
H250	H	-0.709683	0.312481	0.156211
H251	H	-0.459683	0.562481	0.406211
H252	H	-0.209683	0.812481	0.656211
H253	H	-0.937376	0.000351	-0.265170
H254	H	-0.687376	0.250351	-0.015170
H255	H	-0.437376	0.500351	0.234830
H256	H	-0.187376	0.750351	0.484830
H257	H	-0.397748	0.097219	0.005467
H258	H	-0.147748	0.347219	0.255467
H259	H	0.102252	0.597219	0.505467
H260	H	0.352252	0.847219	0.755467
H261	H	-0.734246	-0.412633	0.178394
H262	H	-0.484246	-0.162633	0.428394
H263	H	-0.234246	0.087367	0.678394
H264	H	0.015754	0.337367	0.928394
H265	H	-0.462561	0.000293	0.209648
H266	H	-0.212561	0.250293	0.459648
H267	H	0.037439	0.500293	0.709648
H268	H	0.287439	0.750293	0.959648
O269	O	-0.918680	-0.399880	-0.005953
O270	O	-0.668680	-0.149880	0.244047
O271	O	-0.418680	0.100120	0.494047
O272	O	-0.168680	0.350120	0.744047
H273	H	-0.972803	-0.418265	0.002743
H274	H	-0.722803	-0.168265	0.252743
H275	H	-0.472803	0.081735	0.502743
H276	H	-0.222803	0.331735	0.752743
O277	O	-0.720516	-0.110782	-0.318741
O278	O	-0.470516	0.139218	-0.068741
O279	O	-0.220516	0.389218	0.181259
O280	O	0.029484	0.639218	0.431259
H281	H	-0.688252	-0.065748	-0.281343
H282	H	-0.438252	0.184252	-0.031343
H283	H	-0.188252	0.434252	0.218657
H284	H	0.061748	0.684252	0.468657
H285	H	-0.703050	0.000307	-0.549863
H286	H	-0.453050	0.250307	-0.299863
H287	H	-0.203050	0.500307	-0.049863
H288	H	0.046950	0.750307	0.200137
H289	H	-0.909169	0.097275	-0.353570
H290	H	-0.659169	0.347275	-0.103570
H291	H	-0.409169	0.597275	0.146430
H292	H	-0.159169	0.847275	0.396430
O293	O	-0.684248	0.000306	-0.688620
O294	O	-0.434248	0.250306	-0.438620
O295	O	-0.184248	0.500306	-0.188620
O296	O	0.065752	0.750306	0.061380
H297	H	-0.680738	0.062452	-0.721215
H298	H	-0.430738	0.312452	-0.471215
H299	H	-0.180738	0.562452	-0.221215
H300	H	0.069262	0.812452	0.028785
H301	H	-0.907238	0.097291	-0.485001
H302	H	-0.657238	0.347291	-0.235001
H303	H	-0.407238	0.597291	0.014999
H304	H	-0.157238	0.847291	0.264999
O305	O	-0.485992	0.000255	-0.036922
O306	O	-0.235992	0.250255	0.213078
O307	O	0.014008	0.500255	0.463078
O308	O	0.264008	0.750255	0.713078
H309	H	-0.503932	-0.061908	-0.067068
H310	H	-0.253932	0.188092	0.182932
H311	H	-0.003932	0.438092	0.432932
H312	H	0.246068	0.688092	0.682932
O313	O	-0.039113	0.000326	-0.043478
O314	O	0.210887	0.250326	0.206522
O315	O	0.460887	0.500326	0.456522
O316	O	0.710887	0.750326	0.706522
H317	H	-0.006540	0.062482	-0.046997
H318	H	0.243460	0.312482	0.203003
H319	H	0.493460	0.562482	0.453003
H320	H	0.743460	0.812482	0.703003
O321	O	-0.690806	0.000264	-0.241739
O322	O	-0.440806	0.250264	0.008261
O323	O	-0.190806	0.500264	0.258261
O324	O	0.059194	0.750264	0.508261
H325	H	-0.660660	0.062405	-0.223768
H326	H	-0.410660	0.312405	0.026232
H327	H	-0.160660	0.562405	0.276232
H328	H	0.089340	0.812405	0.526232
H329	H	-0.731257	-0.096628	-0.461456
H330	H	-0.481257	0.153372	-0.211456
H331	H	-0.231257	0.403372	0.038544
H332	H	0.018743	0.653372	0.288544
O333	O	-0.693013	0.000255	-0.091150
O334	O	-0.443013	0.250255	0.158850
O335	O	-0.193013	0.500255	0.408850
O336	O	0.056987	0.750255	0.658850
H337	H	-0.648446	0.000235	-0.122611
H338	H	-0.398446	0.250235	0.127389
H339	H	-0.148446	0.500235	0.377389
H340	H	0.101554	0.750235	0.627389
O341	O	-0.949621	0.000391	-0.573289
O342	O	-0.699621	0.250391	-0.323289
O343	O	-0.449621	0.500391	-0.073289
O344	O	-0.199621	0.750391	0.176711
H345	H	-0.993091	0.000424	-0.616544
H346	H	-0.743091	0.250424	-0.366544
H347	H	-0.493091	0.500424	-0.116544
H348	H	-0.243091	0.750424	0.133456
H349	H	-0.734260	-0.586768	0.178391
H350	H	-0.484260	-0.336768	0.428391
H351	H	-0.234260	-0.086768	0.678391
H352	H	0.015740	0.163232	0.928391
O353	O	-0.947411	0.000396	-0.723879
O354	O	-0.697411	0.250396	-0.473879
O355	O	-0.447411	0.500396	-0.223879
O356	O	-0.197411	0.750396	0.026121
H357	H	-0.991976	0.000390	-0.692416
H358	H	-0.741976	0.250390	-0.442416
H359	H	-0.491976	0.500390	-0.192416
H360	H	-0.241976	0.750390	0.057584
H361	H	-0.906174	-0.586703	0.006566
H362	H	-0.656174	-0.336703	0.256566
H363	H	-0.406174	-0.086703	0.506566
H364	H	-0.156174	0.163297	0.756566
H365	H	-0.374110	-0.096622	0.181435
H366	H	-0.124110	0.153378	0.431435
H367	H	0.125890	0.403378	0.681435
H368	H	0.375890	0.653378	0.931435
H369	H	-0.624757	0.000221	-0.018129
H370	H	-0.374757	0.250221	0.231871
H371	H	-0.124757	0.500221	0.481871
H372	H	0.125243	0.750221	0.731871
H373	H	-0.177866	0.000309	-0.024675
H374	H	0.072134	0.250309	0.225325
H375	H	0.322134	0.500309	0.475325
H376	H	0.572134	0.750309	0.725325
O377	O	-0.258473	0.111347	-0.009425
O378	O	-0.008473	0.361347	0.240575
O379	O	0.241527	0.611347	0.490575
O380	O	0.491527	0.861347	0.740575
H381	H	-0.271453	0.184575	-0.002066
H382	H	-0.021453	0.434575	0.247934
H383	H	0.228547	0.684575	0.497934
H384	H	0.478547	0.934575	0.747934
O385	O	-0.231390	-0.110730	0.192184
O386	O	0.018610	0.139270	0.442184
O387	O	0.268610	0.389270	0.692184
O388	O	0.518610	0.639270	0.942184
H389	H	-0.176024	-0.101758	0.183204
H390	H	0.073976	0.148242	0.433204
H391	H	0.323976	0.398242	0.683204
H392	H	0.573976	0.648242	0.933204
H393	H	-0.147101	0.000343	0.205027
H394	H	0.102899	0.250343	0.455027
H395	H	0.352899	0.500343	0.705027
H396	H	0.602899	0.750343	0.955027
H397	H	-0.015674	0.000358	0.203099
H398	H	0.234326	0.250358	0.453099
H399	H	0.484326	0.500358	0.703099
H400	H	0.734326	0.750358	0.953099
