data_functionalizedCrystal
_audit_creation_method	'MofGen! by Chris Wilmer'
_symmetry_space_group_name_H-M	'P1'
_symmetry_Int_Tables_number	1
_symmetry_cell_setting	triclinic
loop_
_symmetry_equiv_pos_as_xyz
  x,y,z
_cell_length_a	15.944499
_cell_length_b	15.995350
_cell_length_c	14.472310
_cell_angle_alpha	89.998838
_cell_angle_beta	89.991446
_cell_angle_gamma	96.515008
loop_
_atom_site_label
_atom_site_type_symbol
_atom_site_fract_x
_atom_site_fract_y
_atom_site_fract_z
O1	O	1.114556	-0.107777	-0.076740
O2	O	1.364556	0.142223	0.173260
O3	O	1.614556	0.392223	0.423260
O4	O	1.864556	0.642223	0.673260
O5	O	0.870000	-0.121136	-0.076763
O6	O	1.120000	0.128864	0.173237
O7	O	1.370000	0.378864	0.423237
O8	O	1.620000	0.628864	0.673237
O9	O	0.998963	0.007432	-0.076750
O10	O	1.248963	0.257432	0.173250
O11	O	1.498963	0.507432	0.423250
O12	O	1.748963	0.757432	0.673250
O13	O	0.985593	-0.236345	-0.076753
O14	O	1.235593	0.013655	0.173247
O15	O	1.485593	0.263655	0.423247
O16	O	1.735593	0.513655	0.673247
O17	O	0.998930	0.007425	0.076932
O18	O	1.248930	0.257425	0.326932
O19	O	1.498930	0.507425	0.576932
O20	O	1.748930	0.757425	0.826932
O21	O	0.869967	-0.121143	0.076919
O22	O	1.119967	0.128857	0.326919
O23	O	1.369967	0.378857	0.576919
O24	O	1.619967	0.628857	0.826919
O25	O	1.114523	-0.107784	0.076942
O26	O	1.364523	0.142216	0.326942
O27	O	1.614523	0.392216	0.576942
O28	O	1.864523	0.642216	0.826942
Cu29	Cu	0.992242	-0.114464	0.090963
Cu30	Cu	1.242242	0.135536	0.340963
Cu31	Cu	1.492242	0.385536	0.590963
Cu32	Cu	1.742242	0.635536	0.840963
Cu33	Cu	0.992281	-0.114456	-0.090784
Cu34	Cu	1.242281	0.135544	0.159216
Cu35	Cu	1.492281	0.385544	0.409216
Cu36	Cu	1.742281	0.635544	0.659216
O37	O	0.985560	-0.236352	0.076929
O38	O	1.235560	0.013648	0.326929
O39	O	1.485560	0.263648	0.576929
O40	O	1.735560	0.513648	0.826929
C41	C	0.838689	-0.120593	0.000075
C42	C	1.088689	0.129407	0.250075
C43	C	1.338689	0.379407	0.500075
C44	C	1.588689	0.629407	0.750075
C45	C	0.745440	-0.118953	0.000067
C46	C	0.995440	0.131047	0.250067
C47	C	1.245440	0.381047	0.500067
C48	C	1.495440	0.631047	0.750067
C49	C	0.998394	0.038623	0.000089
C50	C	1.248394	0.288623	0.250089
C51	C	1.498394	0.538623	0.500089
C52	C	1.748394	0.788623	0.750089
C53	C	0.996737	0.131573	0.000084
C54	C	1.246737	0.381573	0.250084
C55	C	1.496737	0.631573	0.500084
C56	C	1.746737	0.881573	0.750084
C57	C	1.145834	-0.108327	0.000102
C58	C	1.395834	0.141673	0.250102
C59	C	1.645834	0.391673	0.500102
C60	C	1.895834	0.641673	0.750102
C61	C	1.239082	-0.109967	0.000104
C62	C	1.489082	0.140033	0.250104
C63	C	1.739082	0.390033	0.500104
C64	C	1.989082	0.640033	0.750104
C65	C	1.530623	-0.035272	0.000087
C66	C	1.780623	0.214728	0.250087
C67	C	2.030623	0.464728	0.500087
C68	C	2.280623	0.714728	0.750087
C69	C	1.469604	-0.074097	-0.075687
C70	C	1.719604	0.175903	0.174313
C71	C	1.969604	0.425903	0.424313
C72	C	2.219604	0.675903	0.674313
C73	C	1.574719	-0.115924	0.000078
C74	C	1.824719	0.134076	0.250078
C75	C	2.074719	0.384076	0.500078
C76	C	2.324719	0.634076	0.750078
C77	C	1.469593	-0.074126	0.075831
C78	C	1.719593	0.175874	0.325831
C79	C	1.969593	0.425874	0.575831
C80	C	2.219593	0.675874	0.825831
C81	C	1.409810	-0.112993	0.000092
C82	C	1.659810	0.137007	0.250092
C83	C	1.909810	0.387007	0.500092
C84	C	2.159810	0.637007	0.750092
C85	C	1.514928	-0.154771	-0.075760
C86	C	1.764928	0.095229	0.174240
C87	C	2.014928	0.345229	0.424240
C88	C	2.264928	0.595229	0.674240
C89	C	1.514923	-0.154789	0.075827
C90	C	1.764923	0.095211	0.325827
C91	C	2.014923	0.345211	0.575827
C92	C	2.264923	0.595211	0.825827
C93	C	1.453922	-0.193672	0.000034
C94	C	1.703922	0.056328	0.250034
C95	C	1.953922	0.306328	0.500034
C96	C	2.203922	0.556328	0.750034
C97	C	1.669719	-0.117611	0.000068
C98	C	1.919719	0.132389	0.250068
C99	C	2.169719	0.382389	0.500068
C100	C	2.419719	0.632389	0.750068
C101	C	1.314811	-0.111313	0.000095
C102	C	1.564811	0.138687	0.250095
C103	C	1.814811	0.388687	0.500095
C104	C	2.064811	0.638687	0.750095
C105	C	0.986129	-0.267543	0.000088
C106	C	1.236129	-0.017543	0.250088
C107	C	1.486129	0.232457	0.500088
C108	C	1.736129	0.482457	0.750088
C109	C	0.987786	-0.360493	0.000087
C110	C	1.237786	-0.110493	0.250087
C111	C	1.487786	0.139507	0.500087
C112	C	1.737786	0.389507	0.750087
N113	N	0.992220	-0.114470	0.218794
N114	N	1.242220	0.135530	0.468794
N115	N	1.492220	0.385530	0.718794
N116	N	1.742220	0.635530	0.968794
C117	C	0.990785	0.469320	0.000086
C118	C	1.240785	0.719320	0.250086
C119	C	1.490785	0.969320	0.500086
C120	C	1.740785	1.219320	0.750086
C121	C	0.898940	0.421874	-0.000267
C122	C	1.148940	0.671874	0.249733
C123	C	1.398940	0.921874	0.499733
C124	C	1.648940	1.171874	0.749733
C125	C	0.900598	0.325184	0.000080
C126	C	1.150598	0.575184	0.250080
C127	C	1.400598	0.825184	0.500080
C128	C	1.650598	1.075184	0.750080
C129	C	0.993737	0.301760	0.000085
C130	C	1.243737	0.551760	0.250085
C131	C	1.493737	0.801760	0.500085
C132	C	1.743737	1.051760	0.750085
C133	C	1.039020	0.342839	0.087847
C134	C	1.289020	0.592839	0.337847
C135	C	1.539020	0.842839	0.587847
C136	C	1.789020	1.092839	0.837847
C137	C	1.036713	0.439474	0.087920
C138	C	1.286713	0.689474	0.337920
C139	C	1.536713	0.939474	0.587920
C140	C	1.786713	1.189474	0.837920
C141	C	1.038648	0.439841	-0.086845
C142	C	1.288648	0.689841	0.163155
C143	C	1.538648	0.939841	0.413155
C144	C	1.788648	1.189841	0.663155
C145	C	1.038626	0.342896	-0.088005
C146	C	1.288626	0.592896	0.161995
C147	C	1.538626	0.842896	0.411995
C148	C	1.788626	1.092896	0.661995
C149	C	0.995411	0.207063	0.000087
C150	C	1.245411	0.457063	0.250087
C151	C	1.495411	0.707063	0.500087
C152	C	1.745411	0.957063	0.750087
C153	C	0.989115	0.564018	0.000090
C154	C	1.239115	0.814018	0.250090
C155	C	1.489115	1.064018	0.500090
C156	C	1.739115	1.314018	0.750090
N157	N	0.992309	-0.114443	-0.218615
N158	N	1.242309	0.135557	0.031385
N159	N	1.492309	0.385557	0.281385
N160	N	1.742309	0.635557	0.531385
C161	C	0.992280	-0.114452	0.592885
C162	C	1.242280	0.135548	0.842885
C163	C	1.492280	0.385548	1.092885
C164	C	1.742280	0.635548	1.342885
C165	C	0.923043	-0.183016	0.553712
C166	C	1.173043	0.066984	0.803712
C167	C	1.423043	0.316984	1.053712
C168	C	1.673043	0.566984	1.303712
C169	C	0.923202	-0.183266	0.446624
C170	C	1.173202	0.066734	0.696624
C171	C	1.423202	0.316734	0.946624
C172	C	1.673202	0.566734	1.196624
C173	C	0.992250	-0.114461	0.407294
C174	C	1.242250	0.135539	0.657294
C175	C	1.492250	0.385539	0.907294
C176	C	1.742250	0.635539	1.157294
C177	C	1.079894	-0.133532	0.446139
C178	C	1.329894	0.116468	0.696139
C179	C	1.579894	0.366468	0.946139
C180	C	1.829894	0.616468	1.196139
C181	C	1.079505	-0.134019	0.553260
C182	C	1.329505	0.115981	0.803260
C183	C	1.579505	0.365981	1.053260
C184	C	1.829505	0.615981	1.303260
C185	C	0.974654	-0.026615	0.553413
C186	C	1.224654	0.223385	0.803413
C187	C	1.474654	0.473385	1.053413
C188	C	1.724654	0.723385	1.303413
C189	C	0.972644	-0.027201	0.446286
C190	C	1.222644	0.222799	0.696286
C191	C	1.472644	0.472799	0.946286
C192	C	1.722644	0.722799	1.196286
C193	C	0.992238	-0.114465	0.302406
C194	C	1.242238	0.135535	0.552406
C195	C	1.492238	0.385535	0.802406
C196	C	1.742238	0.635535	1.052406
C197	C	0.992297	-0.114451	0.697773
C198	C	1.242297	0.135549	0.947773
C199	C	1.492297	0.385549	1.197773
C200	C	1.742297	0.635549	1.447773
H201	H	1.563983	0.031650	-0.000004
H202	H	1.813983	0.281650	0.249996
H203	H	2.063983	0.531650	0.499996
H204	H	2.313983	0.781650	0.749996
H205	H	0.857684	-0.171842	0.579494
H206	H	1.107684	0.078158	0.829494
H207	H	1.357684	0.328158	1.079494
H208	H	1.607684	0.578158	1.329494
H209	H	1.132647	-0.084921	0.420661
H210	H	1.382647	0.165079	0.670661
H211	H	1.632647	0.415079	0.920661
H212	H	1.882647	0.665079	1.170661
H213	H	1.019798	0.026210	0.419516
H214	H	1.269798	0.276210	0.669516
H215	H	1.519798	0.526210	0.919516
H216	H	1.769798	0.776210	1.169516
F217	F	1.099805	-0.217748	0.585909
F218	F	1.349805	0.032252	0.835909
F219	F	1.599805	0.282252	1.085909
F220	F	1.849805	0.532252	1.335909
H221	H	0.934143	-0.247832	0.580622
H222	H	1.184143	0.002168	0.830622
H223	H	1.434143	0.252168	1.080622
H224	H	1.684143	0.502168	1.330622
H225	H	1.005519	0.315646	-0.152929
H226	H	1.255519	0.565646	0.097071
H227	H	1.505519	0.815646	0.347071
H228	H	1.755519	1.065646	0.597071
F229	F	1.443357	-0.029506	-0.159420
F230	F	1.693357	0.220494	0.090580
F231	F	1.943357	0.470494	0.340580
F232	F	2.193357	0.720494	0.590580
H233	H	1.534915	-0.188854	-0.139891
H234	H	1.784915	0.061146	0.110109
H235	H	2.034915	0.311146	0.360109
H236	H	2.284915	0.561146	0.610109
H237	H	1.132636	-0.086049	0.579172
H238	H	1.382636	0.163951	0.829172
H239	H	1.632636	0.413951	1.079172
H240	H	1.882636	0.663951	1.329172
H241	H	1.095797	-0.196860	0.419303
H242	H	1.345797	0.053140	0.669303
H243	H	1.595797	0.303140	0.919303
H244	H	1.845797	0.553140	1.169303
H245	H	1.106549	0.327543	-0.093300
H246	H	1.356549	0.577543	0.156700
H247	H	1.606549	0.827543	0.406700
H248	H	1.856549	1.077543	0.656700
H249	H	1.106365	0.471611	-0.087431
H250	H	1.356365	0.721611	0.162569
H251	H	1.606365	0.971611	0.412569
H252	H	1.856365	1.221611	0.662569
H253	H	1.420736	-0.260663	-0.000011
H254	H	1.670736	-0.010663	0.249989
H255	H	1.920736	0.239337	0.499989
H256	H	2.170736	0.489337	0.749989
H257	H	1.535026	-0.188878	0.139890
H258	H	1.785026	0.061122	0.389890
H259	H	2.035026	0.311122	0.639890
H260	H	2.285026	0.561122	0.889890
H261	H	0.864735	0.297312	0.063092
H262	H	1.114735	0.547312	0.313092
H263	H	1.364735	0.797312	0.563092
H264	H	1.614735	1.047312	0.813092
F265	F	1.443341	-0.029527	0.159563
F266	F	1.693341	0.220473	0.409563
F267	F	1.943341	0.470473	0.659563
F268	F	2.193341	0.720473	0.909563
F269	F	0.854071	0.288030	-0.082150
F270	F	1.104071	0.538030	0.167850
F271	F	1.354071	0.788030	0.417850
F272	F	1.604071	1.038030	0.667850
F273	F	0.892918	-0.002655	0.588759
F274	F	1.142918	0.247345	0.838759
F275	F	1.392918	0.497345	1.088759
F276	F	1.642918	0.747345	1.338759
F277	F	0.851030	0.447756	0.081304
F278	F	1.101030	0.697756	0.331304
F279	F	1.351030	0.947756	0.581304
F280	F	1.601030	1.197756	0.831304
H281	H	0.862244	0.440404	-0.063203
H282	H	1.112244	0.690404	0.186797
H283	H	1.362244	0.940404	0.436797
H284	H	1.612244	1.190404	0.686797
F285	F	0.888374	-0.008282	0.413104
F286	F	1.138374	0.241718	0.663104
F287	F	1.388374	0.491718	0.913104
F288	F	1.638374	0.741718	1.163104
H289	H	1.003665	0.457768	0.153521
H290	H	1.253665	0.707768	0.403521
H291	H	1.503665	0.957768	0.653521
H292	H	1.753665	1.207768	0.903521
H293	H	1.107446	0.328722	0.091114
H294	H	1.357446	0.578722	0.341114
H295	H	1.607446	0.828722	0.591114
H296	H	1.857446	1.078722	0.841114
H297	H	1.025146	0.024408	0.578745
H298	H	1.275146	0.274408	0.828745
H299	H	1.525146	0.524408	1.078745
H300	H	1.775146	0.774408	1.328745
F301	F	1.124847	0.481639	0.093139
F302	F	1.374847	0.731639	0.343139
F303	F	1.624847	0.981639	0.593139
F304	F	1.874847	1.231639	0.843139
H305	H	1.007542	0.314450	0.153153
H306	H	1.257542	0.564450	0.403153
H307	H	1.507542	0.814450	0.653153
H308	H	1.757542	1.064450	0.903153
H309	H	0.858055	-0.171905	0.420362
H310	H	1.108055	0.078095	0.670362
H311	H	1.358055	0.328095	0.920362
H312	H	1.608055	0.578095	1.170362
H313	H	1.008633	0.460380	-0.153363
H314	H	1.258633	0.710380	0.096637
H315	H	1.508633	0.960380	0.346637
H316	H	1.758633	1.210380	0.596637
H317	H	0.934458	-0.248449	0.420991
H318	H	1.184458	0.001551	0.670991
H319	H	1.434458	0.251551	0.920991
H320	H	1.684458	0.501551	1.170991
