data_functionalizedCrystal
_audit_creation_method	'MofGen! by Chris Wilmer'
_symmetry_space_group_name_H-M	'P1'
_symmetry_Int_Tables_number	1
_symmetry_cell_setting	triclinic
loop_
_symmetry_equiv_pos_as_xyz
  x,y,z
_cell_length_a	13.897449
_cell_length_b	19.120786
_cell_length_c	13.897441
_cell_angle_alpha	92.474365
_cell_angle_beta	90.020733
_cell_angle_gamma	92.466448
loop_
_atom_site_label
_atom_site_type_symbol
_atom_site_fract_x
_atom_site_fract_y
_atom_site_fract_z
Zn1	Zn	1.458270	-0.279585	0.528973
Zn2	Zn	1.958270	0.220415	1.028973
Zn3	Zn	1.451260	-0.397056	0.360781
Zn4	Zn	1.951260	0.102944	0.860781
Zn5	Zn	1.296957	-0.279618	0.367690
Zn6	Zn	1.796957	0.220382	0.867690
Zn7	Zn	1.290039	-0.397010	0.522036
Zn8	Zn	1.790039	0.102990	1.022036
O9	O	1.374131	-0.338317	0.444870
O10	O	1.874131	0.161683	0.944870
O11	O	1.592321	-0.295173	0.506674
O12	O	2.092321	0.204827	1.006674
O13	O	1.430752	-0.381511	0.226714
O14	O	1.930752	0.118489	0.726714
O15	O	1.324185	-0.181323	0.394879
O16	O	1.824185	0.318677	0.894879
O17	O	1.587171	-0.381479	0.383104
O18	O	2.087171	0.118521	0.883104
O19	O	1.442701	-0.181299	0.513373
O20	O	1.942701	0.318701	1.013373
O21	O	1.317387	-0.295230	0.231790
O22	O	1.817387	0.204770	0.731790
O23	O	1.161058	-0.295185	0.388152
O24	O	1.661058	0.204815	0.888152
O25	O	1.312394	-0.381400	0.657940
O26	O	1.812394	0.118600	1.157940
O27	O	1.155975	-0.381432	0.501550
O28	O	1.655975	0.118568	1.001550
O29	O	1.435992	-0.295128	0.663037
O30	O	1.935992	0.204872	1.163037
O31	O	1.424044	-0.495341	0.376377
O32	O	1.924044	0.004659	0.876377
O33	O	1.305596	-0.495307	0.494850
O34	O	1.805596	0.004693	0.994850
C35	C	1.123518	-0.338308	0.444848
C36	C	1.623518	0.161692	0.944848
C37	C	1.016303	-0.338321	0.444861
C38	C	1.516303	0.161679	0.944861
C39	C	0.820008	-0.338323	0.444886
C40	C	1.320008	0.161677	0.944886
C41	C	0.929240	-0.338320	0.444870
C42	C	1.429240	0.161680	0.944870
C43	C	1.363335	-0.520809	0.434132
C44	C	1.863335	-0.020809	0.934132
C45	C	1.358805	-0.598880	0.429571
C46	C	1.858805	-0.098880	0.929571
C47	C	1.418335	-0.635485	0.489172
C48	C	1.918335	-0.135485	0.989172
C49	C	1.414074	-0.708841	0.484887
C50	C	1.914074	-0.208841	0.984887
C51	C	1.350287	-0.745591	0.420997
C52	C	1.850287	-0.245591	0.920997
C53	C	1.290750	-0.708981	0.361394
C54	C	1.790750	-0.208981	0.861394
C55	C	1.295007	-0.635626	0.365683
C56	C	1.795007	-0.135626	0.865683
C57	C	1.334346	-0.967078	0.404960
C58	C	1.834346	-0.467078	0.904960
C59	C	1.330096	-1.040437	0.400673
C60	C	1.830096	-0.540437	0.900673
C61	C	1.453419	-1.040292	0.524168
C62	C	1.953419	-0.540292	1.024168
C63	C	1.457674	-0.966936	0.528448
C64	C	1.957674	-0.466936	1.028448
C65	C	1.398134	-0.930333	0.468849
C66	C	1.898134	-0.430333	0.968849
C67	C	1.345933	-0.820572	0.416614
C68	C	1.845933	-0.320572	0.916614
C69	C	1.402484	-0.855353	0.473237
C70	C	1.902484	-0.355353	0.973237
C71	C	1.625724	-0.338327	0.444892
C72	C	2.125724	0.161673	0.944892
C73	C	1.732937	-0.338332	0.444901
C74	C	2.232937	0.161668	0.944901
C75	C	1.374203	-0.338255	0.696467
C76	C	1.874203	0.161745	1.196467
C77	C	1.374234	-0.338229	0.803682
C78	C	1.874234	0.161771	1.303682
C79	C	1.384996	-0.155113	0.455671
C80	C	1.884996	0.344887	0.955671
C81	C	1.389626	-0.077042	0.460273
C82	C	1.889626	0.422958	0.960273
C83	C	1.374118	-0.338329	0.194255
C84	C	1.874118	0.161671	0.694255
C85	C	1.374286	-0.338157	0.087052
C86	C	1.874286	0.161843	0.587052
C87	C	1.374263	-0.338181	0.999980
C88	C	1.874263	0.161819	1.499980
C89	C	1.374244	-0.338210	0.890746
C90	C	1.874244	0.161790	1.390746
H91	H	1.470281	-0.605568	0.541194
H92	H	1.970281	-0.105568	1.041194
H93	H	1.238809	-0.738908	0.309376
H94	H	1.738809	-0.238908	0.809376
C95	C	1.536435	-0.701329	0.607351
C96	C	2.036435	-0.201329	1.107351
C97	C	1.479533	-0.749076	0.550382
C98	C	1.979533	-0.249076	1.050382
H99	H	1.576856	-0.726170	0.647776
H100	H	2.076856	-0.226170	1.147776
H101	H	1.496057	-0.672734	0.645897
H102	H	1.996057	-0.172734	1.145897
H103	H	1.574993	-0.672709	0.567010
H104	H	2.074993	-0.172709	1.067010
H105	H	1.440969	-0.777693	0.590722
H106	H	1.940969	-0.277693	1.090722
H107	H	1.519916	-0.777684	0.511831
H108	H	2.019916	-0.277684	1.011831
H109	H	1.246530	-0.605823	0.317151
H110	H	1.746530	-0.105823	0.817151
C111	C	1.592203	-0.884351	0.546791
C112	C	2.092203	-0.384351	1.046791
C113	C	1.527787	-0.926539	0.598680
C114	C	2.027787	-0.426539	1.098680
H115	H	1.635491	-0.859415	0.590149
H116	H	2.135491	-0.359415	1.090149
H117	H	1.557354	-0.852059	0.511914
H118	H	2.057354	-0.352059	1.011914
H119	H	1.627460	-0.912974	0.503131
H120	H	2.127460	-0.412974	1.003131
H121	H	1.492524	-0.897916	0.642335
H122	H	1.992524	-0.397916	1.142335
H123	H	1.562639	-0.958836	0.633573
H124	H	2.062639	-0.458836	1.133573
C125	C	1.211414	-0.903166	0.398260
C126	C	1.711414	-0.403166	0.898260
C127	C	1.275829	-0.860974	0.346378
C128	C	1.775829	-0.360974	0.846378
H129	H	1.168141	-0.928113	0.354898
H130	H	1.668141	-0.428113	0.854898
H131	H	1.176147	-0.874552	0.441907
H132	H	1.676147	-0.374552	0.941907
H133	H	1.246271	-0.935457	0.433149
H134	H	1.746271	-0.435457	0.933149
H135	H	1.240972	-0.828680	0.311494
H136	H	1.740972	-0.328680	0.811494
H137	H	1.311100	-0.889591	0.302713
H138	H	1.811100	-0.389591	0.802713
C139	C	1.501648	-1.152675	0.572436
C140	C	2.001648	-0.652675	1.072436
C141	C	1.518854	-1.080528	0.589687
C142	C	2.018854	-0.580528	1.089687
H143	H	1.542042	-1.177513	0.612894
H144	H	2.042042	-0.677513	1.112894
H145	H	1.515108	-1.164717	0.506944
H146	H	2.015108	-0.664717	1.006944
H147	H	1.436128	-1.164723	0.585789
H148	H	1.936128	-0.664723	1.085789
H149	H	1.584373	-1.068479	0.576327
H150	H	2.084373	-0.568479	1.076327
H151	H	1.505401	-1.068481	0.655194
H152	H	2.005401	-0.568481	1.155194
C153	C	1.208601	-1.033217	0.279043
C154	C	1.708601	-0.533217	0.779043
C155	C	1.259968	-1.080834	0.330446
C156	C	1.759968	-0.580834	0.830446
H157	H	1.165308	-1.058158	0.235695
H158	H	1.665308	-0.558158	0.735695
H159	H	1.252301	-1.004598	0.243853
H160	H	1.752301	-0.504598	0.743853
H161	H	1.173346	-1.004608	0.322723
H162	H	1.673346	-0.504608	0.822723
H163	H	1.295229	-1.109440	0.286766
H164	H	1.795229	-0.609440	0.786766
H165	H	1.216263	-1.109465	0.365638
H166	H	1.716263	-0.609465	0.865638
H167	H	1.285867	-0.937281	0.356430
H168	H	1.785867	-0.437281	0.856430
H169	H	1.454416	-0.825429	0.525260
H170	H	1.954416	-0.325429	1.025260
