data_functionalizedCrystal
_audit_creation_method	'MofGen! by Chris Wilmer'
_symmetry_space_group_name_H-M	'P1'
_symmetry_Int_Tables_number	1
_symmetry_cell_setting	triclinic
loop_
_symmetry_equiv_pos_as_xyz
  x,y,z
_cell_length_a	14.560438
_cell_length_b	20.875641
_cell_length_c	20.875641
_cell_angle_alpha	60.089808
_cell_angle_beta	90.002779
_cell_angle_gamma	62.441314
loop_
_atom_site_label
_atom_site_type_symbol
_atom_site_fract_x
_atom_site_fract_y
_atom_site_fract_z
Zr1	Zr	0.926794	0.694359	-0.105761
O2	O	0.792203	0.820597	-0.209026
O3	O	0.963017	0.563104	-0.070829
O4	O	0.976543	0.687128	-0.204301
O5	O	0.773738	0.704027	0.026005
O6	O	1.127681	0.687129	-0.204299
O7	O	0.778678	0.696574	-0.075554
O8	O	1.103487	0.465274	0.034458
O9	O	0.797932	0.925883	-0.212752
O10	O	1.097343	0.618950	-0.059887
O11	O	0.980863	0.624511	0.015904
O12	O	0.996787	0.770533	-0.141242
O13	O	0.880307	0.776094	-0.065451
Zr14	Zr	1.159962	0.706249	0.056217
Zr15	Zr	1.167842	0.694362	-0.105758
Zr16	Zr	0.918914	0.706246	0.056214
Zr17	Zr	0.935930	0.862277	-0.111703
Zr18	Zr	1.150826	0.538331	0.062159
O19	O	1.123739	0.837504	0.021285
O20	O	1.134943	0.820602	-0.209023
O21	O	0.781000	0.837499	0.021281
O22	O	1.294553	0.580011	0.159482
O23	O	1.305757	0.563108	-0.070825
O24	O	0.951813	0.580006	0.159479
O25	O	1.313019	0.696581	-0.075549
O26	O	1.110214	0.713480	0.154757
O27	O	0.959075	0.713478	0.154755
O28	O	1.308078	0.704034	0.026010
O29	O	0.989533	0.925885	-0.212750
O30	O	1.097223	0.474723	0.163206
O31	O	1.288824	0.474725	0.163208
O32	O	1.295088	0.465277	0.034460
O33	O	0.791668	0.935331	-0.084004
O34	O	0.983270	0.935334	-0.084002
O35	O	1.089969	0.630075	0.091698
O36	O	1.206449	0.624514	0.015906
O37	O	1.105893	0.776097	-0.065448
O38	O	0.989413	0.781658	0.010343
C39	C	1.031950	0.490264	-0.017339
C40	C	1.028072	0.418979	-0.014816
C41	C	0.741864	0.700300	-0.024775
C42	C	0.639532	0.700299	-0.024776
C43	C	1.087048	0.382586	-0.053193
C44	C	1.083406	0.315602	-0.050816
C45	C	1.020781	0.285015	-0.010065
C46	C	0.961803	0.321411	0.028317
C47	C	0.965452	0.388390	0.025943
C48	C	1.003355	0.085004	0.001280
C49	C	0.999708	0.018022	0.003649
C50	C	1.121313	0.012216	-0.075483
C51	C	1.124951	0.079200	-0.077856
C52	C	1.065978	0.115587	-0.039471
N53	N	1.017054	0.216548	-0.007636
N54	N	1.069711	0.184048	-0.041896
C55	C	0.643943	0.621176	0.017690
C56	C	0.547788	0.621181	0.017696
C57	C	0.442816	0.779438	-0.067236
C58	C	0.538969	0.779433	-0.067237
C59	C	0.744506	0.542042	0.060151
C60	C	0.748921	0.462912	0.102620
C61	C	0.652766	0.462917	0.102626
C62	C	0.552196	0.542051	0.060164
C63	C	1.344892	0.700308	-0.024769
C64	C	1.447224	0.700309	-0.024768
C65	C	1.053234	0.685435	-0.227378
C66	C	1.056580	0.680388	-0.296141
C67	C	1.054806	0.910343	-0.032205
C68	C	1.058684	0.981629	-0.034728
C69	C	1.005664	0.757140	-0.370912
C70	C	1.008821	0.752393	-0.435519
C71	C	1.062888	0.670894	-0.425353
C72	C	1.113810	0.594136	-0.350574
C73	C	1.110659	0.598884	-0.285969
C74	C	1.077948	0.648210	-0.614019
C75	C	1.081092	0.643468	-0.678632
C76	C	0.976104	0.801725	-0.763573
C77	C	0.972952	0.806466	-0.698962
C78	C	1.023879	0.729708	-0.624189
N79	N	1.066114	0.666040	-0.491391
N80	N	1.020660	0.734563	-0.558153
C81	C	1.033522	0.715173	0.177834
C82	C	1.030177	0.720220	0.246597
C83	C	1.333465	0.490268	-0.017336
C84	C	1.431917	0.418984	-0.014812
C85	C	1.022094	0.505134	0.185267
C86	C	1.014870	0.438894	0.256552
C87	C	1.323608	0.505137	0.185270
C88	C	1.418716	0.438900	0.256557
C89	C	0.763148	0.895471	-0.234814
C90	C	0.668040	0.961708	-0.306101
C91	C	0.753292	0.910340	-0.032208
C92	C	0.654839	0.981624	-0.034732
C93	C	1.064662	0.895474	-0.234811
C94	C	1.071886	0.961713	-0.306097
C95	C	1.421200	0.382603	-0.053197
C96	C	1.513699	0.315633	-0.050841
C97	C	1.616914	0.285039	-0.010095
C98	C	1.627629	0.321426	0.028291
C99	C	1.535132	0.388400	0.025930
C100	C	1.068430	0.410693	0.329599
C101	C	1.061638	0.348464	0.396585
C102	C	1.001293	0.314433	0.390523
C103	C	0.947727	0.342641	0.317469
C104	C	0.954513	0.404874	0.250484
C105	C	1.524191	0.404891	0.250471
C106	C	1.613565	0.342662	0.317446
C107	C	1.597461	0.314439	0.390505
C108	C	1.491975	0.348454	0.396589
C109	C	1.402604	0.410686	0.329615
C110	C	0.562566	0.995725	-0.300016
C111	C	0.473193	1.057974	-0.366991
C112	C	0.489297	1.086201	-0.440051
C113	C	0.594783	1.052182	-0.446134
C114	C	0.684153	0.989938	-0.379160
C115	C	0.665557	1.018011	0.003646
C116	C	0.573060	1.084999	0.001272
C117	C	0.469845	1.115595	-0.039477
C118	C	0.459130	1.079204	-0.077860
C119	C	0.551626	1.012222	-0.075489
C120	C	1.132240	0.995724	-0.300010
C121	C	1.139049	1.057955	-0.366983
C122	C	1.085496	1.086177	-0.440043
C123	C	1.025140	1.052160	-0.446129
C124	C	1.018338	0.989926	-0.379156
H125	H	1.138038	0.407488	-0.086381
H126	H	1.692222	0.230504	-0.008178
C127	C	1.474274	0.317395	0.476957
H128	H	1.542612	0.275453	0.515967
H129	H	1.436665	0.365882	0.480939
H130	H	1.432640	0.291665	0.483552
C131	C	0.892915	0.287770	0.073140
H132	H	0.899178	0.242673	0.069051
H133	H	0.918035	0.265460	0.126115
H134	H	0.819019	0.334427	0.051892
C135	C	0.357172	1.095377	-0.360285
H136	H	0.360389	1.069636	-0.307180
H137	H	0.321795	1.156882	-0.386069
H138	H	0.317763	1.082668	-0.383458
C139	C	0.390986	1.154664	-0.513718
H140	H	0.415676	1.166611	-0.558105
H141	H	0.346296	1.132706	-0.512937
H142	H	0.350342	1.206921	-0.515563
H143	H	0.981540	1.075148	-0.505623
H144	H	0.955339	0.114619	0.032540
C145	C	0.930890	-0.015672	0.048531
H146	H	0.896318	0.015571	0.071073
H147	H	0.877415	-0.007230	0.014032
H148	H	0.976513	-0.076161	0.088201
H149	H	0.535374	0.843863	-0.101803
C150	C	1.173281	0.504489	-0.339391
H151	H	1.167856	0.512652	-0.388576
H152	H	1.247600	0.472753	-0.311351
H153	H	1.141054	0.472758	-0.311354
H154	H	0.770033	0.962241	-0.384123
C155	C	0.779083	0.984368	0.048468
H156	H	0.832646	0.939258	0.044393
H157	H	0.791082	1.031020	0.027223
H158	H	0.783562	0.962059	0.101446
C159	C	0.946196	0.846790	-0.382101
H160	H	0.916336	0.891820	-0.435887
H161	H	0.889515	0.851938	-0.358667
H162	H	0.996065	0.851927	-0.358662
C163	C	1.205431	1.095372	-0.360280
H164	H	1.201829	1.136472	-0.410626
H165	H	1.176459	1.123473	-0.334362
H166	H	1.278970	1.049250	-0.331723
C167	C	1.092976	1.154640	-0.513707
H168	H	1.136584	1.170856	-0.499612
H169	H	1.124727	1.130551	-0.542165
H170	H	1.022226	1.204762	-0.544784
C171	C	0.544836	0.964688	-0.219658
H172	H	0.613161	0.922740	-0.180634
H173	H	0.507234	1.013188	-0.215693
H174	H	0.503181	0.938975	-0.213068
C175	C	0.850272	0.542038	0.060144
H176	H	0.833243	0.600495	0.028767
H177	H	0.889682	0.515434	0.111621
H178	H	0.893135	0.510193	0.040022
C179	C	0.584865	1.125008	0.043503
H180	H	0.659584	1.097178	0.068121
H181	H	0.554924	1.185736	0.007125
H182	H	0.547385	1.116774	0.081333
H183	H	0.969187	0.962241	-0.384123
C184	C	0.859538	0.375872	0.149326
H185	H	0.916174	0.387199	0.143235
H186	H	0.863615	0.345985	0.202570
H187	H	0.867074	0.340738	0.130974
H188	H	0.995777	0.263760	0.445072
C189	C	0.539822	0.972192	-0.117697
H190	H	0.465101	1.000005	-0.142295
H191	H	0.577295	0.980412	-0.155528
H192	H	0.569768	0.911462	-0.081301
H193	H	0.375080	1.104126	-0.111036
H194	H	0.360927	0.843866	-0.101808
C195	C	1.191158	0.964688	-0.219652
H196	H	1.228084	0.993856	-0.225630
H197	H	1.139636	0.977637	-0.193189
H198	H	1.242129	0.903419	-0.190568
C199	C	1.286584	0.448086	0.336314
H200	H	1.235655	0.489196	0.285968
H201	H	1.274247	0.401962	0.364868
H202	H	1.278270	0.476188	0.362235
C203	C	1.695775	0.245978	0.464170
H204	H	1.760896	0.229763	0.450076
H205	H	1.695569	0.270067	0.492629
H206	H	1.691525	0.195855	0.495246
H207	H	0.917424	0.418023	0.057192
H208	H	0.607882	1.075172	-0.505627
C209	C	1.166657	0.514460	-0.203719
H210	H	1.157045	0.528959	-0.166698
H211	H	1.135474	0.481169	-0.196858
H212	H	1.242015	0.481172	-0.196854
C213	C	0.368105	1.189271	-0.042077
H214	H	0.305095	1.202289	-0.071845
H215	H	0.364465	1.171011	0.009108
H216	H	0.371986	1.239974	-0.065112
C217	C	1.148272	0.275578	-0.093037
H218	H	1.186079	0.303395	-0.117655
H219	H	1.198889	0.214849	-0.056653
H220	H	1.099857	0.283814	-0.130865
H221	H	1.175945	0.104101	-0.111039
C222	C	1.133881	0.563783	-0.531777
H223	H	1.124252	0.578277	-0.494753
H224	H	1.102646	0.530536	-0.524960
H225	H	1.209244	0.530452	-0.524874
C226	C	0.952809	0.836820	-0.517765
H227	H	0.920146	0.886037	-0.514566
H228	H	1.005120	0.838264	-0.544734
H229	H	0.898585	0.838252	-0.544733
C230	C	1.307677	0.416248	-0.098026
H231	H	1.314558	0.384989	-0.120553
H232	H	1.265456	0.407775	-0.063494
H233	H	1.272989	0.476740	-0.137704
H234	H	1.169328	-0.017418	-0.106733
H235	H	0.928929	0.872831	-0.707248
C236	C	1.140540	0.553815	-0.667447
H237	H	1.170417	0.508780	-0.613662
H238	H	1.090660	0.548692	-0.690886
H239	H	1.197223	0.548661	-0.690884
C240	C	1.501892	0.275610	-0.093058
H241	H	1.427171	0.303415	-0.117649
H242	H	1.539354	0.283843	-0.130896
H243	H	1.531852	0.214877	-0.056666
C244	C	1.120568	0.317439	0.476936
H245	H	1.107880	0.275510	0.515967
H246	H	1.196330	0.291724	0.483524
H247	H	1.093832	0.365950	0.480891
H248	H	0.656365	0.398487	0.137212
C249	C	0.446428	0.542056	0.060176
H250	H	0.463457	0.483599	0.091547
H251	H	0.403558	0.573908	0.080286
H252	H	0.407027	0.568652	0.008695
C253	C	1.741164	0.287757	0.073123
H254	H	1.734310	0.319012	0.095649
H255	H	1.775836	0.227268	0.112790
H256	H	1.783385	0.296229	0.038586
H257	H	0.934643	0.864217	-0.824458
H258	H	1.543873	0.418013	0.057192
C259	C	0.881357	0.305201	0.310806
H260	H	0.850420	0.330910	0.257709
H261	H	0.927600	0.243695	0.336613
H262	H	0.825090	0.317914	0.333978
C263	C	1.541926	0.435928	0.170115
H264	H	1.617549	0.406761	0.176093
H265	H	1.507583	0.422977	0.143651
H266	H	1.511609	0.497197	0.141030
H267	H	1.117569	0.438394	0.334550
C268	C	1.729586	0.305228	0.310745
H269	H	1.780514	0.264123	0.361092
H270	H	1.737870	0.277128	0.284829
H271	H	1.741954	0.351338	0.282188
H272	H	0.910901	0.427827	0.191009
