data_functionalizedCrystal
_audit_creation_method	'MofGen! by Chris Wilmer'
_symmetry_space_group_name_H-M	'P1'
_symmetry_Int_Tables_number	1
_symmetry_cell_setting	triclinic
loop_
_symmetry_equiv_pos_as_xyz
  x,y,z
_cell_length_a	17.640112
_cell_length_b	17.637651
_cell_length_c	17.640968
_cell_angle_alpha	70.334811
_cell_angle_beta	92.139080
_cell_angle_gamma	114.329102
loop_
_atom_site_label
_atom_site_type_symbol
_atom_site_fract_x
_atom_site_fract_y
_atom_site_fract_z
Zn1	Zn	1.242024	-0.024656	-0.191252
Zn2	Zn	1.174933	-0.201700	-0.036779
Zn3	Zn	1.076328	-0.080477	-0.081230
Zn4	Zn	1.076310	-0.190404	-0.191115
O5	O	1.142399	-0.124309	-0.125094
O6	O	1.343742	-0.029508	-0.152215
O7	O	1.133782	-0.213708	0.067959
O8	O	1.126393	0.047027	-0.114485
O9	O	1.294451	-0.159581	-0.038724
O10	O	1.248129	0.088038	-0.195317
O11	O	1.061337	-0.124646	0.035301
O12	O	0.965707	-0.113693	-0.114352
O13	O	1.126363	-0.140329	-0.301768
O14	O	0.965694	-0.194456	-0.195084
O15	O	1.248112	-0.018555	-0.301868
O16	O	1.133765	-0.320300	-0.038592
O17	O	1.061308	-0.312001	-0.151982
C18	C	0.937018	-0.158906	-0.159527
C19	C	0.849156	-0.173723	-0.174274
C20	C	0.560301	-0.011732	-0.013076
C21	C	0.477739	-0.025669	-0.026941
C22	C	0.477701	-0.109964	-0.110809
C23	C	0.560265	-0.096030	-0.096955
C24	C	0.601559	-0.046914	-0.048087
C25	C	0.601523	-0.131212	-0.131966
C26	C	0.684079	-0.117283	-0.118109
C27	C	0.725377	-0.068172	-0.069241
C28	C	0.684115	-0.032985	-0.034230
C29	C	0.560226	-0.180333	-0.180828
C30	C	0.601484	-0.215515	-0.215839
C31	C	0.684044	-0.201581	-0.201987
C32	C	0.725342	-0.152470	-0.153120
C33	C	0.725307	-0.236767	-0.236998
C34	C	0.807862	-0.222838	-0.223142
C35	C	0.807898	-0.138541	-0.139263
C36	C	1.090280	-0.347283	-0.090462
C37	C	1.068063	-0.442653	-0.075661
C38	C	1.311759	-0.649227	-0.237701
C39	C	1.290854	-0.738850	-0.223783
C40	C	1.164132	-0.781675	-0.139504
C41	C	1.185029	-0.692055	-0.153411
C42	C	1.258843	-0.625837	-0.202511
C43	C	1.132113	-0.668665	-0.118221
C44	C	1.153006	-0.579052	-0.132131
C45	C	1.226815	-0.512829	-0.181231
C46	C	1.279736	-0.536224	-0.216421
C47	C	1.058296	-0.734884	-0.069126
C48	C	1.005380	-0.711494	-0.033936
C49	C	1.026276	-0.621879	-0.047841
C50	C	1.100085	-0.555657	-0.096941
C51	C	0.973355	-0.598484	-0.012651
C52	C	0.994249	-0.508871	-0.026561
C53	C	1.120979	-0.466044	-0.110851
C54	C	1.348581	-0.089578	-0.090526
C55	C	1.436443	-0.074777	-0.075796
C56	C	1.194719	-0.071955	-0.331306
C57	C	1.217015	-0.049645	-0.419181
C58	C	1.194746	0.099543	-0.159875
C59	C	1.217054	0.194936	-0.174696
C60	C	0.973431	-0.293279	-0.707925
C61	C	0.994401	-0.272302	-0.790496
C62	C	1.121167	-0.145509	-0.790590
C63	C	1.100206	-0.166473	-0.708018
C64	C	1.026337	-0.240360	-0.666692
C65	C	1.153113	-0.113554	-0.666785
C66	C	1.132155	-0.134520	-0.584219
C67	C	1.058291	-0.208405	-0.542887
C68	C	1.005380	-0.261326	-0.584126
C69	C	1.226984	-0.039671	-0.708111
C70	C	1.279890	0.013248	-0.666878
C71	C	1.258930	-0.007714	-0.584313
C72	C	1.185066	-0.081599	-0.542980
C73	C	1.311841	0.045208	-0.543073
C74	C	1.290884	0.024242	-0.460508
C75	C	1.164109	-0.102564	-0.460414
C76	C	1.090341	-0.176390	0.080314
C77	C	1.068255	-0.198433	0.168177
H78	H	0.792599	-0.056834	-0.057958
C79	C	1.376435	0.030494	-0.351678
C80	C	1.349043	0.082410	-0.415181
H81	H	1.412348	0.066406	-0.323699
H82	H	1.329448	-0.016498	-0.315252
H83	H	1.406100	0.006378	-0.373020
H84	H	1.319373	0.106521	-0.393839
H85	H	1.396039	0.129418	-0.451613
H86	H	1.181090	-0.412125	-0.150826
C87	C	1.390789	0.203474	-0.584618
C88	C	1.393038	0.126419	-0.588503
H89	H	1.440920	0.253608	-0.612660
H90	H	1.344058	0.210521	-0.609016
H91	H	1.385877	0.198554	-0.529542
H92	H	1.397944	0.131336	-0.643579
H93	H	1.439782	0.119371	-0.564108
C94	C	0.857037	-0.513743	-0.014640
C95	C	0.936085	-0.483152	0.012116
H96	H	0.821126	-0.497867	0.009239
H97	H	0.862333	-0.487521	-0.071972
H98	H	0.834036	-0.576591	0.000680
H99	H	0.959088	-0.420302	-0.003210
H100	H	0.930790	-0.509370	0.069460
H101	H	1.371870	-0.595309	-0.277676
H102	H	0.951312	-0.315401	-0.824065
H103	H	1.103943	-0.162713	-0.426770
H104	H	0.913266	-0.353428	-0.674281
C105	C	0.809162	-0.126207	-0.007714
C106	C	0.853301	-0.084557	-0.085544
H107	H	0.837197	-0.092886	0.025450
H108	H	0.754103	-0.129451	-0.010958
H109	H	0.806267	-0.184527	0.015154
H110	H	0.856191	-0.026238	-0.108414
H111	H	0.908375	-0.081303	-0.082302
H112	H	0.444153	0.002991	0.001566
C113	C	1.325747	-0.361143	-0.247054
C114	C	1.249786	-0.414322	-0.196525
H115	H	1.339924	-0.300330	-0.256498
H116	H	1.368584	-0.376247	-0.221726
H117	H	1.320241	-0.370778	-0.297210
H118	H	1.255293	-0.404692	-0.146366
H119	H	1.206939	-0.399213	-0.221851
H120	H	0.691670	-0.276764	-0.276780
C121	C	0.872680	-0.314755	-0.507264
C122	C	0.924178	-0.342548	-0.538704
H123	H	0.822551	-0.364899	-0.479229
H124	H	0.901185	-0.286255	-0.470884
H125	H	0.859368	-0.274274	-0.550360
H126	H	0.937495	-0.383024	-0.495607
H127	H	0.895669	-0.371062	-0.575086
C128	C	0.799547	-0.307547	-0.307456
C129	C	0.853222	-0.261502	-0.261631
H130	H	0.827554	-0.331413	-0.331220
H131	H	0.750936	-0.354510	-0.273278
H132	H	0.783761	-0.267938	-0.348955
H133	H	0.869003	-0.301113	-0.220127
H134	H	0.901848	-0.214534	-0.295811
C135	C	1.402910	-0.502878	-0.298352
C136	C	1.360871	-0.463428	-0.270398
H137	H	1.452992	-0.457935	-0.331680
H138	H	1.416304	-0.541451	-0.253436
H139	H	1.367947	-0.535992	-0.328911
H140	H	1.395832	-0.430319	-0.239835
H141	H	1.347480	-0.424840	-0.315321
C142	C	0.532823	-0.216265	-0.335866
C143	C	0.556090	-0.269494	-0.269559
H144	H	0.504805	-0.249588	-0.369035
H145	H	0.496437	-0.197316	-0.316991
H146	H	0.581452	-0.165799	-0.366550
H147	H	0.507460	-0.319957	-0.238872
H148	H	0.592478	-0.288456	-0.288434
H149	H	0.717744	0.007025	0.005549
H150	H	1.333942	-0.757886	-0.252456
H151	H	1.104032	-0.835601	-0.099529
C152	C	1.209584	-0.057063	-0.917200
C153	C	1.202360	-0.064292	-0.836021
H154	H	1.259707	-0.006918	-0.945246
H155	H	1.211110	-0.109335	-0.919826
H156	H	1.162839	-0.050019	-0.941585
H157	H	1.249102	-0.071344	-0.811634
H158	H	1.200841	-0.012008	-0.833390
H159	H	1.244046	-0.022605	-0.775341
H160	H	1.041282	-0.807851	-0.057811
H161	H	0.913252	-0.652411	0.027320
C162	C	1.368307	0.101694	-0.793488
C163	C	1.361083	0.094465	-0.712310
H164	H	1.418430	0.151839	-0.821534
H165	H	1.369833	0.049422	-0.796115
H166	H	1.321562	0.108738	-0.817873
H167	H	1.407825	0.087413	-0.687923
H168	H	1.359564	0.146749	-0.709679
C169	C	0.917084	-0.867882	0.024819
C170	C	0.924250	-0.784285	0.020038
H171	H	0.867000	-0.912818	0.058147
H172	H	0.915516	-0.871030	-0.027954
H173	H	0.963874	-0.876497	0.047520
H174	H	0.877463	-0.775667	-0.002668
H175	H	0.925811	-0.781135	0.072822
H176	H	0.444067	-0.149956	-0.150595
C177	C	0.552050	0.070191	0.068456
C178	C	0.605696	0.042249	0.040647
H179	H	0.580074	0.103506	0.101627
H180	H	0.536273	0.106294	0.023469
H181	H	0.503427	0.019718	0.099142
H182	H	0.654316	0.092723	0.009956
H183	H	0.621485	0.006145	0.085640
H184	H	0.493004	-0.191672	-0.192109
C185	C	1.098345	-0.247649	-0.408595
C186	C	1.035250	-0.231453	-0.452129
H187	H	1.084121	-0.261872	-0.352566
H188	H	1.103798	-0.295983	-0.416376
H189	H	1.149905	-0.196067	-0.427312
H190	H	0.983691	-0.283037	-0.433416
H191	H	1.029788	-0.183114	-0.444343
