data_functionalizedCrystal
_audit_creation_method	'MofGen! by Chris Wilmer'
_symmetry_space_group_name_H-M	'P1'
_symmetry_Int_Tables_number	1
_symmetry_cell_setting	triclinic
loop_
_symmetry_equiv_pos_as_xyz
  x,y,z
_cell_length_a	10.654550
_cell_length_b	19.288865
_cell_length_c	9.730223
_cell_angle_alpha	89.990377
_cell_angle_beta	89.999957
_cell_angle_gamma	83.810589
loop_
_atom_site_label
_atom_site_type_symbol
_atom_site_fract_x
_atom_site_fract_y
_atom_site_fract_z
O1	O	1.665751	0.097555	-0.114205
O2	O	1.300073	0.106849	-0.114232
O3	O	1.493478	0.001141	-0.114191
O4	O	1.472346	0.203263	-0.114247
O5	O	1.493466	0.001138	0.114389
O6	O	1.300061	0.106846	0.114348
O7	O	1.665738	0.097552	0.114375
Zn8	Zn	1.482898	0.102198	0.150653
Zn9	Zn	1.482914	0.102202	-0.150511
O10	O	1.472333	0.203260	0.114333
C11	C	1.253284	0.106165	0.000055
C12	C	1.113884	0.104123	0.000046
C13	C	1.492792	-0.024742	0.000103
C14	C	1.490751	-0.101859	0.000115
C15	C	1.033066	0.166363	0.000033
C16	C	0.902087	0.164440	0.000057
C17	C	0.932756	0.038033	0.000102
C18	C	1.063733	0.039956	0.000088
C19	C	1.604232	-0.145812	0.000131
C20	C	1.602315	-0.218272	0.000109
C21	C	1.486909	-0.246775	0.000099
C22	C	1.373413	-0.202812	0.000076
C23	C	1.375334	-0.130354	0.000085
C24	C	1.396183	-0.355657	0.080159
C25	C	1.394267	-0.428114	0.080160
C26	C	1.480980	-0.470259	0.000068
C27	C	1.569631	-0.439940	-0.080006
C28	C	1.571552	-0.367482	-0.079998
C29	C	1.484814	-0.325343	0.000090
C30	C	1.592390	-0.592782	0.000057
C31	C	1.590467	-0.665243	0.000027
C32	C	1.361562	-0.649781	0.000009
C33	C	1.363488	-0.577322	0.000025
C34	C	1.478905	-0.548827	0.000056
C35	C	1.712528	0.098236	0.000085
C36	C	1.851928	0.100277	0.000085
C37	C	1.473020	0.229142	0.000036
C38	C	1.475061	0.306259	0.000015
N39	N	1.482896	0.102195	0.356190
N40	N	1.482926	0.102200	-0.356047
C41	C	1.568564	0.055408	0.428134
C42	C	1.568577	0.055408	0.572017
C43	C	1.397248	0.148990	0.571999
C44	C	1.397231	0.148986	0.428118
H45	H	1.073895	0.218611	0.000009
C46	C	1.302994	0.200440	0.651118
H47	H	1.251952	0.228294	0.587660
H48	H	1.347967	0.229597	0.707247
H49	H	1.250885	0.175162	0.707243
C50	C	1.303002	0.200458	0.348968
H51	H	1.315256	0.193749	0.252977
H52	H	1.316376	0.246884	0.372523
H53	H	1.219235	0.192482	0.372558
H54	H	1.129539	-0.010730	0.000102
H55	H	1.698214	-0.122616	0.000151
C56	C	1.662817	0.003944	0.651150
H57	H	1.713835	-0.023917	0.587701
H58	H	1.617826	-0.025203	0.707298
H59	H	1.714952	0.029207	0.707257
H60	H	1.694728	-0.254065	0.000115
C61	C	0.813192	0.232903	0.000033
H62	H	0.861824	0.271391	-0.000005
H63	H	0.761467	0.234785	0.079748
H64	H	0.761455	0.234777	-0.079684
H65	H	1.267597	-0.672988	-0.000006
H66	H	1.638316	0.017307	0.369573
H67	H	0.891906	-0.014209	0.000145
C68	C	1.669050	-0.334128	-0.168075
H69	H	1.657777	-0.284940	-0.156587
H70	H	1.657709	-0.345245	-0.262050
H71	H	1.751823	-0.351615	-0.139904
C72	C	1.665014	-0.486289	-0.168120
H73	H	1.651166	-0.533784	-0.156675
H74	H	1.748414	-0.480032	-0.139962
H75	H	1.654284	-0.473652	-0.262095
H76	H	1.682881	-0.701029	0.000032
C77	C	1.719337	-0.561431	0.000074
H78	H	1.704229	-0.511982	0.000096
H79	H	1.766051	-0.576470	-0.079636
H80	H	1.766041	-0.576492	0.079796
C81	C	1.246467	-0.234159	0.000061
H82	H	1.179154	-0.197601	0.000041
H83	H	1.240948	-0.262112	0.079766
H84	H	1.240973	-0.262094	-0.079665
C85	C	1.238657	-0.528972	0.000032
H86	H	1.169649	-0.556323	0.000035
H87	H	1.234648	-0.500373	-0.079673
H88	H	1.234650	-0.500396	0.079759
C89	C	1.296756	-0.461463	0.168229
H90	H	1.308039	-0.510652	0.156766
H91	H	1.213992	-0.443974	0.140054
H92	H	1.308096	-0.450343	0.262211
H93	H	1.325567	-0.321348	0.145387
H94	H	1.282921	-0.094566	0.000073
