data_functionalizedCrystal
_audit_creation_method	'MofGen! by Chris Wilmer'
_symmetry_space_group_name_H-M	'P1'
_symmetry_Int_Tables_number	1
_symmetry_cell_setting	triclinic
loop_
_symmetry_equiv_pos_as_xyz
  x,y,z
_cell_length_a	10.489741
_cell_length_b	14.044220
_cell_length_c	13.101039
_cell_angle_alpha	86.332523
_cell_angle_beta	86.610661
_cell_angle_gamma	91.135974
loop_
_atom_site_label
_atom_site_type_symbol
_atom_site_fract_x
_atom_site_fract_y
_atom_site_fract_z
O1	O	1.714050	-0.128652	-0.085154
O2	O	2.047383	0.204682	0.248180
O3	O	2.380716	0.538015	0.581513
O4	O	1.344130	-0.141213	-0.085170
O5	O	1.677463	0.192120	0.248164
O6	O	2.010796	0.525453	0.581497
O7	O	1.523536	0.003089	-0.085152
O8	O	1.856870	0.336423	0.248182
O9	O	2.190203	0.669756	0.581515
O10	O	1.534643	-0.272954	-0.085172
O11	O	1.867976	0.060379	0.248162
O12	O	2.201310	0.393712	0.581495
O13	O	1.510666	-0.007281	0.085277
O14	O	1.843999	0.326052	0.418610
O15	O	2.177333	0.659385	0.751943
O16	O	1.331259	-0.151584	0.085259
O17	O	1.664593	0.181749	0.418592
O18	O	1.997926	0.515083	0.751925
O19	O	1.701180	-0.139023	0.085275
O20	O	2.034513	0.194311	0.418608
O21	O	2.367846	0.527644	0.751942
Zn22	Zn	1.514176	-0.146950	0.112326
Zn23	Zn	1.847509	0.186383	0.445659
Zn24	Zn	2.180843	0.519717	0.778993
Zn25	Zn	1.531133	-0.133286	-0.112221
Zn26	Zn	1.864466	0.200047	0.221112
Zn27	Zn	2.197800	0.533381	0.554446
O28	O	1.521773	-0.283325	0.085257
O29	O	1.855106	0.050008	0.418590
O30	O	2.188439	0.383341	0.751924
C31	C	1.290067	-0.145450	0.000043
C32	C	1.623400	0.187884	0.333376
C33	C	1.956733	0.521217	0.666709
C34	C	1.148150	-0.142611	0.000037
C35	C	1.481483	0.190723	0.333370
C36	C	1.814816	0.524056	0.666703
C37	C	1.070696	-0.050795	0.000053
C38	C	1.404029	0.282538	0.333386
C39	C	1.737363	0.615871	0.666720
C40	C	0.989314	-0.089055	-0.083978
C41	C	1.322647	0.244278	0.249355
C42	C	1.655981	0.577612	0.582688
C43	C	0.976661	-0.099302	0.084051
C44	C	1.309994	0.234032	0.417384
C45	C	1.643328	0.567365	0.750718
C46	C	1.068642	-0.180904	-0.084064
C47	C	1.401976	0.152429	0.249269
C48	C	1.735309	0.485763	0.582603
C49	C	1.055992	-0.191143	0.084041
C50	C	1.389325	0.142191	0.417374
C51	C	1.722659	0.475524	0.750707
C52	C	0.974646	-0.229468	-0.000011
C53	C	1.307979	0.103866	0.333322
C54	C	1.641312	0.437199	0.666656
C55	C	1.512240	0.033252	0.000063
C56	C	1.845574	0.366585	0.333396
C57	C	2.178907	0.699918	0.666729
C58	C	1.497740	0.138576	0.000063
C59	C	1.831074	0.471910	0.333397
C60	C	2.164407	0.805243	0.666730
C61	C	1.755243	-0.134786	0.000060
C62	C	2.088576	0.198547	0.333394
C63	C	2.421909	0.531881	0.666727
C64	C	1.897160	-0.137625	0.000060
C65	C	2.230493	0.195709	0.333393
C66	C	2.563827	0.529042	0.666726
C67	C	1.533069	-0.313487	0.000040
C68	C	1.866402	0.019846	0.333374
C69	C	2.199736	0.353179	0.666707
C70	C	1.547569	-0.418812	0.000033
C71	C	1.880903	-0.085478	0.333366
C72	C	2.214236	0.247855	0.666700
N73	N	1.502612	-0.156275	0.265573
N74	N	1.835946	0.177059	0.598907
N75	N	2.169279	0.510392	0.932240
C76	C	1.471233	0.331420	0.000047
C77	C	1.804567	0.664753	0.333381
C78	C	2.137900	0.998086	0.666714
C79	C	1.574071	0.388351	0.000049
C80	C	1.907404	0.721684	0.333382
C81	C	2.240738	1.055017	0.666715
C82	C	1.559322	0.495655	0.000040
C83	C	1.892655	0.828989	0.333373
C84	C	2.225988	1.162322	0.666707
C85	C	1.485980	0.224105	0.000056
C86	C	1.819314	0.557438	0.333390
C87	C	2.152647	0.890772	0.666723
N88	N	1.542706	-0.123954	-0.265468
N89	N	1.876039	0.209380	0.067865
N90	N	2.209373	0.542713	0.401198
C91	C	1.486881	-0.168970	0.474614
C92	C	1.820214	0.164363	0.807948
C93	C	2.153547	0.497696	1.141281
C94	C	1.558434	-0.111261	0.525497
C95	C	1.891767	0.222072	0.858831
C96	C	2.225100	0.555405	1.192164
C97	C	1.549680	-0.118325	0.641815
C98	C	1.883014	0.215008	0.975148
C99	C	2.216347	0.548341	1.308482
C100	C	1.495633	-0.161908	0.358286
C101	C	1.828966	0.171426	0.691620
C102	C	2.162299	0.504759	1.024953
H103	H	0.932889	-0.305023	-0.000062
H104	H	1.266223	0.028310	0.333271
H105	H	1.599556	0.361643	0.666605
H106	H	1.085610	-0.234283	0.155082
H107	H	1.418943	0.099050	0.488416
H108	H	1.752277	0.432383	0.821749
H109	H	1.626267	-0.056551	0.481702
H110	H	1.959600	0.276783	0.815035
H111	H	2.292934	0.610116	1.148369
H112	H	1.108778	-0.215395	-0.155186
H113	H	1.442112	0.117938	0.178147
H114	H	1.775445	0.451271	0.511481
H115	H	0.936376	-0.064759	0.155093
H116	H	1.269710	0.268575	0.488426
H117	H	1.603043	0.601908	0.821760
H118	H	1.673195	0.356507	-0.000016
H119	H	2.006529	0.689840	0.333318
H120	H	2.339862	1.023174	0.666651
H121	H	1.372122	0.363266	0.000041
H122	H	1.705455	0.696599	0.333374
H123	H	2.038789	1.029932	0.666707
H124	H	1.112738	0.024689	-0.000047
H125	H	1.446071	0.358023	0.333287
H126	H	1.779404	0.691356	0.666620
H127	H	1.419054	-0.223678	0.518405
H128	H	1.752387	0.109655	0.851738
H129	H	2.085720	0.442988	1.185071
H130	H	0.959724	-0.045883	-0.155016
H131	H	1.293057	0.287450	0.178317
H132	H	1.626391	0.620784	0.511650
