data_functionalizedCrystal
_audit_creation_method	'MofGen! by Chris Wilmer'
_symmetry_space_group_name_H-M	'P1'
_symmetry_Int_Tables_number	1
_symmetry_cell_setting	triclinic
loop_
_symmetry_equiv_pos_as_xyz
  x,y,z
_cell_length_a	18.101398
_cell_length_b	18.101395
_cell_length_c	19.076919
_cell_angle_alpha	92.272317
_cell_angle_beta	92.285692
_cell_angle_gamma	90.029256
loop_
_atom_site_label
_atom_site_type_symbol
_atom_site_fract_x
_atom_site_fract_y
_atom_site_fract_z
Zn1	Zn	1.115284	-0.311701	-0.397871
Zn2	Zn	1.448618	0.021633	-0.064538
Zn3	Zn	1.781951	0.354966	0.268795
Zn4	Zn	1.120161	-0.430570	-0.280179
Zn5	Zn	1.453494	-0.097236	0.053154
Zn6	Zn	1.786827	0.236097	0.386487
Zn7	Zn	0.996423	-0.306743	-0.280199
Zn8	Zn	1.329756	0.026590	0.053134
Zn9	Zn	1.663089	0.359923	0.386467
Zn10	Zn	0.991395	-0.435500	-0.397845
Zn11	Zn	1.324729	-0.102167	-0.064511
Zn12	Zn	1.658062	0.231167	0.268822
O13	O	1.055816	-0.371128	-0.339024
O14	O	1.389149	-0.037795	-0.005690
O15	O	1.722482	0.295538	0.327643
O16	O	1.219564	-0.327480	-0.382262
O17	O	1.552897	0.005853	-0.048929
O18	O	1.886231	0.339186	0.284405
O19	O	1.107891	-0.410006	-0.181693
O20	O	1.441225	-0.076673	0.151641
O21	O	1.774558	0.256661	0.484974
O22	O	1.012253	-0.203769	-0.295828
O23	O	1.345587	0.129564	0.037505
O24	O	1.678920	0.462898	0.370839
O25	O	1.223146	-0.414813	-0.295794
O26	O	1.556480	-0.081480	0.037539
O27	O	1.889813	0.251854	0.370872
O28	O	1.099581	-0.207411	-0.382281
O29	O	1.432914	0.125922	-0.048948
O30	O	1.766247	0.459256	0.284385
O31	O	1.016982	-0.319031	-0.181707
O32	O	1.350315	0.014302	0.151626
O33	O	1.683648	0.347635	0.484959
O34	O	0.892123	-0.323812	-0.295802
O35	O	1.225456	0.009521	0.037531
O36	O	1.558790	0.342855	0.370864
O37	O	1.003685	-0.423216	-0.496338
O38	O	1.337018	-0.089882	-0.163004
O39	O	1.670351	0.243451	0.170329
O40	O	0.888429	-0.418409	-0.382236
O41	O	1.221763	-0.085075	-0.048903
O42	O	1.555096	0.248258	0.284431
O43	O	1.094705	-0.332261	-0.496357
O44	O	1.428039	0.001072	-0.163024
O45	O	1.761372	0.334406	0.170310
O46	O	1.103016	-0.534856	-0.295769
O47	O	1.436350	-0.201522	0.037565
O48	O	1.769683	0.131811	0.370898
O49	O	1.008413	-0.538478	-0.382217
O50	O	1.341746	-0.205145	-0.048883
O51	O	1.675079	0.128189	0.284450
C52	C	0.863405	-0.371108	-0.339019
C53	C	1.196739	-0.037775	-0.005685
C54	C	1.530072	0.295559	0.327648
C55	C	0.781091	-0.371118	-0.339033
C56	C	1.114424	-0.037784	-0.005700
C57	C	1.447757	0.295549	0.327633
C58	C	0.630382	-0.371131	-0.339032
C59	C	0.963716	-0.037798	-0.005699
C60	C	1.297049	0.295535	0.327634
C61	C	0.596733	-0.430734	-0.393330
C62	C	0.930066	-0.097400	-0.059996
C63	C	1.263400	0.235933	0.273337
C64	C	0.511121	-0.430959	-0.393169
C65	C	0.844455	-0.097626	-0.059836
C66	C	1.177788	0.235708	0.273498
C67	C	0.482000	-0.371145	-0.339032
C68	C	0.815333	-0.037812	-0.005699
C69	C	1.148666	0.295522	0.327634
C70	C	0.516195	-0.388830	-0.264769
C71	C	0.849528	-0.055497	0.068564
C72	C	1.182862	0.277836	0.401897
C73	C	0.601827	-0.389252	-0.265083
C74	C	0.935160	-0.055918	0.068250
C75	C	1.268493	0.277415	0.401583
C76	C	0.598044	-0.293674	-0.358349
C77	C	0.931377	0.039659	-0.025016
C78	C	1.264710	0.372993	0.308317
C79	C	0.512324	-0.294172	-0.359985
C80	C	0.845658	0.039161	-0.026652
C81	C	1.178991	0.372494	0.306682
C82	C	0.398140	-0.371151	-0.339028
C83	C	0.731474	-0.037818	-0.005695
C84	C	1.064807	0.295515	0.327639
C85	C	0.714242	-0.371127	-0.339032
C86	C	1.047575	-0.037793	-0.005698
C87	C	1.380908	0.295540	0.327635
C88	C	1.055718	-0.563538	-0.339003
C89	C	1.389051	-0.230205	-0.005670
C90	C	1.722384	0.103128	0.327664
C91	C	1.055742	-0.645853	-0.339018
C92	C	1.389076	-0.312520	-0.005684
C93	C	1.722409	0.020814	0.327649
C94	C	1.055903	-0.944945	-0.339056
C95	C	1.389237	-0.611612	-0.005722
C96	C	1.722570	-0.278279	0.327611
C97	C	0.996508	-0.915936	-0.393581
C98	C	1.329842	-0.582602	-0.060248
C99	C	1.663175	-0.249269	0.273085
C100	C	0.996244	-0.830311	-0.393411
C101	C	1.329578	-0.496977	-0.060078
C102	C	1.662911	-0.163644	0.273256
C103	C	1.055823	-0.796562	-0.339037
C104	C	1.389157	-0.463229	-0.005704
C105	C	1.722490	-0.129895	0.327629
C106	C	1.037833	-0.824575	-0.264863
C107	C	1.371166	-0.491241	0.068470
C108	C	1.704500	-0.157908	0.401803
C109	C	1.037451	-0.910234	-0.265190
C110	C	1.370784	-0.576900	0.068144
C111	C	1.704118	-0.243567	0.401477
C112	C	1.133441	-0.914095	-0.358051
C113	C	1.466774	-0.580762	-0.024718
C114	C	1.800108	-0.247429	0.308616
C115	C	1.132912	-0.828513	-0.359678
C116	C	1.466245	-0.495180	-0.026344
C117	C	1.799578	-0.161846	0.306989
C118	C	1.055780	-0.712702	-0.339023
C119	C	1.389113	-0.379369	-0.005689
C120	C	1.722446	-0.046035	0.327644
C121	C	1.055945	-1.028805	-0.339065
C122	C	1.389279	-0.695472	-0.005732
C123	C	1.722612	-0.362139	0.327601
C124	C	1.248977	-0.371150	-0.339029
C125	C	1.582311	-0.037816	-0.005696
C126	C	1.915644	0.295517	0.327638
C127	C	1.331291	-0.371159	-0.339031
C128	C	1.664625	-0.037825	-0.005698
C129	C	1.997958	0.295508	0.327635
C130	C	1.048090	-0.378841	-0.522599
C131	C	1.381424	-0.045508	-0.189265
C132	C	1.714757	0.287825	0.144068
C133	C	1.044798	-0.382128	-0.600827
C134	C	1.378131	-0.048795	-0.267494
C135	C	1.711465	0.284539	0.065839
C136	C	1.055934	-0.177968	-0.339060
C137	C	1.389267	0.155365	-0.005727
C138	C	1.722601	0.488699	0.327607
C139	C	1.055984	-0.095655	-0.339075
C140	C	1.389318	0.237679	-0.005742
C141	C	1.722651	0.571012	0.327591
C142	C	1.090639	-0.336319	-0.637591
C143	C	1.423972	-0.002986	-0.304257
C144	C	1.757305	0.330348	0.029076
C145	C	1.087536	-0.339405	-0.711095
C146	C	1.420870	-0.006071	-0.377762
C147	C	1.754203	0.327262	-0.044428
C148	C	1.038597	-0.388303	-0.747834
C149	C	1.371930	-0.054970	-0.414501
C150	C	1.705263	0.278363	-0.081168
C151	C	0.992751	-0.434114	-0.711066
C152	C	1.326084	-0.100781	-0.377733
C153	C	1.659418	0.232553	-0.044399
C154	C	0.995850	-0.431024	-0.637563
C155	C	1.329184	-0.097691	-0.304230
C156	C	1.662517	0.235642	0.029104
C157	C	1.024243	-0.402618	-0.967663
C158	C	1.357576	-0.069285	-0.634330
C159	C	1.690910	0.264049	-0.300997
C160	C	1.021149	-0.405706	-1.041171
C161	C	1.354482	-0.072372	-0.707838
C162	C	1.687815	0.260961	-0.374505
C163	C	1.115934	-0.310995	-1.041195
C164	C	1.449267	0.022338	-0.707862
C165	C	1.782600	0.355672	-0.374528
C166	C	1.119031	-0.307913	-0.967691
C167	C	1.452365	0.025421	-0.634357
C168	C	1.785698	0.358754	-0.301024
C169	C	1.073183	-0.353721	-0.930929
C170	C	1.406517	-0.020387	-0.597595
C171	C	1.739850	0.312946	-0.264262
N172	N	1.035426	-0.391460	-0.822968
N173	N	1.368759	-0.058126	-0.489634
N174	N	1.702093	0.275207	-0.156301
N175	N	1.076351	-0.350560	-0.855797
N176	N	1.409684	-0.017227	-0.522464
N177	N	1.743017	0.316107	-0.189130
C178	C	1.063554	-0.363392	-0.156163
C179	C	1.396887	-0.030059	0.177170
C180	C	1.730220	0.303274	0.510504
C181	C	1.066989	-0.359897	-0.077935
C182	C	1.400323	-0.026564	0.255399
C183	C	1.733656	0.306770	0.588732
H184	H	0.624337	-0.347527	-0.223240
H185	H	0.957670	-0.014193	0.110094
H186	H	1.291003	0.319140	0.443427
Br187	Br	0.479263	-0.216664	-0.298936
Br188	Br	0.812597	0.116670	0.034397
Br189	Br	1.145930	0.450003	0.367731
Br190	Br	0.901189	-0.951055	-0.372894
Br191	Br	1.234522	-0.617722	-0.039561
Br192	Br	1.567856	-0.284388	0.293773
H193	H	1.079005	-0.929175	-0.223179
H194	H	1.412339	-0.595841	0.110155
H195	H	1.745672	-0.262508	0.443488
H196	H	0.617417	-0.276898	-0.411589
H197	H	0.950750	0.056435	-0.078256
H198	H	1.284083	0.389768	0.255077
H199	H	0.619994	-0.249309	-0.318806
H200	H	0.953327	0.084024	0.014527
H201	H	1.286661	0.417357	0.347861
Br202	Br	1.157066	-0.269959	-0.587737
Br203	Br	1.490399	0.063374	-0.254404
Br204	Br	1.823733	0.396708	0.078930
H205	H	1.150455	-0.937893	-0.411217
H206	H	1.483788	-0.604560	-0.077883
H207	H	1.817122	-0.271227	0.255450
H208	H	0.622460	-0.445768	-0.248757
H209	H	0.955793	-0.112435	0.084577
H210	H	1.289126	0.220898	0.417910
Br211	Br	0.474650	-0.271835	-0.451079
Br212	Br	0.807984	0.061498	-0.117746
Br213	Br	1.141317	0.394831	0.215588
Br214	Br	0.627230	-0.413247	-0.485378
Br215	Br	0.960564	-0.079914	-0.152045
Br216	Br	1.293897	0.253419	0.181288
H217	H	0.981294	-0.445527	-1.071083
H218	H	1.314627	-0.112193	-0.737749
H219	H	1.647961	0.221140	-0.404416
Br220	Br	1.185455	-0.241550	-0.917835
Br221	Br	1.518788	0.091783	-0.584502
Br222	Br	1.852121	0.425116	-0.251168
Br223	Br	0.633442	-0.525967	-0.372235
Br224	Br	0.966776	-0.192634	-0.038902
Br225	Br	1.300109	0.140700	0.294431
Br226	Br	0.485219	-0.318467	-0.195484
Br227	Br	0.818553	0.014866	0.137849
Br228	Br	1.151886	0.348200	0.471182
Br229	Br	1.107897	-0.787687	-0.195301
Br230	Br	1.441231	-0.454354	0.138033
Br231	Br	1.774564	-0.121020	0.471366
Br232	Br	0.477813	-0.526742	-0.371832
Br233	Br	0.811146	-0.193408	-0.038499
Br234	Br	1.144479	0.139925	0.294835
H235	H	0.952901	-0.473926	-0.740985
H236	H	1.286234	-0.140592	-0.407652
H237	H	1.619567	0.192741	-0.074318
Br238	Br	0.944548	-0.787779	-0.237559
Br239	Br	1.277882	-0.454446	0.095774
Br240	Br	1.611215	-0.121113	0.429108
Br241	Br	0.481563	-0.481966	-0.237086
Br242	Br	0.814896	-0.148633	0.096247
Br243	Br	1.148229	0.184701	0.429580
H244	H	1.007136	-0.811574	-0.448410
H245	H	1.340470	-0.478241	-0.115077
H246	H	1.673803	-0.144907	0.218256
Br247	Br	1.149786	-0.277267	-0.760986
Br248	Br	1.483119	0.056067	-0.427652
Br249	Br	1.816453	0.389400	-0.094319
H250	H	1.177654	-0.932666	-0.318338
H251	H	1.510987	-0.599333	0.014996
H252	H	1.844320	-0.266000	0.348329
H253	H	1.153260	-0.273700	-1.071135
H254	H	1.486593	0.059634	-0.737801
H255	H	1.819926	0.392967	-0.404468
H256	H	1.146535	-0.810460	-0.414266
H257	H	1.479868	-0.477127	-0.080932
H258	H	1.813202	-0.143793	0.252401
Br259	Br	1.210156	-0.790224	-0.298316
Br260	Br	1.543489	-0.456891	0.035018
Br261	Br	1.876823	-0.123558	0.368351
H262	H	0.986921	-0.439929	-0.937740
H263	H	1.320254	-0.106596	-0.604407
H264	H	1.653587	0.226738	-0.271074
H265	H	0.958514	-0.468319	-0.607631
H266	H	1.291848	-0.134986	-0.274298
H267	H	1.625181	0.198347	0.059035
H268	H	0.487797	-0.420296	-0.448225
H269	H	0.821130	-0.086962	-0.114891
H270	H	1.154464	0.246371	0.218442
Br271	Br	0.900344	-0.795373	-0.372446
Br272	Br	1.233678	-0.462040	-0.039112
Br273	Br	1.567011	-0.128707	0.294221
Br274	Br	1.014425	-0.954076	-0.485552
Br275	Br	1.347759	-0.620743	-0.152219
Br276	Br	1.681092	-0.287409	0.181115
Br277	Br	0.943138	-0.942506	-0.238368
Br278	Br	1.276471	-0.609173	0.094965
Br279	Br	1.609804	-0.275840	0.428299
