data_functionalizedCrystal
_audit_creation_method	'MofGen! by Chris Wilmer'
_symmetry_space_group_name_H-M	'P1'
_symmetry_Int_Tables_number	1
_symmetry_cell_setting	triclinic
loop_
_symmetry_equiv_pos_as_xyz
  x,y,z
_cell_length_a	17.077404
_cell_length_b	13.897448
_cell_length_c	17.077396
_cell_angle_alpha	89.971029
_cell_angle_beta	89.982940
_cell_angle_gamma	90.017917
loop_
_atom_site_label
_atom_site_type_symbol
_atom_site_fract_x
_atom_site_fract_y
_atom_site_fract_z
Zn1	Zn	1.200064	-0.383994	-0.443849
Zn2	Zn	1.199989	-0.545311	-0.312585
Zn3	Zn	1.068801	-0.384032	-0.312597
Zn4	Zn	1.068776	-0.545249	-0.443809
O5	O	1.134407	-0.464647	-0.378210
O6	O	1.309901	-0.405403	-0.426448
O7	O	1.182566	-0.523959	-0.202740
O8	O	1.086256	-0.249045	-0.330029
O9	O	1.309846	-0.523922	-0.330010
O10	O	1.182694	-0.249017	-0.426459
O11	O	1.086183	-0.405468	-0.202748
O12	O	0.958951	-0.405408	-0.329990
O13	O	1.086212	-0.523816	-0.553661
O14	O	0.958932	-0.523854	-0.426391
O15	O	1.182669	-0.405343	-0.553690
O16	O	1.182541	-0.680284	-0.329971
O17	O	1.086139	-0.680239	-0.426380
C18	C	0.930460	-0.464629	-0.378188
C19	C	0.843210	-0.464645	-0.378198
C20	C	0.802230	-0.526412	-0.428313
C21	C	0.720250	-0.526415	-0.428326
C22	C	0.679250	-0.464653	-0.378218
C23	C	0.720236	-0.402879	-0.328100
C24	C	0.802215	-0.402873	-0.328092
C25	C	0.549366	-0.402898	-0.328119
C26	C	0.467381	-0.402905	-0.328126
C27	C	0.467401	-0.526440	-0.428353
C28	C	0.549380	-0.526433	-0.428345
C29	C	0.590359	-0.464660	-0.378226
C30	C	1.134350	-0.715261	-0.378187
C31	C	1.134397	-0.822475	-0.378204
C32	C	1.134480	-1.018770	-0.378253
C33	C	1.134432	-0.909537	-0.378228
C34	C	1.339152	-0.464665	-0.378232
C35	C	1.426401	-0.464673	-0.378242
C36	C	1.134446	-0.464568	-0.582954
C37	C	1.134463	-0.464535	-0.670204
C38	C	1.134486	-0.213054	-0.378250
C39	C	1.134520	-0.105840	-0.378267
C40	C	1.184721	-0.526121	-1.046017
C41	C	1.184701	-0.526149	-0.964036
C42	C	1.134513	-0.464467	-0.923053
C43	C	1.084337	-0.402760	-0.964055
C44	C	1.084353	-0.402737	-1.046034
C45	C	1.084307	-0.402809	-0.793185
C46	C	1.084292	-0.402831	-0.711200
C47	C	1.184655	-0.526221	-0.711187
C48	C	1.184671	-0.526199	-0.793166
C49	C	1.134496	-0.464490	-0.834162
C50	C	1.134414	-0.464655	-0.174262
C51	C	1.134550	-0.464416	-0.087013
H52	H	0.835579	-0.352570	-0.287287
O53	O	0.680412	-0.586285	-0.477090
C54	C	0.587870	-0.599455	-0.583037
C55	C	0.632948	-0.531538	-0.527870
H56	H	0.549472	-0.555221	-0.624096
H57	H	0.631225	-0.643582	-0.618899
H58	H	0.549499	-0.649858	-0.546913
H59	H	0.671320	-0.481078	-0.563934
H60	H	0.589551	-0.487480	-0.492006
O61	O	0.589263	-0.343029	-0.279394
C62	C	0.681747	-0.329904	-0.173393
C63	C	0.636624	-0.397803	-0.228538
H64	H	0.720037	-0.374162	-0.132250
H65	H	0.720207	-0.279534	-0.209455
H66	H	0.638352	-0.285741	-0.137612
H67	H	0.679963	-0.442028	-0.264330
H68	H	0.598153	-0.448109	-0.192431
O69	O	0.842140	-0.586274	-0.477028
C70	C	0.934697	-0.599400	-0.583015
C71	C	0.889566	-0.531500	-0.527879
H72	H	0.973039	-0.555141	-0.624153
H73	H	0.973107	-0.649765	-0.546945
H74	H	0.891308	-0.643566	-0.618801
H75	H	0.932899	-0.487271	-0.492081
H76	H	0.851145	-0.481198	-0.563993
H77	H	1.043500	-0.352490	-1.079412
O78	O	1.233536	-0.586067	-0.832887
C79	C	1.367055	-0.632856	-0.858005
C80	C	1.311803	-0.565008	-0.812961
H81	H	1.430346	-0.615841	-0.841923
H82	H	1.353307	-0.710654	-0.841852
H83	H	1.358411	-0.622258	-0.923636
H84	H	1.320416	-0.575521	-0.747320
H85	H	1.325565	-0.487235	-0.829179
O86	O	0.680448	-0.342743	-0.279509
C87	C	0.655424	-0.178611	-0.241610
C88	C	0.700514	-0.246603	-0.296704
H89	H	0.671643	-0.100869	-0.255480
H90	H	0.589782	-0.189139	-0.250222
H91	H	0.671509	-0.195501	-0.178294
H92	H	0.684495	-0.229755	-0.360040
H93	H	0.766145	-0.236062	-0.288024
O94	O	0.589245	-0.586528	-0.476906
C95	C	0.681827	-0.716715	-0.487273
C96	C	0.636715	-0.648738	-0.432185
H97	H	0.720230	-0.767016	-0.451139
H98	H	0.638496	-0.760937	-0.523086
H99	H	0.720197	-0.672461	-0.528389
H100	H	0.598344	-0.692917	-0.391022
H101	H	0.680089	-0.604513	-0.396427
H102	H	1.043470	-0.352542	-0.930680
H103	H	1.225593	-0.576345	-1.079379
H104	H	0.434031	-0.576735	-0.469164
H105	H	1.043427	-0.352601	-0.677834
O106	O	1.233405	-0.586217	-0.924303
C107	C	1.271438	-0.750305	-0.899161
C108	C	1.216239	-0.682384	-0.944219
H109	H	1.257568	-0.828071	-0.915234
H110	H	1.334752	-0.733437	-0.915309
H111	H	1.262823	-0.739685	-0.833532
H112	H	1.224784	-0.692967	-1.009858
H113	H	1.152945	-0.699269	-0.928006
O114	O	1.035542	-0.342775	-0.832888
C115	C	0.935966	-0.220425	-0.824254
C116	C	0.991160	-0.288350	-0.779193
H117	H	0.900057	-0.176419	-0.780861
H118	H	0.971995	-0.169920	-0.862628
H119	H	0.894947	-0.264708	-0.862643
H120	H	1.032191	-0.244145	-0.740762
H121	H	0.955082	-0.338858	-0.740869
O122	O	1.233282	-0.586275	-0.671335
C123	C	1.243787	-0.716502	-0.578723
C124	C	1.188627	-0.648576	-0.623823
H125	H	1.207706	-0.766876	-0.540286
H126	H	1.279648	-0.760649	-0.622063
H127	H	1.284854	-0.672214	-0.540389
H128	H	1.147512	-0.692789	-0.662158
H129	H	1.152821	-0.604426	-0.580440
O130	O	0.427674	-0.342815	-0.279432
C131	C	0.436300	-0.220314	-0.179996
C132	C	0.481366	-0.288300	-0.235115
H133	H	0.479690	-0.176235	-0.144140
H134	H	0.397964	-0.169879	-0.216080
H135	H	0.397874	-0.264553	-0.138923
H136	H	0.519834	-0.244138	-0.276199
H137	H	0.519652	-0.338737	-0.198983
