data_functionalizedCrystal
_audit_creation_method	'MofGen! by Chris Wilmer'
_symmetry_space_group_name_H-M	'P1'
_symmetry_Int_Tables_number	1
_symmetry_cell_setting	triclinic
loop_
_symmetry_equiv_pos_as_xyz
  x,y,z
_cell_length_a	27.732048
_cell_length_b	23.532407
_cell_length_c	22.610064
_cell_angle_alpha	90.002839
_cell_angle_beta	89.999096
_cell_angle_gamma	97.254333
loop_
_atom_site_label
_atom_site_type_symbol
_atom_site_fract_x
_atom_site_fract_y
_atom_site_fract_z
O1	O	0.058672	-0.755138	-0.049117
O2	O	0.067162	-0.589257	-0.049135
O3	O	-0.007472	-0.677349	-0.049114
O4	O	0.133306	-0.667046	-0.049138
O5	O	-0.007461	-0.677334	0.049255
O6	O	0.067173	-0.589241	0.049234
O7	O	0.058683	-0.755123	0.049252
Zn8	Zn	0.062930	-0.672179	0.064861
Zn9	Zn	0.062915	-0.672200	-0.064744
O10	O	0.133317	-0.667030	0.049231
C11	C	-0.025473	-0.677125	0.000072
C12	C	-0.079129	-0.676474	0.000077
C13	C	0.066952	-0.568033	0.000047
C14	C	0.066302	-0.504818	0.000041
C15	C	0.058894	-0.776346	0.000068
C16	C	0.059544	-0.839562	0.000071
C17	C	-0.417871	-0.724431	0.000052
C18	C	-0.619534	-0.722014	0.000043
O19	O	-0.650722	-0.765867	0.000022
N20	N	-0.638738	-0.669779	0.000038
C21	C	-0.607523	-0.618144	0.000031
O22	O	-0.628484	-0.573659	0.000020
C23	C	-0.405860	-0.620561	0.000035
C24	C	-0.386659	-0.672800	0.000046
C25	C	-0.398669	-0.776665	0.000062
C26	C	-0.348256	-0.777269	0.000067
C27	C	-0.317045	-0.725638	0.000062
C28	C	-0.336247	-0.673403	0.000052
C29	C	-0.374646	-0.568927	0.000024
C30	C	-0.324228	-0.569536	0.000024
C31	C	-0.305027	-0.621775	0.000035
C32	C	-0.254622	-0.622376	0.000052
N33	N	-0.235418	-0.674611	0.000057
C34	C	-0.266630	-0.726242	0.000062
C35	C	-0.713399	-0.616879	0.000030
C36	C	-0.763814	-0.616274	0.000030
C37	C	-0.775822	-0.720145	0.000041
C38	C	-0.725406	-0.720749	0.000045
C39	C	-0.694195	-0.669114	0.000035
C40	C	-0.160758	-0.727506	0.000074
C41	C	-0.110341	-0.728105	0.000082
C42	C	-0.098337	-0.624235	0.000068
C43	C	-0.148751	-0.623635	0.000063
C44	C	-0.179961	-0.675276	0.000064
O45	O	-0.223406	-0.578547	0.000066
O46	O	-0.245659	-0.770721	0.000060
C47	C	-0.468283	-0.723827	0.000046
C48	C	-0.487485	-0.671593	0.000036
C49	C	-0.456274	-0.619962	0.000030
C50	C	-0.537900	-0.670988	0.000036
C51	C	-0.569112	-0.722619	0.000041
C52	C	-0.549908	-0.774855	0.000046
C53	C	-0.499495	-0.775458	0.000051
C54	C	-0.475478	-0.567727	0.000025
C55	C	-0.525891	-0.567127	0.000021
C56	C	-0.557103	-0.618758	0.000026
C57	C	0.151319	-0.667254	0.000044
C58	C	0.204975	-0.667905	0.000035
N59	N	0.062939	-0.672170	0.153314
C60	C	0.106391	-0.105629	0.000061
C61	C	0.105787	-0.046230	0.000064
O62	O	0.142951	-0.009406	0.000080
N63	N	0.061418	-0.023699	0.000071
C64	C	0.017649	-0.060570	0.000080
O65	O	-0.020147	-0.035951	0.000086
C66	C	0.018253	-0.119967	0.000080
C67	C	0.062626	-0.142495	0.000068
C68	C	0.150760	-0.128158	0.000049
C69	C	0.151364	-0.187552	0.000044
C70	C	0.107599	-0.224419	0.000051
C71	C	0.063229	-0.201890	0.000063
C72	C	-0.025515	-0.156837	0.000093
C73	C	-0.024907	-0.216239	0.000094
C74	C	0.019466	-0.238766	0.000082
C75	C	0.020068	-0.298151	0.000065
N76	N	0.064437	-0.320683	0.000059
C77	C	0.108203	-0.283817	0.000052
C78	C	0.016383	0.064170	0.000080
C79	C	0.015778	0.123567	0.000075
C80	C	0.103917	0.137902	0.000061
C81	C	0.104521	0.078505	0.000061
C82	C	0.060753	0.041639	0.000073
C83	C	0.109467	-0.408551	0.000041
C84	C	0.110067	-0.467951	0.000034
C85	C	0.021928	-0.482282	0.000051
C86	C	0.021328	-0.422886	0.000055
C87	C	0.065102	-0.386021	0.000052
O88	O	-0.017077	-0.335010	0.000052
O89	O	0.145992	-0.308444	0.000053
N90	N	0.062902	-0.672214	-0.153197
C91	C	0.029873	-0.711209	0.561964
C92	C	0.029869	-0.711212	0.623884
O93	O	0.001762	-0.744380	0.655911
N94	N	0.062905	-0.672200	0.654851
C95	C	0.095944	-0.633178	0.623894
O96	O	0.124044	-0.599995	0.655919
C97	C	0.095945	-0.633173	0.561975
C98	C	0.062910	-0.672191	0.531012
C99	C	-0.003160	-0.750224	0.531001
C100	C	-0.003156	-0.750222	0.469085
C101	C	0.029881	-0.711204	0.438133
C102	C	0.062914	-0.672189	0.469096
C103	C	0.128981	-0.594149	0.531020
C104	C	0.128979	-0.594146	0.469097
C105	C	0.095944	-0.633165	0.438134
C106	C	0.095955	-0.633169	0.376229
N107	N	0.062919	-0.672182	0.345262
C108	C	0.029882	-0.711199	0.376214
C109	C	0.095939	-0.633191	0.753928
C110	C	0.095941	-0.633198	0.815846
C111	C	0.029865	-0.711232	0.815831
C112	C	0.029866	-0.711227	0.753912
C113	C	0.062903	-0.672203	0.722961
C114	C	0.029894	-0.711192	0.246187
C115	C	0.029902	-0.711187	0.184266
C116	C	0.095976	-0.633152	0.184286
C117	C	0.095969	-0.633158	0.246201
C118	C	0.062924	-0.672180	0.277150
O119	O	0.124047	-0.600016	0.344163
O120	O	0.001783	-0.744372	0.344182
H121	H	-0.094710	-0.770646	0.000092
N122	N	-0.441818	-0.512036	0.000019
H123	H	-0.461638	-0.478858	0.000015
H124	H	-0.420642	-0.510017	0.036489
N125	N	-0.290572	-0.513838	0.000023
H126	H	-0.269391	-0.511766	0.036492
H127	H	-0.269413	-0.511804	-0.036463
H128	H	-0.779443	-0.573737	0.000031
N129	N	-0.005738	-0.753266	0.150872
H130	H	-0.000726	-0.747346	0.106949
H131	H	-0.000333	-0.793619	0.161691
N132	N	-0.025274	-0.522050	0.000059
H133	H	-0.018155	-0.563095	0.000058
H134	H	-0.044616	-0.514798	0.036532
N135	N	-0.327546	-0.833610	0.000065
H136	H	-0.306897	-0.836179	0.036529
H137	H	-0.354998	-0.866191	0.000041
H138	H	-0.801243	-0.762185	0.000045
N139	N	0.131604	-0.591065	0.150897
H140	H	0.165887	-0.597314	0.161667
H141	H	0.126547	-0.597006	0.106985
H142	H	0.146202	-0.486290	0.000023
N143	N	0.131580	-0.591108	0.720544
H144	H	0.113221	-0.566051	0.694857
H145	H	0.152499	-0.566436	0.749596
N146	N	-0.194416	-0.783202	0.000075
H147	H	-0.174595	-0.816380	0.000084
H148	H	-0.215596	-0.785210	0.036541
N149	N	-0.064668	-0.568550	0.000054
H150	H	-0.084478	-0.535364	0.000046
H151	H	-0.043487	-0.566531	0.036520
N152	N	0.156684	-0.368804	0.000035
H153	H	0.158399	-0.343840	-0.036429
H154	H	0.158382	-0.343877	0.036526
H155	H	0.187497	-0.205889	0.000034
N156	N	0.131573	-0.591114	0.849236
H157	H	0.126562	-0.597031	0.893160
H158	H	0.165837	-0.597388	0.838413
N159	N	-0.704697	-0.777091	0.000053
H160	H	-0.684048	-0.779652	0.036519
H161	H	-0.732151	-0.809670	0.000036
H162	H	0.002985	-0.742966	0.271379
N163	N	-0.005766	-0.753321	0.849221
H164	H	-0.040048	-0.747072	0.838448
H165	H	-0.000325	-0.793668	0.838425
N166	N	0.197969	-0.088400	0.000075
H167	H	0.226163	-0.111694	0.000079
H168	H	0.199654	-0.063431	-0.036383
H169	H	-0.687991	-0.574829	0.000022
N170	N	-0.026529	-0.398584	0.000057
H171	H	-0.054162	-0.430954	0.000058
H172	H	-0.028697	-0.374254	0.036528
H173	H	-0.061648	-0.138506	0.000104
H174	H	-0.390270	-0.526389	0.000011
N175	N	-0.546593	-0.510777	0.000016
H176	H	-0.535188	-0.488187	-0.036453
H177	H	-0.583264	-0.518267	0.000036
N178	N	-0.038789	-0.792304	0.435693
H179	H	-0.059717	-0.817017	0.464705
H180	H	-0.060066	-0.770690	0.410007
N181	N	-0.038789	-0.792320	0.564379
H182	H	-0.059709	-0.817034	0.535360
H183	H	-0.020383	-0.817333	0.590058
N184	N	-0.169464	-0.567295	0.000059
H185	H	-0.142040	-0.534679	0.000059
H186	H	-0.190115	-0.564788	-0.036413
N187	N	-0.030828	0.024409	0.000089
H188	H	-0.059024	0.047700	0.000093
H189	H	-0.032504	-0.000551	-0.036377
H190	H	0.139553	0.167930	0.000058
H191	H	0.140653	0.060167	0.000054
N192	N	-0.072115	-0.256003	0.000102
H193	H	-0.073824	-0.280966	0.036567
H194	H	-0.100286	-0.232675	0.000088
N195	N	-0.005764	-0.753311	0.720518
H196	H	-0.026690	-0.778028	0.749528
H197	H	-0.027043	-0.731698	0.694832
N198	N	-0.032081	0.147862	0.000078
H199	H	-0.059712	0.115489	0.000081
H200	H	-0.034250	0.172193	0.036546
N201	N	0.164605	-0.552054	0.564406
H202	H	0.185526	-0.527335	0.535394
H203	H	0.146197	-0.527047	0.590092
N204	N	0.164610	-0.552053	0.435714
H205	H	0.185535	-0.527339	0.464729
H206	H	0.185891	-0.573661	0.410022
N207	N	-0.432328	-0.832358	0.000068
H208	H	-0.412506	-0.865534	0.000075
H209	H	-0.453505	-0.834365	0.036537
H210	H	0.122874	-0.601391	0.271412
H211	H	-0.483866	-0.817996	0.000060
H212	H	-0.575329	-0.816894	0.000053
