data_functionalizedCrystal
_audit_creation_method	'MofGen! by Chris Wilmer'
_symmetry_space_group_name_H-M	'P1'
_symmetry_Int_Tables_number	1
_symmetry_cell_setting	triclinic
loop_
_symmetry_equiv_pos_as_xyz
  x,y,z
_cell_length_a	25.639239
_cell_length_b	25.639242
_cell_length_c	19.805399
_cell_angle_alpha	90.026139
_cell_angle_beta	89.969866
_cell_angle_gamma	89.966288
loop_
_atom_site_label
_atom_site_type_symbol
_atom_site_fract_x
_atom_site_fract_y
_atom_site_fract_z
Zn1	Zn	-0.208225	-0.799238	-0.382881
Zn2	Zn	0.291775	-0.299238	0.117119
Zn3	Zn	-0.295661	-0.799158	-0.269691
Zn4	Zn	0.204339	-0.299158	0.230309
Zn5	Zn	-0.208234	-0.711811	-0.269688
Zn6	Zn	0.291766	-0.211811	0.230312
Zn7	Zn	-0.295624	-0.711760	-0.382819
Zn8	Zn	0.204376	-0.211760	0.117181
O9	O	-0.251936	-0.755492	-0.326270
O10	O	0.248064	-0.255492	0.173730
O11	O	-0.219836	-0.872393	-0.367894
O12	O	0.280164	-0.372393	0.132106
O13	O	-0.284083	-0.787559	-0.174974
O14	O	0.215917	-0.287559	0.325026
O15	O	-0.135068	-0.723463	-0.284728
O16	O	0.364932	-0.223463	0.215272
O17	O	-0.284074	-0.872334	-0.284733
O18	O	0.215926	-0.372334	0.215267
O19	O	-0.135061	-0.787696	-0.367891
O20	O	0.364939	-0.287696	0.132109
O21	O	-0.219851	-0.723385	-0.174971
O22	O	0.280149	-0.223385	0.325029
O23	O	-0.219814	-0.638639	-0.284667
O24	O	0.280186	-0.138639	0.215333
O25	O	-0.284011	-0.723376	-0.477544
O26	O	0.215989	-0.223376	0.022456
O27	O	-0.284019	-0.638601	-0.367785
O28	O	0.215981	-0.138601	0.132215
O29	O	-0.219799	-0.787646	-0.477590
O30	O	0.280201	-0.287646	0.022410
O31	O	-0.368821	-0.787509	-0.284673
O32	O	0.131179	-0.287509	0.215327
O33	O	-0.368794	-0.723298	-0.367788
O34	O	0.131206	-0.223298	0.132212
C35	C	-0.251914	-0.619649	-0.326219
C36	C	0.248086	-0.119649	0.173781
C37	C	-0.251917	-0.561535	-0.326214
C38	C	0.248083	-0.061535	0.173786
C39	C	-0.387779	-0.755404	-0.326239
C40	C	0.112221	-0.255404	0.173761
C41	C	-0.445893	-0.755414	-0.326248
C42	C	0.054107	-0.255414	0.173752
C43	C	-0.285418	-0.201161	-0.369490
C44	C	0.214582	0.298839	0.130510
C45	C	-0.285421	-0.146557	-0.369499
C46	C	0.214579	0.353443	0.130501
O47	O	-0.313882	-0.118311	-0.406264
O48	O	0.186118	0.381689	0.093736
N49	N	-0.251945	-0.119252	-0.326293
N50	N	0.248055	0.380748	0.173707
C51	C	-0.218460	-0.146555	-0.283081
C52	C	0.281540	0.353445	0.216919
O53	O	-0.189985	-0.118317	-0.246332
O54	O	0.310015	0.381683	0.253668
C55	C	-0.218455	-0.201158	-0.283076
C56	C	0.281545	0.298842	0.216924
C57	C	-0.251937	-0.228460	-0.326279
C58	C	0.248063	0.271540	0.173721
C59	C	-0.318898	-0.228463	-0.412691
C60	C	0.181102	0.271537	0.087309
C61	C	-0.318895	-0.283064	-0.412681
C62	C	0.181105	0.216936	0.087319
C63	C	-0.285414	-0.310362	-0.369470
C64	C	0.214586	0.189638	0.130530
C65	C	-0.251935	-0.283061	-0.326269
C66	C	0.248065	0.216939	0.173731
C67	C	-0.184968	-0.228460	-0.239867
C68	C	0.315032	0.271540	0.260133
C69	C	-0.184965	-0.283067	-0.239866
C70	C	0.315035	0.216933	0.260134
C71	C	-0.218447	-0.310369	-0.283070
C72	C	0.281553	0.189631	0.216930
C73	C	-0.218451	-0.364960	-0.283049
C74	C	0.281549	0.135040	0.216951
N75	N	-0.251928	-0.392265	-0.326254
N76	N	0.248072	0.107735	0.173746
C77	C	-0.285409	-0.364966	-0.369465
C78	C	0.214591	0.135034	0.130535
C79	C	-0.218472	-0.031885	-0.283095
C80	C	0.281528	0.468115	0.216905
C81	C	-0.218479	0.022718	-0.283097
C82	C	0.281521	0.522718	0.216903
C83	C	-0.285440	0.022712	-0.369516
C84	C	0.214560	0.522712	0.130484
C85	C	-0.285435	-0.031891	-0.369511
C86	C	0.214565	0.468109	0.130489
C87	C	-0.251948	-0.059189	-0.326301
C88	C	0.248052	0.440811	0.173699
C89	C	-0.285402	-0.479631	-0.369440
C90	C	0.214598	0.020369	0.130560
C91	C	-0.285399	-0.534236	-0.369425
C92	C	0.214601	-0.034236	0.130575
C93	C	-0.218436	-0.534226	-0.283008
C94	C	0.281564	-0.034226	0.216992
C95	C	-0.218442	-0.479625	-0.283021
C96	C	0.281558	0.020375	0.216979
C97	C	-0.251926	-0.452329	-0.326243
C98	C	0.248074	0.047671	0.173757
O99	O	-0.190004	-0.393241	-0.246305
O100	O	0.309996	0.106759	0.253695
O101	O	-0.313874	-0.393211	-0.406214
O102	O	0.186126	0.106789	0.093786
C103	C	-0.806257	-0.789014	-0.283066
C104	C	-0.306257	-0.289014	0.216934
C105	C	-0.860862	-0.789034	-0.283075
C106	C	-0.360862	-0.289034	0.216925
O107	O	-0.889100	-0.817510	-0.246325
O108	O	-0.389100	-0.317510	0.253675
N109	N	-0.888175	-0.755583	-0.326315
N110	N	-0.388175	-0.255583	0.173685
C111	C	-0.860881	-0.722114	-0.369553
C112	C	-0.360881	-0.222114	0.130447
O113	O	-0.889127	-0.693665	-0.406334
O114	O	-0.389127	-0.193665	0.093666
C115	C	-0.806278	-0.722097	-0.369547
C116	C	-0.306278	-0.222097	0.130453
C117	C	-0.778967	-0.755546	-0.326299
C118	C	-0.278967	-0.255546	0.173701
C119	C	-0.778947	-0.822460	-0.239822
C120	C	-0.278947	-0.322460	0.260178
C121	C	-0.724346	-0.822439	-0.239812
C122	C	-0.224346	-0.322439	0.260188
C123	C	-0.697056	-0.788971	-0.283046
C124	C	-0.197056	-0.288971	0.216954
C125	C	-0.724367	-0.755525	-0.326290
C126	C	-0.224367	-0.255525	0.173710
C127	C	-0.778985	-0.688631	-0.412789
C128	C	-0.278985	-0.188631	0.087211
C129	C	-0.724378	-0.688617	-0.412779
C130	C	-0.224378	-0.188617	0.087221
C131	C	-0.697067	-0.722066	-0.369531
C132	C	-0.197067	-0.222066	0.130469
C133	C	-0.642476	-0.722036	-0.369514
C134	C	-0.142476	-0.222036	0.130486
N135	N	-0.615163	-0.755487	-0.326274
N136	N	-0.115163	-0.255487	0.173726
C137	C	-0.642453	-0.788954	-0.283040
C138	C	-0.142453	-0.288954	0.216960
C139	C	-0.975552	-0.722154	-0.369564
C140	C	-0.475552	-0.222154	0.130436
C141	C	-1.030154	-0.722168	-0.369567
C142	C	-0.530154	-0.222168	0.130433
C143	C	-1.030131	-0.789088	-0.283089
C144	C	-0.530131	-0.289088	0.216911
C145	C	-0.975527	-0.789071	-0.283083
C146	C	-0.475527	-0.289071	0.216917
C147	C	-0.948238	-0.755604	-0.326324
C148	C	-0.448238	-0.255604	0.173676
C149	C	-0.527788	-0.788907	-0.283022
C150	C	-0.027788	-0.288907	0.216978
C151	C	-0.473183	-0.788881	-0.283014
C152	C	0.026817	-0.288881	0.216986
C153	C	-0.473211	-0.721963	-0.369494
C154	C	0.026789	-0.221963	0.130506
C155	C	-0.527811	-0.721987	-0.369500
C156	C	-0.027811	-0.221987	0.130500
C157	C	-0.555098	-0.755463	-0.326262
C158	C	-0.055098	-0.255463	0.173738
O159	O	-0.614203	-0.693576	-0.406246
O160	O	-0.114203	-0.193576	0.093754
O161	O	-0.614200	-0.817404	-0.246272
O162	O	-0.114200	-0.317404	0.253728
C163	C	-0.115563	-0.755594	-0.326316
C164	C	0.384437	-0.255594	0.173684
C165	C	-0.057449	-0.755638	-0.326335
C166	C	0.442551	-0.255638	0.173665
C167	C	-0.251900	-0.755515	-0.502813
C168	C	0.248100	-0.255515	-0.002813
C169	C	-0.251884	-0.755524	-0.578045
C170	C	0.248116	-0.255524	-0.078045
C171	C	-0.251956	0.108135	-0.326312
C172	C	0.248044	0.608135	0.173688
C173	C	-0.251959	0.050021	-0.326310
C174	C	0.248041	0.550021	0.173690
C175	C	-0.218435	-0.722119	-0.613387
C176	C	0.281565	-0.222119	-0.113387
C177	C	-0.218425	-0.722126	-0.684075
C178	C	0.281575	-0.222126	-0.184075
C179	C	-0.251862	-0.755542	-0.719420
C180	C	0.248138	-0.255542	-0.219420
C181	C	-0.285314	-0.788949	-0.684073
C182	C	0.214686	-0.288949	-0.184073
C183	C	-0.285327	-0.788939	-0.613386
C184	C	0.214673	-0.288939	-0.113386
C185	C	-0.285265	-0.788990	-0.969146
C186	C	0.214735	-0.288990	-0.469146
C187	C	-0.285249	-0.788999	-1.039838
C188	C	0.214751	-0.288999	-0.539838
C189	C	-0.218364	-0.722178	-1.039836
C190	C	0.281636	-0.222178	-0.539836
C191	C	-0.218376	-0.722167	-0.969149
C192	C	0.281624	-0.222167	-0.469149
C193	C	-0.251830	-0.755572	-0.933808
C194	C	0.248170	-0.255572	-0.433808
C195	C	-0.251842	-0.755563	-0.857159
C196	C	0.248158	-0.255563	-0.357159
C197	C	-0.251848	-0.755554	-0.796067
C198	C	0.248152	-0.255554	-0.296067
C199	C	-0.251934	-0.755499	-0.150414
C200	C	0.248066	-0.255499	0.349586
C201	C	-0.251803	-0.755590	-0.075182
C202	C	0.248197	-0.255590	0.424818
H203	H	-0.312666	-0.556463	-0.404607
H204	H	0.187334	-0.056463	0.095393
H205	H	-0.191190	-0.694922	-0.712848
H206	H	0.308810	-0.194922	-0.212848
O207	O	-0.697926	-0.656133	-0.454879
O208	O	-0.197926	-0.156133	0.045121
C209	C	-0.681165	-0.630720	-0.569980
C210	C	-0.181165	-0.130720	-0.069980
C211	C	-0.711162	-0.667531	-0.522380
C212	C	-0.211162	-0.167531	-0.022380
H213	H	-0.691847	-0.639929	-0.624564
H214	H	-0.191847	-0.139929	-0.124564
H215	H	-0.691958	-0.588561	-0.558096
H216	H	-0.191958	-0.088561	-0.058096
H217	H	-0.637450	-0.636441	-0.562513
H218	H	-0.137450	-0.136441	-0.062513
H219	H	-0.754884	-0.661856	-0.529820
H220	H	-0.254884	-0.161856	-0.029820
H221	H	-0.700326	-0.709676	-0.534275
H222	H	-0.200326	-0.209676	-0.034275
O223	O	-0.317709	-0.821532	-1.074097
O224	O	0.182291	-0.321532	-0.574097
C225	C	-0.343086	-0.910452	-1.095780
C226	C	0.156914	-0.410452	-0.595780
C227	C	-0.306305	-0.873669	-1.056929
C228	C	0.193695	-0.373669	-0.556929
H229	H	-0.333871	-0.952612	-1.081924
H230	H	0.166129	-0.452612	-0.581924
H231	H	-0.385254	-0.901276	-1.081853
H232	H	0.114746	-0.401276	-0.581853
H233	H	-0.337337	-0.904695	-1.152369
H234	H	0.162663	-0.404695	-0.652369
H235	H	-0.312007	-0.879405	-1.000331
H236	H	0.187993	-0.379405	-0.500331
H237	H	-0.264150	-0.882854	-1.070913
H238	H	0.235850	-0.382854	-0.570913
H239	H	-0.157704	-0.206241	-0.204684
H240	H	0.342296	0.293759	0.295316
H241	H	-1.052360	-0.816341	-0.247888
H242	H	-0.552360	-0.316341	0.252112
O243	O	-0.185984	0.049173	-0.241024
O244	O	0.314016	0.549173	0.258976
C245	C	-0.160516	0.065917	-0.125943
C246	C	0.339484	0.565917	0.374057
C247	C	-0.197345	0.035921	-0.173516
C248	C	0.302655	0.535921	0.326484
H249	H	-0.169695	0.055222	-0.071352
H250	H	0.330305	0.555222	0.428648
H251	H	-0.118361	0.055137	-0.137869
H252	H	0.381639	0.555137	0.362131
H253	H	-0.166252	0.109633	-0.133393
H254	H	0.333748	0.609633	0.366607
H255	H	-0.191656	-0.007801	-0.166092
H256	H	0.308344	0.492199	0.333908
H257	H	-0.239487	0.046744	-0.161578
H258	H	0.260513	0.546744	0.338422
O259	O	-0.554366	-0.689436	-0.411409
O260	O	-0.054366	-0.189436	0.088591
C261	C	-0.616101	-0.618886	-0.420438
C262	C	-0.116101	-0.118886	0.079562
C263	C	-0.586058	-0.655705	-0.372892
C264	C	-0.086058	-0.155705	0.127108
H265	H	-0.641740	-0.591613	-0.389316
H266	H	-0.141740	-0.091613	0.110684
H267	H	-0.587236	-0.594924	-0.451321
H268	H	-0.087236	-0.094924	0.048679
H269	H	-0.641597	-0.642894	-0.455885
H270	H	-0.141597	-0.142894	0.044115
H271	H	-0.560562	-0.631738	-0.337404
H272	H	-0.060562	-0.131738	0.162596
H273	H	-0.614951	-0.679670	-0.342057
H274	H	-0.114951	-0.179670	0.157943
H275	H	-0.191179	-0.457395	-0.247840
H276	H	0.308821	0.042605	0.252160
O277	O	-0.697799	-0.854861	-0.197733
O278	O	-0.197799	-0.354861	0.302267
C279	C	-0.636175	-0.861938	-0.106370
C280	C	-0.136175	-0.361938	0.393630
C281	C	-0.666210	-0.825156	-0.153971
C282	C	-0.166210	-0.325156	0.346029
H283	H	-0.610620	-0.837937	-0.070986
H284	H	-0.110620	-0.337937	0.429014
H285	H	-0.665044	-0.885850	-0.075428
H286	H	-0.165044	-0.385850	0.424572
H287	H	-0.610595	-0.889266	-0.137494
H288	H	-0.110595	-0.389266	0.362506
H289	H	-0.691791	-0.797797	-0.122900
H290	H	-0.191791	-0.297797	0.377100
H291	H	-0.637312	-0.801281	-0.184915
H292	H	-0.137312	-0.301281	0.315085
H293	H	-0.191178	-0.556462	-0.247825
H294	H	0.308822	-0.056462	0.252175
O295	O	-0.317829	-0.821420	-0.934899
O296	O	0.182171	-0.321420	-0.434899
C297	C	-0.406773	-0.846722	-0.913229
C298	C	0.093227	-0.346722	-0.413229
C299	C	-0.369954	-0.809966	-0.952069
C300	C	0.130046	-0.309966	-0.452069
H301	H	-0.448924	-0.837467	-0.927086
H302	H	0.051076	-0.337467	-0.427086
H303	H	-0.397633	-0.888896	-0.927165
H304	H	0.102367	-0.388896	-0.427165
H305	H	-0.401018	-0.840988	-0.856638
H306	H	0.098982	-0.340988	-0.356638
H307	H	-0.375689	-0.815653	-1.008669
H308	H	0.124311	-0.315653	-0.508669
H309	H	-0.379103	-0.767806	-0.938077
H310	H	0.120897	-0.267806	-0.438077
O311	O	-0.317844	-0.821426	-0.718300
O312	O	0.182156	-0.321426	-0.218300
C313	C	-0.384164	-0.887730	-0.710836
C314	C	0.115836	-0.387730	-0.210836
C315	C	-0.347361	-0.850965	-0.671992
C316	C	0.152639	-0.350965	-0.171992
H317	H	-0.408031	-0.911629	-0.673413
H318	H	0.091969	-0.411629	-0.173413
H319	H	-0.411528	-0.863737	-0.743894
H320	H	0.088472	-0.363737	-0.243894
H321	H	-0.360149	-0.915070	-0.743965
H322	H	0.139851	-0.415070	-0.243965
H323	H	-0.371335	-0.823618	-0.638826
H324	H	0.128665	-0.323618	-0.138826
H325	H	-0.319996	-0.874991	-0.638976
H326	H	0.180004	-0.374991	-0.138976
O327	O	-0.185971	-0.689707	-0.578951
O328	O	0.314029	-0.189707	-0.078951
C329	C	-0.156369	-0.660049	-0.470057
C330	C	0.343631	-0.160049	0.029943
C331	C	-0.193151	-0.696793	-0.508968
C332	C	0.306849	-0.196793	-0.008968
H333	H	-0.162169	-0.665758	-0.413468
H334	H	0.337831	-0.165758	0.086532
H335	H	-0.114197	-0.669264	-0.483925
H336	H	0.385803	-0.169264	0.016075
H337	H	-0.165537	-0.617891	-0.483979
H338	H	0.334463	-0.117891	0.016021
H339	H	-0.184030	-0.738963	-0.495067
H340	H	0.315970	-0.238963	0.004933
H341	H	-0.235312	-0.687533	-0.495096
H342	H	0.264688	-0.187533	0.004904
O343	O	-0.446721	-0.689383	-0.411424
O344	O	0.053279	-0.189383	0.088576
C345	C	-0.430096	-0.600434	-0.444206
C346	C	0.069904	-0.100434	0.055794
C347	C	-0.460118	-0.637266	-0.396660
C348	C	0.039882	-0.137266	0.103340
H349	H	-0.440925	-0.558290	-0.432295
H350	H	0.059075	-0.058290	0.067705
H351	H	-0.386372	-0.606124	-0.436771
H352	H	0.113628	-0.106124	0.063229
H353	H	-0.440792	-0.609628	-0.498790
H354	H	0.059208	-0.109628	0.001210
H355	H	-0.449466	-0.628095	-0.342057
H356	H	0.050534	-0.128095	0.157943
H357	H	-0.503834	-0.631569	-0.404153
H358	H	-0.003834	-0.131569	0.095847
H359	H	-0.346162	-0.206242	-0.447881
H360	H	0.153838	0.293758	0.052119
O361	O	-0.317874	-0.821314	-0.579020
O362	O	0.182126	-0.321314	-0.079020
C363	C	-0.388458	-0.828278	-0.499156
C364	C	0.111542	-0.328278	0.000844
C365	C	-0.351636	-0.791555	-0.538044
C366	C	0.148364	-0.291555	-0.038044
H367	H	-0.415757	-0.804233	-0.466007
H368	H	0.084243	-0.304233	0.033993
H369	H	-0.412393	-0.852156	-0.536526
H370	H	0.087607	-0.352156	-0.036526
H371	H	-0.364454	-0.855640	-0.466109
H372	H	0.135546	-0.355640	0.033891
H373	H	-0.375600	-0.764162	-0.571092
H374	H	0.124400	-0.264162	-0.071092
H375	H	-0.327700	-0.767715	-0.500637
H376	H	0.172300	-0.267715	-0.000637
O377	O	-0.318012	-0.058433	-0.411386
O378	O	0.181988	0.441567	0.088614
C379	C	-0.388586	-0.120070	-0.420334
C380	C	0.111414	0.379930	0.079666
C381	C	-0.351734	-0.090039	-0.372830
C382	C	0.148266	0.409961	0.127170
H383	H	-0.415853	-0.145639	-0.389182
H384	H	0.084147	0.354361	0.110818
H385	H	-0.412554	-0.091197	-0.451203
H386	H	0.087446	0.408803	0.048797
H387	H	-0.364604	-0.145635	-0.455796
H388	H	0.135396	0.354365	0.044204
H389	H	-0.375676	-0.064473	-0.337327
H390	H	0.124324	0.435527	0.162673
H391	H	-0.327765	-0.118940	-0.342008
H392	H	0.172235	0.381060	0.157992
H393	H	-0.312701	0.044949	-0.404702
H394	H	0.187299	0.544949	0.095298
O395	O	-0.317978	-0.453201	-0.411447
O396	O	0.182022	0.046799	0.088553
C397	C	-0.384370	-0.458984	-0.497189
C398	C	0.115630	0.041016	0.002811
C399	C	-0.347514	-0.488980	-0.449643
C400	C	0.152486	0.011020	0.050357
H401	H	-0.408252	-0.487898	-0.528094
H402	H	0.091748	0.012102	-0.028094
H403	H	-0.411718	-0.433405	-0.466092
H404	H	0.088282	0.066595	0.033908
H405	H	-0.360396	-0.433436	-0.532617
H406	H	0.139604	0.066564	-0.032617
H407	H	-0.371446	-0.514556	-0.414207
H408	H	0.128554	-0.014556	0.085793
H409	H	-0.320165	-0.514526	-0.480783
H410	H	0.179835	-0.014526	0.019217
H411	H	-0.346159	-0.305288	-0.447863
H412	H	0.153841	0.194712	0.052137
H413	H	-0.191204	-0.054107	-0.247904
H414	H	0.308796	0.445893	0.252096
H415	H	-0.191125	-0.694976	-1.068619
H416	H	0.308875	-0.194976	-0.568619
H417	H	-0.157692	-0.305290	-0.204683
H418	H	0.342308	0.194710	0.295317
O419	O	-0.805526	-0.854916	-0.197826
O420	O	-0.305526	-0.354916	0.302174
C421	C	-0.867227	-0.862073	-0.106485
C422	C	-0.367227	-0.362073	0.393515
C423	C	-0.837163	-0.825248	-0.153996
C424	C	-0.337163	-0.325248	0.346004
H425	H	-0.892804	-0.838100	-0.071028
H426	H	-0.392804	-0.338100	0.428972
H427	H	-0.892771	-0.889379	-0.137611
H428	H	-0.392771	-0.389379	0.362389
H429	H	-0.838329	-0.886005	-0.075612
H430	H	-0.338329	-0.386005	0.424388
H431	H	-0.866023	-0.801281	-0.184879
H432	H	-0.366023	-0.301281	0.315121
H433	H	-0.811611	-0.797976	-0.122831
H434	H	-0.311611	-0.297976	0.377169
H435	H	-0.450948	-0.816119	-0.247794
H436	H	0.049052	-0.316119	0.252206
H437	H	-0.549999	-0.816167	-0.247815
H438	H	-0.049999	-0.316167	0.252185
H439	H	-1.052386	-0.694926	-0.404777
H440	H	-0.552386	-0.194926	0.095223
O441	O	-0.949081	-0.821614	-0.241053
O442	O	-0.449081	-0.321614	0.258947
C443	C	-0.954836	-0.887965	-0.155247
C444	C	-0.454836	-0.387965	0.344753
C445	C	-0.984848	-0.851143	-0.202823
C446	C	-0.484848	-0.351143	0.297177
H447	H	-0.983740	-0.911841	-0.124316
H448	H	-0.483740	-0.411841	0.375684
H449	H	-0.929248	-0.915318	-0.186322
H450	H	-0.429248	-0.415318	0.313678
H451	H	-0.929296	-0.863963	-0.119846
H452	H	-0.429296	-0.363963	0.380154
H453	H	-1.010416	-0.875103	-0.238233
H454	H	-0.510416	-0.375103	0.261767
H455	H	-1.010403	-0.823788	-0.171706
H456	H	-0.510403	-0.323788	0.328294
O457	O	-0.185880	-0.689658	-0.934921
O458	O	0.314120	-0.189658	-0.434921
C459	C	-0.119515	-0.623397	-0.942380
C460	C	0.380485	-0.123397	-0.442380
C461	C	-0.156298	-0.660181	-0.981227
C462	C	0.343702	-0.160181	-0.481227
H463	H	-0.095582	-0.599564	-0.979802
H464	H	0.404418	-0.099564	-0.479802
H465	H	-0.143498	-0.596001	-0.909287
H466	H	0.356502	-0.096001	-0.409287
H467	H	-0.092209	-0.647425	-0.909286
H468	H	0.407791	-0.147425	-0.409286
H469	H	-0.183612	-0.636195	-1.014358
H470	H	0.316388	-0.136195	-0.514358
H471	H	-0.132284	-0.687578	-1.014277
H472	H	0.367716	-0.187578	-0.514277
H473	H	-0.953336	-0.694897	-0.404774
H474	H	-0.453336	-0.194897	0.095226
H475	H	-0.801212	-0.661391	-0.448002
H476	H	-0.301212	-0.161391	0.051998
