data_functionalizedCrystal
_audit_creation_method	'MofGen! by Chris Wilmer'
_symmetry_space_group_name_H-M	'P1'
_symmetry_Int_Tables_number	1
_symmetry_cell_setting	triclinic
loop_
_symmetry_equiv_pos_as_xyz
  x,y,z
_cell_length_a	19.805405
_cell_length_b	19.121141
_cell_length_c	19.805399
_cell_angle_alpha	92.456552
_cell_angle_beta	89.969291
_cell_angle_gamma	92.420244
loop_
_atom_site_label
_atom_site_type_symbol
_atom_site_fract_x
_atom_site_fract_y
_atom_site_fract_z
Zn1	Zn	-0.313697	-1.073690	-0.426813
Zn2	Zn	0.186303	-0.573690	0.073187
Zn3	Zn	-0.426885	-1.073607	-0.313618
Zn4	Zn	0.073115	-0.573607	0.186382
Zn5	Zn	-0.308881	-0.956247	-0.308814
Zn6	Zn	0.191119	-0.456247	0.191186
Zn7	Zn	-0.422010	-0.956204	-0.421943
Zn8	Zn	0.077990	-0.456204	0.078057
O9	O	-0.367868	-1.014937	-0.367797
O10	O	0.132132	-0.514937	0.132203
O11	O	-0.332767	-1.171963	-0.415847
O12	O	0.167233	-0.671963	0.084153
O13	O	-0.411256	-1.058023	-0.218264
O14	O	0.088744	-0.558023	0.281736
O15	O	-0.214805	-0.971879	-0.324494
O16	O	0.285195	-0.471879	0.175506
O17	O	-0.415926	-1.171902	-0.332683
O18	O	0.084074	-0.671902	0.167317
O19	O	-0.218344	-1.058164	-0.411188
O20	O	0.281656	-0.558164	0.088812
O21	O	-0.324559	-0.971799	-0.214734
O22	O	0.175441	-0.471799	0.285266
O23	O	-0.319832	-0.857957	-0.319772
O24	O	0.180168	-0.357957	0.180228
O25	O	-0.407617	-0.971805	-0.517306
O26	O	0.092383	-0.471805	-0.017306
O27	O	-0.402947	-0.857926	-0.402887
O28	O	0.097053	-0.357926	0.097113
O29	O	-0.328040	-1.058122	-0.520884
O30	O	0.171960	-0.558122	-0.020884
O31	O	-0.520952	-1.057981	-0.327960
O32	O	-0.020952	-0.557981	0.172040
O33	O	-0.517371	-0.971725	-0.407545
O34	O	-0.017371	-0.471725	0.092455
C35	C	-0.360338	-0.832457	-0.360280
C36	C	0.139662	-0.332457	0.139720
C37	C	-0.357133	-0.754392	-0.357080
C38	C	0.142867	-0.254392	0.142920
C39	C	-0.398967	-0.717718	-0.398782
C40	C	0.101033	-0.217718	0.101218
C41	C	-0.395947	-0.644367	-0.395779
C42	C	0.104053	-0.144367	0.104221
C43	C	-0.351096	-0.607691	-0.351069
C44	C	0.148904	-0.107691	0.148931
C45	C	-0.309258	-0.644370	-0.309365
C46	C	0.190742	-0.144370	0.190635
C47	C	-0.312275	-0.717720	-0.312373
C48	C	0.187725	-0.217720	0.187627
C49	C	-0.339814	-0.386223	-0.339831
C50	C	0.160186	0.113777	0.160169
C51	C	-0.336801	-0.312868	-0.336826
C52	C	0.163199	0.187132	0.163174
C53	C	-0.423489	-0.312871	-0.423240
C54	C	0.076511	0.187129	0.076760
C55	C	-0.426506	-0.386222	-0.426241
C56	C	0.073494	0.113778	0.073759
C57	C	-0.384665	-0.422894	-0.384539
C58	C	0.115335	0.077106	0.115461
C59	C	-0.348009	-0.532715	-0.347997
C60	C	0.151991	-0.032715	0.152003
C61	C	-0.387749	-0.497869	-0.387616
C62	C	0.112251	0.002131	0.112384
C63	C	-0.543721	-1.014858	-0.367761
C64	C	-0.043721	-0.514858	0.132239
C65	C	-0.618954	-1.014889	-0.367771
C66	C	-0.118954	-0.514889	0.132229
C67	C	-0.656142	-1.059846	-0.326378
C68	C	-0.156142	-0.559846	0.173622
C69	C	-0.726832	-1.059875	-0.326394
C70	C	-0.226832	-0.559875	0.173606
C71	C	-0.760332	-1.014944	-0.367800
C72	C	-0.260332	-0.514944	0.132200
C73	C	-0.723138	-0.969985	-0.409198
C74	C	-0.223138	-0.469985	0.090802
C75	C	-0.652450	-0.969959	-0.409185
C76	C	-0.152450	-0.469959	0.090815
C77	C	-1.008216	-0.970089	-0.409252
C78	C	-0.508216	-0.470089	0.090748
C79	C	-1.078909	-0.970116	-0.409261
C80	C	-0.578909	-0.470116	0.090739
C81	C	-1.082598	-1.060005	-0.326462
C82	C	-0.582598	-0.560005	0.173538
C83	C	-1.011909	-1.059979	-0.326448
C84	C	-0.511909	-0.559979	0.173552
C85	C	-0.974722	-1.015023	-0.367848
C86	C	-0.474722	-0.515023	0.132152
C87	C	-0.898073	-1.014992	-0.367831
C88	C	-0.398073	-0.514992	0.132169
C89	C	-0.836980	-1.014971	-0.367814
C90	C	-0.336980	-0.514971	0.132186
C91	C	-0.191329	-1.015036	-0.367849
C92	C	0.308671	-0.515036	0.132151
C93	C	-0.116099	-1.015078	-0.367871
C94	C	0.383901	-0.515078	0.132129
C95	C	-0.367822	-1.014968	-0.544341
C96	C	0.132178	-0.514968	-0.044341
C97	C	-0.367803	-1.014981	-0.619574
C98	C	0.132197	-0.514981	-0.119574
C99	C	-0.375424	-0.198129	-0.375336
C100	C	0.124576	0.301871	0.124664
C101	C	-0.378635	-0.276195	-0.378528
C102	C	0.121365	0.223805	0.121472
C103	C	-0.322656	-0.970097	-0.653080
C104	C	0.177344	-0.470097	-0.153080
C105	C	-0.322643	-0.970107	-0.723769
C106	C	0.177357	-0.470107	-0.223769
C107	C	-0.367774	-1.015004	-0.760950
C108	C	0.132226	-0.515004	-0.260950
C109	C	-0.412926	-1.059890	-0.727439
C110	C	0.087074	-0.559890	-0.227439
C111	C	-0.412942	-1.059877	-0.656751
C112	C	0.087058	-0.559877	-0.156751
C113	C	-0.412865	-1.059946	-1.012515
C114	C	0.087135	-0.559946	-0.512515
C115	C	-0.412845	-1.059958	-1.083207
C116	C	0.087155	-0.559958	-0.583207
C117	C	-0.322567	-0.970176	-1.079532
C118	C	0.177433	-0.470176	-0.579532
C119	C	-0.322582	-0.970162	-1.008844
C120	C	0.177418	-0.470162	-0.508844
C121	C	-0.367736	-1.015045	-0.975339
C122	C	0.132264	-0.515045	-0.475339
C123	C	-0.367750	-1.015033	-0.898690
C124	C	0.132250	-0.515033	-0.398690
C125	C	-0.367758	-1.015020	-0.837598
C126	C	0.132242	-0.515020	-0.337598
C127	C	-0.367866	-1.014947	-0.191941
C128	C	0.132134	-0.514947	0.308059
C129	C	-0.367701	-1.015070	-0.116715
C130	C	0.132299	-0.515070	0.383285
H131	H	-0.300271	-0.283009	-0.300422
H132	H	0.199729	0.216991	0.199578
C133	C	-0.975499	-1.108646	-0.281404
C134	C	-0.475499	-0.608646	0.218596
C135	C	-0.933355	-1.068892	-0.236334
C136	C	-0.433355	-0.568892	0.263666
C137	C	-0.899811	-1.113702	-0.194824
C138	C	-0.399811	-0.613702	0.305176
H139	H	-0.949087	-1.139233	-0.308497
H140	H	-0.449087	-0.639233	0.191503
H141	H	-1.007751	-1.135414	-0.256714
H142	H	-0.507751	-0.635414	0.243286
H143	H	-0.901107	-1.042136	-0.261021
H144	H	-0.401107	-0.542136	0.238979
H145	H	-0.959750	-1.038306	-0.209225
H146	H	-0.459750	-0.538306	0.290775
H147	H	-0.932063	-1.140470	-0.170134
H148	H	-0.432063	-0.640470	0.329866
H149	H	-0.873403	-1.144288	-0.221923
H150	H	-0.373403	-0.644288	0.278077
H151	H	-0.871217	-1.086736	-0.164235
H152	H	-0.371217	-0.586736	0.335765
C153	C	-0.266972	-0.757631	-0.267058
C154	C	0.233028	-0.257631	0.232942
C155	C	-0.306971	-0.799723	-0.225344
C156	C	0.193029	-0.299723	0.274656
C157	C	-0.265258	-0.836506	-0.183600
C158	C	0.234742	-0.336506	0.316400
H159	H	-0.239815	-0.725367	-0.239937
H160	H	0.260185	-0.225367	0.260063
H161	H	-0.238705	-0.786307	-0.294163
H162	H	0.261295	-0.286307	0.205837
H163	H	-0.335226	-0.771050	-0.198243
H164	H	0.164774	-0.271050	0.301757
H165	H	-0.334126	-0.832001	-0.252448
H166	H	0.165874	-0.332001	0.247552
H167	H	-0.236991	-0.865182	-0.210704
H168	H	0.263009	-0.365182	0.289296
H169	H	-0.238104	-0.804237	-0.156483
H170	H	0.261896	-0.304237	0.343517
H171	H	-0.292391	-0.865075	-0.155296
H172	H	0.207609	-0.365075	0.344704
H173	H	-0.285901	-0.933540	-0.622812
H174	H	0.214099	-0.433540	-0.122812
H175	H	-0.435491	-0.747575	-0.435187
H176	H	0.064509	-0.247575	0.064813
C177	C	-0.273438	-0.921524	-1.115879
C178	C	0.226562	-0.421524	-0.615879
C179	C	-0.207106	-0.936867	-1.099351
C180	C	0.292894	-0.436867	-0.599351
C181	C	-0.161831	-0.892073	-1.132826
C182	C	0.338169	-0.392073	-0.632826
H183	H	-0.281306	-0.874302	-1.102373
H184	H	0.218694	-0.374302	-0.602373
H185	H	-0.279846	-0.927965	-1.163310
H186	H	0.220154	-0.427965	-0.663310
H187	H	-0.200700	-0.930421	-1.051931
H188	H	0.299300	-0.430421	-0.551931
H189	H	-0.199216	-0.984082	-1.112859
H190	H	0.300784	-0.484082	-0.612859
H191	H	-0.168239	-0.898514	-1.180257
H192	H	0.331761	-0.398514	-0.680257
H193	H	-0.169705	-0.844853	-1.119317
H194	H	0.330295	-0.344853	-0.619317
H195	H	-0.116820	-0.902481	-1.121622
H196	H	0.383180	-0.402481	-0.621622
H197	H	-0.622172	-0.933352	-0.442892
H198	H	-0.122172	-0.433352	0.057108
C199	C	-0.967728	-0.921353	-0.454173
C200	C	-0.467728	-0.421353	0.045827
C201	C	-0.898652	-0.930957	-0.445319
C202	C	-0.398652	-0.430957	0.054681
C203	C	-0.861332	-0.886078	-0.486697
C204	C	-0.361332	-0.386078	0.013303
H205	H	-0.977331	-0.874145	-0.442329
H206	H	-0.477331	-0.374145	0.057671
H207	H	-0.979660	-0.931613	-0.500096
H208	H	-0.479660	-0.431613	-0.000096
H209	H	-0.886725	-0.920692	-0.399405
H210	H	-0.386725	-0.420692	0.100595
H211	H	-0.889029	-0.978155	-0.457167
H212	H	-0.389029	-0.478155	0.042833
H213	H	-0.873263	-0.896338	-0.532620
H214	H	-0.373263	-0.396338	-0.032620
H215	H	-0.870940	-0.838873	-0.474850
H216	H	-0.370940	-0.338873	0.025150
H217	H	-0.814460	-0.892593	-0.480700
H218	H	-0.314460	-0.392593	0.019300
H219	H	-0.285829	-0.933604	-0.978575
H220	H	0.214171	-0.433604	-0.478575
H221	H	-0.285883	-0.933555	-0.751046
H222	H	0.214117	-0.433555	-0.251046
H223	H	-0.449599	-1.096521	-1.113479
H224	H	0.050401	-0.596521	-0.613479
C225	C	-0.461906	-1.108762	-0.976269
C226	C	0.038094	-0.608762	-0.476269
C227	C	-0.501408	-1.148101	-1.023964
C228	C	-0.001408	-0.648101	-0.523964
C229	C	-0.546585	-1.193090	-0.990598
C230	C	-0.046585	-0.693090	-0.490598
H231	H	-0.490362	-1.081960	-0.947577
H232	H	0.009638	-0.581960	-0.447577
H233	H	-0.437296	-1.139410	-0.949981
H234	H	0.062704	-0.639410	-0.449981
H235	H	-0.526016	-1.117457	-1.050241
H236	H	-0.026016	-0.617457	-0.550241
H237	H	-0.472970	-1.174918	-1.052659
H238	H	0.027030	-0.674918	-0.552659
H239	H	-0.521975	-1.223737	-0.964310
H240	H	-0.021975	-0.723737	-0.464310
H241	H	-0.575036	-1.166281	-0.961906
H242	H	-0.075036	-0.666281	-0.461906
H243	H	-0.573388	-1.219791	-1.022954
H244	H	-0.073388	-0.719791	-0.522954
C245	C	-0.461853	-1.108610	-0.767926
C246	C	0.038147	-0.608610	-0.267926
C247	C	-0.452165	-1.099030	-0.837004
C248	C	0.047835	-0.599030	-0.337004
C249	C	-0.497219	-1.143907	-0.874320
C250	C	0.002781	-0.643907	-0.374320
H251	H	-0.506937	-1.098346	-0.755987
H252	H	-0.006937	-0.598346	-0.255987
H253	H	-0.453893	-1.155818	-0.758327
H254	H	0.046107	-0.655818	-0.258327
H255	H	-0.460131	-1.051832	-0.846599
H256	H	0.039869	-0.551832	-0.346599
H257	H	-0.407091	-1.109299	-0.848964
H258	H	0.092909	-0.609299	-0.348964
H259	H	-0.489258	-1.191115	-0.864721
H260	H	0.010742	-0.691115	-0.364721
H261	H	-0.542299	-1.133639	-0.862375
H262	H	-0.042299	-0.633639	-0.362375
H263	H	-0.490647	-1.137418	-0.921193
H264	H	0.009353	-0.637418	-0.421193
C265	C	-0.461989	-1.108684	-0.620495
C266	C	0.038011	-0.608684	-0.120495
C267	C	-0.501499	-1.148019	-0.668186
C268	C	-0.001499	-0.648019	-0.168186
C269	C	-0.546688	-1.192991	-0.634813
C270	C	-0.046688	-0.692991	-0.134813
H271	H	-0.490439	-1.081869	-0.591807
H272	H	0.009561	-0.581869	-0.091807
H273	H	-0.437387	-1.139334	-0.594203
H274	H	0.062613	-0.639334	-0.094203
H275	H	-0.526099	-1.117372	-0.694467
H276	H	-0.026099	-0.617372	-0.194467
H277	H	-0.473068	-1.174848	-0.696876
H278	H	0.026932	-0.674848	-0.196876
H279	H	-0.522086	-1.223641	-0.608520
H280	H	-0.022086	-0.723641	-0.108520
H281	H	-0.575133	-1.166170	-0.606126
H282	H	-0.075133	-0.666170	-0.106126
H283	H	-0.573497	-1.219689	-0.667166
H284	H	-0.073497	-0.719689	-0.167166
H285	H	-0.463029	-0.416078	-0.462647
H286	H	0.036971	0.083922	0.037353
C287	C	-0.441455	-0.604677	-0.441078
C288	C	0.058545	-0.104677	0.058922
C289	C	-0.481398	-0.652495	-0.480856
C290	C	0.018602	-0.152495	0.019144
C291	C	-0.523339	-0.615959	-0.522586
C292	C	-0.023339	-0.115959	-0.022586
H293	H	-0.414510	-0.576080	-0.469509
H294	H	0.085490	-0.076080	0.030491
H295	H	-0.469768	-0.576059	-0.413966
H296	H	0.030232	-0.076059	0.086034
H297	H	-0.453089	-0.681102	-0.507966
H298	H	0.046911	-0.181102	-0.007966
H299	H	-0.508357	-0.681094	-0.452443
H300	H	-0.008357	-0.181094	0.047557
H301	H	-0.551652	-0.587341	-0.495474
H302	H	-0.051652	-0.087341	0.004526
H303	H	-0.496389	-0.587363	-0.551013
H304	H	0.003611	-0.087363	-0.051013
H305	H	-0.550450	-0.648398	-0.549576
H306	H	-0.050450	-0.148398	-0.049576
H307	H	-0.457553	-0.283004	-0.457192
H308	H	0.042447	0.216996	0.042808
C309	C	-0.299424	-0.492850	-0.299376
C310	C	0.200576	0.007150	0.200624
C311	C	-0.335958	-0.450712	-0.254191
C312	C	0.164042	0.049288	0.245809
C313	C	-0.291222	-0.413980	-0.209392
C314	C	0.208778	0.086020	0.290608
H315	H	-0.268780	-0.464206	-0.324080
H316	H	0.231220	0.035794	0.175920
H317	H	-0.274946	-0.525167	-0.274924
H318	H	0.225054	-0.025167	0.225076
H319	H	-0.360424	-0.418399	-0.278641
H320	H	0.139576	0.081601	0.221359
H321	H	-0.366599	-0.479338	-0.229472
H322	H	0.133401	0.020662	0.270528
H323	H	-0.266744	-0.446297	-0.184940
H324	H	0.233256	0.053703	0.315060
H325	H	-0.260580	-0.385340	-0.234102
H326	H	0.239420	0.114660	0.265898
H327	H	-0.316004	-0.385390	-0.178725
H328	H	0.183996	0.114610	0.321275
C329	C	-0.260493	-0.604680	-0.260802
C330	C	0.239507	-0.104680	0.239198
C331	C	-0.224490	-0.652499	-0.224937
C332	C	0.275510	-0.152499	0.275063
C333	C	-0.179557	-0.615964	-0.180198
C334	C	0.320443	-0.115964	0.319802
H335	H	-0.285094	-0.576042	-0.230029
H336	H	0.214906	-0.076042	0.269971
H337	H	-0.229824	-0.576102	-0.285560
H338	H	0.270176	-0.076102	0.214440
H339	H	-0.255155	-0.681065	-0.200180
H340	H	0.244845	-0.181065	0.299820
H341	H	-0.199876	-0.681138	-0.255692
H342	H	0.300124	-0.181138	0.244308
H343	H	-0.148887	-0.587386	-0.204957
H344	H	0.351113	-0.087386	0.295043
H345	H	-0.204163	-0.587328	-0.149430
H346	H	0.295837	-0.087328	0.350570
H347	H	-0.155119	-0.648404	-0.155863
H348	H	0.344881	-0.148404	0.344137
C349	C	-0.619899	-1.108705	-0.281397
C350	C	-0.119899	-0.608705	0.218603
C351	C	-0.667602	-1.148095	-0.245164
C352	C	-0.167602	-0.648095	0.254836
C353	C	-0.634243	-1.193120	-0.203727
C354	C	-0.134243	-0.693120	0.296273
H355	H	-0.591261	-1.081925	-0.250716
H356	H	-0.091261	-0.581925	0.249284
H357	H	-0.593557	-1.139318	-0.308553
H358	H	-0.093557	-0.639318	0.191447
H359	H	-0.693933	-1.117486	-0.218010
H360	H	-0.193933	-0.617486	0.281990
H361	H	-0.696242	-1.174888	-0.275827
H362	H	-0.196242	-0.674888	0.224173
H363	H	-0.607900	-1.223733	-0.230883
H364	H	-0.107900	-0.723733	0.269117
H365	H	-0.605606	-1.166335	-0.173051
H366	H	-0.105606	-0.666335	0.326949
H367	H	-0.666603	-1.219856	-0.179143
H368	H	-0.166603	-0.719856	0.320857
C369	C	-1.123095	-1.108809	-0.281603
C370	C	-0.623095	-0.608809	0.218397
C371	C	-1.192172	-1.099240	-0.290495
C372	C	-0.692172	-0.599240	0.209505
C373	C	-1.229497	-1.144196	-0.249195
C374	C	-0.729497	-0.644196	0.250805
H375	H	-1.111220	-1.098612	-0.235664
H376	H	-0.611220	-0.598612	0.264336
H377	H	-1.113440	-1.155998	-0.293506
H378	H	-0.613440	-0.655998	0.206494
H379	H	-1.201824	-1.052061	-0.278588
H380	H	-0.701824	-0.552061	0.221412
H381	H	-1.204068	-1.109442	-0.336425
H382	H	-0.704068	-0.609442	0.163575
H383	H	-1.219842	-1.191385	-0.261098
H384	H	-0.719842	-0.691385	0.238902
H385	H	-1.217616	-1.133995	-0.203259
H386	H	-0.717616	-0.633995	0.296741
H387	H	-1.276370	-1.137714	-0.255227
H388	H	-0.776370	-0.637714	0.244773
C389	C	-0.759384	-0.921176	-0.454229
C390	C	-0.259384	-0.421176	0.045771
C391	C	-0.711684	-0.881813	-0.490491
C392	C	-0.211684	-0.381813	0.009509
C393	C	-0.745047	-0.836848	-0.531986
C394	C	-0.245047	-0.336848	-0.031986
H395	H	-0.785742	-0.890538	-0.427132
H396	H	-0.285742	-0.390538	0.072868
H397	H	-0.788009	-0.948019	-0.484887
H398	H	-0.288009	-0.448019	0.015113
H399	H	-0.683071	-0.854972	-0.459836
H400	H	-0.183071	-0.354972	0.040164
H401	H	-0.685324	-0.912433	-0.517600
H402	H	-0.185324	-0.412433	-0.017600
H403	H	-0.773672	-0.863691	-0.562645
H404	H	-0.273672	-0.363691	-0.062645
H405	H	-0.771404	-0.806215	-0.504885
H406	H	-0.271404	-0.306215	-0.004885
H407	H	-0.712688	-0.810140	-0.556600
H408	H	-0.212688	-0.310140	-0.056600
H409	H	-1.106183	-0.933529	-0.442984
H410	H	-0.606183	-0.433529	0.057016
H411	H	-0.424263	-0.527734	-0.424021
H412	H	0.075737	-0.027734	0.075979
H413	H	-0.757108	-1.096483	-0.292687
H414	H	-0.257108	-0.596483	0.207313
H415	H	-0.305750	-0.416073	-0.305870
H416	H	0.194250	0.083927	0.194130
