data_functionalizedCrystal
_audit_creation_method	'MofGen! by Chris Wilmer'
_symmetry_space_group_name_H-M	'P1'
_symmetry_Int_Tables_number	1
_symmetry_cell_setting	triclinic
loop_
_symmetry_equiv_pos_as_xyz
  x,y,z
_cell_length_a	15.995350
_cell_length_b	14.044220
_cell_length_c	13.101039
_cell_angle_alpha	86.332523
_cell_angle_beta	93.354042
_cell_angle_gamma	88.340626
loop_
_atom_site_label
_atom_site_type_symbol
_atom_site_fract_x
_atom_site_fract_y
_atom_site_fract_z
O1	O	-1.124322	-0.116953	-0.085130
O2	O	-0.624322	0.383047	0.414870
O3	O	-0.881675	-0.132040	-0.085151
O4	O	-0.381675	0.367960	0.414849
O5	O	-0.999356	0.013487	-0.085130
O6	O	-0.499356	0.513487	0.414870
O7	O	-1.006641	-0.262481	-0.085150
O8	O	-0.506641	0.237519	0.414850
O9	O	-0.990914	0.003029	0.085298
O10	O	-0.490914	0.503029	0.585298
O11	O	-0.873233	-0.142498	0.085277
O12	O	-0.373233	0.357502	0.585277
O13	O	-1.115880	-0.127412	0.085299
O14	O	-0.615880	0.372588	0.585299
Zn15	Zn	-0.993216	-0.136616	0.112347
Zn16	Zn	-0.493216	0.363384	0.612347
Zn17	Zn	-1.004339	-0.122836	-0.112199
Zn18	Zn	-0.504339	0.377164	0.387801
O19	O	-0.998199	-0.272939	0.085278
O20	O	-0.498199	0.227061	0.585278
C21	C	-0.991946	0.043573	0.000084
C22	C	-0.491946	0.543573	0.500084
C23	C	-0.982435	0.148798	0.000084
C24	C	-0.482435	0.648798	0.500084
C25	C	-0.846213	-0.136645	0.000061
C26	C	-0.346213	0.363355	0.500061
C27	C	-0.753123	-0.134775	0.000053
C28	C	-0.253123	0.365225	0.500053
C29	C	-1.151342	-0.122807	0.000085
C30	C	-0.651342	0.377193	0.500085
C31	C	-1.244432	-0.124677	0.000086
C32	C	-0.744432	0.375323	0.500086
C33	C	-0.414873	-0.128060	0.000075
C34	C	0.085127	0.371940	0.500075
C35	C	-0.454547	-0.024441	0.000462
C36	C	0.045453	0.475559	0.500462
C37	C	-0.551396	-0.026288	0.000071
C38	C	-0.051396	0.473712	0.500071
C39	C	-0.582683	-0.131391	0.000064
C40	C	-0.082683	0.368609	0.500064
C41	C	-0.550234	-0.176539	-0.097258
C42	C	-0.050234	0.323461	0.402742
C43	C	-0.453408	-0.173930	-0.097332
C44	C	0.046592	0.326070	0.402668
C45	C	-0.443629	-0.187965	0.096477
C46	C	0.056371	0.312035	0.596477
C47	C	-0.540509	-0.188019	0.097756
C48	C	-0.040509	0.311981	0.597756
C49	C	-0.677522	-0.133278	0.000055
C50	C	-0.177522	0.366722	0.500055
C51	C	-0.320034	-0.126176	0.000077
C52	C	0.179966	0.373824	0.500077
C53	C	-1.005609	-0.303024	0.000062
C54	C	-0.505609	0.196976	0.500062
C55	C	-1.015120	-0.408250	0.000055
C56	C	-0.515120	0.091750	0.500055
N57	N	-0.985631	-0.146020	0.265595
N58	N	-0.485631	0.353980	0.765595
C59	C	-0.965048	0.341461	0.000068
C60	C	-0.465048	0.841461	0.500068
C61	C	-1.032504	0.399094	0.000071
C62	C	-0.532504	0.899094	0.500071
C63	C	-1.022829	0.506298	0.000062
C64	C	-0.522829	1.006298	0.500062
C65	C	-0.974721	0.234247	0.000077
C66	C	-0.474721	0.734247	0.500077
N67	N	-1.011930	-0.113425	-0.265447
N68	N	-0.511930	0.386575	0.234553
C69	C	-0.975312	-0.158822	0.474635
C70	C	-0.475312	0.341178	0.974635
C71	C	-1.022247	-0.100625	0.525519
C72	C	-0.522247	0.399375	1.025519
C73	C	-1.016505	-0.107749	0.641837
C74	C	-0.516505	0.392251	1.141837
C75	C	-0.981052	-0.151700	0.358307
C76	C	-0.481052	0.348300	0.858307
H77	H	-0.573368	0.009614	0.069836
H78	H	-0.073368	0.509614	0.569836
C79	C	-0.877218	0.383569	0.000074
C80	C	-0.377218	0.883569	0.500074
N81	N	-0.811065	0.415296	0.000086
N82	N	-0.311065	0.915296	0.500086
H83	H	-0.930821	-0.213994	0.518425
H84	H	-0.430821	0.286006	1.018425
H85	H	-1.066742	-0.045452	0.481725
H86	H	-0.566742	0.454548	0.981725
C87	C	-0.568619	-0.292046	0.105704
C88	C	-0.068619	0.207954	0.605704
N89	N	-0.589798	-0.370401	0.111688
N90	N	-0.089798	0.129599	0.611688
C91	C	-0.420664	0.025742	0.094749
C92	C	0.079336	0.525742	0.594749
N93	N	-0.395137	0.063542	0.165767
N94	N	0.104863	0.563542	0.665767
C95	C	-1.120339	0.356984	0.000093
C96	C	-0.620339	0.856984	0.500093
N97	N	-1.186493	0.325262	0.000115
N98	N	-0.686493	0.825262	0.500115
H99	H	-0.435311	0.021055	-0.068941
H100	H	0.064689	0.521055	0.431059
H101	H	-0.579694	0.018455	-0.069810
H102	H	-0.079694	0.518455	0.430190
H103	H	-0.435919	-0.132187	-0.170079
H104	H	0.064081	0.367813	0.329921
H105	H	-0.570306	-0.253533	-0.100882
H106	H	-0.070306	0.246467	0.399118
C107	C	-0.417814	-0.276357	-0.103327
C108	C	0.082186	0.223643	0.396673
N109	N	-0.391009	-0.353503	-0.107853
N110	N	0.108991	0.146497	0.392147
H111	H	-0.416908	-0.158609	0.170244
H112	H	0.083092	0.341391	0.670244
C113	C	-0.589823	-0.122563	-0.195103
C114	C	-0.089823	0.377437	0.304897
N115	N	-0.619639	-0.081902	-0.268798
N116	N	-0.119639	0.418098	0.231202
C117	C	-0.408384	-0.291251	0.097363
C118	C	0.091616	0.208749	0.597363
N119	N	-0.381832	-0.369042	0.098023
N120	N	0.118168	0.130958	0.598023
C121	C	-0.568795	-0.143546	0.195024
C122	C	-0.068795	0.356454	0.695024
N123	N	-0.590098	-0.110040	0.268285
N124	N	-0.090098	0.389960	0.768285
