data_functionalizedCrystal
_audit_creation_method	'MofGen! by Chris Wilmer'
_symmetry_space_group_name_H-M	'P1'
_symmetry_Int_Tables_number	1
_symmetry_cell_setting	triclinic
loop_
_symmetry_equiv_pos_as_xyz
  x,y,z
_cell_length_a	21.395362
_cell_length_b	18.101395
_cell_length_c	21.395355
_cell_angle_alpha	89.984273
_cell_angle_beta	89.956060
_cell_angle_gamma	90.046983
loop_
_atom_site_label
_atom_site_type_symbol
_atom_site_fract_x
_atom_site_fract_y
_atom_site_fract_z
Zn1	Zn	0.957858	-0.294602	-0.354598
Zn2	Zn	1.207858	-0.044602	-0.104598
Zn3	Zn	1.457858	0.205398	0.145402
Zn4	Zn	1.707858	0.455398	0.395402
Zn5	Zn	0.957760	-0.418425	-0.249825
Zn6	Zn	1.207760	-0.168425	0.000175
Zn7	Zn	1.457760	0.081575	0.250175
Zn8	Zn	1.707760	0.331575	0.500175
Zn9	Zn	0.853073	-0.294636	-0.249799
Zn10	Zn	1.103073	-0.044636	0.000201
Zn11	Zn	1.353073	0.205364	0.250201
Zn12	Zn	1.603073	0.455364	0.500201
Zn13	Zn	0.853041	-0.418440	-0.354530
Zn14	Zn	1.103041	-0.168440	-0.104530
Zn15	Zn	1.353041	0.081560	0.145470
Zn16	Zn	1.603041	0.331560	0.395470
O17	O	0.905433	-0.356526	-0.302188
O18	O	1.155433	-0.106526	-0.052188
O19	O	1.405433	0.143474	0.197812
O20	O	1.655433	0.393474	0.447812
O21	O	1.045523	-0.311006	-0.340739
O22	O	1.295523	-0.061006	-0.090739
O23	O	1.545523	0.188994	0.159261
O24	O	1.795523	0.438994	0.409261
O25	O	0.943845	-0.402012	-0.162144
O26	O	1.193845	-0.152012	0.087856
O27	O	1.443845	0.097988	0.337856
O28	O	1.693845	0.347988	0.587856
O29	O	0.867027	-0.190998	-0.263718
O30	O	1.117027	0.059002	-0.013718
O31	O	1.367027	0.309002	0.236282
O32	O	1.617027	0.559002	0.486282
O33	O	1.045450	-0.401979	-0.263763
O34	O	1.295450	-0.151979	-0.013763
O35	O	1.545450	0.098021	0.236237
O36	O	1.795450	0.348021	0.486237
O37	O	0.944012	-0.190973	-0.340713
O38	O	1.194012	0.059027	-0.090713
O39	O	1.444012	0.309027	0.159287
O40	O	1.694012	0.559027	0.409287
O41	O	0.866932	-0.311065	-0.162125
O42	O	1.116932	-0.061065	0.087875
O43	O	1.366932	0.188935	0.337875
O44	O	1.616932	0.438935	0.587875
O45	O	0.765391	-0.311080	-0.263652
O46	O	1.015391	-0.061080	-0.013652
O47	O	1.265391	0.188920	0.236348
O48	O	1.515391	0.438920	0.486348
O49	O	0.866973	-0.402005	-0.442217
O50	O	1.116973	-0.152005	-0.192217
O51	O	1.366973	0.097995	0.057783
O52	O	1.616973	0.347995	0.307783
O53	O	0.765367	-0.402038	-0.340598
O54	O	1.015367	-0.152038	-0.090598
O55	O	1.265367	0.097962	0.159402
O56	O	1.515367	0.347962	0.409402
O57	O	0.943982	-0.311021	-0.442267
O58	O	1.193982	-0.061021	-0.192267
O59	O	1.443982	0.188979	0.057733
O60	O	1.693982	0.438979	0.307733
O61	O	0.943814	-0.522060	-0.263697
O62	O	1.193814	-0.272060	-0.013697
O63	O	1.443814	-0.022060	0.236303
O64	O	1.693814	0.227940	0.486303
O65	O	0.866878	-0.522071	-0.340623
O66	O	1.116878	-0.272071	-0.090623
O67	O	1.366878	-0.022071	0.159377
O68	O	1.616878	0.227929	0.409377
C69	C	0.742645	-0.356565	-0.302115
C70	C	0.992645	-0.106565	-0.052115
C71	C	1.242645	0.143435	0.197885
C72	C	1.492645	0.393435	0.447885
C73	C	0.673004	-0.356599	-0.302099
C74	C	0.923004	-0.106599	-0.052099
C75	C	1.173004	0.143401	0.197901
C76	C	1.423004	0.393401	0.447901
C77	C	0.640295	-0.404024	-0.342105
C78	C	0.890295	-0.154024	-0.092105
C79	C	1.140295	0.095976	0.157895
C80	C	1.390295	0.345976	0.407895
C81	C	0.574860	-0.404006	-0.342133
C82	C	0.824860	-0.154006	-0.092133
C83	C	1.074860	0.095994	0.157867
C84	C	1.324860	0.345994	0.407867
C85	C	0.542136	-0.356571	-0.302144
C86	C	0.792136	-0.106571	-0.052144
C87	C	1.042136	0.143429	0.197856
C88	C	1.292136	0.393429	0.447856
C89	C	0.574852	-0.309137	-0.262135
C90	C	0.824852	-0.059137	-0.012135
C91	C	1.074852	0.190863	0.237865
C92	C	1.324852	0.440863	0.487865
C93	C	0.640286	-0.309151	-0.262113
C94	C	0.890286	-0.059151	-0.012113
C95	C	1.140286	0.190849	0.237887
C96	C	1.390286	0.440849	0.487887
C97	C	0.438411	-0.350605	-0.245738
C98	C	0.688411	-0.100605	0.004262
C99	C	0.938411	0.149395	0.254262
C100	C	1.188411	0.399395	0.504262
C101	C	0.372978	-0.350596	-0.245760
C102	C	0.622978	-0.100596	0.004240
C103	C	0.872978	0.149404	0.254240
C104	C	1.122978	0.399404	0.504240
C105	C	0.340315	-0.356523	-0.302213
C106	C	0.590315	-0.106523	-0.052213
C107	C	0.840315	0.143477	0.197787
C108	C	1.090315	0.393477	0.447787
C109	C	0.373093	-0.362474	-0.358647
C110	C	0.623093	-0.112474	-0.108647
C111	C	0.873093	0.137526	0.141353
C112	C	1.123093	0.387526	0.391353
C113	C	0.438527	-0.362488	-0.358624
C114	C	0.688527	-0.112488	-0.108624
C115	C	0.938527	0.137512	0.141376
C116	C	1.188527	0.387512	0.391376
C117	C	0.471183	-0.356550	-0.302164
C118	C	0.721183	-0.106550	-0.052164
C119	C	0.971183	0.143450	0.197836
C120	C	1.221183	0.393450	0.447836
C121	C	0.236654	-0.403930	-0.342252
C122	C	0.486654	-0.153930	-0.092252
C123	C	0.736654	0.096070	0.157748
C124	C	0.986654	0.346070	0.407748
C125	C	0.171217	-0.403907	-0.342281
C126	C	0.421217	-0.153907	-0.092281
C127	C	0.671217	0.096093	0.157719
C128	C	0.921217	0.346093	0.407719
C129	C	0.171211	-0.309042	-0.262278
C130	C	0.421211	-0.059042	-0.012278
C131	C	0.671211	0.190958	0.237722
C132	C	0.921211	0.440958	0.487722
C133	C	0.236646	-0.309061	-0.262255
C134	C	0.486646	-0.059061	-0.012255
C135	C	0.736646	0.190939	0.237745
C136	C	0.986646	0.440939	0.487745
C137	C	0.269364	-0.356509	-0.302241
C138	C	0.519364	-0.106509	-0.052241
C139	C	0.769364	0.143491	0.197759
C140	C	1.019364	0.393491	0.447759
C141	C	0.905349	-0.548936	-0.302170
C142	C	1.155349	-0.298936	-0.052170
C143	C	1.405349	-0.048936	0.197830
C144	C	1.655349	0.201064	0.447830
C145	C	0.905370	-0.631250	-0.302183
C146	C	1.155370	-0.381250	-0.052183
C147	C	1.405370	-0.131250	0.197817
C148	C	1.655370	0.118750	0.447817
C149	C	0.905508	-0.930341	-0.302216
C150	C	1.155508	-0.680341	-0.052216
C151	C	1.405508	-0.430341	0.197784
C152	C	1.655508	-0.180341	0.447784
C153	C	0.857214	-0.899054	-0.350736
C154	C	1.107214	-0.649054	-0.100736
C155	C	1.357214	-0.399054	0.149264
C156	C	1.607214	-0.149054	0.399264
C157	C	0.856985	-0.813436	-0.350585
C158	C	1.106985	-0.563436	-0.100585
C159	C	1.356985	-0.313436	0.149415
C160	C	1.606985	-0.063436	0.399415
C161	C	0.905440	-0.781959	-0.302200
C162	C	1.155440	-0.531959	-0.052200
C163	C	1.405440	-0.281959	0.197800
C164	C	1.655440	-0.031959	0.447800
C165	C	0.887557	-0.813100	-0.236161
C166	C	1.137557	-0.563100	0.013839
C167	C	1.387557	-0.313100	0.263839
C168	C	1.637557	-0.063100	0.513839
C169	C	0.887246	-0.898745	-0.236451
C170	C	1.137246	-0.648745	0.013549
C171	C	1.387246	-0.398745	0.263549
C172	C	1.637246	-0.148745	0.513549
C173	C	0.971790	-0.898667	-0.319154
C174	C	1.221790	-0.648667	-0.069154
C175	C	1.471790	-0.398667	0.180846
C176	C	1.721790	-0.148667	0.430846
C177	C	0.971400	-0.813017	-0.320602
C178	C	1.221400	-0.563017	-0.070602
C179	C	1.471400	-0.313017	0.179398
C180	C	1.721400	-0.063017	0.429398
C181	C	0.905402	-0.698099	-0.302187
C182	C	1.155402	-0.448099	-0.052187
C183	C	1.405402	-0.198099	0.197813
C184	C	1.655402	0.051901	0.447813
C185	C	0.905544	-1.014201	-0.302225
C186	C	1.155544	-0.764201	-0.052225
C187	C	1.405544	-0.514201	0.197775
C188	C	1.655544	-0.264201	0.447775
C189	C	1.068856	-0.356487	-0.302261
C190	C	1.318856	-0.106487	-0.052261
C191	C	1.568856	0.143513	0.197739
C192	C	1.818856	0.393513	0.447739
C193	C	1.138497	-0.356470	-0.302293
C194	C	1.388497	-0.106470	-0.052293
C195	C	1.638497	0.143530	0.197707
C196	C	1.888497	0.393530	0.447707
C197	C	0.905485	-0.356511	-0.465611
C198	C	1.155485	-0.106511	-0.215611
C199	C	1.405485	0.143489	0.034389
C200	C	1.655485	0.393489	0.284389
C201	C	0.905507	-0.356504	-0.535253
C202	C	1.155507	-0.106504	-0.285253
C203	C	1.405507	0.143496	-0.035253
C204	C	1.655507	0.393496	0.214747
C205	C	0.905534	-0.163364	-0.302220
C206	C	1.155534	0.086636	-0.052220
C207	C	1.405534	0.336636	0.197780
C208	C	1.655534	0.586636	0.447780
C209	C	0.905577	-0.081050	-0.302234
C210	C	1.155577	0.168950	-0.052234
C211	C	1.405577	0.418950	0.197766
C212	C	1.655577	0.668950	0.447766
C213	C	0.945603	-0.309127	-0.567993
C214	C	1.195603	-0.059127	-0.317993
C215	C	1.445603	0.190873	-0.067993
C216	C	1.695603	0.440873	0.182007
C217	C	0.945603	-0.309095	-0.633428
C218	C	1.195603	-0.059095	-0.383428
C219	C	1.445603	0.190905	-0.133428
C220	C	1.695603	0.440905	0.116572
C221	C	0.905512	-0.356454	-0.666121
C222	C	1.155512	-0.106454	-0.416121
C223	C	1.405512	0.143546	-0.166121
C224	C	1.655512	0.393546	0.083879
C225	C	0.865408	-0.403834	-0.633373
C226	C	1.115408	-0.153834	-0.383373
C227	C	1.365408	0.096166	-0.133373
C228	C	1.615408	0.346166	0.116627
C229	C	0.865405	-0.403859	-0.567939
C230	C	1.115405	-0.153859	-0.317939
C231	C	1.365405	0.096141	-0.067939
C232	C	1.615405	0.346141	0.182061
C233	C	0.900536	-0.423137	-0.769788
C234	C	1.150536	-0.173137	-0.519788
C235	C	1.400536	0.076863	-0.269788
C236	C	1.650536	0.326863	-0.019788
C237	C	0.900542	-0.423113	-0.835221
C238	C	1.150542	-0.173113	-0.585221
C239	C	1.400542	0.076887	-0.335221
C240	C	1.650542	0.326887	-0.085221
C241	C	0.905516	-0.356375	-0.867942
C242	C	1.155516	-0.106375	-0.617942
C243	C	1.405516	0.143625	-0.367942
C244	C	1.655516	0.393625	-0.117942
C245	C	0.910495	-0.289660	-0.835222
C246	C	1.160495	-0.039660	-0.585222
C247	C	1.410495	0.210340	-0.335222
C248	C	1.660495	0.460340	-0.085222
C249	C	0.910493	-0.289685	-0.769788
C250	C	1.160493	-0.039685	-0.519788
C251	C	1.410493	0.210315	-0.269788
C252	C	1.660493	0.460315	-0.019788
C253	C	0.905510	-0.356431	-0.737073
C254	C	1.155510	-0.106431	-0.487073
C255	C	1.405510	0.143569	-0.237073
C256	C	1.655510	0.393569	0.012927
C257	C	0.945613	-0.308960	-0.971635
C258	C	1.195613	-0.058960	-0.721635
C259	C	1.445613	0.191040	-0.471635
C260	C	1.695613	0.441040	-0.221635
C261	C	0.945608	-0.308927	-1.037071
C262	C	1.195608	-0.058927	-0.787071
C263	C	1.445608	0.191073	-0.537071
C264	C	1.695608	0.441073	-0.287071
C265	C	0.865416	-0.403672	-1.037015
C266	C	1.115416	-0.153672	-0.787015
C267	C	1.365416	0.096328	-0.537015
C268	C	1.615416	0.346328	-0.287015
C269	C	0.865418	-0.403699	-0.971580
C270	C	1.115418	-0.153699	-0.721580
C271	C	1.365418	0.096301	-0.471580
C272	C	1.615418	0.346301	-0.221580
C273	C	0.905520	-0.356344	-0.938893
C274	C	1.155520	-0.106344	-0.688893
C275	C	1.405520	0.143656	-0.438893
C276	C	1.655520	0.393656	-0.188893
C277	C	0.905417	-0.356487	-0.139400
C278	C	1.155417	-0.106487	0.110600
C279	C	1.405417	0.143513	0.360600
C280	C	1.655417	0.393513	0.610600
C281	C	0.905516	-0.356285	-0.069760
C282	C	1.155516	-0.106285	0.180240
C283	C	1.405516	0.143715	0.430240
C284	C	1.655516	0.393715	0.680240
H285	H	0.666918	-0.270530	-0.229536
H286	H	0.916918	-0.020530	0.020464
H287	H	1.166918	0.229470	0.270464
H288	H	1.416918	0.479470	0.520464
H289	H	0.914546	-0.235316	-0.861862
H290	H	1.164546	0.014684	-0.611862
H291	H	1.414546	0.264684	-0.361862
H292	H	1.664546	0.514684	-0.111862
H293	H	0.896318	-0.477468	-0.743152
H294	H	1.146318	-0.227468	-0.493152
H295	H	1.396318	0.022532	-0.243152
H296	H	1.646318	0.272532	0.006848
H297	H	0.807855	-0.793026	-0.339363
H298	H	1.057855	-0.543026	-0.089363
H299	H	1.307855	-0.293026	0.160637
H300	H	1.557855	-0.043026	0.410637
H301	H	0.984886	-0.792661	-0.369204
H302	H	1.234886	-0.542661	-0.119204
H303	H	1.484886	-0.292661	0.130796
H304	H	1.734886	-0.042661	0.380796
H305	H	0.920895	-0.919443	-0.199066
H306	H	1.170895	-0.669443	0.050934
H307	H	1.420895	-0.419443	0.300934
H308	H	1.670895	-0.169443	0.550934
H309	H	0.263278	-0.270446	-0.229675
H310	H	0.513278	-0.020446	0.020325
H311	H	0.763278	0.229554	0.270325
H312	H	1.013278	0.479554	0.520325
H313	H	0.144587	-0.442524	-0.374862
H314	H	0.394587	-0.192524	-0.124862
H315	H	0.644587	0.057476	0.125138
H316	H	0.894587	0.307476	0.375138
H317	H	0.921625	-0.792710	-0.199023
H318	H	1.171625	-0.542710	0.050977
H319	H	1.421625	-0.292710	0.300977
H320	H	1.671625	-0.042710	0.550977
H321	H	0.988093	-0.920221	-0.366491
H322	H	1.238093	-0.670221	-0.116491
H323	H	1.488093	-0.420221	0.133509
H324	H	1.738093	-0.170221	0.383509
H325	H	0.838794	-0.918801	-0.222106
H326	H	1.088794	-0.668801	0.027894
H327	H	1.338794	-0.418801	0.277894
H328	H	1.588794	-0.168801	0.527894
H329	H	0.978259	-0.270342	-1.063727
H330	H	1.228259	-0.020342	-0.813727
H331	H	1.478259	0.229658	-0.563727
H332	H	1.728259	0.479658	-0.313727
H333	H	0.548223	-0.442625	-0.374712
H334	H	0.798223	-0.192625	-0.124712
H335	H	1.048223	0.057375	0.125288
H336	H	1.298223	0.307375	0.375288
H337	H	0.666930	-0.442659	-0.374665
H338	H	0.916930	-0.192659	-0.124665
H339	H	1.166930	0.057341	0.125335
H340	H	1.416930	0.307341	0.375335
H341	H	0.465212	-0.367332	-0.404575
H342	H	0.715212	-0.117332	-0.154575
H343	H	0.965212	0.132668	0.095425
H344	H	1.215212	0.382668	0.345425
H345	H	0.978263	-0.270396	-0.945020
H346	H	1.228263	-0.020396	-0.695020
H347	H	1.478263	0.229604	-0.445020
H348	H	1.728263	0.479604	-0.195020
H349	H	0.346500	-0.367299	-0.404617
H350	H	0.596500	-0.117299	-0.154617
H351	H	0.846500	0.132701	0.095383
H352	H	1.096500	0.382701	0.345383
H353	H	0.868173	-0.792380	-0.399551
H354	H	1.118173	-0.542380	-0.149551
H355	H	1.368173	-0.292380	0.100449
H356	H	1.618173	-0.042380	0.350449
H357	H	0.144568	-0.270415	-0.229722
H358	H	0.394568	-0.020415	0.020278
H359	H	0.644568	0.229585	0.270278
H360	H	0.894568	0.479585	0.520278
H361	H	0.832767	-0.442225	-1.063633
H362	H	1.082767	-0.192225	-0.813633
H363	H	1.332767	0.057775	-0.563633
H364	H	1.582767	0.307775	-0.313633
H365	H	0.346295	-0.345754	-0.199808
H366	H	0.596295	-0.095754	0.050192
H367	H	0.846295	0.154246	0.300192
H368	H	1.096295	0.404246	0.550192
H369	H	0.465000	-0.345775	-0.199764
H370	H	0.715000	-0.095775	0.050236
H371	H	0.965000	0.154225	0.300236
H372	H	1.215000	0.404225	0.550236
H373	H	0.548204	-0.270514	-0.229577
H374	H	0.798204	-0.020514	0.020423
H375	H	1.048204	0.229486	0.270423
H376	H	1.298204	0.479486	0.520423
H377	H	0.868292	-0.919610	-0.399862
H378	H	1.118292	-0.669610	-0.149862
H379	H	1.368292	-0.419610	0.100138
H380	H	1.618292	-0.169610	0.350138
H381	H	0.808383	-0.920654	-0.339656
H382	H	1.058383	-0.670654	-0.089656
H383	H	1.308383	-0.420654	0.160344
H384	H	1.558383	-0.170654	0.410344
H385	H	0.263294	-0.442562	-0.374814
H386	H	0.513294	-0.192562	-0.124814
H387	H	0.763294	0.057438	0.125186
H388	H	1.013294	0.307438	0.375186
H389	H	0.832771	-0.442283	-0.944922
H390	H	1.082771	-0.192283	-0.694922
H391	H	1.332771	0.057717	-0.444922
H392	H	1.582771	0.307717	-0.194922
H393	H	0.839618	-0.791728	-0.221559
H394	H	1.089618	-0.541728	0.028441
H395	H	1.339618	-0.291728	0.278441
H396	H	1.589618	-0.041728	0.528441
H397	H	1.009286	-0.791584	-0.287841
H398	H	1.259286	-0.541584	-0.037841
H399	H	1.509286	-0.291584	0.212159
H400	H	1.759286	-0.041584	0.462159
H401	H	0.914546	-0.235363	-0.743150
H402	H	1.164546	0.014637	-0.493150
H403	H	1.414546	0.264637	-0.243150
H404	H	1.664546	0.514637	0.006850
H405	H	0.978257	-0.270566	-0.541384
H406	H	1.228257	-0.020566	-0.291384
H407	H	1.478257	0.229434	-0.041384
H408	H	1.728257	0.479434	0.208616
H409	H	0.896491	-0.477437	-0.861856
H410	H	1.146491	-0.227437	-0.611856
H411	H	1.396491	0.022563	-0.361856
H412	H	1.646491	0.272563	-0.111856
H413	H	1.007771	-0.918897	-0.283816
H414	H	1.257771	-0.668897	-0.033816
H415	H	1.507771	-0.418897	0.216184
H416	H	1.757771	-0.168897	0.466184
H417	H	0.832763	-0.442392	-0.659996
H418	H	1.082763	-0.192392	-0.409996
H419	H	1.332763	0.057608	-0.159996
H420	H	1.582763	0.307608	0.090004
H421	H	0.978253	-0.270511	-0.660090
H422	H	1.228253	-0.020511	-0.410090
H423	H	1.478253	0.229489	-0.160090
H424	H	1.728253	0.479489	0.089910
H425	H	0.832751	-0.442439	-0.541282
H426	H	1.082751	-0.192439	-0.291282
H427	H	1.332751	0.057561	-0.041282
H428	H	1.582751	0.307561	0.208718
