data_functionalizedCrystal
_audit_creation_method	'MofGen! by Chris Wilmer'
_symmetry_space_group_name_H-M	'P1'
_symmetry_Int_Tables_number	1
_symmetry_cell_setting	triclinic
loop_
_symmetry_equiv_pos_as_xyz
  x,y,z
_cell_length_a	10.654554
_cell_length_b	15.625429
_cell_length_c	9.730223
_cell_angle_alpha	71.921515
_cell_angle_beta	89.999030
_cell_angle_gamma	84.353028
loop_
_atom_site_label
_atom_site_type_symbol
_atom_site_fract_x
_atom_site_fract_y
_atom_site_fract_z
O1	O	1.666509	0.126639	-0.177418
O2	O	1.300906	0.138698	-0.183425
O3	O	1.493479	0.001495	-0.115049
O4	O	1.473936	0.263842	-0.245794
O5	O	1.493477	0.001498	0.113529
O6	O	1.300903	0.138702	0.045154
O7	O	1.666507	0.126642	0.051160
Zn8	Zn	1.483705	0.132672	0.084449
Zn9	Zn	1.483708	0.132668	-0.216713
O10	O	1.473934	0.263846	-0.017215
C11	C	1.254116	0.137813	-0.068693
C12	C	1.114701	0.135162	-0.067371
C13	C	0.933034	0.049392	-0.024644
C14	C	1.064029	0.051883	-0.025872
C15	C	1.034369	0.215954	-0.107631
C16	C	0.903376	0.213463	-0.106394
C17	C	0.950159	-0.045333	0.022553
C18	C	1.081155	-0.042842	0.021326
C19	C	1.492594	-0.032096	0.015979
C20	C	1.489947	-0.132191	0.065854
C21	C	1.481210	-0.461402	-0.393052
C22	C	1.478717	-0.555456	-0.346144
C23	C	1.478715	-0.555439	-0.096965
C24	C	1.481214	-0.461383	-0.143851
C25	C	1.482460	-0.414372	-0.291897
C26	C	1.482464	-0.414353	-0.042696
C27	C	1.484957	-0.320305	-0.089580
C28	C	1.486200	-0.273288	-0.237619
C29	C	1.484953	-0.320324	-0.338781
C30	C	1.481209	-0.461365	0.105349
C31	C	1.482460	-0.414335	0.206504
C32	C	1.484961	-0.320287	0.159621
C33	C	1.486204	-0.273269	0.011582
C34	C	1.486208	-0.273250	0.260783
C35	C	1.488701	-0.179202	0.213899
C36	C	1.488697	-0.179221	-0.035302
C37	C	1.713297	0.127527	-0.063574
C38	C	1.852712	0.130179	-0.064906
C39	C	1.474818	0.297436	-0.148246
C40	C	1.477466	0.397531	-0.198130
N41	N	1.483712	0.132675	0.289984
N42	N	1.483711	0.132658	-0.422245
C43	C	1.569005	0.071942	0.392176
C44	C	1.569002	0.071931	0.536065
C45	C	1.398408	0.193394	0.475552
C46	C	1.398406	0.193400	0.331668
C47	C	1.667500	0.001819	0.427113
C48	C	1.667497	0.001808	0.571001
H49	H	0.837981	0.279247	-0.139162
H50	H	1.328943	0.242845	0.248466
N51	N	1.628006	-0.084928	0.673350
H52	H	1.698544	-0.115176	0.746857
H53	H	1.550073	-0.070807	0.724690
H54	H	1.481440	-0.452624	0.327043
H55	H	1.763847	0.017256	0.602353
H56	H	1.075635	0.283762	-0.141408
H57	H	1.127091	-0.071465	0.134290
H58	H	1.489692	-0.140907	0.296269
N59	N	0.911773	-0.094394	0.173714
H60	H	0.851499	-0.052468	0.209360
H61	H	0.869031	-0.149095	0.172673
N62	N	1.640052	-0.089962	0.421110
H63	H	1.640048	-0.089995	0.317327
H64	H	1.707043	-0.137633	0.479532
H65	H	1.485181	-0.311539	0.381321
N66	N	0.903368	-0.085290	-0.088260
H67	H	0.977108	-0.102765	-0.142711
H68	H	0.859991	-0.140735	-0.037799
H69	H	1.123285	-0.078531	-0.056551
H70	H	1.489723	-0.140943	-0.155855
H71	H	1.488216	-0.196707	-0.275790
H72	H	1.328954	0.242834	0.509508
N73	N	1.787973	0.030903	0.353488
H74	H	1.846184	0.044950	0.423744
H75	H	1.830597	-0.019504	0.320149
H76	H	1.485979	-0.282046	-0.459333
H77	H	1.482236	-0.423124	-0.513605
N78	N	1.477320	-0.606179	-0.455257
H79	H	1.478472	-0.562122	-0.556154
H80	H	1.554060	-0.652035	-0.437866
H81	H	1.479166	-0.537944	0.143516
N82	N	1.477387	-0.606147	0.062708
H83	H	1.475624	-0.672863	0.077062
H84	H	1.555624	-0.596522	0.112296
