data_functionalizedCrystal
_audit_creation_method	'MofGen! by Chris Wilmer'
_symmetry_space_group_name_H-M	'P1'
_symmetry_Int_Tables_number	1
_symmetry_cell_setting	triclinic
loop_
_symmetry_equiv_pos_as_xyz
  x,y,z
_cell_length_a	16.974800
_cell_length_b	15.455313
_cell_length_c	16.974813
_cell_angle_alpha	89.012317
_cell_angle_beta	83.627081
_cell_angle_gamma	90.973911
loop_
_atom_site_label
_atom_site_type_symbol
_atom_site_fract_x
_atom_site_fract_y
_atom_site_fract_z
O1	O	1.049303	-0.005495	0.100458
O2	O	1.549303	0.494505	0.600458
O3	O	0.819898	-0.022451	0.112492
O4	O	1.319898	0.477549	0.612492
O5	O	0.940611	-0.005496	-0.008229
O6	O	1.440611	0.494504	0.491771
O7	O	0.928591	-0.022451	0.221179
O8	O	1.428591	0.477549	0.721179
O9	O	0.933708	0.137799	-0.001354
O10	O	1.433708	0.637799	0.498646
O11	O	0.812995	0.120843	0.119367
O12	O	1.312995	0.620843	0.619367
O13	O	1.042400	0.137799	0.107332
O14	O	1.542400	0.637799	0.607332
Cu15	Cu	0.927068	0.142405	0.113978
Cu16	Cu	1.427068	0.642405	0.613978
Cu17	Cu	0.935231	-0.027057	0.105847
Cu18	Cu	1.435231	0.472943	0.605847
O19	O	0.921688	0.120844	0.228054
O20	O	1.421688	0.620844	0.728054
C21	C	0.787086	0.047175	0.115346
C22	C	1.287086	0.547175	0.615346
C23	C	0.699600	0.041154	0.113597
C24	C	1.199600	0.541154	0.613597
C25	C	0.654741	0.116437	0.116521
C26	C	1.154741	0.616437	0.616521
C27	C	0.572541	0.110782	0.114866
C28	C	1.072541	0.610782	0.614866
C29	C	0.535200	0.029844	0.110292
C30	C	1.035200	0.529844	0.610292
C31	C	0.580066	-0.045445	0.107365
C32	C	1.080066	0.454555	0.607365
C33	C	0.662265	-0.039789	0.109015
C34	C	1.162265	0.460211	0.609015
C35	C	0.289764	0.004554	0.104950
C36	C	0.789764	0.504554	0.604950
C37	C	0.207558	-0.001096	0.103303
C38	C	0.707558	0.498904	0.603303
C39	C	0.200039	0.155132	0.110802
C40	C	0.700039	0.655132	0.610802
C41	C	0.282240	0.160780	0.112457
C42	C	0.782240	0.660780	0.612457
C43	C	0.327098	0.085492	0.109526
C44	C	0.827098	0.585492	0.609526
N45	N	0.451178	0.024062	0.108602
N46	N	0.951178	0.524062	0.608602
N47	N	0.411120	0.091275	0.111210
N48	N	0.911120	0.591275	0.611210
C49	C	1.075213	0.068171	0.104479
C50	C	1.575213	0.568171	0.604479
C51	C	1.162699	0.074187	0.106227
C52	C	1.662699	0.574187	0.606227
N53	N	0.921331	0.261596	0.119695
N54	N	1.421331	0.761596	0.619695
N55	N	0.940973	-0.146247	0.100123
N56	N	1.440973	0.353753	0.600123
C57	C	0.936574	0.068171	-0.034153
C58	C	1.436574	0.568171	0.465847
C59	C	0.934820	0.074186	-0.121639
C60	C	1.434820	0.574186	0.378361
C61	C	0.972632	0.314194	0.068428
C62	C	1.472632	0.814194	0.568428
C63	C	0.968302	0.404393	0.072759
C64	C	1.468302	0.904393	0.572759
C65	C	0.912673	0.441994	0.128363
C66	C	1.412673	0.941994	0.628363
C67	C	0.861367	0.389389	0.179633
C68	C	1.361367	0.889389	0.679633
C69	C	0.865694	0.299192	0.175297
C70	C	1.365694	0.799192	0.675297
C71	C	0.893994	0.710950	0.147057
C72	C	1.393994	1.210950	0.647057
C73	C	0.889672	0.801155	0.151391
C74	C	1.389672	1.301155	0.651391
C75	C	0.996607	0.816153	0.044516
C76	C	1.496607	1.316153	0.544516
C77	C	1.000932	0.725953	0.040188
C78	C	1.500932	1.225953	0.540188
C79	C	0.949623	0.673356	0.091455
C80	C	1.449623	1.173356	0.591455
N81	N	0.908247	0.534192	0.132793
N82	N	1.408247	1.034192	0.632793
N83	N	0.954046	0.581160	0.087020
N84	N	1.454046	1.081160	0.587020
C85	C	0.937761	-0.001097	-0.166483
C86	C	1.437761	0.498903	0.333517
C87	C	0.936108	0.004558	-0.248685
C88	C	1.436108	0.504558	0.251315
C89	C	0.931519	0.085496	-0.286042
C90	C	1.431519	0.585496	0.213958
C91	C	0.928576	0.160785	-0.241192
C92	C	1.428576	0.660785	0.258808
C93	C	0.930224	0.155129	-0.158990
C94	C	1.430224	0.655129	0.341010
C95	C	0.926183	0.110787	-0.531485
C96	C	1.426183	0.610787	-0.031485
C97	C	0.924538	0.116437	-0.613692
C98	C	1.424538	0.616437	-0.113692
C99	C	0.932068	-0.039791	-0.621180
C100	C	1.432068	0.460209	-0.121180
C101	C	0.933720	-0.045439	-0.538978
C102	C	1.433720	0.454561	-0.038978
C103	C	0.930773	0.029849	-0.494134
C104	C	1.430773	0.529849	0.005866
N105	N	0.929832	0.091278	-0.370066
N106	N	1.429832	0.591278	0.129934
N107	N	0.932454	0.024066	-0.410111
N108	N	1.432454	0.524066	0.089889
C109	C	0.925725	0.047175	0.253977
C110	C	1.425725	0.547175	0.753977
C111	C	0.927479	0.041154	0.341463
C112	C	1.427479	0.541154	0.841463
H113	H	0.326278	-0.056751	0.102561
H114	H	0.826278	0.443249	0.602561
C115	C	0.711614	-0.122598	0.105800
C116	C	1.211614	0.377402	0.605800
H117	H	0.765917	-0.107638	0.107430
H118	H	1.265917	0.392362	0.607430
H119	H	0.693782	-0.159262	0.149901
H120	H	1.193782	0.340738	0.649901
H121	H	0.705595	-0.151976	0.058071
H122	H	1.205595	0.348024	0.558071
H123	H	0.549657	-0.111346	0.103635
H124	H	1.049657	0.388654	0.603635
H125	H	0.312637	0.226689	0.116177
H126	H	0.812637	0.726689	0.616177
H127	H	0.685137	0.182345	0.120253
H128	H	1.185137	0.682345	0.620253
H129	H	0.177157	-0.067010	0.099580
H130	H	0.677157	0.432990	0.599580
C131	C	0.919494	0.205472	-0.654788
C132	C	1.419494	0.705472	-0.154788
H133	H	0.918947	0.198055	-0.710168
H134	H	1.418947	0.698055	-0.210168
H135	H	0.872306	0.233005	-0.633878
H136	H	1.372306	0.733005	-0.133878
H137	H	0.964136	0.240277	-0.645682
H138	H	1.464136	0.740277	-0.145682
C139	C	1.053034	0.874010	-0.011880
C140	C	1.553034	1.374010	0.488120
H141	H	1.042487	0.933114	-0.001341
H142	H	1.542487	1.433114	0.498659
H143	H	1.106355	0.862297	-0.003890
H144	H	1.606355	1.362297	0.496110
H145	H	1.045059	0.862320	-0.065210
H146	H	1.545059	1.362320	0.434790
H147	H	0.923799	0.172093	-0.494985
H148	H	1.423799	0.672093	0.005015
H149	H	0.163506	0.216427	0.113187
H150	H	0.663506	0.716427	0.613187
C151	C	0.923532	0.249816	-0.282282
C152	C	1.423532	0.749816	0.217718
H153	H	0.922981	0.242404	-0.337662
H154	H	1.422981	0.742404	0.162338
H155	H	0.876345	0.277348	-0.261367
H156	H	1.376345	0.777348	0.238633
H157	H	0.968175	0.284620	-0.273177
H158	H	1.468175	0.784620	0.226823
C159	C	1.024740	0.462247	0.016372
C160	C	1.524740	0.962247	0.516372
H161	H	1.058498	0.426935	-0.017355
H162	H	1.558498	0.926935	0.482645
H163	H	0.994641	0.497761	-0.014826
H164	H	1.494641	0.997761	0.485174
H165	H	1.055917	0.497728	0.046515
H166	H	1.555917	0.997728	0.546515
H167	H	1.017934	0.283586	0.023153
H168	H	1.517934	0.783586	0.523153
H169	H	0.927818	0.216432	-0.122477
H170	H	1.427818	0.716432	0.377523
C171	C	0.828437	0.842514	0.212515
C172	C	1.328437	1.342514	0.712515
H173	H	0.798482	0.798272	0.242411
H174	H	1.298482	1.298272	0.742411
H175	H	0.855127	0.877393	0.247109
H176	H	1.355127	1.377393	0.747109
H177	H	0.793903	0.877384	0.185716
H178	H	1.293903	1.377384	0.685716
C179	C	1.062119	0.684598	-0.020981
C180	C	1.562119	1.184598	0.479019
H181	H	1.092048	0.728843	-0.050899
H182	H	1.592048	1.228843	0.449101
H183	H	1.096673	0.649709	0.005766
H184	H	1.596673	1.149709	0.505766
H185	H	1.035379	0.649739	-0.055558
H186	H	1.535379	1.149739	0.444442
H187	H	0.816069	0.420009	0.224904
H188	H	1.316069	0.920009	0.724904
C189	C	0.523135	0.193552	0.118560
C190	C	1.023135	0.693552	0.618560
H191	H	0.468815	0.178583	0.117058
H192	H	0.968815	0.678583	0.617058
H193	H	0.529325	0.222598	0.166416
H194	H	1.029325	0.722598	0.666416
H195	H	0.540762	0.230524	0.074613
H196	H	1.040762	0.730524	0.574613
C197	C	0.837563	0.653106	0.203455
C198	C	1.337563	1.153106	0.703455
H199	H	0.803822	0.688420	0.237197
H200	H	1.303822	1.188420	0.737197
H201	H	0.806382	0.617620	0.173328
H202	H	1.306382	1.117620	0.673328
H203	H	0.867676	0.617596	0.234651
H204	H	1.367676	1.117596	0.734651
C205	C	0.809267	0.241331	0.231691
C206	C	1.309267	0.741331	0.731691
H207	H	0.819806	0.182227	0.221141
H208	H	1.319806	0.682227	0.721141
H209	H	0.817230	0.253015	0.285021
H210	H	1.317230	0.753015	0.785021
H211	H	0.755945	0.253045	0.223689
H212	H	1.255945	0.753045	0.723689
C213	C	0.942807	-0.090130	-0.125398
C214	C	1.442807	0.409870	0.374602
H215	H	0.944314	-0.134156	-0.163881
H216	H	1.444314	0.365844	0.336119
H217	H	0.989518	-0.091948	-0.099393
H218	H	1.489518	0.408052	0.400607
H219	H	0.897688	-0.099222	-0.087581
H220	H	1.397688	0.400778	0.412419
C221	C	0.939328	-0.078255	-0.298009
C222	C	1.439328	0.421745	0.201991
H223	H	0.942302	-0.127268	-0.263988
H224	H	1.442302	0.372732	0.236012
H225	H	0.892924	-0.082929	-0.324316
H226	H	1.392924	0.417071	0.175684
H227	H	0.984754	-0.075665	-0.336145
H228	H	1.484754	0.424335	0.163855
C229	C	0.938757	-0.134473	-0.497890
C230	C	1.438757	0.365527	0.002110
H231	H	0.940264	-0.178501	-0.536370
H232	H	1.440264	0.321499	-0.036370
H233	H	0.985466	-0.136291	-0.471882
H234	H	1.485466	0.363709	0.028118
H235	H	0.893636	-0.143560	-0.460074
H236	H	1.393636	0.356440	0.039926
H237	H	0.934466	-0.101086	-0.657701
H238	H	1.434466	0.398914	-0.157701
