data_functionalizedCrystal
_audit_creation_method	'MofGen! by Chris Wilmer'
_symmetry_space_group_name_H-M	'P1'
_symmetry_Int_Tables_number	1
_symmetry_cell_setting	triclinic
loop_
_symmetry_equiv_pos_as_xyz
  x,y,z
_cell_length_a	18.627255
_cell_length_b	18.627235
_cell_length_c	18.627297
_cell_angle_alpha	90.003162
_cell_angle_beta	120.002008
_cell_angle_gamma	59.999879
loop_
_atom_site_label
_atom_site_type_symbol
_atom_site_fract_x
_atom_site_fract_y
_atom_site_fract_z
O1	O	0.513847	0.611881	0.021374
O2	O	0.366837	0.507486	-0.021241
O3	O	0.513842	0.507482	0.125765
O4	O	0.366841	0.611885	-0.125632
O5	O	0.633241	0.388082	0.125759
O6	O	0.486235	0.388086	-0.021247
O7	O	0.633245	0.492481	0.021368
Cu8	Cu	0.570642	0.429381	0.000060
Cu9	Cu	0.429440	0.570586	0.000067
O10	O	0.486239	0.492484	-0.125638
C11	C	0.644048	0.612980	0.031074
C12	C	0.593647	0.568682	0.024972
C13	C	0.601255	0.699377	0.031688
C14	C	0.774052	0.612979	0.031079
C15	C	0.862652	0.568679	0.024982
C16	C	0.731061	0.699376	0.031693
C17	C	0.644055	0.742978	0.031086
C18	C	0.593662	0.837673	0.024996
C19	C	0.731054	0.569576	0.031681
C20	C	0.356051	0.256977	-0.030919
C21	C	0.406453	0.162277	-0.024813
C22	C	0.398845	0.300579	-0.031531
C23	C	0.226041	0.386983	-0.030933
C24	C	0.137436	0.431287	-0.024842
C25	C	0.269033	0.430388	-0.031545
C26	C	0.356043	0.386981	-0.030933
C27	C	0.406437	0.431283	-0.024841
C28	C	0.269041	0.300581	-0.031531
C29	C	0.356047	0.612984	-0.386932
C30	C	0.406443	0.568683	-0.431233
C31	C	0.269042	0.699382	-0.430334
C32	C	0.356045	0.612985	-0.256932
C33	C	0.406440	0.568686	-0.162236
C34	C	0.269041	0.699383	-0.300532
C35	C	0.226048	0.742984	-0.386929
C36	C	0.137449	0.837680	-0.431226
C37	C	0.398842	0.569580	-0.300535
O38	O	1.104428	0.388091	-0.021251
O39	O	0.895652	0.492478	0.021377
O40	O	0.895627	0.492492	-0.125634
O41	O	1.104453	0.388077	0.125761
O42	O	0.895634	0.611891	-0.125623
O43	O	0.895659	0.611877	0.021389
O44	O	1.104435	0.507489	-0.021239
Cu45	Cu	1.000048	0.570585	0.000076
Cu46	Cu	1.000039	0.429382	0.000062
O47	O	1.104460	0.507475	0.125772
O48	O	0.486252	1.125676	-0.021218
O49	O	0.633260	0.874276	0.021392
O50	O	0.486248	1.021264	-0.125612
O51	O	0.633264	0.978687	0.125787
O52	O	0.366855	1.021261	-0.125597
O53	O	0.513867	0.874272	0.021407
O54	O	0.366859	1.125672	-0.021203
Cu55	Cu	0.429461	0.999972	0.000103
Cu56	Cu	0.570658	0.999976	0.000086
O57	O	0.513871	0.978684	0.125801
O58	O	-0.104348	1.125680	-0.492420
O59	O	0.104446	0.874283	-0.388026
O60	O	0.104453	1.021279	-0.388016
O61	O	-0.104355	0.978684	-0.492430
O62	O	0.104456	1.021276	-0.507417
O63	O	0.104449	0.874280	-0.507427
O64	O	-0.104345	1.125677	-0.611820
Cu65	Cu	0.000052	0.999978	-0.570526
Cu66	Cu	0.000049	0.999982	-0.429321
O67	O	-0.104352	0.978681	-0.611830
O68	O	0.513842	0.507483	-0.611835
O69	O	0.366844	0.611882	-0.507433
O70	O	0.513847	0.611880	-0.507427
O71	O	0.366838	0.507485	-0.611842
O72	O	0.633247	0.492479	-0.388029
O73	O	0.486244	0.492480	-0.388036
O74	O	0.633242	0.388082	-0.492438
Cu75	Cu	0.570645	0.429379	-0.429335
Cu76	Cu	0.429440	0.570585	-0.570536
O77	O	0.486238	0.388084	-0.492444
C78	C	0.774036	0.256981	0.387055
C79	C	0.862634	0.162285	0.431352
C80	C	0.731042	0.300583	0.430461
C81	C	0.644038	0.386981	0.257059
C82	C	0.593642	0.431281	0.162364
C83	C	0.601242	0.430385	0.300663
C84	C	0.644038	0.386981	0.387060
C85	C	0.593642	0.431281	0.431361
C86	C	0.731042	0.300583	0.300658
C87	C	0.643988	0.743017	-0.386905
C88	C	0.593591	0.837715	-0.431194
C89	C	0.601177	0.699422	-0.430312
C90	C	0.774004	0.613007	-0.256920
C91	C	0.862621	0.568697	-0.162228
C92	C	0.730996	0.569609	-0.300524
C93	C	0.643975	0.613022	-0.386916
C94	C	0.593566	0.568729	-0.431218
C95	C	0.731008	0.699407	-0.300513
C96	C	1.356107	0.386949	0.387056
C97	C	1.406512	0.431245	0.431359
C98	C	1.398909	0.300547	0.430450
C99	C	1.226083	0.386961	0.257058
C100	C	1.137466	0.431271	0.162366
C101	C	1.269083	0.300559	0.300649
C102	C	1.356103	0.256950	0.387041
C103	C	1.406505	0.162250	0.431329
C104	C	1.269087	0.430361	0.300663
C105	C	0.226046	1.030932	-0.386895
C106	C	0.137448	1.024829	-0.431188
C107	C	0.269035	1.031537	-0.430305
C108	C	0.356048	1.030946	-0.256902
C109	C	0.406449	1.024858	-0.162206
C110	C	0.398840	1.031551	-0.300510
C111	C	0.356039	1.030935	-0.386907
C112	C	0.406430	1.024836	-0.431213
C113	C	0.269044	1.031547	-0.300497
O114	O	0.366781	1.125722	-0.611761
O115	O	0.513779	0.874322	-0.507390
O116	O	0.366806	1.021312	-0.507351
O117	O	0.513753	0.978733	-0.611800
O118	O	0.486232	1.021301	-0.387955
O119	O	0.633204	0.874311	-0.387993
O120	O	0.486206	1.125711	-0.492364
Cu121	Cu	0.570610	1.000010	-0.429277
Cu122	Cu	0.429375	1.000023	-0.570477
O123	O	0.633178	0.978721	-0.492403
C124	C	0.644082	0.969013	0.387097
C125	C	0.593692	0.975112	0.431404
C126	C	0.731087	0.968412	0.430494
C127	C	0.644072	0.969003	0.257092
C128	C	0.593670	0.975090	0.162395
C129	C	0.731076	0.968401	0.300686
C130	C	0.774075	0.969017	0.387084
C131	C	0.862673	0.975119	0.431376
C132	C	0.601281	0.968398	0.300700
H133	H	0.767028	0.498590	0.032649
F134	F	0.222004	0.745136	-0.254778
F135	F	0.221997	0.523177	-0.032829
H136	H	0.767010	0.265564	0.265645
H137	H	0.468850	0.498591	-0.265535
F138	F	0.490356	0.254823	-0.032807
F139	F	1.222057	0.523147	0.254916
H140	H	0.233044	1.032509	-0.501294
F141	F	0.222031	0.254815	-0.032774
H142	H	0.767062	0.967453	0.501479
H143	H	0.766981	0.498620	-0.265521
F144	F	0.509660	0.745183	-0.523095
H145	H	0.233053	0.734378	-0.501327
F146	F	0.509772	0.967116	0.254952
H147	H	0.767046	0.734380	0.032668
H148	H	0.531222	0.501369	0.265651
H149	H	0.531241	0.734381	0.032662
H150	H	1.468927	0.265541	0.501437
H151	H	0.767030	0.265574	0.501450
H152	H	0.766984	0.734418	-0.265501
H153	H	1.233094	0.265558	0.265635
H154	H	0.468850	1.032533	-0.265506
F155	F	0.222024	1.032817	-0.254733
F156	F	0.778098	0.967126	0.254923
