data_functionalizedCrystal
_audit_creation_method	'MofGen! by Chris Wilmer'
_symmetry_space_group_name_H-M	'P1'
_symmetry_Int_Tables_number	1
_symmetry_cell_setting	triclinic
loop_
_symmetry_equiv_pos_as_xyz
  x,y,z
_cell_length_a	20.453700
_cell_length_b	17.110477
_cell_length_c	17.078481
_cell_angle_alpha	83.093745
_cell_angle_beta	99.306161
_cell_angle_gamma	80.939702
loop_
_atom_site_label
_atom_site_type_symbol
_atom_site_fract_x
_atom_site_fract_y
_atom_site_fract_z
V1	V	1.319217	-0.109298	0.247259
O2	O	1.323047	0.005442	0.242658
O3	O	1.295949	-0.216902	0.245467
O4	O	1.296351	-0.107533	0.355144
O5	O	1.322642	-0.104684	0.132222
V6	V	1.482223	-0.095584	0.233512
O7	O	1.402285	-0.139382	0.277415
O8	O	1.549221	-0.065500	0.203357
O9	O	1.431089	0.012021	0.235305
O10	O	1.517526	-0.210324	0.238114
O11	O	1.517930	-0.100198	0.348550
O12	O	1.430688	-0.097348	0.125628
V13	V	0.985884	-0.109298	0.247259
O14	O	0.989713	0.005442	0.242658
O15	O	0.962616	-0.216902	0.245467
O16	O	0.963017	-0.107533	0.355144
O17	O	0.989309	-0.104684	0.132222
V18	V	1.148890	-0.095584	0.233512
O19	O	1.068951	-0.139382	0.277415
O20	O	1.215888	-0.065500	0.203357
O21	O	1.097756	0.012021	0.235305
O22	O	1.184193	-0.210324	0.238114
O23	O	1.184597	-0.100198	0.348550
O24	O	1.097354	-0.097348	0.125628
V25	V	1.652550	-0.109298	0.247259
O26	O	1.656380	0.005442	0.242658
O27	O	1.629282	-0.216902	0.245467
O28	O	1.629684	-0.107533	0.355144
O29	O	1.655976	-0.104684	0.132222
V30	V	1.815557	-0.095584	0.233512
O31	O	1.735618	-0.139382	0.277415
O32	O	1.882555	-0.065500	0.203357
O33	O	1.764422	0.012021	0.235305
O34	O	1.850859	-0.210324	0.238114
O35	O	1.851264	-0.100198	0.348550
O36	O	1.764021	-0.097348	0.125628
C37	C	1.242765	-0.243137	0.241540
C38	C	1.250791	-0.331104	0.240794
C39	C	1.314743	-0.376459	0.244397
C40	C	1.322282	-0.459114	0.243700
C41	C	1.265867	-0.496412	0.239395
C42	C	1.201910	-0.451052	0.235795
C43	C	1.194373	-0.368399	0.236497
C44	C	1.285613	-0.745769	0.237082
C45	C	1.293154	-0.828428	0.236378
C46	C	1.413526	-0.836485	0.244285
C47	C	1.405983	-0.753829	0.244982
C48	C	1.342028	-0.708477	0.241386
C49	C	1.273570	-0.580898	0.238681
C50	C	1.334326	-0.623993	0.242106
C51	C	1.243277	-0.103625	0.381443
C52	C	1.251628	-0.102894	0.469639
C53	C	1.372054	0.038251	0.239229
C54	C	1.357106	0.126217	0.239981
C55	C	1.371542	-0.101260	0.099324
C56	C	1.356270	-0.101986	0.011128
C57	C	0.909432	-0.243137	0.241540
C58	C	0.917458	-0.331104	0.240794
C59	C	1.315734	-0.106501	0.515111
C60	C	1.323577	-0.105813	0.597980
C61	C	1.267314	-0.101525	0.635376
C62	C	1.203203	-0.097916	0.589897
C63	C	1.195360	-0.098597	0.507029
C64	C	1.284316	-0.099058	0.882781
C65	C	1.292165	-0.098380	0.965656
C66	C	1.412538	-0.106276	0.973733
C67	C	1.404690	-0.106962	0.890864
C68	C	1.340580	-0.103348	0.845391
N69	N	1.275330	-0.100825	0.720081
N70	N	1.332564	-0.104042	0.760687
C71	C	0.909944	-0.103625	0.381443
C72	C	0.918295	-0.102894	0.469639
C73	C	1.038720	0.038251	0.239229
C74	C	1.023773	0.126217	0.239981
C75	C	1.038209	-0.101260	0.099324
C76	C	1.022937	-0.101986	0.011128
C77	C	1.576098	-0.243137	0.241540
C78	C	1.584125	-0.331104	0.240794
C79	C	1.576610	-0.103625	0.381443
C80	C	1.584962	-0.102894	0.469639
C81	C	1.705387	0.038251	0.239229
C82	C	1.690440	0.126217	0.239981
C83	C	1.704875	-0.101260	0.099324
C84	C	1.689604	-0.101986	0.011128
C85	C	0.981416	-0.376446	0.244404
C86	C	0.988969	-0.459103	0.243715
C87	C	0.932561	-0.496416	0.239410
C88	C	0.868598	-0.451068	0.235803
C89	C	0.861047	-0.368413	0.236498
C90	C	0.982405	-0.106493	0.515096
C91	C	0.990260	-0.105796	0.597964
C92	C	0.934005	-0.101505	0.635374
C93	C	0.869890	-0.097904	0.589910
C94	C	0.862035	-0.098595	0.507043
C95	C	1.074811	0.171559	0.236373
C96	C	1.060772	0.254216	0.237066
C97	C	0.995697	0.291528	0.241372
C98	C	0.944656	0.246181	0.244978
C99	C	0.958693	0.163527	0.244279
C100	C	0.957705	-0.106268	-0.026261
C101	C	0.943344	-0.106941	-0.109132
C102	C	0.994218	-0.103339	-0.154611
C103	C	1.059456	-0.099055	-0.117217
C104	C	1.073814	-0.098376	-0.034348
C105	C	1.648083	-0.376446	0.244404
C106	C	1.655635	-0.459103	0.243715
C107	C	1.599228	-0.496416	0.239410
C108	C	1.535265	-0.451068	0.235803
C109	C	1.527714	-0.368413	0.236498
C110	C	1.649072	-0.106493	0.515096
C111	C	1.656927	-0.105796	0.597964
C112	C	1.600672	-0.101505	0.635374
C113	C	1.536557	-0.097904	0.589910
C114	C	1.528701	-0.098595	0.507043
C115	C	1.741477	0.171559	0.236373
C116	C	1.727439	0.254216	0.237066
C117	C	1.662364	0.291528	0.241372
C118	C	1.611323	0.246181	0.244978
C119	C	1.625360	0.163527	0.244279
C120	C	1.624371	-0.106268	-0.026261
C121	C	1.610011	-0.106941	-0.109132
C122	C	1.660885	-0.103339	-0.154611
C123	C	1.726123	-0.099055	-0.117217
C124	C	1.740481	-0.098376	-0.034348
H125	H	1.360683	-0.346096	0.247895
Cl126	Cl	1.608732	-0.600327	0.238535
Cl127	Cl	1.823292	0.124671	0.230958
H128	H	1.247213	-0.858796	0.232891
H129	H	1.233537	-0.708852	0.234149
H130	H	1.450507	-0.110453	0.860422
H131	H	0.917130	0.126614	0.247224
H132	H	1.227638	-0.611275	0.235173
H133	H	1.767540	-0.096120	-0.154259
H134	H	1.100873	-0.096120	-0.154259
H135	H	0.982520	-0.103902	-0.222086
H136	H	1.042471	-0.108732	0.634971
H137	H	1.558338	0.276573	0.248483
H138	H	1.583797	0.126614	0.247224
Cl139	Cl	1.527997	-0.112334	-0.156123
Cl140	Cl	1.069383	-0.516095	0.248245
Cl141	Cl	1.386470	-0.111897	0.468109
Cl142	Cl	0.862849	0.293101	0.250387
Cl143	Cl	1.719006	-0.329559	0.249823
H144	H	1.126935	-0.094894	-0.003912
H145	H	1.102341	0.291127	0.234131
Cl146	Cl	1.736050	-0.516095	0.248245
H147	H	1.607078	-0.100943	0.702851
H148	H	1.489341	-0.481460	0.232298
Cl149	Cl	0.799177	-0.092522	0.636953
H150	H	1.650943	0.358831	0.241940
Cl151	Cl	1.822496	-0.093006	0.012646
Cl152	Cl	0.781433	-0.094081	0.449907
Cl153	Cl	0.893736	-0.110795	0.030896
H154	H	1.490757	-0.094411	0.620382
H155	H	1.027353	-0.346077	0.247904
H156	H	0.938719	-0.563719	0.238845
Cl157	Cl	1.447301	-0.311420	0.231951
Cl158	Cl	1.130988	-0.497942	0.230387
H159	H	0.890221	-0.110430	-0.139566
H160	H	1.694885	-0.109989	0.484649
H161	H	0.822675	-0.481460	0.232298
Cl162	Cl	1.404171	-0.110359	0.655144
H163	H	1.769008	0.291127	0.234131
H164	H	1.649186	-0.103902	-0.222086
H165	H	1.380259	-0.593622	0.245615
Cl166	Cl	1.560403	-0.110795	0.030896
Cl167	Cl	1.737535	-0.110331	0.655104
H168	H	1.476495	-0.095666	0.470037
Cl169	Cl	1.402682	-0.516128	0.248229
H170	H	1.451924	-0.723468	0.248494
H171	H	1.465597	-0.873419	0.247213
H172	H	1.142297	-0.331472	0.233566
H173	H	1.464735	-0.109217	1.010765
H174	H	0.808964	-0.331501	0.233554
H175	H	1.246345	-0.094885	0.996100
H176	H	1.028219	-0.109989	0.484649
H177	H	0.940411	-0.100943	0.702851
Cl178	Cl	1.132472	-0.092525	0.636909
H179	H	1.143157	-0.095641	0.470003
Cl180	Cl	1.203724	-0.094537	0.825630
H181	H	1.127802	0.141191	0.232867
H182	H	0.984276	0.358831	0.241940
