data_functionalizedCrystal
_audit_creation_method	'MofGen! by Chris Wilmer'
_symmetry_space_group_name_H-M	'P1'
_symmetry_Int_Tables_number	1
_symmetry_cell_setting	triclinic
loop_
_symmetry_equiv_pos_as_xyz
  x,y,z
_cell_length_a	14.628931
_cell_length_b	19.377372
_cell_length_c	14.628931
_cell_angle_alpha	89.999623
_cell_angle_beta	60.000028
_cell_angle_gamma	72.112908
loop_
_atom_site_label
_atom_site_type_symbol
_atom_site_fract_x
_atom_site_fract_y
_atom_site_fract_z
Zr1	Zr	1.272736	0.580561	-0.256046
O2	O	1.418332	0.484333	-0.379451
O3	O	1.095859	0.610060	-0.218215
O4	O	1.286564	0.610060	-0.408921
O5	O	1.227627	0.484333	-0.038314
O6	O	1.333055	0.709234	-0.432167
O7	O	1.227627	0.484334	-0.188745
O8	O	0.991918	0.709234	-0.091029
O9	O	1.568764	0.484333	-0.379451
O10	O	1.214893	0.696653	-0.219430
O11	O	1.180197	0.622640	-0.089815
O12	O	1.404728	0.622640	-0.314347
O13	O	1.370032	0.548627	-0.184733
Zr14	Zr	1.346885	0.738733	-0.053200
Zr15	Zr	1.346884	0.738733	-0.293121
Zr16	Zr	1.272737	0.580560	-0.016124
Zr17	Zr	1.512658	0.580560	-0.256046
Zr18	Zr	1.106963	0.738733	-0.053199
O19	O	1.523762	0.709234	-0.091030
O20	O	1.523761	0.709234	-0.432167
O21	O	1.418333	0.484333	-0.038314
O22	O	1.201289	0.834960	0.070206
O23	O	1.201288	0.834960	-0.270931
O24	O	1.095860	0.610059	0.122922
O25	O	1.391994	0.834960	-0.270932
O26	O	1.333057	0.709234	0.099675
O27	O	1.286566	0.610059	0.122922
O28	O	1.391994	0.834960	-0.120500
O29	O	1.627702	0.610059	-0.408921
O30	O	0.991919	0.709234	0.099676
O31	O	1.050857	0.834960	0.070206
O32	O	1.050856	0.834960	-0.120499
O33	O	1.568765	0.484333	-0.188746
O34	O	1.627703	0.610059	-0.218216
O35	O	1.214893	0.696653	0.005101
O36	O	1.249589	0.770666	-0.124513
O37	O	1.439424	0.696653	-0.219430
O38	O	1.404728	0.622640	-0.089816
C39	C	1.009705	0.659647	-0.154622
C40	C	0.907852	0.659647	-0.154622
C41	C	0.916861	0.607724	-0.221211
C42	C	0.811592	0.607723	-0.221212
C43	C	1.217062	0.461797	-0.108247
C44	C	1.185585	0.394649	-0.092507
C45	C	1.577507	-0.019359	-0.288473
C46	C	1.547902	-0.082445	-0.273669
C47	C	1.349729	-0.005171	-0.174583
C48	C	1.379317	0.057922	-0.189374
C49	C	1.493208	0.050822	-0.246321
C50	C	1.295017	0.128103	-0.147222
C51	C	1.324603	0.191191	-0.162017
C52	C	1.438488	0.184098	-0.218964
C53	C	1.522793	0.113910	-0.261116
C54	C	1.181127	0.135202	-0.090282
C55	C	1.096828	0.205383	-0.048129
C56	C	1.126413	0.268473	-0.062918
C57	C	1.240298	0.261380	-0.119865
C58	C	1.042108	0.338661	-0.020765
C59	C	1.071694	0.401749	-0.035560
C60	C	1.269884	0.324468	-0.134660
C61	C	1.609916	0.659646	-0.154623
C62	C	1.711769	0.659646	-0.154623
C63	C	1.309810	0.659647	-0.454728
C64	C	1.309810	0.659647	-0.556580
C65	C	1.402559	0.857496	-0.200998
C66	C	1.434036	0.924644	-0.216738
C67	C	1.403981	0.622932	-0.649075
C68	C	1.403983	0.622931	-0.754346
C69	C	1.309811	0.659646	0.145482
C70	C	1.309811	0.659646	0.247335
C71	C	1.102453	0.857496	-0.200998
C72	C	1.032078	0.924645	-0.216737
C73	C	1.009706	0.659647	0.145483
C74	C	0.907853	0.659647	0.247336
C75	C	1.102454	0.857496	0.099107
C76	C	1.032079	0.924644	0.185221
C77	C	1.517167	0.461797	-0.408352
C78	C	1.587542	0.394649	-0.494466
C79	C	1.517168	0.461797	-0.108247
C80	C	1.587543	0.394648	-0.092508
C81	C	1.609915	0.659647	-0.454728
C82	C	1.711768	0.659646	-0.556581
C83	C	0.980918	0.917544	-0.273684
C84	C	0.914803	0.980631	-0.288494
C85	C	0.899843	1.050818	-0.246349
C86	C	0.951012	1.057917	-0.189400
C87	C	1.017132	0.994831	-0.174598
C88	C	1.017144	0.994819	0.158002
C89	C	0.951035	1.057918	0.238904
C90	C	0.899856	1.050841	0.347024
C91	C	0.914797	0.980659	0.374243
C92	C	0.980911	0.917562	0.293341
C93	C	1.602489	0.324475	-0.467247
C94	C	1.668627	0.261376	-0.548149
C95	C	1.719812	0.268452	-0.656270
C96	C	1.704864	0.338634	-0.683488
C97	C	1.638734	0.401732	-0.602587
C98	C	1.638713	0.401749	-0.035571
C99	C	1.704854	0.338662	-0.020788
C100	C	1.719818	0.268475	-0.062936
C101	C	1.668644	0.261376	-0.119880
C102	C	1.602511	0.324463	-0.134669
C103	C	0.879655	0.696362	0.339830
C104	C	0.774385	0.696363	0.445102
H105	H	1.462575	0.235470	-0.231011
O106	O	1.622603	0.477442	0.009888
H107	H	1.531382	0.508040	0.067506
H108	H	1.229182	0.691077	-0.673306
O109	O	1.203021	0.701304	-0.554917
H110	H	1.134042	0.728209	-0.471151
H111	H	0.736074	0.628217	0.364061
H112	H	1.560846	0.318671	-0.181029
H113	H	1.680838	0.204222	-0.154194
H114	H	1.484604	0.591493	-0.833708
O115	O	1.622601	0.477426	-0.631929
H116	H	1.582006	0.483840	-0.679900
O117	O	0.821594	0.548832	-0.296731
H118	H	0.880936	0.551503	-0.380938
O119	O	1.760022	0.346333	0.040649
H120	H	1.808535	0.290678	0.043850
H121	H	0.704221	0.704099	-0.097607
O122	O	1.791112	0.200433	-0.046945
H123	H	1.824155	0.217170	-0.000250
O124	O	0.950894	0.738007	0.341507
H125	H	1.022391	0.731478	0.258558
H126	H	1.058806	1.000595	0.069970
H127	H	0.938879	1.115057	0.216723
O128	O	1.645633	0.106262	-0.322536
H129	H	1.699288	0.046861	-0.349367
H130	H	0.993098	0.860401	-0.308020
O131	O	0.828535	1.118903	0.434272
H132	H	0.795452	1.102199	0.514033
O133	O	1.700346	-0.027007	-0.349893
H134	H	1.754001	-0.086408	-0.376724
H135	H	0.873118	0.974908	0.462285
H136	H	0.822205	0.704101	-0.097616
O137	O	1.547289	0.316834	-0.350634
H138	H	1.613268	0.286211	-0.333719
O139	O	0.742192	0.738003	0.550219
H140	H	0.664566	0.731465	0.616408
O141	O	0.836589	0.618020	0.245669
H142	H	0.834929	0.575349	0.296522
H143	H	0.873146	0.974837	-0.334865
H144	H	1.004098	0.211154	-0.001766
H145	H	1.616558	-0.139591	-0.308001
O146	O	1.392702	0.316872	-0.196111
H147	H	1.434622	0.286248	-0.155120
H148	H	1.773656	0.217068	-0.722134
O149	O	0.828525	1.118861	-0.262313
H150	H	0.741305	1.118813	-0.225629
O151	O	1.030302	0.548836	-0.296732
H152	H	1.095182	0.558075	-0.284875
H153	H	1.257000	0.000599	-0.128219
H154	H	0.938822	1.115071	-0.155090
O155	O	1.072292	1.002492	-0.113155
H156	H	1.050762	1.061898	-0.086329
H157	H	1.157043	0.083829	-0.078245
H158	H	1.484604	0.591502	-0.650328
O159	O	0.996990	0.841873	0.322704
H160	H	0.950276	0.847561	0.411479
O161	O	1.760064	0.346263	-0.800105
H162	H	1.808544	0.290594	-0.851777
H163	H	1.680783	0.204237	-0.525966
H164	H	1.003049	0.458895	-0.001217
O165	O	0.919272	0.346316	0.040646
H166	H	0.912863	0.290656	0.043852
