data_functionalizedCrystal
_audit_creation_method	'MofGen! by Chris Wilmer'
_symmetry_space_group_name_H-M	'P1'
_symmetry_Int_Tables_number	1
_symmetry_cell_setting	triclinic
loop_
_symmetry_equiv_pos_as_xyz
  x,y,z
_cell_length_a	18.215407
_cell_length_b	19.077114
_cell_length_c	18.215399
_cell_angle_alpha	87.729790
_cell_angle_beta	89.982632
_cell_angle_gamma	87.674258
loop_
_atom_site_label
_atom_site_type_symbol
_atom_site_fract_x
_atom_site_fract_y
_atom_site_fract_z
Zn1	Zn	1.113279	0.280256	-0.427834
Zn2	Zn	1.446612	0.613590	-0.094500
Zn3	Zn	1.779945	0.946923	0.238833
Zn4	Zn	1.108234	0.397958	-0.309709
Zn5	Zn	1.441568	0.731291	0.023625
Zn6	Zn	1.774901	1.064624	0.356958
Zn7	Zn	0.990211	0.280273	-0.304787
Zn8	Zn	1.323544	0.613606	0.028546
Zn9	Zn	1.656877	0.946940	0.361880
Zn10	Zn	0.985226	0.397912	-0.432737
Zn11	Zn	1.318559	0.731246	-0.099404
Zn12	Zn	1.651893	1.064579	0.233930
O13	O	1.049237	0.339100	-0.368767
O14	O	1.382571	0.672433	-0.035433
O15	O	1.715904	1.005767	0.297900
O16	O	1.215593	0.295881	-0.412172
O17	O	1.548927	0.629215	-0.078838
O18	O	1.882260	0.962548	0.254495
O19	O	1.092553	0.382373	-0.206073
O20	O	1.425886	0.715706	0.127261
O21	O	1.759220	1.049039	0.460594
O22	O	1.010733	0.181780	-0.316997
O23	O	1.344066	0.515113	0.016336
O24	O	1.677400	0.848447	0.349669
O25	O	1.211887	0.382356	-0.325386
O26	O	1.545220	0.715690	0.007947
O27	O	1.878554	1.049023	0.341281
O28	O	1.101151	0.181768	-0.407399
O29	O	1.434484	0.515101	-0.074066
O30	O	1.767817	0.848434	0.259267
O31	O	1.005841	0.295910	-0.202457
O32	O	1.339175	0.629244	0.130877
O33	O	1.672508	0.962577	0.464210
O34	O	0.886566	0.295866	-0.321752
O35	O	1.219899	0.629200	0.011581
O36	O	1.553232	0.962533	0.344915
O37	O	1.002238	0.382279	-0.535070
O38	O	1.335571	0.715612	-0.201737
O39	O	1.668904	1.048946	0.131597
O40	O	0.882904	0.382295	-0.415757
O41	O	1.216237	0.715629	-0.082423
O42	O	1.549570	1.048962	0.250910
O43	O	1.096317	0.295838	-0.531467
O44	O	1.429651	0.629171	-0.198134
O45	O	1.762984	0.962504	0.135199
O46	O	1.087720	0.496443	-0.330141
O47	O	1.421053	0.829776	0.003193
O48	O	1.754386	1.163109	0.336526
O49	O	0.997346	0.496409	-0.420529
O50	O	1.330680	0.829743	-0.087196
O51	O	1.664013	1.163076	0.246138
C52	C	0.858032	0.339078	-0.368753
C53	C	1.191365	0.672412	-0.035419
C54	C	1.524699	1.005745	0.297914
C55	C	0.776233	0.339086	-0.368765
C56	C	1.109566	0.672419	-0.035432
C57	C	1.442899	1.005753	0.297902
C58	C	0.589964	0.294151	-0.414033
C59	C	0.923297	0.627485	-0.080699
C60	C	1.256630	0.960818	0.252634
C61	C	0.513105	0.294157	-0.414035
C62	C	0.846438	0.627491	-0.080702
C63	C	1.179771	0.960824	0.252631
C64	C	0.509262	0.384068	-0.323514
C65	C	0.842595	0.717402	0.009819
C66	C	1.175929	1.050735	0.343152
C67	C	0.586120	0.384058	-0.323508
C68	C	0.919453	0.717391	0.009825
C69	C	1.252787	1.050725	0.343158
C70	C	0.626469	0.339101	-0.368772
C71	C	0.959802	0.672434	-0.035438
C72	C	1.293135	1.005767	0.297895
C73	C	0.472752	0.339117	-0.368780
C74	C	0.806085	0.672450	-0.035447
C75	C	1.139419	1.005783	0.297886
C76	C	0.389418	0.339124	-0.368783
C77	C	0.722751	0.672457	-0.035450
C78	C	1.056085	1.005790	0.297884
C79	C	0.709808	0.339093	-0.368768
C80	C	1.043141	0.672426	-0.035435
C81	C	1.376475	1.005759	0.297898
C82	C	1.041465	0.521964	-0.376417
C83	C	1.374798	0.855297	-0.043084
C84	C	1.708131	1.188630	0.290249
C85	C	1.038207	0.600193	-0.379715
C86	C	1.371540	0.933527	-0.046381
C87	C	1.704874	1.266860	0.286952
C88	C	1.083765	0.636940	-0.334243
C89	C	1.417099	0.970273	-0.000909
C90	C	1.750432	1.303607	0.332424
C91	C	1.080706	0.710445	-0.337348
C92	C	1.414039	1.043779	-0.004015
C93	C	1.747372	1.377112	0.329318
C94	C	1.032083	0.747203	-0.385923
C95	C	1.365416	1.080536	-0.052590
C96	C	1.698750	1.413869	0.280743
C97	C	0.986523	0.710451	-0.431400
C98	C	1.319856	1.043784	-0.098067
C99	C	1.653189	1.377118	0.235266
C100	C	0.989587	0.636947	-0.428298
C101	C	1.322920	0.970280	-0.094964
C102	C	1.656253	1.303614	0.238369
C103	C	1.017873	0.967037	-0.400248
C104	C	1.351206	1.300370	-0.066915
C105	C	1.684540	1.633703	0.266418
C106	C	1.014811	1.040546	-0.403346
C107	C	1.348144	1.373879	-0.070013
C108	C	1.681478	1.707212	0.263321
C109	C	1.108995	1.040535	-0.309295
C110	C	1.442329	1.373868	0.024039
C111	C	1.775662	1.707202	0.357372
C112	C	1.112052	0.967030	-0.306193
C113	C	1.445385	1.300363	0.027140
C114	C	1.778719	1.633696	0.360474
C115	C	1.066494	0.930284	-0.351673
C116	C	1.399828	1.263618	-0.018340
C117	C	1.733161	1.596951	0.314994
N118	N	1.028953	0.822337	-0.389097
N119	N	1.362286	1.155670	-0.055764
N120	N	1.695619	1.489003	0.277569
N121	N	1.069629	0.855151	-0.348502
N122	N	1.402962	1.188485	-0.015169
N123	N	1.736296	1.521818	0.318165
C124	C	1.241189	0.339122	-0.368781
C125	C	1.574523	0.672455	-0.035448
C126	C	1.907856	1.005789	0.297886
C127	C	1.322988	0.339132	-0.368787
C128	C	1.656321	0.672465	-0.035454
C129	C	1.989654	1.005798	0.297880
C130	C	1.049284	0.339051	-0.560718
C131	C	1.382618	0.672385	-0.227384
C132	C	1.715951	1.005718	0.105949
C133	C	1.049304	0.339031	-0.642516
C134	C	1.382638	0.672364	-0.309182
C135	C	1.715971	1.005697	0.024151
C136	C	1.057054	1.155522	-0.361112
C137	C	1.390388	1.488855	-0.027778
C138	C	1.723721	1.822189	0.305555
C139	C	1.060370	1.077292	-0.357874
C140	C	1.393703	1.410625	-0.024540
C141	C	1.727036	1.743959	0.308793
C142	C	1.098310	0.293978	-0.828833
C143	C	1.431644	0.627312	-0.495500
C144	C	1.764977	0.960645	-0.162167
C145	C	1.098320	0.293958	-0.905691
C146	C	1.431653	0.627291	-0.572358
C147	C	1.764987	0.960625	-0.239024
C148	C	1.000355	0.383974	-0.909431
C149	C	1.333688	0.717307	-0.576098
C150	C	1.667022	1.050641	-0.242765
C151	C	1.000342	0.383990	-0.832575
C152	C	1.333676	0.717324	-0.499241
C153	C	1.667009	1.050657	-0.165908
C154	C	1.049324	0.338994	-0.792278
C155	C	1.382657	0.672327	-0.458944
C156	C	1.715991	1.005660	-0.125611
C157	C	1.049346	0.338957	-0.945992
C158	C	1.382680	0.672290	-0.612659
C159	C	1.716013	1.005623	-0.279326
C160	C	1.049356	0.338935	-1.029325
C161	C	1.382690	0.672268	-0.695992
C162	C	1.716023	1.005602	-0.362658
C163	C	1.049313	0.339014	-0.708940
C164	C	1.382647	0.672348	-0.375606
C165	C	1.715980	1.005681	-0.042273
C166	C	1.049235	0.339097	-0.177560
C167	C	1.382569	0.672431	0.155773
C168	C	1.715902	1.005764	0.489106
C169	C	1.049366	0.338920	-0.095754
C170	C	1.382699	0.672253	0.237579
C171	C	1.716033	1.005586	0.570912
H172	H	0.615843	0.420662	-0.286647
H173	H	0.949176	0.753995	0.046686
H174	H	1.282509	1.087329	0.380019
H175	H	0.980777	0.937124	-0.437278
H176	H	1.314110	1.270458	-0.103945
H177	H	1.647443	1.603791	0.229388
H178	H	0.975225	1.070471	-0.442914
H179	H	1.308559	1.403805	-0.109581
H180	H	1.641892	1.737138	0.223753
H181	H	0.476401	0.420672	-0.286663
H182	H	0.809734	0.754005	0.046670
H183	H	1.143068	1.087338	0.380003
Cl184	Cl	1.173191	0.920826	-0.245135
Cl185	Cl	1.506524	1.254159	0.088198
Cl186	Cl	1.839857	1.587492	0.421531
Cl187	Cl	1.144890	0.590738	-0.273169
Cl188	Cl	1.478223	0.924071	0.060164
Cl189	Cl	1.811556	1.257405	0.393498
H190	H	0.483386	0.257554	-0.450890
H191	H	0.816719	0.590887	-0.117557
H192	H	1.150053	0.924220	0.215776
H193	H	1.146087	1.070461	-0.272269
H194	H	1.479420	1.403794	0.061065
H195	H	1.812754	1.737127	0.394398
H196	H	1.138192	0.257337	-0.796025
H197	H	1.471526	0.590671	-0.462692
H198	H	1.804859	0.924004	-0.129359
Cl199	Cl	1.137985	0.756638	-0.280183
Cl200	Cl	1.471318	1.089971	0.053151
Cl201	Cl	1.804651	1.423305	0.386484
H202	H	0.946936	0.740385	-0.470954
H203	H	1.280269	1.073718	-0.137621
H204	H	1.613603	1.407051	0.195713
Cl205	Cl	0.932313	0.590751	-0.485468
Cl206	Cl	1.265646	0.924084	-0.152134
Cl207	Cl	1.598979	1.257418	0.181199
H208	H	1.138208	0.257301	-0.935451
H209	H	1.471541	0.590634	-0.602118
H210	H	1.804875	0.923968	-0.268784
Cl211	Cl	0.938785	0.440542	-0.960096
Cl212	Cl	1.272118	0.773875	-0.626763
Cl213	Cl	1.605452	1.107208	-0.293429
H214	H	0.960447	0.420647	-0.802811
H215	H	1.293780	0.753980	-0.469477
H216	H	1.627113	1.087313	-0.136144
Cl217	Cl	0.640685	0.237630	-0.470932
Cl218	Cl	0.974019	0.570964	-0.137598
Cl219	Cl	1.307352	0.904297	0.195735
