data_functionalizedCrystal
_audit_creation_method	'MofGen! by Chris Wilmer'
_symmetry_space_group_name_H-M	'P1'
_symmetry_Int_Tables_number	1
_symmetry_cell_setting	triclinic
loop_
_symmetry_equiv_pos_as_xyz
  x,y,z
_cell_length_a	19.077105
_cell_length_b	19.077068
_cell_length_c	19.076919
_cell_angle_alpha	94.470751
_cell_angle_beta	90.076224
_cell_angle_gamma	90.115316
loop_
_atom_site_label
_atom_site_type_symbol
_atom_site_fract_x
_atom_site_fract_y
_atom_site_fract_z
Zn1	Zn	1.044048	-0.340450	-0.453500
Zn2	Zn	1.043962	-0.453600	-0.340340
Zn3	Zn	0.931660	-0.331023	-0.330931
Zn4	Zn	0.921801	-0.453176	-0.453077
O5	O	0.985368	-0.394562	-0.394462
O6	O	1.142196	-0.359583	-0.442604
O7	O	1.033154	-0.433572	-0.240616
O8	O	0.950731	-0.233799	-0.343429
O9	O	1.142133	-0.442714	-0.359466
O10	O	1.033302	-0.240725	-0.433479
O11	O	0.950647	-0.343516	-0.233703
O12	O	0.832193	-0.343104	-0.343019
O13	O	0.933928	-0.441990	-0.551609
O14	O	0.824949	-0.432849	-0.432759
O15	O	1.023742	-0.359171	-0.551919
O16	O	1.023594	-0.552019	-0.359056
O17	O	0.933844	-0.551707	-0.441883
C18	C	0.803119	-0.386908	-0.386822
C19	C	0.725151	-0.383651	-0.383571
C20	C	0.684769	-0.428912	-0.428699
C21	C	0.611510	-0.425842	-0.425647
C22	C	0.578634	-0.377515	-0.377464
C23	C	0.619022	-0.332250	-0.332335
C24	C	0.692280	-0.335317	-0.335390
C25	C	0.359940	-0.363323	-0.363326
C26	C	0.286677	-0.360262	-0.360273
C27	C	0.279170	-0.453853	-0.453586
C28	C	0.352429	-0.456918	-0.456635
C29	C	0.392810	-0.411651	-0.411508
N30	N	0.503752	-0.374378	-0.374342
N31	N	0.467691	-0.414785	-0.414634
C32	C	0.977658	-0.577398	-0.401461
C33	C	0.974423	-0.655619	-0.404482
C34	C	1.019665	-0.692509	-0.362816
C35	C	1.016626	-0.766007	-0.365661
C36	C	0.968342	-0.802612	-0.410169
C37	C	0.923098	-0.765717	-0.451839
C38	C	0.926141	-0.692221	-0.448997
C39	C	0.954231	-1.022406	-0.423292
C40	C	0.951190	-1.095907	-0.426130
C41	C	1.044720	-1.096192	-0.339952
C42	C	1.047755	-1.022695	-0.337111
C43	C	1.002514	-0.985806	-0.378784
N44	N	0.965233	-0.877738	-0.413077
N45	N	1.005627	-0.910681	-0.375880
C46	C	1.168328	-0.402247	-0.402132
C47	C	1.246295	-0.405522	-0.405400
C48	C	0.977745	-0.401585	-0.578012
C49	C	0.974497	-0.404578	-0.656230
C50	C	0.993126	-0.211015	-0.387451
C51	C	0.996432	-0.132798	-0.384464
C52	C	1.019730	-0.362866	-0.693140
C53	C	1.016669	-0.365675	-0.766634
C54	C	0.968378	-0.410200	-0.803216
C55	C	0.923140	-0.451913	-0.766301
C56	C	0.926198	-0.449100	-0.692809
C57	C	0.954216	-0.423233	-1.022998
C58	C	0.951163	-0.426044	-1.096496
C59	C	1.044691	-0.339805	-1.096823
C60	C	1.047748	-0.337000	-1.023329
C61	C	1.002507	-0.378710	-0.986421
N62	N	0.965250	-0.413073	-0.878339
N63	N	1.005632	-0.375832	-0.911299
C64	C	0.993003	-0.387518	-0.211626
C65	C	0.996396	-0.384333	-0.133406
H66	H	0.246283	-0.490707	-0.490327
H67	H	0.917392	-0.992377	-0.457223
C68	C	0.388590	-0.510102	-0.509610
H69	H	0.438004	-0.505458	-0.504953
H70	H	0.375075	-0.501214	-0.556029
H71	H	0.375009	-0.556459	-0.500509
C72	C	0.582864	-0.279089	-0.279335
H73	H	0.617409	-0.252568	-0.252901
H74	H	0.554423	-0.303587	-0.248465
H75	H	0.554463	-0.248303	-0.303946
C76	C	0.736703	-0.285532	-0.285752
H77	H	0.785041	-0.294274	-0.294477
H78	H	0.726224	-0.293441	-0.238342
H79	H	0.726259	-0.238159	-0.293825
C80	C	0.870022	-0.500889	-0.806540
H81	H	0.874683	-0.496597	-0.855597
H82	H	0.823828	-0.488151	-0.792125
H83	H	0.878796	-0.548143	-0.796730
C84	C	0.869985	-0.805981	-0.500795
H85	H	0.874646	-0.855035	-0.496515
H86	H	0.878745	-0.796147	-0.548048
H87	H	0.823787	-0.791605	-0.488012
C88	C	0.720925	-0.482071	-0.481702
H89	H	0.686380	-0.508581	-0.508145
H90	H	0.749329	-0.512856	-0.457099
H91	H	0.749365	-0.457565	-0.512573
C92	C	1.094486	-1.136768	-0.294119
H93	H	1.123674	-1.104440	-0.267202
H94	H	1.122723	-1.167714	-0.323449
H95	H	1.067760	-1.163174	-0.263417
C96	C	1.072847	-0.313885	-0.652905
H97	H	1.099342	-0.289441	-0.685415
H98	H	1.103467	-0.340986	-0.626544
H99	H	1.048495	-0.280998	-0.621941
C100	C	0.876376	-0.651642	-0.494831
H101	H	0.847180	-0.683967	-0.521741
H102	H	0.903101	-0.625235	-0.525527
H103	H	0.848135	-0.620695	-0.465498
C104	C	1.066429	-0.319796	-0.807232
H105	H	1.095633	-0.292883	-0.774919
H106	H	1.039704	-0.289102	-0.833604
H107	H	1.094662	-0.349103	-0.838212
H108	H	1.087073	-0.300745	-0.993549
C109	C	1.100841	-0.982428	-0.288125
H110	H	1.096160	-0.933372	-0.292386
H111	H	1.147049	-0.996783	-0.300871
H112	H	1.092043	-0.992278	-0.240880
C113	C	0.898039	-0.475021	-1.136736
H114	H	0.871529	-0.499455	-1.104229
H115	H	0.922383	-0.507908	-1.167702
H116	H	0.867423	-0.447909	-1.163096
H117	H	1.081523	-0.305846	-1.126882
C118	C	0.876458	-0.495000	-0.652209
H119	H	0.847268	-0.521930	-0.684522
H120	H	0.848221	-0.465714	-0.621221
H121	H	0.903206	-0.525690	-0.625846
H122	H	1.053467	-0.796040	-0.331732
H123	H	0.578633	-0.462699	-0.462394
C124	C	0.250515	-0.307095	-0.307274
H125	H	0.285056	-0.280570	-0.280840
H126	H	0.222074	-0.331593	-0.276403
H127	H	0.222112	-0.276314	-0.331889
C128	C	1.072780	-0.652250	-0.313858
H129	H	1.099293	-0.684750	-0.289457
H130	H	1.048434	-0.621315	-0.280942
H131	H	1.103393	-0.625856	-0.340978
H132	H	0.917388	-0.457207	-0.992957
H133	H	0.392810	-0.326468	-0.326576
H134	H	0.911879	-1.125710	-0.462386
