data_functionalizedCrystal
_audit_creation_method	'MofGen! by Chris Wilmer'
_symmetry_space_group_name_H-M	'P1'
_symmetry_Int_Tables_number	1
_symmetry_cell_setting	triclinic
loop_
_symmetry_equiv_pos_as_xyz
  x,y,z
_cell_length_a	23.096457
_cell_length_b	23.096457
_cell_length_c	12.477989
_cell_angle_alpha	55.725331
_cell_angle_beta	89.998350
_cell_angle_gamma	60.004020
loop_
_atom_site_label
_atom_site_type_symbol
_atom_site_fract_x
_atom_site_fract_y
_atom_site_fract_z
Zr1	Zr	0.552498	0.644380	-0.151149
O2	O	0.453576	0.778133	-0.335048
O3	O	0.582814	0.519622	-0.094781
O4	O	0.574352	0.657354	-0.335066
O5	O	0.468722	0.627029	0.094785
O6	O	0.669632	0.657357	-0.335073
O7	O	0.462038	0.640400	-0.094763
O8	O	0.684769	0.410978	0.094754
O9	O	0.453586	0.873407	-0.335042
O10	O	0.666860	0.567607	-0.070738
O11	O	0.600743	0.557626	0.070725
O12	O	0.590780	0.719788	-0.212180
O13	O	0.524662	0.709808	-0.070718
Zr14	Zr	0.715120	0.623057	0.151146
Zr15	Zr	0.704459	0.644383	-0.151161
Zr16	Zr	0.563159	0.623054	0.151157
Zr17	Zr	0.552513	0.796331	-0.151139
Zr18	Zr	0.715104	0.471106	0.151136
O19	O	0.684804	0.747815	0.094777
O20	O	0.669645	0.778138	-0.335064
O21	O	0.468735	0.747810	0.094793
O22	O	0.814042	0.489304	0.335045
O23	O	0.798883	0.519627	-0.094796
O24	O	0.597973	0.489299	0.335061
O25	O	0.798895	0.640408	-0.094788
O26	O	0.693266	0.610082	0.335062
O27	O	0.597985	0.610080	0.335069
O28	O	0.805580	0.627036	0.094760
O29	O	0.574374	0.873410	-0.335050
O30	O	0.693243	0.394027	0.335047
O31	O	0.814032	0.394030	0.335038
O32	O	0.805558	0.410981	0.094745
O33	O	0.462060	0.856456	-0.094748
O34	O	0.582849	0.856458	-0.094757
O35	O	0.676838	0.547649	0.212177
O36	O	0.742956	0.557629	0.070714
O37	O	0.666875	0.709811	-0.070728
O38	O	0.600757	0.699830	0.070735
C39	C	0.633789	0.443650	-0.000015
C40	C	0.633783	0.379143	-0.000020
C41	C	0.689956	0.288993	0.104391
C42	C	0.689962	0.228370	0.104404
C43	C	0.633798	0.257904	-0.000015
C44	C	0.577615	0.348069	-0.104434
C45	C	0.577607	0.408688	-0.104437
N46	N	0.613552	0.210529	-0.123843
N47	N	0.613564	0.152940	-0.123835
C48	C	0.633816	0.075265	-0.000012
N49	N	0.654071	0.057347	0.123810
N50	N	0.654062	0.114940	0.123802
C51	C	0.633800	0.192179	-0.000023
C52	C	0.689999	-0.080623	0.104421
C53	C	0.690000	-0.141245	0.104435
C54	C	0.577655	-0.021543	-0.104415
C55	C	0.577652	0.039076	-0.104418
C56	C	0.633828	0.009530	-0.000001
C57	C	0.443729	0.633714	0.000012
C58	C	0.379218	0.633713	0.000017
C59	C	0.388625	0.554279	0.073835
C60	C	0.328009	0.554277	0.073841
C61	C	0.257986	0.633716	0.000002
C62	C	0.248582	0.713160	-0.073820
C63	C	0.309197	0.713158	-0.073812
N64	N	0.130958	0.697447	-0.120173
N65	N	0.073379	0.697443	-0.120177
C66	C	0.075353	0.633725	-0.000023
N67	N	0.137088	0.569999	0.120134
N68	N	0.194674	0.570000	0.120135
C69	C	0.192255	0.633726	-0.000014
C70	C	0.019037	0.554283	0.073808
C71	C	-0.041581	0.554285	0.073818
C72	C	-0.121009	0.713171	-0.073856
C73	C	-0.060391	0.713166	-0.073853
C74	C	0.009629	0.633721	-0.000024
C75	C	0.823889	0.633723	-0.000015
C76	C	0.888400	0.633724	-0.000020
C77	C	0.620473	0.660394	-0.378141
C78	C	0.615947	0.669447	-0.506479
C79	C	0.633828	0.823786	0.000012
C80	C	0.633835	0.888294	0.000016
C81	C	0.647144	0.607043	0.378138
C82	C	0.651670	0.597989	0.506475
C83	C	0.823869	0.443654	-0.000029
C84	C	0.888374	0.379149	-0.000038
C85	C	0.647125	0.416975	0.378125
C86	C	0.651644	0.343414	0.506457
C87	C	0.837205	0.416979	0.378111
C88	C	0.906235	0.343419	0.506439
C89	C	0.430413	0.850458	-0.378114
C90	C	0.361382	0.924017	-0.506442
C91	C	0.443749	0.823782	0.000026
C92	C	0.379244	0.888288	0.000035
C93	C	0.620493	0.850462	-0.378128
C94	C	0.615973	0.924023	-0.506461
C95	C	0.878945	0.354065	-0.073892
C96	C	0.939547	0.293465	-0.073929
C97	C	1.009578	0.257945	-0.000103
C98	C	1.019006	0.283035	0.073753
C99	C	0.958404	0.343638	0.073781
C100	C	0.693488	0.303660	0.640573
C101	C	0.697732	0.234549	0.761167
C102	C	0.660136	0.205190	0.747642
C103	C	0.618287	0.244951	0.613512
C104	C	0.614040	0.314064	0.492921
C105	C	0.973172	0.314085	0.492861
C106	C	1.038039	0.244977	0.613427
C107	C	1.035968	0.205201	0.747570
C108	C	0.969024	0.234542	0.761145
C109	C	0.904159	0.303652	0.640580
C110	C	0.294445	0.953359	-0.492864
C111	C	0.229578	1.022486	-0.613430
C112	C	0.231649	1.062265	-0.747573
C113	C	0.298593	1.032920	-0.761148
C114	C	0.363459	0.963799	-0.640583
C115	C	0.388673	0.913379	0.073876
C116	C	0.328069	0.973998	0.073879
C117	C	0.258038	1.009520	0.000049
C118	C	0.248610	0.984427	-0.073801
C119	C	0.309213	0.923814	-0.073812
C120	C	0.653578	0.953360	-0.492890
C121	C	0.649346	1.022469	-0.613461
C122	C	0.607504	1.062245	-0.747601
C123	C	0.569899	1.032901	-0.761168
C124	C	0.574135	0.963789	-0.640599
H125	H	0.735706	0.154957	0.189431
H126	H	0.531861	0.482097	-0.189459
O127	O	0.435645	0.932180	-0.655276
H128	H	0.466850	0.940199	-0.603897
H129	H	0.735738	-0.104682	0.189450
H130	H	0.531885	0.372112	-0.189452
O131	O	0.157383	1.054118	-0.598761
H132	H	0.112621	1.108873	-0.705125
O133	O	0.602936	1.136792	-0.877633
H134	H	0.567527	1.159525	-0.973197
H135	H	0.735743	-0.214654	0.189467
O136	O	0.570846	0.759666	-0.651233
H137	H	0.513355	0.796152	-0.663581
H138	H	0.849659	0.327527	0.651655
O139	O	0.161685	1.136826	-0.877608
H140	H	0.114794	1.150539	-0.845616
O141	O	0.698715	0.910467	-0.348224
H142	H	0.695347	0.857481	-0.266648
O143	O	0.533563	0.932159	-0.655242
H144	H	0.503753	0.971440	-0.768776
O145	O	0.300816	1.075829	-0.905840
H146	H	0.329812	1.104320	-0.918134
H147	H	1.092542	0.221096	0.602349
H148	H	0.445691	0.884460	0.134006
H149	H	0.685715	0.529885	-0.384252
H150	H	0.724104	0.327556	0.651613
H151	H	0.301525	0.903387	-0.133938
O152	O	0.338246	1.001044	0.153555
H153	H	0.397126	0.966142	0.204912
H154	H	0.531925	0.002506	-0.189433
O155	O	0.517075	0.136317	-0.217054
H156	H	0.478026	0.146673	-0.289674
H157	H	0.663601	0.148913	0.845846
H158	H	0.967349	0.202146	0.870380
O159	O	0.192677	1.074870	0.000112
H160	H	0.211007	1.086329	0.063892
O161	O	1.105933	0.130651	0.877605
H162	H	1.152823	0.116934	0.845613
O163	O	0.689909	1.054109	-0.598809
H164	H	0.670515	1.077600	-0.540269
O165	O	0.292203	0.910466	-0.348189
H166	H	0.234754	0.942499	-0.359026
H167	H	0.587679	0.221036	0.602521
H168	H	0.966092	0.364052	0.133930
H169	H	0.191583	1.013359	-0.133911
O170	O	0.524762	1.075813	-0.905850
H171	H	0.528131	1.128806	-0.987397
H172	H	0.821926	0.382986	-0.134027
H173	H	0.735698	0.264929	0.189417
H174	H	0.731812	0.202184	0.870369
H175	H	0.191565	0.777839	-0.133939
H176	H	-0.178022	0.777851	-0.133979
H177	H	0.931856	0.273045	-0.134070
H178	H	0.579968	0.346424	0.383723
H179	H	0.445634	0.489588	0.133943
O180	O	0.338147	0.468599	0.153442
H181	H	0.371581	0.424982	0.266932
O182	O	0.299055	0.798838	-0.153448
H183	H	0.240182	0.854079	-0.204801
O184	O	1.074940	0.192573	-0.000125
H185	H	1.056611	0.181096	-0.063875
O186	O	1.094541	0.244714	0.153392
H187	H	1.135091	0.198351	0.140971
O188	O	0.975415	0.356989	0.348186
H189	H	1.032863	0.324980	0.359023
H190	H	-0.033914	0.489597	0.133939
O191	O	0.094563	0.468601	0.153451
H192	H	0.090920	0.413361	0.204805
O193	O	-0.070532	0.798843	-0.153493
H194	H	-0.129406	0.854085	-0.204850
