data_functionalizedCrystal
_audit_creation_method	'MofGen! by Chris Wilmer'
_symmetry_space_group_name_H-M	'P1'
_symmetry_Int_Tables_number	1
_symmetry_cell_setting	triclinic
loop_
_symmetry_equiv_pos_as_xyz
  x,y,z
_cell_length_a	22.010155
_cell_length_b	11.792241
_cell_length_c	11.792241
_cell_angle_alpha	84.193416
_cell_angle_beta	90.004139
_cell_angle_gamma	89.995687
loop_
_atom_site_label
_atom_site_type_symbol
_atom_site_fract_x
_atom_site_fract_y
_atom_site_fract_z
O1	O	0.050466	-1.506917	-0.155552
O2	O	0.050481	-1.176576	-0.171585
O3	O	0.050469	-1.349763	0.001602
O4	O	0.050478	-1.333730	-0.328739
O5	O	-0.050581	-1.349731	0.001576
O6	O	-0.050570	-1.176544	-0.171611
O7	O	-0.050584	-1.506885	-0.155578
Cu8	Cu	-0.059804	-1.341712	-0.163597
Cu9	Cu	0.059700	-1.341749	-0.163566
O10	O	-0.050572	-1.333698	-0.328765
C11	C	-0.000043	-1.134269	-0.170591
C12	C	-0.000038	-1.008255	-0.167576
C13	C	-0.000056	-1.348740	0.043880
C14	C	-0.000055	-1.345726	0.169894
N15	N	-0.143856	-1.341694	-0.163618
C16	C	-0.563641	-1.418441	-0.086890
C17	C	-0.627248	-1.418446	-0.086882
O18	O	-0.660144	-1.483654	-0.021660
N19	N	-0.659063	-1.341748	-0.163542
C20	C	-0.627267	-1.265033	-0.240208
O21	O	-0.660169	-1.199795	-0.305412
C22	C	-0.563661	-1.265023	-0.240209
C23	C	-0.531849	-1.341734	-0.163552
C24	C	-0.531829	-1.495145	-0.010238
C25	C	-0.468226	-1.495140	-0.010247
C26	C	-0.436434	-1.418433	-0.086909
C27	C	-0.468246	-1.341729	-0.163561
C28	C	-0.531866	-1.188303	-0.316868
C29	C	-0.468255	-1.188299	-0.316862
C30	C	-0.436444	-1.265009	-0.240205
C31	C	-0.372851	-1.265018	-0.240232
N32	N	-0.341036	-1.341716	-0.163572
C33	C	-0.372828	-1.418423	-0.086910
C34	C	-0.760845	-1.265058	-0.240198
C35	C	-0.824450	-1.265072	-0.240203
C36	C	-0.824427	-1.418485	-0.086875
C37	C	-0.760820	-1.418475	-0.086877
C38	C	-0.729030	-1.341756	-0.163537
C39	C	-0.239256	-1.418409	-0.086937
C40	C	-0.175648	-1.418402	-0.086956
C41	C	-0.175676	-1.264986	-0.240279
C42	C	-0.239280	-1.264997	-0.240264
C43	C	-0.271068	-1.341713	-0.163583
O44	O	-0.339915	-1.199840	-0.305418
O45	O	-0.339918	-1.483640	-0.021707
N46	N	0.143753	-1.341776	-0.163536
C47	C	-0.000059	-1.549192	-0.156572
C48	C	-0.000061	-1.675206	-0.159587
C49	C	-0.000055	-0.777543	-0.162034
C50	C	-0.000045	-0.905928	-0.165113
C51	C	-0.000046	-1.334721	-0.371043
C52	C	-0.000043	-1.337736	-0.497057
C53	C	-0.000045	-1.340183	0.400606
C54	C	-0.000051	-1.343262	0.272221
H55	H	-0.149748	-1.480873	-0.024532
C56	C	-0.433236	-1.579511	0.074088
C57	C	-0.441982	-1.576806	0.203349
C58	C	-0.406997	-1.661177	0.287692
C59	C	-0.363265	-1.748253	0.242774
C60	C	-0.354517	-1.750962	0.113506
C61	C	-0.389502	-1.666591	0.029163
H62	H	-0.474357	-1.512345	0.236606
H63	H	-0.413473	-1.659172	0.383385
H64	H	-0.337366	-1.810710	0.305210
H65	H	-0.322142	-1.815423	0.080249
H66	H	-0.383026	-1.668596	-0.066530
C67	C	-0.859439	-1.180698	-0.324535
C68	C	-0.824462	-1.096326	-0.408858
C69	C	-0.859448	-1.011944	-0.493189
C70	C	-0.929413	-1.011935	-0.493196
C71	C	-0.964395	-1.096310	-0.408870
C72	C	-0.929408	-1.180692	-0.324540
H73	H	-0.772666	-1.096330	-0.408855
H74	H	-0.833552	-0.949484	-0.555612
H75	H	-0.955312	-0.949470	-0.555623
H76	H	-1.016190	-1.096306	-0.408873
H77	H	-0.955304	-1.243152	-0.262116
H78	H	-0.557758	-1.125837	-0.379288
C79	C	-0.725831	-1.502850	-0.002546
C80	C	-0.734578	-1.500157	0.126717
C81	C	-0.699593	-1.584535	0.211054
C82	C	-0.655860	-1.671604	0.166128
C83	C	-0.647110	-1.674300	0.036859
C84	C	-0.682096	-1.589923	-0.047478
H85	H	-0.766954	-1.435700	0.159979
H86	H	-0.706070	-1.582538	0.306748
H87	H	-0.629961	-1.734065	0.228560
H88	H	-0.614735	-1.738757	0.003597
H89	H	-0.675619	-1.591919	-0.143172
C90	C	-0.274274	-1.180621	-0.324594
C91	C	-0.265528	-1.051369	-0.321817
C92	C	-0.300515	-0.966982	-0.406141
C93	C	-0.344250	-1.011848	-0.493242
C94	C	-0.352999	-1.141107	-0.496023
C95	C	-0.318011	-1.225494	-0.411699
H96	H	-0.233151	-1.018150	-0.257336
H97	H	-0.294039	-0.871296	-0.404082
H98	H	-0.370150	-0.949380	-0.555664
H99	H	-0.385375	-1.174326	-0.560503
H100	H	-0.324487	-1.321180	-0.413758
H101	H	-0.442374	-1.125821	-0.379287
H102	H	-0.850323	-1.480943	-0.024452
H103	H	-0.734964	-1.202587	-0.302633
C104	C	-0.140700	-1.180605	-0.324601
C105	C	-0.096976	-1.093541	-0.279651
C106	C	-0.061998	-1.009152	-0.363967
C107	C	-0.070744	-1.011828	-0.493235
C108	C	-0.114469	-1.098896	-0.538192
C109	C	-0.149447	-1.183285	-0.453875
H110	H	-0.090500	-1.091557	-0.183953
H111	H	-0.029630	-0.944699	-0.330686
H112	H	-0.044851	-0.949359	-0.555651
H113	H	-0.120945	-1.100880	-0.633889
H114	H	-0.181816	-1.247738	-0.487156
H115	H	-0.557708	-1.557609	0.052194
H116	H	-0.265131	-1.480877	-0.024495
