data_functionalizedCrystal
_audit_creation_method	'MofGen! by Chris Wilmer'
_symmetry_space_group_name_H-M	'P1'
_symmetry_Int_Tables_number	1
_symmetry_cell_setting	triclinic
loop_
_symmetry_equiv_pos_as_xyz
  x,y,z
_cell_length_a	12.759401
_cell_length_b	19.805405
_cell_length_c	12.759393
_cell_angle_alpha	89.965059
_cell_angle_beta	89.980387
_cell_angle_gamma	90.026957
loop_
_atom_site_label
_atom_site_type_symbol
_atom_site_fract_x
_atom_site_fract_y
_atom_site_fract_z
Zn1	Zn	1.606168	-0.269419	-0.593988
Zn2	Zn	2.106168	0.230581	-0.093988
Zn3	Zn	1.606025	-0.382624	-0.418298
Zn4	Zn	2.106025	0.117376	0.081702
Zn5	Zn	1.430470	-0.269455	-0.418324
Zn6	Zn	1.930470	0.230545	0.081676
Zn7	Zn	1.430421	-0.382572	-0.593936
Zn8	Zn	1.930421	0.117428	-0.093936
O9	O	1.518271	-0.326017	-0.506136
O10	O	2.018271	0.173983	-0.006136
O11	O	1.753170	-0.284443	-0.570693
O12	O	2.253170	0.215557	-0.070693
O13	O	1.582698	-0.367648	-0.271280
O14	O	2.082698	0.132352	0.228720
O15	O	1.453856	-0.174733	-0.441659
O16	O	1.953856	0.325267	0.058341
O17	O	1.753065	-0.367614	-0.441614
O18	O	2.253065	0.132386	0.058386
O19	O	1.582941	-0.174707	-0.570719
O20	O	2.082941	0.325293	-0.070719
O21	O	1.453718	-0.284503	-0.271299
O22	O	1.953718	0.215497	0.228701
O23	O	1.283442	-0.284453	-0.441608
O24	O	1.783442	0.215547	0.058392
O25	O	1.453774	-0.367525	-0.740964
O26	O	1.953774	0.132475	-0.240964
O27	O	1.283407	-0.367560	-0.570630
O28	O	1.783407	0.132440	-0.070630
O29	O	1.582894	-0.284392	-0.741002
O30	O	2.082894	0.215608	-0.241002
O31	O	1.582651	-0.477334	-0.441564
O32	O	2.082651	0.022666	0.058436
O33	O	1.453636	-0.477295	-0.570604
O34	O	1.953636	0.022705	-0.070604
C35	C	1.245304	-0.326005	-0.506117
C36	C	1.745304	0.173995	-0.006117
C37	C	1.128527	-0.326016	-0.506133
C38	C	1.628527	0.173984	-0.006133
C39	C	1.073614	-0.369254	-0.438830
C40	C	1.573614	0.130746	0.061170
C41	C	0.963890	-0.369266	-0.438848
C42	C	1.463890	0.130734	0.061152
C43	C	0.964001	-0.282796	-0.573476
C44	C	1.464001	0.217204	-0.073476
C45	C	1.073723	-0.282788	-0.573462
C46	C	1.573723	0.217212	-0.073462
C47	C	1.073549	-0.419175	-0.361101
C48	C	1.573549	0.080825	0.138899
C49	C	0.963825	-0.419186	-0.361119
C50	C	1.463825	0.080814	0.138881
C51	C	1.518151	-0.501873	-0.506098
C52	C	2.018151	-0.001873	-0.006098
C53	C	1.518196	-0.577105	-0.506117
C54	C	2.018196	-0.077105	-0.006117
C55	C	1.585371	-0.612378	-0.573371
C56	C	2.085371	-0.112378	-0.073371
C57	C	1.585409	-0.683066	-0.573391
C58	C	2.085409	-0.183066	-0.073391
C59	C	1.518276	-0.718481	-0.506150
C60	C	2.018276	-0.218481	-0.006150
C61	C	1.451094	-0.683204	-0.438893
C62	C	1.951094	-0.183204	0.061107
C63	C	1.451052	-0.612517	-0.438880
C64	C	1.951052	-0.112517	0.061120
C65	C	1.451263	-0.968277	-0.438947
C66	C	1.951263	-0.468277	0.061053
C67	C	1.451313	-1.038969	-0.438964
C68	C	1.951313	-0.538969	0.061036
C69	C	1.585620	-1.038827	-0.573458
C70	C	2.085620	-0.538827	-0.073458
C71	C	1.585577	-0.968139	-0.573445
C72	C	2.085577	-0.468139	-0.073445
C73	C	1.518392	-0.932868	-0.506192
C74	C	2.018392	-0.432868	-0.006192
C75	C	1.518350	-0.856220	-0.506173
C76	C	2.018350	-0.356220	-0.006173
C77	C	1.518323	-0.795128	-0.506163
C78	C	2.018323	-0.295128	-0.006163
C79	C	1.792304	-0.326030	-0.506157
C80	C	2.292304	0.173970	-0.006157
C81	C	1.909081	-0.326036	-0.506165
C82	C	2.409081	0.173964	-0.006165
C83	C	1.518344	-0.325949	-0.780170
C84	C	2.018344	0.174051	-0.280170
C85	C	1.518376	-0.325920	-0.896947
C86	C	2.018376	0.174080	-0.396947
C87	C	1.518420	-0.149475	-0.506198
C88	C	2.018420	0.350525	-0.006198
C89	C	1.518483	-0.074243	-0.506224
C90	C	2.018483	0.425757	-0.006224
C91	C	1.585618	-0.282629	-0.951830
C92	C	2.085618	0.217371	-0.451830
C93	C	1.585643	-0.282604	-1.061554
C94	C	2.085643	0.217396	-0.561554
C95	C	1.451181	-0.369168	-1.061501
C96	C	1.951181	0.130832	-0.561501
C97	C	1.451151	-0.369189	-0.951779
C98	C	1.951151	0.130811	-0.451779
C99	C	1.663252	-0.232653	-0.951862
C100	C	2.163252	0.267347	-0.451862
C101	C	1.663277	-0.232629	-1.061586
C102	C	2.163277	0.267371	-0.561586
C103	C	1.518258	-0.326037	-0.233169
C104	C	2.018258	0.173963	0.266831
C105	C	1.518430	-0.325875	-0.116393
C106	C	2.018430	0.174125	0.383607
H107	H	0.919367	-0.247602	-0.628293
H108	H	1.419367	0.252398	-0.128293
N109	N	0.924309	-0.400503	-0.253408
N110	N	1.424309	0.099497	0.246592
H111	H	0.950625	-0.434439	-0.200495
H112	H	1.450625	0.065561	0.299505
H113	H	0.950684	-0.354032	-0.234271
H114	H	1.450684	0.145968	0.265729
N115	N	1.378611	-0.574466	-0.366335
N116	N	1.878611	-0.074466	0.133665
H117	H	1.329882	-0.545145	-0.408984
H118	H	1.829882	-0.045145	0.091016
H119	H	1.336160	-0.607666	-0.323750
H120	H	1.836160	-0.107666	0.176250
H121	H	1.103305	-0.471611	-0.382742
H122	H	1.603305	0.028389	0.117258
H123	H	1.744643	-0.246668	-1.091365
H124	H	2.244643	0.253332	-0.591365
H125	H	1.107556	-0.400335	-0.283856
H126	H	1.607556	0.099665	0.216144
N127	N	1.657845	-0.721131	-0.645919
N128	N	2.157845	-0.221131	-0.145919
H129	H	1.615118	-0.750454	-0.694563
H130	H	2.115118	-0.250454	-0.194563
H131	H	1.700369	-0.687944	-0.688457
H132	H	2.200369	-0.187944	-0.188457
H133	H	1.640322	-1.067553	-0.628222
H134	H	2.140322	-0.567553	-0.128222
H135	H	0.929781	-0.469010	-0.390126
H136	H	1.429781	0.030990	0.109874
N137	N	1.657784	-0.574183	-0.645890
N138	N	2.157784	-0.074183	-0.145890
H139	H	1.700342	-0.607257	-0.688499
H140	H	2.200342	-0.107257	-0.188499
H141	H	1.614974	-0.544854	-0.694467
H142	H	2.114974	-0.044854	-0.194467
N143	N	1.378904	-1.077169	-0.366435
N144	N	1.878904	-0.577169	0.133565
H145	H	1.336334	-1.044099	-0.323830
H146	H	1.836334	-0.544099	0.176170
H147	H	1.330286	-1.106507	-0.409169
H148	H	1.830286	-0.606507	0.090831
H149	H	1.640246	-0.939307	-0.628194
H150	H	2.140246	-0.439307	-0.128194
N151	N	1.378813	-0.930240	-0.366404
N152	N	1.878813	-0.430240	0.133596
H153	H	1.336300	-0.963403	-0.323806
H154	H	1.836300	-0.463403	0.176194
H155	H	1.421593	-0.900912	-0.317818
H156	H	1.921593	-0.400912	0.182182
H157	H	1.118429	-0.247587	-0.628278
H158	H	1.618429	0.252413	-0.128278
H159	H	1.396430	-0.712044	-0.384149
H160	H	1.896430	-0.212044	0.115851
N161	N	1.378587	-0.415855	-0.892581
N162	N	1.878587	0.084145	-0.392581
H163	H	1.336000	-0.443256	-0.943969
H164	H	1.836000	0.056744	-0.443969
H165	H	1.421278	-0.447200	-0.847027
H166	H	1.921278	0.052800	-0.347027
H167	H	1.641500	-0.180235	-0.922110
H168	H	2.141500	0.319765	-0.422110
N169	N	1.378663	-0.415826	-1.120643
N170	N	1.878663	0.084174	-0.620643
H171	H	1.388878	-0.409241	-1.198480
H172	H	1.888878	0.090759	-0.698480
H173	H	1.394954	-0.464174	-1.101452
H174	H	1.894954	0.035826	-0.601452
H175	H	1.740517	-0.251445	-0.917826
H176	H	2.240517	0.248555	-0.417826
N177	N	1.624741	-0.166660	-1.106705
N178	N	2.124741	0.333340	-0.606705
H179	H	1.606106	-0.134801	-1.047803
H180	H	2.106106	0.365199	-0.547803
H181	H	1.681662	-0.145863	-1.151299
H182	H	2.181662	0.354137	-0.651299
