data_functionalizedCrystal
_audit_creation_method	'MofGen! by Chris Wilmer'
_symmetry_space_group_name_H-M	'P1'
_symmetry_Int_Tables_number	1
_symmetry_cell_setting	triclinic
loop_
_symmetry_equiv_pos_as_xyz
  x,y,z
_cell_length_a	12.759395
_cell_length_b	16.625545
_cell_length_c	12.759387
_cell_angle_alpha	89.966984
_cell_angle_beta	89.982772
_cell_angle_gamma	90.027095
loop_
_atom_site_label
_atom_site_type_symbol
_atom_site_fract_x
_atom_site_fract_y
_atom_site_fract_z
Zn1	Zn	1.606155	-0.320928	-0.593987
Zn2	Zn	1.606023	-0.455783	-0.418300
Zn3	Zn	1.430464	-0.320971	-0.418324
Zn4	Zn	1.430413	-0.455726	-0.593939
O5	O	1.518264	-0.388352	-0.506137
O6	O	1.753159	-0.338822	-0.570692
O7	O	1.582700	-0.437942	-0.271282
O8	O	1.453846	-0.208133	-0.441656
O9	O	1.753061	-0.437900	-0.441615
O10	O	1.582926	-0.208101	-0.570715
O11	O	1.453718	-0.338896	-0.271300
O12	O	1.283436	-0.338841	-0.441610
O13	O	1.453759	-0.437803	-0.740967
O14	O	1.283398	-0.437845	-0.570633
O15	O	1.582877	-0.338767	-0.741002
O16	O	1.582651	-0.568608	-0.441569
O17	O	1.453631	-0.568566	-0.570610
C18	C	1.245296	-0.388342	-0.506119
C19	C	1.128519	-0.388357	-0.506137
C20	C	1.518149	-0.597843	-0.506104
C21	C	1.518197	-0.687464	-0.506125
C22	C	1.128519	-0.491617	-0.640272
C23	C	1.073658	-0.543253	-0.707342
C24	C	0.963936	-0.543262	-0.707355
C25	C	0.909073	-0.491629	-0.640292
C26	C	0.963934	-0.439993	-0.573222
C27	C	1.073658	-0.439991	-0.573214
C28	C	0.963935	-0.336731	-0.439094
C29	C	1.073656	-0.336724	-0.439074
C30	C	0.909072	-0.285098	-0.372031
C31	C	0.963933	-0.233464	-0.304954
C32	C	1.073661	-0.233457	-0.304943
C33	C	1.128517	-0.285088	-0.372003
C34	C	1.518238	-0.760246	-0.506146
C35	C	1.518299	-0.851555	-0.506169
C36	C	1.518353	-0.924331	-0.506183
C37	C	1.518413	-1.015646	-0.506204
C38	C	1.792297	-0.388363	-0.506156
C39	C	1.909074	-0.388367	-0.506164
C40	C	1.518327	-0.388274	-0.780171
C41	C	1.518354	-0.388241	-0.896948
C42	C	1.518407	-0.178043	-0.506194
C43	C	1.518468	-0.088422	-0.506218
C44	C	1.652738	-0.491321	-1.116355
C45	C	1.719873	-0.542905	-1.061474
C46	C	1.719838	-0.542936	-0.951753
C47	C	1.652659	-0.491378	-0.896909
C48	C	1.585524	-0.439794	-0.951789
C49	C	1.585568	-0.439767	-1.061513
C50	C	1.451220	-0.336657	-0.951828
C51	C	1.451258	-0.336620	-1.061550
C52	C	1.384041	-0.285099	-0.896984
C53	C	1.316910	-0.233510	-0.951865
C54	C	1.316948	-0.233480	-1.061593
C55	C	1.384123	-0.285036	-1.116430
C56	C	1.518261	-0.388372	-0.233170
C57	C	1.518437	-0.388178	-0.116394
H58	H	1.217860	-0.491620	-0.640260
H59	H	0.819732	-0.491635	-0.640318
H60	H	1.118340	-0.585290	-0.761945
H61	H	1.262213	-0.191540	-0.907202
C62	C	0.904179	-0.177500	-0.232189
C63	C	0.796348	-0.188569	-0.246544
C64	C	0.741267	-0.137037	-0.179519
H65	H	0.922070	-0.123305	-0.247621
H66	H	0.922059	-0.189241	-0.161544
H67	H	0.778476	-0.176822	-0.317173
H68	H	0.778426	-0.242753	-0.231105
H69	H	0.759146	-0.148778	-0.108874
H70	H	0.759166	-0.082845	-0.194957
H71	H	0.668098	-0.144545	-0.189243
C72	C	1.792680	-0.599013	-1.120962
C73	C	1.769719	-0.678797	-1.094269
C74	C	1.836756	-0.730508	-1.149053
H75	H	1.863309	-0.587328	-1.103023
H76	H	1.783083	-0.591664	-1.194179
H77	H	1.779325	-0.686143	-1.021068
H78	H	1.699102	-0.690508	-1.112211
H79	H	1.827159	-0.723159	-1.222270
H80	H	1.907382	-0.718815	-1.131110
H81	H	1.821180	-0.784647	-1.130957
H82	H	0.919269	-0.585305	-0.761975
C83	C	1.383802	-0.285215	-0.777858
C84	C	1.283757	-0.305810	-0.741552
C85	C	1.283501	-0.305932	-0.631818
H86	H	1.401930	-0.233216	-0.752920
H87	H	1.433357	-0.323343	-0.752984
H88	H	1.234217	-0.267684	-0.766415
H89	H	1.265609	-0.357809	-0.766461
H90	H	1.333057	-0.344060	-0.606945
H91	H	1.301633	-0.253932	-0.606891
H92	H	1.215625	-0.319913	-0.607171
C93	C	1.133031	-0.177365	-0.232002
C94	C	1.061496	-0.132169	-0.173263
C95	C	1.116144	-0.080497	-0.106047
H96	H	1.175876	-0.142199	-0.272150
H97	H	1.175772	-0.208145	-0.186087
H98	H	1.018773	-0.101392	-0.219172
H99	H	1.018648	-0.167315	-0.133093
H100	H	1.158885	-0.111277	-0.060131
H101	H	1.158987	-0.045336	-0.146203
H102	H	1.067616	-0.049831	-0.066177
C103	C	1.652608	-0.491590	-0.777782
C104	C	1.625757	-0.568370	-0.741466
C105	C	1.625712	-0.568598	-0.631732
H106	H	1.602993	-0.453560	-0.752841
H107	H	1.720419	-0.477705	-0.752919
H108	H	1.557956	-0.582245	-0.766318
H109	H	1.675363	-0.606414	-0.766378
H110	H	1.693523	-0.554713	-0.606869
H111	H	1.576097	-0.530564	-0.606802
H112	H	1.607504	-0.620693	-0.607078
C113	C	1.247644	-0.284991	-0.371802
C114	C	1.283952	-0.228733	-0.298697
C115	C	1.393686	-0.228629	-0.298478
H116	H	1.272627	-0.271085	-0.439571
H117	H	1.272470	-0.336990	-0.353453
H118	H	1.259137	-0.176745	-0.317052
H119	H	1.258998	-0.242625	-0.230917
H120	H	1.418512	-0.280628	-0.280129
H121	H	1.418658	-0.214725	-0.366251
H122	H	1.418335	-0.190464	-0.248871
C123	C	1.652909	-0.491424	-1.235481
C124	C	1.726095	-0.547622	-1.271765
C125	C	1.726278	-0.547744	-1.381499
H126	H	1.671162	-0.439430	-1.260435
H127	H	1.585132	-0.505395	-1.260354
H128	H	1.793858	-0.533646	-1.246903
H129	H	1.707859	-0.599624	-1.246840
H130	H	1.658500	-0.561716	-1.406371
H131	H	1.744529	-0.495748	-1.406442
H132	H	1.775926	-0.585879	-1.406131
H133	H	1.774511	-0.584936	-0.907069
H134	H	1.262276	-0.191476	-1.106270
H135	H	0.819730	-0.285106	-0.372051
H136	H	1.384165	-0.285014	-1.205772
