data_functionalizedCrystal
_audit_creation_method	'MofGen! by Chris Wilmer'
_symmetry_space_group_name_H-M	'P1'
_symmetry_Int_Tables_number	1
_symmetry_cell_setting	triclinic
loop_
_symmetry_equiv_pos_as_xyz
  x,y,z
_cell_length_a	19.288864
_cell_length_b	17.699083
_cell_length_c	18.366186
_cell_angle_alpha	89.992864
_cell_angle_beta	89.977106
_cell_angle_gamma	83.209630
loop_
_atom_site_label
_atom_site_type_symbol
_atom_site_fract_x
_atom_site_fract_y
_atom_site_fract_z
O1	O	0.921465	0.094417	-0.060785
O2	O	1.421465	0.594417	0.439215
O3	O	0.719219	0.107154	-0.060735
O4	O	1.219219	0.607154	0.439265
O5	O	0.826056	-0.009412	-0.060755
O6	O	1.326056	0.490588	0.439245
O7	O	0.814628	0.210983	-0.060765
O8	O	1.314628	0.710983	0.439235
O9	O	0.826038	-0.009417	0.060345
O10	O	1.326038	0.490583	0.560345
O11	O	0.719201	0.107148	0.060364
O12	O	1.219201	0.607148	0.560364
O13	O	0.921446	0.094412	0.060315
O14	O	1.421446	0.594412	0.560315
Zn15	Zn	0.820321	0.100779	0.079567
Zn16	Zn	1.320321	0.600779	0.579567
Zn17	Zn	0.820345	0.100786	-0.079987
Zn18	Zn	1.320345	0.600786	0.420013
O19	O	0.814610	0.210977	0.060335
O20	O	1.314610	0.710977	0.560335
C21	C	0.693333	0.106741	-0.000179
C22	C	1.193333	0.606741	0.499821
C23	C	0.616228	0.105511	-0.000160
C24	C	1.116228	0.605511	0.499840
C25	C	0.571613	0.173906	-0.000174
C26	C	1.071613	0.673906	0.499826
C27	C	0.499164	0.172751	-0.000182
C28	C	0.999164	0.672751	0.499818
C29	C	0.471334	0.103196	-0.000190
C30	C	0.971334	0.603196	0.499810
C31	C	0.515959	0.034791	-0.000172
C32	C	1.015959	0.534791	0.499828
C33	C	0.588406	0.035949	-0.000156
C34	C	1.088406	0.535949	0.499844
C35	C	0.363014	0.048520	-0.042639
C36	C	0.863014	0.548520	0.457361
C37	C	0.290568	0.047365	-0.042659
C38	C	0.790568	0.547365	0.457341
C39	C	0.247884	0.099622	-0.000234
C40	C	0.747884	0.599622	0.499766
C41	C	0.277654	0.153047	0.042200
C42	C	0.777654	0.653047	0.542200
C43	C	0.350101	0.154205	0.042216
C44	C	0.850101	0.654205	0.542216
C45	C	0.392779	0.101932	-0.000206
C46	C	0.892779	0.601932	0.499794
C47	C	0.124712	0.166769	-0.000256
C48	C	0.624712	0.666769	0.499744
C49	C	0.052262	0.165610	-0.000260
C50	C	0.552262	0.665610	0.499740
C51	C	0.069059	0.027649	-0.000257
C52	C	0.569059	0.527649	0.499743
C53	C	0.141507	0.028809	-0.000246
C54	C	0.641507	0.528809	0.499754
C55	C	0.169329	0.098371	-0.000249
C56	C	0.669329	0.598371	0.499751
C57	C	0.825637	-0.037611	-0.000205
C58	C	1.325637	0.462389	0.499795
C59	C	0.824409	-0.121627	-0.000204
C60	C	1.324409	0.378373	0.499796
C61	C	0.887120	-0.170336	-0.000219
C62	C	1.387120	0.329664	0.499781
C63	C	0.885961	-0.249278	-0.000225
C64	C	1.385961	0.250722	0.499775
C65	C	0.822091	-0.279509	-0.000211
C66	C	1.322091	0.220491	0.499789
C67	C	0.759375	-0.230794	-0.000199
C68	C	1.259375	0.269206	0.499801
C69	C	0.760535	-0.151854	-0.000198
C70	C	1.260535	0.348146	0.499802
C71	C	0.754699	-0.549150	-0.000204
C72	C	1.254699	-0.049150	0.499796
C73	C	0.753545	-0.628097	-0.000203
C74	C	1.253545	-0.128097	0.499797
C75	C	0.880126	-0.646575	-0.000230
C76	C	1.380126	-0.146575	0.499770
C77	C	0.881285	-0.567635	-0.000230
C78	C	1.381285	-0.067635	0.499770
C79	C	0.818570	-0.518926	-0.000221
C80	C	1.318570	-0.018926	0.499779
C81	C	0.819827	-0.433329	-0.000216
C82	C	1.319827	0.066671	0.499784
C83	C	0.820834	-0.365105	-0.000211
C84	C	1.320834	0.134895	0.499789
C85	C	0.947332	0.094824	-0.000243
C86	C	1.447332	0.594824	0.499757
C87	C	1.024437	0.096054	-0.000267
C88	C	1.524437	0.596054	0.499733
C89	C	0.815028	0.239176	-0.000217
C90	C	1.315028	0.739176	0.499783
C91	C	0.816257	0.323193	-0.000222
C92	C	1.316257	0.823193	0.499778
N93	N	0.820310	0.100773	0.188458
N94	N	1.320310	0.600773	0.688458
N95	N	0.820361	0.100786	-0.188878
N96	N	1.320361	0.600786	0.311122
C97	C	0.867632	0.049183	0.226550
C98	C	1.367632	0.549183	0.726550
C99	C	0.867637	0.049180	0.302777
C100	C	1.367637	0.549180	0.802777
C101	C	0.820325	0.100780	0.340911
C102	C	1.320325	0.600780	0.840911
C103	C	0.772993	0.152373	0.302810
C104	C	1.272993	0.652373	0.802810
C105	C	0.772986	0.152370	0.226583
C106	C	1.272986	0.652370	0.726583
C107	C	0.811108	0.169742	0.461669
C108	C	1.311108	0.669742	0.961669
C109	C	0.811121	0.169746	0.537894
C110	C	1.311121	0.669746	1.037894
C111	C	0.820345	0.100789	0.576018
C112	C	1.320345	0.600789	1.076018
C113	C	0.829571	0.031825	0.537908
C114	C	1.329571	0.531825	1.037908
C115	C	0.829563	0.031822	0.461681
C116	C	1.329563	0.531822	0.961681
C117	C	0.820328	0.100788	0.423565
C118	C	1.320328	0.600788	0.923565
C119	C	0.867675	0.049191	0.696765
C120	C	1.367675	0.549191	1.196765
C121	C	0.867674	0.049187	0.772994
C122	C	1.367674	0.549187	1.272994
C123	C	0.773034	0.152387	0.773025
C124	C	1.273034	0.652387	1.273025
C125	C	0.773031	0.152385	0.696797
C126	C	1.273031	0.652385	1.196797
C127	C	0.820355	0.100788	0.658672
C128	C	1.320355	0.600788	1.158672
H129	H	0.493296	-0.021841	-0.000188
H130	H	0.993296	0.478159	0.499812
N131	N	0.950173	-0.535028	-0.000238
N132	N	1.450173	-0.035028	0.499762
H133	H	0.989725	-0.577865	-0.000249
H134	H	1.489725	-0.077865	0.499751
H135	H	0.953417	-0.502672	-0.045131
H136	H	1.453417	-0.002672	0.454869
H137	H	0.709469	-0.112195	-0.000187
H138	H	1.209469	0.387805	0.499813
H139	H	0.939130	-0.145729	-0.000225
H140	H	1.439130	0.354271	0.499775
H141	H	0.177834	-0.026886	-0.000238
H142	H	0.677834	0.473114	0.499762
H143	H	0.937027	-0.288934	-0.000235
H144	H	1.437027	0.211066	0.499765
H145	H	0.931192	-0.686243	-0.000241
H146	H	1.431192	-0.186243	0.499759
N147	N	0.258462	-0.010257	-0.088421
N148	N	0.758462	0.489743	0.411579
H149	H	0.225043	0.017055	-0.124715
H150	H	0.725043	0.517055	0.375285
H151	H	0.296535	-0.043177	-0.115239
H152	H	0.796535	0.456823	0.384761
H153	H	0.906208	0.007172	0.804009
H154	H	1.406208	0.507172	1.304009
H155	H	0.624733	-0.019749	-0.000145
H156	H	1.124733	0.480251	0.499855
H157	H	0.734470	0.194386	0.333862
H158	H	1.234470	0.694386	0.833862
H159	H	0.906165	0.007168	0.195510
H160	H	1.406165	0.507168	0.695510
N161	N	0.839524	-0.042557	0.579014
N162	N	1.339524	0.457443	1.079014
H163	H	0.838126	-0.032094	0.633086
H164	H	1.338126	0.467906	1.133086
H165	H	0.800963	-0.073971	0.565713
H166	H	1.300963	0.426029	1.065713
H167	H	0.906207	0.007175	0.665722
H168	H	1.406207	0.507175	1.165722
H169	H	0.734510	0.194397	0.804072
H170	H	1.234510	0.694397	1.304072
H171	H	0.701531	-0.652707	-0.000190
H172	H	1.201531	-0.152707	0.499810
H173	H	0.734500	0.194397	0.665781
H174	H	1.234500	0.694397	1.165781
N175	N	0.690485	-0.263396	-0.000190
N176	N	1.190485	0.236604	0.499810
H177	H	0.699266	-0.320795	-0.000190
H178	H	1.199266	0.179205	0.499810
H179	H	0.663043	-0.245565	0.044710
H180	H	1.163043	0.254435	0.544710
H181	H	0.374336	0.197703	0.076770
H182	H	0.874336	0.697703	0.576770
N183	N	0.687060	-0.496621	-0.000192
N184	N	1.187060	0.003379	0.499808
H185	H	0.646425	-0.527753	-0.000180
H186	H	1.146425	-0.027753	0.499820
H187	H	0.684776	-0.463470	0.044701
H188	H	1.184776	0.036530	0.544701
N189	N	0.918679	-0.006461	0.343880
N190	N	1.418679	0.493539	0.843880
H191	H	0.910779	-0.060161	0.330632
H192	H	1.410779	0.439839	0.830632
H193	H	0.967934	0.002190	0.330573
H194	H	1.467934	0.502190	0.830573
N195	N	0.409049	-0.007849	-0.088397
N196	N	0.909049	0.492151	0.411603
H197	H	0.379198	-0.041863	-0.115285
H198	H	0.879198	0.458137	0.384715
H199	H	0.435737	0.020485	-0.124629
H200	H	0.935737	0.520485	0.375371
N201	N	0.839511	-0.042553	0.420575
N202	N	1.339511	0.457447	0.920575
H203	H	0.845356	-0.086239	0.456288
H204	H	1.345356	0.413761	0.956288
H205	H	0.797320	-0.046854	0.388972
H206	H	1.297320	0.453146	0.888972
H207	H	0.803613	0.225900	0.568918
H208	H	1.303613	0.725900	1.068918
N209	N	0.801161	0.244121	0.420553
N210	N	1.301161	0.744121	0.920553
H211	H	0.795325	0.287807	0.456260
H212	H	1.295325	0.787807	0.956260
H213	H	0.843346	0.248418	0.388905
H214	H	1.343346	0.748418	0.888905
N215	N	0.721940	0.208013	0.185493
N216	N	1.221940	0.708013	0.685493
H217	H	0.691965	0.240700	0.221214
H218	H	1.191965	0.740700	0.721214
H219	H	0.748468	0.241401	0.153847
H220	H	1.248468	0.741401	0.653847
H221	H	0.462831	0.228448	-0.000192
H222	H	0.962831	0.728448	0.499808
N223	N	0.601621	0.248931	-0.000183
N224	N	1.101621	0.748931	0.499817
H225	H	0.562359	0.292084	-0.000195
H226	H	1.062359	0.792084	0.499805
H227	H	0.631289	0.252422	0.044714
H228	H	1.131289	0.752422	0.544714
H229	H	0.242902	0.195599	0.076747
H230	H	0.742902	0.695599	0.576747
H231	H	0.147365	0.223410	-0.000249
H232	H	0.647365	0.723410	0.499751
N233	N	0.004137	0.239383	-0.000218
N234	N	0.504137	0.739383	0.499782
H235	H	0.032758	0.283622	-0.000202
H236	H	0.532758	0.783622	0.499798
H237	H	-0.026289	0.241943	-0.045098
H238	H	0.473711	0.741943	0.454902
H239	H	0.046401	-0.028984	-0.000308
H240	H	0.546401	0.471016	0.499692
