data_functionalizedCrystal
_audit_creation_method	'MofGen! by Chris Wilmer'
_symmetry_space_group_name_H-M	'P1'
_symmetry_Int_Tables_number	1
_symmetry_cell_setting	triclinic
loop_
_symmetry_equiv_pos_as_xyz
  x,y,z
_cell_length_a	33.592126
_cell_length_b	33.591377
_cell_length_c	33.588093
_cell_angle_alpha	60.004089
_cell_angle_beta	60.008299
_cell_angle_gamma	59.994549
loop_
_atom_site_label
_atom_site_type_symbol
_atom_site_fract_x
_atom_site_fract_y
_atom_site_fract_z
O1	O	0.055297	-0.581666	0.486338
O2	O	0.555297	-0.081666	0.986338
O3	O	0.020882	-0.452873	0.391864
O4	O	0.520882	0.047127	0.891864
O5	O	0.102445	-0.534352	0.391775
O6	O	0.602445	-0.034352	0.891775
O7	O	-0.026266	-0.500187	0.486427
O8	O	0.473734	-0.000187	0.986427
O9	O	0.129510	-0.507292	0.418747
O10	O	0.629510	-0.007292	0.918747
O11	O	0.047947	-0.425814	0.418835
O12	O	0.547947	0.074186	0.918835
O13	O	0.082362	-0.554606	0.513309
O14	O	0.582362	-0.054606	1.013309
Cu15	Cu	0.067626	-0.487739	0.468535
Cu16	Cu	0.567626	0.012261	0.968535
Cu17	Cu	0.035618	-0.519740	0.436638
Cu18	Cu	0.535618	-0.019740	0.936638
O19	O	0.000799	-0.473128	0.513398
O20	O	0.500799	0.026872	1.013398
N21	N	0.090139	-0.465235	0.490972
N22	N	0.590139	0.034765	0.990972
N23	N	0.013110	-0.542249	0.414202
N24	N	0.513110	-0.042249	0.914202
C25	C	0.124394	-0.431229	0.734914
C26	C	0.624394	0.068771	1.234914
C27	C	0.334265	-0.431145	0.524799
C28	C	0.834265	0.068855	1.024799
C29	C	0.124204	-0.431200	0.524965
C30	C	0.624204	0.068800	1.024965
C31	C	0.124184	-0.221175	0.524955
C32	C	0.624184	0.278825	1.024955
C33	C	0.158017	-0.322536	0.558710
C34	C	0.658017	0.177464	1.058710
C35	C	0.158027	-0.397406	0.558711
C36	C	0.658027	0.102594	1.058711
C37	C	0.176763	-0.378688	0.577408
C38	C	0.676763	0.121312	1.077408
C39	C	0.258412	-0.364594	0.534386
C40	C	0.758412	0.135406	1.034386
C41	C	0.309454	-0.381596	0.517340
C42	C	0.809454	0.118404	1.017340
C43	C	0.309485	-0.464188	0.548836
C44	C	0.809485	0.035812	1.048836
C45	C	0.258444	-0.447186	0.565883
C46	C	0.758444	0.052814	1.065883
C47	C	0.170304	-0.297002	0.508532
C48	C	0.670304	0.202998	1.008532
C49	C	0.153260	-0.245956	0.491537
C50	C	0.653260	0.254044	0.991537
C51	C	0.111648	-0.245983	0.574901
C52	C	0.611648	0.254017	1.074901
C53	C	0.128691	-0.297029	0.591896
C54	C	0.628691	0.202971	1.091896
C55	C	0.107841	-0.385091	0.571080
C56	C	0.607841	0.114909	1.071080
C57	C	0.090813	-0.402108	0.554078
C58	C	0.590813	0.097892	1.054078
C59	C	0.174153	-0.443755	0.512351
C60	C	0.674153	0.056245	1.012351
C61	C	0.191183	-0.426739	0.529347
C62	C	0.691183	0.073261	1.029347
C63	C	0.107923	-0.385106	0.659111
C64	C	0.607923	0.114894	1.159111
C65	C	0.090955	-0.402138	0.710156
C66	C	0.590955	0.097862	1.210156
C67	C	0.174335	-0.443795	0.710087
C68	C	0.674335	0.056205	1.210087
C69	C	0.191302	-0.426764	0.659041
C70	C	0.691302	0.073236	1.159041
C71	C	0.158095	-0.397418	0.633555
C72	C	0.658095	0.102582	1.133555
C73	C	0.232909	-0.397388	0.558656
C74	C	0.732909	0.102612	1.058656
C75	C	0.105069	-0.449619	0.791057
C76	C	0.605069	0.050381	1.291057
C77	C	0.390406	-0.449193	0.505789
C78	C	0.890406	0.050807	1.005789
C79	C	0.104813	-0.449599	0.506607
C80	C	0.604813	0.050401	1.006607
C81	C	0.105125	-0.165028	0.506915
C82	C	0.605125	0.334972	1.006915
C83	C	-0.020560	-0.576246	0.169890
C84	C	0.479440	-0.076246	0.669890
C85	C	-0.020889	-0.786183	0.379970
C86	C	0.479111	-0.286183	0.879970
C87	C	-0.020859	-0.576235	0.380063
C88	C	0.479141	-0.076235	0.880063
C89	C	-0.230772	-0.576015	0.379658
C90	C	0.269228	-0.076015	0.879658
C91	C	-0.129417	-0.609898	0.346025
C92	C	0.370583	-0.109898	0.846025
C93	C	-0.054587	-0.609979	0.346172
C94	C	0.445413	-0.109979	0.846172
C95	C	-0.073269	-0.628671	0.327396
C96	C	0.426731	-0.128671	0.827396
C97	C	-0.087401	-0.710299	0.370335
C98	C	0.412599	-0.210299	0.870335
C99	C	-0.070424	-0.761345	0.387369
C100	C	0.429576	-0.261345	0.887369
C101	C	0.012165	-0.761428	0.356003
C102	C	0.512165	-0.261428	0.856003
C103	C	-0.004813	-0.710383	0.338967
C104	C	0.495187	-0.210383	0.838967
C105	C	-0.155001	-0.622196	0.396191
C106	C	0.344999	-0.122196	0.896191
C107	C	-0.206043	-0.605128	0.413125
C108	C	0.293957	-0.105128	0.913125
C109	C	-0.205914	-0.563467	0.329724
C110	C	0.294086	-0.063467	0.829724
C111	C	-0.154872	-0.580535	0.312790
C112	C	0.345128	-0.080535	0.812790
C113	C	-0.066886	-0.559797	0.333828
C114	C	0.433114	-0.059797	0.833828
C115	C	-0.049903	-0.542809	0.350903
C116	C	0.450097	-0.042809	0.850903
C117	C	-0.008321	-0.626180	0.392654
C118	C	0.491679	-0.126180	0.892654
C119	C	-0.025304	-0.643170	0.375585
C120	C	0.474696	-0.143170	0.875585
C121	C	-0.066758	-0.559805	0.245702
C122	C	0.433242	-0.059805	0.745702
C123	C	-0.049671	-0.542819	0.194658
C124	C	0.450329	-0.042819	0.694658
C125	C	-0.008026	-0.626194	0.194706
C126	C	0.491974	-0.126194	0.694706
C127	C	-0.025111	-0.643179	0.245752
C128	C	0.474889	-0.143179	0.745752
C129	C	-0.054479	-0.609983	0.271248
C130	C	0.445521	-0.109983	0.771248
C131	C	-0.054597	-0.684821	0.346135
C132	C	0.445403	-0.184821	0.846135
C133	C	-0.002109	-0.556901	0.113746
C134	C	0.497891	-0.056901	0.613746
C135	C	-0.002869	-0.842328	0.398966
C136	C	0.497131	-0.342328	0.898966
C137	C	-0.002496	-0.556887	0.398501
C138	C	0.497504	-0.056887	0.898501
C139	C	-0.286914	-0.556929	0.397631
C140	C	0.213086	-0.056929	0.897631
N141	N	0.436349	-0.465146	0.490703
N142	N	0.936349	0.034854	0.990703
O143	O	0.592194	-0.469605	0.374236
O144	O	1.092194	0.030395	0.874236
O145	O	0.592389	-0.564393	0.502890
O146	O	1.092389	-0.064393	1.002890
O147	O	0.592305	-0.564176	0.421300
O148	O	1.092305	-0.064176	0.921300
O149	O	0.592277	-0.469822	0.455826
O150	O	1.092277	0.030178	0.955826
O151	O	0.511216	-0.537214	0.448415
O152	O	1.011216	-0.037214	0.948415
O153	O	0.511300	-0.537431	0.530004
O154	O	1.011300	-0.037431	1.030004
O155	O	0.511104	-0.442643	0.401350
O156	O	1.011104	0.057357	0.901350
Cu157	Cu	0.503798	-0.487575	0.468153
Cu158	Cu	1.003798	0.012425	0.968153
Cu159	Cu	0.599695	-0.519461	0.436087
Cu160	Cu	1.099695	-0.019461	0.936087
O161	O	0.511188	-0.442860	0.482940
O162	O	1.011188	0.057140	0.982940
N163	N	0.667145	-0.541890	0.413532
N164	N	1.167145	-0.041890	0.913532
N165	N	0.090108	-0.119085	0.490958
N166	N	0.590108	0.380915	0.990958
O167	O	-0.026275	0.036848	0.486394
O168	O	0.473725	0.536848	0.986394
O169	O	0.102381	0.036888	0.391584
O170	O	0.602381	0.536888	0.891584
O171	O	0.020751	0.036852	0.391854
O172	O	0.520751	0.536852	0.891854
O173	O	0.055356	0.036884	0.486124
O174	O	0.555356	0.536884	0.986124
O175	O	0.047821	-0.044242	0.418876
O176	O	0.547821	0.455758	0.918876
O177	O	0.129452	-0.044207	0.418606
O178	O	0.629452	0.455793	0.918606
O179	O	0.000796	-0.044246	0.513417
O180	O	0.500796	0.455754	1.013417
Cu181	Cu	0.067596	-0.051631	0.468479
Cu182	Cu	0.567596	0.448369	0.968479
Cu183	Cu	0.035582	0.044273	0.436522
Cu184	Cu	0.535582	0.544273	0.936522
O185	O	0.082426	-0.044211	0.513146
O186	O	0.582426	0.455789	1.013146
N187	N	0.013063	0.111726	0.414043
N188	N	0.513063	0.611726	0.914043
N189	N	0.090453	-0.465282	0.837001
N190	N	0.590453	0.034718	1.337001
O191	O	0.085913	-0.581648	0.992925
O192	O	0.585913	-0.081648	1.492925
O193	O	-0.008857	-0.452947	0.992970
O194	O	0.491143	0.047053	1.492970
O195	O	-0.008635	-0.534562	0.992946
O196	O	0.491365	-0.034562	1.492946
O197	O	0.085691	-0.500033	0.992949
O198	O	0.585691	-0.000033	1.492949
O199	O	0.018365	-0.507512	0.911855
O200	O	0.518365	-0.007512	1.411855
O201	O	0.018143	-0.425898	0.911878
O202	O	0.518143	0.074102	1.411878
O203	O	0.112912	-0.554598	0.911834
O204	O	0.612912	-0.054598	1.411834
Cu205	Cu	0.067993	-0.487778	0.904452
Cu206	Cu	0.567993	0.012222	1.404452
Cu207	Cu	0.036063	-0.519767	1.000352
Cu208	Cu	0.536063	-0.019767	1.500352
O209	O	0.112691	-0.472984	0.911857
O210	O	0.612691	0.027016	1.411857
N211	N	0.013602	-0.542269	1.067803
N212	N	0.513602	-0.042269	1.567803
C213	C	0.031188	-0.423114	0.392334
C214	C	0.531188	0.076886	0.892334
C215	C	0.132194	-0.524016	0.392223
C216	C	0.632194	-0.024016	0.892223
C217	C	0.072056	-0.584366	0.512840
C218	C	0.572056	-0.084366	1.012840
C219	C	-0.028950	-0.483464	0.512950
C220	C	0.471050	0.016536	1.012950
C221	C	0.551868	-0.563965	0.532655
C222	C	1.051868	-0.063965	1.032655
C223	C	0.551766	-0.563697	0.431617
C224	C	1.051766	-0.063697	0.931617
C225	C	0.551623	-0.443070	0.371586
C226	C	1.051623	0.056930	0.871586
C227	C	0.551728	-0.443339	0.472623
C228	C	1.051728	0.056661	0.972623
C229	C	0.132090	-0.003555	0.392006
C230	C	0.632090	0.496445	0.892006
C231	C	0.031035	-0.003698	0.392374
C232	C	0.531035	0.496302	0.892374
C233	C	-0.028947	-0.003703	0.512961
C234	C	0.471053	0.496297	1.012961
C235	C	0.072143	-0.003661	0.512626
C236	C	0.572143	0.496339	1.012626
C237	C	-0.008408	-0.423209	0.952430
C238	C	0.491592	0.076791	1.452430
C239	C	-0.008128	-0.524272	0.952385
C240	C	0.491872	-0.024272	1.452385
C241	C	0.112464	-0.584336	0.952374
C242	C	0.612464	-0.084336	1.452374
C243	C	0.112190	-0.483267	0.952401
C244	C	0.612190	0.016733	1.452401
H245	H	0.050098	-0.392105	0.730957
H246	H	0.550098	0.107895	1.230957
H247	H	0.079411	-0.621363	0.542512
H248	H	0.579411	-0.121363	1.042512
O249	O	0.176296	-0.532618	0.356746
O250	O	0.676296	-0.032618	0.856746
C251	C	0.197919	-0.499137	0.343619
C252	C	0.697919	0.000863	0.843619
H253	H	0.168373	-0.465405	0.353445
H254	H	0.668373	0.034595	0.853445
H255	H	0.218353	-0.488137	0.302696
H256	H	0.718353	0.011863	0.802696
H257	H	0.224515	-0.516795	0.364100
H258	H	0.724515	-0.016795	0.864100
O259	O	0.552019	-0.599480	0.576714
O260	O	1.052019	-0.099480	1.076714
C261	C	0.594030	-0.610762	0.585428
C262	C	1.094030	-0.110762	1.085428
H263	H	0.623345	-0.599941	0.549221
H264	H	1.123345	-0.099941	1.049221
H265	H	0.608173	-0.651592	0.605114
H266	H	1.108173	-0.151592	1.105114
H267	H	0.584542	-0.589878	0.608995
H268	H	1.084542	-0.089878	1.108995
O269	O	0.148006	-0.628393	0.952271
O270	O	0.648006	-0.128393	1.452271
C271	C	0.189082	-0.621957	0.910275
C272	C	0.689082	-0.121957	1.410275
H273	H	0.177317	-0.586250	0.880931
H274	H	0.677317	-0.086250	1.380931
H275	H	0.206537	-0.653583	0.896166
H276	H	0.706537	-0.153583	1.396166
H277	H	0.216605	-0.620834	0.919770
H278	H	0.716605	-0.120834	1.419770
O279	O	-0.073070	-0.474695	0.548364
O280	O	0.426930	0.025305	1.048364
C281	C	-0.103382	-0.426792	0.530743
C282	C	0.396618	0.073208	1.030743
H283	H	-0.079910	-0.403631	0.499423
H284	H	0.420090	0.096369	0.999423
H285	H	-0.126733	-0.410469	0.561344
H286	H	0.373267	0.089531	1.061344
H287	H	-0.128014	-0.427538	0.517216
H288	H	0.371986	0.072462	1.017216
H289	H	-0.037749	-0.531650	0.952352
H290	H	0.462251	-0.031650	1.452352
H291	H	0.551722	-0.413701	0.480010
H292	H	1.051722	0.086299	0.980010
H293	H	0.168963	-0.003318	0.362168
H294	H	0.668963	0.496682	0.862168
O295	O	-0.130251	-0.650787	0.428453
O296	O	0.369749	-0.150787	0.928453
C297	C	-0.100727	-0.696184	0.421133
C298	C	0.399273	-0.196184	0.921133
H299	H	-0.116078	-0.703184	0.402566
H300	H	0.383922	-0.203184	0.902566
H301	H	-0.100206	-0.726304	0.457819
H302	H	0.399794	-0.226304	0.957819
H303	H	-0.062025	-0.695772	0.397096
H304	H	0.437975	-0.195772	0.897096
O305	O	0.022366	-0.379000	0.356918
O306	O	0.522366	0.121000	0.856918
C307	C	-0.017126	-0.370301	0.345722
C308	C	0.482874	0.129699	0.845722
H309	H	-0.020999	-0.406522	0.356482
H310	H	0.479001	0.093478	0.856482
H311	H	-0.010238	-0.350522	0.304917
H312	H	0.489762	0.149478	0.804917
H313	H	-0.052076	-0.346826	0.366713
H314	H	0.447924	0.153174	0.866713
O315	O	0.080933	-0.003569	0.547948
O316	O	0.580933	0.496431	1.047948
C317	C	0.047504	0.038418	0.561089
C318	C	0.547504	0.538418	1.061089
H319	H	0.033179	0.067771	0.529867
H320	H	0.533179	0.567771	1.029867
H321	H	0.066517	0.052525	0.568968
H322	H	0.566517	0.552525	1.068968
H323	H	0.015784	0.028911	0.595056
H324	H	0.515784	0.528911	1.095056
H325	H	0.551779	-0.593338	0.424228
H326	H	1.051779	-0.093338	0.924228
O327	O	0.334369	-0.512544	0.555793
O328	O	0.834369	-0.012544	1.055793
C329	C	0.384889	-0.520519	0.535554
C330	C	0.884889	-0.020519	1.035554
H331	H	0.391833	-0.485385	0.506295
H332	H	0.891833	0.014615	1.006295
H333	H	0.404281	-0.550341	0.518588
H334	H	0.904281	-0.050341	1.018588
H335	H	0.399403	-0.532281	0.565414
H336	H	0.899403	-0.032281	1.065414
H337	H	-0.038161	-0.386246	0.952443
H338	H	0.461839	0.113754	1.452443
H339	H	0.551560	-0.413310	0.334638
H340	H	1.051560	0.086690	0.834638
O341	O	0.060506	-0.786338	0.349104
O342	O	0.560506	-0.286338	0.849104
C343	C	0.068457	-0.836855	0.369318
C344	C	0.568457	-0.336855	0.869318
H345	H	0.033305	-0.843787	0.398530
H346	H	0.533305	-0.343787	0.898530
H347	H	0.098243	-0.856280	0.386339
H348	H	0.598243	-0.356280	0.886339
H349	H	0.080254	-0.851349	0.339432
H350	H	0.580254	-0.351349	0.839432
O351	O	0.233744	-0.479106	0.589429
O352	O	0.733744	0.020894	1.089429
C353	C	0.267230	-0.526705	0.592158
C354	C	0.767230	-0.026705	1.092158
H355	H	0.303597	-0.524753	0.561992
H356	H	0.803597	-0.024753	1.061992
H357	H	0.252475	-0.547660	0.587551
H358	H	0.752475	-0.047660	1.087551
H359	H	0.272694	-0.546193	0.629137
H360	H	0.772694	-0.046193	1.129137
H361	H	0.141823	-0.475877	0.952395
H362	H	0.641823	0.024123	1.452395
O363	O	0.022128	-0.003743	0.357105
O364	O	0.522128	0.496257	0.857105
C365	C	-0.025801	-0.003756	0.374888
C366	C	0.474199	0.496244	0.874888
H367	H	-0.038606	-0.019096	0.416419
H368	H	0.461394	0.480904	0.916419
H369	H	-0.026507	-0.027322	0.360068
H370	H	0.473493	0.472678	0.860068
H371	H	-0.051044	0.035141	0.362555
H372	H	0.448956	0.535141	0.862555
H373	H	-0.065895	-0.003715	0.542725
H374	H	0.434105	0.496285	1.042725
H375	H	0.080878	-0.361206	0.638363
H376	H	0.580878	0.138794	1.138363
H377	H	0.201378	-0.467681	0.730833
H378	H	0.701378	0.032319	1.230833
O379	O	-0.102367	-0.786021	0.410943
O380	O	0.397633	-0.286021	0.910943
C381	C	-0.149951	-0.752513	0.413637
C382	C	0.350049	-0.252513	0.913637
H383	H	-0.151902	-0.716120	0.410238
H384	H	0.348098	-0.216120	0.910238
H385	H	-0.176941	-0.767206	0.450128
H386	H	0.323059	-0.267206	0.950128
H387	H	-0.159487	-0.747116	0.382726
H388	H	0.340513	-0.247116	0.882726
H389	H	0.330218	-0.354891	0.497577
H390	H	0.830218	0.145109	0.997577
H391	H	0.232159	-0.436796	0.638236
H392	H	0.732159	0.063204	1.138236
H393	H	0.080840	-0.361208	0.594989
H394	H	0.580840	0.138792	1.094989
H395	H	0.201155	-0.467643	0.488446
H396	H	0.701155	0.032357	0.988446
O397	O	0.042059	-0.390209	0.566175
O398	O	0.542059	0.109791	1.066175
C399	C	0.020905	-0.407677	0.617304
C400	C	0.520905	0.092323	1.117304
H401	H	0.049996	-0.439153	0.633728
H402	H	0.549996	0.060847	1.133728
H403	H	-0.009178	-0.420943	0.627095
H404	H	0.490822	0.079057	1.127095
H405	H	0.004793	-0.377061	0.632433
H406	H	0.504793	0.122939	1.132433
O407	O	0.239950	-0.438749	0.517294
O408	O	0.739950	0.061251	1.017294
C409	C	0.265564	-0.468270	0.487713
C410	C	0.765564	0.031730	0.987713
H411	H	0.241232	-0.486850	0.494253
H412	H	0.741232	0.013150	0.994253
H413	H	0.299661	-0.497132	0.497232
H414	H	0.799661	0.002868	0.997232
H415	H	0.276513	-0.444700	0.447735
H416	H	0.776513	0.055300	0.947735
H417	H	0.237625	-0.324046	0.528499
H418	H	0.737625	0.175954	1.028499
H419	H	0.194180	-0.317769	0.481510
H420	H	0.694180	0.182231	0.981510
O421	O	0.020436	-0.658489	0.169997
O422	O	0.520436	-0.158489	0.669997
C423	C	-0.005358	-0.687951	0.182412
C424	C	0.494642	-0.187951	0.682412
H425	H	-0.035110	-0.688412	0.219442
H426	H	0.464890	-0.188412	0.719442
H427	H	0.020810	-0.726678	0.184199
H428	H	0.520810	-0.226678	0.684199
H429	H	-0.022629	-0.672586	0.153633
H430	H	0.477371	-0.172586	0.653633
O431	O	0.165171	-0.221202	0.442780
O432	O	0.665171	0.278798	0.942780
C433	C	0.147683	-0.233665	0.421603
C434	C	0.647683	0.266335	0.921603
H435	H	0.142706	-0.270735	0.445802
H436	H	0.642706	0.229265	0.945802
H437	H	0.175012	-0.235394	0.384046
H438	H	0.675012	0.264606	0.884046
H439	H	0.111189	-0.204945	0.417836
H440	H	0.611189	0.295055	0.917836
O441	O	0.083153	-0.221278	0.607201
O442	O	0.583153	0.278722	1.107201
C443	C	0.075983	-0.254762	0.655136
C444	C	0.575983	0.245238	1.155136
H445	H	0.081691	-0.291150	0.655047
H446	H	0.581691	0.208850	1.155047
H447	H	0.037283	-0.240029	0.679396
H448	H	0.537283	0.259971	1.179396
H449	H	0.103174	-0.260181	0.669727
H450	H	0.603174	0.239819	1.169727
H451	H	0.118680	-0.317820	0.632757
H452	H	0.618680	0.182180	1.132757
H453	H	-0.059677	-0.501957	0.173865
H454	H	0.440323	-0.001957	0.673865
H455	H	-0.015108	-0.684041	0.266548
H456	H	0.484892	-0.184041	0.766548
O457	O	-0.095254	-0.527490	0.270394
O458	O	0.404746	-0.027490	0.770394
C459	C	-0.102437	-0.479558	0.236901
C460	C	0.397563	0.020442	0.736901
H461	H	-0.071630	-0.479686	0.200544
H462	H	0.428370	0.020314	0.700544
H463	H	-0.102710	-0.455334	0.251666
H464	H	0.397290	0.044666	0.751666
H465	H	-0.138777	-0.464894	0.231411
H466	H	0.361223	0.035106	0.731411
H467	H	-0.059919	-0.501948	0.340854
H468	H	0.440081	-0.001948	0.840854
O469	O	-0.095403	-0.527534	0.305334
O470	O	0.404597	-0.027534	0.805334
C471	C	-0.138220	-0.497980	0.331057
C472	C	0.361780	0.002020	0.831057
H473	H	-0.145376	-0.517678	0.371904
H474	H	0.354624	-0.017678	0.871904
H475	H	-0.170344	-0.490229	0.321858
H476	H	0.329656	0.009771	0.821858
H477	H	-0.133565	-0.462136	0.320210
H478	H	0.366435	0.037864	0.820210
H479	H	-0.015291	-0.684031	0.385637
H480	H	0.484709	-0.184031	0.885637
O481	O	0.020176	-0.658470	0.421165
O482	O	0.520176	-0.158470	0.921165
C483	C	0.063005	-0.688010	0.395436
C484	C	0.563005	-0.188010	0.895436
H485	H	0.056204	-0.688502	0.365684
H486	H	0.556204	-0.188502	0.865684
H487	H	0.073724	-0.726719	0.421650
H488	H	0.573724	-0.226719	0.921650
H489	H	0.093718	-0.672697	0.378167
H490	H	0.593718	-0.172697	0.878167
O491	O	0.027118	-0.685707	0.315488
O492	O	0.527118	-0.185707	0.815488
C493	C	0.074699	-0.719217	0.312808
C494	C	0.574699	-0.219217	0.812808
H495	H	0.072713	-0.755589	0.342958
H496	H	0.572713	-0.255589	0.842958
H497	H	0.095635	-0.704493	0.317478
H498	H	0.595635	-0.204493	0.817478
H499	H	0.094224	-0.724667	0.275822
H500	H	0.594224	-0.224667	0.775822
H501	H	-0.226875	-0.615140	0.453976
H502	H	0.273125	-0.115140	0.953976
H503	H	-0.134040	-0.570516	0.271939
H504	H	0.365960	-0.070516	0.771939
O505	O	-0.135738	-0.685410	0.377204
O506	O	0.364262	-0.185410	0.877204
C507	C	-0.142599	-0.655899	0.331604
C508	C	0.357401	-0.155899	0.831604
H509	H	-0.107477	-0.648299	0.303212
H510	H	0.392523	-0.148299	0.803212
H511	H	-0.173230	-0.619981	0.334504
H512	H	0.326770	-0.119981	0.834504
H513	H	-0.152639	-0.675554	0.320223
H514	H	0.347361	-0.175554	0.820223
H515	H	-0.226640	-0.539563	0.302661
H516	H	0.273360	-0.039563	0.802661
