data_functionalizedCrystal
_audit_creation_method	'MofGen! by Chris Wilmer'
_symmetry_space_group_name_H-M	'P1'
_symmetry_Int_Tables_number	1
_symmetry_cell_setting	triclinic
loop_
_symmetry_equiv_pos_as_xyz
  x,y,z
_cell_length_a	12.827893
_cell_length_b	16.625546
_cell_length_c	12.827885
_cell_angle_alpha	89.964686
_cell_angle_beta	89.980728
_cell_angle_gamma	90.022629
loop_
_atom_site_label
_atom_site_type_symbol
_atom_site_fract_x
_atom_site_fract_y
_atom_site_fract_z
Zn1	Zn	1.597618	-0.320958	-0.590810
Zn2	Zn	1.597491	-0.455812	-0.416054
Zn3	Zn	1.422860	-0.320998	-0.416084
Zn4	Zn	1.422823	-0.455752	-0.590754
O5	O	1.510198	-0.388380	-0.503425
O6	O	1.743837	-0.338855	-0.567639
O7	O	1.574287	-0.437971	-0.269822
O8	O	1.446110	-0.208160	-0.439297
O9	O	1.743744	-0.437932	-0.439247
O10	O	1.574505	-0.208131	-0.567668
O11	O	1.445987	-0.338923	-0.269843
O12	O	1.276619	-0.338865	-0.439243
O13	O	1.446048	-0.437830	-0.736997
O14	O	1.276592	-0.437869	-0.567572
O15	O	1.574469	-0.338797	-0.737039
O16	O	1.574252	-0.568637	-0.439192
O17	O	1.445925	-0.568593	-0.567544
C18	C	1.238688	-0.388365	-0.503405
C19	C	1.122535	-0.388378	-0.503422
C20	C	1.070796	-0.339439	-0.567053
C21	C	0.950746	-0.339451	-0.567072
C22	C	1.510099	-0.597871	-0.503382
C23	C	1.510152	-0.687492	-0.503398
C24	C	1.510335	-1.015668	-0.503507
C25	C	1.510281	-0.924359	-0.503479
C26	C	1.510243	-0.851583	-0.503452
C27	C	1.510190	-0.760268	-0.503425
C28	C	1.782768	-0.388395	-0.503446
C29	C	1.898921	-0.388402	-0.503455
C30	C	1.510269	-0.388302	-0.775996
C31	C	1.510299	-0.388269	-0.892149
C32	C	1.510326	-0.178071	-0.503492
C33	C	1.510380	-0.088450	-0.503521
C34	C	1.446865	-0.339214	-1.063989
C35	C	1.446832	-0.339247	-0.943938
C36	C	1.510187	-0.388400	-0.231915
C37	C	1.510359	-0.388206	-0.115763
H38	H	1.115378	-0.297528	-0.621513
O39	O	0.897513	-0.289490	-0.631969
C40	C	0.729320	-0.244009	-0.691237
C41	C	0.789478	-0.300618	-0.617668
H42	H	0.641964	-0.252998	-0.679716
H43	H	0.750651	-0.178940	-0.673053
H44	H	0.750820	-0.258219	-0.775472
H45	H	0.768011	-0.286481	-0.533408
H46	H	0.768142	-0.365670	-0.635942
H47	H	0.943409	-0.430308	-0.448980
O48	O	1.069314	-0.438464	-0.438593
C49	C	0.945863	-0.547206	-0.424412
C50	C	1.006085	-0.490545	-0.497951
H51	H	0.894712	-0.589316	-0.472373
H52	H	1.003442	-0.584112	-0.376519
H53	H	0.894795	-0.510091	-0.369888
H54	H	1.057155	-0.527597	-0.552539
H55	H	0.948450	-0.453636	-0.545771
O56	O	1.382076	-0.289217	-1.117289
C57	C	1.323114	-0.243537	-1.285538
C58	C	1.396525	-0.300215	-1.225310
H59	H	1.334786	-0.252397	-1.372883
H60	H	1.238792	-0.257682	-1.264211
H61	H	1.341470	-0.178523	-1.264097
H62	H	1.378263	-0.365249	-1.246719
H63	H	1.480825	-0.286001	-1.246642
O64	O	1.382075	-0.289232	-0.890669
C65	C	1.322921	-0.243723	-0.722443
C66	C	1.396331	-0.300393	-0.782643
H67	H	1.334406	-0.252739	-0.635093
H68	H	1.341300	-0.178668	-0.743784
H69	H	1.238647	-0.257847	-0.743896
H70	H	1.480630	-0.286341	-0.761222
H71	H	1.377863	-0.365430	-0.761296
O72	O	1.575272	-0.438195	-0.945295
C73	C	1.716240	-0.448927	-1.068701
C74	C	1.642738	-0.392295	-1.008552
H75	H	1.770790	-0.411840	-1.119875
H76	H	1.764097	-0.485824	-1.011074
H77	H	1.668188	-0.491054	-1.119739
H78	H	1.690710	-0.350119	-0.957512
H79	H	1.594878	-0.355454	-1.066235
O80	O	1.575034	-0.438363	-1.062576
C81	C	1.588880	-0.547138	-0.939131
C82	C	1.515515	-0.490397	-0.999315
H83	H	1.540790	-0.589211	-0.887954
H84	H	1.636673	-0.584081	-0.996736
H85	H	1.643506	-0.510084	-0.888094
H86	H	1.460826	-0.527388	-1.050354
H87	H	1.467796	-0.453451	-0.941654
