data_functionalizedCrystal
_audit_creation_method	'MofGen! by Chris Wilmer'
_symmetry_space_group_name_H-M	'P1'
_symmetry_Int_Tables_number	1
_symmetry_cell_setting	triclinic
loop_
_symmetry_equiv_pos_as_xyz
  x,y,z
_cell_length_a	11.792254
_cell_length_b	11.792241
_cell_length_c	14.586319
_cell_angle_alpha	90.004494
_cell_angle_beta	90.004084
_cell_angle_gamma	84.196007
loop_
_atom_site_label
_atom_site_type_symbol
_atom_site_fract_x
_atom_site_fract_y
_atom_site_fract_z
O1	O	1.506900	0.155636	0.076240
O2	O	1.756900	0.405636	0.326240
O3	O	2.006900	0.655636	0.576240
O4	O	2.256900	0.905636	0.826240
O5	O	1.176560	0.171654	0.076242
O6	O	1.426560	0.421654	0.326242
O7	O	1.676560	0.671654	0.576242
O8	O	1.926560	0.921654	0.826242
O9	O	1.349746	-0.001526	0.076235
O10	O	1.599746	0.248474	0.326235
O11	O	1.849746	0.498474	0.576235
O12	O	2.099746	0.748474	0.826235
O13	O	1.333714	0.328815	0.076247
O14	O	1.583714	0.578815	0.326247
O15	O	1.833714	0.828815	0.576247
O16	O	2.083714	1.078815	0.826247
O17	O	1.349732	-0.001530	-0.076246
O18	O	1.599732	0.248470	0.173754
O19	O	1.849732	0.498470	0.423754
O20	O	2.099732	0.748470	0.673754
O21	O	1.176546	0.171649	-0.076239
O22	O	1.426546	0.421649	0.173761
O23	O	1.676546	0.671649	0.423761
O24	O	1.926546	0.921649	0.673761
O25	O	1.506886	0.155631	-0.076241
O26	O	1.756886	0.405631	0.173759
O27	O	2.006886	0.655631	0.423759
O28	O	2.256886	0.905631	0.673759
Cu29	Cu	1.341715	0.163640	-0.090163
Cu30	Cu	1.591715	0.413640	0.159837
Cu31	Cu	1.841715	0.663640	0.409837
Cu32	Cu	2.091715	0.913640	0.659837
Cu33	Cu	1.341731	0.163645	0.090164
Cu34	Cu	1.591731	0.413645	0.340164
Cu35	Cu	1.841731	0.663645	0.590164
Cu36	Cu	2.091731	0.913645	0.840164
O37	O	1.333700	0.328811	-0.076233
O38	O	1.583700	0.578811	0.173767
O39	O	1.833700	0.828811	0.423767
O40	O	2.083700	1.078811	0.673767
C41	C	1.134263	0.170642	0.000002
C42	C	1.384263	0.420642	0.250002
C43	C	1.634263	0.670642	0.500002
C44	C	1.884263	0.920642	0.750002
C45	C	1.008250	0.167622	0.000002
C46	C	1.258250	0.417622	0.250002
C47	C	1.508250	0.667622	0.500002
C48	C	1.758250	0.917622	0.750002
C49	C	0.905913	0.165168	0.000006
C50	C	1.155913	0.415168	0.250006
C51	C	1.405913	0.665168	0.500006
C52	C	1.655913	0.915168	0.750006
C53	C	0.777527	0.162100	0.000007
C54	C	1.027527	0.412100	0.250007
C55	C	1.277527	0.662100	0.500007
C56	C	1.527527	0.912100	0.750007
C57	C	1.348732	-0.043819	-0.000006
C58	C	1.598732	0.206181	0.249994
C59	C	1.848732	0.456181	0.499994
C60	C	2.098732	0.706181	0.749994
C61	C	1.345718	-0.169832	-0.000005
C62	C	1.595718	0.080168	0.249995
C63	C	1.845718	0.330168	0.499995
C64	C	2.095718	0.580168	0.749995
C65	C	1.340175	-0.400545	0.000011
C66	C	1.590175	-0.150545	0.250011
C67	C	1.840175	0.099455	0.500011
C68	C	2.090175	0.349455	0.750011
C69	C	1.343255	-0.272160	0.000002
C70	C	1.593255	-0.022160	0.250002
C71	C	1.843255	0.227840	0.500002
C72	C	2.093255	0.477840	0.750002
C73	C	1.549183	0.156643	0.000001
C74	C	1.799183	0.406643	0.250001
C75	C	2.049183	0.656643	0.500001
C76	C	2.299183	0.906643	0.750001
C77	C	1.675196	0.159663	0.000007
C78	C	1.925196	0.409663	0.250007
C79	C	2.175196	0.659663	0.500007
C80	C	2.425196	0.909663	0.750007
C81	C	1.334714	0.371104	0.000009
C82	C	1.584714	0.621104	0.250009
C83	C	1.834714	0.871104	0.500009
C84	C	2.084714	1.121104	0.750009
C85	C	1.337728	0.497118	0.000014
C86	C	1.587728	0.747118	0.250014
C87	C	1.837728	0.997118	0.500014
C88	C	2.087728	1.247118	0.750014
N89	N	1.341711	0.163636	-0.216994
N90	N	1.591711	0.413636	0.033006
N91	N	1.841711	0.663636	0.283006
N92	N	2.091711	0.913636	0.533006
C93	C	1.418428	0.086978	-0.547991
C94	C	1.668428	0.336978	-0.297991
C95	C	1.918428	0.586978	-0.047991
C96	C	2.168428	0.836978	0.202009
C97	C	1.418426	0.086978	-0.452010
C98	C	1.668426	0.336978	-0.202010
C99	C	1.918426	0.586978	0.047990
C100	C	2.168426	0.836978	0.297990
C101	C	1.265023	0.240307	-0.452014
C102	C	1.515023	0.490307	-0.202014
C103	C	1.765023	0.740307	0.047986
C104	C	2.015023	0.990307	0.297986
C105	C	1.265032	0.240311	-0.547994
C106	C	1.515032	0.490311	-0.297994
C107	C	1.765032	0.740311	-0.047994
C108	C	2.015032	0.990311	0.202006
C109	C	1.341733	0.163640	-0.595980
C110	C	1.591733	0.413640	-0.345980
C111	C	1.841733	0.663640	-0.095980
C112	C	2.091733	0.913640	0.154020
C113	C	1.341722	0.163636	-0.404019
C114	C	1.591722	0.413636	-0.154019
C115	C	1.841722	0.663636	0.095981
C116	C	2.091722	0.913636	0.345981
C117	C	1.341718	0.163637	-0.299952
C118	C	1.591718	0.413637	-0.049952
C119	C	1.841718	0.663637	0.200048
C120	C	2.091718	0.913637	0.450048
C121	C	1.341739	0.163640	-0.700054
C122	C	1.591739	0.413640	-0.450054
C123	C	1.841739	0.663640	-0.200054
C124	C	2.091739	0.913640	0.049946
N125	N	1.341744	0.163640	0.216995
N126	N	1.591744	0.413640	0.466995
N127	N	1.841744	0.663640	0.716995
N128	N	2.091744	0.913640	0.966995
H129	H	1.480885	0.024549	-0.587059
H130	H	1.730885	0.274549	-0.337059
H131	H	1.980885	0.524549	-0.087059
H132	H	2.230885	0.774549	0.162941
H133	H	1.480879	0.024554	-0.412941
H134	H	1.730879	0.274554	-0.162941
H135	H	1.980879	0.524554	0.087059
H136	H	2.230879	0.774554	0.337059
F137	F	1.183393	0.321899	-0.400938
F138	F	1.433393	0.571899	-0.150938
F139	F	1.683393	0.821899	0.099062
F140	F	1.933393	1.071899	0.349062
F141	F	1.183404	0.321914	-0.599070
F142	F	1.433404	0.571914	-0.349070
F143	F	1.683404	0.821914	-0.099070
F144	F	1.933404	1.071914	0.150930
