data_functionalizedCrystal
_audit_creation_method	'MofGen! by Chris Wilmer'
_symmetry_space_group_name_H-M	'P1'
_symmetry_Int_Tables_number	1
_symmetry_cell_setting	triclinic
loop_
_symmetry_equiv_pos_as_xyz
  x,y,z
_cell_length_a	27.731994
_cell_length_b	27.731996
_cell_length_c	26.809956
_cell_angle_alpha	89.998344
_cell_angle_beta	89.997334
_cell_angle_gamma	82.620961
loop_
_atom_site_label
_atom_site_type_symbol
_atom_site_fract_x
_atom_site_fract_y
_atom_site_fract_z
O1	O	0.640937	0.057387	-0.041415
O2	O	0.500139	0.066160	-0.041432
O3	O	0.574924	-0.008626	-0.041412
O4	O	0.566152	0.132173	-0.041435
O5	O	0.574910	-0.008615	0.041547
O6	O	0.500124	0.066171	0.041527
O7	O	0.640923	0.057398	0.041544
Zn8	Zn	0.570522	0.061787	0.054707
Zn9	Zn	0.570540	0.061772	-0.054595
O10	O	0.566138	0.132184	0.041524
C11	C	0.482124	0.065986	0.000045
C12	C	0.428468	0.065443	0.000039
C13	C	0.095742	0.062034	0.045280
C14	C	-0.105915	0.059972	0.045286
O15	O	-0.131994	0.059690	0.083745
N16	N	-0.131122	0.059710	0.000065
C17	C	-0.105912	0.059960	-0.045161
O18	O	-0.131978	0.059684	-0.083624
C19	C	0.095746	0.062018	-0.045166
C20	C	0.120950	0.062285	0.000058
C21	C	0.120946	0.062300	0.090500
C22	C	0.171357	0.062818	0.090498
C23	C	0.196565	0.063070	0.045276
C24	C	0.171361	0.062803	0.000056
C25	C	0.120956	0.062264	-0.090392
C26	C	0.171374	0.062778	-0.090389
C27	C	0.196578	0.063045	-0.045165
C28	C	0.246979	0.063573	-0.045168
N29	N	0.272186	0.063835	0.000053
C30	C	0.246979	0.063583	0.045275
C31	C	-0.211785	0.058880	-0.045155
C32	C	-0.262199	0.058366	-0.045154
C33	C	-0.262199	0.058378	0.045293
C34	C	-0.211784	0.058895	0.045292
C35	C	-0.186578	0.059142	0.000066
C36	C	0.352846	0.064672	0.045267
C37	C	0.403261	0.065192	0.045261
C38	C	0.403257	0.065178	-0.045185
C39	C	0.352846	0.064660	-0.045180
C40	C	0.327642	0.064406	0.000051
O41	O	0.273090	0.063850	-0.083607
O42	O	0.273056	0.063848	0.083732
C43	C	0.045331	0.061516	0.045282
C44	C	0.020127	0.061249	0.000062
C45	C	0.045335	0.061500	-0.045161
C46	C	-0.030287	0.060735	0.000063
C47	C	-0.055494	0.060484	0.045285
C48	C	-0.030287	0.060746	0.090506
C49	C	0.020124	0.061264	0.090504
C50	C	0.020128	0.061238	-0.090382
C51	C	-0.030284	0.060721	-0.090376
C52	C	-0.055491	0.060469	-0.045154
C53	C	0.574737	-0.026628	0.000069
C54	C	0.574194	-0.080284	0.000074
C55	C	0.570787	-0.413006	-0.045172
C56	C	0.568726	-0.614663	-0.045181
O57	O	0.568445	-0.640739	-0.083640
N58	N	0.568462	-0.639874	0.000040
C59	C	0.568711	-0.614667	0.045266
O60	O	0.568434	-0.640737	0.083729
C61	C	0.570768	-0.413010	0.045274
C62	C	0.571037	-0.387802	0.000051
C63	C	0.571055	-0.387798	-0.090392
C64	C	0.571573	-0.337387	-0.090389
C65	C	0.571823	-0.312183	-0.045166
C66	C	0.571555	-0.337391	0.000054
C67	C	0.571013	-0.387803	0.090500
C68	C	0.571526	-0.337385	0.090498
C69	C	0.571795	-0.312178	0.045274
C70	C	0.572322	-0.261777	0.045279
N71	N	0.572586	-0.236566	0.000058
C72	C	0.572336	-0.261769	-0.045164
C73	C	0.567631	-0.720540	0.045258
C74	C	0.567118	-0.770955	0.045256
C75	C	0.567132	-0.770947	-0.045191
C76	C	0.567649	-0.720533	-0.045188
C77	C	0.567895	-0.695329	0.000038
C78	C	0.573424	-0.155902	-0.045155
C79	C	0.573944	-0.105487	-0.045149
C80	C	0.573927	-0.105499	0.045298
C81	C	0.573410	-0.155910	0.045292
C82	C	0.573157	-0.181110	0.000061
O83	O	0.572598	-0.235669	0.083718
O84	O	0.572602	-0.235689	-0.083621
C85	C	0.570269	-0.463417	-0.045175
C86	C	0.570001	-0.488624	0.000045
C87	C	0.570251	-0.463421	0.045268
C88	C	0.569487	-0.539039	0.000043
C89	C	0.569238	-0.564242	-0.045179
C90	C	0.569501	-0.539031	-0.090400
C91	C	0.570019	-0.488620	-0.090397
C92	C	0.569987	-0.488632	0.090489
C93	C	0.569470	-0.539043	0.090482
C94	C	0.569220	-0.564246	0.045260
C95	C	0.658938	0.057573	0.000066
C96	C	0.712594	0.058115	0.000069
C97	C	0.566325	0.150186	0.000042
C98	C	0.566868	0.203842	0.000034
N99	N	0.570513	0.061797	0.129303
N100	N	0.570553	0.061758	-0.129191
C101	C	0.603651	0.028665	0.473938
C102	C	0.603663	0.028657	0.682816
O103	O	0.631818	0.000490	0.709827
N104	N	0.570543	0.061761	0.708930
C105	C	0.537416	0.094867	0.682822
O106	O	0.509243	0.123020	0.709827
C107	C	0.537403	0.094872	0.473945
C108	C	0.570528	0.061769	0.447834
C109	C	0.636773	-0.004436	0.447826
C110	C	0.636771	-0.004432	0.395610
C111	C	0.603648	0.028672	0.369506
C112	C	0.570526	0.061773	0.395617
C113	C	0.504274	0.127975	0.447838
C114	C	0.504273	0.127972	0.395616
C115	C	0.537398	0.094870	0.369504
C116	C	0.537401	0.094881	0.317297
N117	N	0.570521	0.061777	0.291182
C118	C	0.603644	0.028673	0.317287
C119	C	0.537426	0.094863	0.792485
C120	C	0.537430	0.094862	0.844704
C121	C	0.603676	0.028652	0.844694
C122	C	0.603674	0.028655	0.792475
C123	C	0.570546	0.061759	0.766371
C124	C	0.603639	0.028684	0.207629
C125	C	0.603636	0.028692	0.155408
C126	C	0.537388	0.094901	0.155422
C127	C	0.537393	0.094895	0.207639
C128	C	0.570520	0.061782	0.233740
O129	O	0.509257	0.123030	0.290253
O130	O	0.631806	0.000517	0.290273
C131	C	0.603652	0.028661	0.526154
C132	C	0.570531	0.061761	0.552266
C133	C	0.537407	0.094865	0.526162
C134	C	0.570534	0.061761	0.604485
C135	C	0.603658	0.028656	0.630590
C136	C	0.636777	-0.004448	0.604475
C137	C	0.636776	-0.004444	0.552259
C138	C	0.504288	0.127969	0.552276
C139	C	0.504292	0.127963	0.604493
C140	C	0.537416	0.094859	0.630597
H141	H	0.191874	0.063033	0.127324
H142	H	0.663749	-0.031401	0.625738
N143	N	0.571774	-0.311633	0.136692
N144	N	0.537973	-0.278781	0.146777
H145	H	0.538148	-0.260593	0.179401
N146	N	0.503561	0.128713	0.128744
N147	N	0.503567	0.128706	0.082120
H148	H	0.479674	0.152585	0.063277
H149	H	0.630647	0.001700	0.771217
H150	H	0.477319	0.154923	0.625749
N151	N	0.637511	-0.005167	0.871362
N152	N	0.682187	-0.004832	0.865535
H153	H	0.706079	-0.028717	0.884372
H154	H	0.510448	0.121821	0.771235
N155	N	-0.287952	0.058108	0.091487
N156	N	-0.277608	0.024077	0.121767
H157	H	-0.295798	0.023882	0.154389
N158	N	-0.056041	0.060500	0.136700
N159	N	-0.088894	0.094301	0.146782
H160	H	-0.107085	0.094126	0.179405
H161	H	0.570238	-0.468100	-0.127223
H162	H	-0.282717	0.058157	-0.081979
N163	N	0.637466	-0.005125	0.128728
N164	N	0.637462	-0.005121	0.082105
H165	H	0.661352	-0.029004	0.063263
H166	H	0.510462	0.121822	0.865961
H167	H	0.569300	-0.559561	-0.127222
N168	N	-0.056019	0.060454	-0.136579
N169	N	-0.033500	0.060678	-0.176951
H170	H	-0.051673	0.060486	-0.209581
H171	H	0.574164	-0.084966	-0.081977
N172	N	0.095203	0.062059	0.136699
N173	N	0.062358	0.095867	0.146786
H174	H	0.044179	0.095702	0.179417
N175	N	0.327090	0.064396	-0.091370
N176	N	0.294235	0.098190	-0.101467
H177	H	0.276048	0.098000	-0.134090
H178	H	0.423779	0.065411	0.082090
H179	H	0.570191	-0.468116	0.127315
H180	H	0.567834	-0.700025	0.082089
H181	H	0.510424	0.121854	0.228899
N182	N	0.470433	0.161797	0.368960
N183	N	0.470750	0.206473	0.374798
H184	H	0.446852	0.230363	0.355974
H185	H	0.570795	-0.408319	0.127326
N186	N	0.197123	0.063022	-0.136587
N187	N	0.196213	0.028869	-0.166857
H188	H	0.214397	0.029041	-0.199484
N189	N	0.566888	-0.796696	-0.091387
N190	N	0.600692	-0.829545	-0.101473
H191	H	0.600518	-0.847732	-0.134097
N192	N	0.429021	0.065431	-0.091371
N193	N	0.461876	0.031629	-0.101447
H194	H	0.480074	0.031805	-0.134066
H195	H	0.630614	0.001720	0.228875
H196	H	0.477314	0.154926	0.531026
N197	N	0.470437	0.161796	0.474494
N198	N	0.440867	0.191347	0.451170
H199	H	0.416968	0.215236	0.469995
N200	N	0.569200	-0.564797	0.136676
N201	N	0.602993	-0.597652	0.146776
H202	H	0.602799	-0.615841	0.179399
N203	N	0.045867	0.061523	0.136700
N204	N	0.078715	0.027723	0.146799
H205	H	0.096893	0.027904	0.179428
N206	N	0.670616	-0.038261	0.525598
N207	N	0.700185	-0.067814	0.548921
H208	H	0.724086	-0.091700	0.530095
H209	H	0.332330	0.064469	0.082098
N210	N	0.573164	-0.181631	-0.091361
N211	N	0.573403	-0.159110	-0.131729
H212	H	0.573221	-0.177281	-0.164362
N213	N	-0.186050	0.059174	0.091491
N214	N	-0.208569	0.058956	0.131862
H215	H	-0.190397	0.059155	0.164493
N216	N	0.566854	-0.796694	0.091456
N217	N	0.567077	-0.774179	0.131827
H218	H	0.566889	-0.792356	0.164458
N219	N	-0.186048	0.059132	-0.091359
N220	N	-0.208566	0.058898	-0.131728
H221	H	-0.190392	0.059077	-0.164361
N222	N	0.670646	-0.038215	0.368949
N223	N	0.700238	-0.067745	0.392272
H224	H	0.724176	-0.091593	0.373446
H225	H	0.571790	-0.316867	-0.127215
N226	N	0.095227	0.061995	-0.136592
N227	N	0.117749	0.062217	-0.176961
H228	H	0.099579	0.062027	-0.209594
H229	H	0.573196	-0.176435	0.082116
N230	N	0.045864	0.061492	-0.136582
N231	N	0.023347	0.061257	-0.176951
H232	H	0.041521	0.061438	-0.209584
H233	H	0.567867	-0.700012	-0.082013
N234	N	0.570797	-0.413529	-0.136594
N235	N	0.571034	-0.391007	-0.176961
H236	H	0.570855	-0.409177	-0.209595
H237	H	0.574133	-0.084969	0.082117
N238	N	0.670612	-0.038260	0.474478
N239	N	0.700178	-0.067809	0.451148
H240	H	0.724081	-0.091698	0.469967
