data_functionalizedCrystal
_audit_creation_method	'MofGen! by Chris Wilmer'
_symmetry_space_group_name_H-M	'P1'
_symmetry_Int_Tables_number	1
_symmetry_cell_setting	triclinic
loop_
_symmetry_equiv_pos_as_xyz
  x,y,z
_cell_length_a	18.101398
_cell_length_b	16.120484
_cell_length_c	16.120379
_cell_angle_alpha	90.213218
_cell_angle_beta	92.857794
_cell_angle_gamma	87.078898
loop_
_atom_site_label
_atom_site_type_symbol
_atom_site_fract_x
_atom_site_fract_y
_atom_site_fract_z
Zn1	Zn	1.096519	0.307004	-0.487081
Zn2	Zn	1.095751	0.453205	-0.355068
Zn3	Zn	0.978580	0.314161	-0.348026
Zn4	Zn	0.966067	0.446008	-0.494064
O5	O	1.034229	0.380095	-0.421060
O6	O	1.200048	0.326416	-0.469594
O7	O	1.085123	0.440768	-0.237768
O8	O	0.999783	0.196847	-0.360603
O9	O	1.199484	0.433829	-0.372604
O10	O	1.086432	0.191590	-0.462766
O11	O	0.999038	0.338612	-0.232595
O12	O	0.873289	0.331633	-0.367374
O13	O	0.978457	0.421562	-0.609503
O14	O	0.864096	0.428501	-0.474667
O15	O	1.074299	0.319436	-0.604373
O16	O	1.072990	0.568615	-0.379375
O17	O	0.977712	0.563327	-0.481495
C18	C	0.841822	0.380063	-0.421015
C19	C	0.759508	0.380069	-0.421016
C20	C	1.023929	0.596141	-0.431975
C21	C	1.019589	0.688566	-0.436672
C22	C	1.025068	0.368898	-0.637954
C23	C	1.021164	0.364126	-0.730381
C24	C	0.460411	0.380117	-0.421089
C25	C	0.497498	0.318833	-0.353880
C26	C	0.583119	0.319021	-0.353616
C27	C	0.608797	0.380092	-0.421052
C28	C	0.574558	0.468916	-0.401546
C29	C	0.488949	0.468580	-0.401083
C30	C	0.489341	0.353330	-0.507993
C31	C	0.575104	0.351405	-0.507414
C32	C	0.692657	0.380084	-0.421034
C33	C	0.376550	0.380132	-0.421105
C34	C	1.227388	0.380127	-0.421105
C35	C	1.309700	0.380141	-0.421125
C36	C	1.044589	0.163203	-0.410120
C37	C	1.049004	0.070777	-0.405458
C38	C	1.011669	0.857786	-0.445265
C39	C	1.056921	0.901562	-0.396868
C40	C	1.052515	0.995722	-0.401649
C41	C	1.016075	0.763617	-0.440485
C42	C	1.043400	0.391188	-0.205007
C43	C	1.047459	0.395725	-0.112568
C44	C	1.054879	0.404009	0.056679
C45	C	1.013746	0.355845	0.100378
C46	C	1.017874	0.360454	0.194552
C47	C	1.050752	0.399401	-0.037505
H48	H	0.606590	0.253295	-0.365334
Br49	Br	0.603791	0.419781	-0.594755
H50	H	1.098972	0.868324	-0.351842
H51	H	1.093192	0.448702	0.089992
H52	H	0.479374	0.252918	-0.365423
H53	H	0.463988	0.516029	-0.448141
H54	H	0.478014	0.336717	-0.289765
H55	H	0.969621	0.891021	-0.490286
Br56	Br	0.620674	0.349130	-0.246133
Br57	Br	0.458657	0.505559	-0.295413
H58	H	0.590675	0.515996	-0.449160
H59	H	0.975430	0.311148	0.067062
Br60	Br	0.613239	0.506387	-0.297061
H61	H	0.469808	0.289451	-0.526584
H62	H	0.464841	0.397912	-0.558015
Br63	Br	0.612819	0.242429	-0.532078
