data_functionalizedCrystal
_audit_creation_method	'MofGen! by Chris Wilmer'
_symmetry_space_group_name_H-M	'P1'
_symmetry_Int_Tables_number	1
_symmetry_cell_setting	triclinic
loop_
_symmetry_equiv_pos_as_xyz
  x,y,z
_cell_length_a	15.296720
_cell_length_b	15.298073
_cell_length_c	15.297327
_cell_angle_alpha	110.794720
_cell_angle_beta	72.680778
_cell_angle_gamma	91.646683
loop_
_atom_site_label
_atom_site_type_symbol
_atom_site_fract_x
_atom_site_fract_y
_atom_site_fract_z
Zn1	Zn	-0.766943	-1.197179	0.284981
Zn2	Zn	-0.638322	-1.197077	0.413618
Zn3	Zn	-0.593814	-1.077896	0.275669
Zn4	Zn	-0.766789	-1.014721	0.467306
O5	O	-0.691467	-1.121718	0.360393
O6	O	-0.768573	-1.323403	0.283473
O7	O	-0.506199	-1.207663	0.368953
O8	O	-0.598218	-1.120201	0.142869
O9	O	-0.674075	-1.323327	0.377982
O10	O	-0.725415	-1.207838	0.149710
O11	O	-0.473499	-1.120102	0.267603
O12	O	-0.598068	-0.943279	0.319662
O13	O	-0.893028	-1.012528	0.469485
O14	O	-0.725152	-0.896864	0.460456
O15	O	-0.893142	-1.146580	0.335532
O16	O	-0.673926	-1.146405	0.554775
O17	O	-0.768310	-1.012429	0.594219
C18	C	-0.656764	-0.887339	0.394875
C19	C	-0.641943	-0.787062	0.409654
C20	C	-0.797383	-0.504404	0.254952
C21	C	-0.811314	-0.598618	0.241070
C22	C	-0.768972	-0.645733	0.283214
C23	C	-0.712697	-0.598626	0.339244
C24	C	-0.698771	-0.504400	0.353134
C25	C	-0.670360	-0.645730	0.381396
C26	C	-0.614085	-0.598622	0.437426
C27	C	-0.600161	-0.504407	0.451312
C28	C	-0.642502	-0.457291	0.409168
C29	C	-0.684287	-0.739955	0.367507
C30	C	-0.585674	-0.739952	0.465689
C31	C	-0.571744	-0.645738	0.479571
C32	C	-0.926727	-1.072518	0.409536
C33	C	-1.026981	-1.051552	0.430478
C34	C	-1.309818	-1.271632	0.210546
C35	C	-1.215626	-1.291336	0.190871
C36	C	-1.168460	-1.231392	0.250771
C37	C	-1.215496	-1.151740	0.330350
C38	C	-1.309699	-1.132038	0.350031
C39	C	-1.168341	-1.091798	0.390256
C40	C	-1.215376	-1.012146	0.469835
C41	C	-1.309570	-0.992448	0.489512
C42	C	-1.356736	-1.052392	0.429613
C43	C	-1.074137	-1.111500	0.370574
C44	C	-1.074018	-0.971906	0.510059
C45	C	-1.168210	-0.952202	0.529734
C46	C	-0.457120	-1.170792	0.311365
C47	C	-0.356855	-1.191986	0.290128
C48	C	-0.725954	-1.072571	0.609251
C49	C	-0.740750	-1.051621	0.715708
C50	C	-0.726296	-0.357016	0.325767
C51	C	-0.741114	-0.457294	0.310986
C52	C	-0.656869	-1.171078	0.110564
C53	C	-0.642125	-1.192112	0.004102
C54	C	-0.586080	-1.271753	0.933523
C55	C	-0.572174	-1.291437	0.833501
C56	C	-0.614317	-1.231485	0.804048
C57	C	-0.670368	-1.151846	0.874627
C58	C	-0.684270	-1.132156	0.974659
C59	C	-0.712507	-1.091888	0.845183
C60	C	-0.768558	-1.012249	0.915762
C61	C	-0.782458	-0.992564	1.015783
C62	C	-0.740315	-1.052515	1.045237
C63	C	-0.698605	-1.111577	0.745151
C64	C	-0.796795	-0.971980	0.786286
C65	C	-0.810701	-0.952297	0.886309
H66	H	-0.831857	-0.466031	0.220650
C67	C	-0.540137	-1.336770	0.965417
C68	C	-0.444610	-1.340608	0.925380
C69	C	-0.402244	-1.400488	0.954739
H70	H	-0.559955	-1.397892	0.942824
H71	H	-0.556369	-1.313650	1.035093
H72	H	-0.428385	-1.363732	0.855718
H73	H	-0.424766	-1.279502	0.947968
H74	H	-0.418476	-1.377369	1.024415
H75	H	-0.422069	-1.461606	0.932144
H76	H	-0.337425	-1.403094	0.927586
H77	H	-0.602990	-1.247515	0.722604
C78	C	-0.539824	-0.790994	0.511640
C79	C	-0.569089	-0.745309	0.613891
C80	C	-0.526887	-0.792313	0.656254
H81	H	-0.474993	-0.791016	0.487261
H82	H	-0.556193	-0.853849	0.495407
H83	H	-0.552714	-0.682470	0.630116
H84	H	-0.633914	-0.745285	0.638297
H85	H	-0.543256	-0.855168	0.640021
H86	H	-0.462057	-0.792332	0.631867
H87	H	-0.546743	-0.761328	0.725636
H88	H	-0.828087	-0.927708	1.073247
H89	H	-0.631170	-0.380571	0.420475
H90	H	-1.206520	-0.887349	0.594528
H91	H	-0.751637	-1.036495	1.126682
C92	C	-1.022905	-0.906887	0.575253
C93	C	-1.061831	-0.903035	0.671913
C94	C	-1.014756	-0.843167	0.731991
H95	H	-1.027400	-0.845767	0.573502
H96	H	-0.960069	-0.930024	0.552194
H97	H	-1.124650	-0.879894	0.694966
H98	H	-1.057336	-0.964139	0.673695
H99	H	-0.951921	-0.866304	0.708932
H100	H	-1.019254	-0.782051	0.730232
H101	H	-1.041155	-0.840552	0.797579
C102	C	-0.510813	-0.594482	0.540565
C103	C	-0.562323	-0.517620	0.620671
C104	C	-0.506229	-0.470389	0.676888
H105	H	-0.461037	-0.573077	0.501199
H106	H	-0.487607	-0.635986	0.563743
H107	H	-0.585515	-0.476123	0.597493
H108	H	-0.612096	-0.538999	0.660062
H109	H	-0.483023	-0.511893	0.700066
H110	H	-0.456456	-0.448990	0.637513
H111	H	-0.541173	-0.418238	0.731251
C112	C	-0.784210	-0.747970	0.268338
C113	C	-0.824345	-0.756362	0.359744
C114	C	-0.838407	-0.850531	0.346072
H115	H	-0.726925	-0.784823	0.236430
H116	H	-0.823826	-0.769299	0.228978
H117	H	-0.784731	-0.735044	0.399089
H118	H	-0.881637	-0.719530	0.391666
H119	H	-0.878023	-0.871860	0.306711
H120	H	-0.781119	-0.887376	0.314162
H121	H	-0.865648	-0.856236	0.408086
H122	H	-1.035850	-1.176353	0.305780
C123	C	-0.538982	-0.453179	0.512005
C124	C	-0.465744	-0.421845	0.453602
C125	C	-0.409377	-0.374640	0.509482
H126	H	-0.515659	-0.494638	0.535137
H127	H	-0.573752	-0.400939	0.566391
H128	H	-0.430980	-0.474079	0.399233
H129	H	-0.489040	-0.380375	0.430469
H130	H	-0.444146	-0.322400	0.563869
H131	H	-0.386061	-0.416105	0.532612
H132	H	-0.359683	-0.353367	0.469867
C133	C	-0.871480	-0.865851	0.963089
C134	C	-0.874613	-0.861434	1.056987
C135	C	-0.930584	-0.781808	1.127740
H136	H	-0.931803	-0.869473	0.957520
H137	H	-0.846986	-0.811204	0.952967
H138	H	-0.899111	-0.916067	1.067106
H139	H	-0.814306	-0.857797	1.062588
H140	H	-0.906089	-0.727161	1.117618
H141	H	-0.990902	-0.785437	1.122162
H142	H	-0.932710	-0.778796	1.191457
C143	C	-0.842601	-0.906745	0.754516
C144	C	-0.894638	-0.832770	0.837731
C145	C	-0.936832	-0.772655	0.808494
H146	H	-0.881668	-0.940572	0.718619
H147	H	-0.796851	-0.882304	0.714141
H148	H	-0.940383	-0.857210	0.878089
H149	H	-0.855592	-0.798919	0.873638
H150	H	-0.891081	-0.748214	0.768120
H151	H	-0.975894	-0.806490	0.772597
H152	H	-0.972136	-0.722452	0.864950
H153	H	-1.347866	-0.927596	0.554317
C154	C	-0.637753	-1.197969	0.668380
C155	C	-0.634576	-1.202374	0.574474
C156	C	-0.578517	-1.281944	0.503727
H157	H	-0.662176	-1.252656	0.678432
H158	H	-0.577448	-1.194261	0.674027
H159	H	-0.694869	-1.206090	0.568829
H160	H	-0.610144	-1.147706	0.564390
H161	H	-0.518211	-1.278236	0.509375
H162	H	-0.602945	-1.336625	0.513789
H163	H	-0.576347	-1.284938	0.440004
C164	C	-0.872538	-0.649603	0.180337
C165	C	-0.961268	-0.603885	0.223336
C166	C	-1.017690	-0.650819	0.167403
H167	H	-0.874888	-0.712464	0.178062
H168	H	-0.848279	-0.649575	0.115499
H169	H	-0.985521	-0.603923	0.288156
H170	H	-0.958947	-0.541027	0.225609
H171	H	-0.993431	-0.650791	0.102565
H172	H	-1.020032	-0.713679	0.165132
H173	H	-1.077897	-0.619802	0.196564
H174	H	-1.091764	-1.247440	0.234747
H175	H	-0.730105	-0.778302	0.321885
C176	C	-1.164713	-1.377827	0.104399
C177	C	-1.226171	-1.426094	0.056137
C178	C	-1.179300	-1.505770	-0.023539
H179	H	-1.138854	-1.417680	0.127462
H180	H	-1.117093	-1.359277	0.060014
H181	H	-1.273775	-1.444645	0.100514
H182	H	-1.252033	-1.386269	0.033051
H183	H	-1.131680	-1.487220	-0.067924
H184	H	-1.153443	-1.545615	-0.000467
H185	H	-1.220990	-1.538524	-0.056300
H186	H	-1.348231	-1.320435	0.161789
H187	H	-1.433435	-1.036353	0.445628
H188	H	-0.526537	-1.356277	0.776039
