data_functionalizedCrystal
_audit_creation_method	'MofGen! by Chris Wilmer'
_symmetry_space_group_name_H-M	'P1'
_symmetry_Int_Tables_number	1
_symmetry_cell_setting	triclinic
loop_
_symmetry_equiv_pos_as_xyz
  x,y,z
_cell_length_a	10.489741
_cell_length_b	12.837942
_cell_length_c	11.295483
_cell_angle_alpha	85.469583
_cell_angle_beta	94.144562
_cell_angle_gamma	89.684057
loop_
_atom_site_label
_atom_site_type_symbol
_atom_site_fract_x
_atom_site_fract_y
_atom_site_fract_z
O1	O	-1.717937	-0.139467	-0.098950
O2	O	-1.348257	-0.153206	-0.098968
O3	O	-1.524899	0.004627	-0.098952
O4	O	-1.541295	-0.297300	-0.098966
O5	O	-1.509382	-0.009214	0.099097
O6	O	-1.332740	-0.167047	0.099081
O7	O	-1.702419	-0.153308	0.099100
Cu8	Cu	-1.516163	-0.161441	0.117174
Cu9	Cu	-1.534514	-0.145073	-0.117042
O10	O	-1.525777	-0.311141	0.099084
C11	C	-1.511602	0.036369	0.000072
C12	C	-1.495084	0.151569	0.000069
C13	C	-1.292853	-0.159089	0.000054
C14	C	-1.150881	-0.155983	0.000047
C15	C	-1.757824	-0.147425	0.000075
C16	C	-1.899796	-0.150530	0.000074
C17	C	-1.071668	-0.055559	0.000063
C18	C	-0.992422	-0.096175	-0.097585
C19	C	-0.977160	-0.109845	0.097676
C20	C	-1.073512	-0.196634	-0.097682
C21	C	-1.058251	-0.210297	0.097667
C22	C	-0.979042	-0.250984	-0.000005
C23	C	-1.539074	-0.342882	0.000057
C24	C	-1.555593	-0.458082	0.000052
N25	N	-1.503265	-0.172954	0.281909
C26	C	-1.693661	0.391046	0.000054
C27	C	-1.678147	0.499288	0.000051
C28	C	-1.448545	0.476297	0.000052
C29	C	-1.464058	0.368055	0.000055
C30	C	-1.586620	0.325434	0.000058
C31	C	-1.602133	0.217189	0.000069
C32	C	-1.372532	0.194201	0.000061
C33	C	-1.357018	0.302443	0.000059
N34	N	-1.547421	-0.133552	-0.281778
C35	C	-1.640261	-0.050621	0.531211
C36	C	-1.630524	-0.059328	0.655874
C37	C	-1.474047	-0.199071	0.655900
C38	C	-1.483784	-0.190363	0.531237
C39	C	-1.566895	-0.116137	0.468897
C40	C	-1.576638	-0.107435	0.344232
C41	C	-1.420156	-0.247172	0.344260
C42	C	-1.410419	-0.255879	0.468923
H43	H	-0.963192	-0.047913	-0.180138
H44	H	-1.644315	-0.046999	0.293476
O45	O	-1.238045	0.343985	-0.000100
C46	C	-1.230217	0.413049	-0.102689
H47	H	-1.330242	0.441631	-0.136893
H48	H	-1.185161	0.370675	-0.174508
C49	C	-1.024560	0.472018	-0.029522
C50	C	-1.147412	0.507130	-0.071526
H51	H	-0.973477	0.530049	-0.010303
H52	H	-1.029831	0.425486	0.039592
H53	H	-0.987030	0.436706	-0.089378
H54	H	-1.184945	0.542429	-0.011666
H55	H	-1.142145	0.553670	-0.140630
O56	O	-1.721226	0.175847	-0.000145
C57	C	-1.795305	0.216474	-0.102708
H58	H	-1.729475	0.244509	-0.174394
H59	H	-1.856066	0.284852	-0.079524
C60	C	-1.963922	0.096178	-0.061176
C61	C	-1.883069	0.130604	-0.149226
H62	H	-2.018064	0.043212	-0.089869
H63	H	-1.914016	0.068809	0.007925
H64	H	-2.014545	0.153169	-0.041864
H65	H	-1.832437	0.073617	-0.168525
H66	H	-1.932969	0.157961	-0.218332
H67	H	-1.087509	-0.258524	0.180223
O68	O	-1.812668	0.349574	0.000272
C69	C	-1.820465	0.280467	0.102830
H70	H	-1.745026	0.301556	0.174518
H71	H	-1.803199	0.196964	0.079639
C72	C	-2.046866	0.263387	0.061300
C73	C	-1.954217	0.289295	0.149351
H74	H	-2.129371	0.268828	0.089994
H75	H	-2.041613	0.309943	-0.007798
H76	H	-2.032461	0.193803	0.041982
H77	H	-1.968614	0.358882	0.168657
H78	H	-1.959476	0.242750	0.218454
H79	H	-1.112265	0.027005	-0.000055
H80	H	-1.285371	0.140767	0.000074
H81	H	-1.360420	-0.300522	0.293510
H82	H	-1.348761	0.511020	0.000037
O83	O	-1.393384	-0.271293	0.716329
C84	C	-1.429002	-0.372050	0.685900
H85	H	-1.485279	-0.366003	0.595385
H86	H	-1.490953	-0.409541	0.756063
C87	C	-1.239082	-0.447064	0.791326
C88	C	-1.308193	-0.439637	0.680149
H89	H	-1.164563	-0.488757	0.787783
H90	H	-1.215087	-0.379182	0.811831
H91	H	-1.290722	-0.478303	0.849783
H92	H	-1.256559	-0.408386	0.621697
H93	H	-1.332177	-0.507515	0.659633
O94	O	-1.721017	0.021560	0.470832
C95	C	-1.783717	0.077498	0.552565
H96	H	-1.724293	0.072882	0.641439
H97	H	-1.881612	0.042126	0.565807
C98	C	-1.873224	0.198288	0.394750
C99	C	-1.800233	0.192625	0.503904
H100	H	-1.883419	0.269302	0.364733
H101	H	-1.830986	0.160600	0.339684
H102	H	-1.954796	0.168806	0.405800
H103	H	-1.718659	0.222095	0.492850
H104	H	-1.842458	0.230321	0.558968
O105	O	-1.329582	-0.328001	0.529300
C106	C	-1.266941	-0.383979	0.447563
H107	H	-1.267275	-0.335224	0.358697
H108	H	-1.318798	-0.460459	0.434303
C109	C	-1.127603	-0.467556	0.605378
C110	C	-1.128004	-0.407670	0.496235
H111	H	-1.041902	-0.482175	0.635403
H112	H	-1.169808	-0.429846	0.660448
H113	H	-1.170824	-0.531282	0.594314
H114	H	-1.084798	-0.343941	0.507304
H115	H	-1.085788	-0.445370	0.441169
H116	H	-1.115496	-0.233317	-0.180329
H117	H	-1.690264	-0.005978	0.706607
H118	H	-0.938734	-0.333623	-0.000062
H119	H	-0.935027	-0.073104	0.180230
H120	H	-1.765312	0.552707	0.000045
