data_functionalizedCrystal
_audit_creation_method	'MofGen! by Chris Wilmer'
_symmetry_space_group_name_H-M	'P1'
_symmetry_Int_Tables_number	1
_symmetry_cell_setting	triclinic
loop_
_symmetry_equiv_pos_as_xyz
  x,y,z
_cell_length_a	16.120566
_cell_length_b	21.395361
_cell_length_c	16.120297
_cell_angle_alpha	87.133067
_cell_angle_beta	89.874982
_cell_angle_gamma	87.126572
loop_
_atom_site_label
_atom_site_type_symbol
_atom_site_fract_x
_atom_site_fract_y
_atom_site_fract_z
Zn1	Zn	-1.247386	0.317418	-0.534590
Zn2	Zn	-0.997386	0.567418	-0.284590
Zn3	Zn	-0.747386	0.817418	-0.034590
Zn4	Zn	-0.497386	1.067418	0.215410
Zn5	Zn	-1.254321	0.417160	-0.395520
Zn6	Zn	-1.004321	0.667160	-0.145520
Zn7	Zn	-0.754321	0.917160	0.104480
Zn8	Zn	-0.504321	1.167160	0.354480
Zn9	Zn	-1.115378	0.306832	-0.388503
Zn10	Zn	-0.865378	0.556832	-0.138503
Zn11	Zn	-0.615378	0.806832	0.111497
Zn12	Zn	-0.365378	1.056832	0.361497
Zn13	Zn	-1.108277	0.416584	-0.527482
Zn14	Zn	-0.858277	0.666584	-0.277482
Zn15	Zn	-0.608277	0.916584	-0.027482
Zn16	Zn	-0.358277	1.166584	0.222518
O17	O	-1.181341	0.364498	-0.461524
O18	O	-0.931341	0.614498	-0.211524
O19	O	-0.681341	0.864498	0.038476
O20	O	-0.431341	1.114498	0.288476
O21	O	-1.364671	0.335321	-0.522054
O22	O	-1.114671	0.585321	-0.272054
O23	O	-0.864671	0.835321	-0.022054
O24	O	-0.614671	1.085321	0.227946
O25	O	-1.241764	0.398335	-0.278225
O26	O	-0.991764	0.648335	-0.028225
O27	O	-0.741764	0.898335	0.221775
O28	O	-0.491764	1.148335	0.471775
O29	O	-1.132959	0.220562	-0.407920
O30	O	-0.882959	0.470562	-0.157920
O31	O	-0.632959	0.720562	0.092080
O32	O	-0.382959	0.970562	0.342080
O33	O	-1.369766	0.408601	-0.419880
O34	O	-1.119766	0.658601	-0.169880
O35	O	-0.869766	0.908601	0.080120
O36	O	-0.619766	1.158601	0.330120
O37	O	-1.229944	0.228340	-0.515250
O38	O	-0.979944	0.478340	-0.265250
O39	O	-0.729944	0.728340	-0.015250
O40	O	-0.479944	0.978340	0.234750
O41	O	-1.139683	0.317277	-0.273069
O42	O	-0.889683	0.567277	-0.023069
O43	O	-0.639683	0.817277	0.226931
O44	O	-0.389683	1.067277	0.476931
O45	O	-0.998071	0.316719	-0.401027
O46	O	-0.748071	0.566719	-0.151027
O47	O	-0.498071	0.816719	0.098973
O48	O	-0.248071	1.066719	0.348973
O49	O	-1.120857	0.407619	-0.644789
O50	O	-0.870857	0.657619	-0.394789
O51	O	-0.620857	0.907619	-0.144789
O52	O	-0.370857	1.157619	0.105211
O53	O	-0.992854	0.397353	-0.503134
O54	O	-0.742854	0.647353	-0.253134
O55	O	-0.492854	0.897353	-0.003134
O56	O	-0.242854	1.147353	0.246866
O57	O	-1.223059	0.334762	-0.650012
O58	O	-0.973059	0.584762	-0.400012
O59	O	-0.723059	0.834762	-0.150012
O60	O	-0.473059	1.084762	0.099988
O61	O	-1.234878	0.504757	-0.412987
O62	O	-0.984878	0.754757	-0.162987
O63	O	-0.734878	1.004757	0.087013
O64	O	-0.484878	1.254757	0.337013
O65	O	-1.127581	0.504334	-0.509938
O66	O	-0.877581	0.754334	-0.259938
O67	O	-0.627581	1.004334	-0.009938
O68	O	-0.377581	1.254334	0.240062
C69	C	-0.965290	0.355825	-0.450548
C70	C	-0.715290	0.605825	-0.200548
C71	C	-0.465290	0.855825	0.049452
C72	C	-0.215290	1.105825	0.299452
C73	C	-0.872862	0.352130	-0.445872
C74	C	-0.622862	0.602130	-0.195872
C75	C	-0.372862	0.852130	0.054128
C76	C	-0.122862	1.102130	0.304128
C77	C	-0.703634	0.345371	-0.437342
C78	C	-0.453634	0.595371	-0.187342
C79	C	-0.203634	0.845371	0.062658
C80	C	0.046366	1.095371	0.312658
C81	C	-0.659887	0.383680	-0.485712
C82	C	-0.409887	0.633680	-0.235712
C83	C	-0.159887	0.883680	0.014288
C84	C	0.090113	1.133680	0.264288
C85	C	-0.565723	0.379919	-0.480966
C86	C	-0.315723	0.629919	-0.230966
C87	C	-0.065723	0.879919	0.019034
C88	C	0.184277	1.129919	0.269034
C89	C	-0.797807	0.349131	-0.442087
C90	C	-0.547807	0.599131	-0.192087
C91	C	-0.297807	0.849131	0.057913
C92	C	-0.047807	1.099131	0.307913
C93	C	-0.398235	0.373207	-0.472529
C94	C	-0.148235	0.623207	-0.222529
C95	C	0.101765	0.873207	0.027471
C96	C	0.351765	1.123207	0.277471
C97	C	-0.490664	0.376922	-0.477184
C98	C	-0.240664	0.626922	-0.227184
C99	C	0.009336	0.876922	0.022816
C100	C	0.259336	1.126922	0.272816
C101	C	-1.181233	0.527280	-0.461472
C102	C	-0.931233	0.777280	-0.211472
C103	C	-0.681233	1.027280	0.038528
C104	C	-0.431233	1.277280	0.288528
C105	C	-1.181262	0.596923	-0.461481
C106	C	-0.931262	0.846923	-0.211481
C107	C	-0.681262	1.096923	0.038519
C108	C	-0.431262	1.346923	0.288519
C109	C	-1.170392	0.372307	-0.678416
C110	C	-0.920392	0.622307	-0.428416
C111	C	-0.670392	0.872307	-0.178416
C112	C	-0.420392	1.122307	0.071584
C113	C	-1.165727	0.375635	-0.770843
C114	C	-0.915727	0.625635	-0.520843
C115	C	-0.665727	0.875635	-0.270843
C116	C	-0.415727	1.125635	-0.020843
C117	C	-1.181470	0.201083	-0.461595
C118	C	-0.931470	0.451083	-0.211595
C119	C	-0.681470	0.701083	0.038405
C120	C	-0.431470	0.951083	0.288405
C121	C	-1.181525	0.131445	-0.461625
C122	C	-0.931525	0.381445	-0.211625
C123	C	-0.681525	0.631445	0.038375
C124	C	-0.431525	0.881445	0.288375
C125	C	-1.237176	0.629839	-0.411055
C126	C	-0.987176	0.879839	-0.161055
C127	C	-0.737176	1.129839	0.088945
C128	C	-0.487176	1.379839	0.338945
C129	C	-1.237214	0.695277	-0.411076
C130	C	-0.987214	0.945277	-0.161076
C131	C	-0.737214	1.195277	0.088924
C132	C	-0.487214	1.445277	0.338924
C133	C	-1.181323	0.727794	-0.461513
C134	C	-0.931323	0.977794	-0.211513
C135	C	-0.681323	1.227794	0.038487
C136	C	-0.431323	1.477794	0.288487
C137	C	-1.125405	0.694870	-0.511949
C138	C	-0.875405	0.944870	-0.261949
C139	C	-0.625405	1.194870	-0.011949
C140	C	-0.375405	1.444870	0.238051
C141	C	-1.125374	0.629434	-0.511933
C142	C	-0.875374	0.879434	-0.261933
C143	C	-0.625374	1.129434	-0.011933
C144	C	-0.375374	1.379434	0.238067
C145	C	-1.106118	0.828743	-0.464234
C146	C	-0.856118	1.078743	-0.214234
C147	C	-0.606118	1.328743	0.035766
C148	C	-0.356118	1.578743	0.285766
C149	C	-1.106148	0.894178	-0.464244
C150	C	-0.856148	1.144178	-0.214244
C151	C	-0.606148	1.394178	0.035756
C152	C	-0.356148	1.644178	0.285756
C153	C	-1.181417	0.929621	-0.461567
C154	C	-0.931417	1.179621	-0.211567
C155	C	-0.681417	1.429621	0.038433
C156	C	-0.431417	1.679621	0.288433
C157	C	-1.256660	0.899621	-0.458863
C158	C	-1.006660	1.149621	-0.208863
C159	C	-0.756660	1.399621	0.041137
C160	C	-0.506660	1.649621	0.291137
C161	C	-1.256630	0.834185	-0.458847
C162	C	-1.006630	1.084185	-0.208847
C163	C	-0.756630	1.334185	0.041153
C164	C	-0.506630	1.584185	0.291153
C165	C	-1.181350	0.798749	-0.461536
C166	C	-0.931350	1.048749	-0.211536
C167	C	-0.681350	1.298749	0.038464
C168	C	-0.431350	1.548749	0.288464
C169	C	-1.237377	1.033492	-0.411161
C170	C	-0.987377	1.283492	-0.161161
C171	C	-0.737377	1.533492	0.088839
C172	C	-0.487377	1.783492	0.338839
C173	C	-1.237416	1.098931	-0.411187
C174	C	-0.987416	1.348931	-0.161187
C175	C	-0.737416	1.598931	0.088813
C176	C	-0.487416	1.848931	0.338813
C177	C	-1.125600	1.098523	-0.512055
C178	C	-0.875600	1.348523	-0.262055
C179	C	-0.625600	1.598523	-0.012055
C180	C	-0.375600	1.848523	0.237945
C181	C	-1.125568	1.033086	-0.512033
C182	C	-0.875568	1.283086	-0.262033
C183	C	-0.625568	1.533086	-0.012033
C184	C	-0.375568	1.783086	0.237967
C185	C	-1.181456	1.000574	-0.461582
C186	C	-0.931456	1.250574	-0.211582
C187	C	-0.681456	1.500574	0.038418
C188	C	-0.431456	1.750574	0.288418
C189	C	-1.157178	0.381695	-0.940066
C190	C	-0.907178	0.631695	-0.690066
C191	C	-0.657178	0.881695	-0.440066
C192	C	-0.407178	1.131695	-0.190066
C193	C	-1.205667	0.347121	-0.983841
C194	C	-0.955667	0.597121	-0.733841
C195	C	-0.705667	0.847121	-0.483841
C196	C	-0.455667	1.097121	-0.233841
C197	C	-1.200911	0.350492	-1.078003
C198	C	-0.950911	0.600492	-0.828003
C199	C	-0.700911	0.850492	-0.578003
C200	C	-0.450911	1.100492	-0.328003
C201	C	-1.161933	0.378324	-0.845896
C202	C	-0.911933	0.628324	-0.595896
C203	C	-0.661933	0.878324	-0.345896
C204	C	-0.411933	1.128324	-0.095896
C205	C	-1.192294	0.356677	-0.245477
C206	C	-0.942294	0.606677	0.004523
C207	C	-0.692294	0.856677	0.254523
C208	C	-0.442294	1.106677	0.504523
C209	C	-1.197121	0.353179	-0.153059
C210	C	-0.947121	0.603179	0.096941
C211	C	-0.697121	0.853179	0.346941
C212	C	-0.447121	1.103179	0.596941
H213	H	-1.282685	0.603370	-0.369977
H214	H	-1.032685	0.853370	-0.119977
H215	H	-0.782685	1.103370	0.130023
H216	H	-0.532685	1.353370	0.380023
C217	C	-1.023310	0.789761	-0.467158
C218	C	-0.773310	1.039761	-0.217158
C219	C	-0.523310	1.289761	0.032842
C220	C	-0.273310	1.539761	0.282842
N221	N	-0.960940	0.760400	-0.469354
N222	N	-0.710940	1.010400	-0.219354
N223	N	-0.460940	1.260400	0.030646
N224	N	-0.210940	1.510400	0.280646
C225	C	-0.704827	0.431810	-0.546465
C226	C	-0.454827	0.681810	-0.296465
C227	C	-0.204827	0.931810	-0.046465
C228	C	0.045173	1.181810	0.203535
N229	N	-0.738680	0.468061	-0.592219
N230	N	-0.488680	0.718061	-0.342219
N231	N	-0.238680	0.968061	-0.092219
N232	N	0.011320	1.218061	0.157781
C233	C	-1.266582	0.303716	-0.938937
C234	C	-1.016582	0.553716	-0.688937
C235	C	-0.766582	0.803716	-0.438937
C236	C	-0.516582	1.053716	-0.188937
N237	N	-1.312466	0.271028	-0.905111
N238	N	-1.062466	0.521028	-0.655111
N239	N	-0.812466	0.771028	-0.405111
N240	N	-0.562466	1.021028	-0.155111
C241	C	-0.658695	0.297252	-0.376583
C242	C	-0.408695	0.547252	-0.126583
C243	C	-0.158695	0.797252	0.123417
C244	C	0.091305	1.047252	0.373417
N245	N	-0.624837	0.261011	-0.330818
N246	N	-0.374837	0.511011	-0.080818
N247	N	-0.124837	0.761011	0.169182
N248	N	0.125163	1.011011	0.419182
C249	C	-1.096273	0.425101	-0.984971
C250	C	-0.846273	0.675101	-0.734971
C251	C	-0.596273	0.925101	-0.484971
C252	C	-0.346273	1.175101	-0.234971
N253	N	-1.050400	0.457794	-1.018803
N254	N	-0.800400	0.707794	-0.768803
N255	N	-0.550400	0.957794	-0.518803
N256	N	-0.300400	1.207794	-0.268803
H257	H	-1.044880	0.918598	-0.466437
H258	H	-0.794880	1.168598	-0.216437
H259	H	-0.544880	1.418598	0.033563
H260	H	-0.294880	1.668598	0.283563
C261	C	-1.339395	0.801187	-0.455872
C262	C	-1.089395	1.051187	-0.205872
C263	C	-0.839395	1.301187	0.044128
C264	C	-0.589395	1.551187	0.294128
N265	N	-1.401736	0.776334	-0.453632
N266	N	-1.151736	1.026334	-0.203632
N267	N	-0.901736	1.276334	0.046368
N268	N	-0.651736	1.526334	0.296368
C269	C	-1.339464	0.938604	-0.455925
C270	C	-1.089464	1.188604	-0.205925
C271	C	-0.839464	1.438604	0.044075
C272	C	-0.589464	1.688604	0.294075
N273	N	-1.401829	0.967969	-0.453713
N274	N	-1.151829	1.217969	-0.203713
N275	N	-0.901829	1.467969	0.046287
N276	N	-0.651829	1.717969	0.296287
C277	C	-1.298722	0.731492	-0.355597
C278	C	-1.048722	0.981492	-0.105597
C279	C	-0.798722	1.231492	0.144403
C280	C	-0.548722	1.481492	0.394403
N281	N	-1.345048	0.758767	-0.313808
N282	N	-1.095048	1.008767	-0.063808
N283	N	-0.845048	1.258767	0.186192
N284	N	-0.595048	1.508767	0.436192
H285	H	-1.282953	1.125731	-0.370126
H286	H	-1.032953	1.375731	-0.120126
H287	H	-0.782953	1.625731	0.129874
H288	H	-0.532953	1.875731	0.379874
H289	H	-1.282887	1.007020	-0.370082
H290	H	-1.032887	1.257020	-0.120082
H291	H	-0.782887	1.507020	0.129918
H292	H	-0.532887	1.757020	0.379918
C293	C	-1.064120	1.134289	-0.567538
C294	C	-0.814120	1.384289	-0.317538
C295	C	-0.564120	1.634289	-0.067538
C296	C	-0.314120	1.884289	0.182462
N297	N	-1.017814	1.161231	-0.609331
N298	N	-0.767814	1.411231	-0.359331
N299	N	-0.517814	1.661231	-0.109331
N300	N	-0.267814	1.911231	0.140669
C301	C	-1.063922	0.730641	-0.567427
C302	C	-0.813922	0.980641	-0.317427
C303	C	-0.563922	1.230641	-0.067427
C304	C	-0.313922	1.480641	0.182573
N305	N	-1.017612	0.757583	-0.609215
N306	N	-0.767612	1.007583	-0.359215
N307	N	-0.517612	1.257583	-0.109215
N308	N	-0.267612	1.507583	0.140785
H309	H	-1.079841	0.602633	-0.552997
H310	H	-0.829841	0.852633	-0.302997
H311	H	-0.579841	1.102633	-0.052997
H312	H	-0.329841	1.352633	0.197003
C313	C	-1.064073	0.996877	-0.567524
C314	C	-0.814073	1.246877	-0.317524
C315	C	-0.564073	1.496877	-0.067524
C316	C	-0.314073	1.746877	0.182476
N317	N	-1.017762	0.969606	-0.609333
N318	N	-0.767762	1.219606	-0.359333
N319	N	-0.517762	1.469606	-0.109333
N320	N	-0.267762	1.719606	0.140667
