data_functionalizedCrystal
_audit_creation_method	'MofGen! by Chris Wilmer'
_symmetry_space_group_name_H-M	'P1'
_symmetry_Int_Tables_number	1
_symmetry_cell_setting	triclinic
loop_
_symmetry_equiv_pos_as_xyz
  x,y,z
_cell_length_a	17.640280
_cell_length_b	19.805407
_cell_length_c	19.805399
_cell_angle_alpha	90.016886
_cell_angle_beta	78.776044
_cell_angle_gamma	101.199888
loop_
_atom_site_label
_atom_site_type_symbol
_atom_site_fract_x
_atom_site_fract_y
_atom_site_fract_z
Zn1	Zn	-0.314670	-1.089264	-0.328319
Zn2	Zn	-0.064670	-0.839264	-0.078319
Zn3	Zn	0.185330	-0.589264	0.171681
Zn4	Zn	0.435330	-0.339264	0.421681
Zn5	Zn	-0.446848	-1.112096	-0.192280
Zn6	Zn	-0.196848	-0.862096	0.057720
Zn7	Zn	0.053152	-0.612096	0.307720
Zn8	Zn	0.303152	-0.362096	0.557720
Zn9	Zn	-0.314695	-0.976088	-0.215139
Zn10	Zn	-0.064695	-0.726088	0.034861
Zn11	Zn	0.185305	-0.476088	0.284861
Zn12	Zn	0.435305	-0.226088	0.534861
Zn13	Zn	-0.446803	-0.998946	-0.305434
Zn14	Zn	-0.196803	-0.748946	-0.055434
Zn15	Zn	0.053197	-0.498946	0.194566
Zn16	Zn	0.303197	-0.248946	0.444566
O17	O	-0.380754	-1.044098	-0.260293
O18	O	-0.130754	-0.794098	-0.010293
O19	O	0.119246	-0.544098	0.239707
O20	O	0.369246	-0.294098	0.489707
O21	O	-0.332212	-1.187010	-0.310284
O22	O	-0.082212	-0.937010	-0.060284
O23	O	0.167788	-0.687010	0.189716
O24	O	0.417788	-0.437010	0.439716
O25	O	-0.429347	-1.094043	-0.100590
O26	O	-0.179347	-0.844043	0.149410
O27	O	0.070653	-0.594043	0.399410
O28	O	0.320653	-0.344043	0.649410
O29	O	-0.204088	-0.971979	-0.249297
O30	O	0.045912	-0.721979	0.000703
O31	O	0.295912	-0.471979	0.250703
O32	O	0.545912	-0.221979	0.500703
O33	O	-0.429323	-1.203785	-0.210336
O34	O	-0.179323	-0.953785	0.039664
O35	O	0.070677	-0.703785	0.289664
O36	O	0.320677	-0.453785	0.539664
O37	O	-0.204069	-1.055129	-0.332450
O38	O	0.045931	-0.805129	-0.082450
O39	O	0.295931	-0.555129	0.167550
O40	O	0.545931	-0.305129	0.417550
O41	O	-0.332255	-0.994119	-0.117385
O42	O	-0.082255	-0.744119	0.132615
O43	O	0.167745	-0.494119	0.382615
O44	O	0.417745	-0.244119	0.632615
O45	O	-0.332211	-0.884402	-0.227106
O46	O	-0.082211	-0.634402	0.022894
O47	O	0.167789	-0.384402	0.272894
O48	O	0.417789	-0.134402	0.522894
O49	O	-0.429246	-1.010938	-0.403192
O50	O	-0.179246	-0.760938	-0.153192
O51	O	0.070754	-0.510938	0.096808
O52	O	0.320754	-0.260938	0.346808
O53	O	-0.429270	-0.901196	-0.293446
O54	O	-0.179270	-0.651196	-0.043446
O55	O	0.070730	-0.401196	0.206554
O56	O	0.320730	-0.151196	0.456554
O57	O	-0.332168	-1.077294	-0.420005
O58	O	-0.082168	-0.827294	-0.170005
O59	O	0.167832	-0.577294	0.079995
O60	O	0.417832	-0.327294	0.329995
O61	O	-0.557446	-1.116208	-0.188146
O62	O	-0.307446	-0.866208	0.061854
O63	O	-0.057446	-0.616208	0.311854
O64	O	0.192554	-0.366208	0.561854
O65	O	-0.557413	-1.033077	-0.271280
O66	O	-0.307413	-0.783077	-0.021280
O67	O	-0.057413	-0.533077	0.228720
O68	O	0.192587	-0.283077	0.478720
C69	C	-0.380739	-0.868240	-0.260274
C70	C	-0.130739	-0.618240	-0.010274
C71	C	0.119261	-0.368240	0.239726
C72	C	0.369261	-0.118240	0.489726
C73	C	-0.380751	-0.793010	-0.260278
C74	C	-0.130751	-0.543010	-0.010278
C75	C	0.119249	-0.293010	0.239722
C76	C	0.369249	-0.043010	0.489722
C77	C	-0.586108	-1.079619	-0.224764
C78	C	-0.336108	-0.829619	0.025236
C79	C	-0.086108	-0.579619	0.275236
C80	C	0.163892	-0.329619	0.525236
C81	C	-0.673959	-1.094876	-0.209587
C82	C	-0.423959	-0.844876	0.040413
C83	C	-0.173959	-0.594876	0.290413
C84	C	0.076041	-0.344876	0.540413
C85	C	-0.380699	-1.044118	-0.436845
C86	C	-0.130699	-0.794118	-0.186845
C87	C	0.119301	-0.544118	0.063155
C88	C	0.369301	-0.294118	0.313155
C89	C	-0.380676	-1.044127	-0.512081
C90	C	-0.130676	-0.794127	-0.262081
C91	C	0.119324	-0.544127	-0.012081
C92	C	0.369324	-0.294127	0.237919
C93	C	-0.962942	-0.928465	-0.375837
C94	C	-0.712942	-0.678465	-0.125837
C95	C	-0.462942	-0.428465	0.124163
C96	C	-0.212942	-0.178465	0.374163
C97	C	-1.045492	-0.942803	-0.361554
C98	C	-0.795492	-0.692803	-0.111554
C99	C	-0.545492	-0.442803	0.138446
C100	C	-0.295492	-0.192803	0.388446
C101	C	-1.045461	-1.029421	-0.275074
C102	C	-0.795461	-0.779421	-0.025074
C103	C	-0.545461	-0.529421	0.224926
C104	C	-0.295461	-0.279421	0.474926
C105	C	-0.962910	-1.015092	-0.289352
C106	C	-0.712910	-0.765092	-0.039352
C107	C	-0.462910	-0.515092	0.210648
C108	C	-0.212910	-0.265092	0.460648
C109	C	-0.921657	-0.964613	-0.339734
C110	C	-0.671657	-0.714613	-0.089734
C111	C	-0.421657	-0.464613	0.160266
C112	C	-0.171657	-0.214613	0.410266
C113	C	-0.921624	-1.051240	-0.253249
C114	C	-0.671624	-0.801240	-0.003249
C115	C	-0.421624	-0.551240	0.246751
C116	C	-0.171624	-0.301240	0.496751
C117	C	-0.839080	-1.036910	-0.267523
C118	C	-0.589080	-0.786910	-0.017523
C119	C	-0.339080	-0.536910	0.232477
C120	C	-0.089080	-0.286910	0.482477
C121	C	-0.797821	-0.986431	-0.317901
C122	C	-0.547821	-0.736431	-0.067901
C123	C	-0.297821	-0.486431	0.182099
C124	C	-0.047821	-0.236431	0.432099
C125	C	-0.839113	-0.950282	-0.354008
C126	C	-0.589113	-0.700282	-0.104008
C127	C	-0.339113	-0.450282	0.145992
C128	C	-0.089113	-0.200282	0.395992
C129	C	-0.962879	-1.101716	-0.202864
C130	C	-0.712879	-0.851716	0.047136
C131	C	-0.462879	-0.601716	0.297136
C132	C	-0.212879	-0.351716	0.547136
C133	C	-0.921593	-1.137864	-0.166761
C134	C	-0.671593	-0.887864	0.083239
C135	C	-0.421593	-0.637864	0.333239
C136	C	-0.171593	-0.387864	0.583239
C137	C	-0.839048	-1.123537	-0.181038
C138	C	-0.589048	-0.873537	0.068962
C139	C	-0.339048	-0.623537	0.318962
C140	C	-0.089048	-0.373537	0.568962
C141	C	-0.797789	-1.073059	-0.231416
C142	C	-0.547789	-0.823059	0.018584
C143	C	-0.297789	-0.573059	0.268584
C144	C	-0.047789	-0.323059	0.518584
C145	C	-0.797756	-1.159686	-0.144931
C146	C	-0.547756	-0.909686	0.105069
C147	C	-0.297756	-0.659686	0.355069
C148	C	-0.047756	-0.409686	0.605069
C149	C	-0.715212	-1.145356	-0.159205
C150	C	-0.465212	-0.895356	0.090795
C151	C	-0.215212	-0.645356	0.340795
C152	C	0.034788	-0.395356	0.590795
C153	C	-0.715245	-1.058728	-0.245690
C154	C	-0.465245	-0.808728	0.004310
C155	C	-0.215245	-0.558728	0.254310
C156	C	0.034755	-0.308728	0.504310
C157	C	-0.174598	-1.008457	-0.295976
C158	C	0.075402	-0.758457	-0.045976
C159	C	0.325402	-0.508457	0.204024
C160	C	0.575402	-0.258457	0.454024
C161	C	-0.086747	-0.993270	-0.311182
C162	C	0.163253	-0.743270	-0.061182
C163	C	0.413253	-0.493270	0.188818
C164	C	0.663253	-0.243270	0.438818
C165	C	-0.380770	-1.220644	-0.260313
C166	C	-0.130770	-0.970644	-0.010313
C167	C	0.119230	-0.720644	0.239687
C168	C	0.369230	-0.470644	0.489687
C169	C	-0.380776	-1.295877	-0.260321
C170	C	-0.130776	-1.045877	-0.010321
C171	C	0.119224	-0.795877	0.239679
C172	C	0.369224	-0.545877	0.489679
C173	C	-0.431366	-0.766441	-0.294738
C174	C	-0.181366	-0.516441	-0.044738
C175	C	0.068634	-0.266441	0.205262
C176	C	0.318634	-0.016441	0.455262
C177	C	-0.431367	-0.695753	-0.294747
C178	C	-0.181367	-0.445753	-0.044747
C179	C	0.068633	-0.195753	0.205253
C180	C	0.318633	0.054247	0.455253
C181	C	-0.380758	-0.651635	-0.260292
C182	C	-0.130758	-0.401635	-0.010292
C183	C	0.119242	-0.151635	0.239708
C184	C	0.369242	0.098365	0.489708
C185	C	-0.330137	-0.678208	-0.225832
C186	C	-0.080137	-0.428208	0.024168
C187	C	0.169863	-0.178208	0.274168
C188	C	0.419863	0.071792	0.524168
C189	C	-0.330133	-0.748894	-0.225827
C190	C	-0.080133	-0.498894	0.024173
C191	C	0.169867	-0.248894	0.274173
C192	C	0.419867	0.001106	0.524173
C193	C	-0.330155	-0.393138	-0.225851
C194	C	-0.080155	-0.143138	0.024149
C195	C	0.169845	0.106862	0.274149
C196	C	0.419845	0.356862	0.524149
C197	C	-0.330165	-0.322447	-0.225857
C198	C	-0.080165	-0.072447	0.024143
C199	C	0.169835	0.177553	0.274143
C200	C	0.419835	0.427553	0.524143
C201	C	-0.431390	-0.339996	-0.294771
C202	C	-0.181390	-0.089996	-0.044771
C203	C	0.068610	0.160004	0.205229
C204	C	0.318610	0.410004	0.455229
C205	C	-0.431385	-0.410683	-0.294767
C206	C	-0.181385	-0.160683	-0.044767
C207	C	0.068615	0.089317	0.205233
C208	C	0.318615	0.339317	0.455233
C209	C	-0.380762	-0.437249	-0.260309
C210	C	-0.130762	-0.187249	-0.010309
C211	C	0.119238	0.062751	0.239691
C212	C	0.369238	0.312751	0.489691
C213	C	-0.380760	-0.513897	-0.260301
C214	C	-0.130760	-0.263897	-0.010301
C215	C	0.119240	-0.013897	0.239699
C216	C	0.369240	0.236103	0.489699
C217	C	-0.380763	-0.574989	-0.260296
C218	C	-0.130763	-0.324989	-0.010296
C219	C	0.119237	-0.074989	0.239704
C220	C	0.369237	0.175011	0.489704
C221	C	-0.330115	-0.992108	-0.556171
C222	C	-0.080115	-0.742108	-0.306171
C223	C	0.169885	-0.492108	-0.056171
C224	C	0.419885	-0.242108	0.193829
C225	C	-0.330100	-0.992115	-0.626862
C226	C	-0.080100	-0.742115	-0.376862
C227	C	0.169900	-0.492115	-0.126862
C228	C	0.419900	-0.242115	0.123138
C229	C	-0.380642	-1.044144	-0.653463
C230	C	-0.130642	-0.794144	-0.403463
C231	C	0.119358	-0.544144	-0.153463
C232	C	0.369358	-0.294144	0.096537
C233	C	-0.431208	-1.096166	-0.609367
C234	C	-0.181208	-0.846166	-0.359367
C235	C	0.068792	-0.596166	-0.109367
C236	C	0.318792	-0.346166	0.140633
C237	C	-0.431227	-1.096156	-0.538677
C238	C	-0.181227	-0.846156	-0.288677
C239	C	0.068773	-0.596156	-0.038677
C240	C	0.318773	-0.346156	0.211323
C241	C	-0.431134	-1.096207	-0.894454
C242	C	-0.181134	-0.846207	-0.644454
C243	C	0.068866	-0.596207	-0.394454
C244	C	0.318866	-0.346207	-0.144454
C245	C	-0.431109	-1.096214	-0.965150
C246	C	-0.181109	-0.846214	-0.715150
C247	C	0.068891	-0.596214	-0.465150
C248	C	0.318891	-0.346214	-0.215150
C249	C	-0.330007	-0.992165	-0.982639
C250	C	-0.080007	-0.742165	-0.732639
C251	C	0.169993	-0.492165	-0.482639
C252	C	0.419993	-0.242165	-0.232639
C253	C	-0.330026	-0.992155	-0.911948
C254	C	-0.080026	-0.742155	-0.661948
C255	C	0.169974	-0.492155	-0.411948
C256	C	0.419974	-0.242155	-0.161948
C257	C	-0.380595	-1.044175	-0.867859
C258	C	-0.130595	-0.794175	-0.617859
C259	C	0.119405	-0.544175	-0.367859
C260	C	0.369405	-0.294175	-0.117859
C261	C	-0.380612	-1.044166	-0.791207
C262	C	-0.130612	-0.794166	-0.541207
C263	C	0.119388	-0.544166	-0.291207
C264	C	0.369388	-0.294166	-0.041207
C265	C	-0.380621	-1.044156	-0.730114
C266	C	-0.130621	-0.794156	-0.480114
C267	C	0.119379	-0.544156	-0.230114
C268	C	0.369379	-0.294156	0.019886
C269	C	-0.380752	-1.044107	-0.084437
C270	C	-0.130752	-0.794107	0.165563
C271	C	0.119248	-0.544107	0.415563
C272	C	0.369248	-0.294107	0.665563
C273	C	-0.380552	-1.044191	-0.009240
C274	C	-0.130552	-0.794191	0.240760
C275	C	0.119448	-0.544191	0.490760
C276	C	0.369448	-0.294191	0.740760
H277	H	-0.681655	-1.017628	-0.286721
H278	H	-0.431655	-0.767628	-0.036721
H279	H	-0.181655	-0.517628	0.213279
H280	H	0.068345	-0.267628	0.463279
H281	H	-0.288931	-0.949753	-0.662757
H282	H	-0.038931	-0.699753	-0.412757
H283	H	0.211069	-0.449753	-0.162757
H284	H	0.461069	-0.199753	0.087243
H285	H	-0.472364	-1.138526	-0.631031
H286	H	-0.222364	-0.888526	-0.381031
H287	H	0.027636	-0.638526	-0.131031
H288	H	0.277636	-0.388526	0.118969
H289	H	-0.472581	-0.802358	-0.322792
H290	H	-0.222581	-0.552358	-0.072792
H291	H	0.027419	-0.302358	0.177208
H292	H	0.277419	-0.052358	0.427208
H293	H	-0.472606	-0.318358	-0.322831
H294	H	-0.222606	-0.068358	-0.072831
H295	H	0.027394	0.181642	0.177169
H296	H	0.277394	0.431642	0.427169
H297	H	-0.681597	-1.174791	-0.129805
H298	H	-0.431597	-0.924791	0.120195
H299	H	-0.181597	-0.674791	0.370195
H300	H	0.068403	-0.424791	0.620195
H301	H	-0.472584	-0.674125	-0.322807
H302	H	-0.222584	-0.424125	-0.072807
H303	H	0.027416	-0.174125	0.177193
H304	H	0.277416	0.075875	0.427193
H305	H	-0.288913	-0.770524	-0.197771
H306	H	-0.038913	-0.520524	0.052229
H307	H	0.211087	-0.270524	0.302229
H308	H	0.461087	-0.020524	0.552229
H309	H	-0.472599	-0.446601	-0.322820
H310	H	-0.222599	-0.196601	-0.072820
H311	H	0.027401	0.053399	0.177180
H312	H	0.277401	0.303399	0.427180
H313	H	-0.929352	-0.887364	-0.416868
H314	H	-0.679352	-0.637364	-0.166868
H315	H	-0.429352	-0.387364	0.083132
H316	H	-0.179352	-0.137364	0.333132
H317	H	-0.288941	-0.414760	-0.197788
H318	H	-0.038941	-0.164760	0.052212
H319	H	0.211059	0.085240	0.302212
H320	H	0.461059	0.335240	0.552212
H321	H	-0.955193	-1.178962	-0.125738
H322	H	-0.705193	-0.928962	0.124262
H323	H	-0.455193	-0.678962	0.374262
H324	H	-0.205193	-0.428962	0.624262
H325	H	-0.288948	-0.286527	-0.197800
H326	H	-0.038948	-0.036527	0.052200
H327	H	0.211052	0.213473	0.302200
H328	H	0.461052	0.463473	0.552200
H329	H	-0.288954	-0.949743	-0.534519
H330	H	-0.038954	-0.699743	-0.284519
H331	H	0.211046	-0.449743	-0.034519
H332	H	0.461046	-0.199743	0.215481
H333	H	-0.288927	-0.642281	-0.197781
H334	H	-0.038927	-0.392281	0.052219
H335	H	0.211073	-0.142281	0.302219
H336	H	0.461073	0.107719	0.552219
H337	H	-0.288867	-0.949790	-0.890295
H338	H	-0.038867	-0.699790	-0.640295
H339	H	0.211133	-0.449790	-0.390295
H340	H	0.461133	-0.199790	-0.140295
H341	H	-0.288834	-0.949807	-1.018545
H342	H	-0.038834	-0.699807	-0.768545
H343	H	0.211166	-0.449807	-0.518545
H344	H	0.461166	-0.199807	-0.268545
H345	H	-0.472270	-1.138584	-0.986805
H346	H	-0.222270	-0.888584	-0.736805
H347	H	0.027730	-0.638584	-0.486805
H348	H	0.277730	-0.388584	-0.236805
H349	H	-0.831357	-1.200781	-0.103906
H350	H	-0.581357	-0.950781	0.146094
H351	H	-0.331357	-0.700781	0.396094
H352	H	-0.081357	-0.450781	0.646094
H353	H	-0.472392	-1.138519	-0.502780
H354	H	-0.222392	-0.888519	-0.252780
H355	H	0.027608	-0.638519	-0.002780
H356	H	0.277608	-0.388519	0.247220
H357	H	-0.730609	-0.974760	-0.329517
H358	H	-0.480609	-0.724760	-0.079517
H359	H	-0.230609	-0.474760	0.170483
H360	H	0.019391	-0.224760	0.420483
H361	H	-0.805523	-0.909182	-0.395039
H362	H	-0.555523	-0.659182	-0.145039
H363	H	-0.305523	-0.409182	0.104961
H364	H	-0.055523	-0.159182	0.354961
H365	H	-1.079104	-0.913371	-0.390966
H366	H	-0.829104	-0.663371	-0.140966
H367	H	-0.579104	-0.413371	0.109034
H368	H	-0.329104	-0.163371	0.359034
H369	H	-1.030092	-1.113383	-0.191245
H370	H	-0.780092	-0.863383	0.058755
H371	H	-0.530092	-0.613383	0.308755
H372	H	-0.280092	-0.363383	0.558755
H373	H	-1.079061	-1.070519	-0.234052
H374	H	-0.829061	-0.820519	0.015948
H375	H	-0.579061	-0.570519	0.265948
H376	H	-0.329061	-0.320519	0.515948
H377	H	-0.472319	-1.138558	-0.858562
H378	H	-0.222319	-0.888558	-0.608562
H379	H	0.027681	-0.638558	-0.358562
H380	H	0.277681	-0.388558	-0.108562
