data_functionalizedCrystal
_audit_creation_method	'MofGen! by Chris Wilmer'
_symmetry_space_group_name_H-M	'P1'
_symmetry_Int_Tables_number	1
_symmetry_cell_setting	triclinic
loop_
_symmetry_equiv_pos_as_xyz
  x,y,z
_cell_length_a	23.532407
_cell_length_b	10.723024
_cell_length_c	9.798715
_cell_angle_alpha	90.003391
_cell_angle_beta	89.992208
_cell_angle_gamma	96.341727
loop_
_atom_site_label
_atom_site_type_symbol
_atom_site_fract_x
_atom_site_fract_y
_atom_site_fract_z
O1	O	0.079871	-1.654699	-0.113498
O2	O	0.087516	-1.291309	-0.113504
O3	O	0.000833	-1.483962	-0.113476
O4	O	0.166554	-1.462046	-0.113526
O5	O	0.000833	-1.483948	0.113507
O6	O	0.087516	-1.291294	0.113478
O7	O	0.079871	-1.654685	0.113484
Zn8	Zn	0.083693	-1.472987	0.149520
Zn9	Zn	0.083693	-1.473006	-0.149539
O10	O	0.166554	-1.462032	0.113456
C11	C	0.086960	-1.244819	-0.000013
C12	C	0.085295	-1.106317	-0.000014
C13	C	-0.020387	-1.483397	0.000019
C14	C	-0.083615	-1.481719	0.000029
N15	N	0.083693	-1.472984	0.353619
C16	C	-0.482046	-1.585203	-0.000044
C17	C	-0.541457	-1.583644	-0.000054
O18	O	-0.577579	-1.679575	-0.000103
N19	N	-0.564826	-1.469112	-0.000055
C20	C	-0.528782	-1.356131	-0.000059
O21	O	-0.554114	-1.258569	-0.000062
C22	C	-0.469373	-1.357691	-0.000059
C23	C	-0.446007	-1.472230	-0.000044
C24	C	-0.458680	-1.699733	-0.000030
C25	C	-0.399274	-1.701291	-0.000017
C26	C	-0.363234	-1.588319	-0.000018
C27	C	-0.386600	-1.473789	-0.000031
C28	C	-0.433329	-1.244711	-0.000073
C29	C	-0.373917	-1.246281	-0.000073
C30	C	-0.350551	-1.360821	-0.000059
C31	C	-0.291154	-1.362374	-0.000018
N32	N	-0.267785	-1.476907	-0.000018
C33	C	-0.303825	-1.589879	-0.000017
C34	C	-0.653545	-1.352863	-0.000063
C35	C	-0.712953	-1.351302	-0.000054
C36	C	-0.725625	-1.578816	-0.000051
C37	C	-0.666215	-1.580376	-0.000051
C38	C	-0.630176	-1.467395	-0.000062
C39	C	-0.179067	-1.593143	0.000011
C40	C	-0.119655	-1.594691	0.000030
C41	C	-0.106989	-1.367178	0.000020
C42	C	-0.166396	-1.365629	0.000008
C43	C	-0.202434	-1.478622	-0.000001
O44	O	-0.254997	-1.266494	0.000025
O45	O	-0.278484	-1.687425	-0.000032
C46	C	0.187774	-1.462597	-0.000041
C47	C	0.251001	-1.464275	-0.000061
C48	C	0.080427	-1.701174	-0.000009
C49	C	0.082092	-1.839677	-0.000017
C50	C	0.133798	-1.029823	-0.000030
C51	C	0.132079	-0.886673	-0.000031
N52	N	0.083689	-1.473020	-0.353639
C53	C	0.047136	-1.553878	0.421408
C54	C	0.047134	-1.553899	0.578571
H55	H	-0.100634	-1.687967	0.000045
H56	H	-0.647195	-1.673644	-0.000040
N57	N	0.027085	-0.926722	0.000017
H58	H	-0.006510	-0.875684	0.000029
H59	H	0.025505	-0.981396	-0.084126
H60	H	-0.380255	-1.794561	-0.000011
H61	H	0.042497	-1.065828	-0.000036
N62	N	0.190492	-1.083443	-0.000059
H63	H	0.222625	-1.012728	-0.000071
H64	H	0.193368	-1.136771	0.084086
N65	N	0.005664	-1.645573	0.344181
H66	H	0.011538	-1.632548	0.242855
H67	H	0.012475	-1.734109	0.369046
H68	H	0.114986	-1.403737	0.411934
H69	H	0.015839	-1.623161	0.636866
N70	N	0.125152	-1.381268	0.569174
H71	H	0.150476	-1.428844	0.509870
H72	H	0.103174	-1.326209	0.509985
H73	H	-0.754979	-1.670804	-0.000056
N74	N	-0.217931	-1.715010	0.000002
H75	H	-0.194106	-1.787792	0.000015
H76	H	-0.242863	-1.719317	0.084144
N77	N	-0.614676	-1.230998	-0.000064
H78	H	-0.638500	-1.158214	-0.000062
H79	H	-0.589756	-1.226680	0.084083
N80	N	-0.497546	-1.821592	-0.000028
H81	H	-0.473720	-1.894371	-0.000019
H82	H	-0.522474	-1.825897	0.084121
H83	H	0.173602	-0.820947	-0.000050
H84	H	-0.077635	-1.275199	0.000024
N85	N	-0.738146	-1.227756	-0.000038
H86	H	-0.725027	-1.178300	-0.084178
H87	H	-0.781246	-1.243994	0.000010
N88	N	-0.458513	-1.121161	-0.000080
H89	H	-0.445392	-1.071718	-0.084226
H90	H	-0.501614	-1.137386	-0.000028
N91	N	-0.335046	-1.124421	-0.000093
H92	H	-0.358867	-1.051633	-0.000103
H93	H	-0.310127	-1.120097	0.084056
H94	H	-0.185421	-1.272361	0.000034
