data_functionalizedCrystal
_audit_creation_method	'MofGen! by Chris Wilmer'
_symmetry_space_group_name_H-M	'P1'
_symmetry_Int_Tables_number	1
_symmetry_cell_setting	triclinic
loop_
_symmetry_equiv_pos_as_xyz
  x,y,z
_cell_length_a	21.395362
_cell_length_b	16.120484
_cell_length_c	21.395355
_cell_angle_alpha	92.880721
_cell_angle_beta	89.956060
_cell_angle_gamma	92.942400
loop_
_atom_site_label
_atom_site_type_symbol
_atom_site_fract_x
_atom_site_fract_y
_atom_site_fract_z
Zn1	Zn	0.945244	-0.331659	-0.367215
Zn2	Zn	0.939845	-0.471058	-0.267746
Zn3	Zn	0.840458	-0.331698	-0.262418
Zn4	Zn	0.835126	-0.471075	-0.372451
O5	O	0.890168	-0.401372	-0.317458
O6	O	1.032207	-0.350127	-0.354059
O7	O	0.926633	-0.452580	-0.179362
O8	O	0.858849	-0.215024	-0.271898
O9	O	1.028240	-0.452543	-0.280979
O10	O	0.935836	-0.214995	-0.348892
O11	O	0.853614	-0.350193	-0.175447
O12	O	0.752072	-0.350210	-0.276976
O13	O	0.849761	-0.452572	-0.459434
O14	O	0.748154	-0.452609	-0.357817
O15	O	0.930665	-0.350144	-0.455587
O16	O	0.921462	-0.587728	-0.286057
O17	O	0.844526	-0.587741	-0.362983
C18	C	0.727379	-0.401416	-0.317387
C19	C	0.657736	-0.401455	-0.317372
C20	C	0.622997	-0.454845	-0.359409
C21	C	0.557562	-0.454825	-0.359436
C22	C	0.526869	-0.401423	-0.317415
C23	C	0.561617	-0.348022	-0.275375
C24	C	0.627050	-0.348039	-0.275354
C25	C	0.423400	-0.394707	-0.260754
C26	C	0.357967	-0.394696	-0.260775
C27	C	0.325050	-0.401369	-0.317482
C28	C	0.357574	-0.408069	-0.374171
C29	C	0.423007	-0.408085	-0.374149
C30	C	0.455918	-0.401399	-0.317434
C31	C	0.219359	-0.454740	-0.359552
C32	C	0.153924	-0.454713	-0.359580
C33	C	0.157979	-0.347915	-0.275514
C34	C	0.223414	-0.347937	-0.275492
C35	C	0.254100	-0.401354	-0.317510
C36	C	0.881846	-0.617986	-0.325680
C37	C	0.878344	-0.710654	-0.329218
C38	C	0.871952	-0.880320	-0.335692
C39	C	0.908497	-0.921584	-0.299234
C40	C	0.904940	-1.015992	-0.302836
C41	C	0.875507	-0.785903	-0.332091
C42	C	1.053593	-0.401328	-0.317529
C43	C	1.123235	-0.401310	-0.317560
C44	C	0.890221	-0.401355	-0.480880
C45	C	0.890243	-0.401348	-0.550521
C46	C	0.898540	-0.183913	-0.309217
C47	C	0.902107	-0.091245	-0.305705
C48	C	0.932368	-0.348011	-0.581232
C49	C	0.932369	-0.347976	-0.646666
C50	C	0.890250	-0.401291	-0.681388
C51	C	0.848117	-0.454632	-0.650669
C52	C	0.848114	-0.454660	-0.585236
C53	C	0.882419	-0.476362	-0.787910
C54	C	0.882427	-0.476335	-0.853342
C55	C	0.890258	-0.401203	-0.883205
C56	C	0.898094	-0.326096	-0.847628
C57	C	0.898090	-0.326124	-0.782195
C58	C	0.890249	-0.401266	-0.752339
C59	C	0.932385	-0.347823	-0.984867
C60	C	0.932382	-0.347786	-1.050302
C61	C	0.848133	-0.454449	-1.054304
C62	C	0.848134	-0.454479	-0.988870
C63	C	0.890263	-0.401167	-0.954155
C64	C	0.890154	-0.401329	-0.154668
C65	C	0.890262	-0.401101	-0.085019
H66	H	0.330774	-0.413500	-0.420348
H67	H	0.876050	-0.537492	-0.882304
H68	H	0.837996	-0.915892	-0.369606
H69	H	0.244345	-0.498230	-0.393769
H70	H	0.966673	-0.304600	-0.552972
H71	H	0.942454	-0.886009	-0.265316
H72	H	0.966671	-0.304538	-0.671676
H73	H	0.904469	-0.264969	-0.753231
H74	H	0.251699	-0.304465	-0.241258
H75	H	0.813835	-0.497917	-0.963865
H76	H	0.875875	-0.537528	-0.763601
H77	H	0.904471	-0.264916	-0.871941
H78	H	0.125640	-0.498188	-0.393815
H79	H	0.536622	-0.304541	-0.241163
H80	H	0.966686	-0.304409	-0.956601
H81	H	0.647977	-0.498340	-0.393624
H82	H	0.966684	-0.304348	-1.075305
H83	H	0.132990	-0.304430	-0.241303
H84	H	0.813808	-0.498092	-0.560232
H85	H	0.529272	-0.498301	-0.393669
H86	H	0.449485	-0.413538	-0.420307
H87	H	0.813834	-0.497852	-1.082573
H88	H	0.813823	-0.498039	-0.678943
H89	H	0.331492	-0.389246	-0.214616
H90	H	0.655335	-0.304559	-0.241122
H91	H	0.450195	-0.389270	-0.214573
