data_functionalizedCrystal
_audit_creation_method	'MofGen! by Chris Wilmer'
_symmetry_space_group_name_H-M	'P1'
_symmetry_Int_Tables_number	1
_symmetry_cell_setting	triclinic
loop_
_symmetry_equiv_pos_as_xyz
  x,y,z
_cell_length_a	19.805407
_cell_length_b	12.827892
_cell_length_c	19.805399
_cell_angle_alpha	89.975874
_cell_angle_beta	89.983114
_cell_angle_gamma	90.015392
loop_
_atom_site_label
_atom_site_type_symbol
_atom_site_fract_x
_atom_site_fract_y
_atom_site_fract_z
Zn1	Zn	1.034770	-0.416043	-0.382743
Zn2	Zn	1.534770	0.083957	0.117257
Zn3	Zn	1.034711	-0.590802	-0.269564
Zn4	Zn	1.534711	-0.090802	0.230436
Zn5	Zn	0.921590	-0.416076	-0.269567
Zn6	Zn	1.421590	0.083924	0.230433
Zn7	Zn	0.921569	-0.590742	-0.382711
Zn8	Zn	1.421569	-0.090742	0.117289
O9	O	0.978160	-0.503416	-0.326146
O10	O	1.478160	-0.003416	0.173854
O11	O	1.129478	-0.439236	-0.367741
O12	O	1.629478	0.060764	0.132259
O13	O	1.019690	-0.567663	-0.174848
O14	O	1.519690	-0.067663	0.325152
O15	O	0.936636	-0.269835	-0.284595
O16	O	1.436636	0.230165	0.215405
O17	O	1.129436	-0.567631	-0.284589
O18	O	1.629436	-0.067631	0.215411
O19	O	1.019789	-0.269811	-0.367744
O20	O	1.519789	0.230189	0.132256
O21	O	0.936579	-0.439293	-0.174850
O22	O	1.436579	0.060707	0.325150
O23	O	0.826870	-0.439235	-0.284564
O24	O	1.326870	0.060765	0.215436
O25	O	0.936602	-0.567529	-0.477431
O26	O	1.436602	-0.067529	0.022569
O27	O	0.826856	-0.567561	-0.367690
O28	O	1.326856	-0.067561	0.132310
O29	O	1.019769	-0.439178	-0.477455
O30	O	1.519769	0.060822	0.022545
O31	O	1.019670	-0.737030	-0.284558
O32	O	1.519670	-0.237030	0.215442
O33	O	0.936545	-0.736986	-0.367687
O34	O	1.436545	-0.236986	0.132313
C35	C	0.802304	-0.503396	-0.326124
C36	C	1.302304	-0.003396	0.173876
C37	C	0.727072	-0.503412	-0.326131
C38	C	1.227072	-0.003412	0.173869
C39	C	0.691738	-0.570333	-0.369345
C40	C	1.191738	-0.070333	0.130655
C41	C	0.621049	-0.570335	-0.369354
C42	C	1.121049	-0.070335	0.130646
C43	C	0.585696	-0.503421	-0.326146
C44	C	1.085696	-0.003421	0.173854
C45	C	0.621035	-0.436493	-0.282930
C46	C	1.121035	0.063507	0.217070
C47	C	0.691723	-0.436487	-0.282925
C48	C	1.191723	0.063513	0.217075
C49	C	0.335962	-0.436516	-0.282953
C50	C	0.835962	0.063484	0.217047
C51	C	0.265270	-0.436530	-0.282960
C52	C	0.765270	0.063470	0.217040
C53	C	0.265289	-0.570364	-0.369382
C54	C	0.765289	-0.070364	0.130618
C55	C	0.335976	-0.570358	-0.369376
C56	C	0.835976	-0.070358	0.130624
C57	C	0.371309	-0.503427	-0.326164
C58	C	0.871309	-0.003427	0.173836
C59	C	0.447957	-0.503424	-0.326155
C60	C	0.947957	-0.003424	0.173845
C61	C	0.509049	-0.503428	-0.326151
C62	C	1.009049	-0.003428	0.173849
C63	C	0.978118	-0.774926	-0.326134
C64	C	1.478118	-0.274926	0.173866
C65	C	0.978161	-0.891079	-0.326151
C66	C	1.478161	-0.391079	0.173849
C67	C	1.019290	-0.942768	-0.367333
C68	C	1.519290	-0.442768	0.132667
C69	C	1.019336	-1.062818	-0.367352
C70	C	1.519336	-0.562818	0.132648
C71	C	1.154703	-0.503437	-0.326168
C72	C	1.654703	-0.003437	0.173832
C73	C	1.229935	-0.503446	-0.326178
C74	C	1.729935	-0.003446	0.173822
C75	C	0.978190	-0.503343	-0.502689
C76	C	1.478190	-0.003343	-0.002689
C77	C	0.978202	-0.503312	-0.577921
C78	C	1.478202	-0.003312	-0.077921
C79	C	0.978221	-0.230846	-0.326173
C80	C	1.478221	0.269154	0.173827
C81	C	0.978247	-0.114693	-0.326185
C82	C	1.478247	0.385307	0.173815
C83	C	0.934939	-0.436463	-0.613266
C84	C	1.434939	0.063537	-0.113266
C85	C	0.934948	-0.436443	-0.683954
C86	C	1.434948	0.063557	-0.183954
C87	C	0.978225	-0.503267	-0.719297
C88	C	1.478225	-0.003267	-0.219297
C89	C	1.021490	-0.570124	-0.683947
C90	C	1.521490	-0.070124	-0.183947
C91	C	1.021477	-0.570148	-0.613260
C92	C	1.521477	-0.070148	-0.113260
C93	C	1.021544	-0.570026	-0.969020
C94	C	1.521544	-0.070026	-0.469020
C95	C	1.021555	-0.569994	-1.039712
C96	C	1.521555	-0.069994	-0.539712
C97	C	0.935015	-0.436321	-1.039715
C98	C	1.435015	0.063679	-0.539715
C99	C	0.935002	-0.436345	-0.969028
C100	C	1.435002	0.063655	-0.469028
C101	C	0.978264	-0.503205	-0.933684
C102	C	1.478264	-0.003205	-0.433684
C103	C	0.978253	-0.503228	-0.857036
C104	C	1.478253	-0.003228	-0.357036
C105	C	0.978240	-0.503240	-0.795944
C106	C	1.478240	-0.003240	-0.295944
C107	C	0.978169	-0.503413	-0.150290
C108	C	1.478169	-0.003413	0.349710
C109	C	0.978288	-0.503149	-0.075058
C110	C	1.478288	-0.003149	0.424942
H111	H	0.720517	-0.624826	-0.404527
H112	H	1.220517	-0.124826	0.095473
F113	F	0.888944	-0.365218	-0.931418
F114	F	1.388944	0.134782	-0.431418
F115	F	0.373598	-0.641581	-0.415362
F116	F	0.873598	-0.141581	0.084638
F117	F	1.065365	-1.120917	-0.413434
F118	F	1.565365	-0.620917	0.086566
H119	H	0.899787	-0.381883	-1.068500
H120	H	1.399787	0.118117	-0.568500
F121	F	0.932223	-1.056601	-0.280094
F122	F	1.432223	-0.556601	0.219906
F123	F	1.067617	-0.641122	-1.077325
F124	F	1.567617	-0.141122	-0.577325
H125	H	0.592245	-0.382006	-0.247753
H126	H	1.092245	0.117994	0.252247
H127	H	1.056763	-0.624478	-0.940252
H128	H	1.556763	-0.124478	-0.440252
H129	H	1.056723	-0.624538	-0.712728
H130	H	1.556723	-0.124538	-0.212728
H131	H	0.942981	-0.935702	-0.290911
H132	H	1.442981	-0.435702	0.209089
H133	H	0.899717	-0.382012	-0.712729
H134	H	1.399717	0.117988	-0.212729
F135	F	0.888881	-0.365334	-0.575658
F136	F	1.388881	0.134666	-0.075658
H137	H	0.592284	-0.624829	-0.404542
H138	H	1.092284	-0.124829	0.095458
F139	F	0.227680	-0.641598	-0.415374
F140	F	0.727680	-0.141598	0.084626
F141	F	0.227646	-0.365306	-0.236971
F142	F	0.727646	0.134694	0.263029
H143	H	0.364722	-0.382024	-0.247761
H144	H	0.864722	0.117976	0.252239
F145	F	0.729327	-0.365259	-0.236932
F146	F	1.229327	0.134741	0.263068
F147	F	1.065265	-0.884447	-0.413406
F148	F	1.565265	-0.384447	0.086594
F149	F	1.067521	-0.641302	-0.575643
F150	F	1.567521	-0.141302	-0.075643
