data_functionalizedCrystal
_audit_creation_method	'MofGen! by Chris Wilmer'
_symmetry_space_group_name_H-M	'P1'
_symmetry_Int_Tables_number	1
_symmetry_cell_setting	triclinic
loop_
_symmetry_equiv_pos_as_xyz
  x,y,z
_cell_length_a	14.971482
_cell_length_b	15.995292
_cell_length_c	13.448316
_cell_angle_alpha	89.996588
_cell_angle_beta	89.993798
_cell_angle_gamma	83.540612
loop_
_atom_site_label
_atom_site_type_symbol
_atom_site_fract_x
_atom_site_fract_y
_atom_site_fract_z
O1	O	1.186800	0.109105	-0.082672
O2	O	0.926382	0.122175	-0.082676
O3	O	1.063737	-0.006244	-0.082675
O4	O	1.049445	0.237524	-0.082672
O5	O	1.063720	-0.006252	0.082709
O6	O	0.926365	0.122167	0.082708
O7	O	1.186783	0.109097	0.082712
Cu8	Cu	1.056572	0.115631	0.097811
Cu9	Cu	1.056593	0.115641	-0.097775
O10	O	1.049428	0.237516	0.082711
C11	C	0.893049	0.121587	0.000016
C12	C	0.793755	0.119837	0.000014
C13	C	0.747102	0.119009	0.090166
C14	C	0.653805	0.117351	0.090167
C15	C	0.607163	0.116528	0.000015
C16	C	0.653823	0.117354	-0.090144
C17	C	0.747118	0.119006	-0.090144
C18	C	0.459366	0.113913	-0.090138
C19	C	0.366064	0.112263	-0.090138
C20	C	0.366053	0.112259	0.090173
C21	C	0.459348	0.113910	0.090173
C22	C	0.506001	0.114738	0.000014
C23	C	1.063147	-0.037444	0.000014
C24	C	1.061403	-0.130399	0.000007
C25	C	1.054992	-0.468144	0.000016
C26	C	1.154131	-0.444733	0.000387
C27	C	1.156016	-0.348056	0.000010
C28	C	1.058173	-0.300585	0.000012
C29	C	1.008618	-0.329730	-0.094428
C30	C	1.007425	-0.426522	-0.094504
C31	C	1.005381	-0.426390	0.093569
C32	C	1.009054	-0.329894	0.094813
C33	C	1.059966	-0.205887	0.000006
C34	C	1.053197	-0.562841	0.000015
C35	C	1.220116	0.109685	0.000019
C36	C	1.319411	0.111435	0.000014
C37	C	1.050018	0.268716	0.000020
C38	C	1.051762	0.361671	0.000021
N39	N	1.056565	0.115624	0.235375
N40	N	1.056608	0.115641	-0.235339
C41	C	1.117404	0.058784	0.287416
C42	C	1.117410	0.058783	0.391519
C43	C	1.056579	0.115627	0.443580
C44	C	0.995733	0.172471	0.391532
C45	C	0.995724	0.172467	0.287431
C46	C	0.995758	0.172476	0.608512
C47	C	0.995768	0.172482	0.712620
C48	C	1.117444	0.058792	0.712600
C49	C	1.117435	0.058788	0.608499
C50	C	1.056589	0.115633	0.556458
H51	H	0.615840	0.116678	-0.163547
H52	H	0.946208	0.218763	0.566144
H53	H	0.936619	-0.297933	-0.097938
H54	H	1.045138	-0.311296	0.164679
C55	C	0.798441	0.119920	-0.189312
C56	C	0.795798	0.047043	-0.263688
C57	C	0.847120	0.047953	-0.362858
C58	C	0.901087	0.121739	-0.387653
C59	C	0.903732	0.194622	-0.313275
C60	C	0.852409	0.193712	-0.214104
H61	H	0.755847	-0.007583	-0.245335
H62	H	0.845162	-0.006000	-0.417918
H63	H	0.939079	0.122413	-0.461064
H64	H	0.943683	0.249248	-0.331627
H65	H	0.854368	0.247665	-0.159045
C66	C	0.928801	0.234994	0.230183
C67	C	0.861919	0.297552	0.287444
C68	C	0.794990	0.360079	0.230198
C69	C	0.794943	0.360048	0.115690
C70	C	0.861827	0.297487	0.058423
C71	C	0.928756	0.234961	0.115669
H72	H	0.861952	0.297577	0.372215
H73	H	0.745478	0.406390	0.272592
H74	H	0.745398	0.406334	0.073313
H75	H	0.861794	0.297462	-0.026348
H76	H	0.978268	0.188650	0.073275
C77	C	1.184320	-0.003748	0.230154
C78	C	1.149385	-0.067842	0.158603
C79	C	1.216301	-0.130378	0.101346
C80	C	1.318152	-0.128819	0.115639
C81	C	1.353092	-0.064723	0.187193
C82	C	1.286176	-0.002187	0.244451
H83	H	1.073984	-0.068998	0.148020
H84	H	1.190435	-0.177826	0.048376
H85	H	1.367687	-0.175112	0.073253
H86	H	1.428493	-0.063567	0.197777
H87	H	1.312042	0.045261	0.297420
C88	C	1.053814	-0.462707	-0.189868
C89	C	1.091684	-0.403500	-0.265425
C90	C	1.138076	-0.439680	-0.360791
C91	C	1.146598	-0.535067	-0.380599
C92	C	1.108727	-0.594280	-0.305040
C93	C	1.062335	-0.558100	-0.209674
H94	H	1.085376	-0.332883	-0.250764
H95	H	1.166110	-0.395846	-0.416724
H96	H	1.180940	-0.561850	-0.451194
H97	H	1.115035	-0.664897	-0.319701
H98	H	1.034300	-0.601934	-0.153741
H99	H	0.934735	-0.441144	-0.098781
C100	C	0.602493	0.116437	0.189339
C101	C	0.605133	0.189315	0.263714
C102	C	0.553824	0.188396	0.362893
C103	C	0.499874	0.114600	0.387696
C104	C	0.497232	0.041717	0.313318
C105	C	0.548541	0.042635	0.214140
H106	H	0.645072	0.243948	0.245355
H107	H	0.555781	0.242350	0.417951
H108	H	0.461892	0.113921	0.461113
H109	H	0.457293	-0.012916	0.331677
H110	H	0.546584	-0.011318	0.159081
H111	H	1.194826	-0.328996	0.067707
H112	H	0.785070	0.119686	0.163578
H113	H	0.946199	0.218752	0.433926
H114	H	0.497348	0.114588	-0.163555
C115	C	1.184347	-0.003738	0.551227
C116	C	1.182877	-0.099093	0.565543
C117	C	1.249788	-0.161622	0.508269
C118	C	1.318169	-0.128795	0.436679
C119	C	1.319643	-0.033436	0.422360
C120	C	1.252732	0.029093	0.479634
H121	H	1.132255	-0.123397	0.618541
H122	H	1.248697	-0.232213	0.518870
H123	H	1.367701	-0.175083	0.394282
H124	H	1.370265	-0.009132	0.369362
H125	H	1.253822	0.099684	0.469033
H126	H	0.497321	0.114586	0.163583
H127	H	0.932407	-0.440453	0.094206
H128	H	0.328063	0.111585	0.163584
C129	C	1.205759	-0.482521	0.091869
C130	C	1.158533	-0.535100	0.167359
C131	C	1.210163	-0.572898	0.258841
C132	C	1.309018	-0.558118	0.274834
C133	C	1.356250	-0.505537	0.199342
C134	C	1.304620	-0.467738	0.107860
H135	H	1.085349	-0.546043	0.155522
H136	H	1.175199	-0.611822	0.314726
H137	H	1.347238	-0.586098	0.342555
H138	H	1.429433	-0.494593	0.211179
H139	H	1.339584	-0.428814	0.051976
H140	H	0.328090	0.111594	-0.163547
C141	C	0.912574	-0.285455	0.102527
C142	C	0.876538	-0.221491	0.022518
C143	C	0.780054	-0.177051	0.030224
C144	C	0.719604	-0.196575	0.117938
C145	C	0.755639	-0.260542	0.197954
C146	C	0.852123	-0.304982	0.190248
H147	H	0.921287	-0.207035	-0.042419
H148	H	0.753379	-0.129698	-0.029009
H149	H	0.648181	-0.163677	0.123643
H150	H	0.710890	-0.274997	0.262891
H151	H	0.878798	-0.352334	0.249481
C152	C	1.184371	-0.003740	0.769843
C153	C	1.184378	-0.003742	0.884351
C154	C	1.251305	-0.066268	0.941600
C155	C	1.318225	-0.128792	0.884342
C156	C	1.318220	-0.128793	0.769828
C157	C	1.251293	-0.066267	0.712579
H158	H	1.134838	0.042545	0.926742
H159	H	1.251309	-0.066267	1.026371
H160	H	1.367768	-0.175078	0.926722
H161	H	1.367760	-0.175080	0.727437
H162	H	1.251289	-0.066268	0.627808
H163	H	1.192139	-0.473710	-0.066959
H164	H	1.043045	-0.309632	-0.164711
H165	H	1.195069	-0.329609	-0.067805
C166	C	1.047269	-0.464511	0.190306
C167	C	1.147045	-0.458330	0.213446
C168	C	1.188918	-0.496448	0.310192
C169	C	1.131014	-0.540746	0.383798
C170	C	1.031231	-0.546928	0.360661
C171	C	0.989359	-0.508810	0.263915
H172	H	1.189915	-0.425537	0.158956
H173	H	1.262784	-0.491872	0.327319
H174	H	1.162010	-0.568963	0.455415
H175	H	0.988362	-0.579721	0.415150
H176	H	0.915493	-0.513387	0.246787
H177	H	0.946233	0.218770	0.755003
H178	H	1.166949	0.012498	0.433890
