data_functionalizedCrystal
_audit_creation_method	'MofGen! by Chris Wilmer'
_symmetry_space_group_name_H-M	'P1'
_symmetry_Int_Tables_number	1
_symmetry_cell_setting	triclinic
loop_
_symmetry_equiv_pos_as_xyz
  x,y,z
_cell_length_a	17.699083
_cell_length_b	16.176319
_cell_length_c	17.699082
_cell_angle_alpha	89.998487
_cell_angle_beta	83.282748
_cell_angle_gamma	90.000480
loop_
_atom_site_label
_atom_site_type_symbol
_atom_site_fract_x
_atom_site_fract_y
_atom_site_fract_z
O1	O	-1.004077	0.068619	-0.095710
O2	O	-0.504077	0.568619	0.404290
O3	O	-0.783699	0.068647	-0.108162
O4	O	-0.283699	0.568647	0.391838
O5	O	-0.900115	0.068631	0.008253
O6	O	-0.400115	0.568631	0.508253
O7	O	-0.887661	0.068635	-0.212125
O8	O	-0.387661	0.568635	0.287875
O9	O	-0.900101	-0.068862	0.008254
O10	O	-0.400101	0.431138	0.508254
O11	O	-0.783685	-0.068846	-0.108162
O12	O	-0.283685	0.431154	0.391838
O13	O	-1.004064	-0.068874	-0.095709
O14	O	-0.504064	0.431126	0.404291
Cu15	Cu	-0.893873	-0.081414	-0.101936
Cu16	Cu	-0.393873	0.418586	0.398064
Cu17	Cu	-0.893889	0.081187	-0.101936
Cu18	Cu	-0.393889	0.581187	0.398064
O19	O	-0.887648	-0.068858	-0.212125
O20	O	-0.387648	0.431142	0.287875
C21	C	-0.755495	-0.000096	-0.107716
C22	C	-0.255495	0.499904	0.392284
C23	C	-0.671477	-0.000085	-0.106377
C24	C	-0.171477	0.499915	0.393623
N25	N	-0.893867	-0.195780	-0.101935
N26	N	-0.393867	0.304220	0.398065
C27	C	-0.622856	-0.000083	-0.174711
C28	C	-0.122856	0.499917	0.325289
C29	C	-0.543912	-0.000093	-0.173448
C30	C	-0.043912	0.499907	0.326552
C31	C	-0.513592	-0.000099	-0.103852
C32	C	-0.013592	0.499901	0.396148
C33	C	-0.562219	-0.000103	-0.035513
C34	C	-0.062219	0.499897	0.464487
C35	C	-0.641161	-0.000099	-0.036776
C36	C	-0.141161	0.499901	0.463224
C37	C	-0.243856	-0.000121	-0.030418
C38	C	0.256144	0.499879	0.469582
C39	C	-0.164908	-0.000122	-0.029160
C40	C	0.335092	0.499878	0.470840
C41	C	-0.146607	-0.000115	-0.167090
C42	C	0.353393	0.499885	0.332910
C43	C	-0.225549	-0.000111	-0.168353
C44	C	0.274451	0.499889	0.331647
C45	C	-0.274170	-0.000119	-0.100015
C46	C	0.225830	0.499881	0.399985
C47	C	-0.359769	-0.000110	-0.101384
C48	C	0.140231	0.499890	0.398616
C49	C	-0.427994	-0.000102	-0.102482
C50	C	0.072006	0.499898	0.397518
C51	C	-0.032267	-0.000128	-0.096156
C52	C	0.467733	0.499872	0.403844
C53	C	-0.116285	-0.000127	-0.097494
C54	C	0.383715	0.499873	0.402506
C55	C	-0.939682	-0.239045	-0.147783
C56	C	-0.439682	0.260955	0.352217
C57	C	-0.939690	-0.325593	-0.147781
C58	C	-0.439690	0.174407	0.352219
C59	C	-0.893879	-0.368872	-0.101933
C60	C	-0.393879	0.131128	0.398067
C61	C	-0.848062	-0.325600	-0.056079
C62	C	-0.348062	0.174400	0.443921
C63	C	-0.848059	-0.239055	-0.056078
C64	C	-0.348059	0.260945	0.443922
C65	C	-0.848076	-0.674628	-0.056080
C66	C	-0.348076	-0.174628	0.443920
C67	C	-0.848082	-0.761180	-0.056085
C68	C	-0.348082	-0.261180	0.443915
C69	C	-0.939708	-0.761166	-0.147782
C70	C	-0.439708	-0.261166	0.352218
C71	C	-0.939704	-0.674621	-0.147782
C72	C	-0.439704	-0.174621	0.352218
C73	C	-0.893891	-0.631356	-0.101925
C74	C	-0.393891	-0.131356	0.398075
C75	C	-0.893884	-0.537512	-0.101928
C76	C	-0.393884	-0.037512	0.398072
C77	C	-0.893881	-0.462715	-0.101934
C78	C	-0.393881	0.037285	0.398066
N79	N	-0.893901	0.195553	-0.101931
N80	N	-0.393901	0.695553	0.398069
C81	C	-0.888100	-0.000111	-0.240322
C82	C	-0.388100	0.499889	0.259678
C83	C	-0.889439	-0.000110	-0.324340
C84	C	-0.389439	0.499890	0.175660
C85	C	-0.890075	0.074838	-0.363809
C86	C	-0.390075	0.574838	0.136191
C87	C	-0.891343	0.074839	-0.442752
C88	C	-0.391343	0.574839	0.057248
C89	C	-0.891967	-0.000109	-0.482225
C90	C	-0.391967	0.499891	0.017775
C91	C	-0.891333	-0.075063	-0.442750
C92	C	-0.391333	0.424937	0.057250
C93	C	-0.890071	-0.075063	-0.363808
C94	C	-0.390071	0.424937	0.136192
C95	C	-0.896422	-0.075065	-0.761114
C96	C	-0.396422	0.424935	-0.261114
C97	C	-0.897681	-0.075059	-0.840061
C98	C	-0.397681	0.424941	-0.340061
C99	C	-0.897693	0.074838	-0.840058
C100	C	-0.397693	0.574838	-0.340058
C101	C	-0.896432	0.074838	-0.761116
C102	C	-0.396432	0.574838	-0.261116
C103	C	-0.895801	-0.000116	-0.721647
C104	C	-0.395801	0.499884	-0.221647
C105	C	-0.894429	-0.000116	-0.636048
C106	C	-0.394429	0.499884	-0.136048
C107	C	-0.893334	-0.000110	-0.567823
C108	C	-0.393334	0.499890	-0.067823
C109	C	-0.899662	-0.000114	0.036451
C110	C	-0.399662	0.499886	0.536451
C111	C	-0.898324	-0.000110	0.120469
C112	C	-0.398324	0.499890	0.620469
H113	H	-0.647536	-0.000078	-0.231384
H114	H	-0.147536	0.499922	0.268616
H115	H	-0.895909	-0.136097	-0.728987
H116	H	-0.395909	0.363903	-0.228987
N117	N	-0.256532	-0.000118	-0.239438
N118	N	0.243468	0.499882	0.260562
N119	N	-0.327017	-0.000120	-0.240555
N120	N	0.172983	0.499880	0.259445
H121	H	-0.348899	-0.000129	-0.290759
H122	H	0.151101	0.499871	0.209241
N123	N	-0.892005	0.151399	-0.483064
N124	N	-0.392005	0.651399	0.016936
N125	N	-0.945197	0.201578	-0.467166
N126	N	-0.445197	0.701578	0.032834
H127	H	-0.945667	0.255653	-0.495635
H128	H	-0.445667	0.755653	0.004365
H129	H	-0.107011	-0.000113	-0.222734
H130	H	0.392989	0.499887	0.277266
N131	N	-0.898363	0.151403	-0.880373
N132	N	-0.398363	0.651403	-0.380373
N133	N	-0.951558	0.201579	-0.864476
N134	N	-0.451558	0.701579	-0.364476
H135	H	-0.952032	0.255652	-0.892947
H136	H	-0.452032	0.755652	-0.392947
N137	N	-0.494258	-0.000096	-0.243257
N138	N	0.005742	0.499904	0.256743
N139	N	-0.521339	-0.000087	-0.305391
N140	N	-0.021339	0.499913	0.194609
H141	H	-0.486271	-0.000091	-0.354697
H142	H	0.013729	0.499909	0.145303
N143	N	-0.898341	-0.151622	-0.880380
N144	N	-0.398341	0.348378	-0.380380
N145	N	-0.952375	-0.168341	-0.917354
N146	N	-0.452375	0.331659	-0.417354
H147	H	-0.952842	-0.222411	-0.945829
H148	H	-0.452842	0.277589	-0.445829
H149	H	-0.810773	-0.639413	-0.018740
H150	H	-0.310773	-0.139413	0.481260
N151	N	-0.986524	-0.805362	-0.194607
N152	N	-0.486524	-0.305362	0.305393
N153	N	-1.057071	-0.795691	-0.185458
N154	N	-0.557071	-0.295691	0.314542
H155	H	-1.090133	-0.826903	-0.218527
H156	H	-0.590133	-0.326903	0.281473
H157	H	-0.810752	-0.203829	-0.018743
H158	H	-0.310752	0.296171	0.481257
N159	N	-0.986493	-0.194849	-0.194608
N160	N	-0.486493	0.305151	0.305392
N161	N	-1.057040	-0.204517	-0.185448
N162	N	-0.557040	0.295483	0.314552
H163	H	-1.090106	-0.173304	-0.218515
H164	H	-0.590106	0.326696	0.281485
H165	H	-0.810775	-0.796416	-0.018748
H166	H	-0.310775	-0.296416	0.481252
H167	H	-0.891846	-0.136088	-0.474894
H168	H	-0.391846	0.363912	0.025106
N169	N	-0.895786	0.151403	-0.720809
N170	N	-0.395786	0.651403	-0.220809
N171	N	-0.896356	0.218318	-0.756059
N172	N	-0.396356	0.718318	-0.256059
H173	H	-0.895901	0.272395	-0.727594
H174	H	-0.395901	0.772395	-0.227594
N175	N	-0.889423	-0.151629	-0.323500
N176	N	-0.389423	0.348371	0.176500
N177	N	-0.889981	-0.218542	-0.358750
N178	N	-0.389981	0.281458	0.141250
H179	H	-0.889526	-0.272620	-0.330283
H180	H	-0.389526	0.227380	0.169717
H181	H	-0.889560	0.135870	-0.331677
H182	H	-0.389560	0.635870	0.168323
N183	N	-0.133948	-0.000126	0.041942
N184	N	0.366052	0.499874	0.541942
N185	N	-0.177366	-0.000133	0.102952
N186	N	0.322634	0.499867	0.602952
H187	H	-0.155501	-0.000134	0.153166
H188	H	0.344499	0.499866	0.653166
N189	N	-0.293503	-0.000126	0.039392
N190	N	0.206497	0.499874	0.539392
N191	N	-0.266418	-0.000126	0.101525
N192	N	0.233582	0.499874	0.601525
H193	H	-0.301484	-0.000128	0.150832
H194	H	0.198516	0.499872	0.650832
H195	H	-0.537526	-0.000119	0.021154
H196	H	-0.037526	0.499881	0.521154
H197	H	-0.810766	-0.360845	-0.018745
H198	H	-0.310766	0.139155	0.481255
N199	N	-0.986485	-0.369766	-0.194633
N200	N	-0.486485	0.130234	0.305367
N201	N	-0.977277	-0.360084	-0.265179
N202	N	-0.477277	0.139916	0.234821
H203	H	-1.010329	-0.391278	-0.298273
H204	H	-0.510329	0.108722	0.201727
N205	N	-0.690818	-0.000109	0.033032
N206	N	-0.190818	0.499891	0.533032
N207	N	-0.663739	-0.000118	0.095167
N208	N	-0.163739	0.499882	0.595167
H209	H	-0.698809	-0.000131	0.144472
H210	H	-0.198809	0.499869	0.644472
H211	H	-0.977005	-0.639387	-0.185119
H212	H	-0.477005	-0.139387	0.314881
