data_functionalizedCrystal
_audit_creation_method	'MofGen! by Chris Wilmer'
_symmetry_space_group_name_H-M	'P1'
_symmetry_Int_Tables_number	1
_symmetry_cell_setting	triclinic
loop_
_symmetry_equiv_pos_as_xyz
  x,y,z
_cell_length_a	13.897449
_cell_length_b	13.897447
_cell_length_c	19.076919
_cell_angle_alpha	87.725848
_cell_angle_beta	87.720573
_cell_angle_gamma	90.020357
loop_
_atom_site_label
_atom_site_type_symbol
_atom_site_fract_x
_atom_site_fract_y
_atom_site_fract_z
Zn1	Zn	1.452731	-0.405928	0.397992
Zn2	Zn	1.459113	-0.560755	0.280304
Zn3	Zn	1.297913	-0.399478	0.280308
Zn4	Zn	1.291399	-0.567183	0.397956
O5	O	1.375289	-0.483336	0.339140
O6	O	1.588558	-0.426476	0.382394
O7	O	1.443127	-0.533971	0.181815
O8	O	1.318506	-0.265353	0.295936
O9	O	1.593248	-0.540226	0.295929
O10	O	1.432249	-0.270092	0.382398
O11	O	1.324694	-0.415482	0.181818
O12	O	1.162068	-0.421715	0.295901
O13	O	1.307402	-0.551183	0.496450
O14	O	1.157282	-0.544928	0.382336
O15	O	1.425932	-0.432709	0.496477
O16	O	1.436810	-0.696588	0.295894
O17	O	1.313591	-0.701311	0.382332
C18	C	1.124676	-0.483320	0.339116
C19	C	1.017462	-0.483337	0.339122
C20	C	0.930391	-0.483341	0.339133
C21	C	0.821158	-0.483349	0.339155
C22	C	1.375212	-0.733950	0.339124
C23	C	1.375265	-0.841164	0.339140
C24	C	1.375311	-0.928235	0.339156
C25	C	1.375378	-1.037468	0.339174
C26	C	1.626881	-0.483353	0.339165
C27	C	1.734094	-0.483360	0.339176
C28	C	1.365229	-0.493383	0.522714
C29	C	1.360942	-0.497664	0.600943
C30	C	1.375392	-0.231745	0.339172
C31	C	1.375436	-0.124532	0.339185
C32	C	1.385366	-0.473259	0.156280
C33	C	1.389840	-0.468706	0.078052
C34	C	1.420637	-0.437995	0.637710
C35	C	1.416597	-0.442014	0.711214
C36	C	1.352866	-0.505707	0.747949
C37	C	1.293164	-0.565378	0.711177
C38	C	1.297200	-0.561354	0.637675
C39	C	1.334174	-0.524353	0.967777
C40	C	1.330145	-0.528375	1.041285
C41	C	1.453576	-0.405009	1.041316
C42	C	1.457611	-0.400994	0.967812
C43	C	1.397905	-0.460662	0.931047
N44	N	1.348737	-0.509819	0.823082
N45	N	1.402030	-0.456544	0.855915
H46	H	1.465209	-0.393428	0.741146
O47	O	1.231338	-0.627223	0.746969
C48	C	1.240559	-0.617966	0.819729
H49	H	1.314462	-0.586933	0.829784
H50	H	1.182223	-0.567736	0.840586
C51	C	1.138836	-0.755744	0.845100
C52	C	1.229608	-0.717636	0.857450
H53	H	1.132077	-0.817223	0.868370
H54	H	1.132620	-0.761979	0.796081
H55	H	1.090233	-0.713876	0.862482
H56	H	1.278209	-0.759498	0.840061
H57	H	1.235832	-0.711410	0.906468
H58	H	1.285572	-0.572953	0.937851
H59	H	1.248580	-0.609933	0.607740
O60	O	1.482647	-0.376257	0.601995
C61	C	1.547247	-0.428842	0.559465
H62	H	1.551965	-0.506025	0.581605
H63	H	1.520478	-0.429113	0.503754
C64	C	1.641803	-0.286857	0.531164
C65	C	1.647604	-0.381652	0.558360
H66	H	1.703708	-0.257747	0.530479
H67	H	1.598280	-0.251427	0.559815
H68	H	1.619493	-0.287096	0.484741
H69	H	1.669903	-0.381411	0.604785
H70	H	1.691134	-0.417081	0.529716
O71	O	1.519409	-0.338967	0.932175
C72	C	1.497376	-0.243826	0.950178
H73	H	1.419206	-0.240077	0.970364
H74	H	1.546744	-0.220962	0.992867
C75	C	1.608227	-0.180453	0.860117
C76	C	1.512214	-0.175847	0.884904
H77	H	1.617383	-0.138519	0.819854
H78	H	1.623074	-0.244551	0.847989
H79	H	1.649356	-0.161402	0.895697
H80	H	1.471088	-0.194910	0.849328
H81	H	1.497360	-0.111750	0.897024
O82	O	1.511467	-0.347082	1.077140
C83	C	1.494260	-0.364305	1.149892
H84	H	1.419257	-0.396443	1.159917
H85	H	1.550310	-0.416814	1.170753
C86	C	1.593182	-0.229300	1.175329
C87	C	1.501060	-0.268765	1.187642
H88	H	1.597381	-0.170368	1.198616
H89	H	1.604779	-0.217698	1.126314
H90	H	1.639881	-0.273066	1.192713
H91	H	1.454364	-0.225004	1.170250
H92	H	1.489456	-0.280357	1.236655
H93	H	1.278244	-0.580244	1.071193
