data_functionalizedCrystal
_audit_creation_method	'MofGen! by Chris Wilmer'
_symmetry_space_group_name_H-M	'P1'
_symmetry_Int_Tables_number	1
_symmetry_cell_setting	triclinic
loop_
_symmetry_equiv_pos_as_xyz
  x,y,z
_cell_length_a	15.944499
_cell_length_b	15.944551
_cell_length_c	9.130313
_cell_angle_alpha	89.997799
_cell_angle_beta	89.997175
_cell_angle_gamma	83.488174
loop_
_atom_site_label
_atom_site_type_symbol
_atom_site_fract_x
_atom_site_fract_y
_atom_site_fract_z
O1	O	1.114546	0.108121	-0.121890
O2	O	0.869991	0.121523	-0.121874
O3	O	0.998947	-0.007454	-0.121870
O4	O	0.985590	0.237098	-0.121895
O5	O	0.998945	-0.007450	0.121729
O6	O	0.869989	0.121527	0.121724
O7	O	1.114545	0.108125	0.121709
Cu8	Cu	0.992267	0.114826	0.143959
Cu9	Cu	0.992269	0.114822	-0.144125
O10	O	0.985589	0.237102	0.121704
C11	C	0.838695	0.120976	-0.000073
C12	C	0.745447	0.119331	-0.000066
C13	C	0.998392	-0.038746	-0.000070
C14	C	0.996729	-0.131992	-0.000069
C15	C	0.453911	0.194263	-0.000096
C16	C	0.514941	0.155310	-0.120201
C17	C	0.409810	0.113355	-0.000100
C18	C	0.514925	0.155292	0.119968
C19	C	0.574719	0.116296	-0.000081
C20	C	0.469612	0.074379	-0.120304
C21	C	0.469590	0.074372	0.119973
C22	C	0.530603	0.035360	-0.000162
C23	C	0.314810	0.111663	-0.000112
C24	C	0.669718	0.117981	-0.000079
C25	C	0.912823	-0.346833	-0.000084
C26	C	0.951785	-0.407856	0.120023
C27	C	0.993722	-0.302717	-0.000080
C28	C	0.951806	-0.407842	-0.120147
C29	C	0.990811	-0.467629	-0.000097
C30	C	1.032707	-0.362512	0.120126
C31	C	1.032716	-0.362492	-0.120152
C32	C	1.071737	-0.423497	-0.000016
C33	C	0.995397	-0.207715	-0.000069
C34	C	0.989143	-0.562630	-0.000098
C35	C	1.145840	0.108672	-0.000096
C36	C	1.239089	0.110317	-0.000112
C37	C	0.986144	0.268394	-0.000099
C38	C	0.987806	0.361640	-0.000110
N39	N	0.992272	0.114828	0.346582
N40	N	0.992271	0.114813	-0.346747
C41	C	1.049388	0.057737	0.423236
C42	C	1.049386	0.057727	0.576573
C43	C	0.935148	0.171907	0.576588
C44	C	0.935147	0.171913	0.423254
C45	C	1.115345	-0.008182	0.423228
C46	C	1.115342	-0.008192	0.576565
H47	H	0.420581	0.261409	-0.000219
H48	H	0.449634	0.040188	-0.221958
H49	H	0.535000	0.189528	0.221504
H50	H	0.917579	-0.427914	-0.221694
O51	O	0.832702	-0.307114	0.000315
C52	C	0.790354	-0.330102	0.127176
H53	H	0.838573	-0.352101	0.215245
H54	H	0.747146	-0.273308	0.169094
H55	H	0.751098	-0.383485	0.099774
O56	O	0.910888	-0.431933	0.241010
C57	C	0.840841	-0.472634	0.197901
H58	H	0.851405	-0.498529	0.082173
H59	H	0.833008	-0.526771	0.276464
H60	H	0.781469	-0.425516	0.200209
O61	O	1.073390	-0.338361	-0.241334
C62	C	1.018141	-0.281255	-0.323643
H63	H	0.966334	-0.249986	-0.249190
H64	H	1.054871	-0.230884	-0.373229
H65	H	0.988544	-0.316715	-0.415064
O66	O	1.192134	0.008400	0.626391
C67	C	1.182486	0.082413	0.712124
H68	H	1.115147	0.093322	0.755781
H69	H	1.228637	0.075198	0.807861
H70	H	1.195875	0.138566	0.642061
H71	H	1.066894	-0.342526	0.221777
O72	O	0.879696	0.227473	0.650907
C73	C	0.893358	0.310634	0.613475
H74	H	0.925739	0.310554	0.502146
H75	H	0.830220	0.351967	0.608231
H76	H	0.935162	0.336628	0.699778
H77	H	1.101561	-0.072622	0.381616
H78	H	1.138946	-0.456668	0.000048
O79	O	1.091527	-0.080769	0.633120
C80	C	1.009196	-0.090905	0.585330
H81	H	0.995027	-0.053586	0.479993
H82	H	1.004210	-0.160614	0.564025
H83	H	0.961779	-0.066712	0.673323
H84	H	0.888632	0.218394	0.360843
O85	O	1.187886	0.015707	0.366669
C86	C	1.197933	0.098052	0.414495
H87	H	1.160609	0.112167	0.519843
H88	H	1.267629	0.103112	0.435792
H89	H	1.173686	0.145462	0.326526
H90	H	0.535040	0.189532	-0.221742
O91	O	0.570157	-0.044826	-0.000486
C92	C	0.547040	-0.087164	-0.127263
H93	H	0.525121	-0.038944	-0.215379
H94	H	0.603744	-0.130500	-0.169176
H95	H	0.493566	-0.126282	-0.099750
H96	H	0.449473	0.040181	0.221523
