data_functionalizedCrystal
_audit_creation_method	'MofGen! by Chris Wilmer'
_symmetry_space_group_name_H-M	'P1'
_symmetry_Int_Tables_number	1
_symmetry_cell_setting	triclinic
loop_
_symmetry_equiv_pos_as_xyz
  x,y,z
_cell_length_a	10.654541
_cell_length_b	17.699083
_cell_length_c	16.776229
_cell_angle_alpha	89.999509
_cell_angle_beta	90.007196
_cell_angle_gamma	96.116695
loop_
_atom_site_label
_atom_site_type_symbol
_atom_site_fract_x
_atom_site_fract_y
_atom_site_fract_z
O1	O	0.158807	-1.005081	0.066274
O2	O	0.179469	-0.784834	0.066279
O3	O	-0.013690	-0.900022	0.066272
O4	O	0.351966	-0.889892	0.066282
O5	O	-0.013707	-0.900020	-0.066305
O6	O	0.179452	-0.784832	-0.066298
O7	O	0.158790	-1.005079	-0.066302
Zn8	Zn	0.169118	-0.894955	-0.087349
Zn9	Zn	0.169141	-0.894958	0.087326
O10	O	0.351949	-0.889890	-0.066295
C11	C	0.178720	-0.756631	-0.000009
C12	C	0.176500	-0.672599	-0.000007
C13	C	0.175444	-0.633124	-0.072275
C14	C	0.173338	-0.554168	-0.072276
C15	C	0.172296	-0.514688	-0.000008
C16	C	0.173348	-0.554169	0.072266
C17	C	0.175445	-0.633124	0.072266
C18	C	0.164887	-0.235753	0.072268
C19	C	0.162793	-0.156792	0.072263
C20	C	0.162779	-0.156797	-0.072274
C21	C	0.164877	-0.235752	-0.072274
C22	C	0.165922	-0.275226	-0.000001
C23	C	0.168204	-0.360839	-0.000001
C24	C	0.170023	-0.429076	-0.000007
C25	C	-0.060484	-0.899278	-0.000016
C26	C	-0.199888	-0.897054	-0.000015
C27	C	-0.230271	-1.034793	-0.000028
C28	C	-0.310953	-1.102614	-0.000036
C29	C	-0.441934	-1.100520	-0.000033
C30	C	-0.492235	-1.030596	-0.000020
C31	C	-0.411553	-0.962775	-0.000012
C32	C	-0.280571	-0.964877	-0.000017
C33	C	-0.381171	-0.825037	0.000006
C34	C	-0.250189	-0.827130	-0.000002
C35	C	-0.431472	-0.755114	0.000019
C36	C	-0.350790	-0.687291	0.000022
C37	C	-0.219801	-0.689388	0.000018
C38	C	-0.169508	-0.759309	0.000006
C39	C	0.398743	-0.890635	-0.000005
C40	C	0.538147	-0.892859	-0.000002
C41	C	0.159531	-0.033282	-0.000012
C42	C	0.161728	-0.117316	-0.000006
N43	N	0.169147	-0.894960	0.206537
N44	N	0.169102	-0.894959	-0.206560
C45	C	0.083784	-0.946062	0.248251
C46	C	0.083781	-0.946065	0.331703
C47	C	0.169135	-0.894962	0.373440
C48	C	0.254508	-0.843857	0.331720
C49	C	0.254516	-0.843858	0.248270
C50	C	0.254477	-0.843851	0.668268
C51	C	0.254460	-0.843852	0.751724
C52	C	0.083742	-0.946058	0.751701
C53	C	0.083750	-0.946059	0.668251
C54	C	0.169126	-0.894958	0.626538
C55	C	0.169130	-0.894956	0.536050
C56	C	0.169126	-0.894959	0.463927
H57	H	0.161944	-0.124650	0.131116
H58	H	0.014243	-0.987670	0.634271
H59	H	-0.391756	-0.630365	0.000038
H60	H	0.172491	-0.522019	0.131108
H61	H	-0.123621	-1.036505	-0.000040
H62	H	-0.538125	-0.753414	0.000026
H63	H	-0.154116	-0.634159	0.000028
H64	H	0.165731	-0.267892	-0.131122
N65	N	-0.008359	-1.001169	0.796691
H66	H	0.004580	-0.993415	0.855890
H67	H	0.006186	-1.054911	0.782110
H68	H	0.172457	-0.522032	-0.131124
N69	N	-0.008289	-1.001183	0.376694
H70	H	0.006233	-1.054943	0.362167
H71	H	-0.097405	-0.992037	0.362143
H72	H	0.324029	-0.802247	0.214307
H73	H	-0.598888	-1.028897	-0.000008
N74	N	-0.028237	-0.761574	0.000012
H75	H	0.015246	-0.708001	0.000022
H76	H	-0.002764	-0.789146	-0.049139
N77	N	0.166044	-0.278318	0.150218
H78	H	0.167529	-0.334327	0.139258
H79	H	0.087867	-0.270246	0.181779
H80	H	0.176307	-0.665263	0.131114
H81	H	-0.269983	-1.159545	-0.000053
N82	N	0.176581	-0.675702	-0.150223
H83	H	0.175591	-0.638711	-0.196004
H84	H	0.099633	-0.714193	-0.153376
N85	N	0.161648	-0.114220	-0.150229
H86	H	0.161910	-0.058092	-0.139271
H87	H	0.083312	-0.133028	-0.181311
H88	H	0.014273	-0.987673	0.214275
H89	H	0.323971	-0.802236	0.785705
H90	H	0.323991	-0.802241	0.634312
H91	H	-0.507626	-1.155746	-0.000033
H92	H	0.324011	-0.802250	0.365707
