data_functionalizedCrystal
_audit_creation_method	'MofGen! by Chris Wilmer'
_symmetry_space_group_name_H-M	'P1'
_symmetry_Int_Tables_number	1
_symmetry_cell_setting	triclinic
loop_
_symmetry_equiv_pos_as_xyz
  x,y,z
_cell_length_a	10.654562
_cell_length_b	9.065218
_cell_length_c	8.140239
_cell_angle_alpha	90.001686
_cell_angle_beta	89.994461
_cell_angle_gamma	95.247005
loop_
_atom_site_label
_atom_site_type_symbol
_atom_site_fract_x
_atom_site_fract_y
_atom_site_fract_z
O1	O	1.668650	-0.207322	-0.136714
O2	O	1.303252	-0.227046	-0.136693
O3	O	1.493504	-0.002501	-0.136701
O4	O	1.478398	-0.431867	-0.136707
O5	O	1.493493	-0.002498	0.136526
O6	O	1.303241	-0.227044	0.136534
O7	O	1.668639	-0.207319	0.136513
Zn8	Zn	1.485939	-0.217181	0.179904
Zn9	Zn	1.485953	-0.217184	-0.180085
O10	O	1.478388	-0.431865	0.136520
C11	C	1.256443	-0.225593	-0.000077
C12	C	1.116983	-0.221248	-0.000069
C13	C	1.051439	-0.219220	0.148854
C14	C	0.920400	-0.215149	0.148827
C15	C	0.920462	-0.215141	-0.149061
C16	C	1.051499	-0.219201	-0.149031
C17	C	1.116923	-0.221267	0.297816
C18	C	1.051378	-0.219241	0.446752
C19	C	0.920340	-0.215170	0.446724
C20	C	0.854846	-0.213126	0.297761
C21	C	1.492047	0.052479	-0.000090
C22	C	1.487706	0.216299	-0.000098
C23	C	1.715448	-0.208773	-0.000107
C24	C	1.854908	-0.213117	-0.000126
C25	C	1.479845	-0.486845	-0.000094
C26	C	1.484185	-0.650664	-0.000097
N27	N	1.485938	-0.217178	0.425586
N28	N	1.485963	-0.217176	-0.425767
H29	H	0.748146	-0.209807	0.297751
F30	F	0.850587	-0.213002	0.605231
H31	H	0.867126	-0.213480	-0.270339
F32	F	1.256384	-0.225608	0.297858
H33	H	1.104866	-0.220860	-0.270298
H34	H	1.104713	-0.220894	0.568031
