data_functionalizedCrystal
_audit_creation_method	'MofGen! by Chris Wilmer'
_symmetry_space_group_name_H-M	'P1'
_symmetry_Int_Tables_number	1
_symmetry_cell_setting	triclinic
loop_
_symmetry_equiv_pos_as_xyz
  x,y,z
_cell_length_a	12.759400
_cell_length_b	12.759401
_cell_length_c	21.395355
_cell_angle_alpha	90.024005
_cell_angle_beta	89.986153
_cell_angle_gamma	89.988354
loop_
_atom_site_label
_atom_site_type_symbol
_atom_site_fract_x
_atom_site_fract_y
_atom_site_fract_z
Zn1	Zn	-0.418473	-1.606285	-0.354273
Zn2	Zn	-0.594138	-1.606171	-0.249504
Zn3	Zn	-0.418464	-1.430578	-0.249510
Zn4	Zn	-0.594101	-1.430576	-0.354245
O5	O	-0.506294	-1.518402	-0.301883
O6	O	-0.441794	-1.753291	-0.340384
O7	O	-0.570846	-1.582831	-0.161827
O8	O	-0.271444	-1.453935	-0.263422
O9	O	-0.570854	-1.753207	-0.263410
O10	O	-0.271451	-1.583026	-0.340390
O11	O	-0.441779	-1.453824	-0.161832
O12	O	-0.441744	-1.283557	-0.263395
O13	O	-0.570792	-1.453931	-0.441926
O14	O	-0.570784	-1.283555	-0.340343
O15	O	-0.441759	-1.583024	-0.441947
O16	O	-0.741154	-1.582829	-0.263383
O17	O	-0.741127	-1.453820	-0.340336
C18	C	-0.506259	-1.245435	-0.301867
C19	C	-0.506270	-1.128658	-0.301875
C20	C	-0.439002	-0.964042	-0.261883
C21	C	-0.438987	-1.073766	-0.261878
C22	C	-0.573564	-1.073821	-0.341884
C23	C	-0.573572	-0.964099	-0.341892
C24	C	-0.361308	-0.964011	-0.215691
C25	C	-0.361294	-1.073735	-0.215685
C26	C	-0.779261	-1.518340	-0.301870
C27	C	-0.896038	-1.518410	-0.301885
C28	C	-0.950879	-1.585659	-0.261860
C29	C	-1.060603	-1.585724	-0.261879
C30	C	-1.060635	-1.451280	-0.341951
C31	C	-0.950913	-1.451222	-0.341934
C32	C	-0.950861	-1.663276	-0.215630
C33	C	-1.060585	-1.663340	-0.215649
C34	C	-0.232261	-1.518494	-0.301910
C35	C	-0.115484	-1.518533	-0.301921
C36	C	-0.506273	-1.518490	-0.465306
C37	C	-0.506264	-1.518527	-0.534947
C38	C	-0.506317	-0.792436	-0.301895
C39	C	-0.506293	-0.909212	-0.301888
C40	C	-0.439073	-1.585743	-0.567672
C41	C	-0.439028	-1.585741	-0.633108
C42	C	-0.506192	-1.518535	-0.665816
C43	C	-0.573387	-1.451306	-0.633083
C44	C	-0.573423	-1.451302	-0.567649
C45	C	-0.600791	-1.510218	-0.769486
C46	C	-0.600757	-1.510229	-0.834919
C47	C	-0.506081	-1.518542	-0.867637
C48	C	-0.411437	-1.526864	-0.834913
C49	C	-0.411473	-1.526860	-0.769479
C50	C	-0.506160	-1.518532	-0.736768
C51	C	-0.438836	-1.585759	-0.971314
C52	C	-0.438789	-1.585751	-1.036751
C53	C	-0.573158	-1.451321	-1.036725
C54	C	-0.573195	-1.451324	-0.971290
C55	C	-0.506036	-1.518549	-0.938588
C56	C	-0.506239	-1.518376	-0.139095
C57	C	-0.505953	-1.518542	-0.069454
H58	H	-0.382968	-1.103467	-0.167135
H59	H	-0.384386	-1.640481	-0.541051
C60	C	-1.121008	-1.377371	-0.385998
N61	N	-1.166480	-1.321697	-0.419174
H62	H	-0.334343	-1.533635	-0.861551
C63	C	-0.890592	-1.377292	-0.385994
N64	N	-0.845158	-1.321620	-0.419191
C65	C	-0.365117	-1.659693	-0.669112
N66	N	-0.309449	-1.715397	-0.696229
H67	H	-0.921015	-1.744620	-0.228663
C68	C	-0.904960	-1.623901	-0.153336
N69	N	-0.870387	-1.594234	-0.106418
C70	C	-0.364951	-1.659698	-0.935340
N71	N	-0.309298	-1.715387	-0.908246
H72	H	-0.390345	-0.929932	-0.169569
H73	H	-1.090421	-1.641599	-0.167116
H74	H	-0.284036	-1.107789	-0.233143
H75	H	-0.334410	-1.533634	-0.742838
C76	C	-0.647116	-1.377385	-0.935291
N77	N	-0.702793	-1.321688	-0.908177
C78	C	-1.106467	-1.767776	-0.239184
N79	N	-1.141026	-1.846435	-0.256909
H80	H	-0.384068	-1.640484	-1.063394
H81	H	-0.627833	-1.396590	-1.063355
C82	C	-0.647574	-1.134207	-0.385882
N83	N	-0.703322	-1.179689	-0.419021
C84	C	-0.647344	-1.377359	-0.531651
N85	N	-0.703023	-1.321665	-0.504536
H86	H	-0.677822	-1.503458	-0.861557
C87	C	-0.647601	-0.903791	-0.385898
N88	N	-0.703368	-0.858367	-0.419042
H89	H	-0.677867	-1.503168	-0.742853
C90	C	-0.647263	-1.377374	-0.669064
N91	N	-0.702905	-1.321683	-0.696164
H92	H	-0.279972	-0.934257	-0.228770
