data_functionalizedCrystal
_audit_creation_method	'MofGen! by Chris Wilmer'
_symmetry_space_group_name_H-M	'P1'
_symmetry_Int_Tables_number	1
_symmetry_cell_setting	triclinic
loop_
_symmetry_equiv_pos_as_xyz
  x,y,z
_cell_length_a	10.489716
_cell_length_b	10.489716
_cell_length_c	12.376457
_cell_angle_alpha	101.395919
_cell_angle_beta	78.591709
_cell_angle_gamma	84.529136
loop_
_atom_site_label
_atom_site_type_symbol
_atom_site_fract_x
_atom_site_fract_y
_atom_site_fract_z
O1	O	1.718292	0.155598	-0.093986
O2	O	1.347092	0.172523	-0.093989
O3	O	1.541156	-0.021541	-0.093992
O4	O	1.524228	0.349662	-0.093984
O5	O	1.492656	0.026908	0.094021
O6	O	1.298592	0.220972	0.094023
O7	O	1.669793	0.204048	0.094027
Zn8	Zn	1.476492	0.220202	0.123876
Zn9	Zn	1.540392	0.156368	-0.123839
O10	O	1.475729	0.398112	0.094029
C11	C	1.275310	0.195476	0.000016
C12	C	1.133680	0.191671	0.000015
C13	C	1.515635	-0.044849	0.000011
C14	C	1.511833	-0.186483	0.000001
C15	C	1.035996	0.310676	0.000015
C16	C	0.934741	0.271681	0.092719
C17	C	0.982564	0.223885	-0.092647
C18	C	1.034272	0.152744	0.092795
C19	C	1.082121	0.104945	-0.092654
C20	C	0.980911	0.065867	0.000073
C21	C	1.630836	-0.284164	0.000012
C22	C	1.591863	-0.385407	-0.092685
C23	C	1.544019	-0.337603	0.092680
C24	C	1.472929	-0.285879	-0.092773
C25	C	1.425081	-0.238049	0.092676
C26	C	1.386026	-0.339249	-0.000045
C27	C	1.741575	0.181094	0.000018
C28	C	1.883207	0.184897	0.000013
C29	C	1.501250	0.421419	0.000024
C30	C	1.505054	0.563051	0.000026
N31	N	1.432892	0.263767	0.292935
N32	N	1.584003	0.112794	-0.292898
C33	C	1.685213	0.011641	0.647917
C34	C	1.715722	-0.018850	0.529577
C35	C	1.645017	0.051802	0.470410
C36	C	1.543798	0.152950	0.529596
C37	C	1.513293	0.183451	0.647948
C38	C	1.473096	0.223611	0.470441
C39	C	1.371877	0.324759	0.529627
C40	C	1.341377	0.355254	0.647967
C41	C	1.412082	0.284603	0.707133
C42	C	1.503602	0.193110	0.352090
C43	C	1.331681	0.364919	0.352120
C44	C	1.301172	0.395410	0.470461
H45	H	1.060633	0.414216	0.000103
H46	H	1.669862	0.026971	0.374052
H47	H	1.798135	-0.101202	0.481392
H48	H	1.742779	-0.045867	0.696098
H49	H	0.871037	0.342114	0.171093
C50	C	0.904901	0.160922	-0.262783
C51	C	0.951152	0.264461	-0.198441
H52	H	0.885502	0.185986	-0.328087
H53	H	0.970232	0.085863	-0.285070
H54	H	0.827585	0.140716	-0.218832
H55	H	1.028474	0.284662	-0.242390
H56	H	0.885816	0.339543	-0.176155
H57	H	1.442958	-0.262789	-0.171229
C58	C	1.209252	-0.346570	-0.097251
C59	C	1.246202	-0.372249	-0.000109
H60	H	1.122936	-0.366954	-0.097295
H61	H	1.211113	-0.256363	-0.097870
H62	H	1.268640	-0.398999	-0.162469
H63	H	1.186819	-0.319813	0.065110
H64	H	1.244331	-0.462471	0.000521
C65	C	1.367553	-0.177485	0.295461
C66	C	1.330035	-0.152016	0.198474
H67	H	1.308884	-0.124362	0.360781
H68	H	1.364989	-0.267486	0.296601
H69	H	1.454225	-0.157859	0.294783
H70	H	1.243366	-0.171653	0.199149
H71	H	1.332586	-0.061996	0.197334
H72	H	1.662316	-0.449101	-0.171056
C73	C	1.712718	-0.341815	0.198287
C74	C	1.584566	-0.369020	0.198482
H75	H	1.737752	-0.361203	0.263604
H76	H	1.771089	-0.394212	0.132469
H77	H	1.716216	-0.251570	0.198676
H78	H	1.581071	-0.459268	0.198085
H79	H	1.526179	-0.316624	0.264317
C80	C	1.585822	-0.036373	0.315752
C81	C	1.614834	0.081891	0.287086
H82	H	1.654489	-0.105050	0.275629
H83	H	1.577743	-0.028259	0.394701
H84	H	1.505566	-0.056023	0.296349
H85	H	1.695086	0.101546	0.306497
H86	H	1.622928	0.073778	0.208120
C87	C	1.198666	0.116304	0.197777
C88	C	1.065417	0.112271	0.198712
H89	H	1.217890	0.091328	0.263169
H90	H	1.250562	0.057396	0.132035
H91	H	1.217906	0.202934	0.197511
H92	H	1.046180	0.025639	0.198969
H93	H	1.013505	0.171181	0.264471
C94	C	1.461988	0.234749	0.876645
C95	C	1.378554	0.318128	0.837220
H96	H	1.441295	0.255453	0.956955
H97	H	1.450684	0.146165	0.849880
H98	H	1.550572	0.246102	0.849850
H99	H	1.289970	0.306768	0.864008
H100	H	1.389846	0.406733	0.863996
C101	C	1.174501	0.522016	0.636108
C102	C	1.230124	0.466444	0.713026
H103	H	1.105815	0.590655	0.676274
H104	H	1.239909	0.556518	0.589943
H105	H	1.140037	0.456564	0.589956
H106	H	1.264597	0.531895	0.759173
H107	H	1.164705	0.431945	0.759211
C108	C	1.339865	0.503958	0.219037
C109	C	1.253953	0.442590	0.287097
H110	H	1.291884	0.551900	0.178886
H111	H	1.381464	0.562251	0.265198
H112	H	1.404498	0.439336	0.166857
H113	H	1.189325	0.507213	0.339283
H114	H	1.212332	0.384292	0.240933
H115	H	0.956476	-0.037712	0.000124
C116	C	1.249300	0.080058	-0.261655
C117	C	1.168174	0.009924	-0.198455
H118	H	1.302435	0.021399	-0.326974
H119	H	1.196619	0.144603	-0.283904
H120	H	1.303883	0.121717	-0.216949
H121	H	1.113585	-0.031727	-0.243158
H122	H	1.220861	-0.054645	-0.176208
C123	C	1.857698	-0.326373	-0.097350
C124	C	1.770590	-0.250829	-0.000139
H125	H	1.943969	-0.305770	-0.097457
H126	H	1.856430	-0.416937	-0.098001
H127	H	1.831780	-0.307627	-0.162521
H128	H	1.796503	-0.269582	0.065032
H129	H	1.771864	-0.160244	0.000522
H130	H	1.218758	0.477768	0.518664
