data_functionalizedCrystal
_audit_creation_method	'MofGen! by Chris Wilmer'
_symmetry_space_group_name_H-M	'P1'
_symmetry_Int_Tables_number	1
_symmetry_cell_setting	triclinic
loop_
_symmetry_equiv_pos_as_xyz
  x,y,z
_cell_length_a	12.827893
_cell_length_b	12.827892
_cell_length_c	12.827885
_cell_angle_alpha	89.970024
_cell_angle_beta	89.980728
_cell_angle_gamma	90.015552
loop_
_atom_site_label
_atom_site_type_symbol
_atom_site_fract_x
_atom_site_fract_y
_atom_site_fract_z
Zn1	Zn	1.597670	-0.415978	-0.590847
Zn2	Zn	1.597564	-0.590755	-0.416107
Zn3	Zn	1.422911	-0.416029	-0.416121
Zn4	Zn	1.422896	-0.590678	-0.590807
O5	O	1.510260	-0.503360	-0.503471
O6	O	1.743892	-0.439173	-0.567679
O7	O	1.574357	-0.567631	-0.269873
O8	O	1.446144	-0.269787	-0.439321
O9	O	1.743814	-0.567582	-0.439298
O10	O	1.574538	-0.269749	-0.567692
O11	O	1.446041	-0.439261	-0.269883
O12	O	1.276673	-0.439186	-0.439282
O13	O	1.446118	-0.567450	-0.737048
O14	O	1.276662	-0.567500	-0.567623
O15	O	1.574524	-0.439098	-0.737078
O16	O	1.574343	-0.736981	-0.439259
O17	O	1.446016	-0.736924	-0.567610
C18	C	1.238750	-0.503341	-0.503451
C19	C	1.122597	-0.503358	-0.503467
C20	C	1.070851	-0.439930	-0.567093
C21	C	0.950800	-0.439946	-0.567111
C22	C	1.510195	-0.774870	-0.503451
C23	C	1.510262	-0.891023	-0.503478
C24	C	1.573768	-0.942706	-0.567057
C25	C	1.573839	-1.062756	-0.567086
C26	C	1.782830	-0.503380	-0.503491
C27	C	1.898983	-0.503389	-0.503500
C28	C	1.510331	-0.503260	-0.776041
C29	C	1.510362	-0.503217	-0.892194
C30	C	1.510354	-0.230790	-0.503513
C31	C	1.510394	-0.114637	-0.503531
C32	C	1.573907	-0.439692	-0.943993
C33	C	1.573940	-0.439647	-1.064044
C34	C	1.510249	-0.503385	-0.231961
C35	C	1.510422	-0.503133	-0.115808
H36	H	1.078022	-0.557670	-0.449006
O37	O	1.638454	-0.889517	-0.632124
C38	C	1.615611	-0.916074	-0.736285
H39	H	1.532172	-0.946221	-0.741517
H40	H	1.671722	-0.979273	-0.763726
C41	C	1.730058	-0.781959	-0.799503
C42	C	1.627573	-0.818978	-0.805930
H43	H	1.737441	-0.722068	-0.842465
H44	H	1.745451	-0.764069	-0.729328
H45	H	1.776805	-0.834634	-0.822369
H46	H	1.580829	-0.766308	-0.783052
H47	H	1.612172	-0.836857	-0.876103
H48	H	1.456019	-0.557526	-1.071269
H49	H	1.455941	-0.935652	-0.449072
O50	O	0.951941	-0.568128	-0.438364
C51	C	0.925322	-0.545178	-0.334228
H52	H	0.846053	-0.505084	-0.332068
H53	H	0.986721	-0.491349	-0.299169
C54	C	1.017741	-0.696230	-0.273404
C55	C	0.920378	-0.646993	-0.270751
H56	H	1.014696	-0.759033	-0.234246
H57	H	1.035679	-0.711691	-0.343562
H58	H	1.068897	-0.651361	-0.244190
H59	H	0.869227	-0.691856	-0.299976
H60	H	0.902431	-0.631542	-0.200596
O61	O	1.638553	-1.115820	-0.632139
C62	C	1.578997	-1.178977	-0.699517
H63	H	1.496700	-1.146084	-0.705919
H64	H	1.575389	-1.261683	-0.667145
C65	C	1.731066	-1.221077	-0.800335
C66	C	1.629989	-1.180672	-0.808206
H67	H	1.762521	-1.222127	-0.867379
H68	H	1.771191	-1.178531	-0.754939
H69	H	1.728045	-1.289995	-0.773355
H70	H	1.633012	-1.111751	-0.835173
H71	H	1.589865	-1.223207	-0.853609
O72	O	1.445535	-0.568210	-0.945190
C73	C	1.468327	-0.672399	-0.918601
H74	H	1.508407	-0.674668	-0.839330
H75	H	1.522113	-0.707520	-0.980007
C76	C	1.317198	-0.732914	-1.011051
C77	C	1.366417	-0.735701	-0.913685
H78	H	1.254337	-0.771965	-1.008023
H79	H	1.301844	-0.662721	-1.028969
H80	H	1.362030	-0.762180	-1.062213
H81	H	1.321590	-0.706424	-0.862528
H82	H	1.381761	-0.805892	-0.895759
O83	O	1.638697	-0.374647	-1.117223
C84	C	1.579183	-0.307199	-1.180385
H85	H	1.496900	-0.300725	-1.147424
H86	H	1.575523	-0.339552	-1.263060
C87	C	1.731329	-0.206517	-1.222705
C88	C	1.630270	-0.198559	-1.182217
H89	H	1.762844	-0.139504	-1.223840
H90	H	1.771426	-0.251959	-1.180155
H91	H	1.728265	-0.233482	-1.291598
H92	H	1.633337	-0.171607	-1.113321
H93	H	1.590175	-0.153109	-1.224755
O94	O	1.124179	-0.375227	-0.632031
C95	C	1.232172	-0.389602	-0.617543
H96	H	1.246946	-0.470220	-0.583164
H97	H	1.263127	-0.327574	-0.561965
C98	C	1.270217	-0.281178	-0.765458
C99	C	1.288364	-0.380197	-0.723241
H100	H	1.304880	-0.275371	-0.830655
H101	H	1.197460	-0.271489	-0.775217
H102	H	1.296013	-0.229499	-0.719133
H103	H	1.262556	-0.431873	-0.769559
H104	H	1.361117	-0.389894	-0.713492
O105	O	1.445379	-1.061743	-0.438640
C106	C	1.341204	-1.088389	-0.461388
H107	H	1.338992	-1.167635	-0.501505
H108	H	1.305999	-1.026972	-0.515126
C109	C	1.280673	-0.996082	-0.310183
C110	C	1.277955	-1.093418	-0.359447
H111	H	1.241655	-0.999180	-0.247302
H112	H	1.350857	-0.978126	-0.294858
H113	H	1.251337	-0.944912	-0.354975
H114	H	1.307302	-1.144584	-0.314661
H115	H	1.207774	-1.111383	-0.374762
H116	H	1.628283	-0.385336	-0.899464
H117	H	0.906300	-0.385647	-0.621587
