data_functionalizedCrystal
_audit_creation_method	'MofGen! by Chris Wilmer'
_symmetry_space_group_name_H-M	'P1'
_symmetry_Int_Tables_number	1
_symmetry_cell_setting	triclinic
loop_
_symmetry_equiv_pos_as_xyz
  x,y,z
_cell_length_a	14.395555
_cell_length_b	17.917603
_cell_length_c	17.917603
_cell_angle_alpha	60.138055
_cell_angle_beta	90.004294
_cell_angle_gamma	63.034021
loop_
_atom_site_label
_atom_site_type_symbol
_atom_site_fract_x
_atom_site_fract_y
_atom_site_fract_z
Zr1	Zr	0.947915	0.806826	-0.129020
O2	O	0.814621	0.951864	-0.249561
O3	O	0.982407	0.654597	-0.087367
O4	O	0.999236	0.796449	-0.242775
O5	O	0.791762	0.820706	0.023088
O6	O	1.152110	0.796444	-0.242768
O7	O	0.797792	0.810012	-0.094154
O8	O	1.122005	0.542698	0.035228
O9	O	0.821868	1.074452	-0.254908
O10	O	1.118901	0.719871	-0.075277
O11	O	1.000313	0.727856	0.012215
O12	O	1.020128	0.894868	-0.170758
O13	O	0.901541	0.902852	-0.083267
Zr14	Zr	1.182114	0.823874	0.057977
Zr15	Zr	1.191731	0.806818	-0.129009
Zr16	Zr	0.938299	0.823882	0.057967
Zr17	Zr	0.959472	1.002341	-0.137548
Zr18	Zr	1.170558	0.628359	0.066505
O19	O	1.147623	0.976103	0.016324
O20	O	1.161296	0.951852	-0.249547
O21	O	0.800949	0.976114	0.016310
O22	O	1.315408	0.678837	0.178519
O23	O	1.329081	0.654586	-0.087352
O24	O	0.968734	0.678848	0.178504
O25	O	1.338267	0.809994	-0.094131
O26	O	1.130793	0.834251	0.171732
O27	O	0.977920	0.834256	0.171726
O28	O	1.332238	0.820688	0.023111
O29	O	1.015668	1.074446	-0.254900
O30	O	1.114361	0.556254	0.183857
O31	O	1.308162	0.556248	0.183866
O32	O	1.315805	0.542691	0.035236
O33	O	0.814224	1.088009	-0.106279
O34	O	1.008025	1.088003	-0.106271
O35	O	1.109901	0.735833	0.099715
O36	O	1.228489	0.727848	0.012224
O37	O	1.129716	0.902845	-0.083257
O38	O	1.011129	0.910829	0.004234
C39	C	1.050559	0.570791	-0.024854
C40	C	1.045653	0.487790	-0.021234
C41	C	0.760039	0.815360	-0.035534
C42	C	0.656533	0.815363	-0.035539
C43	C	1.036689	0.335823	-0.014623
C44	C	1.093337	0.294872	-0.056417
C45	C	1.088350	0.210313	-0.052739
C46	C	1.041675	0.420390	-0.018301
C47	C	0.542088	0.910780	-0.087592
C48	C	0.510082	0.857753	-0.119986
C49	C	0.504115	0.868386	-0.003150
C50	C	0.625893	0.762331	-0.067981
C51	C	0.619921	0.772983	0.048900
C52	C	0.587983	0.719885	0.016529
C53	C	1.369991	0.815340	-0.035508
C54	C	1.473497	0.815337	-0.035504
C55	C	1.077043	0.794017	-0.269413
C56	C	1.081125	0.786776	-0.348794
C57	C	1.079470	1.059909	-0.046188
C58	C	1.084376	1.142911	-0.049808
C59	C	1.088606	0.773551	-0.494148
C60	C	1.041426	0.857145	-0.576897
C61	C	1.045588	0.849787	-0.657777
C62	C	1.084445	0.780907	-0.413259
C63	C	1.052986	0.836684	0.198370
C64	C	1.048904	0.843924	0.277751
C65	C	1.355535	0.570781	-0.024842
C66	C	1.454135	0.487776	-0.021217
C67	C	1.038531	0.592124	0.209037
C68	C	1.029542	0.516364	0.292038
C69	C	1.343507	0.592114	0.209050
C70	C	1.438024	0.516350	0.292056
C71	C	0.786523	1.038586	-0.280093
C72	C	0.692005	1.114350	-0.363098
C73	C	0.774494	1.059919	-0.046201
C74	C	0.675894	1.142924	-0.049826
C75	C	1.091499	1.038576	-0.280080
C76	C	1.100487	1.114337	-0.363081
C77	C	1.443235	0.444632	-0.065197
C78	C	1.535872	0.366650	-0.061809
C79	C	1.639408	0.331808	-0.014436
C80	C	1.650306	0.374960	0.029546
C81	C	1.557670	0.452946	0.026152
C82	C	1.082525	0.484950	0.376699
C83	C	1.074075	0.413776	0.454694
C84	C	1.012649	0.374012	0.448026
C85	C	0.959660	0.405432	0.363357
C86	C	0.968104	0.476610	0.285364
C87	C	1.544323	0.476603	0.285366
C88	C	1.633142	0.405425	0.363351
C89	C	1.615661	0.373990	0.448024
C90	C	1.509352	0.413745	0.454712
C91	C	1.420535	0.484927	0.376728
C92	C	0.585707	1.154107	-0.356409
C93	C	0.496889	1.225309	-0.434395
C94	C	0.514370	1.256748	-0.519069
C95	C	0.620679	1.216988	-0.525756
C96	C	0.709495	1.145792	-0.447771
C97	C	0.686795	1.186076	-0.005854
C98	C	0.594160	1.264078	-0.009263
C99	C	0.490625	1.298922	-0.056640
C100	C	0.479726	1.255766	-0.100617
C101	C	0.572361	1.177770	-0.097213
C102	C	1.161922	1.154079	-0.356385
C103	C	1.170389	1.225254	-0.434365
C104	C	1.117414	1.256692	-0.519041
C105	C	1.055976	1.216942	-0.525736
C106	C	1.047517	1.145763	-0.447756
H107	H	1.145580	0.323320	-0.094962
N108	N	0.567815	1.122010	-0.269931
N109	N	0.472891	1.157530	-0.263988
H110	H	0.460244	1.134869	-0.202915
H111	H	0.606575	0.639133	0.060556
H112	H	0.796046	1.113422	-0.453228
N113	N	1.001944	1.249018	-0.612241
N114	N	1.024805	1.186034	-0.631822
H115	H	0.986671	1.208681	-0.692923
N116	N	1.568794	0.497022	0.071077
N117	N	1.535526	0.589138	0.027160
H118	H	1.543387	0.620266	0.058890
N119	N	0.971127	0.300165	0.033705
N120	N	0.870703	0.359274	0.011675
H121	H	0.824395	0.334086	0.045802
H122	H	0.395416	1.284148	-0.139190
N123	N	0.519068	1.011975	-0.142889
N124	N	0.595409	1.028253	-0.151252
H125	H	0.579157	1.099719	-0.190307
N126	N	1.145287	0.525549	0.383522
N127	N	1.244686	0.468160	0.425102
H128	H	1.289012	0.496832	0.429927
N129	N	1.128212	0.381702	0.541166
N130	N	1.183062	0.417210	0.547099
H131	H	1.221298	0.394560	0.608168
H132	H	0.442041	1.314721	-0.582562
N133	N	1.143165	0.676842	-0.481476
N134	N	1.112128	0.616426	-0.439849
H135	H	1.150655	0.548126	-0.430907
N136	N	0.450564	0.902696	-0.209552
N137	N	0.419831	0.992250	-0.269345
H138	H	0.377797	1.023998	-0.332603
H139	H	1.358941	0.472998	-0.103785
H140	H	1.526978	0.331524	-0.097624
N141	N	0.605306	1.308128	0.035685
N142	N	0.560723	1.304905	0.096204
H143	H	0.568597	1.336012	0.127951
N144	N	1.216047	1.121987	-0.269903
N145	N	1.270901	1.157484	-0.263953
H146	H	1.309136	1.134820	-0.202878
H147	H	0.678268	0.717523	-0.095441
N148	N	0.679435	0.728095	0.138444
N149	N	0.638153	0.766161	0.181311
H150	H	0.680182	0.734466	0.244554
N151	N	0.438307	0.924638	0.031228
N152	N	0.406561	1.016078	-0.007735
H153	H	0.360109	1.055807	0.016553
H154	H	1.719696	0.373063	0.357890
N155	N	1.734007	0.252065	-0.010894
N156	N	1.724241	0.213501	-0.050108
H157	H	1.791043	0.157149	-0.047574
N158	N	1.126075	1.329399	-0.598683
N159	N	1.180934	1.364870	-0.592681
H160	H	1.187054	1.416222	-0.648925
N161	N	0.986839	0.953854	-0.589559
N162	N	0.983493	0.959770	-0.522879
H163	H	0.944941	1.028067	-0.531816
N164	N	1.756061	0.339376	0.077938
N165	N	1.789698	0.398525	0.055930
H166	H	1.864390	0.373389	0.090111
N167	N	1.004038	0.301309	0.527708
N168	N	1.051356	0.273275	0.603290
H169	H	1.045280	0.221927	0.659569
H170	H	1.558577	0.502186	0.216428
N171	N	0.896922	0.364799	0.356570
N172	N	0.889406	0.301244	0.426221
H173	H	0.845103	0.272540	0.421432
H174	H	1.687991	0.316028	0.511517
N175	N	1.233152	1.265837	-0.427498
N176	N	1.280432	1.237763	-0.351886
H177	H	1.324759	1.266422	-0.347033
N178	N	0.913974	0.508681	0.198894
N179	N	0.859138	0.473162	0.192964
H180	H	0.820904	0.495809	0.131895
H181	H	0.771090	1.157713	0.032731
N182	N	1.491525	0.381614	0.541214
N183	N	1.570843	0.318050	0.610828
H184	H	1.558256	0.295349	0.671923
H185	H	1.333985	0.517280	0.382187
H186	H	0.997486	1.113412	-0.453221
H187	H	0.410336	1.257670	-0.428933
H188	H	0.634900	1.242595	-0.594706
N189	N	0.396018	1.378597	-0.060107
N190	N	0.405778	1.417110	-0.020837
H191	H	0.338965	1.473380	-0.023281
H192	H	0.563470	1.142638	-0.133018
