data_functionalizedCrystal
_audit_creation_method	'MofGen! by Chris Wilmer'
_symmetry_space_group_name_H-M	'P1'
_symmetry_Int_Tables_number	1
_symmetry_cell_setting	triclinic
loop_
_symmetry_equiv_pos_as_xyz
  x,y,z
_cell_length_a	19.121102
_cell_length_b	29.839131
_cell_length_c	29.839126
_cell_angle_alpha	90.029653
_cell_angle_beta	92.464336
_cell_angle_gamma	87.589066
loop_
_atom_site_label
_atom_site_type_symbol
_atom_site_fract_x
_atom_site_fract_y
_atom_site_fract_z
Zn1	Zn	1.073718	-0.208248	0.283242
Zn2	Zn	1.073596	-0.283362	0.208098
Zn3	Zn	0.956254	-0.205039	0.204923
Zn4	Zn	0.956213	-0.280140	0.280001
O5	O	1.014945	-0.244197	0.244066
O6	O	1.171986	-0.220903	0.275959
O7	O	1.057997	-0.272979	0.144809
O8	O	0.971904	-0.142600	0.215340
O9	O	1.171896	-0.276090	0.220751
O10	O	1.058204	-0.144957	0.272880
O11	O	0.971786	-0.215435	0.142477
O12	O	0.857965	-0.212310	0.212198
O13	O	0.971834	-0.270597	0.343299
O14	O	0.857935	-0.267486	0.267357
O15	O	1.058164	-0.217779	0.345680
O16	O	1.057957	-0.345800	0.217609
O17	O	0.971716	-0.343432	0.270436
C18	C	0.832466	-0.239201	0.239081
C19	C	0.754400	-0.237074	0.236959
C20	C	0.717727	-0.264845	0.264636
C21	C	0.644376	-0.262841	0.262644
C22	C	0.607699	-0.233067	0.232974
C23	C	0.644377	-0.205293	0.205296
C24	C	0.717727	-0.207295	0.207290
C25	C	0.386231	-0.225580	0.225520
C26	C	0.312876	-0.223581	0.223527
C27	C	0.312880	-0.281128	0.280876
C28	C	0.386231	-0.283130	0.282866
C29	C	0.422903	-0.255354	0.255190
C30	C	0.532723	-0.231019	0.230936
C31	C	0.497878	-0.257400	0.257230
C32	C	1.014838	-0.360917	0.244025
C33	C	1.014857	-0.410852	0.244025
C34	C	1.059872	-0.721690	0.274068
C35	C	1.059948	-0.909365	0.274097
O36	O	1.098117	-0.934643	0.299610
N37	N	1.015065	-0.931643	0.244119
C38	C	0.970156	-0.906998	0.214134
O39	O	0.931976	-0.930253	0.188640
C40	C	0.970076	-0.719324	0.214107
C41	C	1.014968	-0.697049	0.244084
C42	C	1.104759	-0.699415	0.304043
C43	C	1.104743	-0.652499	0.304033
C44	C	1.059838	-0.627858	0.274050
C45	C	1.014951	-0.650133	0.244075
C46	C	0.925164	-0.694680	0.184125
C47	C	0.925147	-0.647759	0.184122
C48	C	0.970039	-0.625484	0.214098
C49	C	0.970030	-0.578576	0.214082
N50	N	1.014914	-0.556299	0.244060
C51	C	1.059818	-0.580940	0.274044
C52	C	0.970201	-1.005530	0.214149
C53	C	0.970222	-1.052449	0.214156
C54	C	1.060014	-1.054812	0.274119
C55	C	1.059996	-1.007893	0.274111
C56	C	1.015085	-0.983253	0.244127
C57	C	1.059780	-0.482413	0.274022
C58	C	1.059761	-0.435493	0.274009
C59	C	0.969967	-0.433133	0.214047
C60	C	0.969988	-0.480049	0.214058
C61	C	1.014896	-0.504688	0.244049
O62	O	0.931876	-0.553270	0.188586
O63	O	1.097981	-0.557677	0.299541
C64	C	1.059889	-0.768606	0.274077
C65	C	1.015001	-0.790881	0.244103
C66	C	0.970097	-0.766240	0.214119
C67	C	1.015022	-0.837799	0.244109
C68	C	1.059926	-0.862440	0.274093
C69	C	1.104810	-0.840163	0.304070
C70	C	1.104793	-0.793247	0.304061
C71	C	0.925214	-0.788518	0.184141
C72	C	0.925235	-0.835434	0.184152
C73	C	0.970139	-0.860075	0.214136
C74	C	1.198138	-0.249214	0.249071
C75	C	1.276203	-0.251352	0.251203
C76	C	1.015008	-0.244186	0.361246
C77	C	1.015035	-0.244181	0.411181
C78	C	1.015072	-0.127022	0.244117
C79	C	1.015126	-0.077089	0.244139
C80	C	1.014923	-0.244177	0.127343
C81	C	1.015032	-0.244059	0.077412
C82	C	1.059916	-0.274084	0.768986
C83	C	1.059917	-0.274115	0.581313
O84	O	1.098069	-0.299610	0.558083
N85	N	1.015032	-0.244160	0.556627
C86	C	0.970140	-0.214196	0.578861
O87	O	0.931958	-0.188721	0.553557
C88	C	0.970136	-0.214167	0.766533
C89	C	1.015029	-0.244122	0.791217
C90	C	1.104804	-0.304037	0.793670
C91	C	1.104806	-0.304027	0.840586
C92	C	1.059920	-0.274065	0.862817
C93	C	1.015031	-0.244112	0.838133
C94	C	0.925242	-0.184206	0.788767
C95	C	0.925243	-0.184202	0.835688
C96	C	0.970136	-0.214157	0.860372
C97	C	0.970146	-0.214140	0.907280
N98	N	1.015031	-0.244096	0.931966
C99	C	1.059918	-0.274058	0.909735
C100	C	0.970147	-0.214213	0.480331
C101	C	0.970149	-0.214219	0.433413
C102	C	1.059924	-0.274139	0.435868
C103	C	1.059925	-0.274130	0.482787
C104	C	1.015032	-0.244168	0.505017
C105	C	1.059919	-0.274035	1.008261
C106	C	1.059919	-0.274021	1.055181
C107	C	0.970141	-0.214103	1.052721
C108	C	0.970143	-0.214115	1.005806
C109	C	1.015035	-0.244085	0.983577
O110	O	0.932009	-0.188662	0.930539
O111	O	1.098083	-0.299536	0.935046
C112	C	1.059914	-0.274094	0.722071
C113	C	1.015025	-0.244141	0.697386
C114	C	0.970139	-0.214179	0.719618
C115	C	1.015027	-0.244148	0.650469
C116	C	1.059914	-0.274110	0.628237
C117	C	1.104798	-0.304066	0.652924
C118	C	1.104800	-0.304056	0.699839
C119	C	0.925254	-0.184223	0.694931
C120	C	0.925256	-0.184235	0.648016
C121	C	0.970143	-0.214198	0.625785
H122	H	0.614521	-0.285455	0.285181
C123	C	0.378865	-0.339809	0.339355
C124	C	0.426544	-0.315856	0.315482
H125	H	0.403754	-0.360012	0.359492
H126	H	0.350225	-0.356182	0.318970
H127	H	0.350287	-0.319476	0.355802
H128	H	0.455119	-0.336190	0.299033
H129	H	0.455196	-0.299482	0.335871
C130	C	1.193518	-0.697026	0.363305
C131	C	1.154128	-0.726495	0.337002
H132	H	1.224004	-0.713743	0.383651
H133	H	1.162894	-0.677899	0.379635
H134	H	1.220378	-0.679455	0.344468
H135	H	1.127263	-0.744064	0.355839
H136	H	1.184756	-0.745630	0.320672
H137	H	0.933628	-0.985471	0.189732
H138	H	1.096478	-0.298436	0.990168
C139	C	1.069688	-0.955353	0.334807
C140	C	1.109336	-0.983408	0.307064
H141	H	1.100150	-0.940238	0.355150
H142	H	1.039089	-0.972828	0.351138
H143	H	1.042945	-0.933962	0.316946
H144	H	1.136075	-1.004802	0.324925
H145	H	1.139947	-0.965932	0.290731
C146	C	1.148516	-0.442549	0.333285
C147	C	1.109105	-0.411009	0.306964
H148	H	1.178973	-0.427434	0.353632
H149	H	1.175402	-0.461581	0.314463
H150	H	1.117899	-0.460018	0.349617
H151	H	1.139722	-0.393542	0.290629
H152	H	1.082217	-0.391969	0.325788
H153	H	0.888572	-0.627699	0.159706
H154	H	1.141356	-0.328449	0.719933
C155	C	1.144592	-0.581631	0.330658
C156	C	1.154082	-0.628018	0.336989
H157	H	1.175056	-0.566520	0.351004
H158	H	1.097400	-0.572675	0.335917
H159	H	1.154898	-0.574238	0.300759
H160	H	1.143771	-0.635411	0.366887
H161	H	1.201285	-0.636977	0.331734
H162	H	0.933408	-0.413063	0.189633
H163	H	0.888685	-0.159803	0.853785
C164	C	1.099805	-0.300611	1.128191
C165	C	1.109273	-0.306947	1.082314
H166	H	1.130277	-0.320935	1.144940
H167	H	1.052617	-0.305898	1.134580
H168	H	1.110112	-0.270704	1.136167
H169	H	1.098961	-0.336853	1.074336
H170	H	1.156472	-0.301663	1.075922
C171	C	0.830778	-0.175419	0.592660
C172	C	0.875905	-0.151306	0.620885
H173	H	0.800312	-0.155092	0.575911
H174	H	0.803902	-0.194252	0.610220
H175	H	0.857517	-0.193261	0.572704
H176	H	0.849166	-0.133467	0.640844
H177	H	0.902783	-0.132466	0.603324
C178	C	0.468662	-0.221497	0.167342
C179	C	0.426532	-0.195052	0.195095
H180	H	0.493546	-0.202648	0.148560
H181	H	0.440017	-0.240262	0.149343
H182	H	0.501005	-0.239510	0.185302
H183	H	0.394186	-0.177040	0.177135
H184	H	0.455180	-0.176279	0.213095
C185	C	1.099898	-1.127788	0.300754
C186	C	1.109369	-1.081903	0.307082
H187	H	1.130361	-1.144513	0.321107
H188	H	1.110211	-1.135768	0.270861
H189	H	1.052701	-1.134200	0.306011
H190	H	1.156565	-1.075490	0.301822
H191	H	1.099060	-1.073920	0.336981
C192	C	0.200443	-0.303609	0.303288
C193	C	0.272569	-0.311653	0.311300
H194	H	0.175558	-0.322453	0.322075
H195	H	0.188392	-0.309814	0.272767
H196	H	0.188461	-0.273105	0.309595
H197	H	0.284552	-0.342157	0.304990
H198	H	0.284624	-0.305451	0.341828
C199	C	1.138962	-0.855478	0.381098
C200	C	1.154164	-0.867254	0.337032
H201	H	1.169430	-0.872203	0.401446
H202	H	1.091772	-0.861895	0.386351
H203	H	1.145386	-0.824348	0.385381
H204	H	1.147735	-0.898384	0.332748
H205	H	1.201365	-0.860840	0.331777
C206	C	0.881462	-1.045388	0.154887
C207	C	0.920880	-1.076930	0.181202
H208	H	0.850995	-1.060501	0.134545
H209	H	0.912069	-1.027921	0.138553
H210	H	0.854580	-1.026355	0.173717
H211	H	0.947766	-1.095961	0.162372
H212	H	0.890269	-1.094405	0.197536
C213	C	0.836394	-0.687611	0.124865
C214	C	0.875811	-0.719156	0.151176
H215	H	0.805920	-0.702722	0.104525
H216	H	0.867001	-0.670146	0.108529
H217	H	0.809519	-0.668577	0.143698
H218	H	0.902690	-0.738189	0.132344
H219	H	0.845200	-0.736630	0.167513
H220	H	0.888680	-0.853566	0.159737
H221	H	0.614509	-0.181049	0.181140
H222	H	0.933439	-0.498187	0.189645
H223	H	0.933597	-0.189718	0.985707
H224	H	0.888700	-0.159825	0.713027
C225	C	0.710360	-0.150219	0.150396
C226	C	0.758040	-0.176772	0.176863
H227	H	0.735249	-0.131376	0.131610
H228	H	0.681786	-0.132281	0.169226
H229	H	0.681716	-0.168991	0.132397
H230	H	0.786681	-0.158000	0.194865
H231	H	0.786626	-0.194711	0.158032
H232	H	0.933600	-0.189822	0.413319
H233	H	1.141348	-0.775114	0.328471
C234	C	0.580416	-0.265981	0.319887
C235	C	0.538193	-0.290127	0.289843
H236	H	0.605311	-0.286187	0.340018
H237	H	0.551831	-0.245660	0.336335
H238	H	0.612747	-0.249727	0.303684
H239	H	0.505857	-0.306379	0.306046
H240	H	0.566779	-0.310456	0.273393
C241	C	1.193534	-0.363259	0.838285
C242	C	1.154145	-0.336960	0.867715
H243	H	1.223990	-0.383595	0.855032
H244	H	1.220420	-0.344424	0.820736
H245	H	1.162902	-0.379602	0.819133
H246	H	1.184777	-0.320614	0.886864
H247	H	1.127257	-0.355798	0.885271
H248	H	0.502852	-0.206778	0.206777
C249	C	0.830761	-0.175392	0.733416
C250	C	0.875888	-0.151281	0.761642
H251	H	0.800292	-0.155065	0.716669
H252	H	0.803888	-0.194229	0.750974
H253	H	0.857499	-0.193231	0.713456
H254	H	0.849149	-0.133446	0.781604
H255	H	0.902763	-0.132438	0.744083
C256	C	0.930285	-0.187494	1.123557
C257	C	0.920802	-0.181170	1.077164
H258	H	0.899819	-0.167165	1.138647
H259	H	0.977477	-0.182206	1.132544
H260	H	0.919980	-0.217398	1.130945
H261	H	0.931112	-0.151266	1.069776
H262	H	0.873600	-0.186455	1.068175
H263	H	0.283016	-0.199330	0.199368
C264	C	1.114521	-0.364750	0.741160
C265	C	1.154151	-0.336975	0.769240
H266	H	1.144992	-0.385086	0.726083
H267	H	1.087800	-0.346915	0.719740
H268	H	1.083901	-0.381092	0.758617
H269	H	1.184768	-0.320631	0.751783
H270	H	1.180884	-0.354812	0.790662
H271	H	1.141349	-0.328461	0.634815
H272	H	0.747584	-0.289091	0.288795
C273	C	1.148662	-0.333358	0.480490
C274	C	1.109267	-0.307061	0.509917
H275	H	1.179120	-0.353691	0.497238
H276	H	1.175546	-0.314521	0.462941
H277	H	1.118035	-0.349704	0.461338
H278	H	1.139894	-0.290712	0.529067
H279	H	1.082381	-0.325900	0.527473
H280	H	0.888646	-0.768458	0.159725
H281	H	1.096474	-0.298535	0.417759
H282	H	0.933587	-0.189813	0.498426
H283	H	1.096344	-0.502468	0.298446
