data_functionalizedCrystal
_audit_creation_method	'MofGen! by Chris Wilmer'
_symmetry_space_group_name_H-M	'P1'
_symmetry_Int_Tables_number	1
_symmetry_cell_setting	triclinic
loop_
_symmetry_equiv_pos_as_xyz
  x,y,z
_cell_length_a	14.044220
_cell_length_b	10.654550
_cell_length_c	9.130313
_cell_angle_alpha	89.996220
_cell_angle_beta	89.997493
_cell_angle_gamma	88.836890
loop_
_atom_site_label
_atom_site_type_symbol
_atom_site_fract_x
_atom_site_fract_y
_atom_site_fract_z
O1	O	0.133227	1.681222	-0.121925
O2	O	0.145921	1.317019	-0.121902
O3	O	0.001554	1.493654	-0.121899
O4	O	0.277595	1.504587	-0.121929
O5	O	0.001557	1.493652	0.121700
O6	O	0.145925	1.317017	0.121696
O7	O	0.133231	1.681220	0.121673
Cu8	Cu	0.139578	1.499119	0.143927
Cu9	Cu	0.139574	1.499121	-0.144156
O10	O	0.277598	1.504585	0.121670
C11	C	0.144991	1.270127	-0.000100
C12	C	0.142202	1.130403	-0.000091
C13	C	-0.033790	1.488867	-0.000099
C14	C	-0.139110	1.474592	-0.000096
C15	C	0.227203	1.059459	-0.000121
C16	C	0.224578	0.928175	-0.000146
C17	C	0.051942	0.938790	-0.000116
C18	C	0.054569	1.070072	-0.000081
C19	C	0.326873	1.053329	-0.000145
C20	C	0.324247	0.922045	-0.000170
C21	C	-0.331943	1.448493	-0.000116
C22	C	-0.388911	1.549741	-0.000126
C23	C	-0.496210	1.535219	-0.000137
C24	C	-0.224634	1.463013	-0.000105
C25	C	0.312942	1.509372	-0.000133
C26	C	0.418262	1.523648	-0.000146
N27	N	0.139581	1.499126	0.346550
C28	C	0.134161	1.728113	-0.000132
C29	C	0.136950	1.867836	-0.000151
N30	N	0.139564	1.499122	-0.346779
C31	C	0.075677	1.577364	0.423203
C32	C	0.075666	1.577359	0.576540
C33	C	0.203470	1.420876	0.576557
C34	C	0.203477	1.420875	0.423223
C35	C	0.001893	1.667713	0.423195
C36	C	0.001881	1.667708	0.576532
H37	H	-0.014647	1.127830	-0.000035
O38	O	0.265571	1.344751	0.650813
C39	C	0.321993	1.275719	0.550270
H40	H	0.283099	1.269955	0.440964
H41	H	0.335751	1.176972	0.594576
H42	H	0.392752	1.324407	0.533969
H43	H	-0.071017	1.638943	0.381585
O44	O	0.369176	0.876887	-0.121753
C45	C	0.464675	0.915221	-0.121507
H46	H	0.471431	1.002716	-0.050708
H47	H	0.487679	0.937266	-0.238297
H48	H	0.512137	0.836683	-0.075321
O49	O	0.373247	1.093164	0.121518
C50	C	0.311499	1.170425	0.205446
H51	H	0.253088	1.211449	0.131965
H52	H	0.353476	1.249906	0.256182
H53	H	0.278002	1.112396	0.296056
H54	H	-0.357098	1.647328	-0.000231
O55	O	-0.370043	1.332169	-0.000037
C56	C	-0.470247	1.343386	-0.000082
H57	H	-0.492717	1.438910	0.046016
H58	H	-0.501218	1.266056	0.070655
H59	H	-0.497835	1.334263	-0.116949
O60	O	0.364839	1.099822	-0.125462
C61	C	0.446315	1.169239	-0.091328
H62	H	0.442079	1.202064	0.027370
H63	H	0.449959	1.254279	-0.166753
H64	H	0.512790	1.107509	-0.106999
O65	O	0.360097	0.870955	0.125231
C66	C	0.355286	0.739059	0.117771
H67	H	0.297801	0.711881	0.036224
H68	H	0.337175	0.700253	0.230522
H69	H	0.426989	0.698387	0.080538
H70	H	0.255504	1.357156	0.360813
O71	O	-0.080318	1.622901	0.633089
C72	C	-0.092586	1.498439	0.585301
H73	H	-0.050583	1.481957	0.479964
H74	H	-0.171359	1.482166	0.563998
H75	H	-0.065738	1.430552	0.673296
H76	H	0.018134	1.765853	0.618140
O77	O	-0.033099	0.879982	-0.000180
C78	C	-0.017193	0.748895	-0.000174
H79	H	0.056628	0.726413	-0.046307
H80	H	-0.073320	0.702406	-0.070899
H81	H	-0.022027	0.711866	0.116686
O82	O	0.029596	1.779268	0.366633
C83	C	0.122688	1.804709	0.414458
H84	H	0.138255	1.750651	0.519807
H85	H	0.129099	1.909627	0.435752
H86	H	0.175986	1.774425	0.326489
