data_functionalizedCrystal
_audit_creation_method	'MofGen! by Chris Wilmer'
_symmetry_space_group_name_H-M	'P1'
_symmetry_Int_Tables_number	1
_symmetry_cell_setting	triclinic
loop_
_symmetry_equiv_pos_as_xyz
  x,y,z
_cell_length_a	9.065215
_cell_length_b	9.065215
_cell_length_c	13.448316
_cell_angle_alpha	89.994392
_cell_angle_beta	89.993808
_cell_angle_gamma	85.014697
loop_
_atom_site_label
_atom_site_type_symbol
_atom_site_fract_x
_atom_site_fract_y
_atom_site_fract_z
O1	O	1.960406	0.216340	-0.082678
O2	O	1.531121	0.234091	-0.082682
O3	O	1.754639	0.010573	-0.082676
O4	O	1.736888	0.439858	-0.082685
O5	O	1.754610	0.010559	0.082708
O6	O	1.531092	0.234077	0.082701
O7	O	1.960378	0.216326	0.082706
Cu8	Cu	1.745732	0.225200	0.097804
Cu9	Cu	1.745766	0.225217	-0.097781
O10	O	1.736859	0.439844	0.082699
C11	C	1.476120	0.232379	0.000009
C12	C	1.312277	0.227281	0.000007
C13	C	1.752920	-0.044421	0.000015
C14	C	1.747822	-0.208264	0.000012
C15	C	2.015379	0.218038	0.000012
C16	C	2.179222	0.223136	0.000007
C17	C	1.738579	0.494838	0.000006
C18	C	1.743677	0.658681	0.000003
N19	N	1.745719	0.225187	0.235369
N20	N	1.745791	0.225218	-0.235345
C21	C	1.844725	0.126255	0.287412
C22	C	1.844734	0.126254	0.391515
C23	C	1.745744	0.225194	0.443573
C24	C	1.646727	0.324130	0.391523
C25	C	1.646712	0.324123	0.287421
C26	C	1.646768	0.324141	0.608503
C27	C	1.646785	0.324150	0.712611
C28	C	1.844790	0.126272	0.712597
C29	C	1.844775	0.126265	0.608495
C30	C	1.745760	0.225204	0.556452
H31	H	1.925340	0.045694	0.245033
H32	H	1.925350	0.045695	0.433888
H33	H	1.566090	0.404682	0.245049
F34	F	1.541366	0.429424	0.446928
H35	H	1.566135	0.404703	0.566133
H36	H	1.925387	0.045708	0.566110
H37	H	1.925411	0.045712	0.754976
F38	F	1.541423	0.429454	0.768008
