data_functionalizedCrystal
_audit_creation_method	'MofGen! by Chris Wilmer'
_symmetry_space_group_name_H-M	'P1'
_symmetry_Int_Tables_number	1
_symmetry_cell_setting	triclinic
loop_
_symmetry_equiv_pos_as_xyz
  x,y,z
_cell_length_a	21.295418
_cell_length_b	21.295417
_cell_length_c	18.050582
_cell_angle_alpha	89.973245
_cell_angle_beta	89.965893
_cell_angle_gamma	90.046319
loop_
_atom_site_label
_atom_site_type_symbol
_atom_site_fract_x
_atom_site_fract_y
_atom_site_fract_z
Zn1	Zn	0.962296	-0.250383	-0.420271
Zn2	Zn	0.962216	-0.355645	-0.296072
Zn3	Zn	0.857037	-0.250422	-0.296054
Zn4	Zn	0.856989	-0.355648	-0.420179
O5	O	0.909634	-0.303025	-0.358144
O6	O	1.050375	-0.264329	-0.403842
O7	O	0.948251	-0.341702	-0.192145
O8	O	0.871053	-0.162328	-0.312562
O9	O	1.050316	-0.341664	-0.312594
O10	O	0.948387	-0.162299	-0.403824
O11	O	0.870976	-0.264395	-0.192132
O12	O	0.768941	-0.264398	-0.312473
O13	O	0.870971	-0.341669	-0.524116
O14	O	0.768906	-0.341707	-0.403667
O15	O	0.948340	-0.264332	-0.524184
O16	O	0.948204	-0.443735	-0.312504
O17	O	0.870894	-0.443737	-0.403685
C18	C	0.746083	-0.303058	-0.358059
C19	C	0.676115	-0.303087	-0.358040
C20	C	0.643246	-0.343395	-0.405453
C21	C	0.577503	-0.343379	-0.405487
C22	C	0.544632	-0.303063	-0.358093
C23	C	0.577509	-0.262747	-0.310676
C24	C	0.643250	-0.262759	-0.310649
N25	N	0.441365	-0.298140	-0.293138
N26	N	0.378914	-0.298133	-0.293166
C27	C	0.346557	-0.303022	-0.358172
N28	N	0.379012	-0.307933	-0.423151
N29	N	0.441469	-0.307944	-0.423123
C30	C	0.473347	-0.303045	-0.358117
C31	C	0.242403	-0.343316	-0.405626
C32	C	0.176660	-0.343296	-0.405660
C33	C	0.176666	-0.262667	-0.310843
C34	C	0.242408	-0.262683	-0.310815
C35	C	0.275273	-0.303011	-0.358205
C36	C	0.909552	-0.466576	-0.358103
C37	C	0.909574	-0.536544	-0.358110
C38	C	0.949865	-0.569389	-0.310681
C39	C	0.949895	-0.635131	-0.310698
C40	C	0.909622	-0.668027	-0.358136
C41	C	0.869328	-0.635174	-0.405574
C42	C	0.869304	-0.569433	-0.405561
N43	N	0.854554	-0.771308	-0.363769
N44	N	0.854578	-0.833760	-0.363776
C45	C	0.909692	-0.866101	-0.358178
N46	N	0.964782	-0.833633	-0.352558
N47	N	0.964757	-0.771175	-0.352546
C48	C	0.909644	-0.739312	-0.358155
C49	C	0.950019	-0.970232	-0.310765
C50	C	0.950050	-1.035975	-0.310787
C51	C	0.869477	-1.036017	-0.405659
C52	C	0.869452	-0.970275	-0.405641
C53	C	0.909722	-0.937386	-0.358190
C54	C	1.073825	-0.302992	-0.358230
C55	C	1.143793	-0.302978	-0.358267
C56	C	0.909659	-0.302997	-0.551850
C57	C	0.909669	-0.302985	-0.634396
C58	C	0.909734	-0.138834	-0.358202
C59	C	0.909777	-0.068866	-0.358226
C60	C	0.867628	-0.344983	-0.833810
C61	C	0.925059	-0.360355	-0.883222
C62	C	0.909701	-0.302937	-0.785526
C63	C	0.852301	-0.287548	-0.883195
C64	C	0.909725	-0.302892	-0.931511
C65	C	0.967161	-0.318338	-0.833852
C66	C	0.894365	-0.245504	-0.833820
C67	C	0.951835	-0.260854	-0.883210
C68	C	0.909685	-0.302964	-0.701428
C69	C	0.909747	-0.302864	-1.015608
C70	C	0.909646	-0.303007	-0.165192
C71	C	0.909757	-0.302842	-0.082647
H72	H	0.269163	-0.376150	-0.444218
C73	C	0.140503	-0.387639	-0.457820
C74	C	0.095229	-0.437009	-0.425546
C75	C	0.059072	-0.481354	-0.477705
C76	C	0.068188	-0.476328	-0.562138
C77	C	0.113463	-0.426955	-0.594417
C78	C	0.149621	-0.382611	-0.542257
H79	H	0.088479	-0.440732	-0.363039
H80	H	0.025556	-0.517903	-0.453810
H81	H	0.041422	-0.509154	-0.600750
H82	H	0.120214	-0.423233	-0.656923
H83	H	0.183137	-0.346062	-0.566152
C84	C	0.994373	-1.072107	-0.258611
C85	C	0.994405	-1.144420	-0.258626
C86	C	1.038729	-1.180553	-0.206449
C87	C	1.083020	-1.144373	-0.154256
C88	C	1.082990	-1.072056	-0.154239
C89	C	1.038666	-1.035923	-0.206416
H90	H	0.961617	-1.171206	-0.297265
H91	H	1.038751	-1.234087	-0.206462
H92	H	1.115831	-1.171120	-0.115631
H93	H	1.115778	-1.045270	-0.115600
H94	H	1.038644	-0.982389	-0.206402
H95	H	0.938045	-0.408905	-0.904922
H96	H	0.836640	-0.943531	-0.444259
H97	H	0.836538	-0.661962	-0.444200
H98	H	1.015728	-0.331391	-0.812267
H99	H	0.987466	-0.225277	-0.904764
H100	H	0.550741	-0.229920	-0.272089
H101	H	0.670011	-0.229934	-0.272039
H102	H	0.832083	-0.380587	-0.812120
C103	C	0.876801	-0.179937	-0.804473
C104	C	0.812611	-0.151058	-0.823897
C105	C	0.795038	-0.085491	-0.794548
C106	C	0.841655	-0.048802	-0.745776
C107	C	0.905848	-0.077681	-0.726350
C108	C	0.923421	-0.143248	-0.755698
H109	H	0.778099	-0.178217	-0.860003
H110	H	0.747518	-0.064113	-0.808929
H111	H	0.828646	-0.000265	-0.724050
H112	H	0.940360	-0.050522	-0.690243
H113	H	0.970942	-0.164626	-0.741318
H114	H	0.803749	-0.274551	-0.904871
H115	H	0.149903	-0.229837	-0.272257
H116	H	0.550737	-0.376203	-0.444100
C117	C	0.679394	-0.387751	-0.457588
C118	C	0.724514	-0.437145	-0.425284
C119	C	0.760662	-0.481501	-0.477420
C120	C	0.751692	-0.476463	-0.561859
C121	C	0.706570	-0.427067	-0.594168
C122	C	0.670421	-0.382711	-0.542032
H123	H	0.731156	-0.440877	-0.362772
H124	H	0.794064	-0.518068	-0.453502
H125	H	0.778451	-0.509298	-0.600453
H126	H	0.699928	-0.423335	-0.656679
H127	H	0.637019	-0.346144	-0.565950
C128	C	0.278568	-0.218355	-0.258644
C129	C	0.242415	-0.174009	-0.206506
C130	C	0.278575	-0.129680	-0.154332
C131	C	0.350888	-0.129695	-0.154296
C132	C	0.387045	-0.174042	-0.206436
C133	C	0.350885	-0.218372	-0.258610
H134	H	0.188882	-0.173997	-0.206531
H135	H	0.251809	-0.096851	-0.115734
H136	H	0.377656	-0.096879	-0.115673
H137	H	0.440579	-0.174055	-0.206411
H138	H	0.377651	-0.251200	-0.297208
C139	C	0.994163	-0.533209	-0.258490
C140	C	1.043549	-0.487936	-0.290731
C141	C	1.087846	-0.451753	-0.238541
C142	C	1.082755	-0.460843	-0.154110
C143	C	1.033366	-0.506118	-0.121864
C144	C	0.989070	-0.542301	-0.174055
H145	H	1.047320	-0.481206	-0.353236
H146	H	1.124407	-0.418238	-0.262411
H147	H	1.115546	-0.434058	-0.115475
H148	H	1.029596	-0.512849	-0.059359
H149	H	0.952509	-0.575816	-0.150184
C150	C	0.994211	-0.671273	-0.258517
C151	C	0.989105	-0.662287	-0.174083
C152	C	1.033419	-0.698427	-0.121901
C153	C	1.082839	-0.743552	-0.154153
C154	C	1.087947	-0.752540	-0.238592
C155	C	1.043633	-0.716400	-0.290774
H156	H	0.952520	-0.628881	-0.150204
H157	H	1.029637	-0.691773	-0.059394
H158	H	1.115643	-0.770305	-0.115525
H159	H	1.124533	-0.785946	-0.262470
H160	H	1.047415	-0.723054	-0.353281
C161	C	0.994321	-0.934047	-0.258582
C162	C	0.967064	-0.888916	-0.200223
C163	C	1.011367	-0.852732	-0.148043
C164	C	1.082929	-0.861679	-0.154220
C165	C	1.110190	-0.906812	-0.212581
C166	C	1.065887	-0.942996	-0.264762
H167	H	0.914086	-0.882291	-0.195648
H168	H	0.991186	-0.819322	-0.104840
H169	H	1.115725	-0.834894	-0.115593
H170	H	1.163168	-0.913437	-0.217156
H171	H	1.086068	-0.976406	-0.307964
H172	H	0.836493	-0.542691	-0.444185
H173	H	0.836689	-1.062800	-0.444288
