data_functionalizedCrystal
_audit_creation_method	'MofGen! by Chris Wilmer'
_symmetry_space_group_name_H-M	'P1'
_symmetry_Int_Tables_number	1
_symmetry_cell_setting	triclinic
loop_
_symmetry_equiv_pos_as_xyz
  x,y,z
_cell_length_a	16.992695
_cell_length_b	10.654550
_cell_length_c	9.130313
_cell_angle_alpha	90.003780
_cell_angle_beta	89.998255
_cell_angle_gamma	92.423437
loop_
_atom_site_label
_atom_site_type_symbol
_atom_site_fract_x
_atom_site_fract_y
_atom_site_fract_z
O1	O	0.110186	-1.677356	-0.121922
O2	O	0.120685	-1.312785	-0.121899
O3	O	0.001285	-1.493609	-0.121899
O4	O	0.229586	-1.496532	-0.121922
O5	O	0.001288	-1.493607	0.121700
O6	O	0.120688	-1.312783	0.121700
O7	O	0.110190	-1.677354	0.121676
Cu8	Cu	0.115439	-1.495068	0.143931
Cu9	Cu	0.115435	-1.495071	-0.144153
O10	O	0.229589	-1.496530	0.121676
C11	C	-0.027947	-1.489848	-0.000100
C12	C	-0.115052	-1.478628	-0.000099
C13	C	0.119915	-1.265919	-0.000097
C14	C	0.117609	-1.126277	-0.000087
C15	C	0.110959	-1.724220	-0.000129
C16	C	0.113265	-1.863862	-0.000148
C17	C	-0.164704	-1.586879	-0.000105
C18	C	-0.246548	-1.576330	-0.000118
C19	C	-0.278738	-1.457529	-0.000115
C20	C	-0.229080	-1.349270	-0.000114
C21	C	-0.147237	-1.359820	-0.000112
C22	C	-0.522574	-1.413802	-0.000133
C23	C	-0.604422	-1.403260	-0.000131
C24	C	-0.621884	-1.630321	-0.000137
C25	C	-0.540040	-1.640861	-0.000126
C26	C	-0.490389	-1.532602	-0.000132
N27	N	-0.362396	-1.446743	-0.000124
N28	N	-0.406733	-1.543389	-0.000134
C29	C	0.258821	-1.500291	-0.000126
C30	C	0.345926	-1.511510	-0.000136
N31	N	0.115441	-1.495076	0.346553
C32	C	0.187910	-1.052866	-0.000116
C33	C	0.185738	-0.921658	-0.000141
C34	C	0.042959	-0.937282	-0.000115
C35	C	0.045131	-1.068488	-0.000080
C36	C	0.270342	-1.043844	-0.000137
C37	C	0.268171	-0.912636	-0.000162
N38	N	0.115427	-1.495073	-0.346776
C39	C	0.062589	-1.575168	0.423205
C40	C	0.062580	-1.575164	0.576542
C41	C	0.168281	-1.414971	0.576561
C42	C	0.168286	-1.414970	0.423227
C43	C	0.001565	-1.667658	0.423195
C44	C	0.001556	-1.667654	0.576532
H45	H	-0.286971	-1.664480	-0.000119
H46	H	-0.016050	-0.890215	-0.000131
O47	O	-0.066359	-1.625192	0.633330
C48	C	-0.049119	-1.518141	0.720232
H49	H	0.009597	-1.472313	0.684427
H50	H	-0.097653	-1.448430	0.706397
H51	H	-0.045360	-1.547116	0.840141
O52	O	-0.635659	-1.287824	-0.000401
C53	C	-0.610336	-1.221334	-0.126551
H54	H	-0.592941	-1.290667	-0.214726
H55	H	-0.660203	-1.162917	-0.168902
H56	H	-0.557391	-1.156654	-0.098035
H57	H	-0.138501	-1.683620	-0.000098
O58	O	0.301790	-1.089022	-0.125520
C59	C	0.379545	-1.039492	-0.142008
H60	H	0.403996	-1.009784	-0.030428
H61	H	0.417774	-1.114172	-0.191095
H62	H	0.379740	-0.954473	-0.217834
H63	H	-0.058735	-1.641004	0.381583
O64	O	0.297812	-0.860871	0.125444
C65	C	0.253328	-0.906695	0.245890
H66	H	0.222660	-1.000370	0.215721
H67	H	0.294057	-0.920461	0.343267
H68	H	0.207298	-0.836311	0.276078
O69	O	-0.260441	-1.233935	-0.000308
C70	C	-0.307242	-1.221030	-0.126486
H71	H	-0.327084	-1.318020	-0.168553
H72	H	-0.361099	-1.165564	-0.098107
H73	H	-0.271391	-1.169072	-0.214828
H74	H	-0.482157	-1.325649	-0.000138
H75	H	0.020673	-1.760493	0.375629
O76	O	-0.023232	-1.139614	-0.000099
C77	C	-0.087664	-1.060469	-0.000062
H78	H	-0.068289	-0.964664	-0.046218
H79	H	-0.136973	-1.103862	-0.070752
H80	H	-0.109833	-1.048882	0.116810
H81	H	-0.106811	-1.271671	-0.000107
H82	H	0.299229	-0.873588	-0.102119
H83	H	0.302583	-1.075960	0.101811
H84	H	0.211316	-1.349741	0.360819
O85	O	-0.508902	-1.756361	-0.000188
C86	C	-0.570277	-1.849647	-0.000153
H87	H	-0.626055	-1.808853	-0.046283
H88	H	-0.552733	-1.932104	-0.070865
H89	H	-0.581673	-1.883419	0.116716
O90	O	-0.670228	-1.735349	-0.000209
C91	C	-0.749367	-1.700570	-0.000174
H92	H	-0.753040	-1.601561	-0.046283
H93	H	-0.786045	-1.769066	-0.070907
H94	H	-0.773011	-1.702961	0.116691
O95	O	0.219506	-1.337103	0.651209
C96	C	0.177033	-1.255354	0.739873
H97	H	0.115932	-1.299246	0.762832
H98	H	0.209656	-1.238757	0.847704
H99	H	0.171164	-1.161958	0.680783
H100	H	0.014998	-1.765327	0.618141
