data_functionalizedCrystal
_audit_creation_method	'MofGen! by Chris Wilmer'
_symmetry_space_group_name_H-M	'P1'
_symmetry_Int_Tables_number	1
_symmetry_cell_setting	triclinic
loop_
_symmetry_equiv_pos_as_xyz
  x,y,z
_cell_length_a	18.215407
_cell_length_b	12.759394
_cell_length_c	18.215399
_cell_angle_alpha	89.974009
_cell_angle_beta	89.985640
_cell_angle_gamma	90.011299
loop_
_atom_site_label
_atom_site_type_symbol
_atom_site_fract_x
_atom_site_fract_y
_atom_site_fract_z
Zn1	Zn	1.125106	-0.418324	-0.416090
Zn2	Zn	1.625106	0.081676	0.083910
Zn3	Zn	1.125045	-0.594029	-0.293033
Zn4	Zn	1.625045	-0.094029	0.206967
Zn5	Zn	1.002046	-0.418357	-0.293042
Zn6	Zn	1.502046	0.081643	0.206958
Zn7	Zn	1.002029	-0.593954	-0.416063
Zn8	Zn	1.502029	-0.093954	0.083937
O9	O	1.063556	-0.506166	-0.354557
O10	O	1.563556	-0.006166	0.145443
O11	O	1.228083	-0.441649	-0.399773
O12	O	1.728083	0.058351	0.100227
O13	O	1.108710	-0.570771	-0.190050
O14	O	1.608710	-0.070771	0.309950
O15	O	1.018403	-0.271331	-0.309380
O16	O	1.518403	0.228669	0.190620
O17	O	1.228037	-0.570739	-0.309364
O18	O	1.728037	-0.070739	0.190636
O19	O	1.108815	-0.271307	-0.399782
O20	O	1.608815	0.228693	0.100218
O21	O	1.018343	-0.441705	-0.190057
O22	O	1.518343	0.058295	0.309943
O23	O	0.899059	-0.441632	-0.309354
O24	O	1.399059	0.058368	0.190646
O25	O	1.018374	-0.570611	-0.519051
O26	O	1.518374	-0.070611	-0.019051
O27	O	0.899047	-0.570643	-0.399737
O28	O	1.399047	-0.070643	0.100263
O29	O	1.108799	-0.441577	-0.519071
O30	O	1.608799	0.058423	-0.019071
O31	O	1.108694	-0.741040	-0.309338
O32	O	1.608694	-0.241040	0.190662
O33	O	1.018314	-0.740985	-0.399728
O34	O	1.518314	-0.240985	0.100272
C35	C	0.872350	-0.506133	-0.354544
C36	C	1.372350	-0.006133	0.145456
C37	C	0.790551	-0.506145	-0.354556
C38	C	1.290551	-0.006145	0.145444
C39	C	0.602380	-0.439066	-0.401707
C40	C	1.102380	0.060934	0.098293
C41	C	0.525521	-0.439075	-0.401709
C42	C	1.025521	0.060925	0.098291
C43	C	0.525485	-0.573295	-0.307420
C44	C	1.025485	-0.073295	0.192580
C45	C	0.602342	-0.573280	-0.307415
C46	C	1.102342	-0.073280	0.192585
C47	C	0.640788	-0.506167	-0.354562
C48	C	1.140788	-0.006167	0.145438
C49	C	0.487072	-0.506191	-0.354570
C50	C	0.987072	-0.006191	0.145430
C51	C	0.403738	-0.506201	-0.354573
C52	C	0.903738	-0.006201	0.145427
C53	C	0.724127	-0.506155	-0.354559
C54	C	1.224127	-0.006155	0.145441
C55	C	1.063516	-0.779133	-0.354545
C56	C	1.563516	-0.279133	0.145455
C57	C	1.063565	-0.895910	-0.354564
C58	C	1.563565	-0.395910	0.145436
C59	C	1.157641	-0.895727	-0.448771
C60	C	1.657641	-0.395727	0.051229
C61	C	1.204702	-0.950496	-0.495880
C62	C	1.704702	-0.450496	0.004120
C63	C	1.204746	-1.060218	-0.495896
C64	C	1.704746	-0.560218	0.004104
C65	C	1.157722	-1.115173	-0.448799
C66	C	1.657722	-0.615173	0.051201
C67	C	1.110661	-1.060403	-0.401690
C68	C	1.610661	-0.560403	0.098310
C69	C	1.110624	-0.950679	-0.401678
C70	C	1.610624	-0.450679	0.098322
C71	C	1.016582	-1.060586	-0.307489
C72	C	1.516582	-0.560586	0.192511
C73	C	1.016541	-0.950865	-0.307468
C74	C	1.516541	-0.450865	0.192532
C75	C	0.969558	-1.115541	-0.260392
C76	C	1.469558	-0.615541	0.239608
C77	C	0.922500	-1.060772	-0.213278
C78	C	1.422500	-0.560772	0.286722
C79	C	0.922459	-0.951044	-0.213264
C80	C	1.422459	-0.451044	0.286736
C81	C	0.969480	-0.896096	-0.260359
C82	C	1.469480	-0.396096	0.239641
C83	C	1.255509	-0.506199	-0.354570
C84	C	1.755509	-0.006199	0.145430
C85	C	1.337308	-0.506213	-0.354576
C86	C	1.837308	-0.006213	0.145424
C87	C	1.063591	-0.506082	-0.546510
C88	C	1.563591	-0.006082	-0.046510
C89	C	1.063606	-0.506046	-0.628309
C90	C	1.563606	-0.006046	-0.128309
C91	C	1.063618	-0.232132	-0.354585
C92	C	1.563618	0.267868	0.145415
C93	C	1.063644	-0.115356	-0.354597
C94	C	1.563644	0.384644	0.145403
C95	C	1.016592	-0.438796	-0.816508
C96	C	1.516592	0.061204	-0.316508
C97	C	1.016604	-0.438775	-0.893366
C98	C	1.516604	0.061225	-0.393366
C99	C	1.110708	-0.573171	-0.893348
C100	C	1.610708	-0.073171	-0.393348
C101	C	1.110691	-0.573196	-0.816491
C102	C	1.610691	-0.073196	-0.316491
C103	C	1.063634	-0.506003	-0.778073
C104	C	1.563634	-0.006003	-0.278073
C105	C	1.063664	-0.505956	-0.931789
C106	C	1.563664	-0.005956	-0.431789
C107	C	1.063678	-0.505934	-1.015122
C108	C	1.563678	-0.005934	-0.515122
C109	C	1.063619	-0.506027	-0.694734
C110	C	1.563619	-0.006027	-0.194734
C111	C	1.063564	-0.506174	-0.163351
C112	C	1.563564	-0.006174	0.336649
C113	C	1.063692	-0.505913	-0.081552
C114	C	1.563692	-0.005913	0.418448
H115	H	0.494253	-0.384434	-0.440098
H116	H	0.994253	0.115566	0.059902
Cl117	Cl	1.169865	-0.657634	-0.941651
Cl118	Cl	1.669865	-0.157634	-0.441651
Cl119	Cl	0.863384	-1.129862	-0.154085
Cl120	Cl	1.363384	-0.629862	0.345915
H121	H	1.243060	-1.104811	-0.534263
H122	H	1.743060	-0.604811	-0.034263
H123	H	0.969595	-1.204882	-0.260411
H124	H	1.469595	-0.704882	0.239589
Cl125	Cl	0.477148	-0.657664	-0.248156
Cl126	Cl	0.977148	-0.157664	0.251844
H127	H	0.884133	-0.906456	-0.174905
H128	H	1.384133	-0.406456	0.325095
Cl129	Cl	0.957431	-0.354330	-0.768213
Cl130	Cl	1.457431	0.145670	-0.268213
H131	H	0.969454	-0.806754	-0.260349
H132	H	1.469454	-0.306754	0.239651
Cl133	Cl	0.957453	-0.354296	-0.941682
Cl134	Cl	1.457453	0.145704	-0.441682
Cl135	Cl	1.263809	-0.881406	-0.555090
Cl136	Cl	1.763809	-0.381406	-0.055090
Cl137	Cl	1.169832	-0.657697	-0.768169
Cl138	Cl	1.669832	-0.157697	-0.268169
H139	H	0.633615	-0.627922	-0.269020
H140	H	1.133615	-0.127922	0.230980
H141	H	1.157617	-0.806386	-0.448756
H142	H	1.657617	-0.306386	0.051244
H143	H	0.633680	-0.384416	-0.440095
H144	H	1.133680	0.115584	0.059905
Cl145	Cl	1.157884	-1.253109	-0.448716
Cl146	Cl	1.657884	-0.753109	0.051284
