data_functionalizedCrystal
_audit_creation_method	'MofGen! by Chris Wilmer'
_symmetry_space_group_name_H-M	'P1'
_symmetry_Int_Tables_number	1
_symmetry_cell_setting	triclinic
loop_
_symmetry_equiv_pos_as_xyz
  x,y,z
_cell_length_a	14.853567
_cell_length_b	14.519709
_cell_length_c	13.930277
_cell_angle_alpha	89.994503
_cell_angle_beta	89.995755
_cell_angle_gamma	83.657538
loop_
_atom_site_label
_atom_site_type_symbol
_atom_site_fract_x
_atom_site_fract_y
_atom_site_fract_z
O1	O	1.196415	0.120405	-0.079767
O2	O	0.933961	0.134748	-0.079783
O3	O	1.072147	-0.006665	-0.079766
O4	O	1.058230	0.261817	-0.079784
O5	O	1.072128	-0.006668	0.079896
O6	O	0.933942	0.134745	0.079878
O7	O	1.196396	0.120402	0.079895
Zn8	Zn	1.065166	0.127573	0.105236
Zn9	Zn	1.065191	0.127577	-0.105125
O10	O	1.058210	0.261814	0.079878
C11	C	0.900363	0.134096	0.000045
C12	C	0.800278	0.132149	0.000039
C13	C	0.387709	0.039914	0.000067
C14	C	0.366493	0.207916	0.000055
C15	C	0.460527	0.209747	0.000052
C16	C	0.518157	0.126660	0.000055
C17	C	0.481752	0.041743	0.000061
C18	C	0.496939	0.294663	0.000035
C19	C	0.590979	0.296498	0.000031
C20	C	0.648610	0.213410	0.000041
C21	C	0.612200	0.128489	0.000049
C22	C	0.669830	0.045403	0.000052
C23	C	0.633422	-0.039520	0.000066
C24	C	0.539383	-0.041345	0.000071
C25	C	0.742649	0.215235	0.000036
C26	C	0.763873	0.047231	0.000046
C27	C	1.071488	-0.041026	0.000065
C28	C	1.069545	-0.143407	0.000065
C29	C	1.062390	-0.518299	0.000040
C30	C	1.064377	-0.413992	0.000047
C31	C	1.065967	-0.330856	0.000054
C32	C	1.067955	-0.226543	0.000059
C33	C	1.229994	0.121053	0.000064
C34	C	1.330079	0.123001	0.000064
C35	C	1.058869	0.296175	0.000044
C36	C	1.060812	0.398556	0.000038
N37	N	1.065155	0.127569	0.248803
N38	N	1.065209	0.127573	-0.248691
C39	C	1.004000	0.190170	0.701064
C40	C	1.126407	0.064977	0.701049
C41	C	1.126396	0.064974	0.600553
C42	C	1.065188	0.127571	0.550308
C43	C	1.003989	0.190171	0.600559
C44	C	1.187599	0.002381	0.550295
C45	C	1.187592	0.002376	0.449793
C46	C	1.126378	0.064970	0.399546
C47	C	1.065177	0.127571	0.449803
C48	C	1.003968	0.190168	0.399558
C49	C	0.942762	0.252767	0.449814
C50	C	0.942776	0.252764	0.550312
C51	C	1.126364	0.064972	0.299047
C52	C	1.003957	0.190169	0.299053
H53	H	0.509731	-0.110484	0.000105
H54	H	1.237428	-0.048595	0.408882
C55	C	0.936631	0.259029	0.243787
H56	H	0.945386	0.250065	0.176735
H57	H	0.946517	0.320596	0.260254
H58	H	0.876448	0.248893	0.260266
H59	H	1.237438	-0.048579	0.591208
C60	C	0.875465	0.321621	0.605594
H61	H	0.884247	0.312662	0.672643
H62	H	0.815279	0.311499	0.589144
H63	H	0.885359	0.383192	0.589112
C64	C	1.193681	-0.003873	0.243767
H65	H	1.184912	0.005094	0.176717
H66	H	1.183804	-0.065443	0.260247
H67	H	1.253865	0.006269	0.260222
H68	H	0.620614	0.365646	0.000019
H69	H	0.810790	-0.020429	0.000052
H70	H	0.680356	-0.107168	0.000062
C71	C	0.433553	0.386051	0.000019
H72	H	0.468702	0.436888	-0.000003
H73	H	0.396423	0.388836	0.055697
H74	H	0.396432	0.388819	-0.055666
C75	C	0.347665	-0.053493	0.000079
H76	H	0.283405	-0.042687	0.000077
H77	H	0.367439	-0.087710	0.055755
H78	H	0.367435	-0.087702	-0.055607
H79	H	1.176246	0.014016	0.741962
C80	C	0.303104	0.299303	0.000053
H81	H	0.241884	0.286051	0.000063
H82	H	0.314156	0.334124	-0.055624
H83	H	0.314154	0.334110	0.055738
H84	H	0.772288	0.284378	0.000026
H85	H	0.892929	0.303738	0.408893
H86	H	0.954164	0.241134	0.741984
