data_functionalizedCrystal
_audit_creation_method	'MofGen! by Chris Wilmer'
_symmetry_space_group_name_H-M	'P1'
_symmetry_Int_Tables_number	1
_symmetry_cell_setting	triclinic
loop_
_symmetry_equiv_pos_as_xyz
  x,y,z
_cell_length_a	29.839131
_cell_length_b	25.639242
_cell_length_c	25.639233
_cell_angle_alpha	90.023283
_cell_angle_beta	89.980415
_cell_angle_gamma	89.963922
loop_
_atom_site_label
_atom_site_type_symbol
_atom_site_fract_x
_atom_site_fract_y
_atom_site_fract_z
Zn1	Zn	-0.178972	-0.799215	-0.295755
Zn2	Zn	0.321028	-0.299215	0.204245
Zn3	Zn	-0.254086	-0.799134	-0.208318
Zn4	Zn	0.245914	-0.299134	0.291682
Zn5	Zn	-0.178964	-0.711791	-0.208317
Zn6	Zn	0.321036	-0.211791	0.291683
Zn7	Zn	-0.254069	-0.711732	-0.295706
Zn8	Zn	0.245931	-0.211732	0.204294
O9	O	-0.216523	-0.755468	-0.252024
O10	O	0.283477	-0.255468	0.247976
O11	O	-0.188947	-0.872370	-0.284177
O12	O	0.311053	-0.372370	0.215823
O13	O	-0.244126	-0.787539	-0.135153
O14	O	0.255874	-0.287539	0.364847
O15	O	-0.116098	-0.723447	-0.219936
O16	O	0.383902	-0.223447	0.280064
O17	O	-0.244133	-0.872310	-0.219937
O18	O	0.255867	-0.372310	0.280063
O19	O	-0.116104	-0.787677	-0.284176
O20	O	0.383896	-0.287677	0.215824
O21	O	-0.188934	-0.723369	-0.135152
O22	O	0.311066	-0.223369	0.364848
O23	O	-0.188916	-0.638618	-0.219889
O24	O	0.311084	-0.138618	0.280111
O25	O	-0.244103	-0.723346	-0.368878
O26	O	0.255897	-0.223346	0.131122
O27	O	-0.244095	-0.638575	-0.284093
O28	O	0.255905	-0.138575	0.215907
O29	O	-0.188930	-0.787619	-0.368914
O30	O	0.311070	-0.287619	0.131086
O31	O	-0.316951	-0.787482	-0.219890
O32	O	0.183049	-0.287482	0.280110
O33	O	-0.316938	-0.723268	-0.284094
O34	O	0.183062	-0.223268	0.215906
C35	C	-0.216503	-0.619626	-0.251986
C36	C	0.283497	-0.119626	0.248014
C37	C	-0.216506	-0.561512	-0.251982
C38	C	0.283494	-0.061512	0.248018
C39	C	-0.187742	-0.310332	-0.218637
C40	C	0.312258	0.189668	0.281363
C41	C	-0.187738	-0.364936	-0.218632
C42	C	0.312262	0.135064	0.281368
O43	O	-0.163256	-0.393185	-0.190259
O44	O	0.336744	0.106815	0.309741
N45	N	-0.216511	-0.392238	-0.252003
N46	N	0.283489	0.107762	0.247997
C47	C	-0.245287	-0.364932	-0.285385
C48	C	0.254713	0.135068	0.214615
O49	O	-0.269760	-0.393168	-0.313770
O50	O	0.230240	0.106832	0.186230
C51	C	-0.245288	-0.310329	-0.285392
C52	C	0.254712	0.189671	0.214608
C53	C	-0.216516	-0.283030	-0.252016
C54	C	0.283484	0.216970	0.247984
C55	C	-0.158972	-0.283033	-0.185264
C56	C	0.341028	0.216967	0.314736
C57	C	-0.158977	-0.228433	-0.185268
C58	C	0.341023	0.271567	0.314732
C59	C	-0.187751	-0.201131	-0.218646
C60	C	0.312249	0.298869	0.281354
C61	C	-0.216521	-0.228430	-0.252020
C62	C	0.283479	0.271570	0.247980
C63	C	-0.274061	-0.283024	-0.318776
C64	C	0.225939	0.216976	0.181224
C65	C	-0.274060	-0.228417	-0.318781
C66	C	0.225940	0.271583	0.181219
C67	C	-0.245288	-0.201118	-0.285404
C68	C	0.254712	0.298882	0.214596
C69	C	-0.245300	-0.146527	-0.285403
C70	C	0.254700	0.353473	0.214597
N71	N	-0.216527	-0.119226	-0.252032
N72	N	0.283473	0.380774	0.247968
C73	C	-0.187752	-0.146528	-0.218654
C74	C	0.312248	0.353472	0.281346
C75	C	-0.245281	-0.479603	-0.285368
C76	C	0.254719	0.020397	0.214632
C77	C	-0.245282	-0.534205	-0.285358
C78	C	0.254718	-0.034205	0.214642
C79	C	-0.187733	-0.534206	-0.218606
C80	C	0.312267	-0.034206	0.281394
C81	C	-0.187734	-0.479602	-0.218613
C82	C	0.312266	0.020398	0.281387
C83	C	-0.216508	-0.452301	-0.251997
C84	C	0.283492	0.047699	0.248003
C85	C	-0.187765	-0.031863	-0.218665
C86	C	0.312235	0.468137	0.281335
C87	C	-0.187773	0.022743	-0.218671
C88	C	0.312227	0.522743	0.281329
C89	C	-0.245321	0.022739	-0.285425
C90	C	0.254679	0.522739	0.214575
C91	C	-0.245314	-0.031862	-0.285417
C92	C	0.254686	0.468138	0.214583
C93	C	-0.216532	-0.059161	-0.252036
C94	C	0.283468	0.440839	0.247964
O95	O	-0.269768	-0.118244	-0.313763
O96	O	0.230232	0.381756	0.186237
O97	O	-0.163279	-0.118285	-0.190279
O98	O	0.336721	0.381715	0.309721
C99	C	-0.333245	-0.755374	-0.251998
C100	C	0.166755	-0.255374	0.248002
C101	C	-0.383180	-0.755381	-0.252004
C102	C	0.116820	-0.255381	0.247996
C103	C	-0.692817	-0.788965	-0.218642
C104	C	-0.192817	-0.288965	0.281358
C105	C	-0.880490	-0.789030	-0.218662
C106	C	-0.380490	-0.289030	0.281338
O107	O	-0.904750	-0.817509	-0.190276
O108	O	-0.404750	-0.317509	0.309724
N109	N	-0.903965	-0.755577	-0.252063
N110	N	-0.403965	-0.255577	0.247937
C111	C	-0.880518	-0.722108	-0.285464
C112	C	-0.380518	-0.222108	0.214536
O113	O	-0.904791	-0.693659	-0.313878
O114	O	-0.404791	-0.193659	0.186122
C115	C	-0.692846	-0.722046	-0.285446
C116	C	-0.192846	-0.222046	0.214554
C117	C	-0.669374	-0.755498	-0.252039
C118	C	-0.169374	-0.255498	0.247961
C119	C	-0.669345	-0.822415	-0.185238
C120	C	-0.169345	-0.322415	0.314762
C121	C	-0.622430	-0.822396	-0.185231
C122	C	-0.122430	-0.322396	0.314769
C123	C	-0.598987	-0.788928	-0.218628
C124	C	-0.098987	-0.288928	0.281372
C125	C	-0.622459	-0.755479	-0.252032
C126	C	-0.122459	-0.255479	0.247968
C127	C	-0.669400	-0.688580	-0.318849
C128	C	-0.169400	-0.188580	0.181151
C129	C	-0.622479	-0.688568	-0.318843
C130	C	-0.122479	-0.188568	0.181157
C131	C	-0.599007	-0.722020	-0.285436
C132	C	-0.099007	-0.222020	0.214564
C133	C	-0.552100	-0.721993	-0.285423
C134	C	-0.052100	-0.221993	0.214577
N135	N	-0.528625	-0.755446	-0.252022
N136	N	-0.028625	-0.255446	0.247978
C137	C	-0.552069	-0.788914	-0.218624
C138	C	-0.052069	-0.288914	0.281376
C139	C	-0.979049	-0.722141	-0.285471
C140	C	-0.479049	-0.222141	0.214529
C141	C	-1.025967	-0.722156	-0.285475
C142	C	-0.525967	-0.222156	0.214525
C143	C	-1.025936	-0.789079	-0.218673
C144	C	-0.525936	-0.289079	0.281327
C145	C	-0.979017	-0.789062	-0.218667
C146	C	-0.479017	-0.289062	0.281333
C147	C	-0.955574	-0.755595	-0.252069
C148	C	-0.455574	-0.255595	0.247931
C149	C	-0.453543	-0.788872	-0.218612
C150	C	0.046457	-0.288872	0.281388
C151	C	-0.406623	-0.788849	-0.218607
C152	C	0.093377	-0.288849	0.281393
C153	C	-0.406658	-0.721928	-0.285410
C154	C	0.093342	-0.221928	0.214590
C155	C	-0.453574	-0.721949	-0.285414
C156	C	0.046426	-0.221949	0.214586
C157	C	-0.477015	-0.755425	-0.252013
C158	C	0.022985	-0.255425	0.247987
O159	O	-0.527811	-0.693533	-0.313798
O160	O	-0.027811	-0.193533	0.186202
O161	O	-0.527788	-0.817366	-0.190223
O162	O	-0.027788	-0.317366	0.309777
C163	C	-0.739733	-0.788984	-0.218649
C164	C	-0.239733	-0.288984	0.281351
C165	C	-0.763205	-0.755535	-0.252053
C166	C	-0.263205	-0.255535	0.247947
C167	C	-0.739762	-0.722067	-0.285450
C168	C	-0.239762	-0.222067	0.214550
C169	C	-0.810123	-0.755549	-0.252057
C170	C	-0.310123	-0.255549	0.247943
C171	C	-0.833566	-0.789017	-0.218659
C172	C	-0.333566	-0.289017	0.281341
C173	C	-0.810092	-0.822470	-0.185258
C174	C	-0.310092	-0.322470	0.314742
C175	C	-0.763176	-0.822451	-0.185251
C176	C	-0.263176	-0.322451	0.314749
C177	C	-0.763236	-0.688614	-0.318851
C178	C	-0.263236	-0.188614	0.181149
C179	C	-0.810151	-0.688635	-0.318855
C180	C	-0.310151	-0.188635	0.181145
C181	C	-0.833595	-0.722102	-0.285457
C182	C	-0.333595	-0.222102	0.214543
C183	C	-0.099344	-0.755577	-0.252061
C184	C	0.400656	-0.255577	0.247939
C185	C	-0.049410	-0.755624	-0.252077
C186	C	0.450590	-0.255624	0.247923
C187	C	-0.216515	-0.755485	-0.388397
C188	C	0.283485	-0.255485	0.111603
C189	C	-0.216512	-0.755492	-0.446511
C190	C	0.283488	-0.255492	0.053489
C191	C	-0.216542	0.108159	-0.252055
C192	C	0.283458	0.608159	0.247945
C193	C	-0.216548	0.050045	-0.252049
C194	C	0.283452	0.550045	0.247951
C195	C	-0.187698	-0.789002	-0.806899
C196	C	0.312302	-0.289002	-0.306899
C197	C	-0.187685	-0.789008	-0.861503
C198	C	0.312315	-0.289008	-0.361503
O199	O	-0.163239	-0.817457	-0.889760
O200	O	0.336761	-0.317457	-0.389760
N201	N	-0.216406	-0.755550	-0.888794
N202	N	0.283594	-0.255550	-0.388794
C203	C	-0.245139	-0.722079	-0.861477
C204	C	0.254861	-0.222079	-0.361477
O205	O	-0.269567	-0.693621	-0.889704
O206	O	0.230433	-0.193621	-0.389704
C207	C	-0.245148	-0.722071	-0.806874
C208	C	0.254852	-0.222071	-0.306874
C209	C	-0.216429	-0.755535	-0.779586
C210	C	0.283571	-0.255535	-0.279586
C211	C	-0.158980	-0.822463	-0.779610
C212	C	0.341020	-0.322463	-0.279610
C213	C	-0.158993	-0.822457	-0.725010
C214	C	0.341007	-0.322457	-0.225010
C215	C	-0.187724	-0.788990	-0.697697
C216	C	0.312276	-0.288990	-0.197697
C217	C	-0.216442	-0.755529	-0.724985
C218	C	0.283558	-0.255529	-0.224985
C219	C	-0.273878	-0.688598	-0.779559
C220	C	0.226122	-0.188598	-0.279559
C221	C	-0.273885	-0.688592	-0.724952
C222	C	0.226115	-0.188592	-0.224952
C223	C	-0.245165	-0.722056	-0.697664
C224	C	0.254835	-0.222056	-0.197664
C225	C	-0.245186	-0.722056	-0.643072
C226	C	0.254814	-0.222056	-0.143072
N227	N	-0.216465	-0.755514	-0.615782
N228	N	0.283535	-0.255514	-0.115782
C229	C	-0.187734	-0.788981	-0.643094
C230	C	0.312266	-0.288981	-0.143094
C231	C	-0.245115	-0.722100	-0.976148
C232	C	0.254885	-0.222100	-0.476148
C233	C	-0.245108	-0.722110	-1.030750
C234	C	0.254892	-0.222110	-0.530750
C235	C	-0.187654	-0.789039	-1.030772
C236	C	0.312346	-0.289039	-0.530772
C237	C	-0.187664	-0.789030	-0.976169
C238	C	0.312336	-0.289030	-0.476169
C239	C	-0.216394	-0.755558	-0.948857
C240	C	0.283606	-0.255558	-0.448857
C241	C	-0.187764	-0.788967	-0.528429
C242	C	0.312236	-0.288967	-0.028429
C243	C	-0.187781	-0.788959	-0.473824
C244	C	0.312219	-0.288959	0.026176
C245	C	-0.245233	-0.722029	-0.473807
C246	C	0.254767	-0.222029	0.026193
C247	C	-0.245218	-0.722038	-0.528407
C248	C	0.254782	-0.222038	-0.028407
C249	C	-0.216480	-0.755509	-0.555717
C250	C	0.283520	-0.255509	-0.055717
O251	O	-0.269618	-0.693620	-0.614780
O252	O	0.230382	-0.193620	-0.114780
O253	O	-0.163305	-0.817430	-0.614860
O254	O	0.336695	-0.317430	-0.114860
C255	C	-0.216498	-0.755482	-0.116181
C256	C	0.283502	-0.255482	0.383819
C257	C	-0.216375	-0.755576	-0.058068
C258	C	0.283625	-0.255576	0.441932
H259	H	-0.164326	-0.054083	-0.191485
H260	H	0.335674	0.445917	0.308515
H261	H	-0.268499	-0.694866	-1.052964
H262	H	0.231501	-0.194866	-0.552964
Cl263	Cl	-0.151674	-0.831033	-0.439522
Cl264	Cl	0.348326	-0.331033	0.060478
Cl265	Cl	-0.281348	-0.679957	-0.439461
Cl266	Cl	0.218652	-0.179957	0.060539
Cl267	Cl	-0.151533	-0.831111	-1.065118
Cl268	Cl	0.348467	-0.331111	-0.565118
Cl269	Cl	-0.281241	-0.680020	-0.941819
Cl270	Cl	0.218759	-0.180020	-0.441819
H271	H	-0.829187	-0.849719	-0.158064
H272	H	-0.329187	-0.349719	0.341936
Cl273	Cl	-0.151558	-0.568538	-0.176645
Cl274	Cl	0.348442	-0.068538	0.323355
H275	H	-0.472686	-0.694712	-0.312618
H276	H	0.027314	-0.194712	0.187382
H277	H	-0.297265	-0.661347	-0.801767
H278	H	0.202735	-0.161347	-0.301767
Cl279	Cl	-1.055416	-0.831152	-0.176688
Cl280	Cl	-0.555416	-0.331152	0.323312
Cl281	Cl	-0.839653	-0.646576	-0.360856
Cl282	Cl	-0.339653	-0.146576	0.139144
H283	H	-0.164277	-0.816279	-0.953954
H284	H	0.335723	-0.316279	-0.453954
H285	H	-0.268716	-0.457378	-0.312552
H286	H	0.231284	0.042622	0.187448
H287	H	-0.268750	0.044978	-0.312599
H288	H	0.231250	0.544978	0.187401
H289	H	-0.688503	-0.661337	-0.346051
H290	H	-0.188503	-0.161337	0.153949
Cl291	Cl	-0.310233	-0.317329	-0.360740
Cl292	Cl	0.189767	0.182671	0.139260
Cl293	Cl	-0.733772	-0.646535	-0.360840
Cl294	Cl	-0.233772	-0.146535	0.139160
Cl295	Cl	-0.733676	-0.864510	-0.143254
Cl296	Cl	-0.233676	-0.364510	0.356746
Cl297	Cl	-0.151600	0.057058	-0.176708
Cl298	Cl	0.348400	0.557058	0.323292
Cl299	Cl	-0.151633	-0.831042	-0.562753
Cl300	Cl	0.348367	-0.331042	-0.062753
Cl301	Cl	-0.949585	-0.680063	-0.327466
Cl302	Cl	-0.449585	-0.180063	0.172534
Cl303	Cl	-0.310005	-0.646509	-0.690621
Cl304	Cl	0.189995	-0.146509	-0.190621
Cl305	Cl	-0.122883	-0.864525	-0.690713
Cl306	Cl	0.377117	-0.364525	-0.190713
H307	H	-0.297490	-0.206191	-0.345968
H308	H	0.202510	0.293809	0.154032
H309	H	-0.268716	-0.556427	-0.312532
H310	H	0.231284	-0.056427	0.187468
Cl311	Cl	-0.281489	-0.066181	-0.327372
Cl312	Cl	0.218511	0.433819	0.172628
H313	H	-0.135538	-0.305257	-0.158083
H314	H	0.364462	0.194743	0.341917
Cl315	Cl	-0.377118	-0.830906	-0.176607
Cl316	Cl	0.122882	-0.330906	0.323393
Cl317	Cl	-0.483004	-0.830956	-0.176622
Cl318	Cl	0.016996	-0.330956	0.323378
H319	H	-0.603322	-0.849637	-0.158030
H320	H	-0.103322	-0.349637	0.341970
H321	H	-0.135547	-0.206211	-0.158089
H322	H	0.364453	0.293789	0.341911
Cl323	Cl	-0.698809	-0.864494	-0.143247
Cl324	Cl	-0.198809	-0.364494	0.356753
H325	H	-0.268608	-0.694794	-0.550626
H326	H	0.231392	-0.194794	-0.050626
H327	H	-0.135581	-0.849716	-0.801843
H328	H	0.364419	-0.349716	-0.301843
H329	H	-0.164304	-0.457379	-0.191437
H330	H	0.335696	0.042621	0.308563
H331	H	-0.959909	-0.816301	-0.191464
H332	H	-0.459909	-0.316301	0.308536
Cl333	Cl	-1.055469	-0.680095	-0.327468
Cl334	Cl	-0.555469	-0.180095	0.172532
Cl335	Cl	-0.593012	-0.646494	-0.360838
Cl336	Cl	-0.093012	-0.146494	0.139162
Cl337	Cl	-0.377178	-0.679859	-0.327396
Cl338	Cl	0.122822	-0.179859	0.172604
