data_functionalizedCrystal
_audit_creation_method	'MofGen! by Chris Wilmer'
_symmetry_space_group_name_H-M	'P1'
_symmetry_Int_Tables_number	1
_symmetry_cell_setting	triclinic
loop_
_symmetry_equiv_pos_as_xyz
  x,y,z
_cell_length_a	10.654550
_cell_length_b	10.654550
_cell_length_c	9.130313
_cell_angle_alpha	90.004369
_cell_angle_beta	90.000276
_cell_angle_gamma	84.484931
loop_
_atom_site_label
_atom_site_type_symbol
_atom_site_fract_x
_atom_site_fract_y
_atom_site_fract_z
O1	O	-1.667839	-0.176399	-0.121690
O2	O	-1.302361	-0.193205	-0.121716
O3	O	-1.493503	-0.002063	-0.121693
O4	O	-1.476697	-0.367541	-0.121713
O5	O	-1.493490	-0.002057	0.121906
O6	O	-1.302348	-0.193199	0.121882
O7	O	-1.667826	-0.176393	0.121909
Cu8	Cu	-1.485086	-0.184796	0.144138
Cu9	Cu	-1.485101	-0.184802	-0.143946
O10	O	-1.476684	-0.367535	0.121886
C11	C	-1.492263	0.044738	0.000105
C12	C	-1.488571	0.184181	0.000103
C13	C	-1.255556	-0.191968	0.000080
C14	C	-1.116113	-0.188276	0.000070
C15	C	-1.714631	-0.177630	0.000110
C16	C	-1.854074	-0.181322	0.000110
C17	C	-1.036628	-0.300818	0.000068
C18	C	-0.905607	-0.297341	0.000093
C19	C	-0.933570	-0.068772	0.000117
C20	C	-1.064588	-0.072250	0.000101
C21	C	-1.477925	-0.414336	0.000084
C22	C	-1.481616	-0.553779	0.000077
N23	N	-1.485084	-0.184790	0.346761
C24	C	-1.601112	0.263667	0.000111
C25	C	-1.597636	0.394688	0.000092
C26	C	-1.369066	0.366725	0.000065
C27	C	-1.372544	0.235706	0.000073
N28	N	-1.485113	-0.184798	-0.346568
C29	C	-1.569751	-0.100188	0.423423
C30	C	-1.569763	-0.100189	0.576760
C31	C	-1.400437	-0.269404	0.576759
C32	C	-1.400420	-0.269396	0.423425
H33	H	-1.078574	-0.395294	0.000053
O34	O	-1.713923	0.213822	0.000057
C35	C	-1.812508	0.312080	0.000091
H36	H	-1.776524	0.401371	-0.046030
H37	H	-1.893443	0.283999	-0.070630
H38	H	-1.847276	0.330324	0.116958
H39	H	-1.638687	-0.031295	0.361007
O40	O	-1.318154	-0.351419	0.651399
C41	C	-1.240089	-0.283439	0.740094
H42	H	-1.289261	-0.185628	0.763069
H43	H	-1.220691	-0.335681	0.847914
H44	H	-1.147189	-0.274040	0.681021
H45	H	-0.840894	-0.388984	0.000095
O46	O	-1.652131	-0.017963	0.651002
C47	C	-1.726825	0.056732	0.550449
H48	H	-1.728675	0.005226	0.441142
H49	H	-1.826958	0.074954	0.594740
H50	H	-1.685244	0.150413	0.534158
H51	H	-0.891602	0.025693	0.000151
H52	H	-1.129309	0.019401	0.000107
O53	O	-1.706926	0.471950	-0.000157
C54	C	-1.711755	0.548577	-0.126309
H55	H	-1.647957	0.501149	-0.214493
H56	H	-1.812796	0.562418	-0.168645
H57	H	-1.678418	0.644123	-0.097802
H58	H	-1.274601	0.408693	0.000043
H59	H	-1.280893	0.170985	0.000062
H60	H	-1.331468	-0.338290	0.361002
