data_functionalizedCrystal
_audit_creation_method	'MofGen! by Chris Wilmer'
_symmetry_space_group_name_H-M	'P1'
_symmetry_Int_Tables_number	1
_symmetry_cell_setting	triclinic
loop_
_symmetry_equiv_pos_as_xyz
  x,y,z
_cell_length_a	16.992694
_cell_length_b	27.731996
_cell_length_c	15.455313
_cell_angle_alpha	87.363736
_cell_angle_beta	92.857794
_cell_angle_gamma	86.644806
loop_
_atom_site_label
_atom_site_type_symbol
_atom_site_fract_x
_atom_site_fract_y
_atom_site_fract_z
O1	O	1.042576	0.100468	0.072041
O2	O	1.375909	0.433801	0.405374
O3	O	1.709243	0.767135	0.738708
O4	O	0.814306	0.099344	0.072066
O5	O	1.147639	0.432677	0.405400
O6	O	1.480973	0.766010	0.738733
O7	O	0.935551	0.029815	0.072034
O8	O	1.268884	0.363149	0.405367
O9	O	1.602218	0.696482	0.738701
O10	O	0.921331	0.169996	0.072073
O11	O	1.254664	0.503330	0.405406
O12	O	1.587998	0.836663	0.738740
O13	O	0.928618	0.033774	-0.072226
O14	O	1.261951	0.367107	0.261107
O15	O	1.595284	0.700440	0.594440
O16	O	0.807373	0.103302	-0.072194
O17	O	1.140706	0.436635	0.261139
O18	O	1.474039	0.769969	0.594473
O19	O	1.035643	0.104427	-0.072219
O20	O	1.368976	0.437760	0.261114
O21	O	1.702310	0.771093	0.594447
Cu22	Cu	0.920875	0.104226	-0.085379
Cu23	Cu	1.254208	0.437559	0.247954
Cu24	Cu	1.587541	0.770892	0.581288
Cu25	Cu	0.929074	0.099544	0.085226
Cu26	Cu	1.262407	0.432878	0.418559
Cu27	Cu	1.595741	0.766211	0.751892
O28	O	0.914398	0.173955	-0.072187
O29	O	1.247731	0.507288	0.261146
O30	O	1.581065	0.840622	0.594479
C31	C	0.781645	0.099877	-0.000061
C32	C	1.114978	0.433210	0.333272
C33	C	1.448312	0.766543	0.666606
C34	C	0.694655	0.095563	-0.000052
C35	C	1.027988	0.428896	0.333281
C36	C	1.361321	0.762229	0.666614
C37	C	0.931792	0.013775	-0.000099
C38	C	1.265125	0.347108	0.333234
C39	C	1.598459	0.680441	0.666568
C40	C	0.930912	-0.039919	-0.000108
C41	C	1.264245	0.293414	0.333225
C42	C	1.597578	0.626747	0.666559
C43	C	0.643898	0.137186	-0.000041
C44	C	0.977231	0.470519	0.333292
C45	C	1.310564	0.803853	0.666625
C46	C	0.562161	0.133130	-0.000054
C47	C	0.895494	0.466464	0.333279
C48	C	1.228828	0.799797	0.666612
C49	C	0.531183	0.087450	-0.000072
C50	C	0.864516	0.420783	0.333261
C51	C	1.197850	0.754117	0.666594
C52	C	0.581946	0.045824	-0.000086
C53	C	0.915280	0.379157	0.333248
C54	C	1.248613	0.712490	0.666581
C55	C	0.663681	0.049880	-0.000079
C56	C	0.997014	0.383214	0.333255
C57	C	1.330348	0.716547	0.666588
C58	C	0.287793	0.070637	-0.000100
C59	C	0.621126	0.403971	0.333233
C60	C	0.954459	0.737304	0.666567
C61	C	0.206051	0.066584	-0.000104
C62	C	0.539385	0.399917	0.333229
C63	C	0.872718	0.733250	0.666562
C64	C	0.186272	0.153891	-0.000075
C65	C	0.519605	0.487224	0.333259
C66	C	0.852938	0.820558	0.666592
C67	C	0.268009	0.157943	-0.000063
C68	C	0.601343	0.491277	0.333271
C69	C	0.934676	0.824610	0.666604
C70	C	0.318765	0.116317	-0.000081
C71	C	0.652099	0.449650	0.333253
C72	C	0.985432	0.782984	0.666586
N73	N	0.447635	0.083303	-0.000083
N74	N	0.780968	0.416637	0.333250
N75	N	1.114302	0.749970	0.666584
N76	N	0.402311	0.120464	-0.000076
N77	N	0.735644	0.453798	0.333257
N78	N	1.068978	0.787131	0.666591
C79	C	0.929157	-0.375034	0.078571
C80	C	1.262490	-0.041701	0.411905
C81	C	1.595823	0.291633	0.745238
C82	C	0.925816	-0.576837	0.078587
C83	C	1.259149	-0.243504	0.411920
C84	C	1.592483	0.089829	0.745254
O85	O	0.928564	-0.604763	0.145465
O86	O	1.261898	-0.271430	0.478798
O87	O	1.595231	0.061904	0.812131
N88	N	0.921622	-0.599915	-0.000048
N89	N	1.254955	-0.266581	0.333285
N90	N	1.588288	0.066752	0.666618
C91	C	0.918257	-0.572538	-0.078693
C92	C	1.251591	-0.239204	0.254640
C93	C	1.584924	0.094129	0.587973
O94	O	0.914605	-0.596796	-0.145577
O95	O	1.247938	-0.263463	0.187756
O96	O	1.581272	0.069870	0.521089
C97	C	0.921592	-0.370735	-0.078708
C98	C	1.254926	-0.037402	0.254625
C99	C	1.588259	0.295931	0.587959
C100	C	0.925795	-0.347661	-0.000068
C101	C	1.259128	-0.014328	0.333266
C102	C	1.592462	0.319006	0.666599
C103	C	0.933358	-0.351960	0.157206
C104	C	1.266691	-0.018626	0.490539
C105	C	1.600025	0.314707	0.823872
C106	C	0.934197	-0.301512	0.157201
C107	C	1.267531	0.031821	0.490534
C108	C	1.600864	0.365155	0.823868
C109	C	0.930835	-0.274139	0.078562
C110	C	1.264169	0.059194	0.411895
C111	C	1.597502	0.392528	0.745229
C112	C	0.926634	-0.297213	-0.000072
C113	C	1.259968	0.036120	0.333261
C114	C	1.593301	0.369453	0.666594
C115	C	0.918222	-0.343359	-0.157352
C116	C	1.251556	-0.010026	0.175981
C117	C	1.584889	0.323308	0.509314
C118	C	0.919055	-0.292905	-0.157349
C119	C	1.252388	0.040428	0.175984
C120	C	1.585721	0.373761	0.509318
C121	C	0.923257	-0.269831	-0.078708
C122	C	1.256590	0.063502	0.254625
C123	C	1.589924	0.396836	0.587958
C124	C	0.924112	-0.219393	-0.078716
C125	C	1.257445	0.113941	0.254617
C126	C	1.590778	0.447274	0.587951
N127	N	0.928306	-0.196315	-0.000080
N128	N	1.261639	0.137018	0.333253
N129	N	1.594973	0.470351	0.666586
C130	C	0.931668	-0.223688	0.078559
C131	C	1.265001	0.109645	0.411892
C132	C	1.598335	0.442978	0.745225
C133	C	0.916508	-0.678487	-0.078680
C134	C	1.249841	-0.345154	0.254653
C135	C	1.583175	-0.011820	0.587987
C136	C	0.915676	-0.728937	-0.078677
C137	C	1.249009	-0.395604	0.254657
C138	C	1.582342	-0.062271	0.587990
C139	C	0.923233	-0.733234	0.078604
C140	C	1.256566	-0.399900	0.411937
C141	C	1.589900	-0.066567	0.745271
C142	C	0.924071	-0.682782	0.078600
C143	C	1.257404	-0.349449	0.411933
C144	C	1.590738	-0.016116	0.745266
C145	C	0.920702	-0.655410	-0.000045
C146	C	1.254036	-0.322076	0.333289
C147	C	1.587369	0.011257	0.666622
C148	C	0.933431	-0.117745	0.078543
C149	C	1.266764	0.215589	0.411876
C150	C	1.600098	0.548922	0.745209
C151	C	0.934273	-0.067293	0.078531
C152	C	1.267607	0.266041	0.411864
C153	C	1.600940	0.599374	0.745198
C154	C	0.926712	-0.063001	-0.078749
C155	C	1.260045	0.270333	0.254584
C156	C	1.593379	0.603666	0.587918
C157	C	0.925874	-0.113449	-0.078738
C158	C	1.259207	0.219885	0.254595
C159	C	1.592541	0.553218	0.587929
C160	C	0.929231	-0.140819	-0.000085
C161	C	1.262564	0.192514	0.333248
C162	C	1.595898	0.525847	0.666582
O163	O	0.921357	-0.191436	-0.145558
O164	O	1.254690	0.141897	0.187775
O165	O	1.588023	0.475230	0.521108
O166	O	0.935302	-0.199420	0.145433
O167	O	1.268636	0.133913	0.478766
O168	O	1.601969	0.467247	0.812099
C169	C	0.928317	-0.425482	0.078576
C170	C	1.261651	-0.092148	0.411909
C171	C	1.594984	0.241185	0.745243
C172	C	0.924116	-0.448556	-0.000058
C173	C	1.257449	-0.115223	0.333275
C174	C	1.590783	0.218110	0.666609
C175	C	0.920754	-0.421183	-0.078697
C176	C	1.254088	-0.087850	0.254636
C177	C	1.587421	0.245484	0.587970
C178	C	0.923284	-0.499007	-0.000055
C179	C	1.256617	-0.165673	0.333279
C180	C	1.589950	0.167660	0.666612
C181	C	0.926645	-0.526380	0.078584
C182	C	1.259979	-0.193046	0.411918
C183	C	1.593312	0.140287	0.745251
C184	C	0.930840	-0.503302	0.157220
C185	C	1.264173	-0.169969	0.490553
C186	C	1.597506	0.163364	0.823886
C187	C	0.931679	-0.452855	0.157215
C188	C	1.265012	-0.119521	0.490548
C189	C	1.598346	0.213812	0.823882
C190	C	0.916560	-0.444260	-0.157333
C191	C	1.249893	-0.110927	0.176001
C192	C	1.583227	0.222406	0.509334
C193	C	0.915722	-0.494708	-0.157321
C194	C	1.249055	-0.161375	0.176012
C195	C	1.582388	0.171958	0.509345
C196	C	0.919084	-0.522081	-0.078682
C197	C	1.252417	-0.188748	0.254651
C198	C	1.585750	0.144585	0.587984
C199	C	1.068304	0.103893	-0.000090
C200	C	1.401637	0.437227	0.333243
C201	C	1.734971	0.770560	0.666576
C202	C	1.155294	0.108207	-0.000093
C203	C	1.488628	0.441541	0.333240
C204	C	1.821961	0.774874	0.666573
C205	C	0.918157	0.189996	-0.000052
C206	C	1.251490	0.523329	0.333281
C207	C	1.584823	0.856662	0.666614
C208	C	0.919037	0.243689	-0.000038
C209	C	1.252371	0.577023	0.333296
C210	C	1.585704	0.910356	0.666629
N211	N	0.915114	0.107518	-0.205373
N212	N	1.248447	0.440852	0.127960
N213	N	1.581780	0.774185	0.461294
C214	C	0.966640	0.077992	-0.250781
C215	C	1.299974	0.411326	0.082553
C216	C	1.633307	0.744659	0.415886
C217	C	0.962291	0.080487	-0.341587
C218	C	1.295624	0.413821	-0.008254
C219	C	1.628957	0.747154	0.325079
C220	C	0.906417	0.112511	-0.386985
C221	C	1.239751	0.445844	-0.053651
C222	C	1.573084	0.779177	0.279682
C223	C	0.854885	0.142037	-0.341571
C224	C	1.188218	0.475371	-0.008237
C225	C	1.521552	0.808704	0.325096
C226	C	0.859232	0.139540	-0.250765
C227	C	1.192565	0.472873	0.082568
C228	C	1.525898	0.806207	0.415901
C229	C	0.887656	0.123278	-0.658561
C230	C	1.220989	0.456611	-0.325228
C231	C	1.554323	0.789944	0.008106
C232	C	0.883315	0.125774	-0.749373
C233	C	1.216648	0.459107	-0.416039
C234	C	1.549981	0.792441	-0.082706
C235	C	0.990720	0.064223	-0.749383
C236	C	1.324053	0.397556	-0.416050
C237	C	1.657386	0.730890	-0.082717
C238	C	0.995065	0.061730	-0.658576
C239	C	1.328398	0.395064	-0.325243
C240	C	1.661731	0.728397	0.008090
C241	C	0.943530	0.091255	-0.613170
C242	C	1.276863	0.424589	-0.279837
C243	C	1.610196	0.757922	0.053497
N244	N	0.901971	0.115062	-0.479804
N245	N	1.235305	0.448396	-0.146470
N246	N	1.568638	0.781729	0.186863
N247	N	0.947972	0.088701	-0.520353
N248	N	1.281306	0.422034	-0.187019
N249	N	1.614639	0.755367	0.146314
N250	N	0.934841	0.096248	0.205220
N251	N	1.268175	0.429582	0.538553
N252	N	1.601508	0.762915	0.871886
H253	H	0.520837	0.167025	-0.000044
H254	H	0.854171	0.500358	0.333289
H255	H	1.187504	0.833691	0.666622
O256	O	0.928590	-0.657895	0.163417
O257	O	1.261923	-0.324562	0.496751
O258	O	1.595256	0.008772	0.830084
H259	H	0.930781	-0.685410	0.218096
H260	H	1.264114	-0.352076	0.551429
H261	H	1.597448	-0.018743	0.884762
O262	O	0.936207	-0.427971	0.242035
O263	O	1.269541	-0.094637	0.575369
O264	O	1.602874	0.238696	0.908702
H265	H	0.883335	-0.402839	0.245803
H266	H	1.216668	-0.069506	0.579136
H267	H	1.550002	0.263827	0.912469
O268	O	0.936977	-0.381473	0.242038
O269	O	1.270310	-0.048139	0.575371
O270	O	1.603643	0.285194	0.908704
H271	H	0.990211	-0.406810	0.245810
H272	H	1.323544	-0.073476	0.579143
H273	H	1.656878	0.259857	0.912477
H274	H	0.817272	0.163582	-0.213795
H275	H	1.150605	0.496916	0.119538
H276	H	1.483939	0.830249	0.452871
O277	O	1.046294	0.032378	-0.798364
O278	O	1.379628	0.365712	-0.465030
O279	O	1.712961	0.699045	-0.131697
H280	H	1.108143	0.040441	-0.780928
H281	H	1.441477	0.373774	-0.447595
H282	H	1.774810	0.707108	-0.114261
H283	H	0.837813	0.151853	-0.786331
H284	H	1.171147	0.485187	-0.452998
H285	H	1.504480	0.818520	-0.119664
H286	H	0.329109	0.036742	-0.000116
H287	H	0.662442	0.370075	0.333218
H288	H	0.995775	0.703409	0.666551
O289	O	0.921353	-0.138346	-0.163550
O290	O	1.254686	0.194988	0.169784
O291	O	1.588020	0.528321	0.503117
H292	H	0.866264	-0.125387	-0.201252
H293	H	1.199597	0.207947	0.132081
H294	H	1.532930	0.541280	0.465414
H295	H	0.705007	0.015986	-0.000087
H296	H	1.038341	0.349319	0.333246
H297	H	1.371674	0.682652	0.666579
O298	O	0.934453	-0.532828	0.242042
O299	O	1.267787	-0.199495	0.575376
O300	O	1.601120	0.133838	0.908709
H301	H	0.987682	-0.558170	0.245804
H302	H	1.321015	-0.224837	0.579137
H303	H	1.654349	0.108497	0.912470
H304	H	0.912306	-0.513491	-0.221365
H305	H	1.245639	-0.180158	0.111968
H306	H	1.578972	0.153176	0.445302
O307	O	0.926849	-0.762761	0.163426
O308	O	1.260182	-0.429427	0.496759
O309	O	1.593516	-0.096094	0.830092
H310	H	0.925556	-0.801717	0.150208
H311	H	1.258889	-0.468384	0.483542
H312	H	1.592222	-0.135050	0.816875
O313	O	1.017879	0.048651	-0.390567
O314	O	1.351213	0.381985	-0.057233
O315	O	1.684546	0.715318	0.276100
H316	H	1.057473	0.025972	-0.343744
H317	H	1.390806	0.359305	-0.010410
H318	H	1.724139	0.692638	0.322923
H319	H	0.936161	-0.140024	0.142589
H320	H	1.269494	0.193309	0.475923
H321	H	1.602828	0.526643	0.809256
O322	O	0.911150	-0.753824	-0.163495
O323	O	1.244483	-0.420490	0.169838
O324	O	1.577817	-0.087157	0.503172
H325	H	0.908944	-0.726308	-0.218173
H326	H	1.242278	-0.392975	0.115160
H327	H	1.575611	-0.059642	0.448493
O328	O	0.677307	0.186456	-0.000020
O329	O	1.010641	0.519789	0.333313
O330	O	1.343974	0.853123	0.666647
H331	H	0.711261	0.192003	-0.058811
H332	H	1.044594	0.525337	0.274522
H333	H	1.377928	0.858670	0.607856
O334	O	0.912948	-0.414740	-0.242154
O335	O	1.246282	-0.081406	0.091179
O336	O	1.579615	0.251927	0.424513
H337	H	0.909900	-0.439267	-0.296826
H338	H	1.243234	-0.105934	0.036507
H339	H	1.576567	0.227399	0.369840
O340	O	0.913682	-0.368235	-0.242177
O341	O	1.247015	-0.034902	0.091157
O342	O	1.580349	0.298432	0.424490
H343	H	0.966557	-0.393362	-0.245965
H344	H	1.299890	-0.060028	0.087368
H345	H	1.633224	0.273305	0.420701
O346	O	0.832082	0.155126	-0.609591
O347	O	1.165415	0.488459	-0.276258
O348	O	1.498749	0.821792	0.057075
H349	H	0.792508	0.177817	-0.656417
H350	H	1.125842	0.511150	-0.323084
H351	H	1.459175	0.844483	0.010250
O352	O	0.794627	0.176580	-0.390535
O353	O	1.127961	0.509914	-0.057202
O354	O	1.461294	0.843247	0.276131
H355	H	0.759525	0.196690	-0.343702
H356	H	1.092858	0.530024	-0.010369
H357	H	1.426192	0.863357	0.322965
H358	H	1.012142	0.051918	-0.213824
H359	H	1.345475	0.385251	0.119509
H360	H	1.678808	0.718585	0.452842
H361	H	0.293225	0.195140	-0.000038
H362	H	0.626559	0.528474	0.333295
H363	H	0.959892	0.861807	0.666629
H364	H	0.144938	0.187781	-0.000062
H365	H	0.478271	0.521114	0.333272
H366	H	0.811604	0.854447	0.666605
H367	H	0.180833	0.029384	-0.000118
H368	H	0.514166	0.362717	0.333215
H369	H	0.847500	0.696051	0.666549
O370	O	0.548540	-0.003447	-0.000108
O371	O	0.881874	0.329886	0.333225
O372	O	1.215207	0.663219	0.666559
H373	H	0.483178	0.000723	-0.000103
H374	H	0.816511	0.334057	0.333230
H375	H	1.149844	0.667390	0.666564
H376	H	0.916300	-0.270620	-0.221392
H377	H	1.249633	0.062713	0.111941
H378	H	1.582966	0.396046	0.445274
H379	H	0.937698	-0.048508	0.142573
H380	H	1.271031	0.284825	0.475906
H381	H	1.604364	0.618158	0.809239
O382	O	1.055321	0.027187	-0.609611
O383	O	1.388655	0.360520	-0.276278
O384	O	1.721988	0.693853	0.057055
H385	H	1.090416	0.007070	-0.656443
H386	H	1.423749	0.340404	-0.323109
H387	H	1.757083	0.673737	0.010224
H388	H	0.937616	-0.282729	0.221238
H389	H	1.270950	0.050604	0.554572
H390	H	1.604283	0.383937	0.887905
H391	H	0.913768	-0.656205	-0.142726
H392	H	1.247102	-0.322871	0.190608
H393	H	1.580435	0.010462	0.523941
H394	H	0.923979	-0.040705	-0.142775
H395	H	1.257312	0.292629	0.190558
H396	H	1.590645	0.625962	0.523892
