data_functionalizedCrystal
_audit_creation_method	'MofGen! by Chris Wilmer'
_symmetry_space_group_name_H-M	'P1'
_symmetry_Int_Tables_number	1
_symmetry_cell_setting	triclinic
loop_
_symmetry_equiv_pos_as_xyz
  x,y,z
_cell_length_a	16.109301
_cell_length_b	16.109301
_cell_length_c	15.186229
_cell_angle_alpha	89.999362
_cell_angle_beta	89.994833
_cell_angle_gamma	83.461481
loop_
_atom_site_label
_atom_site_type_symbol
_atom_site_fract_x
_atom_site_fract_y
_atom_site_fract_z
O1	O	0.106866	1.103131	-0.073176
O2	O	0.606866	1.603131	0.426824
O3	O	0.120165	0.861069	-0.073190
O4	O	0.620165	1.361069	0.426810
O5	O	-0.007515	0.988749	-0.073174
O6	O	0.492485	1.488749	0.426826
O7	O	0.234547	0.975450	-0.073192
O8	O	0.734547	1.475450	0.426808
O9	O	-0.007517	0.988741	0.073284
O10	O	0.492483	1.488741	0.573284
O11	O	0.120164	0.861060	0.073267
O12	O	0.620164	1.361060	0.573267
O13	O	0.106864	1.103122	0.073282
O14	O	0.606864	1.603122	0.573282
Zn15	Zn	0.113514	0.982090	0.096528
Zn16	Zn	0.613514	1.482090	0.596528
Zn17	Zn	0.113516	0.982101	-0.096436
Zn18	Zn	0.613516	1.482101	0.403564
O19	O	0.234545	0.975441	0.073265
O20	O	0.734545	1.475441	0.573265
C21	C	0.119626	0.830090	0.000037
C22	C	0.619626	1.330090	0.500037
C23	C	0.118011	0.737794	0.000032
C24	C	0.618011	1.237794	0.500032
C25	C	-0.038491	0.988206	0.000056
C26	C	0.461509	1.488206	0.500056
C27	C	-0.130786	0.986591	0.000057
C28	C	0.369214	1.486591	0.500057
C29	C	0.190018	0.515522	0.000036
C30	C	0.690018	1.015522	0.500036
C31	C	0.188494	0.428801	0.000042
C32	C	0.688494	0.928801	0.500042
C33	C	0.037006	0.448676	0.000050
C34	C	0.537006	0.948676	0.500050
C35	C	0.038530	0.535394	0.000051
C36	C	0.538530	1.035394	0.500051
C37	C	0.115039	0.568815	0.000039
C38	C	0.615039	1.068815	0.500039
C39	C	0.111990	0.395376	0.000045
C40	C	0.611990	0.895376	0.500045
C41	C	0.110337	0.301350	0.000051
C42	C	0.610337	0.801350	0.500051
C43	C	0.116693	0.662847	0.000035
C44	C	0.616693	1.162847	0.500035
C45	C	-0.353059	1.058599	0.000047
C46	C	0.146941	1.558599	0.500047
C47	C	-0.439779	1.057075	0.000040
C48	C	0.060221	1.557075	0.500040
C49	C	-0.419905	0.905586	0.000034
C50	C	0.080095	1.405586	0.500034
C51	C	-0.333186	0.907111	0.000035
C52	C	0.166814	1.407111	0.500035
C53	C	-0.299766	0.983620	0.000046
C54	C	0.200234	1.483620	0.500046
C55	C	-0.473205	0.980571	0.000038
C56	C	0.026795	1.480571	0.500038
C57	C	-0.567231	0.978918	0.000030
C58	C	-0.067231	1.478918	0.500030
C59	C	-0.205734	0.985273	0.000052
C60	C	0.294266	1.485273	0.500052
C61	C	0.265521	0.975984	0.000034
C62	C	0.765521	1.475984	0.500034
C63	C	0.357816	0.977600	0.000027
C64	C	0.857816	1.477600	0.500027
N65	N	0.113511	0.982088	0.228220
N66	N	0.613511	1.482088	0.728220
C67	C	0.107404	1.134101	0.000053
C68	C	0.607404	1.634101	0.500053
C69	C	0.109019	1.226397	0.000052
C70	C	0.609019	1.726397	0.500052
N71	N	0.113512	0.982109	-0.228129
N72	N	0.613512	1.482109	0.271871
C73	C	0.056994	1.038644	0.453950
C74	C	0.556994	1.538644	0.953950
C75	C	0.056992	1.038647	0.546140
C76	C	0.556992	1.538647	1.046140
C77	C	0.170032	0.925547	0.546135
C78	C	0.670032	1.425547	1.046135
C79	C	0.170030	0.925541	0.453947
C80	C	0.670030	1.425541	0.953947
C81	C	0.113511	0.982094	0.407857
C82	C	0.613511	1.482094	0.907857
C83	C	0.113512	0.982103	0.592235
C84	C	0.613512	1.482103	1.092235
C85	C	0.113510	0.982105	0.692191
C86	C	0.613510	1.482105	1.192191
C87	C	0.113512	0.982091	0.307894
C88	C	0.613512	1.482091	0.807894
H89	H	0.252317	0.542730	0.000034
H90	H	0.752317	1.042730	0.500034
C91	C	-0.112581	0.477032	0.000058
C92	C	0.387419	0.977032	0.500058
C93	C	-0.047091	0.411938	0.000052
C94	C	0.452909	0.911938	0.500052
H95	H	-0.164499	0.454351	0.000062
H96	H	0.335501	0.954351	0.500062
H97	H	-0.108831	0.510442	-0.051010
H98	H	0.391169	1.010442	0.448990
H99	H	-0.108833	0.510440	0.051136
H100	H	0.391167	1.010440	0.551136
H101	H	-0.050835	0.378533	-0.051030
H102	H	0.449165	0.878533	0.448970
H103	H	-0.050842	0.378513	0.051125
H104	H	0.449158	0.878513	0.551125
H105	H	-0.022530	0.578788	0.000056
H106	H	0.477470	1.078788	0.500056
H107	H	-0.483168	1.118130	0.000039
H108	H	0.016832	1.618130	0.500039
H109	H	0.216053	0.879487	0.416415
H110	H	0.716053	1.379487	0.916415
H111	H	-0.289792	0.846050	0.000032
H112	H	0.210208	1.346050	0.500032
C113	C	0.338385	0.417873	0.000021
C114	C	0.838385	0.917873	0.500021
C115	C	0.270914	0.370221	0.000032
C116	C	0.770914	0.870221	0.500032
H117	H	0.389269	0.381706	0.000010
H118	H	0.889269	0.881706	0.500010
H119	H	0.335829	0.452108	0.051090
H120	H	0.835829	0.952108	0.551090
H121	H	0.335821	0.452112	-0.051056
H122	H	0.835821	0.952112	0.448944
H123	H	0.273474	0.335987	0.051113
H124	H	0.773474	0.835987	0.551113
H125	H	0.273471	0.335972	-0.051042
H126	H	0.773471	0.835972	0.448958
C127	C	0.218806	0.781611	0.574534
C128	C	0.718806	1.281611	1.074534
C129	C	0.232156	0.863389	0.596803
C130	C	0.732156	1.363389	1.096803
H131	H	0.257157	0.743239	0.605820
H132	H	0.757157	1.243239	1.105820
H133	H	0.226898	0.773517	0.513042
H134	H	0.726898	1.273517	1.013042
H135	H	0.163312	0.772613	0.589654
H136	H	0.663312	1.272613	1.089654
H137	H	0.287648	0.872389	0.581678
H138	H	0.787648	1.372389	1.081678
H139	H	0.224070	0.871486	0.658309
H140	H	0.724070	1.371486	1.158309
C141	C	-0.056188	1.056661	0.350339
C142	C	0.443812	1.556661	0.850339
C143	C	-0.005175	1.100779	0.403309
C144	C	0.494825	1.600779	0.903309
H145	H	-0.094578	1.095016	0.319081
H146	H	0.405422	1.595016	0.819081
H147	H	-0.086059	1.022049	0.386327
H148	H	0.413941	1.522049	0.886327
H149	H	-0.022520	1.023006	0.309676
H150	H	0.477480	1.523006	0.809676
H151	H	-0.038842	1.134429	0.443977
H152	H	0.461158	1.634429	0.943977
H153	H	0.024698	1.135405	0.367318
H154	H	0.524698	1.635405	0.867318
H155	H	0.010969	1.084694	0.583667
H156	H	0.510969	1.584694	1.083667
H157	H	-0.325851	1.120897	0.000054
H158	H	0.174149	1.620897	0.500054
C159	C	-0.544015	0.835984	0.000041
C160	C	-0.044015	1.335984	0.500041
C161	C	-0.456644	0.821490	0.000035
C162	C	0.043356	1.321490	0.500035
H163	H	-0.566692	0.784064	0.000050
H164	H	-0.066692	1.284064	0.500050
H165	H	-0.562301	0.866848	-0.051029
H166	H	-0.062301	1.366848	0.448971
H167	H	-0.562303	0.866857	0.051117
H168	H	-0.062303	1.366857	0.551117
H169	H	-0.438355	0.790622	-0.051045
H170	H	0.061645	1.290622	0.448955
H171	H	-0.438350	0.790613	0.051110
H172	H	0.061650	1.290613	0.551110
