data_functionalizedCrystal
_audit_creation_method	'MofGen! by Chris Wilmer'
_symmetry_space_group_name_H-M	'P1'
_symmetry_Int_Tables_number	1
_symmetry_cell_setting	triclinic
loop_
_symmetry_equiv_pos_as_xyz
  x,y,z
_cell_length_a	18.050591
_cell_length_b	18.050588
_cell_length_c	14.908308
_cell_angle_alpha	86.733716
_cell_angle_beta	86.717565
_cell_angle_gamma	90.028402
loop_
_atom_site_label
_atom_site_type_symbol
_atom_site_fract_x
_atom_site_fract_y
_atom_site_fract_z
Zn1	Zn	1.111079	-0.319896	0.509990
Zn2	Zn	1.118147	-0.436931	0.359135
Zn3	Zn	0.994057	-0.312758	0.359160
Zn4	Zn	0.986845	-0.444044	0.509955
O5	O	1.052532	-0.378407	0.434560
O6	O	1.215941	-0.335431	0.489983
O7	O	1.107663	-0.414495	0.232896
O8	O	1.009641	-0.209781	0.379193
O9	O	1.221134	-0.421416	0.379150
O10	O	1.095616	-0.215025	0.490007
O11	O	1.016494	-0.323265	0.232914
O12	O	0.889176	-0.330163	0.379159
O13	O	0.997348	-0.433540	0.636201
O14	O	0.883877	-0.426619	0.489947
O15	O	1.088622	-0.342329	0.636227
O16	O	1.100669	-0.541798	0.379116
O17	O	1.004202	-0.547024	0.489923
C18	C	0.859580	-0.378389	0.434552
C19	C	0.777033	-0.378400	0.434571
C20	C	0.525352	-0.430951	0.494735
C21	C	0.578630	-0.445120	0.412393
C22	C	0.479913	-0.378423	0.434569
C23	C	0.573717	-0.364277	0.516907
C24	C	0.625898	-0.378413	0.434574
C25	C	0.532106	-0.392625	0.352183
C26	C	0.527186	-0.311753	0.456753
C27	C	0.580445	-0.325894	0.374354
C28	C	0.395815	-0.378430	0.434567
C29	C	0.709995	-0.378406	0.434567
C30	C	1.052439	-0.571358	0.434533
C31	C	1.052466	-0.653905	0.434551
C32	C	1.000085	-0.905599	0.494809
C33	C	1.066751	-0.857181	0.516940
C34	C	1.052618	-0.951027	0.434602
C35	C	0.985879	-0.852365	0.412488
C36	C	1.052539	-0.805041	0.434579
C37	C	1.119318	-0.903698	0.456776
C38	C	1.038402	-0.898885	0.352285
C39	C	1.105116	-0.850487	0.374386
C40	C	1.052662	-1.035126	0.434617
C41	C	1.052503	-0.720944	0.434564
C42	C	1.246237	-0.378426	0.434568
C43	C	1.328783	-0.378434	0.434571
C44	C	1.041392	-0.389524	0.669863
C45	C	1.036645	-0.394261	0.770135
C46	C	1.052644	-0.184704	0.434607
C47	C	1.052692	-0.102159	0.434627
C48	C	1.063671	-0.367280	0.200172
C49	C	1.068562	-0.362333	0.099901
C50	C	1.122767	-0.308168	0.958585
C51	C	1.118309	-0.312616	1.052800
C52	C	1.023268	-0.407603	1.052780
C53	C	1.027726	-0.403154	0.958566
C54	C	1.077478	-0.353436	0.911472
C55	C	1.081939	-0.348992	0.817255
C56	C	0.986895	-0.443974	0.817237
C57	C	0.982437	-0.448423	0.911452
H58	H	0.513791	-0.404655	0.282534
H59	H	0.941929	-0.488900	0.949809
C60	C	0.492795	-0.491001	0.563382
C61	C	0.408135	-0.501588	0.576548
C62	C	0.375578	-0.561638	0.645189
C63	C	0.427679	-0.611102	0.700664
C64	C	0.512344	-0.600516	0.687500
C65	C	0.544902	-0.540465	0.618859
H66	H	0.369562	-0.464971	0.535481
H67	H	0.312903	-0.569474	0.654934
H68	H	0.403578	-0.655554	0.751476
H69	H	0.550917	-0.637133	0.728567
H70	H	0.607576	-0.532629	0.609114
H71	H	0.982762	-0.448081	1.091141
C72	C	0.609120	-0.521277	0.387038
C73	C	0.586834	-0.591538	0.445850
C74	C	0.617321	-0.667696	0.420503
C75	C	0.670093	-0.673595	0.336343
C76	C	0.692382	-0.603332	0.277526
C77	C	0.661895	-0.527174	0.302874
H78	H	0.547766	-0.587173	0.508155
H79	H	0.600821	-0.719709	0.464043
H80	H	0.692661	-0.729972	0.317580
H81	H	0.731449	-0.607697	0.215222
H82	H	0.678395	-0.475161	0.259333
C83	C	0.612825	-0.265875	0.305546
C84	C	0.597891	-0.269377	0.205205
C85	C	0.630274	-0.209363	0.136395
C86	C	0.677592	-0.145847	0.167928
C87	C	0.692529	-0.142343	0.268274
C88	C	0.660146	-0.202357	0.337083
H89	H	0.562861	-0.316398	0.181859
H90	H	0.619216	-0.211958	0.062112
H91	H	0.701564	-0.101421	0.116991
H92	H	0.727559	-0.095322	0.291620
H93	H	0.671203	-0.199762	0.411367
C94	C	1.165151	-0.818094	0.305599
C95	C	1.175859	-0.733459	0.292298
C96	C	1.235898	-0.701061	0.223521
C97	C	1.285229	-0.753299	0.168045
C98	C	1.274522	-0.837940	0.181345
C99	C	1.214483	-0.870337	0.250122
H100	H	1.139340	-0.694784	0.333366
H101	H	1.243823	-0.638405	0.213676
H102	H	1.329673	-0.729317	0.117132
H103	H	1.311041	-0.876614	0.140277
H104	H	1.206558	-0.932993	0.259966
H105	H	0.504605	-0.255394	0.475544
C106	C	1.022169	-0.923838	0.258285
C107	C	0.948398	-0.902518	0.216806
C108	C	0.932155	-0.927473	0.122805
C109	C	0.989684	-0.973747	0.070284
C110	C	1.063460	-0.995069	0.111763
C111	C	1.079703	-0.970114	0.205763
H112	H	0.905807	-0.868261	0.255685
H113	H	0.877540	-0.911689	0.092100
H114	H	0.977660	-0.992220	0.000700
H115	H	1.106051	-1.029327	0.072884
H116	H	1.134317	-0.985899	0.236468
C117	C	1.136662	-0.294302	0.765448
C118	C	1.130027	-0.210488	0.778418
C119	C	1.184749	-0.155795	0.726614
C120	C	1.246106	-0.184915	0.661840
C121	C	1.252744	-0.268732	0.648867
C122	C	1.198021	-0.323425	0.700671
H123	H	1.084604	-0.188928	0.826371
H124	H	1.179835	-0.093748	0.736218
H125	H	1.286615	-0.144427	0.623491
H126	H	1.298166	-0.290292	0.600914
H127	H	1.202935	-0.385473	0.691067
H128	H	0.929471	-0.829848	0.393794
H129	H	0.950019	-0.480837	0.778867
H130	H	0.592124	-0.352316	0.586537
H131	H	0.955743	-0.929705	0.545772
C132	C	1.082957	-0.832255	0.610967
C133	C	1.156115	-0.854747	0.653184
C134	C	1.172315	-0.829826	0.747212
C135	C	1.115358	-0.782412	0.799023
C136	C	1.042195	-0.759917	0.756806
C137	C	1.025995	-0.784839	0.662778
H138	H	1.198283	-0.889848	0.614830
H139	H	1.226476	-0.846478	0.778464
H140	H	1.127350	-0.763964	0.868629
H141	H	1.000027	-0.724816	0.795160
H142	H	0.971835	-0.768187	0.631526
C143	C	1.195538	-0.933989	0.482145
C144	C	1.209655	-1.018213	0.486883
C145	C	1.285873	-1.048506	0.512254
C146	C	1.347974	-0.994575	0.532888
C147	C	1.333860	-0.910346	0.528151
C148	C	1.257642	-0.880053	0.502779
H149	H	1.163682	-1.058140	0.471608
H150	H	1.296321	-1.110858	0.515760
H151	H	1.404395	-1.017000	0.551669
H152	H	1.379832	-0.870419	0.543426
H153	H	1.247193	-0.817702	0.499273
H154	H	1.155186	-0.275752	1.091156
H155	H	1.163280	-0.267689	0.920241
