data_functionalizedCrystal
_audit_creation_method	'MofGen! by Chris Wilmer'
_symmetry_space_group_name_H-M	'P1'
_symmetry_Int_Tables_number	1
_symmetry_cell_setting	triclinic
loop_
_symmetry_equiv_pos_as_xyz
  x,y,z
_cell_length_a	8.597340
_cell_length_b	17.019294
_cell_length_c	7.088929
_cell_angle_alpha	79.934307
_cell_angle_beta	103.954719
_cell_angle_gamma	84.889715
loop_
_atom_site_label
_atom_site_type_symbol
_atom_site_fract_x
_atom_site_fract_y
_atom_site_fract_z
O1	O	2.099265	0.109255	0.168841
O2	O	1.634332	0.122242	0.090111
O3	O	1.881731	-0.000067	0.151012
O4	O	1.851867	0.231565	0.107940
O5	O	1.914794	-0.016450	0.477132
O6	O	1.667395	0.105860	0.416231
O7	O	2.132328	0.092873	0.494961
Cu8	Cu	1.902881	0.097870	0.485373
Cu9	Cu	1.863780	0.117245	0.099699
O10	O	1.884930	0.215182	0.434060
C11	C	1.591410	0.113569	0.243456
C12	C	1.414256	0.112123	0.214510
C13	C	1.897782	-0.037896	0.318871
C14	C	1.896332	-0.126207	0.333165
C15	C	1.877632	-0.158761	0.162115
C16	C	1.876260	-0.241738	0.175551
C17	C	1.893600	-0.292160	0.360041
C18	C	1.912296	-0.259601	0.531104
C19	C	1.913657	-0.176624	0.517664
C20	C	1.890384	-0.543141	0.409512
C21	C	1.889027	-0.626123	0.422940
C22	C	1.852987	-0.608254	0.067385
C23	C	1.854359	-0.525278	0.053963
C24	C	1.873047	-0.492725	0.225024
C25	C	1.892203	-0.376977	0.373780
C26	C	1.874432	-0.407909	0.211281
C27	C	2.175250	0.101546	0.341612
C28	C	2.352402	0.102993	0.370545
C29	C	1.868878	0.253011	0.266197
C30	C	1.870327	0.341323	0.251889
N31	N	1.930394	0.084243	0.756638
N32	N	1.836279	0.130865	-0.171563
H33	H	1.863521	-0.117713	0.011885
H34	H	2.027950	0.035932	0.862323
H35	H	1.331675	0.118834	0.058760
C36	C	1.908107	-0.681591	0.625884
H37	H	1.904643	-0.735671	0.609385
H38	H	1.822603	-0.665540	0.680384
H39	H	2.008879	-0.677790	0.713075
H40	H	1.861039	-0.268240	0.036264
C41	C	1.855362	-0.352452	0.008351
H42	H	1.844023	-0.383720	-0.091610
H43	H	1.948277	-0.325841	0.012087
H44	H	1.761997	-0.313582	-0.020635
C45	C	1.463942	0.093926	0.580940
H46	H	1.572369	0.096123	0.573455
H47	H	1.457205	0.043664	0.659376
H48	H	1.431082	0.136411	0.639781
C49	C	1.832411	-0.644064	-0.120767
H50	H	1.834069	-0.700701	-0.086351
H51	H	1.918356	-0.632925	-0.179672
H52	H	1.732081	-0.620662	-0.212356
C53	C	1.835265	-0.469818	-0.148979
H54	H	1.823914	-0.501090	-0.248933
H55	H	1.928174	-0.443205	-0.145270
H56	H	1.741898	-0.430950	-0.177954
C57	C	1.910967	-0.507345	0.597677
H58	H	1.921121	-0.549262	0.709475
H59	H	1.819120	-0.469216	0.583493
H60	H	2.005395	-0.481481	0.616172
C61	C	1.934231	-0.140815	0.705820
H62	H	1.944377	-0.182728	0.817624
H63	H	1.842377	-0.102687	0.691613
H64	H	2.028655	-0.114949	0.724322
C65	C	1.931375	-0.315063	0.734039
H66	H	1.927905	-0.369145	0.717552
H67	H	1.845873	-0.299007	0.788537
H68	H	2.032149	-0.311262	0.821226
H69	H	1.906326	-0.418040	0.523994
C70	C	1.704509	0.196133	0.685691
H71	H	1.706381	0.195192	0.552648
H72	H	1.724346	0.247527	0.713203
H73	H	1.601492	0.185934	0.703129
