data_functionalizedCrystal
_audit_creation_method	'MofGen! by Chris Wilmer'
_symmetry_space_group_name_H-M	'P1'
_symmetry_Int_Tables_number	1
_symmetry_cell_setting	triclinic
loop_
_symmetry_equiv_pos_as_xyz
  x,y,z
_cell_length_a	19.288864
_cell_length_b	15.944551
_cell_length_c	18.366186
_cell_angle_alpha	89.992809
_cell_angle_beta	89.977106
_cell_angle_gamma	83.317492
loop_
_atom_site_label
_atom_site_type_symbol
_atom_site_fract_x
_atom_site_fract_y
_atom_site_fract_z
O1	O	0.921629	0.104784	-0.060785
O2	O	0.719405	0.118919	-0.060735
O3	O	0.826039	-0.010445	-0.060755
O4	O	0.814995	0.234147	-0.060765
O5	O	0.826021	-0.010451	0.060345
O6	O	0.719387	0.118912	0.060364
O7	O	0.921611	0.104777	0.060315
Zn8	Zn	0.820496	0.111844	0.079567
Zn9	Zn	0.820520	0.111852	-0.079987
O10	O	0.814977	0.234141	0.060334
C11	C	0.693519	0.118461	-0.000179
C12	C	0.616411	0.117095	-0.000160
C13	C	0.571915	0.193000	-0.000175
C14	C	0.499465	0.191717	-0.000183
C15	C	0.471514	0.114526	-0.000191
C16	C	0.516020	0.038611	-0.000172
C17	C	0.588469	0.039896	-0.000156
C18	C	0.363098	0.053847	-0.042639
C19	C	0.290650	0.052565	-0.042659
C20	C	0.248058	0.110560	-0.000234
C21	C	0.277920	0.169850	0.042200
C22	C	0.350369	0.171135	0.042216
C23	C	0.392956	0.113124	-0.000207
C24	C	0.125002	0.185079	-0.000257
C25	C	0.052550	0.183793	-0.000260
C26	C	0.069107	0.030684	-0.000257
C27	C	0.141557	0.031972	-0.000246
C28	C	0.169500	0.109172	-0.000249
C29	C	0.825572	-0.041740	-0.000205
C30	C	0.824197	-0.134981	-0.000204
C31	C	0.754815	-0.349571	-0.000197
C32	C	0.787025	-0.410715	0.059504
C33	C	0.821710	-0.305697	-0.000209
C34	C	0.787058	-0.410692	-0.059890
C35	C	0.819303	-0.470601	-0.000217
C36	C	0.853939	-0.365614	0.059542
C37	C	0.853963	-0.365585	-0.059906
C38	C	0.886222	-0.426712	-0.000190
C39	C	0.823095	-0.210700	-0.000204
C40	C	0.817924	-0.565597	-0.000217
C41	C	0.947497	0.105235	-0.000243
C42	C	1.024605	0.106600	-0.000267
C43	C	0.815444	0.265436	-0.000217
C44	C	0.816819	0.358677	-0.000223
N45	N	0.820485	0.111838	0.188458
N46	N	0.820537	0.111852	-0.188878
C47	C	0.867718	0.054583	0.226549
C48	C	0.867722	0.054580	0.302777
C49	C	0.820500	0.111844	0.340910
C50	C	0.773258	0.169103	0.302810
C51	C	0.773251	0.169100	0.226583
C52	C	0.811404	0.188378	0.461669
C53	C	0.811416	0.188383	0.537894
C54	C	0.820520	0.111855	0.576018
C55	C	0.829626	0.035320	0.537908
C56	C	0.829618	0.035316	0.461681
C57	C	0.820503	0.111854	0.423565
C58	C	0.867760	0.054592	0.696765
C59	C	0.867760	0.054587	0.772994
C60	C	0.773299	0.169118	0.773025
C61	C	0.773296	0.169115	0.696797
C62	C	0.820531	0.111853	0.658671
H63	H	0.243242	0.217075	0.076747
H64	H	0.906186	0.007955	0.333797
H65	H	0.882240	-0.345560	-0.110395
H66	H	0.882201	-0.345735	0.110070
H67	H	0.266342	0.004290	-0.077214
H68	H	0.758763	-0.430658	-0.110366
H69	H	0.758723	-0.430717	0.109991
N70	N	0.451462	0.273590	-0.000210
H71	H	0.401326	0.261060	-0.000222
H72	H	0.460480	0.307251	0.044680
N73	N	0.189559	-0.049894	-0.000244
H74	H	0.219962	-0.052775	0.044654
H75	H	0.160816	-0.098946	-0.000279
H76	H	0.147754	0.247939	-0.000249
N77	N	0.801590	0.270926	0.578995
H78	H	0.840189	0.305837	0.565702
H79	H	0.754994	0.302859	0.565731
H80	H	0.906177	0.007955	0.195510
N81	N	0.681266	-0.305165	-0.000102
H82	H	0.682709	-0.242050	-0.000565
H83	H	0.655774	-0.322311	-0.044731
N84	N	0.839437	-0.047224	0.420575
H85	H	0.845206	-0.095708	0.456288
H86	H	0.797239	-0.051998	0.388972
H87	H	0.734848	0.215741	0.804072
H88	H	0.734838	0.215741	0.665781
H89	H	0.837039	-0.026997	0.568947
H90	H	0.906219	0.007963	0.665722
N91	N	0.918718	-0.007155	0.814083
H92	H	0.948643	-0.043420	0.778361
H93	H	0.949415	0.024934	0.845681
N94	N	0.722329	0.230870	0.343936
H95	H	0.692404	0.267141	0.308235
H96	H	0.691630	0.198806	0.375585
N97	N	0.959834	-0.470923	-0.000171
H98	H	0.984997	-0.454549	0.044941
H99	H	0.958452	-0.534046	-0.000627
H100	H	0.374680	0.219409	0.076770
N101	N	0.004534	0.265650	-0.000267
H102	H	-0.025911	0.268508	0.044624
H103	H	0.033261	0.314718	-0.000293
N104	N	0.038971	-0.052575	-0.000257
H105	H	-0.013677	-0.041872	-0.000266
H106	H	0.055273	-0.085779	-0.045146
N107	N	0.801585	0.270925	0.420555
H108	H	0.840199	0.305821	0.433795
H109	H	0.802943	0.259240	0.366497
N110	N	0.602054	0.276261	-0.000184
H111	H	0.562867	0.324153	-0.000196
H112	H	0.631728	0.280136	0.044714
N113	N	0.409035	-0.008711	-0.088397
H114	H	0.379125	-0.046459	-0.115285
H115	H	0.435773	0.022734	-0.124629
N116	N	0.722302	0.230852	0.185493
H117	H	0.692384	0.267127	0.221214
H118	H	0.748887	0.267906	0.153847
H119	H	0.493258	-0.024239	-0.000188
H120	H	0.624699	-0.021917	-0.000145
