data_functionalizedCrystal
_audit_creation_method	'MofGen! by Chris Wilmer'
_symmetry_space_group_name_H-M	'P1'
_symmetry_Int_Tables_number	1
_symmetry_cell_setting	triclinic
loop_
_symmetry_equiv_pos_as_xyz
  x,y,z
_cell_length_a	9.065218
_cell_length_b	19.188930
_cell_length_c	7.540329
_cell_angle_alpha	89.991297
_cell_angle_beta	89.996962
_cell_angle_gamma	84.080333
loop_
_atom_site_label
_atom_site_type_symbol
_atom_site_fract_x
_atom_site_fract_y
_atom_site_fract_z
O1	O	1.956847	0.102369	-0.147510
O2	O	2.456847	0.602369	0.352490
O3	O	1.527271	0.110766	-0.147515
O4	O	2.027271	0.610766	0.352485
O5	O	1.754456	0.005009	-0.147478
O6	O	2.254456	0.505009	0.352522
O7	O	1.729662	0.208127	-0.147547
O8	O	2.229662	0.708127	0.352453
O9	O	1.754442	0.005007	0.147487
O10	O	2.254442	0.505007	0.647487
O11	O	1.527257	0.110765	0.147450
O12	O	2.027257	0.610765	0.647450
O13	O	1.956833	0.102368	0.147455
O14	O	2.456833	0.602368	0.647455
Cu15	Cu	1.742044	0.106566	0.174385
Cu16	Cu	2.242044	0.606566	0.674385
Cu17	Cu	1.742060	0.106568	-0.174445
Cu18	Cu	2.242060	0.606568	0.325555
O19	O	1.729649	0.208126	0.147418
O20	O	2.229649	0.708126	0.647418
C21	C	1.472305	0.109959	-0.000032
C22	C	1.972305	0.609959	0.499968
C23	C	1.308546	0.107546	-0.000033
C24	C	1.808546	0.607546	0.499967
C25	C	1.753646	-0.021009	0.000010
C26	C	2.253646	0.478991	0.500010
C27	C	1.751236	-0.098533	0.000025
C28	C	2.251236	0.401467	0.500025
C29	C	1.884540	-0.142421	0.000035
C30	C	2.384540	0.357579	0.500035
C31	C	1.882276	-0.215262	0.000006
C32	C	2.382276	0.284738	0.500006
C33	C	1.746699	-0.244212	0.000004
C34	C	2.246699	0.255788	0.500004
C35	C	1.613377	-0.200314	-0.000016
C36	C	2.113377	0.299686	0.499984
C37	C	1.615646	-0.127474	-0.000006
C38	C	2.115646	0.372526	0.499994
N39	N	1.643063	-0.353023	0.100385
N40	N	2.143063	0.146977	0.600385
N41	N	1.640917	-0.422218	0.100379
N42	N	2.140917	0.077782	0.600379
C43	C	1.739858	-0.463674	-0.000032
C44	C	2.239858	0.036326	0.499968
N45	N	1.841047	-0.433322	-0.100414
N46	N	2.341047	0.066678	0.399586
N47	N	1.843197	-0.364120	-0.100400
N48	N	2.343197	0.135880	0.399600
C49	C	1.744225	-0.323194	-0.000009
C50	C	2.244225	0.176806	0.499991
C51	C	1.870716	-0.586546	-0.000056
C52	C	2.370716	-0.086546	0.499944
C53	C	1.868446	-0.659388	-0.000095
C54	C	2.368446	-0.159388	0.499905
C55	C	1.599544	-0.644438	-0.000100
C56	C	2.099544	-0.144438	0.499900
C57	C	1.601818	-0.571598	-0.000078
C58	C	2.101818	-0.071598	0.499922
C59	C	1.737408	-0.542656	-0.000048
C60	C	2.237408	-0.042656	0.499952
C61	C	2.011799	0.103176	-0.000032
C62	C	2.511799	0.603176	0.499968
C63	C	2.175558	0.105589	-0.000043
C64	C	2.675558	0.605589	0.499957
C65	C	1.730458	0.234144	-0.000074
C66	C	2.230458	0.734144	0.499926
C67	C	1.732869	0.311667	-0.000101
C68	C	2.232869	0.811667	0.499899
N69	N	1.742044	0.106565	0.419734
N70	N	2.242044	0.606565	0.919734
N71	N	1.742072	0.106564	-0.419794
N72	N	2.242072	0.606564	0.080206
H73	H	1.994948	-0.118862	0.000054
H74	H	2.494948	0.381138	0.500054
H75	H	1.990832	-0.251003	0.000007
H76	H	2.490832	0.248997	0.500007
C77	C	1.490507	-0.305336	-0.000007
C78	C	1.990507	0.194664	0.499993
C79	C	1.464349	-0.232133	-0.000012
C80	C	1.964349	0.267867	0.499988
H81	H	1.398497	-0.324977	0.000001
H82	H	1.898497	0.175023	0.500001
H83	H	1.545372	-0.320333	-0.102860
H84	H	2.045372	0.179667	0.397140
H85	H	1.545373	-0.320343	0.102863
H86	H	2.045373	0.179657	0.602863
H87	H	1.409492	-0.217126	-0.102888
H88	H	1.909492	0.282874	0.397112
H89	H	1.409460	-0.217130	0.102852
H90	H	1.909460	0.282870	0.602852
C91	C	1.349622	-0.120015	-0.000010
C92	C	1.849622	0.379985	0.499990
C93	C	1.469106	-0.079227	0.000001
C94	C	1.969106	0.420773	0.500001
H95	H	1.259156	-0.090227	0.000008
H96	H	1.759156	0.409773	0.500008
H97	H	1.354332	-0.148723	-0.102874
H98	H	1.854332	0.351277	0.397126
H99	H	1.354335	-0.148750	0.102849
H100	H	1.854335	0.351250	0.602849
H101	H	1.464400	-0.050497	-0.102865
H102	H	1.964400	0.449503	0.397135
H103	H	1.464394	-0.050507	0.102876
H104	H	1.964394	0.449493	0.602876
H105	H	1.981122	-0.562980	-0.000039
H106	H	2.481122	-0.062980	0.499961
C107	C	1.984367	-0.777682	-0.000140
C108	C	2.484367	-0.277682	0.499860
C109	C	2.014986	-0.707635	-0.000102
C110	C	2.514986	-0.207635	0.499898
H111	H	2.074838	-0.807466	-0.000158
H112	H	2.574838	-0.307466	0.499842
H113	H	1.928759	-0.786557	0.102707
H114	H	2.428759	-0.286557	0.602707
H115	H	1.928759	-0.786528	-0.103015
H116	H	2.428759	-0.286528	0.396985
H117	H	2.070585	-0.698787	0.102781
H118	H	2.570585	-0.198787	0.602781
H119	H	2.070618	-0.698756	-0.102960
H120	H	2.570618	-0.198756	0.397040
H121	H	1.489155	-0.668009	-0.000111
H122	H	1.989155	-0.168009	0.499889
H123	H	1.493266	-0.535863	-0.000076
H124	H	1.993266	-0.035863	0.499924
