data_functionalizedCrystal
_audit_creation_method	'MofGen! by Chris Wilmer'
_symmetry_space_group_name_H-M	'P1'
_symmetry_Int_Tables_number	1
_symmetry_cell_setting	triclinic
loop_
_symmetry_equiv_pos_as_xyz
  x,y,z
_cell_length_a	17.038272
_cell_length_b	17.038272
_cell_length_c	14.048226
_cell_angle_alpha	89.993466
_cell_angle_beta	89.999337
_cell_angle_gamma	91.111556
loop_
_atom_site_label
_atom_site_type_symbol
_atom_site_fract_x
_atom_site_fract_y
_atom_site_fract_z
O1	O	1.048757	0.170539	-0.079042
O2	O	0.820945	0.167831	-0.079070
O3	O	0.933497	0.055279	-0.079049
O4	O	0.936205	0.283090	-0.079064
O5	O	0.933482	0.055271	0.079272
O6	O	0.820930	0.167823	0.079251
O7	O	1.048742	0.170531	0.079279
Zn8	Zn	0.934834	0.169175	0.104402
Zn9	Zn	0.934853	0.169186	-0.104193
O10	O	0.936190	0.283082	0.079258
C11	C	0.791645	0.165364	0.000087
C12	C	0.704361	0.158016	0.000076
C13	C	0.658752	0.225479	0.000073
C14	C	0.576740	0.218570	0.000086
C15	C	0.540339	0.144197	0.000097
C16	C	0.585954	0.076728	0.000103
C17	C	0.667965	0.083638	0.000096
C18	C	0.292951	0.119787	0.000124
C19	C	0.210935	0.112882	0.000128
C20	C	0.201726	0.254725	0.000113
C21	C	0.283739	0.261628	0.000100
C22	C	0.329347	0.194159	0.000112
C23	C	0.456510	0.137133	0.000108
C24	C	0.413174	0.201224	0.000107
C25	C	0.931027	0.025982	0.000111
C26	C	0.923679	-0.061301	0.000110
C27	C	0.991142	-0.106911	0.000119
C28	C	0.984233	-0.188923	0.000110
C29	C	0.909860	-0.225324	0.000097
C30	C	0.842391	-0.179708	0.000085
C31	C	0.849301	-0.097698	0.000088
C32	C	0.885449	-0.472712	0.000081
C33	C	0.878545	-0.554728	0.000081
C34	C	1.020387	-0.563937	0.000104
C35	C	1.027291	-0.481924	0.000112
C36	C	0.959822	-0.436316	0.000095
C37	C	0.902796	-0.309153	0.000090
C38	C	0.966886	-0.352488	0.000096
C39	C	1.078042	0.172997	0.000120
C40	C	1.165326	0.180346	0.000124
C41	C	0.938660	0.312379	0.000095
C42	C	0.946008	0.399663	0.000090
N43	N	0.934826	0.169168	0.246763
N44	N	0.934867	0.169187	-0.246554
C45	C	0.984682	0.119353	0.296590
C46	C	0.984687	0.119353	0.396248
C47	C	0.934840	0.169172	0.446076
C48	C	0.884978	0.218989	0.396242
C49	C	0.884969	0.218985	0.296586
C50	C	0.885001	0.218997	0.603956
C51	C	0.885011	0.219002	0.703619
C52	C	0.984719	0.119365	0.703618
C53	C	0.984710	0.119360	0.603962
C54	C	0.934849	0.169178	0.554134
H55	H	0.313370	0.322190	0.000081
H56	H	0.705099	0.028702	0.000099
C57	C	1.071912	-0.067435	-0.000066
C58	C	1.113015	-0.090139	-0.081529
C59	C	1.187420	-0.053784	-0.081743
H60	H	1.100013	-0.082746	0.055081
H61	H	1.066400	-0.012055	-0.000117
H62	H	1.118530	-0.145507	-0.081470
H63	H	1.084938	-0.074827	-0.136689
H64	H	1.181908	0.001596	-0.081794
H65	H	1.215514	-0.069098	-0.026593
H66	H	1.215315	-0.069178	-0.137019
C67	C	0.831015	0.273186	0.757764
C68	C	0.876040	0.324092	0.814941
C69	C	0.826324	0.374023	0.864820
H70	H	0.796440	0.242830	0.796730
H71	H	0.801330	0.302894	0.713843
H72	H	0.905711	0.294386	0.858857
H73	H	0.910613	0.354465	0.775999
H74	H	0.796640	0.403732	0.820899
H75	H	0.791752	0.343661	0.903780
H76	H	0.856867	0.408573	0.903614
H77	H	0.164583	0.309653	0.000105
H78	H	0.539608	0.273507	0.000082
H79	H	0.817978	-0.584363	0.000086
C80	C	0.775960	-0.048312	0.000126
C81	C	0.709348	-0.097742	0.000139
C82	C	0.641771	-0.052277	0.000181
H83	H	0.775605	-0.016114	-0.055070
H84	H	0.775656	-0.016147	0.055357
H85	H	0.709652	-0.129894	-0.055087
H86	H	0.709677	-0.129940	0.055331
H87	H	0.641466	-0.020111	0.055412
H88	H	0.641423	-0.020081	-0.055016
H89	H	0.596566	-0.085808	0.000198
H90	H	0.830511	-0.435587	0.000067
C91	C	1.057456	-0.238477	-0.000078
C92	C	1.057658	-0.285799	-0.081548
C93	C	1.125107	-0.331449	-0.081763
H94	H	1.057777	-0.270740	0.055064
H95	H	1.102758	-0.205075	-0.000118
H96	H	1.012368	-0.319198	-0.081500
H97	H	1.057349	-0.253557	-0.136703
H98	H	1.170409	-0.298047	-0.081803
H99	H	1.125422	-0.363707	-0.026619
H100	H	1.125257	-0.363557	-0.137044
H101	H	1.027441	-0.322847	0.000085
H102	H	1.025317	0.078801	0.744193
C103	C	0.830840	0.273173	0.550027
C104	C	0.787204	0.316822	0.614992
C105	C	0.737317	0.366746	0.565348
H106	H	0.796199	0.242817	0.511157
H107	H	0.861246	0.307799	0.511163
H108	H	0.756801	0.282200	0.653840
H109	H	0.821825	0.347194	0.653864
H110	H	0.767722	0.401373	0.526483
H111	H	0.702680	0.336384	0.526479
H112	H	0.707709	0.396373	0.609418
C113	C	0.342325	0.046443	0.000083
C114	C	0.292890	-0.020166	0.000066
C115	C	0.338349	-0.087747	0.000017
H116	H	0.374519	0.046075	0.055278
H117	H	0.374495	0.046145	-0.055149
H118	H	0.260734	-0.019868	0.055293
H119	H	0.260697	-0.019824	-0.055125
H120	H	0.370519	-0.088045	-0.055216
H121	H	0.370541	-0.088106	0.055213
H122	H	0.304815	-0.132948	-0.000004
H123	H	0.781835	-0.209353	0.000069
H124	H	0.844387	0.259550	0.436818
C125	C	1.093701	-0.613359	-0.000038
C126	C	1.138183	-0.596162	-0.081474
C127	C	1.205733	-0.641666	-0.081635
H128	H	1.079047	-0.667434	-0.000092
H129	H	1.124014	-0.601803	0.055147
H130	H	1.107876	-0.607723	-0.136644
H131	H	1.152857	-0.542095	-0.081437
H132	H	1.236045	-0.630111	-0.026450
H133	H	1.191071	-0.695738	-0.081686
H134	H	1.235925	-0.629999	-0.136883
C135	C	0.830812	0.273158	0.242655
C136	C	0.787175	0.316805	0.307620
C137	C	0.737281	0.366724	0.257976
H138	H	0.796172	0.242798	0.203788
H139	H	0.861214	0.307786	0.203788
H140	H	0.756775	0.282182	0.346471
H141	H	0.821794	0.347181	0.346490
H142	H	0.767683	0.401352	0.219109
H143	H	0.702646	0.336358	0.219110
H144	H	0.707672	0.396349	0.302046
C145	C	0.452734	0.281950	-0.000104
C146	C	0.499528	0.290059	-0.081575
C147	C	0.535981	0.364417	-0.081815
H148	H	0.484597	0.287676	0.055037
H149	H	0.413850	0.321169	-0.000161
H150	H	0.538407	0.250851	-0.081510
H151	H	0.467684	0.284348	-0.136730
H152	H	0.497098	0.403636	-0.081871
H153	H	0.567840	0.370136	-0.026670
H154	H	0.567729	0.369931	-0.137095
C155	C	0.822099	-0.348783	-0.000062
C156	C	0.814007	-0.395602	-0.081506
C157	C	0.739686	-0.432133	-0.081674
H158	H	0.782830	-0.309965	-0.000111
H159	H	0.816448	-0.380637	0.055118
H160	H	0.819651	-0.363751	-0.136671
H161	H	0.853259	-0.434434	-0.081474
H162	H	0.734035	-0.463987	-0.026494
H163	H	0.700422	-0.393309	-0.081720
H164	H	0.734188	-0.463909	-0.136927
C165	C	1.038833	0.065176	0.242667
C166	C	1.082480	0.021535	0.307640
C167	C	1.132363	-0.028391	0.258004
H168	H	1.073468	0.095530	0.203777
H169	H	1.008424	0.030545	0.203824
H170	H	1.112887	0.056162	0.346467
H171	H	1.047866	-0.008835	0.346532
H172	H	1.101954	-0.063022	0.219161
H173	H	1.166993	0.001969	0.219116
H174	H	1.161978	-0.058012	0.302080
C175	C	1.038692	0.065171	0.450390
C176	C	0.993677	0.014269	0.507599
C177	C	1.043402	-0.035665	0.557475
H178	H	1.073277	0.095526	0.489334
H179	H	1.068365	0.035460	0.406467
H180	H	0.964018	0.043976	0.551517
H181	H	0.959094	-0.016104	0.468679
H182	H	1.073074	-0.065376	0.513552
H183	H	1.077984	-0.005303	0.596413
H184	H	1.012866	-0.070212	0.596290
H185	H	1.087853	-0.452293	0.000123
H186	H	1.025304	0.078798	0.563392
H187	H	0.688384	0.286042	0.000064
H188	H	0.181300	0.052315	0.000135
H189	H	0.426863	0.076578	0.000143
H190	H	0.556310	0.016172	0.000125
