data_functionalizedCrystal
_audit_creation_method	'MofGen! by Chris Wilmer'
_symmetry_space_group_name_H-M	'P1'
_symmetry_Int_Tables_number	1
_symmetry_cell_setting	triclinic
loop_
_symmetry_equiv_pos_as_xyz
  x,y,z
_cell_length_a	28.938199
_cell_length_b	28.937346
_cell_length_c	28.934044
_cell_angle_alpha	60.005004
_cell_angle_beta	60.009897
_cell_angle_gamma	59.994060
loop_
_atom_site_label
_atom_site_type_symbol
_atom_site_fract_x
_atom_site_fract_y
_atom_site_fract_z
O1	O	0.064043	-0.675186	0.564597
O2	O	0.024124	-0.525682	0.454913
O3	O	0.118795	-0.620275	0.454833
O4	O	-0.030629	-0.580593	0.564678
O5	O	0.150204	-0.588870	0.486157
O6	O	0.055533	-0.494276	0.486238
O7	O	0.095452	-0.643780	0.595921
Cu8	Cu	0.078360	-0.566161	0.543940
Cu9	Cu	0.041215	-0.603301	0.506895
O10	O	0.000780	-0.549187	0.596002
N11	N	0.104487	-0.540042	0.569998
N12	N	0.015094	-0.629425	0.480837
C13	C	0.165467	-0.323909	0.630915
C14	C	0.165587	-0.479117	0.786068
C15	C	0.165481	-0.479095	0.630906
C16	C	0.320696	-0.479083	0.630835
C17	C	0.182557	-0.375118	0.647971
C18	C	0.182626	-0.462038	0.734858
C19	C	0.269485	-0.462018	0.647928
C20	C	0.182566	-0.462025	0.647966
C21	C	0.143714	-0.258726	0.609206
C22	C	0.143738	-0.500820	0.609192
C23	C	0.204309	-0.440300	0.669680
C24	C	0.415481	-0.462740	0.580919
C25	C	0.474732	-0.482485	0.561145
C26	C	0.474757	-0.578356	0.597704
C27	C	0.415508	-0.558609	0.617479
C28	C	0.157989	-0.229089	0.550957
C29	C	0.138212	-0.169834	0.531225
C30	C	0.089890	-0.169857	0.627992
C31	C	0.109667	-0.229112	0.647725
C32	C	0.085482	-0.486515	0.623535
C33	C	0.065722	-0.506265	0.603789
C34	C	0.162467	-0.554625	0.555370
C35	C	0.182230	-0.534875	0.575110
C36	C	0.085661	-0.486557	0.880902
C37	C	0.065952	-0.506323	0.940155
C38	C	0.162734	-0.554693	0.940102
C39	C	0.182441	-0.534928	0.880847
C40	C	0.143904	-0.500859	0.851249
C41	C	0.385871	-0.500801	0.609083
C42	C	-0.110907	-0.668480	0.441278
C43	C	-0.024049	-0.668588	0.441475
C44	C	-0.045729	-0.690282	0.419668
C45	C	-0.062146	-0.785032	0.469507
C46	C	-0.042446	-0.844287	0.489286
C47	C	0.053426	-0.844399	0.452899
C48	C	0.033725	-0.785144	0.433120
C49	C	-0.140617	-0.682751	0.499509
C50	C	-0.199867	-0.662928	0.519152
C51	C	-0.199694	-0.614571	0.422330
C52	C	-0.140443	-0.634393	0.402687
C53	C	-0.038320	-0.610337	0.427144
C54	C	-0.018610	-0.590621	0.446974
C55	C	0.029642	-0.687402	0.495454
C56	C	0.009933	-0.707121	0.475630
C57	C	-0.038148	-0.610347	0.324832
C58	C	-0.018301	-0.590634	0.265579
C59	C	0.030035	-0.687421	0.265643
C60	C	0.010190	-0.707133	0.324897
C61	C	-0.023903	-0.668595	0.354491
C62	C	-0.024062	-0.755463	0.441426
N63	N	0.503527	-0.540005	0.569810
O64	O	0.684453	-0.545211	0.434650
O65	O	0.684643	-0.655237	0.584005
O66	O	0.684567	-0.654986	0.489282
O67	O	0.684529	-0.545462	0.529373
O68	O	0.590438	-0.623674	0.520735
O69	O	0.590513	-0.623924	0.615457
O70	O	0.590323	-0.513899	0.466102
Cu71	Cu	0.581823	-0.566053	0.543652
Cu72	Cu	0.693143	-0.603083	0.506456
O73	O	0.590399	-0.514149	0.560825
N74	N	0.771439	-0.629131	0.480292
N75	N	0.104456	-0.141061	0.570015
O76	O	-0.030629	0.039964	0.564688
O77	O	0.118732	0.039984	0.454661
O78	O	0.023980	0.039958	0.454946
O79	O	0.064123	0.039990	0.564403
O80	O	0.055392	-0.054179	0.486321
O81	O	0.150144	-0.054153	0.486036
O82	O	0.000784	-0.054173	0.596063
Cu83	Cu	0.078332	-0.062759	0.543914
Cu84	Cu	0.041183	0.048570	0.506810
O85	O	0.095535	-0.054147	0.595778
N86	N	0.015053	0.126872	0.480710
N87	N	0.104760	-0.540096	0.968910
O88	O	0.099447	-0.675167	1.149923
O89	O	-0.010552	-0.525757	1.149951
O90	O	-0.010297	-0.620493	1.149918
O91	O	0.099192	-0.580431	1.149956
O92	O	0.021064	-0.589100	1.055785
O93	O	0.020809	-0.494365	1.055818
O94	O	0.130808	-0.643774	1.055790
Cu95	Cu	0.078672	-0.566203	1.047209
Cu96	Cu	0.041584	-0.603328	1.158532
O97	O	0.130553	-0.549038	1.055823
N98	N	0.015495	-0.629442	1.236831
C99	C	0.036087	-0.491140	0.455465
C100	C	0.153325	-0.608283	0.455364
C101	C	0.083488	-0.678322	0.595370
C102	C	-0.033750	-0.561180	0.595470
C103	C	0.637601	-0.654732	0.618548
C104	C	0.637509	-0.654422	0.501245
C105	C	0.637362	-0.514403	0.431560
C106	C	0.637458	-0.514713	0.548862
C107	C	0.153215	-0.006966	0.455158
C108	C	0.035916	-0.007114	0.455550
C109	C	-0.033739	-0.007106	0.595527
C110	C	0.083600	-0.007076	0.595174
C111	C	-0.010020	-0.491238	1.102888
C112	C	-0.009698	-0.608550	1.102828
C113	C	0.130276	-0.678293	1.102853
C114	C	0.129961	-0.560974	1.102892
H115	H	0.018524	-0.494668	0.964293
H116	H	-0.044554	-0.448327	1.102896
H117	H	-0.073458	-0.868361	0.512142
H118	H	-0.076633	-0.007113	0.630069
H119	H	0.391402	-0.589605	0.640414
H120	H	0.057315	-0.718782	0.523258
H121	H	-0.065985	-0.578958	0.399332
H122	H	0.054276	-0.458811	0.856808
H123	H	-0.076669	-0.552723	0.629962
O124	O	0.503608	-0.634506	0.605888
C125	C	0.537900	-0.655041	0.638105
H126	H	0.546772	-0.618461	0.633460
H127	H	0.515092	-0.675458	0.684541
C128	C	0.583284	-0.744234	0.622551
C129	C	0.594185	-0.699306	0.616841
H130	H	0.618003	-0.771540	0.609436
H131	H	0.560180	-0.730400	0.600847
H132	H	0.564276	-0.761241	0.661248
H133	H	0.613186	-0.682295	0.578144
H134	H	0.617294	-0.713137	0.638538
O135	O	0.171530	-0.729440	1.102743
C136	C	0.219219	-0.721978	1.054002
H137	H	0.205573	-0.680528	1.019932
H138	H	0.251165	-0.720678	1.065035
C139	C	0.263354	-0.822481	1.073723
C140	C	0.246592	-0.771574	1.031876
H141	H	0.280242	-0.853075	1.060076
H142	H	0.231227	-0.827509	1.106562
H143	H	0.289973	-0.821390	1.082913
H144	H	0.219969	-0.772663	1.022692
H145	H	0.278717	-0.766547	0.999035
O146	O	-0.050737	-0.618661	1.102691
C147	C	-0.065929	-0.579852	1.053916
H148	H	-0.054654	-0.540633	1.037703
H149	H	-0.042016	-0.600362	1.019761
C150	C	-0.143906	-0.610903	1.088588
C151	C	-0.130062	-0.562731	1.068678
H152	H	-0.183466	-0.600343	1.097692
H153	H	-0.133670	-0.637051	1.121448
H154	H	-0.123974	-0.627989	1.060122
H155	H	-0.149988	-0.545649	1.097145
H156	H	-0.140302	-0.536580	1.035822
O157	O	0.093794	-0.006970	0.636185
C158	C	0.054989	0.041774	0.651432
H159	H	0.038371	0.075848	0.615182
H160	H	0.018161	0.030744	0.690856
C161	C	0.105207	0.022038	0.708325
C162	C	0.084800	0.063891	0.663799
H163	H	0.123594	0.035680	0.715956
H164	H	0.131349	-0.010803	0.698054
H165	H	0.074513	0.012850	0.741173
H166	H	0.115495	0.073072	0.630951
H167	H	0.058664	0.096734	0.674065
O168	O	0.171069	-0.550793	1.102821
C169	C	0.218781	-0.557067	1.054057
H170	H	0.218334	-0.585455	1.037795
H171	H	0.217634	-0.513781	1.019927
C172	C	0.273601	-0.549181	1.088838
C173	C	0.273055	-0.584051	1.068866
H174	H	0.307080	-0.565823	1.097971
H175	H	0.241457	-0.544952	1.121690
H176	H	0.272643	-0.513111	1.060392
H177	H	0.274006	-0.620117	1.097314
H178	H	0.305201	-0.588287	1.036019
O179	O	0.200246	-0.587800	0.968766
C180	C	0.255880	-0.596173	0.929887
H181	H	0.255743	-0.589539	0.887655
H182	H	0.272853	-0.564638	0.923585
C183	C	0.294074	-0.665029	1.004851
C184	C	0.293907	-0.656886	0.952982
H185	H	0.317532	-0.702478	1.019097
H186	H	0.256593	-0.659387	1.031045
H187	H	0.308217	-0.638745	0.999592
H188	H	0.279757	-0.683164	0.958242
H189	H	0.331387	-0.662534	0.926789
H190	H	0.196022	-0.006699	0.420530
O191	O	0.239003	-0.548790	0.851955
C192	C	0.248138	-0.524030	0.793310
H193	H	0.209245	-0.515099	0.785239
H194	H	0.256021	-0.482694	0.776497
C195	C	0.347776	-0.575860	0.772779
C196	C	0.300008	-0.564894	0.762865
H197	H	0.379773	-0.601064	0.753998
H198	H	0.341622	-0.592539	0.812289
H199	H	0.354337	-0.541409	0.758768
H200	H	0.293443	-0.599343	0.776883
H201	H	0.306162	-0.548221	0.723357
O202	O	0.048014	-0.453417	0.656611
C203	C	-0.007641	-0.445034	0.665040
H204	H	-0.007557	-0.451649	0.629322
H205	H	-0.024591	-0.476578	0.707251
C206	C	-0.045753	-0.376208	0.709350
C207	C	-0.045651	-0.384328	0.665477
H208	H	-0.069201	-0.338762	0.709622
H209	H	-0.008258	-0.381857	0.703673
H210	H	-0.059877	-0.402499	0.744520
H211	H	-0.031520	-0.358042	0.630307
H212	H	-0.083145	-0.378673	0.671148
H213	H	0.018285	-0.494604	0.615454
H214	H	0.637649	-0.689271	0.661445
O215	O	0.637366	-0.473171	0.380388
C216	C	0.686096	-0.457945	0.355300
H217	H	0.702388	-0.469408	0.389602
H218	H	0.720224	-0.481683	0.324392
C219	C	0.651206	-0.379682	0.281179
C220	C	0.671214	-0.393757	0.323310
H221	H	0.642028	-0.340089	0.261444
H222	H	0.618377	-0.389942	0.298080
H223	H	0.679650	-0.399468	0.255428
H224	H	0.642768	-0.373976	0.349064
H225	H	0.704038	-0.383493	0.306413
O226	O	0.637550	-0.695542	0.491100
C227	C	0.637604	-0.744394	0.539694
H228	H	0.655448	-0.743901	0.566704
H229	H	0.592463	-0.745103	0.565267
C230	C	0.652621	-0.798068	0.488566
C231	C	0.674542	-0.797466	0.521739
H232	H	0.675404	-0.830805	0.477492
H233	H	0.652583	-0.765155	0.455828
H234	H	0.615004	-0.798656	0.509882
H235	H	0.712156	-0.796870	0.500421
H236	H	0.674588	-0.830379	0.554473
H237	H	0.637450	-0.480310	0.557440
H238	H	0.498841	-0.451490	0.538213
O239	O	0.025586	-0.007165	0.414600
C240	C	-0.030051	-0.007170	0.435229
H241	H	-0.044926	-0.024974	0.483440
H242	H	-0.059348	0.037984	0.420906
C243	C	-0.012886	-0.022254	0.352771
C244	C	-0.031154	-0.044126	0.411985
H245	H	-0.013568	-0.045048	0.338431
H246	H	0.024597	-0.022249	0.338872
H247	H	-0.037303	0.015374	0.340842
H248	H	-0.006733	-0.081750	0.423912
H249	H	-0.068634	-0.044138	0.425886
H250	H	0.193817	-0.582360	0.527624
O251	O	0.026020	-0.439931	0.414310
C252	C	0.074642	-0.439801	0.365496
H253	H	0.113528	-0.473275	0.377911
H254	H	0.070073	-0.449657	0.334742
C255	C	0.033640	-0.340018	0.321698
C256	C	0.081400	-0.381127	0.336947
H257	H	0.037808	-0.303824	0.304086
H258	H	0.000881	-0.340105	0.354584
H259	H	0.029837	-0.348238	0.296072
H260	H	0.085198	-0.372911	0.362578
H261	H	0.114160	-0.381037	0.304065
O262	O	0.093662	-0.729514	0.636520
C263	C	0.087349	-0.722129	0.684224
H264	H	0.093525	-0.680650	0.670626
H265	H	0.043135	-0.720944	0.716260
C266	C	0.124252	-0.822642	0.728124
C267	C	0.131841	-0.771699	0.711423
H268	H	0.151695	-0.853220	0.744904
H269	H	0.128503	-0.827618	0.695987
H270	H	0.087406	-0.821647	0.754819
H271	H	0.168684	-0.772692	0.684724
H272	H	0.127597	-0.766724	0.743557
O273	O	0.238839	-0.548834	0.561139
C274	C	0.268575	-0.583110	0.526807
H275	H	0.240323	-0.604664	0.534385
H276	H	0.281305	-0.555758	0.480399
C277	C	0.356724	-0.601912	0.532451
C278	C	0.322026	-0.628388	0.541762
H279	H	0.389696	-0.629840	0.541674
H280	H	0.336691	-0.578818	0.555579
H281	H	0.367326	-0.579119	0.493778
H282	H	0.311418	-0.651174	0.580436
H283	H	0.342058	-0.651487	0.518641
H284	H	0.391352	-0.415667	0.574082
H285	H	0.185713	-0.253197	0.519589
H286	H	0.149834	-0.145702	0.483792
H287	H	0.098041	-0.253238	0.695156
O288	O	0.056806	-0.141174	0.665485
C289	C	0.048468	-0.180041	0.721130
H290	H	0.055093	-0.222280	0.721023
H291	H	0.080025	-0.186339	0.738082
C292	C	-0.020356	-0.105054	0.759293
C293	C	-0.012224	-0.156931	0.759162
H294	H	-0.057792	-0.090798	0.782754
H295	H	-0.014737	-0.078868	0.721804
H296	H	0.005946	-0.110309	0.773418
H297	H	-0.038520	-0.151674	0.745030
H298	H	-0.017848	-0.183116	0.796649
H299	H	-0.029909	-0.543201	0.241439
H300	H	0.196241	-0.616742	0.420869
H301	H	-0.065911	-0.578960	0.348925
H302	H	0.021795	-0.754566	0.349042
O303	O	0.063159	-0.724936	0.236988
C304	C	0.071459	-0.780573	0.275874
H305	H	0.064772	-0.780454	0.318134
H306	H	0.039921	-0.797500	0.282104
C307	C	0.140371	-0.818790	0.200947
C308	C	0.132163	-0.818645	0.252850
H309	H	0.177815	-0.842276	0.186744
H310	H	0.134778	-0.781306	0.174748
H311	H	0.114085	-0.832894	0.206146
H312	H	0.158443	-0.804534	0.247649
H313	H	0.137762	-0.856127	0.279048
H314	H	0.021552	-0.754553	0.487300
O315	O	-0.032489	-0.534017	0.432969
C316	C	-0.066710	-0.504233	0.398574
H317	H	-0.059132	-0.532501	0.377029
H318	H	-0.113142	-0.491380	0.425825
C319	C	-0.060915	-0.416157	0.379757
C320	C	-0.051604	-0.450874	0.353291
H321	H	-0.051599	-0.383241	0.351826
H322	H	-0.037862	-0.436222	0.402931
H323	H	-0.099609	-0.405452	0.402465
H324	H	-0.012909	-0.461584	0.330589
H325	H	-0.074651	-0.430809	0.330112
H326	H	0.064741	-0.761071	0.410254
H327	H	0.100481	-0.868567	0.446139
H328	H	-0.109200	-0.760870	0.476275
H329	H	-0.116569	-0.710512	0.530934
H330	H	-0.223743	-0.586821	0.390905
O331	O	-0.228643	-0.676866	0.575740
C332	C	-0.189868	-0.711194	0.605589
H333	H	-0.147607	-0.732775	0.577384
H334	H	-0.183592	-0.683879	0.618414
C335	C	-0.264984	-0.729932	0.693613
C336	C	-0.213080	-0.756442	0.658972
H337	H	-0.279302	-0.757842	0.726543
H338	H	-0.291108	-0.706803	0.673504
H339	H	-0.259746	-0.707171	0.704294
H340	H	-0.218319	-0.779197	0.648286
H341	H	-0.186957	-0.779576	0.679081
H342	H	-0.116252	-0.622767	0.355267
