data_functionalizedCrystal
_audit_creation_method	'MofGen! by Chris Wilmer'
_symmetry_space_group_name_H-M	'P1'
_symmetry_Int_Tables_number	1
_symmetry_cell_setting	triclinic
loop_
_symmetry_equiv_pos_as_xyz
  x,y,z
_cell_length_a	21.295411
_cell_length_b	21.295418
_cell_length_c	21.295417
_cell_angle_alpha	90.046319
_cell_angle_beta	90.021644
_cell_angle_gamma	90.043738
loop_
_atom_site_label
_atom_site_type_symbol
_atom_site_fract_x
_atom_site_fract_y
_atom_site_fract_z
Zn1	Zn	-0.356234	-0.962356	0.250415
Zn2	Zn	-0.250959	-0.962258	0.355667
Zn3	Zn	-0.250943	-0.857079	0.250445
Zn4	Zn	-0.356155	-0.857048	0.355680
O5	O	-0.303573	-0.909685	0.303052
O6	O	-0.342308	-1.050432	0.264360
O7	O	-0.162867	-0.948278	0.341716
O8	O	-0.264937	-0.871098	0.162351
O9	O	-0.264963	-1.050361	0.341688
O10	O	-0.342293	-0.948444	0.162330
O11	O	-0.162856	-0.871003	0.264410
O12	O	-0.264861	-0.768985	0.264422
O13	O	-0.444255	-0.871046	0.341709
O14	O	-0.342160	-0.768963	0.341738
O15	O	-0.444313	-0.948415	0.264372
O16	O	-0.264887	-0.948248	0.443758
O17	O	-0.342175	-0.870951	0.443767
C18	C	-0.303500	-0.746134	0.303085
C19	C	-0.303484	-0.676166	0.303114
C20	C	-0.303538	-0.909603	0.466603
C21	C	-0.303544	-0.909625	0.536571
C22	C	-0.467763	-0.909738	0.303038
C23	C	-0.537731	-0.909760	0.303033
C24	C	-0.570629	-0.950044	0.262761
C25	C	-0.636371	-0.950043	0.262734
C26	C	-0.669214	-0.909765	0.302989
C27	C	-0.636308	-0.869473	0.343263
C28	C	-0.570567	-0.869470	0.343285
N29	N	-0.772428	-0.904908	0.358058
N30	N	-0.834879	-0.904914	0.358036
C31	C	-0.867289	-0.909769	0.302926
N32	N	-0.834888	-0.914629	0.247837
N33	N	-0.772430	-0.914627	0.247860
C34	C	-0.740499	-0.909763	0.302970
C35	C	-0.971472	-0.950054	0.262621
C36	C	-1.037216	-0.950049	0.262593
C37	C	-1.037151	-0.869482	0.343128
C38	C	-0.971409	-0.869484	0.343151
C39	C	-0.938573	-0.909773	0.302898
C40	C	-0.140021	-0.909670	0.303019
C41	C	-0.070054	-0.909769	0.302848
C42	C	-0.303646	-1.073876	0.303019
C43	C	-0.303677	-1.143844	0.303005
C44	C	-0.343674	-0.643304	0.343426
C45	C	-0.343702	-0.577561	0.343410
C46	C	-0.303530	-0.544683	0.303090
C47	C	-0.263337	-0.577553	0.262770
C48	C	-0.263315	-0.643294	0.262783
N49	N	-0.248472	-0.441407	0.298163
N50	N	-0.248495	-0.378956	0.298155
C51	C	-0.303596	-0.346608	0.303050
N52	N	-0.358675	-0.379072	0.307965
N53	N	-0.358650	-0.441529	0.307976
C54	C	-0.303550	-0.473398	0.303072
C55	C	-0.343820	-0.242461	0.343346
C56	C	-0.343849	-0.176717	0.343326
C57	C	-0.263479	-0.176710	0.262690
C58	C	-0.263455	-0.242453	0.262707
C59	C	-0.303625	-0.275324	0.303038
C60	C	-0.303622	-0.909785	0.138861
C61	C	-0.303642	-0.909828	0.068893
C62	C	-0.263342	-0.949910	0.569412
C63	C	-0.263356	-0.949939	0.635155
C64	C	-0.303566	-0.909673	0.668054
C65	C	-0.343776	-0.869386	0.635205
C66	C	-0.343765	-0.869362	0.569464
N67	N	-0.308340	-0.854606	0.771336
N68	N	-0.308347	-0.854630	0.833787
C69	C	-0.303602	-0.909743	0.866129
N70	N	-0.298838	-0.964832	0.833659
N71	N	-0.298828	-0.964807	0.771202
C72	C	-0.303582	-0.909695	0.739339
C73	C	-0.263413	-0.950063	0.970255
C74	C	-0.263431	-0.950094	1.035999
C75	C	-0.343848	-0.869535	1.036048
C76	C	-0.343833	-0.869510	0.970305
C77	C	-0.303612	-0.909773	0.937413
H78	H	-0.663162	-0.982846	0.229937
O79	O	-0.387119	-0.825897	0.534042
H80	H	-0.436542	-0.836665	0.546621
H81	H	-0.230664	-0.982850	0.943473
H82	H	-0.376431	-0.550800	0.376236
O83	O	-0.535087	-0.826004	0.386714
H84	H	-0.547705	-0.836759	0.436117
O85	O	-0.220067	-0.993544	1.071425
H86	H	-0.192095	-1.021531	1.037506
H87	H	-0.376516	-0.836602	0.661996
H88	H	-0.663053	-0.836676	0.376038
O89	O	-0.387215	-0.826100	1.071524
H90	H	-0.419279	-0.854268	1.101429
O91	O	-0.535211	-0.993495	0.219346
H92	H	-0.569137	-1.021504	0.191335
O93	O	-0.936048	-0.993499	0.219202
H94	H	-0.969972	-1.021504	0.191185
O95	O	-0.387192	-0.826054	0.934882
H96	H	-0.380433	-0.832805	0.883642
O97	O	-0.219964	-0.993340	0.533939
H98	H	-0.226705	-0.986554	0.482707
H99	H	-0.376384	-0.670063	0.376266
O100	O	-1.072569	-0.826034	0.386542
H101	H	-1.038644	-0.798018	0.414547
O102	O	-0.219995	-0.993402	0.670575
H103	H	-0.248219	-1.025431	0.700465
H104	H	-0.230773	-0.149942	0.229857
H105	H	-0.944623	-0.836683	0.375948
O106	O	-1.072703	-0.993501	0.219157
H107	H	-1.038823	-1.021519	0.191177
H108	H	-0.230630	-0.550779	0.229940
H109	H	-0.230726	-0.269209	0.229884
O110	O	-0.219954	-0.678745	0.219314
H111	H	-0.192019	-0.644841	0.191277
O112	O	-0.387153	-0.277929	0.386827
H113	H	-0.376285	-0.265253	0.436218
O114	O	-0.387115	-0.141268	0.386890
H115	H	-0.415006	-0.175173	0.414970
