data_functionalizedCrystal
_audit_creation_method	'MofGen! by Chris Wilmer'
_symmetry_space_group_name_H-M	'P1'
_symmetry_Int_Tables_number	1
_symmetry_cell_setting	triclinic
loop_
_symmetry_equiv_pos_as_xyz
  x,y,z
_cell_length_a	19.805407
_cell_length_b	19.077068
_cell_length_c	19.805398
_cell_angle_alpha	92.270943
_cell_angle_beta	89.984135
_cell_angle_gamma	92.327086
loop_
_atom_site_label
_atom_site_type_symbol
_atom_site_fract_x
_atom_site_fract_y
_atom_site_fract_z
Zn1	Zn	1.023878	-0.280230	-0.393534
Zn2	Zn	1.357211	0.053103	-0.060201
Zn3	Zn	1.690545	0.386437	0.273132
Zn4	Zn	1.019250	-0.397926	-0.284888
Zn5	Zn	1.352584	-0.064592	0.048445
Zn6	Zn	1.685917	0.268741	0.381778
Zn7	Zn	0.910699	-0.280246	-0.280360
Zn8	Zn	1.244033	0.053087	0.052974
Zn9	Zn	1.577366	0.386421	0.386307
Zn10	Zn	0.906108	-0.397892	-0.398034
Zn11	Zn	1.239441	-0.064558	-0.064700
Zn12	Zn	1.572774	0.268775	0.268633
O13	O	0.964984	-0.339073	-0.339204
O14	O	1.298317	-0.005740	-0.005871
O15	O	1.631651	0.327593	0.327463
O16	O	1.117980	-0.295850	-0.379134
O17	O	1.451314	0.037483	-0.045801
O18	O	1.784647	0.370817	0.287532
O19	O	1.004836	-0.382336	-0.189572
O20	O	1.338169	-0.049003	0.143762
O21	O	1.671503	0.284330	0.477095
O22	O	0.929571	-0.181752	-0.291594
O23	O	1.262904	0.151581	0.041739
O24	O	1.596238	0.484914	0.375073
O25	O	1.114581	-0.382321	-0.299313
O26	O	1.447914	-0.048987	0.034021
O27	O	1.781247	0.284346	0.367354
O28	O	1.012723	-0.181741	-0.374743
O29	O	1.346056	0.151593	-0.041410
O30	O	1.679390	0.484926	0.291923
O31	O	0.925084	-0.295877	-0.186244
O32	O	1.258417	0.037456	0.147089
O33	O	1.591751	0.370789	0.480422
O34	O	0.815374	-0.295844	-0.295957
O35	O	1.148707	0.037489	0.037376
O36	O	1.482041	0.370822	0.370710
O37	O	0.921745	-0.382263	-0.492153
O38	O	1.255079	-0.048929	-0.158819
O39	O	1.588412	0.284404	0.174514
O40	O	0.812001	-0.382278	-0.382412
O41	O	1.145334	-0.048945	-0.049078
O42	O	1.478667	0.284388	0.284255
O43	O	1.008271	-0.295817	-0.488847
O44	O	1.341604	0.037516	-0.155514
O45	O	1.674937	0.370850	0.177820
O46	O	1.000384	-0.496413	-0.303675
O47	O	1.333717	-0.163079	0.029658
O48	O	1.667050	0.170254	0.362991
O49	O	0.917258	-0.496388	-0.386803
O50	O	1.250591	-0.163054	-0.053470
O51	O	1.583925	0.170279	0.279864
C52	C	0.789128	-0.339060	-0.339182
C53	C	1.122462	-0.005727	-0.005848
C54	C	1.455795	0.327607	0.327485
C55	C	0.713896	-0.339071	-0.339189
C56	C	1.047229	-0.005738	-0.005855
C57	C	1.380563	0.327596	0.327478
C58	C	0.676810	-0.384145	-0.384138
C59	C	1.010144	-0.050812	-0.050805
C60	C	1.343477	0.282522	0.282529
C61	C	0.606122	-0.384146	-0.384148
C62	C	0.939455	-0.050813	-0.050814
C63	C	1.272789	0.282520	0.282519
C64	C	0.572520	-0.339077	-0.339204
C65	C	0.905854	-0.005743	-0.005871
C66	C	1.239187	0.327590	0.327463
C67	C	0.609611	-0.293998	-0.294252
C68	C	0.942944	0.039336	0.039081
C69	C	1.276278	0.372669	0.372414
C70	C	0.680298	-0.293993	-0.294247
C71	C	1.013632	0.039340	0.039087
C72	C	1.346965	0.372673	0.372420
C73	C	0.324537	-0.294013	-0.294275
C74	C	0.657870	0.039320	0.039058
C75	C	0.991204	0.372653	0.372391
C76	C	0.253845	-0.294022	-0.294283
C77	C	0.587178	0.039311	0.039050
C78	C	0.920511	0.372644	0.372383
C79	C	0.250361	-0.384166	-0.384176
C80	C	0.583694	-0.050833	-0.050843
C81	C	0.917027	0.282501	0.282490
C82	C	0.321048	-0.384162	-0.384171
C83	C	0.654381	-0.050828	-0.050837
C84	C	0.987715	0.282505	0.282496
C85	C	0.358133	-0.339081	-0.339222
C86	C	0.691466	-0.005747	-0.005889
C87	C	1.024799	0.327586	0.327445
C88	C	0.434781	-0.339079	-0.339213
C89	C	0.768115	-0.005746	-0.005880
C90	C	1.101448	0.327588	0.327454
C91	C	0.495873	-0.339081	-0.339209
C92	C	0.829206	-0.005748	-0.005876
C93	C	1.162540	0.327585	0.327457
C94	C	0.957839	-0.521938	-0.346234
C95	C	1.291172	-0.188604	-0.012900
C96	C	1.624505	0.144729	0.320433
C97	C	0.954844	-0.600168	-0.349264
C98	C	1.288177	-0.266835	-0.015930
C99	C	1.621511	0.066499	0.317403
C100	C	0.996750	-0.636910	-0.307443
C101	C	1.330083	-0.303577	0.025890
C102	C	1.663416	0.029756	0.359224
C103	C	0.993937	-0.710416	-0.310297
C104	C	1.327270	-0.377083	0.023037
C105	C	1.660603	-0.043749	0.356370
C106	C	0.949215	-0.747178	-0.354968
C107	C	1.282548	-0.413844	-0.021635
C108	C	1.615881	-0.080511	0.311698
C109	C	0.907307	-0.710430	-0.396793
C110	C	1.240641	-0.377097	-0.063460
C111	C	1.573974	-0.043764	0.269873
C112	C	0.910124	-0.636926	-0.393943
C113	C	1.243457	-0.303593	-0.060609
C114	C	1.576791	0.029741	0.272724
C115	C	0.936149	-0.967013	-0.368135
C116	C	1.269483	-0.633680	-0.034802
C117	C	1.602816	-0.300346	0.298532
C118	C	0.933334	-1.040522	-0.370981
C119	C	1.266668	-0.707189	-0.037648
C120	C	1.600001	-0.373856	0.295685
C121	C	1.019965	-1.040503	-0.284485
C122	C	1.353299	-0.707170	0.048848
C123	C	1.686632	-0.373836	0.382182
C124	C	1.022775	-0.966997	-0.281635
C125	C	1.356108	-0.633664	0.051698
C126	C	1.689442	-0.300331	0.385031
C127	C	0.980870	-0.930256	-0.323463
C128	C	1.314204	-0.596923	0.009870
C129	C	1.647537	-0.263589	0.343204
N130	N	0.946337	-0.822312	-0.357885
N131	N	1.279670	-0.488979	-0.024552
N132	N	1.613004	-0.155646	0.308782
N133	N	0.983752	-0.855123	-0.320549
N134	N	1.317085	-0.521790	0.012784
N135	N	1.650418	-0.188456	0.346117
C136	C	1.141526	-0.339087	-0.339227
C137	C	1.474859	-0.005754	-0.005893
C138	C	1.808193	0.327579	0.327440
C139	C	1.216758	-0.339093	-0.339237
C140	C	1.550091	-0.005760	-0.005903
C141	C	1.883424	0.327573	0.327430
C142	C	0.965012	-0.339034	-0.515745
C143	C	1.298345	-0.005701	-0.182412
C144	C	1.631679	0.327632	0.150921
C145	C	0.965024	-0.339018	-0.590977
C146	C	1.298357	-0.005684	-0.257643
C147	C	1.631691	0.327649	0.075690
C148	C	0.972175	-0.155495	-0.332162
C149	C	1.305509	0.177838	0.001172
C150	C	1.638842	0.511172	0.334505
C151	C	0.975240	-0.077265	-0.329161
C152	C	1.308573	0.256069	0.004173
C153	C	1.641907	0.589402	0.337506
C154	C	1.010164	-0.293881	-1.051043
C155	C	1.343497	0.039452	-0.717710
C156	C	1.676831	0.372786	-0.384376
C157	C	1.010153	-0.293902	-0.980355
C158	C	1.343486	0.039431	-0.647022
C159	C	1.676819	0.372764	-0.313689
C160	C	0.965097	-0.338920	-0.946735
C161	C	1.298430	-0.005587	-0.613401
C162	C	1.631764	0.327747	-0.280068
C163	C	0.920055	-0.383924	-0.983806
C164	C	1.253388	-0.050590	-0.650473
C165	C	1.586721	0.282743	-0.317139
C166	C	0.920070	-0.383905	-1.054492
C167	C	1.253403	-0.050572	-0.721159
C168	C	1.586737	0.282762	-0.387826
C169	C	0.919993	-0.384000	-0.698735
C170	C	1.253326	-0.050667	-0.365402
C171	C	1.586660	0.282667	-0.032069
C172	C	0.919980	-0.384014	-0.628044
C173	C	1.253313	-0.050680	-0.294710
C174	C	1.586647	0.282653	0.038623
C175	C	1.010076	-0.293997	-0.624598
C176	C	1.343409	0.039336	-0.291265
C177	C	1.676742	0.372669	0.042068
C178	C	1.010091	-0.293979	-0.695285
C179	C	1.343424	0.039355	-0.361951
C180	C	1.676757	0.372688	-0.028618
C181	C	0.965051	-0.338985	-0.732350
C182	C	1.298385	-0.005652	-0.399016
C183	C	1.631718	0.327682	-0.065683
C184	C	0.965065	-0.338962	-0.808997
C185	C	1.298398	-0.005629	-0.475664
C186	C	1.631732	0.327705	-0.142331
C187	C	0.965080	-0.338940	-0.870088
C188	C	1.298413	-0.005606	-0.536755
C189	C	1.631746	0.327727	-0.203422
C190	C	0.964997	-0.339061	-0.163347
C191	C	1.298330	-0.005728	0.169986
C192	C	1.631664	0.327605	0.503319
C193	C	0.965124	-0.338880	-0.088109
C194	C	1.298457	-0.005546	0.245224
C195	C	1.631790	0.327787	0.578558
H196	H	0.575930	-0.420851	-0.420750
H197	H	0.909263	-0.087517	-0.087416
H198	H	1.242596	0.245816	0.245917
H199	H	0.710493	-0.257286	-0.257648
H200	H	1.043826	0.076047	0.075686
H201	H	1.377160	0.409381	0.409019
H202	H	0.883286	-0.420672	-0.600672
H203	H	1.216619	-0.087338	-0.267339
H204	H	1.549952	0.245995	0.065995
H205	H	1.054083	-1.070425	-0.250432
H206	H	1.387416	-0.737092	0.082901
H207	H	1.720749	-0.403759	0.416234
H208	H	0.348403	-0.420864	-0.420766
H209	H	0.681736	-0.087531	-0.087433
H210	H	1.015069	0.245802	0.245900
C211	C	1.045946	-0.596479	-0.258305
C212	C	1.379279	-0.263145	0.075029
C213	C	1.712612	0.070188	0.408362
H214	H	1.070504	-0.628891	-0.233812
H215	H	1.403838	-0.295558	0.099521
H216	H	1.737171	0.037775	0.432855
H217	H	1.021174	-0.567845	-0.227678
H218	H	1.354507	-0.234512	0.105656
H219	H	1.687840	0.098821	0.438989
H220	H	1.076522	-0.567764	-0.283116
H221	H	1.409856	-0.234431	0.050217
H222	H	1.743189	0.098903	0.383551
H223	H	0.902027	-0.937104	-0.402191
H224	H	1.235361	-0.603771	-0.068858
H225	H	1.568694	-0.270437	0.264475
H226	H	0.896924	-1.070452	-0.407370
H227	H	1.230258	-0.737118	-0.074037
H228	H	1.563591	-0.403785	0.259297
C229	C	0.209566	-0.433748	-0.433627
C230	C	0.542899	-0.100415	-0.100293
C231	C	0.876233	0.232919	0.233040
H232	H	0.162655	-0.427292	-0.427201
H233	H	0.495988	-0.093959	-0.093868
H234	H	0.829321	0.239374	0.239465
H235	H	0.219301	-0.481023	-0.425463
H236	H	0.552634	-0.147689	-0.092129
H237	H	0.885967	0.185644	0.241204
H238	H	0.221570	-0.423506	-0.478727
H239	H	0.554904	-0.090173	-0.145394
H240	H	0.888237	0.243161	0.187939
C241	C	0.858115	-0.750863	-0.445934
C242	C	1.191448	-0.417530	-0.112601
C243	C	1.524782	-0.084196	0.220732
H244	H	0.833566	-0.718451	-0.470438
H245	H	1.166899	-0.385118	-0.137105
H246	H	1.500232	-0.051784	0.196229
H247	H	0.827539	-0.779580	-0.421131
H248	H	1.160873	-0.446247	-0.087798
H249	H	1.494206	-0.112914	0.245535
H250	H	0.882896	-0.779494	-0.476562
H251	H	1.216229	-0.446160	-0.143229
H252	H	1.549563	-0.112827	0.190105
C253	C	0.365324	-0.244431	-0.244833
C254	C	0.698658	0.088903	0.088501
C255	C	1.031991	0.422236	0.421834
H256	H	0.412236	-0.250874	-0.251268
H257	H	0.745570	0.082460	0.082065
H258	H	1.078903	0.415793	0.415399
H259	H	0.353324	-0.254667	-0.199734
H260	H	0.686658	0.078666	0.133600
H261	H	1.019991	0.412000	0.466933
H262	H	0.355585	-0.197154	-0.253002
H263	H	0.688918	0.136179	0.080331
H264	H	1.022252	0.469512	0.413664
H265	H	1.028060	-0.740328	-0.276241
H266	H	1.361394	-0.406995	0.057092
H267	H	1.694727	-0.073662	0.390425
C268	C	1.059692	-0.244401	-0.939582
C269	C	1.393025	0.088932	-0.606249
C270	C	1.726358	0.422266	-0.272916
H271	H	1.053236	-0.250863	-0.892669
H272	H	1.386570	0.082470	-0.559336
H273	H	1.719903	0.415804	-0.226002
H274	H	1.051637	-0.197109	-0.949350
H275	H	1.384970	0.136225	-0.616017
H276	H	1.718303	0.469558	-0.282683
H277	H	1.104771	-0.254702	-0.951567
H278	H	1.438104	0.078632	-0.618234
H279	H	1.771438	0.411965	-0.284900
H280	H	0.226488	-0.257317	-0.257684
H281	H	0.559822	0.076016	0.075649
H282	H	0.893155	0.409350	0.408982
H283	H	0.876001	-0.607011	-0.427998
H284	H	1.209334	-0.273678	-0.094665
H285	H	1.542668	0.059656	0.238668
C286	C	1.059727	-0.244363	-1.088019
C287	C	1.393061	0.088971	-0.754686
C288	C	1.726394	0.422304	-0.421353
H289	H	1.086554	-0.217571	-1.055818
H290	H	1.419888	0.115762	-0.722484
H291	H	1.753221	0.449095	-0.389151
H292	H	1.035046	-0.213686	-1.114416
H293	H	1.368380	0.119648	-0.781083
H294	H	1.701713	0.452981	-0.447749
H295	H	1.088172	-0.271287	-1.116628
H296	H	1.421505	0.062046	-0.783295
H297	H	1.754838	0.395379	-0.449962
C298	C	0.870528	-0.433403	-1.095268
C299	C	1.203861	-0.100070	-0.761935
C300	C	1.537194	0.233264	-0.428601
H301	H	0.876994	-0.426950	-1.142181
H302	H	1.210328	-0.093617	-0.808848
H303	H	1.543661	0.239716	-0.475515
H304	H	0.825450	-0.423106	-1.083287
H305	H	1.158784	-0.089773	-0.749954
H306	H	1.492117	0.243560	-0.416621
H307	H	0.878586	-0.480698	-1.085498
H308	H	1.211919	-0.147364	-0.752165
H309	H	1.545253	0.185969	-0.418832
H310	H	1.046777	-0.257318	-0.722655
H311	H	1.380111	0.076015	-0.389321
H312	H	1.713444	0.409348	-0.055988
H313	H	0.704164	-0.420848	-0.420734
H314	H	1.037497	-0.087515	-0.087401
H315	H	1.370830	0.245818	0.245932
H316	H	1.046751	-0.257353	-0.594411
H317	H	1.380084	0.075980	-0.261078
H318	H	1.713418	0.409314	0.072255
C319	C	0.870444	-0.433497	-0.739498
C320	C	1.203778	-0.100163	-0.406164
C321	C	1.537111	0.233170	-0.072831
H322	H	0.843604	-0.460302	-0.709349
H323	H	1.176938	-0.126968	-0.376015
H324	H	1.510271	0.206365	-0.042682
H325	H	0.895135	-0.464161	-0.768253
H326	H	1.228469	-0.130828	-0.434920
H327	H	1.561802	0.202505	-0.101587
H328	H	0.842012	-0.406558	-0.766034
H329	H	1.175345	-0.073224	-0.432701
H330	H	1.508678	0.260109	-0.099368
H331	H	0.582247	-0.257298	-0.257661
H332	H	0.915580	0.076035	0.075672
H333	H	1.248914	0.409368	0.409005
C334	C	1.071974	-0.926564	-0.232501
C335	C	1.405307	-0.593231	0.100832
C336	C	1.738640	-0.259897	0.434166
H337	H	1.096533	-0.958975	-0.208006
H338	H	1.429867	-0.625641	0.125327
H339	H	1.763200	-0.292308	0.458660
H340	H	1.047201	-0.897930	-0.201875
H341	H	1.380534	-0.564597	0.131458
H342	H	1.713867	-0.231264	0.464791
H343	H	1.102550	-0.897850	-0.257313
H344	H	1.435883	-0.564516	0.076020
H345	H	1.769216	-0.231183	0.409354
C346	C	0.870494	-0.433441	-0.946825
C347	C	1.203827	-0.100107	-0.613492
C348	C	1.537160	0.233226	-0.280159
H349	H	0.876929	-0.427002	-0.899418
H350	H	1.210263	-0.093669	-0.566084
H351	H	1.543596	0.239665	-0.232751
H352	H	0.878547	-0.480729	-0.960224
H353	H	1.211880	-0.147395	-0.626891
H354	H	1.545214	0.185938	-0.293558
H355	H	0.825421	-0.423128	-0.958013
H356	H	1.158754	-0.089794	-0.624679
H357	H	1.492088	0.243539	-0.291346
