data_functionalizedCrystal
_audit_creation_method	'MofGen! by Chris Wilmer'
_symmetry_space_group_name_H-M	'P1'
_symmetry_Int_Tables_number	1
_symmetry_cell_setting	triclinic
loop_
_symmetry_equiv_pos_as_xyz
  x,y,z
_cell_length_a	10.654550
_cell_length_b	10.723024
_cell_length_c	9.198806
_cell_angle_alpha	90.002012
_cell_angle_beta	89.992525
_cell_angle_gamma	95.523614
loop_
_atom_site_label
_atom_site_type_symbol
_atom_site_fract_x
_atom_site_fract_y
_atom_site_fract_z
O1	O	1.667814	-0.175272	-0.121008
O2	O	1.302333	-0.191971	-0.120984
O3	O	1.493504	-0.002047	-0.120991
O4	O	1.476643	-0.365196	-0.121001
O5	O	1.493489	-0.002046	0.120794
O6	O	1.302318	-0.191970	0.120801
O7	O	1.667799	-0.175271	0.120777
Cu8	Cu	1.485057	-0.183621	0.142866
Cu9	Cu	1.485075	-0.183622	-0.143073
O10	O	1.476628	-0.365196	0.120784
C11	C	1.255528	-0.190745	-0.000089
C12	C	1.116085	-0.187076	-0.000080
N13	N	1.485053	-0.183620	0.343980
C14	C	1.492269	0.044454	-0.000100
C15	C	1.488598	0.183008	-0.000105
C16	C	1.036583	-0.298901	-0.000104
C17	C	0.905562	-0.295446	-0.000129
C18	C	0.933560	-0.068333	-0.000112
C19	C	1.064578	-0.071789	-0.000076
C20	C	1.088090	-0.414188	-0.000107
C21	C	1.008586	-0.526022	-0.000133
C22	C	0.877566	-0.522567	-0.000158
C23	C	0.826049	-0.407279	-0.000158
C24	C	1.714604	-0.176498	-0.000122
C25	C	1.854047	-0.180166	-0.000140
C26	C	1.477863	-0.411696	-0.000110
C27	C	1.481534	-0.550251	-0.000115
C28	C	1.595568	0.257975	-0.000114
C29	C	1.591776	0.401179	-0.000119
N30	N	1.485088	-0.183613	-0.344187
C31	C	1.565321	-0.103524	0.416174
C32	C	1.565340	-0.103520	0.583586
H33	H	1.194772	-0.417014	-0.000094
H34	H	1.416343	-0.252185	0.406110
C35	C	1.658120	-0.010865	0.332243
N36	N	1.728014	0.058935	0.269028
H37	H	1.389955	0.385338	-0.000097
H38	H	1.634065	-0.034951	0.645670
C39	C	1.723085	0.201463	-0.000112
N40	N	1.819136	0.158900	-0.000105
H41	H	1.683350	0.465598	-0.000121
H42	H	1.050540	-0.619885	-0.000122
C43	C	1.152035	0.051224	-0.000057
N44	N	1.217909	0.143880	-0.000041
H45	H	1.416369	-0.252194	0.593738
C46	C	0.681921	-0.403486	-0.000179
N47	N	0.573366	-0.400631	-0.000204
H48	H	0.891604	0.025529	-0.000135
H49	H	0.812837	-0.613628	-0.000165
C50	C	1.361080	0.239520	-0.000095
N51	N	1.265030	0.282083	-0.000083
