data_functionalizedCrystal
_audit_creation_method	'MofGen! by Chris Wilmer'
_symmetry_space_group_name_H-M	'P1'
_symmetry_Int_Tables_number	1
_symmetry_cell_setting	triclinic
loop_
_symmetry_equiv_pos_as_xyz
  x,y,z
_cell_length_a	25.639242
_cell_length_b	25.639240
_cell_length_c	25.639234
_cell_angle_alpha	89.968234
_cell_angle_beta	89.980822
_cell_angle_gamma	90.025061
loop_
_atom_site_label
_atom_site_type_symbol
_atom_site_fract_x
_atom_site_fract_y
_atom_site_fract_z
Zn1	Zn	0.799271	-0.208292	-0.295607
Zn2	Zn	1.049271	0.041708	-0.045607
Zn3	Zn	1.299271	0.291708	0.204393
Zn4	Zn	1.549271	0.541708	0.454393
Zn5	Zn	0.799197	-0.295719	-0.208160
Zn6	Zn	1.049197	-0.045719	0.041840
Zn7	Zn	1.299197	0.204281	0.291840
Zn8	Zn	1.549197	0.454281	0.541840
Zn9	Zn	0.711840	-0.208288	-0.208183
Zn10	Zn	0.961840	0.041712	0.041817
Zn11	Zn	1.211840	0.291712	0.291817
Zn12	Zn	1.461840	0.541712	0.541817
Zn13	Zn	0.711802	-0.295686	-0.295562
Zn14	Zn	0.961802	-0.045686	-0.045562
Zn15	Zn	1.211802	0.204314	0.204438
Zn16	Zn	1.461802	0.454314	0.454438
O17	O	0.755528	-0.251996	-0.251878
O18	O	1.005528	-0.001996	-0.001878
O19	O	1.255528	0.248004	0.248122
O20	O	1.505528	0.498004	0.498122
O21	O	0.872427	-0.219905	-0.284016
O22	O	1.122427	0.030095	-0.034016
O23	O	1.372427	0.280095	0.215984
O24	O	1.622427	0.530095	0.465984
O25	O	0.787593	-0.284134	-0.134998
O26	O	1.037593	-0.034134	0.115002
O27	O	1.287593	0.215866	0.365002
O28	O	1.537593	0.465866	0.615002
O29	O	0.723486	-0.135123	-0.219808
O30	O	0.973486	0.114877	0.030192
O31	O	1.223486	0.364877	0.280192
O32	O	1.473486	0.614877	0.530192
O33	O	0.872372	-0.284137	-0.219770
O34	O	1.122372	-0.034137	0.030230
O35	O	1.372372	0.215863	0.280230
O36	O	1.622372	0.465863	0.530230
O37	O	0.787721	-0.135126	-0.284038
O38	O	1.037721	0.114874	-0.034038
O39	O	1.287721	0.364874	0.215962
O40	O	1.537721	0.614874	0.465962
O41	O	0.723413	-0.219898	-0.135015
O42	O	0.973413	0.030102	0.114985
O43	O	1.223413	0.280102	0.364985
O44	O	1.473413	0.530102	0.614985
O45	O	0.638670	-0.219866	-0.219765
O46	O	0.888670	0.030134	0.030235
O47	O	1.138670	0.280134	0.280235
O48	O	1.388670	0.530134	0.530235
O49	O	0.723420	-0.284081	-0.368733
O50	O	0.973420	-0.034081	-0.118733
O51	O	1.223420	0.215919	0.131267
O52	O	1.473420	0.465919	0.381267
O53	O	0.638642	-0.284077	-0.283962
O54	O	0.888642	-0.034077	-0.033962
O55	O	1.138642	0.215923	0.216038
O56	O	1.388642	0.465923	0.466038
O57	O	0.787684	-0.219872	-0.368766
O58	O	1.037684	0.030128	-0.118766
O59	O	1.287684	0.280128	0.131234
O60	O	1.537684	0.530128	0.381234
O61	O	0.787556	-0.368880	-0.219726
O62	O	1.037556	-0.118880	0.030274
O63	O	1.287556	0.131120	0.280274
O64	O	1.537556	0.381120	0.530274
O65	O	0.723348	-0.368856	-0.283940
O66	O	0.973348	-0.118856	-0.033940
O67	O	1.223348	0.131144	0.216060
O68	O	1.473348	0.381144	0.466060
C69	C	0.619685	-0.251968	-0.251861
C70	C	0.869685	-0.001968	-0.001861
C71	C	1.119685	0.248032	0.248139
C72	C	1.369685	0.498032	0.498139
C73	C	0.561571	-0.251969	-0.251867
C74	C	0.811571	-0.001969	-0.001867
C75	C	1.061571	0.248031	0.248133
C76	C	1.311571	0.498031	0.498133
C77	C	0.310414	-0.218610	-0.285392
C78	C	0.560414	0.031390	-0.035392
C79	C	0.810414	0.281390	0.214608
C80	C	1.060414	0.531390	0.464608
C81	C	0.365019	-0.218605	-0.285390
C82	C	0.615019	0.031395	-0.035390
C83	C	0.865019	0.281395	0.214610
C84	C	1.115019	0.531395	0.464610
O85	O	0.393286	-0.190219	-0.313891
O86	O	0.643286	0.059781	-0.063891
O87	O	0.893286	0.309781	0.186109
O88	O	1.143286	0.559781	0.436109
N89	N	0.392297	-0.251990	-0.251884
N90	N	0.642297	-0.001990	-0.001884
N91	N	0.892297	0.248010	0.248116
N92	N	1.142297	0.498010	0.498116
C93	C	0.364969	-0.285387	-0.218383
C94	C	0.614969	-0.035387	0.031617
C95	C	0.864969	0.214613	0.281617
C96	C	1.114969	0.464613	0.531617
O97	O	0.393185	-0.313784	-0.189885
O98	O	0.643185	-0.063784	0.060115
O99	O	0.893185	0.186216	0.310115
O100	O	1.143185	0.436216	0.560115
C101	C	0.310365	-0.285394	-0.218389
C102	C	0.560365	-0.035394	0.031611
C103	C	0.810365	0.214606	0.281611
C104	C	1.060365	0.464606	0.531611
C105	C	0.283089	-0.252003	-0.251893
C106	C	0.533089	-0.002003	-0.001893
C107	C	0.783089	0.247997	0.248107
C108	C	1.033089	0.497997	0.498107
C109	C	0.283138	-0.185221	-0.318894
C110	C	0.533138	0.064779	-0.068894
C111	C	0.783138	0.314779	0.181106
C112	C	1.033138	0.564779	0.431106
C113	C	0.228538	-0.185226	-0.318896
C114	C	0.478538	0.064774	-0.068896
C115	C	0.728538	0.314774	0.181104
C116	C	0.978538	0.564774	0.431104
C117	C	0.201213	-0.218619	-0.285397
C118	C	0.451213	0.031381	-0.035397
C119	C	0.701213	0.281381	0.214603
C120	C	0.951213	0.531381	0.464603
C121	C	0.228489	-0.252007	-0.251895
C122	C	0.478489	-0.002007	-0.001895
C123	C	0.728489	0.247993	0.248105
C124	C	0.978489	0.497993	0.498105
C125	C	0.283038	-0.318793	-0.184892
C126	C	0.533038	-0.068793	0.065108
C127	C	0.783038	0.181207	0.315108
C128	C	1.033038	0.431207	0.565108
C129	C	0.228431	-0.318798	-0.184901
C130	C	0.478431	-0.068798	0.065099
C131	C	0.728431	0.181202	0.315099
C132	C	0.978431	0.431202	0.565099
C133	C	0.201155	-0.285407	-0.218405
C134	C	0.451155	-0.035407	0.031595
C135	C	0.701155	0.214593	0.281595
C136	C	0.951155	0.464593	0.531595
C137	C	0.146564	-0.285405	-0.218398
C138	C	0.396564	-0.035405	0.031602
C139	C	0.646564	0.214595	0.281602
C140	C	0.896564	0.464595	0.531602
N141	N	0.119285	-0.252019	-0.251904
N142	N	0.369285	-0.002019	-0.001904
N143	N	0.619285	0.247981	0.248096
N144	N	0.869285	0.497981	0.498096
C145	C	0.146610	-0.218626	-0.285403
C146	C	0.396610	0.031374	-0.035403
C147	C	0.646610	0.281374	0.214597
C148	C	0.896610	0.531374	0.464597
C149	C	0.479639	-0.285370	-0.218374
C150	C	0.729639	-0.035370	0.031626
C151	C	0.979639	0.214630	0.281626
C152	C	1.229639	0.464630	0.531626
C153	C	0.534241	-0.285360	-0.218365
C154	C	0.784241	-0.035360	0.031635
C155	C	1.034241	0.214640	0.281635
C156	C	1.284241	0.464640	0.531635
C157	C	0.534288	-0.218578	-0.285372
C158	C	0.784288	0.031422	-0.035372
C159	C	1.034288	0.281422	0.214628
C160	C	1.284288	0.531422	0.464628
C161	C	0.479684	-0.218585	-0.285378
C162	C	0.729684	0.031415	-0.035378
C163	C	0.979684	0.281415	0.214622
C164	C	1.229684	0.531415	0.464622
C165	C	0.452361	-0.251984	-0.251879
C166	C	0.702361	-0.001984	-0.001879
C167	C	0.952361	0.248016	0.248121
C168	C	1.202361	0.498016	0.498121
C169	C	0.031945	-0.218638	-0.285404
C170	C	0.281945	0.031362	-0.035404
C171	C	0.531945	0.281362	0.214596
C172	C	0.781945	0.531362	0.464596
C173	C	-0.022661	-0.218644	-0.285402
C174	C	0.227339	0.031356	-0.035402
C175	C	0.477339	0.281356	0.214598
C176	C	0.727339	0.531356	0.464598
C177	C	-0.022702	-0.285428	-0.218397
C178	C	0.227298	-0.035428	0.031603
C179	C	0.477298	0.214572	0.281603
C180	C	0.727298	0.464572	0.531603
C181	C	0.031898	-0.285420	-0.218398
C182	C	0.281898	-0.035420	0.031602
C183	C	0.531898	0.214580	0.281602
C184	C	0.781898	0.464580	0.531602
C185	C	0.059221	-0.252023	-0.251905
C186	C	0.309221	-0.002023	-0.001905
C187	C	0.559221	0.247977	0.248095
C188	C	0.809221	0.497977	0.498095
O189	O	0.118261	-0.313778	-0.189913
O190	O	0.368261	-0.063778	0.060087
O191	O	0.618261	0.186222	0.310087
O192	O	0.868261	0.436222	0.560087
O193	O	0.118387	-0.190239	-0.313902
O194	O	0.368387	0.059761	-0.063902
O195	O	0.618387	0.309761	0.186098
O196	O	0.868387	0.559761	0.436098
C197	C	0.755454	-0.387839	-0.251837
C198	C	1.005454	-0.137839	-0.001837
C199	C	1.255454	0.112161	0.248163
C200	C	1.505454	0.362161	0.498163
C201	C	0.755470	-0.445953	-0.251837
C202	C	1.005470	-0.195953	-0.001837
C203	C	1.255470	0.054047	0.248163
C204	C	1.505470	0.304047	0.498163
C205	C	0.788991	-0.806279	-0.285383
C206	C	1.038991	-0.556279	-0.035383
C207	C	1.288991	-0.306279	0.214617
C208	C	1.538991	-0.056279	0.464617
C209	C	0.789007	-0.860883	-0.285394
C210	C	1.039007	-0.610883	-0.035394
C211	C	1.289007	-0.360883	0.214606
C212	C	1.539007	-0.110883	0.464606
O213	O	0.817420	-0.889088	-0.313874
O214	O	1.067420	-0.639088	-0.063874
O215	O	1.317420	-0.389088	0.186126
O216	O	1.567420	-0.139088	0.436126
N217	N	0.755600	-0.888235	-0.251929
N218	N	1.005600	-0.638235	-0.001929
N219	N	1.255600	-0.388235	0.248071
N220	N	1.505600	-0.138235	0.498071
C221	C	0.722172	-0.860980	-0.218455
C222	C	0.972172	-0.610980	0.031545
C223	C	1.222172	-0.360980	0.281545
C224	C	1.472172	-0.110980	0.531545
O225	O	0.693758	-0.889259	-0.189991
O226	O	0.943758	-0.639259	0.060009
O227	O	1.193758	-0.389259	0.310009
O228	O	1.443758	-0.139259	0.560009
C229	C	0.722154	-0.806377	-0.218447
C230	C	0.972154	-0.556377	0.031553
C231	C	1.222154	-0.306377	0.281553
C232	C	1.472154	-0.056377	0.531553
C233	C	0.755567	-0.779028	-0.251911
C234	C	1.005567	-0.529028	-0.001911
C235	C	1.255567	-0.279028	0.248089
C236	C	1.505567	-0.029028	0.498089
C237	C	0.822401	-0.778929	-0.318844
C238	C	1.072401	-0.528929	-0.068844
C239	C	1.322401	-0.278929	0.181156
C240	C	1.572401	-0.028929	0.431156
C241	C	0.822386	-0.724329	-0.318833
C242	C	1.072386	-0.474329	-0.068833
C243	C	1.322386	-0.224329	0.181167
C244	C	1.572386	0.025671	0.431167
C245	C	0.788962	-0.697078	-0.285360
C246	C	1.038962	-0.447078	-0.035360
C247	C	1.288962	-0.197078	0.214640
C248	C	1.538962	0.052922	0.464640
C249	C	0.755552	-0.724427	-0.251899
C250	C	1.005552	-0.474427	-0.001899
C251	C	1.255552	-0.224427	0.248101
C252	C	1.505552	0.025573	0.498101
C253	C	0.688724	-0.779123	-0.184976
C254	C	0.938724	-0.529123	0.065024
C255	C	1.188724	-0.279123	0.315024
C256	C	1.438724	-0.029123	0.565024
C257	C	0.688709	-0.724516	-0.184972
C258	C	0.938709	-0.474516	0.065028
C259	C	1.188709	-0.224516	0.315028
C260	C	1.438709	0.025484	0.565028
C261	C	0.722122	-0.697167	-0.218435
C262	C	0.972122	-0.447167	0.031565
C263	C	1.222122	-0.197167	0.281565
C264	C	1.472122	0.052833	0.531565
C265	C	0.722113	-0.642575	-0.218415
C266	C	0.972113	-0.392575	0.031585
C267	C	1.222113	-0.142575	0.281585
C268	C	1.472113	0.107425	0.531585
N269	N	0.755520	-0.615223	-0.251880
N270	N	1.005520	-0.365223	-0.001880
N271	N	1.255520	-0.115223	0.248120
N272	N	1.505520	0.134777	0.498120
C273	C	0.788944	-0.642474	-0.285353
C274	C	1.038944	-0.392474	-0.035353
C275	C	1.288944	-0.142474	0.214647
C276	C	1.538944	0.107526	0.464647
C277	C	0.722211	-0.975651	-0.218474
C278	C	0.972211	-0.725651	0.031526
C279	C	1.222211	-0.475651	0.281526
C280	C	1.472211	-0.225651	0.531526
C281	C	0.722231	-1.030253	-0.218478
C282	C	0.972231	-0.780253	0.031522
C283	C	1.222231	-0.530253	0.281522
C284	C	1.472231	-0.280253	0.531522
C285	C	0.789065	-1.030152	-0.285418
C286	C	1.039065	-0.780152	-0.035418
C287	C	1.289065	-0.530152	0.214582
C288	C	1.539065	-0.280152	0.464582
C289	C	0.789048	-0.975549	-0.285411
C290	C	1.039048	-0.725549	-0.035411
C291	C	1.289048	-0.475549	0.214589
C292	C	1.539048	-0.225549	0.464589
C293	C	0.755618	-0.948299	-0.251939
C294	C	1.005618	-0.698299	-0.001939
C295	C	1.255618	-0.448299	0.248061
C296	C	1.505618	-0.198299	0.498061
C297	C	0.788911	-0.527809	-0.285326
C298	C	1.038911	-0.277809	-0.035326
C299	C	1.288911	-0.027809	0.214674
C300	C	1.538911	0.222191	0.464674
C301	C	0.788894	-0.473204	-0.285310
C302	C	1.038894	-0.223204	-0.035310
C303	C	1.288894	0.026796	0.214690
C304	C	1.538894	0.276796	0.464690
C305	C	0.722058	-0.473310	-0.218372
C306	C	0.972058	-0.223310	0.031628
C307	C	1.222058	0.026690	0.281628
C308	C	1.472058	0.276690	0.531628
C309	C	0.722076	-0.527910	-0.218386
C310	C	0.972076	-0.277910	0.031614
C311	C	1.222076	-0.027910	0.281614
C312	C	1.472076	0.222090	0.531614
C313	C	0.755504	-0.555159	-0.251867
C314	C	1.005504	-0.305159	-0.001867
C315	C	1.255504	-0.055159	0.248133
C316	C	1.505504	0.194841	0.498133
O317	O	0.693713	-0.614336	-0.189951
O318	O	0.943713	-0.364336	0.060049
O319	O	1.193713	-0.114336	0.310049
O320	O	1.443713	0.135664	0.560049
O321	O	0.817348	-0.614189	-0.313816
O322	O	1.067348	-0.364189	-0.063816
O323	O	1.317348	-0.114189	0.186184
O324	O	1.567348	0.135811	0.436184
C325	C	0.891901	-0.252025	-0.251896
C326	C	1.141901	-0.002025	-0.001896
C327	C	1.391901	0.247975	0.248104
C328	C	1.641901	0.497975	0.498104
C329	C	0.950015	-0.252037	-0.251903
C330	C	1.200015	-0.002037	-0.001903
C331	C	1.450015	0.247963	0.248097
C332	C	1.700015	0.497963	0.498097
C333	C	0.755556	-0.251973	-0.388251
C334	C	1.005556	-0.001973	-0.138251
C335	C	1.255556	0.248027	0.111749
C336	C	1.505556	0.498027	0.361749
C337	C	0.755568	-0.251963	-0.446365
C338	C	1.005568	-0.001963	-0.196365
C339	C	1.255568	0.248037	0.053635
C340	C	1.505568	0.498037	0.303635
C341	C	0.755616	-0.115623	-0.251931
C342	C	1.005616	0.134377	-0.001931
C343	C	1.255616	0.384377	0.248069
C344	C	1.505616	0.634377	0.498069
C345	C	0.755654	-0.057509	-0.251953
C346	C	1.005654	0.192491	-0.001953
C347	C	1.255654	0.442491	0.248047
C348	C	1.505654	0.692491	0.498047
C349	C	0.789000	-0.285368	-0.697543
C350	C	1.039000	-0.035368	-0.447543
C351	C	1.289000	0.214632	-0.197543
C352	C	1.539000	0.464632	0.052457
C353	C	0.788995	-0.285379	-0.642938
C354	C	1.038995	-0.035379	-0.392938
C355	C	1.288995	0.214621	-0.142938
C356	C	1.538995	0.464621	0.107062
O357	O	0.817396	-0.313838	-0.614688
O358	O	1.067396	-0.063838	-0.364688
O359	O	1.317396	0.186162	-0.114688
O360	O	1.567396	0.436162	0.135312
N361	N	0.755579	-0.251938	-0.615639
N362	N	1.005579	-0.001938	-0.365639
N363	N	1.255579	0.248062	-0.115639
N364	N	1.505579	0.498062	0.134361
C365	C	0.722163	-0.218488	-0.642947
C366	C	0.972163	0.031512	-0.392947
C367	C	1.222163	0.281512	-0.142947
C368	C	1.472163	0.531512	0.107053
O369	O	0.693740	-0.190045	-0.614714
O370	O	0.943740	0.059955	-0.364714
O371	O	1.193740	0.309955	-0.114714
O372	O	1.443740	0.559955	0.135286
C373	C	0.722167	-0.218480	-0.697551
C374	C	0.972167	0.031520	-0.447551
C375	C	1.222167	0.281520	-0.197551
C376	C	1.472167	0.531520	0.052449
C377	C	0.755588	-0.251919	-0.724847
C378	C	1.005588	-0.001919	-0.474847
C379	C	1.255588	0.248081	-0.224847
C380	C	1.505588	0.498081	0.025153
C381	C	0.822419	-0.318805	-0.724839
C382	C	1.072419	-0.068805	-0.474839
C383	C	1.322419	0.181195	-0.224839
C384	C	1.572419	0.431195	0.025161
C385	C	0.822425	-0.318793	-0.779440
C386	C	1.072425	-0.068793	-0.529440
C387	C	1.322425	0.181207	-0.279440
C388	C	1.572425	0.431207	-0.029440
C389	C	0.789013	-0.285344	-0.806744
C390	C	1.039013	-0.035344	-0.556744
C391	C	1.289013	0.214656	-0.306744
C392	C	1.539013	0.464656	-0.056744
C393	C	0.755594	-0.251907	-0.779448
C394	C	1.005594	-0.001907	-0.529448
C395	C	1.255594	0.248093	-0.279448
C396	C	1.505594	0.498093	-0.029448
C397	C	0.688748	-0.185033	-0.724858
C398	C	0.938748	0.064967	-0.474858
C399	C	1.188748	0.314967	-0.224858
C400	C	1.438748	0.564967	0.025142
C401	C	0.688754	-0.185028	-0.779465
C402	C	0.938754	0.064972	-0.529465
C403	C	1.188754	0.314972	-0.279465
C404	C	1.438754	0.564972	-0.029465
C405	C	0.722176	-0.218467	-0.806761
C406	C	0.972176	0.031533	-0.556761
C407	C	1.222176	0.281533	-0.306761
C408	C	1.472176	0.531533	-0.056761
C409	C	0.722188	-0.218447	-0.861352
C410	C	0.972188	0.031553	-0.611352
C411	C	1.222188	0.281553	-0.361352
C412	C	1.472188	0.531553	-0.111352
N413	N	0.755604	-0.251888	-0.888651
N414	N	1.005604	-0.001888	-0.638651
N415	N	1.255604	0.248112	-0.388651
N416	N	1.505604	0.498112	-0.138651
C417	C	0.789016	-0.285336	-0.861347
C418	C	1.039016	-0.035336	-0.611347
C419	C	1.289016	0.214664	-0.361347
C420	C	1.539016	0.464664	-0.111347
C421	C	0.722158	-0.218508	-0.528277
C422	C	0.972158	0.031492	-0.278277
C423	C	1.222158	0.281492	-0.028277
C424	C	1.472158	0.531492	0.221723
C425	C	0.722157	-0.218513	-0.473674
C426	C	0.972157	0.031487	-0.223674
C427	C	1.222157	0.281487	0.026326
C428	C	1.472157	0.531487	0.276326
C429	C	0.788988	-0.285404	-0.473669
C430	C	1.038988	-0.035404	-0.223669
C431	C	1.288988	0.214596	0.026331
C432	C	1.538988	0.464596	0.276331
C433	C	0.788992	-0.285396	-0.528272
C434	C	1.038992	-0.035396	-0.278272
C435	C	1.288992	0.214604	-0.028272
C436	C	1.538992	0.464604	0.221728
C437	C	0.755574	-0.251948	-0.555576
C438	C	1.005574	-0.001948	-0.305576
C439	C	1.255574	0.248052	-0.055576
C440	C	1.505574	0.498052	0.194424
C441	C	0.789026	-0.285309	-0.976012
C442	C	1.039026	-0.035309	-0.726012
C443	C	1.289026	0.214691	-0.476012
C444	C	1.539026	0.464691	-0.226012
C445	C	0.789031	-0.285293	-1.030618
C446	C	1.039031	-0.035293	-0.780618
C447	C	1.289031	0.214707	-0.530618
C448	C	1.539031	0.464707	-0.280618
C449	C	0.722198	-0.218403	-1.030618
C450	C	0.972198	0.031597	-0.780618
C451	C	1.222198	0.281597	-0.530618
C452	C	1.472198	0.531597	-0.280618
C453	C	0.722195	-0.218417	-0.976018
C454	C	0.972195	0.031583	-0.726018
C455	C	1.222195	0.281583	-0.476018
C456	C	1.472195	0.531583	-0.226018
C457	C	0.755611	-0.251874	-0.948716
C458	C	1.005611	-0.001874	-0.698716
C459	C	1.255611	0.248126	-0.448716
C460	C	1.505611	0.498126	-0.198716
O461	O	0.693800	-0.190004	-0.889638
O462	O	0.943800	0.059996	-0.639638
O463	O	1.193800	0.309996	-0.389638
O464	O	1.443800	0.559996	-0.139638
O465	O	0.817430	-0.313779	-0.889588
O466	O	1.067430	-0.063779	-0.639588
O467	O	1.317430	0.186221	-0.389588
O468	O	1.567430	0.436221	-0.139588
C469	C	0.755529	-0.251982	-0.116036
C470	C	1.005529	-0.001982	0.133964
C471	C	1.255529	0.248018	0.383964
C472	C	1.505529	0.498018	0.633964
C473	C	0.755619	-0.251844	-0.057922
C474	C	1.005619	-0.001844	0.192078
C475	C	1.255619	0.248156	0.442078
C476	C	1.505619	0.498156	0.692078
H477	H	0.206335	-0.158037	-0.346181
H478	H	0.456335	0.091963	-0.096181
H479	H	0.706335	0.341963	0.153819
H480	H	0.956335	0.591963	0.403819
H481	H	0.695029	-1.052517	-0.191223
H482	H	0.945029	-0.802517	0.058777
H483	H	1.195029	-0.552517	0.308777
H484	H	1.445029	-0.302517	0.558777
O485	O	0.686172	-0.182316	-1.060072
O486	O	0.936172	0.067684	-0.810072
O487	O	1.186172	0.317684	-0.560072
O488	O	1.436172	0.567684	-0.310072
H489	H	0.691794	-0.187929	-1.102626
H490	H	0.941794	0.062071	-0.852626
H491	H	1.191794	0.312071	-0.602626
H492	H	1.441794	0.562071	-0.352626
H493	H	0.661541	-0.157790	-0.801693
H494	H	0.911541	0.092210	-0.551693
H495	H	1.161541	0.342210	-0.301693
H496	H	1.411541	0.592210	-0.051693
O497	O	-0.052081	-0.182629	-0.321541
O498	O	0.197919	0.067371	-0.071541
O499	O	0.447919	0.317371	0.178459
O500	O	0.697919	0.567371	0.428459
H501	H	-0.023903	-0.159413	-0.344837
H502	H	0.226097	0.090587	-0.094837
H503	H	0.476097	0.340587	0.155163
H504	H	0.726097	0.590587	0.405163
O505	O	0.061317	-0.321432	-0.182257
O506	O	0.311317	-0.071432	0.067743
O507	O	0.561317	0.178568	0.317743
O508	O	0.811317	0.428568	0.567743
H509	H	0.086191	-0.297994	-0.155697
H510	H	0.336191	-0.047994	0.094303
H511	H	0.586191	0.202006	0.344303
H512	H	0.836191	0.452006	0.594303
H513	H	0.816127	-0.549989	-0.312593
H514	H	1.066127	-0.299989	-0.062593
H515	H	1.316127	-0.049989	0.187407
H516	H	1.566127	0.200011	0.437407
H517	H	0.457480	-0.191394	-0.312659
H518	H	0.707480	0.058606	-0.062659
H519	H	0.957480	0.308606	0.187341
H520	H	1.207480	0.558606	0.437341
O521	O	0.686151	-0.182351	-0.946571
O522	O	0.936151	0.067649	-0.696571
O523	O	1.186151	0.317649	-0.446571
O524	O	1.436151	0.567649	-0.196571
H525	H	0.662917	-0.159092	-0.974734
H526	H	0.912917	0.090908	-0.724734
H527	H	1.162917	0.340908	-0.474734
H528	H	1.412917	0.590908	-0.224734
O529	O	0.198959	-0.354817	-0.148765
O530	O	0.448959	-0.104817	0.101235
O531	O	0.698959	0.145183	0.351235
O532	O	0.948959	0.395183	0.601235
H533	H	0.227102	-0.378029	-0.125467
H534	H	0.477102	-0.128029	0.124533
H535	H	0.727102	0.121971	0.374533
H536	H	0.977102	0.371971	0.624533
O537	O	0.652657	-0.695124	-0.148864
O538	O	0.902657	-0.445124	0.101136
O539	O	1.152657	-0.195124	0.351136
O540	O	1.402657	0.054876	0.601136
H541	H	0.629432	-0.723319	-0.125596
H542	H	0.879432	-0.473319	0.124404
H543	H	1.129432	-0.223319	0.374404
H544	H	1.379432	0.026681	0.624404
H545	H	0.054184	-0.191443	-0.312689
H546	H	0.304184	0.058557	-0.062689
H547	H	0.554184	0.308557	0.187311
H548	H	0.804184	0.558557	0.437311
H549	H	0.849628	-0.346045	-0.702614
H550	H	1.099628	-0.096045	-0.452614
H551	H	1.349628	0.153955	-0.202614
H552	H	1.599628	0.403955	0.047386
O553	O	0.686011	-0.443909	-0.182271
O554	O	0.936011	-0.193909	0.067729
O555	O	1.186011	0.056091	0.317729
O556	O	1.436011	0.306091	0.567729
H557	H	0.662781	-0.472097	-0.158999
H558	H	0.912781	-0.222097	0.091001
H559	H	1.162781	0.027903	0.341001
H560	H	1.412781	0.277903	0.591001
O561	O	0.312606	-0.149195	-0.355022
O562	O	0.562606	0.100805	-0.105022
O563	O	0.812606	0.350805	0.144978
O564	O	1.062606	0.600805	0.394978
H565	H	0.284458	-0.125980	-0.378311
H566	H	0.534458	0.124020	-0.128311
H567	H	0.784458	0.374020	0.121689
H568	H	1.034458	0.624020	0.371689
O569	O	0.563764	-0.182563	-0.321510
O570	O	0.813764	0.067437	-0.071510
O571	O	1.063764	0.317437	0.178490
O572	O	1.313764	0.567437	0.428490
H573	H	0.606314	-0.188176	-0.315879
H574	H	0.856314	0.061824	-0.065879
H575	H	1.106314	0.311824	0.184121
H576	H	1.356314	0.561824	0.434121
O577	O	0.825024	-0.321481	-0.444208
O578	O	1.075024	-0.071481	-0.194208
O579	O	1.325024	0.178519	0.055792
O580	O	1.575024	0.428519	0.305792
H581	H	0.866067	-0.312518	-0.454694
H582	H	1.116067	-0.062518	-0.204694
H583	H	1.366067	0.187482	0.045306
H584	H	1.616067	0.437482	0.295306
H585	H	0.305236	-0.345985	-0.157609
H586	H	0.555236	-0.095985	0.092391
H587	H	0.805236	0.154015	0.342391
H588	H	1.055236	0.404015	0.592391
O589	O	0.563658	-0.321367	-0.182221
O590	O	0.813658	-0.071367	0.067779
O591	O	1.063658	0.178633	0.317779
O592	O	1.313658	0.428633	0.567779
H593	H	0.553169	-0.362416	-0.191110
H594	H	0.803169	-0.112416	0.058890
H595	H	1.053169	0.137584	0.308890
H596	H	1.303169	0.387584	0.558890
O597	O	0.450169	-0.321385	-0.182232
O598	O	0.700169	-0.071385	0.067768
O599	O	0.950169	0.178615	0.317768
O600	O	1.200169	0.428615	0.567768
H601	H	0.478315	-0.344591	-0.158931
H602	H	0.728315	-0.094591	0.091069
H603	H	0.978315	0.155409	0.341069
H604	H	1.228315	0.405409	0.591069
H605	H	0.816105	-0.450938	-0.312560
H606	H	1.066105	-0.200938	-0.062560
H607	H	1.316105	0.049062	0.187440
H608	H	1.566105	0.299062	0.437440
O609	O	-0.052178	-0.321444	-0.182266
O610	O	0.197822	-0.071444	0.067734
O611	O	0.447822	0.178556	0.317734
O612	O	0.697822	0.428556	0.567734
H613	H	-0.094729	-0.315838	-0.187904
H614	H	0.155271	-0.065838	0.062096
H615	H	0.405271	0.184162	0.312096
H616	H	0.655271	0.434162	0.562096
H617	H	0.694948	-0.191265	-0.550504
H618	H	0.944948	0.058735	-0.300504
H619	H	1.194948	0.308735	-0.050504
H620	H	1.444948	0.558735	0.199496
O621	O	0.858432	-0.694833	-0.354918
O622	O	1.108432	-0.444833	-0.104918
O623	O	1.358432	-0.194833	0.145082
O624	O	1.608432	0.055167	0.395082
H625	H	0.881674	-0.722963	-0.378191
H626	H	1.131674	-0.472963	-0.128191
H627	H	1.381674	-0.222963	0.121809
H628	H	1.631674	0.027037	0.371809
H629	H	0.694873	-0.550179	-0.191133
H630	H	0.944873	-0.300179	0.058867
H631	H	1.194873	-0.050179	0.308867
H632	H	1.444873	0.199821	0.558867
H633	H	0.849619	-0.801112	-0.346105
H634	H	1.099619	-0.551112	-0.096105
H635	H	1.349619	-0.301112	0.153895
H636	H	1.599619	-0.051112	0.403895
H637	H	0.816249	-0.312523	-1.052840
H638	H	1.066249	-0.062523	-0.802840
H639	H	1.316249	0.187477	-0.552840
H640	H	1.566249	0.437477	-0.302840
H641	H	0.694990	-0.953466	-0.191213
H642	H	0.944990	-0.703466	0.058787
H643	H	1.194990	-0.453466	0.308787
H644	H	1.444990	-0.203466	0.558787
O645	O	0.825087	-0.946051	-0.321501
O646	O	1.075087	-0.696051	-0.071501
O647	O	1.325087	-0.446051	0.178499
O648	O	1.575087	-0.196051	0.428499
H649	H	0.848330	-0.974180	-0.344775
H650	H	1.098330	-0.724180	-0.094775
H651	H	1.348330	-0.474180	0.155225
H652	H	1.598330	-0.224180	0.405225
O653	O	0.825112	-1.059549	-0.321530
O654	O	1.075112	-0.809549	-0.071530
O655	O	1.325112	-0.559549	0.178470
O656	O	1.575112	-0.309549	0.428470
H657	H	0.819502	-1.102112	-0.315915
H658	H	1.069502	-0.852112	-0.065915
H659	H	1.319502	-0.602112	0.184085
H660	H	1.569502	-0.352112	0.434085
H661	H	0.849638	-0.346024	-0.801659
H662	H	1.099638	-0.096024	-0.551659
H663	H	1.349638	0.153976	-0.301659
H664	H	1.599638	0.403976	-0.051659
O665	O	0.652682	-0.808614	-0.148887
O666	O	0.902682	-0.558614	0.101113
O667	O	1.152682	-0.308614	0.351113
O668	O	1.402682	-0.058614	0.601113
H669	H	0.629435	-0.780483	-0.125619
H670	H	0.879435	-0.530483	0.124381
H671	H	1.129435	-0.280483	0.374381
H672	H	1.379435	-0.030483	0.624381
H673	H	0.816206	-0.312626	-0.550493
H674	H	1.066206	-0.062626	-0.300493
H675	H	1.316206	0.187374	-0.050493
H676	H	1.566206	0.437374	0.199507
H677	H	0.816240	-0.312550	-0.953790
H678	H	1.066240	-0.062550	-0.703790
H679	H	1.316240	0.187450	-0.453790
H680	H	1.566240	0.437450	-0.203790
H681	H	0.694948	-0.191277	-0.451454
H682	H	0.944948	0.058723	-0.201454
H683	H	1.194948	0.308723	0.048546
H684	H	1.444948	0.558723	0.298546
O685	O	0.652706	-0.148961	-0.695424
O686	O	0.902706	0.101039	-0.445424
O687	O	1.152706	0.351039	-0.195424
O688	O	1.402706	0.601039	0.054576
H689	H	0.629474	-0.125707	-0.723593
H690	H	0.879474	0.124293	-0.473593
H691	H	1.129474	0.374293	-0.223593
H692	H	1.379474	0.624293	0.026407
