data_functionalizedCrystal
_audit_creation_method	'MofGen! by Chris Wilmer'
_symmetry_space_group_name_H-M	'P1'
_symmetry_Int_Tables_number	1
_symmetry_cell_setting	triclinic
loop_
_symmetry_equiv_pos_as_xyz
  x,y,z
_cell_length_a	14.519709
_cell_length_b	19.288864
_cell_length_c	17.766277
_cell_angle_alpha	89.987093
_cell_angle_beta	90.008710
_cell_angle_gamma	96.591805
loop_
_atom_site_label
_atom_site_type_symbol
_atom_site_fract_x
_atom_site_fract_y
_atom_site_fract_z
O1	O	0.115049	-0.921756	0.062837
O2	O	0.615049	-0.421756	0.562837
O3	O	0.130568	-0.719552	0.062786
O4	O	0.630568	-0.219552	0.562786
O5	O	-0.011464	-0.826015	0.062806
O6	O	0.488536	-0.326015	0.562806
O7	O	0.257081	-0.815293	0.062817
O8	O	0.757081	-0.315293	0.562817
O9	O	-0.011478	-0.826018	-0.062382
O10	O	0.488522	-0.326018	0.437618
O11	O	0.130554	-0.719554	-0.062402
O12	O	0.630554	-0.219554	0.437598
O13	O	0.115034	-0.921759	-0.062351
O14	O	0.615034	-0.421759	0.437649
Cu15	Cu	0.122793	-0.820657	-0.073808
Cu16	Cu	0.622793	-0.320657	0.426192
Cu17	Cu	0.122810	-0.820654	0.074242
Cu18	Cu	0.622810	-0.320654	0.574242
O19	O	0.257066	-0.815295	-0.062371
O20	O	0.757066	-0.315295	0.437629
C21	C	0.130061	-0.693675	0.000185
C22	C	0.630061	-0.193675	0.500185
C23	C	0.128562	-0.616566	0.000165
C24	C	0.628562	-0.116566	0.500165
N25	N	0.122815	-0.820652	0.178373
N26	N	0.622815	-0.320652	0.678373
C27	C	-0.045828	-0.825517	0.000212
C28	C	0.454172	-0.325517	0.500212
C29	C	-0.148200	-0.824019	0.000211
C30	C	0.351800	-0.324019	0.500211
C31	C	-0.523061	-0.818507	0.000229
C32	C	-0.023061	-0.318507	0.500229
C33	C	-0.418762	-0.820037	0.000224
C34	C	0.081238	-0.320037	0.500224
C35	C	-0.335633	-0.821263	0.000219
C36	C	0.164367	-0.321263	0.500219
C37	C	-0.231329	-0.822794	0.000215
C38	C	0.268671	-0.322794	0.500215
C39	C	0.291430	-0.815794	0.000225
C40	C	0.791430	-0.315794	0.500225
C41	C	0.393802	-0.817291	0.000230
C42	C	0.893802	-0.317291	0.500230
C43	C	0.115541	-0.947636	0.000251
C44	C	0.615541	-0.447636	0.500251
C45	C	0.117040	-1.024745	0.000276
C46	C	0.617040	-0.524745	0.500276
C47	C	0.211900	-0.572169	0.000181
C48	C	0.711900	-0.072169	0.500181
C49	C	0.210492	-0.499717	0.000189
C50	C	0.710492	0.000283	0.500189
C51	C	0.125741	-0.471665	0.000197
C52	C	0.625741	0.028335	0.500197
C53	C	0.042392	-0.516071	0.000178
C54	C	0.542392	-0.016071	0.500178
C55	C	0.043803	-0.588521	0.000162
C56	C	0.543803	-0.088521	0.500162
C57	C	0.059122	-0.363162	0.044079
C58	C	0.559122	0.136838	0.544079
C59	C	0.057715	-0.290712	0.044099
C60	C	0.557715	0.209288	0.544099
C61	C	0.121387	-0.248203	0.000242
C62	C	0.621387	0.251797	0.500242
C63	C	0.186481	-0.278151	-0.043625
C64	C	0.686481	0.221849	0.456375
C65	C	0.187892	-0.350602	-0.043641
C66	C	0.687892	0.149398	0.456359
C67	C	0.124202	-0.393105	0.000214
C68	C	0.624202	0.106895	0.500214
C69	C	0.203203	-0.125245	0.000265
C70	C	0.703203	0.374755	0.500265
C71	C	0.201792	-0.052792	0.000269
C72	C	0.701792	0.447208	0.500269
C73	C	0.033689	-0.069148	0.000265
C74	C	0.533689	0.430852	0.500265
C75	C	0.035103	-0.141599	0.000254
C76	C	0.535103	0.358401	0.500254
C77	C	0.119863	-0.169643	0.000258
C78	C	0.619863	0.330357	0.500258
N79	N	0.122780	-0.820664	-0.177938
N80	N	0.622780	-0.320664	0.322062
C81	C	0.060045	-0.867879	0.217769
C82	C	0.560045	-0.367879	0.717769
C83	C	0.060044	-0.867885	0.296570
C84	C	0.560044	-0.367885	0.796570
C85	C	0.122803	-0.820652	0.335973
C86	C	0.622803	-0.320652	0.835973
C87	C	0.185584	-0.773422	0.296568
C88	C	0.685584	-0.273422	0.796568
C89	C	0.185590	-0.773422	0.217768
C90	C	0.685590	-0.273422	0.717768
C91	C	0.134945	-0.757408	0.460803
C92	C	0.634945	-0.257408	0.960803
C93	C	0.134932	-0.757407	0.539601
C94	C	0.634932	-0.257407	1.039601
C95	C	0.122789	-0.820652	0.579020
C96	C	0.622789	-0.320652	1.079020
C97	C	0.110639	-0.883901	0.539629
C98	C	0.610639	-0.383901	1.039629
C99	C	0.110645	-0.883901	0.460829
C100	C	0.610645	-0.383901	0.960829
C101	C	0.122803	-0.820647	0.421419
C102	C	0.622803	-0.320647	0.921419
C103	C	0.060015	-0.867889	0.703861
C104	C	0.560015	-0.367889	1.203861
C105	C	0.060020	-0.867896	0.782665
C106	C	0.560020	-0.367896	1.282665
C107	C	0.185555	-0.773427	0.782661
C108	C	0.685555	-0.273427	1.282661
C109	C	0.185555	-0.773427	0.703859
C110	C	0.685555	-0.273427	1.203859
C111	C	0.122780	-0.820657	0.664464
C112	C	0.622780	-0.320657	1.164464
H113	H	0.280918	-0.594998	0.000185
H114	H	0.780918	-0.094998	0.500185
H115	H	0.236685	-0.734965	0.328654
H116	H	0.736685	-0.234965	0.828654
C117	C	0.259485	-0.383543	-0.091902
C118	C	0.759485	0.116457	0.408098
N119	N	0.313407	-0.408354	-0.128257
N120	N	0.813407	0.091646	0.371743
C121	C	0.254598	-0.721466	0.660522
C122	C	0.754598	-0.221466	1.160522
N123	N	0.306604	-0.682326	0.627880
N124	N	0.806604	-0.182326	1.127880
H125	H	0.278358	-0.463563	0.000199
H126	H	0.778358	0.036437	0.500199
C127	C	-0.009022	-0.919824	0.174439
C128	C	0.490978	-0.419824	0.674439
N129	N	-0.061049	-0.958946	0.141802
N130	N	0.438951	-0.458946	0.641802
H131	H	-0.035317	-0.046308	0.000319
H132	H	0.464683	0.453692	0.500319
C133	C	0.256523	-0.231397	-0.091874
C134	C	0.756523	0.268603	0.408126
N135	N	0.309277	-0.196178	-0.128214
N136	N	0.809277	0.303822	0.371786
C137	C	0.254639	-0.721462	0.174431
C138	C	0.754639	-0.221462	0.674431
N139	N	0.306645	-0.682324	0.141788
N140	N	0.806645	-0.182324	0.641788
H141	H	0.272220	-0.148080	0.000257
H142	H	0.772220	0.351920	0.500257
C143	C	0.097234	-0.953471	0.417502
C144	C	0.597234	-0.453471	0.917502
N145	N	0.087117	-1.005873	0.384869
N146	N	0.587117	-0.505873	0.884869
C147	C	0.293475	-0.003955	0.000275
C148	C	0.793475	0.496045	0.500275
N149	N	0.362533	0.032829	0.000277
N150	N	0.862533	0.532829	0.500277
H151	H	-0.032760	-0.177748	0.000246
H152	H	0.467240	0.322252	0.500246
H153	H	0.236658	-0.734972	0.814742
H154	H	0.736658	-0.234972	1.314742
C155	C	-0.013895	-0.257777	0.092349
C156	C	0.486105	0.242223	0.592349
N157	N	-0.067836	-0.232973	0.128689
N158	N	0.432164	0.267027	0.628689
C159	C	-0.009015	-0.919836	0.339915
C160	C	0.490985	-0.419836	0.839915
N161	N	-0.061033	-0.958964	0.372559
N162	N	0.438967	-0.458964	0.872559
C163	C	-0.050834	-0.485212	0.000187
C164	C	0.449166	0.014788	0.500187
N165	N	-0.121055	-0.461969	0.000193
N166	N	0.378945	0.038031	0.500193
C167	C	-0.010922	-0.409915	0.092331
C168	C	0.489078	0.090085	0.592331
N169	N	-0.063677	-0.445129	0.128675
N170	N	0.436323	0.054871	0.628675
H171	H	0.100758	-0.935401	0.571722
H172	H	0.600758	-0.435401	1.071722
C173	C	-0.047880	-0.637360	0.000150
C174	C	0.452120	-0.137360	0.500150
N175	N	-0.116936	-0.674146	0.000144
N176	N	0.383064	-0.174146	0.500144
H177	H	0.008908	-0.906358	0.814741
H178	H	0.508908	-0.406358	1.314741
H179	H	0.008902	-0.906349	0.671785
H180	H	0.508902	-0.406349	1.171785
H181	H	0.144815	-0.705907	0.571667
H182	H	0.644815	-0.205907	1.071667
H183	H	0.144838	-0.705903	0.428715
H184	H	0.644838	-0.205903	0.928715
