data_functionalizedCrystal
_audit_creation_method	'MofGen! by Chris Wilmer'
_symmetry_space_group_name_H-M	'P1'
_symmetry_Int_Tables_number	1
_symmetry_cell_setting	triclinic
loop_
_symmetry_equiv_pos_as_xyz
  x,y,z
_cell_length_a	29.839134
_cell_length_b	29.839131
_cell_length_c	17.077396
_cell_angle_alpha	89.967252
_cell_angle_beta	89.982719
_cell_angle_gamma	90.021992
loop_
_atom_site_label
_atom_site_type_symbol
_atom_site_fract_x
_atom_site_fract_y
_atom_site_fract_z
Zn1	Zn	0.686742	-0.179083	-0.443825
Zn2	Zn	0.686668	-0.254214	-0.312551
Zn3	Zn	0.611618	-0.179074	-0.312572
Zn4	Zn	0.611573	-0.254161	-0.443774
O5	O	0.649150	-0.216633	-0.378180
O6	O	0.749599	-0.189075	-0.426423
O7	O	0.676700	-0.244265	-0.202707
O8	O	0.621634	-0.116208	-0.330013
O9	O	0.749545	-0.244274	-0.329976
O10	O	0.676827	-0.116214	-0.426444
O11	O	0.621562	-0.189060	-0.202723
O12	O	0.548745	-0.189008	-0.329965
O13	O	0.621556	-0.244183	-0.553628
O14	O	0.548712	-0.244174	-0.426358
O15	O	0.676783	-0.189023	-0.553665
O16	O	0.676656	-0.317074	-0.329928
O17	O	0.621484	-0.317035	-0.426337
C18	C	0.532428	-0.216585	-0.378159
C19	C	0.482493	-0.216575	-0.378168
C20	C	0.125930	-0.187951	-0.428499
C21	C	0.313603	-0.187914	-0.428481
O22	O	0.337889	-0.163520	-0.471270
N23	N	0.337048	-0.216604	-0.378186
C24	C	0.313571	-0.245307	-0.327897
O25	O	0.337819	-0.269712	-0.285124
C26	C	0.125899	-0.245345	-0.327919
C27	C	0.102457	-0.216650	-0.378211
C28	C	0.102488	-0.159258	-0.478787
C29	C	0.055573	-0.159266	-0.478788
C30	C	0.032099	-0.187966	-0.428501
C31	C	0.055542	-0.216658	-0.378212
C32	C	0.102424	-0.274050	-0.277634
C33	C	0.055502	-0.274058	-0.277646
C34	C	0.032060	-0.245363	-0.327938
C35	C	-0.014847	-0.245365	-0.327926
N36	N	-0.038292	-0.216676	-0.378220
C37	C	-0.014818	-0.187976	-0.428508
C38	C	0.412102	-0.245285	-0.327887
C39	C	0.459020	-0.245275	-0.327880
C40	C	0.459049	-0.187882	-0.428466
C41	C	0.412130	-0.187890	-0.428468
C42	C	0.388657	-0.216595	-0.378182
C43	C	-0.113344	-0.187994	-0.428505
C44	C	-0.160264	-0.188002	-0.428500
C45	C	-0.160289	-0.245396	-0.327918
C46	C	-0.113373	-0.245386	-0.327920
C47	C	-0.089902	-0.216683	-0.378220
O48	O	-0.039161	-0.269751	-0.285165
O49	O	-0.039074	-0.163582	-0.471287
C50	C	0.172846	-0.187943	-0.428498
C51	C	0.196288	-0.216635	-0.378209
C52	C	0.172815	-0.245335	-0.327922
C53	C	0.243206	-0.216625	-0.378203
C54	C	0.266679	-0.187925	-0.428490
C55	C	0.243235	-0.159236	-0.478784
C56	C	0.196319	-0.159243	-0.478785
C57	C	0.196259	-0.274025	-0.277628
C58	C	0.243175	-0.274015	-0.277630
C59	C	0.266648	-0.245315	-0.327917
C60	C	0.649069	-0.333355	-0.378141
C61	C	0.649075	-0.383290	-0.378151
C62	C	0.677930	-0.692941	-0.328053
C63	C	0.677986	-0.880614	-0.328084
O64	O	0.702455	-0.904886	-0.285459
N65	N	0.649243	-0.904075	-0.378240
C66	C	0.620487	-0.880614	-0.428395
O67	O	0.596044	-0.904876	-0.471062
C68	C	0.620434	-0.692942	-0.428368
C69	C	0.649175	-0.669484	-0.378203
C70	C	0.706670	-0.669483	-0.277893
C71	C	0.706654	-0.622567	-0.277883
C72	C	0.677899	-0.599110	-0.328033
C73	C	0.649159	-0.622568	-0.378193
C74	C	0.591680	-0.669483	-0.478527
C75	C	0.591670	-0.622562	-0.478517
C76	C	0.620412	-0.599103	-0.428352
C77	C	0.620388	-0.552196	-0.428333
N78	N	0.649131	-0.528735	-0.378177
C79	C	0.677886	-0.552192	-0.328027
C80	C	0.620516	-0.979145	-0.428405
C81	C	0.620529	-1.026063	-0.428410
C82	C	0.678028	-1.026059	-0.328100
C83	C	0.678013	-0.979141	-0.328091
C84	C	0.649259	-0.955684	-0.378249
C85	C	0.677850	-0.453666	-0.328009
C86	C	0.677830	-0.406747	-0.328001
C87	C	0.620333	-0.406755	-0.428314
C88	C	0.620351	-0.453670	-0.428319
C89	C	0.649113	-0.477125	-0.378164
O90	O	0.595936	-0.527896	-0.470941
O91	O	0.702332	-0.527923	-0.285379
C92	C	0.677946	-0.739856	-0.328064
C93	C	0.649207	-0.763315	-0.378223
C94	C	0.620452	-0.739858	-0.428373
C95	C	0.649220	-0.810233	-0.378229
C96	C	0.677975	-0.833690	-0.328080
C97	C	0.706717	-0.810229	-0.277924
C98	C	0.706701	-0.763313	-0.277914
C99	C	0.591709	-0.763319	-0.478529
C100	C	0.591727	-0.810234	-0.478534
C101	C	0.620482	-0.833691	-0.428385
C102	C	0.766328	-0.216681	-0.378203
C103	C	0.816263	-0.216702	-0.378212
C104	C	0.649173	-0.216598	-0.582925
C105	C	0.649182	-0.216583	-0.670175
C106	C	0.649244	-0.099454	-0.378237
C107	C	0.649284	-0.049520	-0.378261
C108	C	0.620480	-0.187834	-0.711173
C109	C	0.620488	-0.187824	-0.793153
C110	C	0.649200	-0.216561	-0.834134
C111	C	0.677903	-0.245313	-0.793131
C112	C	0.677893	-0.245325	-0.711152
C113	C	0.677922	-0.245285	-0.964001
C114	C	0.677933	-0.245272	-1.045985
C115	C	0.620517	-0.187784	-1.046002
C116	C	0.620507	-0.187796	-0.964023
C117	C	0.649211	-0.216548	-0.923025
C118	C	0.649153	-0.216635	-0.174233
C119	C	0.649231	-0.216523	-0.086983
H120	H	0.393046	-0.164524	-0.469419
H121	H	0.597146	-0.164373	-1.079387
H122	H	0.701312	-0.268672	-1.079350
H123	H	0.121595	-0.135887	-0.519742
H124	H	0.597114	-0.164415	-0.826530
H125	H	0.701268	-0.268732	-0.677772
H126	H	0.701278	-0.268713	-0.826504
H127	H	0.478169	-0.164513	-0.469410
H128	H	0.701300	-0.268694	-0.930623
H129	H	-0.179348	-0.164633	-0.469453
H130	H	0.730059	-0.603470	-0.237037
H131	H	0.597130	-0.164394	-0.930659
H132	H	0.036490	-0.135901	-0.519745
H133	H	-0.094240	-0.164621	-0.469464
H134	H	0.392995	-0.268660	-0.286935
H135	H	0.597103	-0.164431	-0.677812
H136	H	0.121502	-0.297417	-0.236681
H137	H	0.036394	-0.297434	-0.236698
H138	H	0.568294	-0.744223	-0.519368
H139	H	0.478103	-0.268636	-0.286919
H140	H	-0.094285	-0.268748	-0.286961
H141	H	0.568255	-0.603466	-0.519364
H142	H	-0.179409	-0.268761	-0.286972
H143	H	0.596949	-0.472771	-0.469170
H144	H	0.262355	-0.135865	-0.519727
H145	H	0.177237	-0.135877	-0.519738
H146	H	0.177152	-0.297397	-0.236677
H147	H	0.701235	-0.387648	-0.287148
H148	H	0.262257	-0.297381	-0.236669
H149	H	0.730088	-0.688576	-0.237055
H150	H	0.701272	-0.472758	-0.287170
H151	H	0.701417	-0.960043	-0.287243
H152	H	0.701442	-1.045166	-0.287266
H153	H	0.597100	-0.960050	-0.469250
H154	H	0.597120	-1.045159	-0.469252
H155	H	0.568274	-0.688575	-0.519372
H156	H	0.596919	-0.387649	-0.469143
H157	H	0.730105	-0.744217	-0.237065
H158	H	0.730129	-0.829336	-0.237088
H159	H	0.568319	-0.829330	-0.519384
