data_functionalizedCrystal
_audit_creation_method	'MofGen! by Chris Wilmer'
_symmetry_space_group_name_H-M	'P1'
_symmetry_Int_Tables_number	1
_symmetry_cell_setting	triclinic
loop_
_symmetry_equiv_pos_as_xyz
  x,y,z
_cell_length_a	12.759387
_cell_length_b	19.077105
_cell_length_c	19.076806
_cell_angle_alpha	90.073911
_cell_angle_beta	87.663872
_cell_angle_gamma	92.320263
loop_
_atom_site_label
_atom_site_type_symbol
_atom_site_fract_x
_atom_site_fract_y
_atom_site_fract_z
Zn1	Zn	-0.638320	-1.063038	-0.322956
Zn2	Zn	-0.455281	-1.058224	-0.440484
Zn3	Zn	-0.455892	-0.945522	-0.318262
Zn4	Zn	-0.624165	-0.940779	-0.435705
O5	O	-0.543414	-1.001890	-0.379352
O6	O	-0.619707	-1.160731	-0.342510
O7	O	-0.308337	-1.043243	-0.424307
O8	O	-0.486271	-0.965110	-0.220549
O9	O	-0.485229	-1.157194	-0.428858
O10	O	-0.620300	-1.051449	-0.223997
O11	O	-0.308786	-0.960442	-0.334511
O12	O	-0.472546	-0.846561	-0.329877
O13	O	-0.773067	-0.957027	-0.420713
O14	O	-0.596175	-0.843076	-0.416162
O15	O	-0.783467	-1.046850	-0.337876
O16	O	-0.471504	-1.038645	-0.538186
O17	O	-0.595582	-0.952359	-0.534675
C18	C	-0.532891	-0.819322	-0.371992
C19	C	-0.528413	-0.741218	-0.368860
C20	C	-0.817455	-1.001946	-0.379285
C21	C	-0.934235	-1.001970	-0.379257
C22	C	-0.531964	-0.994484	-0.561929
C23	C	-0.527105	-0.991379	-0.640038
C24	C	-0.945084	-1.095509	-0.293005
C25	C	-1.005370	-1.142288	-0.249870
C26	C	-1.115095	-1.142306	-0.249845
C27	C	-1.164534	-1.095539	-0.292959
C28	C	-1.104248	-1.048759	-0.336094
C29	C	-0.994522	-1.048747	-0.336116
C30	C	-1.093399	-0.955218	-0.422341
C31	C	-0.983675	-0.955202	-0.422371
C32	C	-1.142839	-0.908450	-0.465455
C33	C	-1.082552	-0.861673	-0.508595
C34	C	-0.972822	-0.861657	-0.508619
C35	C	-0.923388	-0.908423	-0.465506
C36	C	-0.270445	-1.001877	-0.379369
C37	C	-0.153686	-1.001998	-0.379205
C38	C	-0.553979	-1.185172	-0.386741
C39	C	-0.558481	-1.263275	-0.389890
C40	C	-0.590567	-0.702726	-0.412381
C41	C	-0.586365	-0.629339	-0.409429
C42	C	-0.520004	-0.594445	-0.362960
C43	C	-0.457848	-0.632942	-0.319435
C44	C	-0.462056	-0.706328	-0.322384
C45	C	-0.500533	-0.375159	-0.349313
C46	C	-0.496327	-0.301767	-0.346369
C47	C	-0.624847	-0.298169	-0.436363
C48	C	-0.629044	-0.371556	-0.439310
C49	C	-0.566892	-0.410047	-0.395783
N50	N	-0.515705	-0.519432	-0.359943
N51	N	-0.571198	-0.485059	-0.398796
C52	C	-0.492288	-0.969064	-1.079527
C53	C	-0.496853	-0.971983	-1.006134
C54	C	-0.568969	-1.018363	-0.971173
C55	C	-0.636530	-1.061823	-1.009607
C56	C	-0.631968	-1.058900	-1.082998
C57	C	-0.590104	-1.031917	-0.751864
C58	C	-0.594659	-1.034837	-0.678468
C59	C	-0.454983	-0.944996	-0.675000
C60	C	-0.450424	-0.942080	-0.748392
C61	C	-0.517988	-0.985538	-0.786820
N62	N	-0.573635	-1.021349	-0.896154
N63	N	-0.513326	-0.982548	-0.861837
C64	C	-0.554933	-1.009345	-0.196063
C65	C	-0.559841	-1.012522	-0.117956
H66	H	-0.855741	-1.095505	-0.293028
F67	F	-0.434388	-0.416114	-0.302985
H68	H	-0.403819	-0.604526	-0.281596
H69	H	-1.232183	-0.908466	-0.465429
F70	F	-0.661193	-0.739855	-0.461843
F71	F	-0.952746	-1.192047	-0.203973
F72	F	-0.699673	-0.408687	-0.488770
F73	F	-1.179258	-1.192085	-0.203926
H74	H	-0.923742	-0.823556	-0.543738
H75	H	-0.411449	-0.737668	-0.286941
H76	H	-0.433560	-0.931299	-1.107987
H77	H	-0.441847	-0.936595	-0.974845
H78	H	-0.636976	-0.598002	-0.444868
F79	F	-0.373670	-0.892715	-0.785595
H80	H	-0.675449	-0.266822	-0.471799
F81	F	-0.806610	-0.908413	-0.465531
F82	F	-0.383084	-0.898747	-0.634097
H83	H	-0.653387	-1.072609	-0.650006
H84	H	-0.442295	-0.273360	-0.308521
H85	H	-0.695253	-1.099584	-0.981137
F86	F	-1.281313	-1.095555	-0.292924
F87	F	-0.662021	-1.078163	-0.792752
H88	H	-0.686986	-1.094283	-1.114286
H89	H	-1.122815	-0.823595	-0.543691
