data_functionalizedCrystal
_audit_creation_method	'MofGen! by Chris Wilmer'
_symmetry_space_group_name_H-M	'P1'
_symmetry_Int_Tables_number	1
_symmetry_cell_setting	triclinic
loop_
_symmetry_equiv_pos_as_xyz
  x,y,z
_cell_length_a	17.077402
_cell_length_b	19.077241
_cell_length_c	17.077396
_cell_angle_alpha	87.677561
_cell_angle_beta	90.027528
_cell_angle_gamma	87.684567
loop_
_atom_site_label
_atom_site_type_symbol
_atom_site_fract_x
_atom_site_fract_y
_atom_site_fract_z
Zn1	Zn	-0.264414	-1.076016	0.492172
Zn2	Zn	0.235586	-0.576016	0.992172
Zn3	Zn	-0.395693	-1.075931	0.360905
Zn4	Zn	0.104307	-0.575931	0.860905
Zn5	Zn	-0.269702	-0.958315	0.355634
Zn6	Zn	0.230298	-0.458315	0.855634
Zn7	Zn	-0.400904	-0.958285	0.486845
Zn8	Zn	0.099096	-0.458285	0.986845
O9	O	-0.332678	-1.017137	0.423889
O10	O	0.167322	-0.517137	0.923889
O11	O	-0.277435	-1.174498	0.479195
O12	O	0.222565	-0.674498	0.979195
O13	O	-0.379012	-1.060306	0.250357
O14	O	0.120988	-0.560306	0.750357
O15	O	-0.159151	-0.973976	0.373770
O16	O	0.340849	-0.473976	0.873770
O17	O	-0.373885	-1.174436	0.382753
O18	O	0.126115	-0.674436	0.882753
O19	O	-0.155267	-1.060450	0.474084
O20	O	0.344733	-0.560450	0.974084
O21	O	-0.286447	-0.973894	0.246485
O22	O	0.213553	-0.473894	0.746485
O23	O	-0.291500	-0.859818	0.368604
O24	O	0.208500	-0.359818	0.868604
O25	O	-0.382766	-0.973925	0.597399
O26	O	0.117234	-0.473925	1.097399
O27	O	-0.387894	-0.859796	0.465004
O28	O	0.112106	-0.359796	0.965004
O29	O	-0.282488	-1.060421	0.601314
O30	O	0.217512	-0.560421	1.101314
O31	O	-0.506233	-1.060277	0.377587
O32	O	-0.006233	-0.560277	0.877587
O33	O	-0.510062	-0.973843	0.470115
O34	O	-0.010062	-0.473843	0.970115
C35	C	-0.340837	-0.834269	0.415655
C36	C	0.159163	-0.334269	0.915655
C37	C	-0.344346	-0.756037	0.412151
C38	C	0.155654	-0.256037	0.912151
C39	C	-0.295858	-0.719316	0.460793
C40	C	0.204142	-0.219316	0.960793
C41	C	-0.299151	-0.645809	0.457494
C42	C	0.200849	-0.145809	0.957494
C43	C	-0.350937	-0.609024	0.405555
C44	C	0.149063	-0.109024	0.905555
C45	C	-0.399427	-0.645750	0.356908
C46	C	0.100573	-0.145750	0.856908
C47	C	-0.396129	-0.719255	0.360203
C48	C	0.103871	-0.219255	0.860203
C49	C	-0.366173	-0.389182	0.390302
C50	C	0.133827	0.110818	0.890302
C51	C	-0.369469	-0.315671	0.387012
C52	C	0.130531	0.184329	0.887012
C53	C	-0.269192	-0.315736	0.487597
C54	C	0.230808	0.184264	0.987597
C55	C	-0.265902	-0.389243	0.490892
C56	C	0.234098	0.110757	0.990892
C57	C	-0.314389	-0.425962	0.442241
C58	C	0.185611	0.074038	0.942241
N59	N	-0.354307	-0.533888	0.402184
N60	N	0.145693	-0.033888	0.902184
N61	N	-0.311015	-0.501097	0.445609
N62	N	0.188985	-0.001097	0.945609
C63	C	-0.536629	-1.017067	0.423863
C64	C	-0.036629	-0.517067	0.923863
C65	C	-0.623878	-1.017101	0.423880
C66	C	-0.123878	-0.517101	0.923880
C67	C	-0.662778	-1.062104	0.476153
C68	C	-0.162778	-0.562104	0.976153
C69	C	-0.744757	-1.062133	0.476171
C70	C	-0.244757	-0.562133	0.976171
C71	C	-0.787834	-1.017163	0.423912
C72	C	-0.287834	-0.517163	0.923912
C73	C	-0.748928	-0.972156	0.371637
C74	C	-0.248928	-0.472156	0.871637
C75	C	-0.666950	-0.972123	0.371623
C76	C	-0.166950	-0.472123	0.871623
C77	C	-0.919795	-0.972228	0.371667
C78	C	-0.419795	-0.472228	0.871667
C79	C	-1.001778	-0.972262	0.371680
C80	C	-0.501778	-0.472262	0.871680
C81	C	-0.997602	-1.062238	0.476215
C82	C	-0.497602	-0.562238	0.976215
C83	C	-0.915624	-1.062206	0.476202
C84	C	-0.415624	-0.562206	0.976202
C85	C	-0.876723	-1.017199	0.423925
C86	C	-0.376723	-0.517199	0.923925
C87	C	-0.127930	-1.017226	0.423934
C88	C	0.372070	-0.517226	0.923934
C89	C	-0.040678	-1.017264	0.423953
C90	C	0.459322	-0.517264	0.923953
C91	C	-0.332619	-1.017179	0.628635
C92	C	0.167381	-0.517179	1.128635
C93	C	-0.332593	-1.017197	0.715886
C94	C	0.167407	-0.517197	1.215886
C95	C	-0.324484	-0.200719	0.432150
C96	C	0.175516	0.299281	0.932150
C97	C	-0.320981	-0.278951	0.435654
C98	C	0.179019	0.221049	0.935654
C99	C	-0.332679	-1.017135	0.219941
C100	C	0.167321	-0.517135	0.719941
C101	C	-0.332478	-1.017253	0.132697
C102	C	0.167522	-0.517253	0.632697
C103	C	-0.280374	-1.062238	0.758915
C104	C	0.219626	-0.562238	1.258915
C105	C	-0.280347	-1.062246	0.840896
C106	C	0.219653	-0.562246	1.340896
C107	C	-0.332544	-1.017217	0.879846
C108	C	0.167456	-0.517217	1.379846
C109	C	-0.384766	-0.972172	0.836811
C110	C	0.115234	-0.472172	1.336811
C111	C	-0.384788	-0.972161	0.754831
C112	C	0.115212	-0.472161	1.254831
C113	C	-0.384718	-0.972201	1.007682
C114	C	0.115282	-0.472201	1.507682
C115	C	-0.384697	-0.972213	1.089667
C116	C	0.115303	-0.472213	1.589667
C117	C	-0.280277	-1.062286	1.093747
C118	C	0.219723	-0.562286	1.593747
C119	C	-0.280299	-1.062274	1.011768
C120	C	0.219701	-0.562274	1.511768
C121	C	-0.332522	-1.017230	0.968738
C122	C	0.167478	-0.517230	1.468738
H123	H	-0.223735	-0.419189	0.533188
H124	H	0.276265	0.080811	1.033188
H125	H	-0.405656	-0.419070	0.350688
H126	H	0.094344	0.080930	0.850688
H127	H	-0.229716	-0.285831	0.527205
H128	H	0.270284	0.214169	1.027205
H129	H	-0.888125	-0.935577	0.329101
H130	H	-0.388125	-0.435577	0.829101
H131	H	-0.427263	-0.935507	0.868530
H132	H	0.072737	-0.435507	1.368530
H133	H	-0.237871	-1.098907	0.727209
H134	H	0.262129	-0.598907	1.227209
H135	H	-0.411643	-0.285723	0.344717
H136	H	0.088357	0.214277	0.844717
H137	H	-0.435613	-0.749152	0.320593
H138	H	0.064387	-0.249152	0.820593
C139	C	-0.624160	-0.922618	0.314118
C140	C	-0.124160	-0.422618	0.814118
N141	N	-0.591931	-0.885327	0.270806
N142	N	-0.091931	-0.385327	0.770806
C143	C	-1.049161	-0.922787	0.314198
C144	C	-0.549161	-0.422787	0.814198
N145	N	-1.084850	-0.885521	0.270902
N146	N	-0.584850	-0.385521	0.770902
C147	C	-0.796313	-0.922731	0.314105
C148	C	-0.296313	-0.422731	0.814105
N149	N	-0.832002	-0.885521	0.270753
N150	N	-0.332002	-0.385521	0.770753
C151	C	-0.222903	-1.111795	0.888225
C152	C	0.277097	-0.611795	1.388225
N153	N	-0.179634	-1.149118	0.923873
N154	N	0.320366	-0.649118	1.423873
C155	C	-0.238888	-0.759773	0.517929
C156	C	0.261112	-0.259773	1.017929
N157	N	-0.195974	-0.790244	0.560963
N158	N	0.304026	-0.290244	1.060963
C159	C	-0.245813	-0.605420	0.511007
C160	C	0.254187	-0.105420	1.011007
N161	N	-0.205636	-0.575000	0.551316
N162	N	0.294364	-0.075000	1.051316
C163	C	-0.456391	-0.605283	0.299774
C164	C	0.043609	-0.105283	0.799774
N165	N	-0.499300	-0.574805	0.256741
N166	N	0.000700	-0.074805	0.756741
H167	H	-0.627710	-1.098727	0.518705
H168	H	-0.127710	-0.598727	1.018705
C169	C	-0.787544	-1.111649	0.533665
C170	C	-0.287544	-0.611649	1.033665
N171	N	-0.819770	-1.148949	0.576970
N172	N	-0.319770	-0.648949	1.076970
H173	H	-0.880551	-1.098827	0.518751
H174	H	-0.380551	-0.598827	1.018751
H175	H	-0.237799	-1.098945	0.980057
H176	H	0.262201	-0.598945	1.480057
C177	C	-1.040394	-1.111742	0.533724
C178	C	-0.540394	-0.611742	1.033724
N179	N	-1.072629	-1.149029	0.577037
N180	N	-0.572629	-0.649029	1.077037
C181	C	-0.222830	-1.111835	1.141082
C182	C	0.277170	-0.611835	1.641082
N183	N	-0.179566	-1.149156	1.176738
N184	N	0.320434	-0.649156	1.676738
H185	H	-0.427303	-0.935477	0.719797
H186	H	0.072697	-0.435477	1.219797
C187	C	-0.442112	-0.922675	1.132510
C188	C	0.057888	-0.422675	1.632510
N189	N	-0.485356	-0.885361	1.164780
N190	N	0.014644	-0.385361	1.664780
H191	H	-0.427231	-0.935510	0.972649
H192	H	0.072769	-0.435510	1.472649
