data_functionalizedCrystal
_audit_creation_method	'MofGen! by Chris Wilmer'
_symmetry_space_group_name_H-M	'P1'
_symmetry_Int_Tables_number	1
_symmetry_cell_setting	triclinic
loop_
_symmetry_equiv_pos_as_xyz
  x,y,z
_cell_length_a	13.897449
_cell_length_b	18.101397
_cell_length_c	13.897441
_cell_angle_alpha	90.034904
_cell_angle_beta	90.020733
_cell_angle_gamma	90.021745
loop_
_atom_site_label
_atom_site_type_symbol
_atom_site_fract_x
_atom_site_fract_y
_atom_site_fract_z
Zn1	Zn	1.474684	-0.294781	0.545352
Zn2	Zn	1.974684	0.205219	1.045352
Zn3	Zn	1.474570	-0.418636	0.384042
Zn4	Zn	1.974570	0.081364	0.884042
Zn5	Zn	1.313373	-0.294816	0.384071
Zn6	Zn	1.813373	0.205184	0.884071
Zn7	Zn	1.313347	-0.418588	0.545294
Zn8	Zn	1.813347	0.081412	1.045294
O9	O	1.393994	-0.356705	0.464690
O10	O	1.893994	0.143295	0.964690
O11	O	1.609651	-0.311216	0.523966
O12	O	2.109651	0.188784	1.023966
O13	O	1.453150	-0.402246	0.249064
O14	O	1.953150	0.097754	0.749064
O15	O	1.334830	-0.191178	0.405502
O16	O	1.834830	0.308822	0.905502
O17	O	1.609567	-0.402212	0.405452
O18	O	2.109567	0.097788	0.905452
O19	O	1.453344	-0.191152	0.523994
O20	O	1.953344	0.308848	1.023994
O21	O	1.334720	-0.311276	0.249085
O22	O	1.834720	0.188724	0.749085
O23	O	1.178388	-0.311229	0.405445
O24	O	1.678388	0.188771	0.905445
O25	O	1.334785	-0.402129	0.680284
O26	O	1.834785	0.097871	1.180284
O27	O	1.178369	-0.402163	0.523895
O28	O	1.678369	0.097837	1.023895
O29	O	1.453319	-0.311169	0.680326
O30	O	1.953319	0.188831	1.180326
O31	O	1.453125	-0.522263	0.405396
O32	O	1.953125	-0.022263	0.905396
O33	O	1.334675	-0.522227	0.523867
O34	O	1.834675	-0.022227	1.023867
C35	C	1.143379	-0.356695	0.464668
C36	C	1.643379	0.143305	0.964668
C37	C	1.036165	-0.356709	0.464681
C38	C	1.536165	0.143291	0.964681
C39	C	0.839870	-0.356711	0.464706
C40	C	1.339870	0.143289	0.964706
C41	C	0.949103	-0.356708	0.464690
C42	C	1.449103	0.143292	0.964690
C43	C	1.393911	-0.549116	0.464643
C44	C	1.893911	-0.049116	0.964643
C45	C	1.393964	-0.631430	0.464655
C46	C	1.893964	-0.131430	0.964655
C47	C	1.394087	-0.930521	0.464743
C48	C	1.894087	-0.430521	0.964743
C49	C	1.468405	-0.899187	0.390004
C50	C	1.968405	-0.399187	0.890004
C51	C	1.468662	-0.813569	0.390198
C52	C	1.968662	-0.313569	0.890198
C53	C	1.394026	-0.782138	0.464699
C54	C	1.894026	-0.282138	0.964699
C55	C	1.421587	-0.813139	0.566372
C56	C	1.921587	-0.313139	1.066372
C57	C	1.422162	-0.898784	0.565965
C58	C	1.922162	-0.398784	1.065965
C59	C	1.292011	-0.899033	0.438689
C60	C	1.792011	-0.399033	0.938689
C61	C	1.292515	-0.813384	0.436419
C62	C	1.792515	-0.313384	0.936419
C63	C	1.393990	-0.698279	0.464680
C64	C	1.893990	-0.198279	0.964680
C65	C	1.394126	-1.014380	0.464769
C66	C	1.894126	-0.514380	0.964769
C67	C	1.645587	-0.356716	0.464712
C68	C	2.145587	0.143284	0.964712
C69	C	1.752800	-0.356720	0.464722
C70	C	2.252800	0.143280	0.964722
C71	C	1.394062	-0.356640	0.716283
C72	C	1.894062	0.143360	1.216283
C73	C	1.394091	-0.356612	0.823497
C74	C	1.894091	0.143388	1.323497
C75	C	1.394103	-0.163543	0.464758
C76	C	1.894103	0.336457	0.964758
C77	C	1.394149	-0.081229	0.464787
C78	C	1.894149	0.418771	0.964787
C79	C	1.393981	-0.356717	0.214075
C80	C	1.893981	0.143283	0.714075
C81	C	1.394139	-0.356536	0.106862
C82	C	1.894139	0.143464	0.606862
C83	C	1.394117	-0.356562	1.019792
C84	C	1.894117	0.143438	1.519792
C85	C	1.394100	-0.356592	0.910560
C86	C	1.894100	0.143408	1.410560
H87	H	1.451419	-0.792612	0.314809
H88	H	1.951419	-0.292612	0.814809
C89	C	1.213681	-0.784500	0.504570
C90	C	1.713681	-0.284500	1.004570
H91	H	1.153173	-0.804254	0.485794
H92	H	1.653173	-0.304254	0.985794
H93	H	1.227798	-0.799317	0.568596
H94	H	1.727798	-0.299317	1.068596
H95	H	1.211428	-0.732106	0.501356
H96	H	1.711428	-0.232106	1.001356
H97	H	1.496775	-0.918700	0.588035
H98	H	1.996775	-0.418700	1.088035
H99	H	1.495365	-0.791629	0.588815
H100	H	1.995365	-0.291629	1.088815
H101	H	1.544275	-0.793023	0.407437
H102	H	2.044275	-0.293023	0.907437
C103	C	1.569995	-0.928183	0.413012
C104	C	2.069995	-0.428183	0.913012
H105	H	1.614450	-0.908993	0.367514
H106	H	2.114450	-0.408993	0.867514
H107	H	1.588068	-0.912842	0.475852
H108	H	2.088068	-0.412842	0.975852
H109	H	1.570140	-0.980610	0.409846
H110	H	2.070140	-0.480610	0.909846
H111	H	1.451370	-0.919835	0.314389
H112	H	1.951370	-0.419835	0.814389
C113	C	1.350688	-0.785657	0.643625
C114	C	1.850688	-0.285657	1.143625
H115	H	1.368674	-0.805065	0.704528
H116	H	1.868674	-0.305065	1.204528
H117	H	1.352125	-0.733221	0.646018
H118	H	1.852125	-0.233221	1.146018
H119	H	1.287513	-0.801753	0.627990
H120	H	1.787513	-0.301753	1.127990
C121	C	1.258142	-0.928291	0.340265
C122	C	1.758142	-0.428291	0.840265
H123	H	1.305946	-0.959987	0.314140
H124	H	1.805946	-0.459987	0.814140
H125	H	1.199817	-0.954997	0.348086
H126	H	1.699817	-0.454997	0.848086
H127	H	1.247795	-0.887935	0.297839
H128	H	1.747795	-0.387935	0.797839
C129	C	1.217201	-0.926408	0.512215
C130	C	1.717201	-0.426408	1.012215
H131	H	1.155669	-0.907195	0.496099
H132	H	1.655669	-0.407195	0.996099
H133	H	1.214978	-0.978853	0.511153
H134	H	1.714978	-0.478853	1.011153
H135	H	1.234804	-0.910052	0.574759
H136	H	1.734804	-0.410052	1.074759
H137	H	1.271733	-0.793130	0.361596
H138	H	1.771733	-0.293130	0.861596
H139	H	1.370404	-0.919508	0.623570
H140	H	1.870404	-0.419508	1.123570
