data_functionalizedCrystal
_audit_creation_method	'MofGen! by Chris Wilmer'
_symmetry_space_group_name_H-M	'P1'
_symmetry_Int_Tables_number	1
_symmetry_cell_setting	triclinic
loop_
_symmetry_equiv_pos_as_xyz
  x,y,z
_cell_length_a	27.731993
_cell_length_b	27.732048
_cell_length_c	9.730223
_cell_angle_alpha	89.993758
_cell_angle_beta	90.011358
_cell_angle_gamma	82.631525
loop_
_atom_site_label
_atom_site_type_symbol
_atom_site_fract_x
_atom_site_fract_y
_atom_site_fract_z
O1	O	0.640942	0.057389	-0.113935
O2	O	0.500144	0.066162	-0.114021
O3	O	0.574916	-0.008622	-0.113949
O4	O	0.566170	0.132173	-0.114007
O5	O	0.574915	-0.008620	0.114631
O6	O	0.500144	0.066164	0.114559
O7	O	0.640941	0.057391	0.114645
Zn8	Zn	0.570542	0.061778	0.150894
Zn9	Zn	0.570543	0.061776	-0.150270
O10	O	0.566169	0.132175	0.114573
C11	C	0.482137	0.065983	0.000259
C12	C	0.428480	0.065441	0.000227
C13	C	0.045321	0.061509	-0.124304
C14	C	0.246978	0.063576	-0.124342
O15	O	0.273052	0.063823	-0.230311
N16	N	0.272198	0.063836	0.000254
C17	C	0.247001	0.063576	0.124869
O18	O	0.273079	0.063839	0.230844
C19	C	0.045345	0.061505	0.124905
C20	C	0.020127	0.061251	0.000301
C21	C	0.020103	0.061254	-0.248898
C22	C	-0.030309	0.060740	-0.248887
C23	C	-0.055503	0.060481	-0.124282
C24	C	-0.030285	0.060736	0.000312
C25	C	0.020149	0.061241	0.249518
C26	C	-0.030268	0.060723	0.249516
C27	C	-0.055486	0.060468	0.124912
C28	C	-0.105890	0.059964	0.124927
N29	N	-0.131110	0.059704	0.000331
C30	C	-0.105916	0.059963	-0.124273
C31	C	0.352873	0.064664	0.124841
C32	C	0.403286	0.065182	0.124832
C33	C	0.403260	0.065182	-0.124379
C34	C	0.352845	0.064667	-0.124369
C35	C	0.327653	0.064404	0.000245
C36	C	-0.211785	0.058884	-0.124241
C37	C	-0.262201	0.058371	-0.124219
C38	C	-0.262170	0.058369	0.124991
C39	C	-0.211759	0.058884	0.124970
C40	C	-0.186567	0.059139	0.000343
O41	O	-0.131994	0.059711	0.230841
O42	O	-0.132002	0.059689	-0.230233
C43	C	0.095732	0.062023	-0.124314
C44	C	0.120950	0.062279	0.000280
C45	C	0.095756	0.062020	0.124884
C46	C	0.171364	0.062797	0.000271
C47	C	0.196558	0.063056	-0.124334
C48	C	0.171338	0.062796	-0.248930
C49	C	0.120926	0.062282	-0.248919
C50	C	0.120976	0.062280	0.249480
C51	C	0.171388	0.062794	0.249459
C52	C	0.196582	0.063053	0.124855
C53	C	0.574732	-0.026628	0.000345
C54	C	0.574179	-0.080282	0.000356
C55	C	0.614884	-0.419105	0.000310
C56	C	0.612833	-0.620765	0.000290
O57	O	0.650055	-0.652028	0.000252
N58	N	0.568497	-0.639880	0.000264
C59	C	0.524670	-0.608576	0.000234
O60	O	0.486912	-0.629462	0.000198
C61	C	0.526721	-0.406918	0.000245
C62	C	0.571061	-0.387806	0.000284
C63	C	0.659220	-0.399993	0.000348
C64	C	0.659732	-0.349581	0.000361
C65	C	0.615909	-0.318282	0.000335
C66	C	0.571573	-0.337394	0.000297
C67	C	0.482895	-0.375616	0.000205
C68	C	0.483412	-0.325199	0.000204
C69	C	0.527751	-0.306087	0.000244
C70	C	0.528262	-0.255683	0.000284
N71	N	0.572598	-0.236568	0.000310
C72	C	0.616422	-0.267867	0.000335
C73	C	0.523596	-0.714450	0.000231
C74	C	0.523083	-0.764865	0.000231
C75	C	0.611246	-0.777049	0.000284
C76	C	0.611759	-0.726634	0.000294
C77	C	0.567932	-0.695335	0.000257
C78	C	0.617494	-0.161998	0.000363
C79	C	0.618003	-0.111582	0.000381
C80	C	0.529839	-0.099401	0.000321
C81	C	0.529331	-0.149814	0.000310
C82	C	0.573162	-0.181112	0.000326
O83	O	0.491060	-0.224392	0.000306
O84	O	0.654174	-0.246972	0.000341
C85	C	0.614372	-0.469517	0.000297
C86	C	0.570036	-0.488630	0.000259
C87	C	0.526213	-0.457331	0.000234
C88	C	0.569523	-0.539044	0.000259
C89	C	0.613346	-0.570343	0.000285
C90	C	0.657683	-0.551228	0.000310
C91	C	0.658195	-0.500817	0.000323
C92	C	0.481876	-0.476446	0.000208
C93	C	0.481368	-0.526858	0.000197
C94	C	0.525191	-0.558157	0.000222
C95	C	0.658949	0.057570	0.000363
C96	C	0.712605	0.058113	0.000385
C97	C	0.566353	0.150181	0.000277
C98	C	0.566906	0.203836	0.000257
N99	N	0.570545	0.061779	0.356431
N100	N	0.570544	0.061770	-0.355806
C101	C	0.603662	0.028676	0.428388
C102	C	0.603661	0.028670	0.572271
C103	C	0.537424	0.094875	0.572226
C104	C	0.537423	0.094879	0.428346
C105	C	0.636784	-0.004423	0.356473
C106	C	0.669904	-0.037529	0.428431
C107	C	0.669903	-0.037535	0.572314
C108	C	0.636781	-0.004435	0.644239
H109	H	-0.050778	0.060513	0.350994
F110	F	0.502177	0.130101	0.648777
H111	H	-0.050837	0.060530	-0.350353
F112	F	0.705147	-0.072771	0.648895
F113	F	0.435702	-0.395945	0.000157
F114	F	0.198220	0.063069	0.382090
H115	H	0.191859	0.063010	-0.350388
H116	H	0.040610	0.061463	-0.350372
H117	H	0.510456	0.121834	0.369757
F118	F	0.665196	-0.091245	0.000423
F119	F	0.636779	-0.004447	0.797374
F120	F	-0.289037	0.058102	-0.256846
H121	H	0.693365	-0.576721	0.000337
F122	F	0.435231	-0.443141	0.000176
H123	H	0.445259	-0.542414	0.000176
H124	H	0.423813	0.065397	0.226297
F125	F	-0.184920	0.059161	0.257586
F126	F	0.436764	-0.291891	0.000162
H127	H	0.694908	-0.425472	0.000364
F128	F	0.430082	0.065459	-0.256994
F129	F	-0.184981	0.059156	-0.256883
F130	F	0.326066	0.064389	0.257480
F131	F	0.094094	0.062011	-0.381541
F132	F	0.046977	0.061513	0.382142
F133	F	-0.288993	0.058096	0.257597
F134	F	0.326011	0.064395	-0.256988
H135	H	0.100469	0.062066	0.350951
H136	H	0.647864	-0.711077	0.000325
H137	H	0.493226	-0.165375	0.000316
H138	H	0.636789	-0.004420	0.239317
F139	F	0.664144	-0.195301	0.000380
F140	F	0.706924	-0.329247	0.000373
H141	H	0.646929	-0.802542	0.000306
F142	F	0.475891	-0.785199	0.000213
H143	H	0.487905	-0.688970	0.000201
H144	H	0.494160	-0.073909	0.000305
H145	H	0.694301	-0.485261	0.000355
H146	H	0.696868	-0.064480	0.369863
