data_functionalizedCrystal
_audit_creation_method	'MofGen! by Chris Wilmer'
_symmetry_space_group_name_H-M	'P1'
_symmetry_Int_Tables_number	1
_symmetry_cell_setting	triclinic
loop_
_symmetry_equiv_pos_as_xyz
  x,y,z
_cell_length_a	14.853567
_cell_length_b	14.853559
_cell_length_c	16.776229
_cell_angle_alpha	89.995543
_cell_angle_beta	89.995834
_cell_angle_gamma	83.633192
loop_
_atom_site_label
_atom_site_type_symbol
_atom_site_fract_x
_atom_site_fract_y
_atom_site_fract_z
O1	O	1.196364	0.117707	-0.066229
O2	O	1.696364	0.617707	0.433771
O3	O	0.933904	0.131728	-0.066242
O4	O	1.433904	0.631728	0.433758
O5	O	1.072149	-0.006513	-0.066235
O6	O	1.572149	0.493487	0.433765
O7	O	1.058120	0.255948	-0.066237
O8	O	1.558120	0.755948	0.433763
O9	O	1.072131	-0.006521	0.066342
O10	O	1.572131	0.493479	0.566342
O11	O	0.933886	0.131720	0.066334
O12	O	1.433886	0.631720	0.566334
O13	O	1.196346	0.117698	0.066347
O14	O	1.696346	0.617698	0.566347
Zn15	Zn	1.065113	0.124708	0.087390
Zn16	Zn	1.565113	0.624708	0.587390
Zn17	Zn	1.065137	0.124719	-0.087285
Zn18	Zn	1.565137	0.624719	0.412715
O19	O	1.058101	0.255939	0.066339
O20	O	1.558101	0.755939	0.566339
C21	C	0.900307	0.131089	0.000044
C22	C	1.400307	0.631089	0.500044
C23	C	0.800223	0.129185	0.000039
C24	C	1.300223	0.629185	0.500039
C25	C	0.387692	0.039019	0.000058
C26	C	0.887692	0.539019	0.500058
C27	C	0.366406	0.203252	0.000055
C28	C	0.866406	0.703252	0.500055
C29	C	0.460440	0.205042	0.000053
C30	C	0.960440	0.705042	0.500053
C31	C	0.518104	0.123819	0.000051
C32	C	1.018104	0.623819	0.500051
C33	C	0.481735	0.040806	0.000053
C34	C	0.981735	0.540806	0.500053
C35	C	0.496816	0.288054	0.000043
C36	C	0.996816	0.788054	0.500043
C37	C	0.590855	0.289847	0.000040
C38	C	1.090855	0.789847	0.500040
C39	C	0.648521	0.208623	0.000044
C40	C	1.148521	0.708623	0.500044
C41	C	0.612147	0.125607	0.000046
C42	C	1.112147	0.625607	0.500046
C43	C	0.669811	0.044384	0.000045
C44	C	1.169811	0.544384	0.500045
C45	C	0.633438	-0.038633	0.000053
C46	C	1.133438	0.461367	0.500053
C47	C	0.539401	-0.040418	0.000057
C48	C	1.039401	0.459582	0.500057
C49	C	0.742559	0.210408	0.000040
C50	C	1.242559	0.710408	0.500040
C51	C	0.763854	0.046172	0.000040
C52	C	1.263854	0.546172	0.500040
C53	C	1.071506	-0.040106	0.000052
C54	C	1.571506	0.459894	0.500052
C55	C	1.069605	-0.140190	0.000048
C56	C	1.569605	0.359810	0.500048
C57	C	1.061551	-0.563360	-0.072220
C58	C	1.561551	-0.063360	0.427780
C59	C	1.061531	-0.563364	0.072320
C60	C	1.561531	-0.063364	0.572320
C61	C	1.063324	-0.469331	0.072320
C62	C	1.563324	0.030669	0.572320
C63	C	1.064230	-0.422308	0.000050
C64	C	1.564230	0.077692	0.500050
C65	C	1.063342	-0.469318	-0.072222
C66	C	1.563342	0.030682	0.427778
C67	C	1.064203	-0.422313	0.144591
C68	C	1.564203	0.077687	0.644591
C69	C	1.065996	-0.328274	0.144594
C70	C	1.565996	0.171726	0.644594
C71	C	1.066908	-0.281250	0.072323
C72	C	1.566908	0.218750	0.572323
C73	C	1.066021	-0.328266	0.000048
C74	C	1.566021	0.171734	0.500048
C75	C	1.066926	-0.281242	-0.072223
C76	C	1.566926	0.218758	0.427777
C77	C	1.066046	-0.328258	-0.144498
C78	C	1.566046	0.171742	0.355502
C79	C	1.064254	-0.422294	-0.144494
C80	C	1.564254	0.077706	0.355506
C81	C	1.068699	-0.187213	0.072318
C82	C	1.568699	0.312787	0.572318
C83	C	1.068717	-0.187200	-0.072224
C84	C	1.568717	0.312800	0.427776
C85	C	1.229944	0.118338	0.000059
C86	C	1.729944	0.618338	0.500059
C87	C	1.330027	0.120242	0.000059
C88	C	1.830027	0.620242	0.500059
C89	C	1.058745	0.289532	0.000051
C90	C	1.558745	0.789532	0.500051
C91	C	1.060646	0.389616	0.000050
C92	C	1.560646	0.889616	0.500050
N93	N	1.065103	0.124699	0.206601
N94	N	1.565103	0.624699	0.706601
N95	N	1.065154	0.124720	-0.206496
N96	N	1.565154	0.624720	0.293504
C97	C	1.126337	0.063511	0.248322
C98	C	1.626337	0.563511	0.748322
C99	C	1.126342	0.063511	0.331774
C100	C	1.626342	0.563511	0.831774
C101	C	1.065117	0.124703	0.373504
C102	C	1.565117	0.624703	0.873504
C103	C	1.003877	0.185894	0.331778
C104	C	1.503877	0.685894	0.831778
C105	C	1.003868	0.185889	0.248327
C106	C	1.503868	0.685889	0.748327
C107	C	1.003909	0.185912	0.668325
C108	C	1.503909	0.685912	1.168325
C109	C	1.003925	0.185913	0.751781
C110	C	1.503925	0.685913	1.251781
C111	C	1.126383	0.063533	0.751772
C112	C	1.626383	0.563533	1.251772
C113	C	1.126374	0.063528	0.668321
C114	C	1.626374	0.563528	1.168321
C115	C	1.065132	0.124716	0.626602
C116	C	1.565132	0.624716	1.126602
C117	C	1.065126	0.124715	0.536114
C118	C	1.565126	0.624715	1.036114
C119	C	1.065126	0.124709	0.463991
C120	C	1.565126	0.624709	0.963991
H121	H	0.810799	-0.019971	0.000042
H122	H	1.310799	0.480029	0.500042
H123	H	0.954005	0.235714	0.214359
H124	H	1.454005	0.735714	0.714359
H125	H	1.066716	-0.290002	0.203445
H126	H	1.566716	0.209998	0.703445
F127	F	0.938734	0.251033	0.623931
F128	F	1.438734	0.751033	1.123931
H129	H	0.319450	0.269380	0.000050
H130	H	0.819450	0.769380	0.500050
F131	F	0.435442	0.374490	0.000033
F132	F	0.935442	0.874490	0.500033
F133	F	0.348982	-0.049330	0.000070
F134	F	0.848982	0.450670	0.500070
H135	H	0.680401	-0.104765	0.000046
H136	H	1.180401	0.395235	0.500046
F137	F	1.069687	-0.137163	-0.149146
F138	F	1.569687	0.362837	0.350854
F139	F	1.191540	-0.001597	0.623912
F140	F	1.691540	0.498403	1.123912
H141	H	0.509777	-0.108006	0.000082
H142	H	1.009777	0.391994	0.500082
H143	H	0.620461	0.357445	0.000034
H144	H	1.120461	0.857445	0.500034
H145	H	0.772169	0.277999	0.000035
H146	H	1.272169	0.777999	0.500035
H147	H	1.066776	-0.289958	-0.203341
H148	H	1.566776	0.210042	0.296659
F149	F	1.063320	-0.472337	-0.221407
F150	F	1.563320	0.027663	0.278593
F151	F	1.060554	-0.613410	0.149230
F152	F	1.560554	-0.113410	0.649230
F153	F	1.060622	-0.613398	-0.149137
F154	F	1.560622	-0.113398	0.350863
F155	F	1.063222	-0.472360	0.221500
F156	F	1.563222	0.027640	0.721500
H157	H	1.069396	-0.148935	0.131164
H158	H	1.569396	0.351065	0.631164
H159	H	1.176197	0.013686	0.214351
H160	H	1.676197	0.513686	0.714351
F161	F	0.938757	0.251044	0.796192
F162	F	1.438757	0.751044	1.296192
H163	H	1.176202	0.013686	0.365742
H164	H	1.676202	0.513686	0.865742
H165	H	1.176247	0.013708	0.785748
H166	H	1.676247	0.513708	1.285748
F167	F	0.938711	0.251016	0.376191
F168	F	1.438711	0.751016	0.876191
