data_functionalizedCrystal
_audit_creation_method	'MofGen! by Chris Wilmer'
_symmetry_space_group_name_H-M	'P1'
_symmetry_Int_Tables_number	1
_symmetry_cell_setting	triclinic
loop_
_symmetry_equiv_pos_as_xyz
  x,y,z
_cell_length_a	19.805407
_cell_length_b	19.077068
_cell_length_c	19.076919
_cell_angle_alpha	94.470751
_cell_angle_beta	92.275426
_cell_angle_gamma	92.326519
loop_
_atom_site_label
_atom_site_type_symbol
_atom_site_fract_x
_atom_site_fract_y
_atom_site_fract_z
Zn1	Zn	1.007415	-0.296701	-0.409953
Zn2	Zn	1.007332	-0.409854	-0.296798
Zn3	Zn	0.898971	-0.291983	-0.292072
Zn4	Zn	0.889457	-0.414549	-0.414629
O5	O	0.950794	-0.353272	-0.353363
O6	O	1.102120	-0.311720	-0.394964
O7	O	0.996904	-0.390279	-0.197524
O8	O	0.917372	-0.193960	-0.303774
O9	O	1.102058	-0.394854	-0.311829
O10	O	0.997046	-0.197426	-0.390381
O11	O	0.917291	-0.303680	-0.194052
O12	O	0.802993	-0.308232	-0.308309
O13	O	0.901159	-0.402855	-0.512656
O14	O	0.796004	-0.398280	-0.398351
O15	O	0.987822	-0.316273	-0.509220
O16	O	0.987679	-0.509126	-0.316363
O17	O	0.901077	-0.512575	-0.402933
C18	C	0.774940	-0.353254	-0.353325
C19	C	0.699708	-0.353264	-0.353326
C20	C	0.234291	-0.400244	-0.400226
C21	C	0.304980	-0.400242	-0.400211
C22	C	0.343942	-0.353290	-0.353391
C23	C	0.312212	-0.306341	-0.306579
C24	C	0.241524	-0.306347	-0.306591
C25	C	0.597288	-0.306318	-0.306528
C26	C	0.667981	-0.306314	-0.306521
C27	C	0.660744	-0.400213	-0.400148
C28	C	0.590056	-0.400218	-0.400160
C29	C	0.558332	-0.353273	-0.353346
C30	C	0.481683	-0.353276	-0.353362
C31	C	0.420590	-0.353282	-0.353378
C32	C	0.943355	-0.536430	-0.360684
C33	C	0.940233	-0.614787	-0.363839
C34	C	0.983888	-0.649781	-0.320287
C35	C	0.980956	-0.723406	-0.323259
C36	C	0.934365	-0.762035	-0.369780
C37	C	0.890709	-0.727035	-0.413338
C38	C	0.893645	-0.653412	-0.410369
C39	C	0.920749	-0.982420	-0.383492
C40	C	0.917815	-1.056049	-0.386456
C41	C	1.008063	-1.052414	-0.296378
C42	C	1.010992	-0.978790	-0.293410
C43	C	0.967338	-0.943797	-0.336970
N44	N	0.931366	-0.837291	-0.372818
N45	N	0.970342	-0.868542	-0.333936
C46	C	1.127334	-0.353290	-0.353402
C47	C	1.202565	-0.353297	-0.353418
C48	C	0.943438	-0.360614	-0.537231
C49	C	0.940304	-0.363742	-0.615585
C50	C	0.958280	-0.169399	-0.346029
C51	C	0.961470	-0.091043	-0.342904
C52	C	0.983950	-0.320136	-0.650608
C53	C	0.980997	-0.323073	-0.724229
C54	C	0.934400	-0.369621	-0.762826
C55	C	0.890750	-0.413229	-0.727798
C56	C	0.893700	-0.410288	-0.654178
C57	C	0.920735	-0.383247	-0.983199
C58	C	0.917789	-0.386187	-1.056824
C59	C	1.008036	-0.296029	-1.053250
C60	C	1.010985	-0.293095	-0.979629
C61	C	0.967332	-0.336701	-0.944607
N62	N	0.931382	-0.372626	-0.838079
N63	N	0.970347	-0.333692	-0.869355
C64	C	0.958162	-0.345907	-0.170208
C65	C	0.961435	-0.342580	-0.091847
H66	H	0.330807	-0.438472	-0.438325
H67	H	1.016503	-0.751895	-0.287793
O68	O	1.056191	-0.941160	-0.248237
C69	C	1.049431	-0.868674	-0.254967
H70	H	0.996657	-0.859574	-0.277598
H71	H	1.088882	-0.849230	-0.291703
C72	C	1.124860	-0.839230	-0.154329
C73	C	1.060040	-0.828053	-0.182119
H74	H	1.131407	-0.814172	-0.109394
H75	H	1.129417	-0.888065	-0.149796
H76	H	1.157729	-0.823027	-0.184948
H77	H	1.027173	-0.844264	-0.151504
H78	H	1.055478	-0.779220	-0.186645
H79	H	1.048930	-0.255192	-0.948208
O80	O	1.050364	-0.253695	-1.087381
C81	C	1.037783	-0.266281	-1.160637
H82	H	0.984207	-0.289768	-1.171599
H83	H	1.075566	-0.304658	-1.183038
C84	C	1.111174	-0.167617	-1.182126
C85	C	1.045370	-0.196457	-1.195590
H86	H	1.115857	-0.124547	-1.203688
H87	H	1.119653	-0.159138	-1.132772
H88	H	1.142653	-0.199604	-1.200794
H89	H	1.013893	-0.164474	-1.176914
H90	H	1.036886	-0.204929	-1.244941
H91	H	0.879884	-1.087499	-0.424352
O92	O	0.851172	-0.619526	-0.452705
C93	C	0.809432	-0.669407	-0.494417
H94	H	0.806167	-0.720748	-0.467655
H95	H	0.831730	-0.679336	-0.548292
C96	C	0.742141	-0.578069	-0.536224
C97	C	0.738126	-0.641126	-0.503352
H98	H	0.698157	-0.560624	-0.541739
H99	H	0.770263	-0.544463	-0.508124
H100	H	0.760725	-0.586352	-0.581117
H101	H	0.719550	-0.632840	-0.458457
H102	H	0.709999	-0.674730	-0.531445
H103	H	1.043605	-1.080914	-0.260915
O104	O	0.845544	-0.458427	-0.765397
C105	C	0.852287	-0.451662	-0.837886
H106	H	0.905059	-0.428983	-0.847036
H107	H	0.812833	-0.414950	-0.857270
C108	C	0.776849	-0.552353	-0.867286
C109	C	0.841666	-0.524504	-0.878525
H110	H	0.770294	-0.597284	-0.892355
H111	H	0.772303	-0.556909	-0.818449
H112	H	0.743977	-0.521753	-0.883439
H113	H	0.874536	-0.555099	-0.862364
H114	H	0.846217	-0.519954	-0.927361
H115	H	1.021896	-0.282233	-0.619187
O116	O	0.705859	-0.260635	-0.261131
C117	C	0.747009	-0.216776	-0.299511
H118	H	0.723675	-0.214718	-0.354870
H119	H	0.799602	-0.238669	-0.302773
C120	C	0.781095	-0.144599	-0.194258
C121	C	0.752432	-0.142067	-0.262249
H122	H	0.784443	-0.098516	-0.171272
H123	H	0.753373	-0.174150	-0.168400
H124	H	0.824919	-0.162847	-0.196986
H125	H	0.708606	-0.123828	-0.259520
H126	H	0.780147	-0.112512	-0.288106
O127	O	1.023466	-0.280689	-0.758141
C128	C	1.065218	-0.238966	-0.708287
H129	H	1.068487	-0.265746	-0.656961
H130	H	1.042931	-0.185108	-0.698313
C131	C	1.132503	-0.197074	-0.799675
C132	C	1.136522	-0.229970	-0.736637
H133	H	1.176485	-0.191522	-0.817163
H134	H	1.104372	-0.225182	-0.833263
H135	H	1.113927	-0.152197	-0.791355
H136	H	1.155089	-0.274850	-0.744960
H137	H	1.164657	-0.201870	-0.703051
H138	H	0.858152	-0.445791	-0.625663
O139	O	0.566586	-0.260645	-0.261034
C140	C	0.616135	-0.219214	-0.219701
H141	H	0.665474	-0.217970	-0.248478
H142	H	0.624736	-0.242805	-0.167147
C143	C	0.531394	-0.145297	-0.171324
C144	C	0.591992	-0.143765	-0.206671
H145	H	0.516501	-0.098758	-0.163284
H146	H	0.498011	-0.173211	-0.199169
H147	H	0.538570	-0.164960	-0.127533
H148	H	0.584813	-0.124111	-0.250465
H149	H	0.625373	-0.115846	-0.178833
O150	O	0.872461	-0.431423	-1.094210
C151	C	0.834575	-0.469293	-1.047514
H152	H	0.835506	-0.438322	-0.993883
H153	H	0.857492	-0.522524	-1.041824
C154	C	0.759833	-0.518629	-1.142509
C155	C	0.760971	-0.480588	-1.076640
H156	H	0.714432	-0.525600	-1.160476
H157	H	0.785359	-0.493118	-1.173970
H158	H	0.778934	-0.562984	-1.137758
H159	H	0.741879	-0.436231	-1.081393
H160	H	0.735441	-0.506092	-1.045180
H161	H	0.215695	-0.268117	-0.268477
H162	H	0.885199	-0.418765	-0.954693
H163	H	0.558336	-0.438449	-0.438288
O164	O	0.196547	-0.445917	-0.445736
C165	C	0.239711	-0.487340	-0.487058
H166	H	0.291146	-0.488582	-0.458265
H167	H	0.246152	-0.463742	-0.539607
C168	C	0.145506	-0.561260	-0.535472
C169	C	0.208678	-0.562790	-0.500105
H170	H	0.126363	-0.607801	-0.543524
H171	H	0.116425	-0.533352	-0.507635
H172	H	0.150882	-0.541592	-0.579259
H173	H	0.203300	-0.582450	-0.456316
H174	H	0.237758	-0.590704	-0.527936
H175	H	0.686582	-0.438440	-0.438265
H176	H	0.885203	-0.953935	-0.418959
O177	O	0.350031	-0.260807	-0.260998
C178	C	0.334913	-0.273292	-0.191330
H179	H	0.313339	-0.329459	-0.189936
H180	H	0.296146	-0.234738	-0.171456
C181	C	0.426406	-0.194154	-0.145668
C182	C	0.399914	-0.263142	-0.143956
H183	H	0.466501	-0.187890	-0.116444
H184	H	0.436590	-0.185740	-0.192604
H185	H	0.394095	-0.162033	-0.129108
H186	H	0.432222	-0.295260	-0.160524
H187	H	0.389737	-0.271561	-0.097021
O188	O	0.845471	-0.764663	-0.458467
C189	C	0.852249	-0.837150	-0.451761
H190	H	0.876233	-0.845039	-0.397788
H191	H	0.885754	-0.859668	-0.494453
C192	C	0.752536	-0.865567	-0.525963
C193	C	0.781989	-0.875257	-0.459670
H194	H	0.709198	-0.889075	-0.530845
H195	H	0.747971	-0.816732	-0.530484
H196	H	0.780464	-0.884332	-0.561532
H197	H	0.754065	-0.856485	-0.424102
H198	H	0.786548	-0.924090	-0.455143
O199	O	1.029205	-0.612368	-0.275075
C200	C	1.067095	-0.659047	-0.237260
H201	H	1.066169	-0.712665	-0.268254
H202	H	1.044178	-0.664784	-0.184013
C203	C	1.141828	-0.564000	-0.187945
C204	C	1.140696	-0.629854	-0.226015
H205	H	1.187227	-0.545991	-0.181005
H206	H	1.116299	-0.532551	-0.213419
H207	H	1.122727	-0.568790	-0.143577
H208	H	1.159788	-0.625061	-0.270385
H209	H	1.166229	-0.661301	-0.200548
