data_functionalizedCrystal
_audit_creation_method	'MofGen! by Chris Wilmer'
_symmetry_space_group_name_H-M	'P1'
_symmetry_Int_Tables_number	1
_symmetry_cell_setting	triclinic
loop_
_symmetry_equiv_pos_as_xyz
  x,y,z
_cell_length_a	21.395362
_cell_length_b	19.805405
_cell_length_c	21.395355
_cell_angle_alpha	90.019910
_cell_angle_beta	90.043940
_cell_angle_gamma	90.042288
loop_
_atom_site_label
_atom_site_type_symbol
_atom_site_fract_x
_atom_site_fract_y
_atom_site_fract_z
Zn1	Zn	0.957878	-0.269255	0.354580
Zn2	Zn	1.457878	0.230745	0.854580
Zn3	Zn	0.957789	-0.382425	0.249800
Zn4	Zn	1.457789	0.117575	0.749800
Zn5	Zn	0.853093	-0.269286	0.249781
Zn6	Zn	1.353093	0.230714	0.749781
Zn7	Zn	0.853070	-0.382438	0.354504
Zn8	Zn	1.353070	0.117562	0.854504
O9	O	0.905458	-0.325851	0.302166
O10	O	1.405458	0.174149	0.802166
O11	O	1.045544	-0.284248	0.340720
O12	O	1.545544	0.215752	0.840720
O13	O	0.943873	-0.367424	0.162119
O14	O	1.443873	0.132576	0.662119
O15	O	0.867040	-0.174565	0.263706
O16	O	1.367040	0.325435	0.763706
O17	O	1.045478	-0.367393	0.263738
O18	O	1.545478	0.132607	0.763738
O19	O	0.944025	-0.174542	0.340701
O20	O	1.444025	0.325458	0.840701
O21	O	0.866953	-0.284302	0.162105
O22	O	1.366953	0.215698	0.662105
O23	O	0.765412	-0.284315	0.263633
O24	O	1.265412	0.215685	0.763633
O25	O	0.867001	-0.367417	0.442192
O26	O	1.367001	0.132583	0.942192
O27	O	0.765395	-0.367448	0.340573
O28	O	1.265395	0.132552	0.840573
O29	O	0.944003	-0.284261	0.442247
O30	O	1.444003	0.215739	0.942247
O31	O	0.943850	-0.477143	0.263665
O32	O	1.443850	0.022857	0.763665
O33	O	0.866914	-0.477153	0.340591
O34	O	1.366914	0.022847	0.840591
C35	C	0.742670	-0.325887	0.302093
C36	C	1.242670	0.174113	0.802093
C37	C	0.673029	-0.325918	0.302077
C38	C	1.173029	0.174082	0.802077
C39	C	0.640323	-0.369263	0.342080
C40	C	1.140323	0.130737	0.842080
C41	C	0.574888	-0.369246	0.342108
C42	C	1.074888	0.130754	0.842108
C43	C	0.542160	-0.325892	0.302122
C44	C	1.042160	0.174108	0.802122
C45	C	0.574874	-0.282539	0.262116
C46	C	1.074874	0.217461	0.762116
C47	C	0.640308	-0.282553	0.262094
C48	C	1.140308	0.217447	0.762094
C49	C	0.438435	-0.320440	0.245717
C50	C	0.938435	0.179560	0.745717
C51	C	0.373002	-0.320431	0.245738
C52	C	0.873002	0.179569	0.745738
C53	C	0.340340	-0.325848	0.302191
C54	C	0.840340	0.174152	0.802191
C55	C	0.373118	-0.331287	0.358624
C56	C	0.873118	0.168713	0.858624
C57	C	0.438552	-0.331301	0.358602
C58	C	0.938552	0.168699	0.858602
C59	C	0.471208	-0.325873	0.302142
C60	C	0.971208	0.174127	0.802142
C61	C	0.236682	-0.369177	0.342227
C62	C	0.736682	0.130823	0.842227
C63	C	0.171245	-0.369156	0.342256
C64	C	0.671245	0.130844	0.842256
C65	C	0.171232	-0.282452	0.262259
C66	C	0.671232	0.217548	0.762259
C67	C	0.236668	-0.282470	0.262236
C68	C	0.736668	0.217530	0.762236
C69	C	0.269388	-0.325836	0.302219
C70	C	0.769388	0.174164	0.802219
C71	C	0.905387	-0.501707	0.302136
C72	C	1.405387	-0.001707	0.802136
C73	C	0.905414	-0.576939	0.302144
C74	C	1.405414	-0.076939	0.802144
C75	C	0.945514	-0.612255	0.262130
C76	C	1.445514	-0.112255	0.762130
C77	C	0.945540	-0.682944	0.262144
C78	C	1.445540	-0.182944	0.762144
C79	C	0.905464	-0.718315	0.302169
C80	C	1.405464	-0.218315	0.802169
C81	C	0.865362	-0.682993	0.342187
C82	C	1.365362	-0.182993	0.842187
C83	C	0.865339	-0.612306	0.342175
C84	C	1.365339	-0.112306	0.842175
C85	C	0.865455	-0.968067	0.342233
C86	C	1.365455	-0.468067	0.842233
C87	C	0.865480	-1.038759	0.342240
C88	C	1.365480	-0.538759	0.842240
C89	C	0.945656	-1.038704	0.262202
C90	C	1.445656	-0.538704	0.762202
C91	C	0.945633	-0.968017	0.262191
C92	C	1.445633	-0.468017	0.762191
C93	C	0.905534	-0.932702	0.302210
C94	C	1.405534	-0.432702	0.802210
C95	C	0.905507	-0.856053	0.302196
C96	C	1.405507	-0.356053	0.802196
C97	C	0.905488	-0.794962	0.302181
C98	C	1.405488	-0.294962	0.802181
C99	C	1.068881	-0.325816	0.302239
C100	C	1.568881	0.174184	0.802239
C101	C	1.138522	-0.325800	0.302271
C102	C	1.638522	0.174200	0.802271
C103	C	0.905510	-0.325837	0.465589
C104	C	1.405510	0.174163	0.965589
C105	C	0.905532	-0.325831	0.535231
C106	C	1.405532	0.174169	1.035231
C107	C	0.905545	-0.149308	0.302210
C108	C	1.405545	0.350692	0.802210
C109	C	0.905583	-0.074076	0.302229
C110	C	1.405583	0.425924	0.802229
C111	C	0.905442	-0.325816	0.139378
C112	C	1.405442	0.174184	0.639378
C113	C	0.905541	-0.325631	0.069738
C114	C	1.405541	0.174369	0.569738
C115	C	0.945625	-0.282530	0.567974
C116	C	1.445625	0.217470	1.067974
C117	C	0.945624	-0.282501	0.633409
C118	C	1.445624	0.217499	1.133409
C119	C	0.905537	-0.325785	0.666099
C120	C	1.405537	0.174215	1.166099
C121	C	0.865436	-0.369089	0.633348
C122	C	1.365436	0.130911	1.133348
C123	C	0.865433	-0.369112	0.567914
C124	C	1.365433	0.130888	1.067914
C125	C	0.900565	-0.386731	0.769762
C126	C	1.400565	0.113269	1.269762
C127	C	0.900572	-0.386709	0.835195
C128	C	1.400572	0.113291	1.335195
C129	C	0.905540	-0.325714	0.867920
C130	C	1.405540	0.174286	1.367920
C131	C	0.910516	-0.264738	0.835204
C132	C	1.410516	0.235262	1.335204
C133	C	0.910513	-0.264762	0.769770
C134	C	1.410513	0.235238	1.269770
C135	C	0.905534	-0.325765	0.737051
C136	C	1.405534	0.174235	1.237051
C137	C	0.945635	-0.282378	0.971615
C138	C	1.445635	0.217622	1.471615
C139	C	0.945630	-0.282347	1.037052
C140	C	1.445630	0.217653	1.537052
C141	C	0.865444	-0.368941	1.036990
C142	C	1.365444	0.131059	1.536990
C143	C	0.865446	-0.368966	0.971555
C144	C	1.365446	0.131034	1.471555
C145	C	0.905545	-0.325685	0.938871
C146	C	1.405545	0.174315	1.438871
H147	H	0.548254	-0.404542	0.374685
H148	H	1.048254	0.095458	0.874685
Br149	Br	0.811035	-0.920148	0.396546
Br150	Br	1.311035	-0.420148	0.896546
Br151	Br	0.999901	-0.564259	0.207802
Br152	Br	1.499901	-0.064259	0.707802
H153	H	0.896524	-0.436359	0.861827
H154	H	1.396524	0.063641	1.361827
Br155	Br	1.000023	-0.920017	0.207869
Br156	Br	1.500023	-0.420017	0.707869
H157	H	0.978193	-0.711695	0.229561
H158	H	1.478193	-0.211695	0.729561
Br159	Br	0.126857	-0.427980	0.396556
Br160	Br	0.626857	0.072020	0.896556
H161	H	0.832798	-0.404177	1.063606
H162	H	1.332798	0.095823	1.563606
H163	H	0.832845	-1.067556	0.374837
H164	H	1.332845	-0.567556	0.874837
Br165	Br	0.126824	-0.223607	0.207997
Br166	Br	0.626824	0.276393	0.707997
H167	H	0.832734	-0.711798	0.374778
H168	H	1.332734	-0.211798	0.874778
H169	H	0.832802	-0.404230	0.944895
H170	H	1.332802	0.095770	1.444895
Br171	Br	0.328799	-0.338637	0.435245
Br172	Br	0.828799	0.161363	0.935245
H173	H	0.978308	-1.067466	0.229618
H174	H	1.478308	-0.567466	0.729618
Br175	Br	0.810921	-0.564376	0.396486
Br176	Br	1.310921	-0.064376	0.896486
Br177	Br	0.811026	-0.427828	0.677711
Br178	Br	1.311026	0.072172	1.177711
H179	H	0.896351	-0.436388	0.743122
H180	H	1.396351	0.063612	1.243122
Br181	Br	0.281057	-0.223642	0.207943
Br182	Br	0.781057	0.276358	0.707943
H183	H	0.978276	-0.247287	0.541367
H184	H	1.478276	0.252713	1.041367
Br185	Br	0.684697	-0.223722	0.207802
Br186	Br	1.184697	0.276278	0.707802
H187	H	0.346319	-0.316007	0.199786
H188	H	0.846319	0.183993	0.699786
Br189	Br	0.530460	-0.223696	0.207854
Br190	Br	1.030460	0.276304	0.707854
Br191	Br	0.482756	-0.313088	0.169095
Br192	Br	0.982756	0.186912	0.669095
H193	H	0.978271	-0.247237	0.660074
H194	H	1.478271	0.252763	1.160074
H195	H	0.914562	-0.215113	0.743136
H196	H	1.414562	0.284887	1.243136
H197	H	0.914563	-0.215070	0.861848
H198	H	1.414563	0.284930	1.361848
Br199	Br	1.000051	-0.223639	0.927256
Br200	Br	1.500051	0.276361	1.427256
Br201	Br	1.000056	-0.223587	1.081491
Br202	Br	1.500056	0.276413	1.581491
Br203	Br	0.811016	-0.427882	0.523474
Br204	Br	1.311016	0.072118	1.023474
H205	H	0.666960	-0.404574	0.374638
H206	H	1.166960	0.095426	0.874638
H207	H	0.465238	-0.335727	0.404552
H208	H	0.965238	0.164273	0.904552
H209	H	0.263324	-0.404485	0.374787
H210	H	0.763324	0.095515	0.874787
