data_functionalizedCrystal
_audit_creation_method	'MofGen! by Chris Wilmer'
_symmetry_space_group_name_H-M	'P1'
_symmetry_Int_Tables_number	1
_symmetry_cell_setting	triclinic
loop_
_symmetry_equiv_pos_as_xyz
  x,y,z
_cell_length_a	8.597304
_cell_length_b	8.559649
_cell_length_c	7.088929
_cell_angle_alpha	84.655815
_cell_angle_beta	76.045151
_cell_angle_gamma	102.375339
loop_
_atom_site_label
_atom_site_type_symbol
_atom_site_fract_x
_atom_site_fract_y
_atom_site_fract_z
O1	O	2.074479	-0.219465	-0.182758
O2	O	1.606595	-0.245557	-0.105679
O3	O	1.881758	0.000149	-0.151011
O4	O	1.799316	-0.465171	-0.137426
O5	O	1.918540	0.033060	-0.475046
O6	O	1.643377	-0.212646	-0.429714
O7	O	2.111261	-0.186554	-0.506793
Cu8	Cu	1.880678	-0.196596	-0.497840
Cu9	Cu	1.837179	-0.235516	-0.114632
O10	O	1.836098	-0.432261	-0.461461
C11	C	1.565641	-0.228134	-0.257920
C12	C	1.388815	-0.225231	-0.228789
C13	C	1.906397	0.076143	-0.314054
C14	C	1.924992	0.253548	-0.317107
C15	C	2.152214	-0.203978	-0.354548
C16	C	2.329039	-0.206882	-0.383666
C17	C	1.811459	-0.508255	-0.298413
C18	C	1.792862	-0.685661	-0.295348
N19	N	1.911284	-0.169220	-0.767371
N20	N	1.806586	-0.262879	0.154896
H21	H	2.304717	-0.238706	-0.073906
H22	H	2.019807	-0.072168	-0.866906
H23	H	2.052353	0.337235	-0.338104
H24	H	2.413150	-0.193395	-0.538560
H25	H	1.698081	-0.359936	-0.745582
O26	O	1.640922	0.214424	-0.269969
C27	C	1.430893	-0.013406	-0.070673
C28	C	1.602971	0.099667	-0.099156
H29	H	1.400171	-0.106235	0.067400
H30	H	1.334318	0.060797	-0.054646
H31	H	1.430851	-0.078559	-0.203792
H32	H	1.603175	0.164846	0.033913
H33	H	1.699472	0.025378	-0.115271
