data_functionalizedCrystal
_audit_creation_method	'MofGen! by Chris Wilmer'
_symmetry_space_group_name_H-M	'P1'
_symmetry_Int_Tables_number	1
_symmetry_cell_setting	triclinic
loop_
_symmetry_equiv_pos_as_xyz
  x,y,z
_cell_length_a	9.065215
_cell_length_b	14.044220
_cell_length_c	7.540329
_cell_angle_alpha	89.995368
_cell_angle_beta	89.997574
_cell_angle_gamma	89.101787
loop_
_atom_site_label
_atom_site_type_symbol
_atom_site_fract_x
_atom_site_fract_y
_atom_site_fract_z
O1	O	1.975819	0.139128	-0.147468
O2	O	2.475819	0.639128	0.352532
O3	O	1.547799	0.150544	-0.147476
O4	O	2.047799	0.650544	0.352524
O5	O	1.755385	0.006796	-0.147454
O6	O	2.255385	0.506796	0.352546
O7	O	1.768234	0.282875	-0.147489
O8	O	2.268234	0.782875	0.352511
O9	O	1.755371	0.006794	0.147511
O10	O	2.255371	0.506794	0.647511
O11	O	1.547785	0.150542	0.147489
O12	O	2.047785	0.650542	0.647489
O13	O	1.975806	0.139126	0.147497
O14	O	2.475806	0.639126	0.647497
Cu15	Cu	1.761794	0.144834	0.174426
Cu16	Cu	2.261794	0.644834	0.674426
Cu17	Cu	1.761810	0.144836	-0.174405
Cu18	Cu	2.261810	0.644836	0.325595
O19	O	1.768220	0.282873	0.147476
O20	O	2.268220	0.782873	0.647476
C21	C	1.492684	0.149446	0.000005
C22	C	1.992684	0.649446	0.500005
C23	C	1.328478	0.146168	0.000003
C24	C	1.828478	0.646168	0.500003
C25	C	1.749753	-0.028568	0.000029
C26	C	2.249753	0.471432	0.500029
C27	C	1.732976	-0.133937	0.000030
C28	C	2.232976	0.366063	0.500030
C29	C	1.702304	-0.326862	0.000004
C30	C	2.202304	0.173138	0.500004
C31	C	1.821294	-0.383474	0.000001
C32	C	2.321294	0.116526	0.500001
C33	C	1.804227	-0.490824	-0.000013
C34	C	2.304227	0.009176	0.499987
C35	C	1.719368	-0.219502	0.000019
C36	C	2.219368	0.280498	0.500019
C37	C	2.030921	0.140223	0.000012
C38	C	2.530921	0.640223	0.500012
C39	C	2.195127	0.143502	0.000003
C40	C	2.695127	0.643502	0.500003
C41	C	1.773851	0.318237	-0.000011
C42	C	2.273851	0.818237	0.499989
C43	C	1.790628	0.423607	-0.000025
C44	C	2.290628	0.923607	0.499975
N45	N	1.761793	0.144832	0.419774
N46	N	2.261793	0.644832	0.919774
N47	N	1.761822	0.144830	-0.419753
N48	N	2.261822	0.644830	0.080247
H49	H	1.587627	-0.359015	-0.000002
H50	H	2.087627	0.140985	0.499998
H51	H	1.935981	-0.351319	-0.000115
H52	H	2.435981	0.148681	0.499885
