data_functionalizedCrystal
_audit_creation_method	'MofGen! by Chris Wilmer'
_symmetry_space_group_name_H-M	'P1'
_symmetry_Int_Tables_number	1
_symmetry_cell_setting	triclinic
loop_
_symmetry_equiv_pos_as_xyz
  x,y,z
_cell_length_a	11.792241
_cell_length_b	27.731996
_cell_length_c	10.868271
_cell_angle_alpha	89.988908
_cell_angle_beta	89.999893
_cell_angle_gamma	83.407402
loop_
_atom_site_label
_atom_site_type_symbol
_atom_site_fract_x
_atom_site_fract_y
_atom_site_fract_z
O1	O	1.504760	0.066250	-0.102220
O2	O	1.174198	0.073077	-0.102251
O3	O	1.349776	-0.000675	-0.102208
O4	O	1.329181	0.140002	-0.102263
O5	O	1.349762	-0.000678	0.102437
O6	O	1.174183	0.073075	0.102394
O7	O	1.504746	0.066247	0.102424
Zn8	Zn	1.339462	0.069660	0.134901
Zn9	Zn	1.339481	0.069664	-0.134727
O10	O	1.329167	0.139999	0.102381
C11	C	1.131913	0.072647	0.000068
C12	C	1.005941	0.071363	0.000057
C13	C	0.775306	0.069003	0.000094
C14	C	0.903648	0.070314	0.000074
C15	C	1.349346	-0.018687	0.000118
C16	C	1.348072	-0.072350	0.000131
C17	C	1.340062	-0.405111	-0.111482
C18	C	1.335223	-0.606798	-0.111504
O19	O	1.334556	-0.632871	-0.206375
N20	N	1.334615	-0.632020	0.000047
C21	C	1.335208	-0.606817	0.111611
O22	O	1.334568	-0.632897	0.206491
C23	C	1.340039	-0.405131	0.111632
C24	C	1.340659	-0.379912	0.000074
C25	C	1.340681	-0.379892	-0.223031
C26	C	1.341897	-0.329474	-0.223024
C27	C	1.342494	-0.304275	-0.111469
C28	C	1.341875	-0.329494	0.000080
C29	C	1.340624	-0.379929	0.223195
C30	C	1.341829	-0.329504	0.223190
C31	C	1.342449	-0.304285	0.111632
C32	C	1.343688	-0.253877	0.111643
N33	N	1.344297	-0.228654	0.000092
C34	C	1.343700	-0.253854	-0.111464
C35	C	1.332674	-0.712705	0.111592
C36	C	1.331469	-0.763126	0.111587
C37	C	1.331482	-0.763104	-0.111528
C38	C	1.332696	-0.712682	-0.111522
C39	C	1.333283	-0.687483	0.000041
C40	C	1.346254	-0.147972	-0.111441
C41	C	1.347475	-0.097549	-0.111425
C42	C	1.347456	-0.097576	0.111690
C43	C	1.346241	-0.147995	0.111674
C44	C	1.345636	-0.173191	0.000098
O45	O	1.344344	-0.227772	0.206464
O46	O	1.344315	-0.227763	-0.206330
C47	C	1.338846	-0.455530	-0.111489
C48	C	1.338227	-0.480749	0.000060
C49	C	1.338824	-0.455550	0.111616
C50	C	1.337022	-0.531170	0.000056
C51	C	1.336425	-0.556369	-0.111500
C52	C	1.337034	-0.531147	-0.223051
C53	C	1.338250	-0.480729	-0.223044
C54	C	1.338216	-0.480772	0.223167
C55	C	1.337001	-0.531190	0.223151
C56	C	1.336404	-0.556389	0.111595
C57	C	1.547030	0.066677	0.000103
C58	C	1.673002	0.067961	0.000105
C59	C	1.329597	0.158011	0.000052
C60	C	1.330872	0.211674	0.000032
N61	N	1.339458	0.069657	0.318915
N62	N	1.339495	0.069663	-0.318742
C63	C	1.339475	0.069663	0.569921
C64	C	1.339462	0.069661	0.430243
H65	H	1.347982	-0.077018	-0.202273
C66	C	1.339927	-0.407658	0.345920
N67	N	1.339396	-0.428542	0.438364
C68	C	1.345570	-0.175737	0.234393
N69	N	1.345053	-0.196628	0.326827
H70	H	1.345756	-0.168480	-0.202297
H71	H	1.347947	-0.077050	0.202515
H72	H	1.340191	-0.400404	-0.313878
H73	H	1.342398	-0.308945	-0.313866
H74	H	1.338754	-0.460200	-0.313886
H75	H	1.342290	-0.308989	0.314040
C76	C	1.333368	-0.684945	-0.234243
N77	N	1.333869	-0.664056	-0.326682
H78	H	1.330997	-0.783629	-0.202361
H79	H	1.336553	-0.551673	-0.313883
H80	H	1.336505	-0.551720	0.314002
C81	C	1.330798	-0.790862	0.234310
N82	N	1.330284	-0.811751	0.326749
H83	H	1.333158	-0.692193	0.202446
H84	H	1.338703	-0.460260	0.314011
