data_functionalizedCrystal
_audit_creation_method	'MofGen! by Chris Wilmer'
_symmetry_space_group_name_H-M	'P1'
_symmetry_Int_Tables_number	1
_symmetry_cell_setting	triclinic
loop_
_symmetry_equiv_pos_as_xyz
  x,y,z
_cell_length_a	16.109302
_cell_length_b	14.519731
_cell_length_c	14.586319
_cell_angle_alpha	89.995223
_cell_angle_beta	89.994552
_cell_angle_gamma	83.575317
loop_
_atom_site_label
_atom_site_type_symbol
_atom_site_fract_x
_atom_site_fract_y
_atom_site_fract_z
O1	O	1.103344	0.118542	-0.076284
O2	O	0.861308	0.133293	-0.076277
O3	O	0.988734	-0.008333	-0.076272
O4	O	0.975918	0.260168	-0.076288
O5	O	0.988725	-0.008335	0.076209
O6	O	0.861300	0.133291	0.076204
O7	O	1.103335	0.118540	0.076197
Cu8	Cu	0.982316	0.125915	0.090123
Cu9	Cu	0.982327	0.125918	-0.090203
O10	O	0.975909	0.260166	0.076193
C11	C	0.830328	0.132695	-0.000035
C12	C	0.738030	0.130903	-0.000032
C13	C	0.525676	0.126758	0.083076
C14	C	0.438953	0.125065	0.083073
C15	C	0.438973	0.125072	-0.083170
C16	C	0.525696	0.126759	-0.083166
C17	C	0.569044	0.127607	-0.000040
C18	C	0.395599	0.124226	-0.000047
C19	C	0.301570	0.122390	-0.000051
C20	C	0.663080	0.129441	-0.000036
C21	C	0.988129	-0.042692	-0.000031
C22	C	0.986330	-0.145069	-0.000031
C23	C	0.984868	-0.228210	-0.000033
C24	C	0.983041	-0.332515	-0.000040
C25	C	0.981591	-0.415651	-0.000046
C26	C	0.979764	-0.519962	-0.000051
C27	C	1.134315	0.119139	-0.000046
C28	C	1.226614	0.120930	-0.000055
C29	C	0.976514	0.294525	-0.000050
C30	C	0.978314	0.396902	-0.000057
N31	N	0.982315	0.125913	0.216955
N32	N	0.982335	0.125913	-0.217035
C33	C	1.038758	0.063222	0.451964
C34	C	1.038760	0.063220	0.547945
C35	C	0.925886	0.188607	0.547950
C36	C	0.925880	0.188604	0.451971
C37	C	0.982321	0.125913	0.403980
C38	C	0.982329	0.125913	0.595941
C39	C	0.982331	0.125911	0.700008
C40	C	0.982318	0.125913	0.299906
H41	H	0.561007	0.127447	-0.150853
O42	O	0.871099	0.249632	0.594467
C43	C	0.822658	0.409976	0.623859
C44	C	0.884740	0.340964	0.571111
H45	H	0.833677	0.483833	0.605010
H46	H	0.756035	0.398011	0.604981
H47	H	0.832342	0.399167	0.700697
H48	H	0.875132	0.351732	0.494261
H49	H	0.951341	0.352947	0.590065
O50	O	1.093626	0.002428	0.405283
C51	C	1.207042	-0.017248	0.296795
C52	C	1.144987	0.051719	0.349630
H53	H	1.248571	0.022576	0.251772
H54	H	1.247440	-0.062072	0.347517
H55	H	1.171006	-0.063316	0.251934
H56	H	1.180955	0.097847	0.394493
H57	H	1.104588	0.096477	0.298859
H58	H	0.403668	0.124383	-0.150848
O59	O	1.093665	0.002289	0.594414
C60	C	1.205589	-0.122113	0.584273
C61	C	1.143466	-0.053140	0.531534
H62	H	1.245857	-0.166958	0.533458
H63	H	1.247241	-0.082331	0.629174
H64	H	1.169612	-0.168156	0.629242
H65	H	1.179375	-0.007080	0.486515
H66	H	1.101815	-0.092980	0.486691
O67	O	0.871170	0.249548	0.405254
C68	C	0.853666	0.375524	0.296918
C69	C	0.915714	0.306550	0.349750
H70	H	0.889656	0.421641	0.252046
H71	H	0.812081	0.335743	0.251933
H72	H	0.813317	0.420295	0.347723
H73	H	0.956118	0.261761	0.299012
H74	H	0.957241	0.346387	0.394749
H75	H	0.560968	0.127449	0.150762
H76	H	0.403647	0.124374	0.150755
