data_functionalizedCrystal
_audit_creation_method	'MofGen! by Chris Wilmer'
_symmetry_space_group_name_H-M	'P1'
_symmetry_Int_Tables_number	1
_symmetry_cell_setting	triclinic
loop_
_symmetry_equiv_pos_as_xyz
  x,y,z
_cell_length_a	16.109301
_cell_length_b	13.339070
_cell_length_c	15.186229
_cell_angle_alpha	89.998719
_cell_angle_beta	89.999362
_cell_angle_gamma	99.545388
loop_
_atom_site_label
_atom_site_type_symbol
_atom_site_fract_x
_atom_site_fract_y
_atom_site_fract_z
O1	O	1.133153	0.130020	-0.073168
O2	O	0.894827	0.146201	-0.073182
O3	O	0.986638	-0.009144	-0.073174
O4	O	1.041342	0.285365	-0.073176
O5	O	0.986629	-0.009146	0.073283
O6	O	0.894818	0.146199	0.073275
O7	O	1.133144	0.130018	0.073289
Zn8	Zn	1.013980	0.138108	0.096535
Zn9	Zn	1.013992	0.138111	-0.096428
O10	O	1.041333	0.285363	0.073281
C11	C	0.863697	0.145545	0.000045
C12	C	0.770947	0.143580	0.000040
C13	C	0.568905	0.231189	0.000049
C14	C	0.481756	0.229335	0.000055
C15	C	0.459072	0.045023	0.000053
C16	C	0.546219	0.046879	0.000053
C17	C	0.601133	0.139965	0.000047
C18	C	0.426838	0.136255	0.000052
C19	C	0.332347	0.134244	0.000058
C20	C	0.695630	0.141976	0.000043
C21	C	0.977393	-0.046831	0.000053
C22	C	0.949849	-0.159124	0.000048
C23	C	1.164017	-0.523987	0.000060
C24	C	1.189898	-0.418483	0.000070
C25	C	1.129888	-0.353638	0.000064
C26	C	1.043992	-0.394307	0.000049
C27	C	1.018108	-0.499822	0.000046
C28	C	0.983979	-0.329473	0.000050
C29	C	0.898083	-0.370142	0.000035
C30	C	0.872203	-0.475647	0.000032
C31	C	0.932213	-0.540492	0.000038
C32	C	1.009863	-0.223958	0.000053
C33	C	0.863954	-0.199793	0.000039
C34	C	0.838073	-0.305297	0.000029
C35	C	1.164275	0.130675	0.000060
C36	C	1.257024	0.132640	0.000060
C37	C	1.050578	0.323050	0.000052
C38	C	1.078122	0.435343	0.000052
N39	N	1.013977	0.138106	0.228228
N40	N	1.013998	0.138106	-0.228121
C41	C	1.054656	0.069342	0.453954
C42	C	1.054658	0.069340	0.546144
C43	C	0.973315	0.206873	0.546146
C44	C	0.973308	0.206869	0.453958
C45	C	1.013984	0.138105	0.407865
C46	C	1.013992	0.138106	0.592242
C47	C	1.013994	0.138104	0.692198
C48	C	1.013980	0.138106	0.307902
H49	H	1.150966	-0.267732	0.000072
H50	H	0.768134	-0.338426	0.000018
H51	H	0.572459	-0.027412	0.000054
H52	H	0.455520	0.303619	0.000059
H53	H	1.212868	-0.576792	0.000072
H54	H	0.414350	-0.030764	0.000063
C55	C	1.284378	-0.373749	0.000073
C56	C	1.350389	-0.445069	0.000070
C57	C	1.444874	-0.400334	0.000067
C58	C	1.473348	-0.284279	0.000069
C59	C	1.407335	-0.212952	0.000072
C60	C	1.312850	-0.257687	0.000075
H61	H	1.329313	-0.530986	0.000069
H62	H	1.493741	-0.453135	0.000065
H63	H	1.543292	-0.251164	0.000067
H64	H	1.428412	-0.127035	0.000073
H65	H	1.263983	-0.204885	0.000077
C66	C	0.928581	0.282519	0.596850
C67	C	0.928644	0.282587	0.698253
C68	C	0.883912	0.358238	0.748953
C69	C	0.839116	0.433821	0.698250
C70	C	0.839051	0.433756	0.596841
C71	C	0.883784	0.358105	0.546141
H72	H	0.961806	0.226633	0.735791
H73	H	0.883960	0.358285	0.824023
H74	H	0.806003	0.489823	0.735781
H75	H	0.805890	0.489710	0.559303
H76	H	0.883736	0.358057	0.471071
C77	C	0.777717	-0.520379	0.000025
C78	C	0.721086	-0.495898	0.076071
C79	C	0.626599	-0.540626	0.076065
C80	C	0.588744	-0.609834	0.000013
C81	C	0.645375	-0.634319	-0.076039
C82	C	0.739862	-0.589591	-0.076033
H83	H	0.749108	-0.444663	0.132374
H84	H	0.584677	-0.522501	0.132364
H85	H	0.518799	-0.642944	0.000008
H86	H	0.617353	-0.685554	-0.132343
H87	H	0.781784	-0.607716	-0.132332
H88	H	0.613614	0.306986	0.000051
C89	C	1.099401	-0.006298	0.596844
C90	C	1.144150	-0.081924	0.546141
C91	C	1.188894	-0.157566	0.596841
C92	C	1.188889	-0.157581	0.698244
C93	C	1.144138	-0.081952	0.748953
C94	C	1.099394	-0.006310	0.698253
H95	H	1.144155	-0.081915	0.471071
H96	H	1.222021	-0.213551	0.559302
H97	H	1.222011	-0.213576	0.735775
H98	H	1.144133	-0.081961	0.824022
H99	H	1.066267	0.049675	0.735791
C100	C	0.797934	-0.128476	0.000030
C101	C	0.795669	-0.052616	-0.076022
C102	C	0.729656	0.018708	-0.076028
C103	C	0.665906	0.014172	0.000020
C104	C	0.668169	-0.061691	0.076078
C105	C	0.734183	-0.133015	0.076084
H106	H	0.842862	-0.049255	-0.132322
H107	H	0.727981	0.074867	-0.132332
H108	H	0.617039	0.066970	0.000016
H109	H	0.620976	-0.065052	0.132378
H110	H	0.735858	-0.189174	0.132388
H111	H	1.087775	0.013349	0.416427
H112	H	1.079800	-0.190856	0.000066
H113	H	0.911145	-0.626403	0.000026
H114	H	0.940184	0.262865	0.416429
