data_functionalizedCrystal
_audit_creation_method	'MofGen! by Chris Wilmer'
_symmetry_space_group_name_H-M	'P1'
_symmetry_Int_Tables_number	1
_symmetry_cell_setting	triclinic
loop_
_symmetry_equiv_pos_as_xyz
  x,y,z
_cell_length_a	21.395364
_cell_length_b	14.908178
_cell_length_c	21.395355
_cell_angle_alpha	86.685439
_cell_angle_beta	89.975448
_cell_angle_gamma	93.328811
loop_
_atom_site_label
_atom_site_type_symbol
_atom_site_fract_x
_atom_site_fract_y
_atom_site_fract_z
Zn1	Zn	0.943529	-0.358933	-0.339876
Zn2	Zn	1.276863	-0.025599	-0.006542
Zn3	Zn	1.610196	0.307734	0.326791
Zn4	Zn	0.937409	-0.509786	-0.229052
Zn5	Zn	1.270742	-0.176452	0.104281
Zn6	Zn	1.604076	0.156881	0.437615
Zn7	Zn	0.838743	-0.358972	-0.235111
Zn8	Zn	1.172076	-0.025639	0.098223
Zn9	Zn	1.505409	0.307694	0.431556
Zn10	Zn	0.832690	-0.509802	-0.333791
Zn11	Zn	1.166023	-0.176468	-0.000458
Zn12	Zn	1.499357	0.156865	0.332875
O13	O	0.888093	-0.434373	-0.284457
O14	O	1.221426	-0.101040	0.048876
O15	O	1.554759	0.232294	0.382209
O16	O	1.030396	-0.378920	-0.325185
O17	O	1.363730	-0.045587	0.008148
O18	O	1.697063	0.287746	0.341482
O19	O	0.924292	-0.489790	-0.142177
O20	O	1.257626	-0.156456	0.191156
O21	O	1.590959	0.176877	0.524489
O22	O	0.857737	-0.232712	-0.254090
O23	O	1.191070	0.100621	0.079244
O24	O	1.524404	0.433955	0.412577
O25	O	1.025900	-0.489751	-0.243764
O26	O	1.359233	-0.156418	0.089570
O27	O	1.692566	0.176915	0.422903
O28	O	0.934723	-0.232683	-0.331060
O29	O	1.268057	0.100650	0.002273
O30	O	1.601390	0.433984	0.335607
O31	O	0.851803	-0.378988	-0.146629
O32	O	1.185136	-0.045654	0.186705
O33	O	1.518469	0.287679	0.520038
O34	O	0.750261	-0.379003	-0.248190
O35	O	1.083594	-0.045670	0.085143
O36	O	1.416928	0.287663	0.418476
O37	O	0.847421	-0.489779	-0.422277
O38	O	1.180755	-0.156445	-0.088943
O39	O	1.514088	0.176888	0.244390
O40	O	0.745814	-0.489817	-0.320691
O41	O	1.079148	-0.156484	0.012643
O42	O	1.412481	0.176850	0.345976
O43	O	0.928854	-0.378936	-0.426747
O44	O	1.262188	-0.045603	-0.093413
O45	O	1.595521	0.287731	0.239920
O46	O	0.918424	-0.636043	-0.237864
O47	O	1.251757	-0.302709	0.095469
O48	O	1.585090	0.030624	0.428803
O49	O	0.841487	-0.636055	-0.314816
O50	O	1.174820	-0.302721	0.018518
O51	O	1.508154	0.030612	0.351851
C52	C	0.725303	-0.434417	-0.284438
C53	C	1.058637	-0.101084	0.048895
C54	C	1.391970	0.232250	0.382229
C55	C	0.655660	-0.434457	-0.284444
C56	C	0.988994	-0.101124	0.048890
C57	C	1.322327	0.232209	0.382223
C58	C	0.625307	-0.376842	-0.326898
C59	C	0.958641	-0.043509	0.006435
C60	C	1.291974	0.289824	0.339769
C61	C	0.559873	-0.376818	-0.326902
C62	C	0.893206	-0.043485	0.006432
C63	C	1.226539	0.289848	0.339765
C64	C	0.524793	-0.434426	-0.284456
C65	C	0.858127	-0.101092	0.048877
C66	C	1.191460	0.232241	0.382210
C67	C	0.555154	-0.492045	-0.241994
C68	C	0.888488	-0.158711	0.091339
C69	C	1.221821	0.174622	0.424673
C70	C	0.620588	-0.492061	-0.241988
C71	C	0.953921	-0.158727	0.091346
C72	C	1.287255	0.174606	0.424679
C73	C	0.417825	-0.515676	-0.276162
C74	C	0.751159	-0.182343	0.057171
C75	C	1.084492	0.150990	0.390504
C76	C	0.352393	-0.515662	-0.276173
C77	C	0.685726	-0.182329	0.057160
C78	C	1.019060	0.151005	0.390494
C79	C	0.322975	-0.434376	-0.284472
C80	C	0.656308	-0.101043	0.048861
C81	C	0.989641	0.232291	0.382194
C82	C	0.358997	-0.353102	-0.292774
C83	C	0.692330	-0.019769	0.040559
C84	C	1.025664	0.313565	0.373892
C85	C	0.424431	-0.353118	-0.292768
C86	C	0.757764	-0.019784	0.040565
C87	C	1.091097	0.313549	0.373899
C88	C	0.453842	-0.434414	-0.284458
C89	C	0.787175	-0.101081	0.048875
C90	C	1.120508	0.232252	0.382208
C91	C	0.221670	-0.376730	-0.326933
C92	C	0.555004	-0.043397	0.006401
C93	C	0.888337	0.289937	0.339734
C94	C	0.156235	-0.376704	-0.326932
C95	C	0.489568	-0.043371	0.006402
C96	C	0.822901	0.289962	0.339735
C97	C	0.151517	-0.491939	-0.242027
C98	C	0.484850	-0.158606	0.091306
C99	C	0.818184	0.174728	0.424639
C100	C	0.216952	-0.491956	-0.242025
C101	C	0.550285	-0.158623	0.091308
C102	C	0.883618	0.174710	0.424641
C103	C	0.252024	-0.434353	-0.284481
C104	C	0.585358	-0.101020	0.048852
C105	C	0.918691	0.232314	0.382185
C106	C	0.878651	-0.668785	-0.275036
C107	C	1.211985	-0.335452	0.058297
C108	C	1.545318	-0.002118	0.391631
C109	C	0.874670	-0.769068	-0.271026
C110	C	1.208003	-0.435734	0.062307
C111	C	1.541336	-0.102401	0.395640
C112	C	0.947293	-0.957329	-0.343727
C113	C	1.280626	-0.623995	-0.010393
C114	C	1.613959	-0.290662	0.322940
C115	C	0.943554	-1.051553	-0.339962
C116	C	1.276887	-0.718220	-0.006628
C117	C	1.610220	-0.384886	0.326705
C118	C	0.863450	-1.051742	-0.259734
C119	C	1.196783	-0.718409	0.073599
C120	C	1.530117	-0.385076	0.406933
C121	C	0.867189	-0.957518	-0.263499
C122	C	1.200522	-0.624185	0.069834
C123	C	1.533856	-0.290851	0.403167
C124	C	0.909112	-0.910315	-0.305496
C125	C	1.242446	-0.576981	0.027837
C126	C	1.575779	-0.243648	0.361170
C127	C	0.912854	-0.816088	-0.309258
C128	C	1.246187	-0.482755	0.024075
C129	C	1.579521	-0.149422	0.357409
C130	C	0.832748	-0.816279	-0.229034
C131	C	1.166081	-0.482946	0.104299
C132	C	1.499414	-0.149613	0.437633
C133	C	0.829009	-0.910504	-0.225269
C134	C	1.162342	-0.577170	0.108065
C135	C	1.495675	-0.243837	0.441398
C136	C	1.051518	-0.434330	-0.284477
C137	C	1.384851	-0.100996	0.048856
C138	C	1.718184	0.232337	0.382190
C139	C	1.121160	-0.434311	-0.284486
C140	C	1.454493	-0.100978	0.048848
C141	C	1.787826	0.232356	0.382181
C142	C	0.888146	-0.434355	-0.447881
C143	C	1.221479	-0.101021	-0.114548
C144	C	1.554812	0.232312	0.218785
C145	C	0.888168	-0.434347	-0.517523
C146	C	1.221501	-0.101014	-0.184190
C147	C	1.554835	0.232320	0.149144
C148	C	0.897588	-0.199046	-0.293929
C149	C	1.230921	0.134288	0.039404
C150	C	1.564255	0.467621	0.372737
C151	C	0.901634	-0.098763	-0.297966
C152	C	1.234968	0.234570	0.035367
C153	C	1.568301	0.567904	0.368701
C154	C	0.930569	-0.376629	-0.552565
C155	C	1.263902	-0.043295	-0.219231
C156	C	1.597235	0.290038	0.114102
C157	C	0.930569	-0.376590	-0.618002
C158	C	1.263903	-0.043257	-0.284668
C159	C	1.597236	0.290077	0.048665
C160	C	0.888175	-0.434286	-0.648394
C161	C	1.221509	-0.100952	-0.315061
C162	C	1.554842	0.232381	0.018273
C163	C	0.845767	-0.492008	-0.613344
C164	C	1.179100	-0.158674	-0.280011
C165	C	1.512433	0.174659	0.053323
C166	C	0.845763	-0.492039	-0.547909
C167	C	1.179096	-0.158705	-0.214575
C168	C	1.512430	0.174628	0.118758
C169	C	0.879956	-0.515525	-0.748803
C170	C	1.213289	-0.182191	-0.415470
C171	C	1.546623	0.151142	-0.082137
C172	C	0.879964	-0.515495	-0.814238
C173	C	1.213297	-0.182162	-0.480904
C174	C	1.546631	0.151171	-0.147571
C175	C	0.888183	-0.434190	-0.850219
C176	C	1.221516	-0.100857	-0.516885
C177	C	1.554850	0.232477	-0.183552
C178	C	0.896407	-0.352912	-0.820758
C179	C	1.229741	-0.019578	-0.487424
C180	C	1.563074	0.313755	-0.154091
C181	C	0.896404	-0.352942	-0.755322
C182	C	1.229737	-0.019609	-0.421989
C183	C	1.563070	0.313724	-0.088655
C184	C	0.888174	-0.434258	-0.719347
C185	C	1.221508	-0.100925	-0.386014
C186	C	1.554841	0.232408	-0.052681
C187	C	0.930587	-0.376425	-0.956215
C188	C	1.263920	-0.043092	-0.622881
C189	C	1.597253	0.290242	-0.289548
C190	C	0.930583	-0.376385	-1.021653
C191	C	1.263916	-0.043051	-0.688320
C192	C	1.597250	0.290282	-0.354986
C193	C	0.845784	-0.491811	-1.016994
C194	C	1.179117	-0.158477	-0.683660
C195	C	1.512450	0.174856	-0.350327
C196	C	0.845784	-0.491843	-0.951557
C197	C	1.179118	-0.158509	-0.618224
C198	C	1.512451	0.174824	-0.284890
C199	C	0.888189	-0.434151	-0.921171
C200	C	1.221522	-0.100818	-0.587838
C201	C	1.554856	0.232515	-0.254505
C202	C	0.888079	-0.434326	-0.121672
C203	C	1.221412	-0.100993	0.211662
C204	C	1.554746	0.232341	0.544995
C205	C	0.888188	-0.434080	-0.052041
C206	C	1.221521	-0.100746	0.281293
C207	C	1.554855	0.232587	0.614626
H208	H	0.131523	-0.329782	-0.361502
H209	H	0.464856	0.003552	-0.028169
H210	H	0.798189	0.336885	0.305164
Br211	Br	0.269273	-0.298551	-0.384546
Br212	Br	0.602606	0.034782	-0.051213
Br213	Br	0.935939	0.368116	0.282120
H214	H	0.903098	-0.286763	-0.731338
H215	H	1.236432	0.046571	-0.398004
H216	H	1.569765	0.379904	-0.064671
H217	H	0.241665	-0.538877	-0.207457
H218	H	0.574999	-0.205543	0.125877
H219	H	0.908332	0.127790	0.459210
Br220	Br	0.672903	-0.298667	-0.384517
Br221	Br	1.006236	0.034666	-0.051183
Br222	Br	1.339570	0.368000	0.282150
H223	H	0.811261	-0.538849	-0.923025
H224	H	1.144594	-0.205515	-0.589692
H225	H	1.477927	0.127818	-0.256359
Br226	Br	0.518669	-0.298618	-0.384520
Br227	Br	0.852003	0.034716	-0.051187
Br228	Br	1.185336	0.368049	0.282146
H229	H	0.903101	-0.286705	-0.850052
H230	H	1.236434	0.046628	-0.516719
H231	H	1.569768	0.379962	-0.183385
Br232	Br	0.868819	-0.625880	-0.699978
Br233	Br	1.202153	-0.292547	-0.366645
Br234	Br	1.535486	0.040787	-0.033312
H235	H	0.453757	-0.286942	-0.299526
H236	H	0.787091	0.046392	0.033808
H237	H	1.120424	0.379725	0.367141
H238	H	0.794874	-0.948949	-0.191078
H239	H	1.128208	-0.615616	0.142256
H240	H	1.461541	-0.282283	0.475589
Br241	Br	0.868811	-0.625801	-0.854214
Br242	Br	1.202145	-0.292467	-0.520881
Br243	Br	1.535478	0.040866	-0.187547
Br244	Br	0.988102	-0.298230	-0.665570
Br245	Br	1.321436	0.035103	-0.332236
Br246	Br	1.654769	0.368437	0.001097
H247	H	0.974641	-1.089829	-0.371096
H248	H	1.307974	-0.756495	-0.037762
H249	H	1.641308	-0.423162	0.295571
H250	H	0.829315	-1.090191	-0.225545
H251	H	1.162648	-0.756858	0.107789
H252	H	1.495982	-0.423525	0.441122
Br253	Br	0.457743	-0.626002	-0.264886
Br254	Br	0.791076	-0.292668	0.068447
Br255	Br	1.124409	0.040665	0.401780
H256	H	0.811248	-0.538981	-0.638094
H257	H	1.144581	-0.205648	-0.304760
H258	H	1.477914	0.127686	0.028573
Br259	Br	0.780935	-0.752470	-0.177140
Br260	Br	1.114268	-0.419136	0.156194
Br261	Br	1.447602	-0.085803	0.489527
Br262	Br	0.988132	-0.298129	-0.914973
Br263	Br	1.321466	0.035205	-0.581640
Br264	Br	1.654799	0.368538	-0.248307
Br265	Br	0.319082	-0.242777	-0.304040
Br266	Br	0.652415	0.090557	0.029294
Br267	Br	0.985748	0.423890	0.362627
Br268	Br	0.103917	-0.570112	-0.184416
Br269	Br	0.437250	-0.236779	0.148918
Br270	Br	0.770584	0.096554	0.482251
H271	H	0.981433	-0.918895	-0.377918
H272	H	1.314766	-0.585562	-0.044585
H273	H	1.648099	-0.252228	0.288748
H274	H	0.323068	-0.581840	-0.269416
H275	H	0.656402	-0.248507	0.063917
H276	H	0.989735	0.084826	0.397251
H277	H	0.965097	-0.329651	-0.527829
H278	H	1.298431	0.003683	-0.194496
H279	H	1.631764	0.337016	0.138838
Br280	Br	0.507549	-0.570220	-0.184385
Br281	Br	0.840882	-0.236887	0.148948
Br282	Br	1.174216	0.096447	0.482282
H283	H	0.645301	-0.538979	-0.207415
H284	H	0.978634	-0.205646	0.125918
H285	H	1.311968	0.127687	0.459251
H286	H	0.946992	-0.777656	-0.343453
H287	H	1.280325	-0.444323	-0.010119
H288	H	1.613659	-0.110990	0.323214
Br289	Br	0.988141	-0.298059	-1.069211
Br290	Br	1.321474	0.035274	-0.735878
Br291	Br	1.654808	0.368607	-0.402544
Br292	Br	0.788240	-0.570102	-1.058233
Br293	Br	1.121574	-0.236769	-0.724900
Br294	Br	1.454907	0.096565	-0.391567
Br295	Br	0.788214	-0.570375	-0.500349
Br296	Br	1.121547	-0.237042	-0.167015
Br297	Br	1.454881	0.096291	0.166318
