data_functionalizedCrystal
_audit_creation_method	'MofGen! by Chris Wilmer'
_symmetry_space_group_name_H-M	'P1'
_symmetry_Int_Tables_number	1
_symmetry_cell_setting	triclinic
loop_
_symmetry_equiv_pos_as_xyz
  x,y,z
_cell_length_a	33.510554
_cell_length_b	33.509711
_cell_length_c	33.506470
_cell_angle_alpha	60.004186
_cell_angle_beta	60.008358
_cell_angle_gamma	59.994760
loop_
_atom_site_label
_atom_site_type_symbol
_atom_site_fract_x
_atom_site_fract_y
_atom_site_fract_z
O1	O	0.055430	-0.583081	0.487524
O2	O	0.555430	-0.083081	0.987524
O3	O	0.020931	-0.453975	0.392819
O4	O	0.520931	0.046025	0.892819
O5	O	0.102693	-0.535652	0.392731
O6	O	0.602693	-0.035652	0.892731
O7	O	-0.026332	-0.501404	0.487613
O8	O	0.473668	-0.001404	0.987613
O9	O	0.129823	-0.508526	0.419767
O10	O	0.629823	-0.008526	0.919767
O11	O	0.048062	-0.426850	0.419856
O12	O	0.548062	0.073150	0.919856
O13	O	0.082561	-0.555956	0.514561
O14	O	0.582561	-0.055956	1.014561
Cu15	Cu	0.067789	-0.488926	0.469677
Cu16	Cu	0.567789	0.011074	0.969677
Cu17	Cu	0.035703	-0.521005	0.437703
Cu18	Cu	0.535703	-0.021005	0.937703
O19	O	0.000799	-0.474279	0.514649
O20	O	0.500799	0.025721	1.014649
N21	N	0.090357	-0.466366	0.492168
N22	N	0.590357	0.033634	0.992168
N23	N	0.013139	-0.543569	0.415212
N24	N	0.513139	-0.043569	0.915212
C25	C	0.143028	-0.279707	0.544737
C26	C	0.643028	0.220293	1.044737
C27	C	0.143165	-0.413746	0.678712
C28	C	0.643165	0.086254	1.178712
C29	C	0.143043	-0.413725	0.544739
C30	C	0.643043	0.086275	1.044739
C31	C	0.277090	-0.413694	0.544637
C32	C	0.777090	0.086306	1.044637
C33	C	0.157791	-0.323929	0.559462
C34	C	0.657791	0.176071	1.059462
C35	C	0.157869	-0.398994	0.634489
C36	C	0.657869	0.101006	1.134489
C37	C	0.232865	-0.398963	0.559407
C38	C	0.732865	0.101037	1.059407
C39	C	0.157801	-0.398982	0.559463
C40	C	0.657801	0.101018	1.059463
C41	C	0.124237	-0.223419	0.525994
C42	C	0.624237	0.276581	1.025994
C43	C	0.124262	-0.432490	0.525997
C44	C	0.624262	0.067510	1.025997
C45	C	0.176583	-0.380217	0.578205
C46	C	0.676583	0.119783	1.078205
C47	C	0.358938	-0.399566	0.501510
C48	C	0.858938	0.100434	1.001510
C49	C	0.410104	-0.416609	0.484423
C50	C	0.910104	0.083391	0.984423
C51	C	0.410135	-0.499402	0.515995
C52	C	0.910135	0.000598	1.015995
C53	C	0.358969	-0.482358	0.533084
C54	C	0.858969	0.017642	1.033084
C55	C	0.136554	-0.197822	0.475693
C56	C	0.636554	0.302178	0.975693
C57	C	0.119469	-0.146653	0.458657
C58	C	0.619469	0.353347	0.958657
C59	C	0.077755	-0.146680	0.542223
C60	C	0.577755	0.353320	1.042223
C61	C	0.094840	-0.197850	0.559260
C62	C	0.594840	0.302150	1.059260
C63	C	0.073954	-0.420144	0.538396
C64	C	0.573954	0.079856	1.038396
C65	C	0.056884	-0.437203	0.521352
C66	C	0.556884	0.062797	1.021352
C67	C	0.140427	-0.478952	0.479524
C68	C	0.640427	0.021048	0.979524
C69	C	0.157498	-0.461894	0.496561
C70	C	0.657498	0.038106	0.996561
C71	C	0.074158	-0.420182	0.760618
C72	C	0.574158	0.079818	1.260618
C73	C	0.057149	-0.437256	0.811786
C74	C	0.557149	0.062744	1.311786
C75	C	0.140732	-0.479014	0.811717
C76	C	0.640732	0.020986	1.311717
C77	C	0.157740	-0.461942	0.760547
C78	C	0.657740	0.038058	1.260547
C79	C	0.124452	-0.432525	0.734999
C80	C	0.624452	0.067475	1.234999
C81	C	0.333372	-0.432439	0.525839
C82	C	0.833372	0.067561	1.025839
C83	C	-0.020612	-0.577650	0.170305
C84	C	0.479388	-0.077650	0.670305
C85	C	-0.020943	-0.788098	0.380897
C86	C	0.479057	-0.288098	0.880897
C87	C	-0.020912	-0.577638	0.380991
C88	C	0.479088	-0.077638	0.880991
C89	C	-0.231336	-0.577418	0.380585
C90	C	0.268664	-0.077418	0.880585
C91	C	-0.129735	-0.611383	0.346870
C92	C	0.370265	-0.111383	0.846870
C93	C	-0.054722	-0.611464	0.347017
C94	C	0.445278	-0.111464	0.847017
C95	C	-0.073450	-0.630202	0.328195
C96	C	0.426550	-0.130202	0.828195
C97	C	-0.087616	-0.712029	0.371239
C98	C	0.412384	-0.212029	0.871239
C99	C	-0.070599	-0.763199	0.388315
C100	C	0.429401	-0.263199	0.888315
C101	C	0.012191	-0.763282	0.356872
C102	C	0.512191	-0.263282	0.856872
C103	C	-0.004828	-0.712113	0.339795
C104	C	0.495172	-0.212113	0.839795
C105	C	-0.155381	-0.623711	0.397158
C106	C	0.344619	-0.123711	0.897158
C107	C	-0.206547	-0.606601	0.414133
C108	C	0.293453	-0.106601	0.914133
C109	C	-0.206417	-0.564839	0.330529
C110	C	0.293583	-0.064839	0.830529
C111	C	-0.155251	-0.581949	0.313554
C112	C	0.344749	-0.081949	0.813554
C113	C	-0.067051	-0.561160	0.334643
C114	C	0.432949	-0.061160	0.834643
C115	C	-0.050026	-0.544131	0.351759
C116	C	0.449974	-0.044131	0.851759
C117	C	-0.008343	-0.627704	0.393612
C118	C	0.491657	-0.127704	0.893612
C119	C	-0.025368	-0.644736	0.376502
C120	C	0.474632	-0.144736	0.876502
C121	C	-0.066922	-0.561168	0.246303
C122	C	0.433078	-0.061168	0.746303
C123	C	-0.049794	-0.544141	0.195134
C124	C	0.450206	-0.044141	0.695134
C125	C	-0.008048	-0.627719	0.195183
C126	C	0.491952	-0.127719	0.695183
C127	C	-0.025175	-0.644745	0.246352
C128	C	0.474825	-0.144745	0.746352
C129	C	-0.054614	-0.611468	0.271911
C130	C	0.445386	-0.111468	0.771911
C131	C	-0.054732	-0.686488	0.346980
C132	C	0.445268	-0.186488	0.846980
C133	C	-0.002117	-0.558258	0.114025
C134	C	0.497883	-0.058258	0.614025
C135	C	-0.002879	-0.844379	0.399940
C136	C	0.497121	-0.344379	0.899940
C137	C	-0.002504	-0.558243	0.399473
C138	C	0.497496	-0.058243	0.899473
C139	C	-0.287615	-0.558285	0.398601
C140	C	0.212385	-0.058285	0.898601
N141	N	0.434975	-0.466279	0.491900
N142	N	0.934975	0.033721	0.991900
O143	O	0.591199	-0.470749	0.375150
O144	O	1.091199	0.029251	0.875150
O145	O	0.591395	-0.565767	0.504116
O146	O	1.091395	-0.065767	1.004116
O147	O	0.591311	-0.565550	0.422329
O148	O	1.091311	-0.065550	0.922329
O149	O	0.591283	-0.470966	0.456937
O150	O	1.091283	0.029034	0.956937
O151	O	0.510024	-0.538522	0.449509
O152	O	1.010024	-0.038522	0.949509
O153	O	0.510108	-0.538739	0.531297
O154	O	1.010108	-0.038739	1.031297
O155	O	0.509913	-0.443721	0.402330
O156	O	1.009913	0.056279	0.902330
Cu157	Cu	0.502588	-0.488762	0.469295
Cu158	Cu	1.002588	0.011238	0.969295
Cu159	Cu	0.598719	-0.520726	0.437151
Cu160	Cu	1.098719	-0.020726	0.937151
O161	O	0.509997	-0.443938	0.484117
O162	O	1.009997	0.056062	0.984117
N163	N	0.666332	-0.543209	0.414541
N164	N	1.166332	-0.043209	0.914541
N165	N	0.090323	-0.121809	0.492157
N166	N	0.590323	0.378191	0.992157
O167	O	-0.026342	0.034503	0.487582
O168	O	0.473658	0.534503	0.987582
O169	O	0.102626	0.034543	0.392540
O170	O	0.602626	0.534543	0.892540
O171	O	0.020797	0.034507	0.392812
O172	O	0.520797	0.534507	0.892812
O173	O	0.055487	0.034539	0.487310
O174	O	0.555487	0.534539	0.987310
O175	O	0.047933	-0.046785	0.419900
O176	O	0.547933	0.453215	0.919900
O177	O	0.129763	-0.046749	0.419628
O178	O	0.629763	0.453251	0.919628
O179	O	0.000794	-0.046789	0.514670
O180	O	0.500794	0.453211	1.014670
Cu181	Cu	0.067756	-0.054192	0.469623
Cu182	Cu	0.567756	0.445808	0.969623
Cu183	Cu	0.035664	0.041946	0.437588
Cu184	Cu	0.535664	0.541946	0.937588
O185	O	0.082623	-0.046753	0.514399
O186	O	0.582623	0.453247	1.014399
N187	N	0.013091	0.109564	0.415054
N188	N	0.513091	0.609564	0.915054
N189	N	0.090671	-0.466416	0.836606
N190	N	0.590671	0.033584	1.336606
O191	O	0.086120	-0.583065	0.992910
O192	O	0.586120	-0.083065	1.492910
O193	O	-0.008880	-0.454051	0.992954
O194	O	0.491120	0.045949	1.492954
O195	O	-0.008658	-0.535864	0.992931
O196	O	0.491342	-0.035864	1.492931
O197	O	0.085897	-0.501252	0.992933
O198	O	0.585897	-0.001252	1.492933
O199	O	0.018407	-0.508749	0.911642
O200	O	0.518407	-0.008749	1.411642
O201	O	0.018185	-0.426936	0.911665
O202	O	0.518185	0.073064	1.411665
O203	O	0.113185	-0.555949	0.911621
O204	O	0.613185	-0.055949	1.411621
Cu205	Cu	0.068156	-0.488967	0.904221
Cu206	Cu	0.568156	0.011033	1.404221
Cu207	Cu	0.036148	-0.521034	1.000355
Cu208	Cu	0.536148	-0.021034	1.500355
O209	O	0.112963	-0.474136	0.911644
O210	O	0.612963	0.025864	1.411644
N211	N	0.013633	-0.543590	1.067970
N212	N	0.513633	-0.043590	1.567970
C213	C	0.031262	-0.424144	0.393290
C214	C	0.531262	0.075856	0.893290
C215	C	0.132513	-0.525291	0.393180
C216	C	0.632513	-0.025291	0.893180
C217	C	0.072229	-0.585787	0.514090
C218	C	0.572229	-0.085787	1.014090
C219	C	-0.029022	-0.484640	0.514200
C220	C	0.470978	0.015360	1.014200
C221	C	0.550775	-0.565338	0.533954
C222	C	1.050775	-0.065338	1.033954
C223	C	0.550672	-0.565070	0.432670
C224	C	1.050672	-0.065070	0.932670
C225	C	0.550530	-0.444149	0.372492
C226	C	1.050530	0.055851	0.872492
C227	C	0.550635	-0.444418	0.473776
C228	C	1.050635	0.055582	0.973776
C229	C	0.132408	-0.005998	0.392963
C230	C	0.632408	0.494002	0.892963
C231	C	0.031106	-0.006142	0.393333
C232	C	0.531106	0.493858	0.893333
C233	C	-0.029021	-0.006147	0.514213
C234	C	0.470979	0.493853	1.014213
C235	C	0.072314	-0.006104	0.513878
C236	C	0.572314	0.493896	1.013878
C237	C	-0.008430	-0.424240	0.952316
C238	C	0.491570	0.075760	1.452316
C239	C	-0.008150	-0.525550	0.952271
C240	C	0.491850	-0.025550	1.452271
C241	C	0.112735	-0.585760	0.952260
C242	C	0.612735	-0.085760	1.452260
C243	C	0.112461	-0.484444	0.952286
C244	C	0.612461	0.015556	1.452286
H245	H	0.016194	-0.427197	0.832639
H246	H	0.516194	0.072803	1.332639
H247	H	0.169570	-0.532590	0.363385
H248	H	0.669570	-0.032590	0.863385
O249	O	-0.063235	-0.489883	0.338379
O250	O	0.436765	0.010117	0.838379
H251	H	-0.049369	-0.473193	0.298036
H252	H	0.450631	0.026807	0.798036
O253	O	0.151810	-0.474636	0.952283
O254	O	0.651810	0.025364	1.452283
H255	H	0.185034	-0.507661	0.952274
H256	H	0.685034	-0.007661	1.452274
O257	O	0.021268	-0.006152	0.354003
O258	O	0.521268	0.493848	0.854003
H259	H	0.025506	0.026988	0.321542
H260	H	0.525506	0.526988	0.821542
H261	H	-0.015148	-0.685706	0.267200
H262	H	0.484852	-0.185706	0.767200
O263	O	0.550620	-0.405056	0.483579
O264	O	1.050620	0.094944	0.983579
H265	H	0.550665	-0.419041	0.521386
H266	H	1.050665	0.080959	1.021386
H267	H	0.169370	-0.005761	0.363053
H268	H	0.669370	0.494239	0.863053
O269	O	0.023317	-0.663595	0.425411
O270	O	0.523317	-0.163595	0.925411
H271	H	0.059153	-0.657870	0.407188
H272	H	0.559153	-0.157870	0.907188
O273	O	-0.047940	-0.375162	0.952339
O274	O	0.452060	0.124838	1.452339
H275	H	-0.080365	-0.380209	0.985476
H276	H	0.419635	0.119791	1.485476
O277	O	-0.078083	-0.006151	0.553736
O278	O	0.421917	0.493849	1.053736
H279	H	-0.102073	-0.006157	0.539936
H280	H	0.397927	0.493843	1.039936
H281	H	0.023891	-0.387055	0.363546
H282	H	0.523891	0.112945	0.863546
O283	O	0.081988	-0.634911	0.553496
O284	O	0.581988	-0.134911	1.053496
H285	H	0.119796	-0.658799	0.539558
H286	H	0.619796	-0.158799	1.039558
O287	O	-0.098715	-0.525276	0.302847
O288	O	0.401285	-0.025276	0.802847
H289	H	-0.104433	-0.487436	0.297126
H290	H	0.395567	0.012564	0.797126
H291	H	0.550826	-0.595166	0.570996
H292	H	1.050826	-0.095166	1.070996
O293	O	-0.047483	-0.535335	0.952217
O294	O	0.452517	-0.035335	1.452217
H295	H	-0.033492	-0.573148	0.952188
H296	H	0.466508	-0.073148	1.452188
H297	H	0.047048	-0.396226	0.739820
H298	H	0.547048	0.103774	1.239820
O299	O	0.082152	-0.006102	0.553211
O300	O	0.582152	0.493898	1.053211
H301	H	0.119970	-0.006094	0.539210
H302	H	0.619970	0.493906	1.039210
H303	H	0.550685	-0.594783	0.425263
H304	H	1.050685	-0.094783	0.925263
H305	H	0.550467	-0.414317	0.335455
H306	H	1.050467	0.085683	0.835455
H307	H	0.142562	-0.622811	0.952240
H308	H	0.642562	-0.122811	1.452240
H309	H	-0.066081	-0.477343	0.543993
H310	H	0.433919	0.022657	1.043993
H311	H	0.167840	-0.502959	0.832516
H312	H	0.667840	-0.002959	1.332516
H313	H	0.046887	-0.396202	0.562361
H314	H	0.546887	0.103798	1.062361
O315	O	0.211989	-0.475250	0.732915
O316	O	0.711989	0.024750	1.232915
H317	H	0.232276	-0.498566	0.759279
H318	H	0.732276	0.001434	1.259279
H319	H	0.015920	-0.427139	0.531437
H320	H	0.515920	0.072861	1.031437
H321	H	0.198463	-0.471942	0.486461
H322	H	0.698463	0.028058	0.986461
O323	O	0.176260	-0.510657	0.447761
O324	O	0.676260	-0.010657	0.947761
H325	H	0.199606	-0.544461	0.468027
H326	H	0.699606	-0.044461	0.968027
O327	O	0.331395	-0.517815	0.559317
O328	O	0.831395	-0.017815	1.059317
H329	H	0.357794	-0.555387	0.561474
H330	H	0.857794	-0.055387	1.061474
H331	H	0.430973	-0.540048	0.521891
H332	H	0.930973	-0.040048	1.021891
H333	H	0.338097	-0.358917	0.495611
H334	H	0.838097	0.141083	0.995611
O335	O	0.437684	-0.381154	0.458182
O336	O	0.937684	0.118846	0.958182
H337	H	0.427835	-0.353794	0.424975
H338	H	0.927835	0.146206	0.924975
O339	O	0.168258	-0.225402	0.439815
O340	O	0.668258	0.274598	0.939815
H341	H	0.173945	-0.199005	0.401974
H342	H	0.673945	0.300995	0.901974
H343	H	0.053825	-0.125861	0.569312
H344	H	0.553825	0.374139	1.069312
O345	O	0.132755	-0.119041	0.404402
O346	O	0.632755	0.380959	0.904402
H347	H	0.118982	-0.128866	0.387654
H348	H	0.618982	0.371134	0.887654
O349	O	0.081489	-0.225458	0.613513
O350	O	0.581489	0.274542	1.113513
H351	H	0.058154	-0.199080	0.633780
H352	H	0.558154	0.300920	1.133780
H353	H	-0.059824	-0.503179	0.174290
H354	H	0.440176	-0.003179	0.674290
H355	H	0.015913	-0.654818	0.174378
H356	H	0.515913	-0.154818	0.674378
O357	O	-0.012070	-0.698991	0.389839
O358	O	0.487930	-0.198991	0.889839
H359	H	0.011206	-0.719268	0.413212
H360	H	0.511206	-0.219268	0.913212
H361	H	0.021953	-0.691318	0.320042
H362	H	0.521953	-0.191318	0.820042
O363	O	0.066017	-0.790926	0.349126
O364	O	0.566017	-0.290926	0.849126
H365	H	0.086027	-0.764569	0.329384
H366	H	0.586027	-0.264569	0.829384
H367	H	-0.097376	-0.783993	0.408060
H368	H	0.402624	-0.283993	0.908060
O369	O	-0.141442	-0.684391	0.378989
O370	O	0.358558	-0.184391	0.878989
H371	H	-0.161447	-0.710751	0.398726
H372	H	0.338553	-0.210751	0.898726
H373	H	-0.090896	-0.534066	0.267110
H374	H	0.409104	-0.034066	0.767110
H375	H	-0.227429	-0.616637	0.455084
H376	H	0.272571	-0.116637	0.955084
O377	O	-0.127848	-0.655461	0.433080
O378	O	0.372152	-0.155461	0.933080
H379	H	-0.137681	-0.635149	0.456393
H380	H	0.362319	-0.135149	0.956393
O381	O	-0.233945	-0.533093	0.294600
O382	O	0.266055	-0.033093	0.794600
H383	H	-0.224102	-0.553408	0.271286
H384	H	0.275898	-0.053408	0.771286
O385	O	-0.127584	-0.568655	0.259312
O386	O	0.372416	-0.068655	0.759312
H387	H	-0.153923	-0.545315	0.238997
H388	H	0.346077	-0.045315	0.738997
