data_functionalizedCrystal
_audit_creation_method	'MofGen! by Chris Wilmer'
_symmetry_space_group_name_H-M	'P1'
_symmetry_Int_Tables_number	1
_symmetry_cell_setting	triclinic
loop_
_symmetry_equiv_pos_as_xyz
  x,y,z
_cell_length_a	14.908571
_cell_length_b	18.050589
_cell_length_c	14.908308
_cell_angle_alpha	86.730698
_cell_angle_beta	89.824947
_cell_angle_gamma	86.724558
loop_
_atom_site_label
_atom_site_type_symbol
_atom_site_fract_x
_atom_site_fract_y
_atom_site_fract_z
Zn1	Zn	1.345230	-0.387558	0.587600
Zn2	Zn	1.353791	-0.505024	0.437245
Zn3	Zn	1.203548	-0.373294	0.428597
Zn4	Zn	1.194819	-0.504142	0.578897
O5	O	1.274347	-0.442504	0.508085
O6	O	1.472191	-0.409479	0.574916
O7	O	1.341097	-0.481949	0.310273
O8	O	1.222413	-0.271266	0.449712
O9	O	1.478480	-0.495781	0.464452
O10	O	1.326506	-0.281746	0.566530
O11	O	1.230714	-0.385168	0.303919
O12	O	1.076565	-0.384312	0.441273
O13	O	1.207536	-0.494277	0.705876
O14	O	1.070152	-0.480446	0.551698
O15	O	1.318042	-0.408624	0.712270
O16	O	1.332633	-0.608827	0.456013
O17	O	1.215836	-0.608179	0.560084
C18	C	1.040734	-0.430736	0.494603
C19	C	0.940791	-0.425720	0.488857
C20	C	1.274239	-0.635451	0.508063
C21	C	1.274274	-0.717999	0.508089
C22	C	0.746369	-0.516539	0.592890
C23	C	0.652464	-0.511829	0.587494
C24	C	0.659075	-0.411586	0.472674
C25	C	0.752980	-0.416296	0.478070
C26	C	0.796623	-0.468775	0.538179
C27	C	0.890530	-0.473489	0.543570
C28	C	0.897139	-0.373243	0.428755
C29	C	0.803235	-0.368533	0.423359
C30	C	1.210820	-0.917126	0.564665
C31	C	1.193639	-0.961795	0.481356
C32	C	1.274362	-0.869134	0.508106
C33	C	1.291586	-0.971550	0.591427
C34	C	1.274444	-1.015125	0.508129
C35	C	1.257140	-0.912712	0.424750
C36	C	1.355122	-0.922467	0.534880
C37	C	1.337975	-0.967112	0.451515
C38	C	1.274312	-0.785033	0.508094
C39	C	1.274495	-1.099224	0.508132
C40	C	1.508873	-0.454320	0.521619
C41	C	1.608814	-0.459355	0.527387
C42	C	1.260860	-0.452943	0.742610
C43	C	1.255113	-0.457391	0.842551
C44	C	1.274479	-0.248807	0.508127
C45	C	1.274535	-0.166265	0.508145
C46	C	1.287833	-0.432055	0.274474
C47	C	1.293755	-0.427407	0.174544
C48	C	1.359381	-0.376542	1.037010
C49	C	1.353984	-0.380719	1.130914
C50	C	1.238917	-0.469919	1.124263
C51	C	1.244314	-0.465741	1.030360
C52	C	1.304549	-0.419052	0.986737
C53	C	1.309951	-0.414880	0.892832
C54	C	1.194880	-0.504075	0.886183
C55	C	1.189483	-0.508252	0.980086
H56	H	0.781904	-0.559273	0.641828
C57	C	1.424665	-0.325731	0.989681
C58	C	1.403813	-0.252281	1.011386
C59	C	1.463927	-0.205452	0.967795
H60	H	1.484222	-0.340230	1.008515
H61	H	1.420018	-0.329281	0.926547
H62	H	1.408469	-0.248733	1.074507
H63	H	1.344267	-0.237759	0.992550
H64	H	1.459280	-0.209003	0.904660
H65	H	1.523480	-0.219958	0.986632
H66	H	1.449782	-0.155611	0.982508
H67	H	1.189877	-0.507930	1.159798
C68	C	1.124236	-0.559042	1.027510
C69	C	1.172024	-0.611610	1.084333
C70	C	1.111951	-0.658419	1.128024
H71	H	1.082947	-0.530382	1.061958
H72	H	1.092368	-0.583809	0.984147
H73	H	1.203877	-0.586845	1.127690
H74	H	1.213310	-0.640288	1.049908
H75	H	1.080083	-0.683186	1.084661
H76	H	1.070665	-0.629752	1.162467
H77	H	1.144367	-0.694095	1.166577
H78	H	0.623524	-0.368856	0.423742
H79	H	0.767687	-0.325804	0.374423
C80	C	1.446069	-0.899229	0.565279
C81	C	1.463709	-0.929124	0.652587
C82	C	1.547475	-0.907724	0.680635
H83	H	1.491439	-0.917112	0.525806
H84	H	1.445550	-0.846543	0.564567
H85	H	1.464236	-0.981799	0.653292
H86	H	1.418362	-0.911244	0.692080
H87	H	1.546955	-0.855038	0.679924
H88	H	1.592837	-0.925609	0.641157
H89	H	1.559451	-0.927999	0.739879
C90	C	1.135387	-0.550147	0.831438
C91	C	1.152990	-0.536487	0.739863
C92	C	1.098200	-0.578909	0.689406
H93	H	1.147582	-0.601412	0.847470
H94	H	1.074078	-0.536913	0.843289
H95	H	1.214286	-0.549726	0.728018
H96	H	1.140791	-0.485230	0.723804
H97	H	1.036891	-0.565675	0.701256
H98	H	1.110399	-0.630172	0.705445
H99	H	1.110130	-0.569641	0.627267
C100	C	1.409801	-0.996098	0.387755
C101	C	1.493987	-0.975178	0.415211
C102	C	1.560167	-1.001860	0.356489
H103	H	1.409887	-1.048754	0.388433
H104	H	1.397507	-0.975718	0.328613
H105	H	1.506278	-0.995561	0.474338
H106	H	1.493931	-0.922525	0.414528
H107	H	1.547873	-0.981480	0.297347
H108	H	1.560245	-1.054516	0.357171
H109	H	1.617294	-0.987665	0.375105
H110	H	1.398631	-0.346101	1.171843
H111	H	1.358998	-0.376864	0.857315
H112	H	0.926063	-0.516221	0.592512
C113	C	1.102626	-0.984949	0.451018
C114	C	1.084204	-0.953900	0.364366
C115	C	1.000365	-0.975203	0.336401
H116	H	1.103392	-1.037586	0.450635
H117	H	1.057477	-0.967810	0.491205
H118	H	1.129341	-0.971043	0.324189
H119	H	1.083420	-0.901264	0.364725
H120	H	0.955217	-0.958064	0.376589
H121	H	1.001139	-1.027840	0.336024
H122	H	0.987852	-0.954134	0.277609
C123	C	0.951859	-0.321423	0.369455
C124	C	1.043439	-0.336768	0.387056
C125	C	1.093873	-0.289044	0.332453
H126	H	0.940032	-0.328713	0.308106
H127	H	0.935785	-0.271346	0.381840
H128	H	1.059507	-0.386833	0.374664
H129	H	1.055293	-0.329473	0.448395
H130	H	1.077799	-0.238967	0.344838
H131	H	1.082039	-0.296338	0.271107
H132	H	1.156014	-0.299444	0.344393
H133	H	0.611550	-0.550721	0.632047
H134	H	1.157015	-0.895182	0.612419
H135	H	1.306123	-0.997236	0.661882
C136	C	1.237614	-0.878439	0.330846
C137	C	1.237738	-0.800935	0.331942
C138	C	1.219739	-0.769336	0.245460
H139	H	1.282482	-0.895858	0.290549
H140	H	1.180439	-0.892150	0.311740
H141	H	1.294906	-0.787230	0.351036
H142	H	1.192870	-0.783495	0.372221
H143	H	1.162564	-0.783047	0.226354
H144	H	1.264610	-0.786761	0.205169
H145	H	1.219813	-0.716747	0.246193
