data_functionalizedCrystal
_audit_creation_method	'MofGen! by Chris Wilmer'
_symmetry_space_group_name_H-M	'P1'
_symmetry_Int_Tables_number	1
_symmetry_cell_setting	triclinic
loop_
_symmetry_equiv_pos_as_xyz
  x,y,z
_cell_length_a	10.489716
_cell_length_b	19.188930
_cell_length_c	9.565339
_cell_angle_alpha	89.995116
_cell_angle_beta	89.996780
_cell_angle_gamma	83.836959
loop_
_atom_site_label
_atom_site_type_symbol
_atom_site_fract_x
_atom_site_fract_y
_atom_site_fract_z
O1	O	1.691870	0.098416	-0.116266
O2	O	1.320464	0.107680	-0.116273
O3	O	1.516885	0.001464	-0.116242
O4	O	1.495449	0.204632	-0.116297
O5	O	1.516869	0.001470	0.116278
O6	O	1.320448	0.107686	0.116247
O7	O	1.691855	0.098423	0.116254
Zn8	Zn	1.506149	0.103056	0.153168
Zn9	Zn	1.506169	0.103047	-0.153187
O10	O	1.495433	0.204639	0.116223
C11	C	1.272939	0.106987	-0.000014
C12	C	1.131355	0.104905	-0.000015
C13	C	1.032224	0.170040	-0.000036
C14	C	0.955640	0.135624	0.114624
C15	C	0.955663	0.135602	-0.114623
C16	C	1.056636	0.070516	0.114740
C17	C	1.056663	0.070504	-0.114610
C18	C	0.980129	0.036041	0.000078
C19	C	1.516183	-0.024549	0.000022
C20	C	1.514099	-0.102067	0.000034
C21	C	1.629353	-0.146225	0.000043
C22	C	1.627395	-0.219061	0.000020
C23	C	1.510177	-0.247738	0.000017
C24	C	1.394908	-0.203571	0.000000
C25	C	1.396869	-0.130735	0.000009
N26	N	1.420573	-0.356336	0.079146
N27	N	1.418718	-0.425527	0.079141
C28	C	1.504262	-0.467186	-0.000011
N29	N	1.591750	-0.437040	-0.079142
N30	N	1.593609	-0.367843	-0.079130
C31	C	1.508038	-0.326714	0.000007
C32	C	1.617401	-0.590321	-0.000029
C33	C	1.615438	-0.663159	-0.000060
C34	C	1.382948	-0.647667	-0.000066
C35	C	1.384914	-0.574831	-0.000049
C36	C	1.502144	-0.546163	-0.000024
C37	C	1.739379	0.099115	-0.000009
C38	C	1.880964	0.101198	-0.000017
C39	C	1.496135	0.230651	-0.000044
C40	C	1.498219	0.308170	-0.000066
N41	N	1.506144	0.103061	0.362247
N42	N	1.506184	0.103036	-0.362267
C43	C	1.415279	0.152166	0.453436
C44	C	1.530461	0.166287	0.546613
C45	C	1.391012	0.088945	0.546626
C46	C	1.621385	0.117214	0.453372
C47	C	1.481860	0.039844	0.453377
C48	C	1.597125	0.053939	0.546512
H49	H	0.911570	0.163109	-0.211544
H50	H	1.287507	-0.671014	-0.000075
H51	H	0.911537	0.163123	0.211544
H52	H	1.100780	0.043026	-0.211535
Cl53	Cl	1.240663	0.070527	0.609872
H54	H	1.724810	-0.122888	0.000058
Cl55	Cl	1.251967	-0.075220	-0.000002
H56	H	1.721252	-0.255021	0.000022
H57	H	1.291062	-0.538877	-0.000048
H58	H	1.461256	-0.013589	0.412392
Cl59	Cl	1.760343	-0.718673	-0.000058
H60	H	1.055627	0.226697	0.000056
Cl61	Cl	1.296749	0.216336	0.390329
H62	H	1.100560	0.043039	0.211771
Cl63	Cl	1.562219	0.248809	0.609844
H64	H	1.718788	0.129206	0.412582
Cl65	Cl	1.764772	-0.554278	0.000011
Cl66	Cl	1.247549	-0.239620	-0.000015
Cl67	Cl	1.715914	-0.010193	0.609224
H68	H	0.956967	-0.020659	0.000160
