data_functionalizedCrystal
_audit_creation_method	'MofGen! by Chris Wilmer'
_symmetry_space_group_name_H-M	'P1'
_symmetry_Int_Tables_number	1
_symmetry_cell_setting	triclinic
loop_
_symmetry_equiv_pos_as_xyz
  x,y,z
_cell_length_a	17.699097
_cell_length_b	23.532407
_cell_length_c	16.776229
_cell_angle_alpha	89.988688
_cell_angle_beta	89.989262
_cell_angle_gamma	83.068554
loop_
_atom_site_label
_atom_site_type_symbol
_atom_site_fract_x
_atom_site_fract_y
_atom_site_fract_z
O1	O	1.003707	0.072056	-0.066363
O2	O	1.503707	0.572056	0.433637
O3	O	0.783282	0.081418	-0.066351
O4	O	1.283282	0.581418	0.433649
O5	O	0.900141	-0.006176	-0.066342
O6	O	1.400141	0.493824	0.433658
O7	O	0.886847	0.159649	-0.066371
O8	O	1.386847	0.659649	0.433629
O9	O	0.900126	-0.006181	0.066234
O10	O	1.400126	0.493819	0.566234
O11	O	0.783267	0.081412	0.066226
O12	O	1.283267	0.581412	0.566226
O13	O	1.003691	0.072050	0.066214
O14	O	1.503691	0.572050	0.566214
Zn15	Zn	0.893476	0.076731	0.087269
Zn16	Zn	1.393476	0.576731	0.587269
Zn17	Zn	0.893497	0.076738	-0.087406
Zn18	Zn	1.393497	0.576738	0.412594
O19	O	0.886832	0.159644	0.066206
O20	O	1.386832	0.659644	0.566206
C21	C	0.755079	0.081078	-0.000061
C22	C	1.255079	0.581078	0.499939
C23	C	0.671067	0.080068	-0.000056
C24	C	1.171067	0.580068	0.499944
C25	C	0.899795	-0.027395	-0.000052
C26	C	1.399795	0.472605	0.499948
C27	C	0.898777	-0.090615	-0.000046
C28	C	1.398777	0.409385	0.499954
C29	C	0.155388	0.073879	-0.072354
C30	C	0.655388	0.573879	0.427646
C31	C	0.234328	0.074824	-0.072350
C32	C	0.734328	0.574824	0.427650
C33	C	0.273783	0.075295	-0.000080
C34	C	0.773783	0.575295	0.499920
C35	C	0.234296	0.074814	0.072192
C36	C	0.734296	0.574814	0.572192
C37	C	0.155359	0.073865	0.072187
C38	C	0.655359	0.573865	0.572187
C39	C	0.552640	0.078642	0.072212
C40	C	1.052640	0.578642	0.572212
C41	C	0.631583	0.079594	0.072211
C42	C	1.131583	0.579594	0.572211
C43	C	0.631609	0.079602	-0.072325
C44	C	1.131609	0.579602	0.427675
C45	C	0.552672	0.078652	-0.072330
C46	C	1.052672	0.578652	0.427670
C47	C	0.513193	0.078169	-0.000059
C48	C	1.013193	0.578169	0.499941
C49	C	0.427598	0.077143	-0.000064
C50	C	0.927598	0.577143	0.499936
C51	C	0.359375	0.076325	-0.000074
C52	C	0.859375	0.576325	0.499926
C53	C	0.961548	-0.489536	-0.000093
C54	C	1.461548	0.010464	0.499907
C55	C	0.960603	-0.548939	-0.000099
C56	C	1.460603	-0.048939	0.499901
O57	O	1.018792	-0.585514	-0.000132
O58	O	1.518792	-0.085514	0.499868
N59	N	0.891130	-0.571767	-0.000095
N60	N	1.391130	-0.071767	0.499905
C61	C	0.822598	-0.535189	-0.000092
C62	C	1.322598	-0.035189	0.499908
O63	O	0.763419	-0.560060	-0.000090
O64	O	1.263419	-0.060060	0.499910
C65	C	0.823545	-0.475787	-0.000092
C66	C	1.323545	0.024213	0.499908
C67	C	0.893022	-0.452962	-0.000088
C68	C	1.393022	0.047038	0.499912
C69	C	1.031020	-0.466710	-0.000090
C70	C	1.531020	0.033290	0.499910
C71	C	1.031965	-0.407311	-0.000083
C72	C	1.531965	0.092689	0.499917
C73	C	0.963439	-0.370738	-0.000078
C74	C	1.463439	0.129262	0.499922
C75	C	0.893967	-0.393563	-0.000081
C76	C	1.393967	0.106437	0.499919
C77	C	0.755014	-0.439210	-0.000096
C78	C	1.255014	0.060790	0.499904
C79	C	0.755966	-0.379804	-0.000096
C80	C	1.255966	0.120196	0.499904
C81	C	0.825443	-0.356980	-0.000092
C82	C	1.325443	0.143020	0.499908
C83	C	0.826386	-0.297591	-0.000069
C84	C	1.326386	0.202409	0.499931
N85	N	0.895858	-0.274763	-0.000073
N86	N	1.395858	0.225237	0.499927
C87	C	0.964385	-0.311336	-0.000078
C88	C	1.464385	0.188664	0.499922
C89	C	0.820616	-0.659937	-0.000094
C90	C	1.320616	-0.159937	0.499906
C91	C	0.819669	-0.719338	-0.000089
C92	C	1.319669	-0.219338	0.499911
C93	C	0.957674	-0.733084	-0.000097
C94	C	1.457674	-0.233084	0.499903
C95	C	0.958620	-0.673682	-0.000097
C96	C	1.458620	-0.173682	0.499903
C97	C	0.890089	-0.637109	-0.000099
C98	C	1.390089	-0.137109	0.499901
C99	C	0.966365	-0.186594	-0.000061
C100	C	1.466365	0.313406	0.499939
C101	C	0.967304	-0.127189	-0.000050
C102	C	1.467304	0.372811	0.499950
C103	C	0.829299	-0.113448	-0.000047
C104	C	1.329299	0.386552	0.499953
C105	C	0.828360	-0.172848	-0.000053
C106	C	1.328360	0.327152	0.499947
C107	C	0.896899	-0.209420	-0.000063
C108	C	1.396899	0.290580	0.499937
O109	O	0.768227	-0.260981	-0.000039
O110	O	1.268227	0.239019	0.499961
O111	O	1.023554	-0.286456	-0.000091
O112	O	1.523554	0.213544	0.499909
C113	C	1.031894	0.072390	-0.000078
C114	C	1.531894	0.572390	0.499922
C115	C	1.115906	0.073400	-0.000088
C116	C	1.615906	0.573400	0.499912
C117	C	0.887178	0.180864	-0.000086
C118	C	1.387178	0.680864	0.499914
C119	C	0.888196	0.244084	-0.000098
C120	C	1.388196	0.744084	0.499902
N121	N	0.893468	0.076725	0.206481
N122	N	1.393468	0.576725	0.706481
N123	N	0.893511	0.076738	-0.206617
N124	N	1.393511	0.576738	0.293383
C125	C	0.945229	0.037955	0.248201
C126	C	1.445229	0.537955	0.748201
C127	C	0.945233	0.037954	0.331653
C128	C	1.445233	0.537954	0.831653
C129	C	0.893480	0.076728	0.373383
C130	C	1.393480	0.576728	0.873383
C131	C	0.841713	0.115500	0.331657
C132	C	1.341713	0.615500	0.831657
C133	C	0.841706	0.115497	0.248206
C134	C	1.341706	0.615497	0.748206
C135	C	0.841741	0.115511	0.668204
C136	C	1.341741	0.615511	1.168204
C137	C	0.841753	0.115512	0.751660
C138	C	1.341753	0.615512	1.251660
C139	C	0.945268	0.037968	0.751651
C140	C	1.445268	0.537968	1.251651
C141	C	0.945260	0.037966	0.668201
C142	C	1.445260	0.537966	1.168201
C143	C	0.893492	0.076736	0.626481
C144	C	1.393492	0.576736	1.126481
C145	C	0.893487	0.076735	0.535993
C146	C	1.393487	0.576735	1.035993
C147	C	0.893487	0.076731	0.463870
C148	C	1.393487	0.576731	0.963870
H149	H	0.266471	0.075210	-0.131197
H150	H	0.766471	0.575210	0.368803
C151	C	0.785584	0.157550	0.622772
C152	C	1.285584	0.657550	1.122772
C153	C	0.796637	0.149244	0.540757
C154	C	1.296637	0.649244	1.040757
C155	C	0.744915	0.187960	0.498876
C156	C	1.244915	0.687960	0.998876
H157	H	0.793476	0.195574	0.636342
H158	H	1.293476	0.695574	1.136342
H159	H	0.735103	0.151412	0.636418
H160	H	1.235103	0.651412	1.136418
H161	H	0.847106	0.155386	0.527116
H162	H	1.347106	0.655386	1.027116
H163	H	0.788739	0.111228	0.527163
H164	H	1.288739	0.611228	1.027163
H165	H	0.694434	0.181822	0.512523
H166	H	1.194434	0.681822	1.012523
H167	H	0.752811	0.225982	0.512453
H168	H	1.252811	0.725982	1.012453
H169	H	0.752403	0.182327	0.443225
H170	H	1.252403	0.682327	0.943225
C171	C	0.112696	0.073343	-0.150905
C172	C	0.612696	0.573343	0.349095
C173	C	0.164175	0.073950	-0.214191
C174	C	0.664175	0.573950	0.285809
C175	C	0.124879	0.073448	-0.286565
C176	C	0.624879	0.573448	0.213435
H177	H	0.075882	0.106162	-0.154030
H178	H	0.575882	0.606162	0.345970
H179	H	0.087942	0.039763	-0.153951
H180	H	0.587942	0.539763	0.346049
H181	H	0.188917	0.107526	-0.211147
H182	H	0.688917	0.607526	0.288853
H183	H	0.200990	0.041133	-0.211092
H184	H	0.700990	0.541133	0.288908
H185	H	0.100125	0.039868	-0.289611
H186	H	0.600125	0.539868	0.210389
H187	H	0.088066	0.106267	-0.289682
H188	H	0.588066	0.606267	0.210318
H189	H	0.159802	0.073854	-0.329513
H190	H	0.659802	0.573854	0.170487
C191	C	1.040720	-0.226361	0.000057
C192	C	1.540720	0.273639	0.500057
C193	C	1.044196	-0.260887	0.068251
C194	C	1.544196	0.239113	0.568251
C195	C	1.112675	-0.297533	0.068387
C196	C	1.612675	0.202467	0.568387
H197	H	1.082288	-0.204324	0.000102
H198	H	1.582288	0.295676	0.500102
H199	H	1.043240	-0.249846	-0.046154
H200	H	1.543240	0.250154	0.453846
H201	H	1.041684	-0.237405	0.114450
H202	H	1.541684	0.262595	0.614450
H203	H	1.002644	-0.282936	0.068221
H204	H	1.502644	0.217064	0.568221
H205	H	1.115195	-0.321017	0.022177
H206	H	1.615195	0.178983	0.522177
H207	H	1.154238	-0.275491	0.068430
H208	H	1.654238	0.224509	0.568430
H209	H	1.115040	-0.320966	0.114652
H210	H	1.615040	0.179034	0.614652
H211	H	0.763094	-0.737916	-0.000078
H212	H	1.263094	-0.237916	0.499922
H213	H	1.015195	-0.655102	-0.000094
H214	H	1.515195	-0.155102	0.499906
H215	H	0.764806	-0.630162	-0.000089
H216	H	1.264806	-0.130162	0.499911
C217	C	0.112602	0.073258	0.150708
C218	C	0.612602	0.573258	0.650708
C219	C	0.140692	0.024517	0.194324
C220	C	0.640692	0.524517	0.694324
C221	C	0.101331	0.023940	0.266667
C222	C	0.601331	0.523940	0.766667
H223	H	0.059934	0.072594	0.140468
H224	H	0.559934	0.572594	0.640468
H225	H	0.119529	0.106593	0.180442
H226	H	0.619529	0.606593	0.680442
H227	H	0.133758	-0.008809	0.164596
H228	H	0.633758	0.491191	0.664596
H229	H	0.193355	0.025171	0.204585
H230	H	0.693355	0.525171	0.704585
H231	H	0.108258	0.057275	0.296402
H232	H	0.608258	0.557275	0.796402
H233	H	0.048665	0.023278	0.256420
H234	H	0.548665	0.523278	0.756420
H235	H	0.120389	-0.009127	0.296273
H236	H	0.620389	0.490873	0.796273
H237	H	0.520507	0.078240	0.131060
H238	H	1.020507	0.578240	0.631060
H239	H	0.987418	0.006398	0.785628
H240	H	1.487418	0.506398	1.285628
H241	H	1.088540	-0.388734	-0.000083
H242	H	1.588540	0.111266	0.499917
C243	C	0.277261	0.075356	0.150576
C244	C	0.777261	0.575356	0.650576
C245	C	0.354839	0.076307	0.135115
C246	C	0.854839	0.576307	0.635115
C247	C	0.394438	0.076817	0.207304
C248	C	0.894438	0.576817	0.707304
H249	H	0.270430	0.042012	0.180335
H250	H	0.770430	0.542012	0.680335
H251	H	0.258336	0.108411	0.180270
H252	H	0.758336	0.608411	0.680270
H253	H	0.373758	0.043256	0.105433
H254	H	0.873758	0.543256	0.605433
H255	H	0.361693	0.109649	0.105368
H256	H	0.861693	0.609649	0.605368
H257	H	0.375513	0.109871	0.236998
H258	H	0.875513	0.609871	0.736998
H259	H	0.387601	0.043472	0.237058
H260	H	0.887601	0.543472	0.737058
H261	H	0.447078	0.077467	0.196824
H262	H	0.947078	0.577467	0.696824
H263	H	0.799571	0.147068	0.365638
H264	H	1.299571	0.647068	0.865638
C265	C	1.042818	-0.102519	-0.000091
C266	C	1.542818	0.397481	0.499909
C267	C	1.102625	-0.147268	-0.000121
C268	C	1.602625	0.352732	0.499879
C269	C	1.172197	-0.124566	-0.000171
C270	C	1.672197	0.375434	0.499829
H271	H	1.046162	-0.079650	0.046131
H272	H	1.546162	0.420350	0.546131
H273	H	1.046103	-0.079641	-0.046340
H274	H	1.546103	0.420359	0.453660
H275	H	1.099343	-0.170137	0.046123
H276	H	1.599343	0.329863	0.546123
H277	H	1.099307	-0.170141	-0.046339
H278	H	1.599307	0.329859	0.453661
H279	H	1.175481	-0.101688	-0.046420
H280	H	1.675481	0.398312	0.453580
H281	H	1.175533	-0.101697	0.046052
H282	H	1.675533	0.398303	0.546052
H283	H	1.212784	-0.154924	-0.000198
H284	H	1.712784	0.345076	0.499802
C285	C	0.679603	-0.464014	0.000054
C286	C	1.179603	0.035986	0.500054
C287	C	0.674990	-0.497716	0.068266
C288	C	1.174990	0.002284	0.568266
C289	C	0.605525	-0.520568	0.068433
C290	C	1.105525	-0.020568	0.568433
H291	H	0.676300	-0.486931	-0.046128
H292	H	1.176300	0.013069	0.453872
H293	H	0.638909	-0.433735	0.000094
H294	H	1.138909	0.066265	0.500094
H295	H	0.715673	-0.527991	0.068219
H296	H	1.215673	-0.027991	0.568219
H297	H	0.678280	-0.474812	0.114459
H298	H	1.178280	0.025188	0.614459
H299	H	0.564832	-0.490288	0.068473
H300	H	1.064832	0.009712	0.568473
H301	H	0.602228	-0.543481	0.022247
H302	H	1.102228	-0.043481	0.522247
H303	H	0.602383	-0.543432	0.114717
H304	H	1.102383	-0.043432	0.614717
C305	C	1.105509	-0.506318	-0.000050
C306	C	1.605509	-0.006318	0.499950
C307	C	1.166542	-0.473602	-0.000028
C308	C	1.666542	0.026398	0.499972
C309	C	1.235177	-0.510065	0.000026
C310	C	1.735177	-0.010065	0.500026
H311	H	1.108134	-0.529786	-0.046268
H312	H	1.608134	-0.029786	0.453732
H313	H	1.108047	-0.529773	0.046203
H314	H	1.608047	-0.029773	0.546203
H315	H	1.164005	-0.450158	-0.046276
H316	H	1.664005	0.049842	0.453724
H317	H	1.163942	-0.450136	0.046186
H318	H	1.663942	0.049864	0.546186
H319	H	1.237715	-0.533519	0.046279
H320	H	1.737715	-0.033519	0.546279
H321	H	1.237794	-0.533531	-0.046192
H322	H	1.737794	-0.033531	0.453808
H323	H	1.276596	-0.487873	0.000049
H324	H	1.776596	0.012127	0.500049
H325	H	0.987376	0.006384	0.214230
H326	H	1.487376	0.506384	0.714230
C327	C	0.785423	0.157502	0.202864
C328	C	1.285423	0.657502	0.702864
C329	C	0.739308	0.127203	0.154997
C330	C	1.239308	0.627203	0.654997
C331	C	0.687441	0.165878	0.113226
C332	C	1.187441	0.665878	0.613226
H333	H	0.812375	0.181199	0.170227
H334	H	1.312375	0.681199	0.670227
H335	H	0.754559	0.180587	0.239642
H336	H	1.254559	0.680587	0.739642
H337	H	0.770169	0.104128	0.118223
H338	H	1.270169	0.604128	0.618223
H339	H	0.712340	0.103508	0.187614
H340	H	1.212340	0.603508	0.687614
H341	H	0.656577	0.188963	0.150004
H342	H	1.156577	0.688963	0.650004
H343	H	0.714399	0.189573	0.080593
H344	H	1.214399	0.689573	0.580593
H345	H	0.656141	0.145326	0.080749
H346	H	1.156141	0.645326	0.580749
H347	H	0.663764	0.079993	-0.131172
H348	H	1.163764	0.579993	0.368828
C349	C	0.509978	0.078113	-0.150879
C350	C	1.009978	0.578113	0.349121
C351	C	0.561454	0.078718	-0.214168
C352	C	1.061454	0.578718	0.285832
C353	C	0.522155	0.078211	-0.286540
C354	C	1.022155	0.578211	0.213460
H355	H	0.473162	0.110930	-0.154005
H356	H	0.973162	0.610930	0.345995
H357	H	0.485226	0.044531	-0.153920
H358	H	0.985226	0.544531	0.346080
H359	H	0.586194	0.112296	-0.211129
H360	H	1.086194	0.612296	0.288871
H361	H	0.598271	0.045903	-0.211068
H362	H	1.098271	0.545903	0.288932
H363	H	0.497403	0.044630	-0.289581
H364	H	0.997403	0.544630	0.210419
H365	H	0.485340	0.111030	-0.289658
H366	H	0.985340	0.611030	0.210342
H367	H	0.557076	0.078617	-0.329490
H368	H	1.057076	0.578617	0.170510
H369	H	1.013472	-0.762873	-0.000104
H370	H	1.513472	-0.262873	0.499896
H371	H	0.700158	-0.350029	-0.000099
H372	H	1.200158	0.149971	0.499901
C373	C	0.752851	-0.197522	-0.000096
C374	C	1.252851	0.302478	0.499904
C375	C	0.693042	-0.152775	-0.000108
C376	C	1.193042	0.347225	0.499892
C377	C	0.623471	-0.175478	-0.000169
C378	C	1.123471	0.324522	0.499831
H379	H	0.749494	-0.220413	0.046116
H380	H	1.249494	0.279587	0.546116
H381	H	0.749581	-0.220379	-0.046355
H382	H	1.249581	0.279621	0.453645
H383	H	0.696310	-0.129927	0.046146
H384	H	1.196310	0.370073	0.546146
H385	H	0.696373	-0.129880	-0.046317
H386	H	1.196373	0.370120	0.453683
H387	H	0.620202	-0.198336	-0.046428
H388	H	1.120202	0.301664	0.453572
H389	H	0.620123	-0.198369	0.046044
H390	H	1.120123	0.301631	0.546044
H391	H	0.582883	-0.145121	-0.000185
H392	H	1.082883	0.354879	0.499815
H393	H	0.663705	0.079977	0.131066
H394	H	1.163705	0.579977	0.631066
H395	H	0.773507	-0.083659	-0.000040
H396	H	1.273507	0.416341	0.499960
C397	C	1.001405	-0.004226	0.376843
C398	C	1.501405	0.495774	0.876843
C399	C	0.989582	-0.060182	0.356549
C400	C	1.489582	0.439818	0.856549
C401	C	1.041325	-0.099055	0.398151
C402	C	1.541325	0.400945	0.898151
H403	H	0.994058	0.001244	0.432533
H404	H	1.494058	0.501244	0.932533
H405	H	1.051879	0.001887	0.363127
H406	H	1.551879	0.501887	0.863127
H407	H	0.939121	-0.066293	0.370271
H408	H	1.439121	0.433707	0.870271
H409	H	0.996935	-0.065671	0.300866
H410	H	1.496935	0.434329	0.800866
H411	H	1.091798	-0.092942	0.384435
H412	H	1.591798	0.407058	0.884435
H413	H	1.033973	-0.093580	0.453839
H414	H	1.533973	0.406420	0.953839
H415	H	1.033314	-0.137025	0.384382
H416	H	1.533314	0.362975	0.884382
H417	H	0.987405	0.006395	0.634227
H418	H	1.487405	0.506395	1.134227
H419	H	0.799606	0.147087	0.785636
H420	H	1.299606	0.647087	1.285636
