data_functionalizedCrystal
_audit_creation_method	'MofGen! by Chris Wilmer'
_symmetry_space_group_name_H-M	'P1'
_symmetry_Int_Tables_number	1
_symmetry_cell_setting	triclinic
loop_
_symmetry_equiv_pos_as_xyz
  x,y,z
_cell_length_a	12.759395
_cell_length_b	19.121725
_cell_length_c	12.759387
_cell_angle_alpha	92.405471
_cell_angle_beta	89.979491
_cell_angle_gamma	87.590512
loop_
_atom_site_label
_atom_site_type_symbol
_atom_site_fract_x
_atom_site_fract_y
_atom_site_fract_z
Zn1	Zn	1.624005	-0.279526	-0.611818
Zn2	Zn	1.631348	-0.396984	-0.443624
Zn3	Zn	1.448306	-0.279564	-0.436158
Zn4	Zn	1.455745	-0.396934	-0.619260
O5	O	1.539851	-0.338252	-0.527715
O6	O	1.772000	-0.295112	-0.589517
O7	O	1.607027	-0.381445	-0.295615
O8	O	1.465426	-0.181282	-0.453220
O9	O	1.777396	-0.381408	-0.465946
O10	O	1.594511	-0.181254	-0.582277
O11	O	1.472546	-0.295177	-0.290129
O12	O	1.302271	-0.295128	-0.460436
O13	O	1.478105	-0.381323	-0.765292
O14	O	1.307737	-0.381360	-0.594961
O15	O	1.601725	-0.295063	-0.759824
O16	O	1.614241	-0.495254	-0.473161
O17	O	1.485226	-0.495218	-0.602200
C18	C	1.266883	-0.338243	-0.527696
C19	C	1.150107	-0.338257	-0.527714
C20	C	1.155847	-0.428195	-0.667586
C21	C	1.103856	-0.473169	-0.737526
C22	C	0.994135	-0.473178	-0.737539
C23	C	0.936401	-0.428205	-0.667608
C24	C	0.988392	-0.383231	-0.597668
C25	C	1.098116	-0.383229	-0.597660
C26	C	0.982653	-0.293290	-0.457803
C27	C	1.092374	-0.293284	-0.457783
C28	C	0.924919	-0.248318	-0.387872
C29	C	0.976910	-0.203346	-0.317925
C30	C	1.086638	-0.203340	-0.317914
C31	C	1.144365	-0.248310	-0.387843
C32	C	1.551366	-0.520718	-0.539321
C33	C	1.556389	-0.598778	-0.544322
C34	C	1.491601	-0.635528	-0.479435
C35	C	1.496331	-0.708873	-0.484138
C36	C	1.565844	-0.745467	-0.553734
C37	C	1.630638	-0.708712	-0.618624
C38	C	1.625913	-0.635368	-0.613915
C39	C	1.583475	-0.966915	-0.571311
C40	C	1.588193	-1.040264	-0.576018
C41	C	1.453887	-1.040420	-0.441529
C42	C	1.449163	-0.967074	-0.436831
C43	C	1.513961	-0.930326	-0.501717
C44	C	1.570677	-0.820438	-0.558545
C45	C	1.509132	-0.855356	-0.496900
C46	C	1.813885	-0.338261	-0.527734
C47	C	1.930662	-0.338265	-0.527742
C48	C	1.539926	-0.338183	-0.801744
C49	C	1.539958	-0.338154	-0.918519
C50	C	1.528319	-0.155074	-0.516086
C51	C	1.523405	-0.077014	-0.511130
C52	C	1.668693	-0.248338	-0.912846
C53	C	1.733074	-0.203419	-0.964870
C54	C	1.733098	-0.203393	-1.074590
C55	C	1.668731	-0.248290	-1.132289
C56	C	1.604350	-0.293208	-1.080265
C57	C	1.604335	-0.293231	-0.970542
C58	C	1.475611	-0.383020	-1.085938
C59	C	1.475591	-0.383050	-0.976218
C60	C	1.411245	-0.427916	-1.143637
C61	C	1.346867	-0.472840	-1.091614
C62	C	1.346847	-0.472864	-0.981887
C63	C	1.411210	-0.427969	-0.924194
C64	C	1.539834	-0.338270	-0.254749
C65	C	1.539993	-0.338101	-0.137962
H66	H	1.233706	-0.248311	-0.387838
N67	N	1.277400	-0.521316	-0.925792
H68	H	1.322125	-0.553880	-0.882342
H69	H	1.226919	-0.492733	-0.878509
H70	H	1.687241	-0.738513	-0.675287
H71	H	1.294459	-0.509387	-1.138600
H72	H	1.785516	-0.166812	-1.116947
H73	H	0.951804	-0.509797	-0.794495
H74	H	1.411204	-0.427987	-0.834854
N75	N	1.668726	-0.248246	-1.250628
H76	H	1.719268	-0.212971	-1.274829
H77	H	1.691033	-0.296437	-1.280057
N78	N	1.426459	-0.748511	-0.414147
H79	H	1.381703	-0.714200	-0.369348
H80	H	1.379779	-0.778951	-0.458823
H81	H	1.392561	-0.937281	-0.380160
H82	H	1.678671	-0.605447	-0.666752
N83	N	0.914646	-0.154849	-0.242500
H84	H	0.934393	-0.165698	-0.168096
H85	H	0.930609	-0.104702	-0.255837
H86	H	1.785478	-0.166864	-0.917879
H87	H	1.411264	-0.427890	-1.232977
N88	N	1.142708	-0.154834	-0.242471
H89	H	1.220977	-0.161651	-0.253068
H90	H	1.120370	-0.104692	-0.255769
N91	N	1.274188	-0.428195	-0.667558
H92	H	1.302873	-0.463509	-0.722466
H93	H	1.297508	-0.380011	-0.683896
H94	H	1.401132	-1.070348	-0.388702
N95	N	1.416629	-0.596056	-0.404372
H96	H	1.342378	-0.608858	-0.421441
H97	H	1.433903	-0.608868	-0.330171
N98	N	1.166123	-0.521679	-0.812941
H99	H	1.146383	-0.510840	-0.887350
H100	H	1.243500	-0.514831	-0.802229
N101	N	0.818060	-0.428212	-0.667621
H102	H	0.793885	-0.463527	-0.722538
H103	H	0.792498	-0.441043	-0.596297
N104	N	1.434162	-0.815885	-0.421842
H105	H	1.359910	-0.828682	-0.438918
H106	H	1.451425	-0.828693	-0.347637
N107	N	1.645648	-0.859907	-0.633613
H108	H	1.696314	-0.890330	-0.592908
H109	H	1.604804	-0.890297	-0.684194
N110	N	0.806578	-0.248329	-0.387874
H111	H	0.782401	-0.283647	-0.442785
H112	H	0.781027	-0.261157	-0.316546
H113	H	1.668690	-0.248361	-0.823506
N114	N	1.663185	-1.079736	-0.651071
H115	H	1.703525	-1.045327	-0.691455
H116	H	1.713774	-1.110158	-0.610280
H117	H	1.636234	-0.937000	-0.624146
