data_functionalizedCrystal
_audit_creation_method	'MofGen! by Chris Wilmer'
_symmetry_space_group_name_H-M	'P1'
_symmetry_Int_Tables_number	1
_symmetry_cell_setting	triclinic
loop_
_symmetry_equiv_pos_as_xyz
  x,y,z
_cell_length_a	17.038272
_cell_length_b	9.065215
_cell_length_c	7.540329
_cell_angle_alpha	89.997358
_cell_angle_beta	90.002667
_cell_angle_gamma	88.063127
loop_
_atom_site_label
_atom_site_type_symbol
_atom_site_fract_x
_atom_site_fract_y
_atom_site_fract_z
O1	O	1.039679	0.320648	-0.147255
O2	O	0.812011	0.315557	-0.147307
O3	O	0.930552	0.103932	-0.147272
O4	O	0.921138	0.532273	-0.147289
O5	O	0.930545	0.103928	0.147693
O6	O	0.812004	0.315553	0.147658
O7	O	1.039671	0.320645	0.147711
Cu8	Cu	0.925837	0.318098	0.174617
Cu9	Cu	0.925846	0.318103	-0.174213
O10	O	0.921131	0.532269	0.147676
C11	C	0.782846	0.310924	0.000169
C12	C	0.695953	0.297108	0.000149
C13	C	0.646754	0.423956	0.000145
C14	C	0.565110	0.410965	0.000170
C15	C	0.532666	0.271126	0.000186
C16	C	0.581872	0.144268	0.000196
C17	C	0.663514	0.157260	0.000183
C18	C	0.286577	0.225228	0.000236
C19	C	0.204928	0.212245	0.000243
C20	C	0.188172	0.478944	0.000221
C21	C	0.269817	0.491924	0.000198
C22	C	0.319015	0.365066	0.000216
C23	C	0.449213	0.257844	0.000206
C24	C	0.402467	0.378349	0.000209
C25	C	0.929644	0.048853	0.000208
C26	C	0.926940	-0.115262	0.000202
C27	C	1.068837	0.325277	0.000231
C28	C	1.155729	0.339093	0.000239
C29	C	0.922038	0.587348	0.000191
C30	C	0.924742	0.751463	0.000186
N31	N	0.925837	0.318095	0.419966
N32	N	0.925852	0.318095	-0.419562
H33	H	0.296226	0.605796	0.000164
N34	N	0.435604	0.521188	0.000230
N35	N	0.479296	0.558186	0.124562
H36	H	0.502705	0.659067	0.124575
N37	N	0.713784	0.027703	0.000162
N38	N	0.786677	0.039320	0.000150
H39	H	0.822181	-0.052183	0.000140
H40	H	0.326625	0.121930	0.000252
H41	H	0.673163	0.537828	0.000131
H42	H	0.525055	0.514259	0.000165
N43	N	0.548721	0.001435	0.000230
N44	N	0.475826	-0.010149	0.000240
H45	H	0.452413	-0.111028	0.000261
H46	H	0.178516	0.098365	0.000254
N47	N	0.416082	0.114994	0.000226
N48	N	0.430816	0.027152	0.124559
H49	H	0.407415	-0.073737	0.124579
N50	N	0.137906	0.608503	0.000200
N51	N	0.065012	0.596892	0.000209
H52	H	0.029511	0.688398	0.000199
