data_functionalizedCrystal
_audit_creation_method	'MofGen! by Chris Wilmer'
_symmetry_space_group_name_H-M	'P1'
_symmetry_Int_Tables_number	1
_symmetry_cell_setting	triclinic
loop_
_symmetry_equiv_pos_as_xyz
  x,y,z
_cell_length_a	27.354012
_cell_length_b	27.353283
_cell_length_c	27.349551
_cell_angle_alpha	60.005606
_cell_angle_beta	60.011434
_cell_angle_gamma	59.993282
loop_
_atom_site_label
_atom_site_type_symbol
_atom_site_fract_x
_atom_site_fract_y
_atom_site_fract_z
O1	O	0.067635	-0.714267	0.597330
O2	O	0.567635	-0.214267	1.097330
O3	O	0.025429	-0.556105	0.481282
O4	O	0.525429	-0.056105	0.981282
O5	O	0.125575	-0.656186	0.481214
O6	O	0.625575	-0.156186	0.981214
O7	O	-0.032512	-0.614186	0.597397
O8	O	0.467488	-0.114186	1.097397
O9	O	0.158797	-0.622968	0.514367
O10	O	0.658797	-0.122968	1.014367
O11	O	0.058650	-0.522887	0.514434
O12	O	0.558650	-0.022887	1.014434
O13	O	0.100856	-0.681048	0.630482
O14	O	0.600856	-0.181048	1.130482
Zn15	Zn	0.085028	-0.596693	0.577722
Zn16	Zn	0.585028	-0.096693	1.077722
Zn17	Zn	0.041257	-0.640460	0.534042
Zn18	Zn	0.541257	-0.140460	1.034042
O19	O	0.000709	-0.580967	0.630549
O20	O	0.500709	-0.080967	1.130549
N21	N	0.114901	-0.566828	0.607534
N22	N	0.614901	-0.066828	1.107534
N23	N	0.011389	-0.670331	0.504229
N24	N	0.511389	-0.170331	1.004229
C25	C	0.179404	-0.338196	0.672015
C26	C	0.679404	0.161804	1.172015
C27	C	0.179501	-0.502386	0.836160
C28	C	0.679501	-0.002386	1.336160
C29	C	0.179415	-0.502363	0.671996
C30	C	0.679415	-0.002363	1.171996
C31	C	0.343611	-0.502373	0.671960
C32	C	0.843611	-0.002373	1.171960
C33	C	0.197478	-0.392371	0.690061
C34	C	0.697478	0.107629	1.190061
C35	C	0.197534	-0.484321	0.781984
C36	C	0.697534	0.015679	1.281984
C37	C	0.289434	-0.484312	0.690032
C38	C	0.789434	0.015688	1.190032
C39	C	0.197486	-0.484308	0.690051
C40	C	0.697486	0.015692	1.190051
C41	C	0.156398	-0.269238	0.649045
C42	C	0.656398	0.230762	1.149045
C43	C	0.156418	-0.525342	0.649015
C44	C	0.656418	-0.025342	1.149015
C45	C	0.220484	-0.461329	0.713032
C46	C	0.720484	0.038671	1.213032
C47	C	0.443889	-0.485097	0.619172
C48	C	0.943889	0.014903	1.119172
C49	C	0.506571	-0.505993	0.598266
C50	C	1.006571	-0.005993	1.098266
C51	C	0.506589	-0.607412	0.636940
C52	C	1.006589	-0.107412	1.136940
C53	C	0.443909	-0.586515	0.657848
C54	C	0.943909	-0.086515	1.157848
C55	C	0.171510	-0.237888	0.587422
C56	C	0.671510	0.262112	1.087422
C57	C	0.150593	-0.175201	0.566543
C58	C	0.650593	0.324799	1.066543
C59	C	0.099458	-0.175218	0.668913
C60	C	0.599458	0.324782	1.168913
C61	C	0.120375	-0.237905	0.689792
C62	C	0.620375	0.262095	1.189792
C63	C	0.094789	-0.510201	0.664176
C64	C	0.594789	-0.010201	1.164176
C65	C	0.073888	-0.531091	0.643278
C66	C	0.573888	-0.031091	1.143278
C67	C	0.176239	-0.582263	0.592072
C68	C	0.676239	-0.082263	1.092072
C69	C	0.197142	-0.561373	0.612963
C70	C	0.697142	-0.061373	1.112963
C71	C	0.094933	-0.510244	0.936476
C72	C	0.594933	-0.010244	1.436476
C73	C	0.074073	-0.531151	0.999161
C74	C	0.574073	-0.031151	1.499161
C75	C	0.176453	-0.582335	0.999126
C76	C	0.676453	-0.082335	1.499126
C77	C	0.197312	-0.561429	0.936439
C78	C	0.697312	-0.061429	1.436439
C79	C	0.156551	-0.525382	0.905116
C80	C	0.656551	-0.025382	1.405116
C81	C	0.412561	-0.525357	0.648961
C82	C	0.912561	-0.025357	1.148961
C83	C	-0.098513	-0.688235	0.485867
C84	C	0.401487	-0.188235	0.985867
C85	C	-0.006461	-0.688368	0.394066
C86	C	0.493539	-0.188368	0.894066
C87	C	-0.006645	-0.780264	0.486040
C88	C	0.493355	-0.280264	0.986040
C89	C	-0.006630	-0.688361	0.486097
C90	C	0.493370	-0.188361	0.986097
C91	C	-0.029562	-0.711308	0.463018
C92	C	0.470438	-0.211308	0.963018
N93	N	0.537030	-0.566846	0.607436
N94	N	1.037030	-0.066846	1.107436
O95	O	0.741877	-0.576849	0.459995
O96	O	1.241877	-0.076849	0.959995
O97	O	0.742050	-0.693241	0.618010
O98	O	1.242050	-0.193241	1.118010
O99	O	0.741986	-0.692977	0.517791
O100	O	1.241986	-0.192977	1.017791
O101	O	0.741941	-0.577114	0.560214
O102	O	1.241941	-0.077114	1.060214
O103	O	0.642405	-0.659839	0.551046
O104	O	1.142405	-0.159839	1.051046
O105	O	0.642469	-0.660104	0.651265
O106	O	1.142469	-0.160104	1.151265
O107	O	0.642296	-0.543712	0.493251
O108	O	1.142296	-0.043712	0.993251
Zn109	Zn	0.626572	-0.596646	0.577538
Zn110	Zn	1.126572	-0.096646	1.077538
Zn111	Zn	0.757774	-0.640307	0.533723
Zn112	Zn	1.257774	-0.140307	1.033723
O113	O	0.642360	-0.543976	0.593469
O114	O	1.142360	-0.043976	1.093469
N115	N	0.847316	-0.670107	0.503818
N116	N	1.347316	-0.170107	1.003818
N117	N	0.114877	-0.144758	0.607577
N118	N	0.614877	0.355242	1.107577
O119	O	-0.032498	0.060193	0.597441
O120	O	0.467502	0.560193	1.097441
O121	O	0.125523	0.060193	0.481067
O122	O	0.625523	0.560193	0.981067
O123	O	0.025289	0.060179	0.481345
O124	O	0.525289	0.560179	0.981345
O125	O	0.067736	0.060207	0.597163
O126	O	0.567736	0.560207	1.097163
O127	O	0.058511	-0.039410	0.514543
O128	O	0.558511	0.460590	1.014543
O129	O	0.158745	-0.039397	0.514265
O130	O	0.658745	0.460603	1.014265
O131	O	0.000724	-0.039396	0.630638
O132	O	0.500724	0.460604	1.130638
Zn133	Zn	0.085009	-0.055208	0.577722
Zn134	Zn	0.585009	0.444792	1.077722
Zn135	Zn	0.041238	0.076005	0.533983
Zn136	Zn	0.541238	0.576005	1.033983
O137	O	0.100958	-0.039382	0.630360
O138	O	0.600958	0.460618	1.130360
N139	N	0.011362	0.165555	0.504130
N140	N	0.511362	0.665555	1.004130
N141	N	0.115121	-0.566884	1.029592
N142	N	0.615121	-0.066884	1.529592
O143	O	0.104990	-0.714248	1.234528
O144	O	0.604990	-0.214248	1.734528
O145	O	-0.011371	-0.556177	1.234539
O146	O	0.488629	-0.056177	1.734539
O147	O	-0.011103	-0.656395	1.234497
O148	O	0.488897	-0.156395	1.734497
O149	O	0.104722	-0.614030	1.234569
O150	O	0.604722	-0.114030	1.734569
O151	O	0.022090	-0.623190	1.134913
O152	O	0.522090	-0.123190	1.634913
O153	O	0.021822	-0.522972	1.134954
O154	O	0.521822	-0.022972	1.634954
O155	O	0.138182	-0.681044	1.134943
O156	O	0.638182	-0.181044	1.634943
Zn157	Zn	0.085272	-0.596736	1.119137
Zn158	Zn	0.585272	-0.096736	1.619137
Zn159	Zn	0.041539	-0.640484	1.250344
Zn160	Zn	0.541539	-0.140484	1.750344
O161	O	0.137914	-0.580826	1.134984
O162	O	0.637914	-0.080826	1.634984
N163	N	0.011689	-0.670343	1.339890
N164	N	0.511689	-0.170343	1.839890
C165	C	0.038085	-0.519567	0.481870
C166	C	0.538085	-0.019567	0.981870
C167	C	0.162104	-0.643505	0.481786
C168	C	0.662104	-0.143505	0.981786
C169	C	0.088200	-0.717587	0.629893
C170	C	0.588200	-0.217587	1.129893
C171	C	-0.035819	-0.593649	0.629977
C172	C	0.464181	-0.093649	1.129977
C173	C	0.692280	-0.692701	0.654545
C174	C	1.192280	-0.192701	1.154545
C175	C	0.692203	-0.692374	0.530435
C176	C	1.192203	-0.192374	1.030435
C177	C	0.692063	-0.544251	0.456717
C178	C	1.192063	-0.044251	0.956717
C179	C	0.692144	-0.544580	0.580825
C180	C	1.192144	-0.044580	1.080825
C181	C	0.162000	0.010521	0.481600
C182	C	0.662000	0.510521	0.981600
C183	C	0.037914	0.010381	0.481984
C184	C	0.537914	0.510381	0.981984
C185	C	-0.035795	0.010399	0.630065
C186	C	0.464205	0.510399	1.130065
C187	C	0.088333	0.010415	0.629722
C188	C	0.588333	0.510415	1.129722
C189	C	-0.010799	-0.519660	1.184747
C190	C	0.489201	-0.019660	1.684747
C191	C	-0.010461	-0.643761	1.184677
C192	C	0.489539	-0.143761	1.684677
C193	C	0.137610	-0.717561	1.184734
C194	C	0.637610	-0.217561	1.684734
C195	C	0.137280	-0.593452	1.184783
C196	C	0.637280	-0.093452	1.684783
H197	H	0.023897	-0.518815	1.024687
H198	H	0.523897	-0.018815	1.524687
C199	C	0.100318	-0.778216	0.678407
C200	C	0.600318	-0.278216	1.178407
C201	C	0.158755	-0.815064	0.656784
C202	C	0.658755	-0.315064	1.156784
C203	C	0.169937	-0.870922	0.701454
C204	C	0.669937	-0.370922	1.201454
H205	H	0.095888	-0.773110	0.712468
H206	H	0.595888	-0.273110	1.212468
H207	H	0.072695	-0.796222	0.689309
H208	H	0.572695	-0.296222	1.189309
H209	H	0.186370	-0.797062	0.645890
H210	H	0.686370	-0.297062	1.145890
H211	H	0.163199	-0.820188	0.622728
H212	H	0.663199	-0.320188	1.122728
H213	H	0.142314	-0.888928	0.712356
H214	H	0.642314	-0.388928	1.212356
H215	H	0.165504	-0.865810	0.735512
H216	H	0.665504	-0.365810	1.235512
H217	H	0.209585	-0.895932	0.686787
H218	H	0.709585	-0.395932	1.186787
C219	C	0.185785	-0.581447	1.184924
C220	C	0.685785	-0.081447	1.684924
C221	C	0.201738	-0.622229	1.236168
C222	C	0.701738	-0.122229	1.736168
C223	C	0.246413	-0.611184	1.236321
C224	C	0.746413	-0.111184	1.736321
H225	H	0.219882	-0.585929	1.150239
H226	H	0.719882	-0.085929	1.650239
H227	H	0.171164	-0.541808	1.184964
H228	H	0.671164	-0.041808	1.684964
H229	H	0.216360	-0.661859	1.236122
H230	H	0.716360	-0.161859	1.736122
H231	H	0.167654	-0.617754	1.270861
H232	H	0.667654	-0.117754	1.770861
H233	H	0.231792	-0.571544	1.236361
H234	H	0.731792	-0.071544	1.736361
H235	H	0.280507	-0.615665	1.201634
H236	H	0.780507	-0.115665	1.701634
H237	H	0.257239	-0.638848	1.271092
H238	H	0.757239	-0.138848	1.771092
C239	C	0.692034	-0.495959	0.592871
C240	C	1.192034	0.004041	1.092871
C241	C	0.640776	-0.445858	0.586272
C242	C	1.140776	0.054142	1.086272
C243	C	0.640661	-0.401055	0.597356
C244	C	1.140661	0.098945	1.097356
H245	H	0.692040	-0.510508	0.632508
H246	H	1.192040	-0.010508	1.132508
H247	H	0.726720	-0.484995	0.565219
H248	H	1.226720	0.015005	1.065219
H249	H	0.606100	-0.456821	0.613923
H250	H	1.106100	0.043179	1.113923
H251	H	0.640760	-0.431292	0.546639
H252	H	1.140760	0.068708	1.046639
H253	H	0.675346	-0.390091	0.569703
H254	H	1.175346	0.109909	1.069703
H255	H	0.640668	-0.415609	0.636992
H256	H	1.140668	0.084391	1.136992
H257	H	0.605886	-0.367055	0.592874
H258	H	1.105886	0.132945	1.092874
H259	H	0.692221	-0.728771	0.521355
H260	H	1.192221	-0.228771	1.021355
C261	C	0.186347	-0.778096	1.184824
C262	C	0.686347	-0.278096	1.684824
C263	C	0.202277	-0.804370	1.236061
C264	C	0.702277	-0.304370	1.736061
C265	C	0.247177	-0.860131	1.236159
C266	C	0.747177	-0.360131	1.736159
H267	H	0.171954	-0.803318	1.184836
H268	H	0.671954	-0.303318	1.684836
H269	H	0.220401	-0.772875	1.150122
H270	H	0.720401	-0.272875	1.650122
H271	H	0.168231	-0.809594	1.270754
H272	H	0.668231	-0.309594	1.770754
H273	H	0.216681	-0.779165	1.236059
H274	H	0.716681	-0.279165	1.736059
H275	H	0.281230	-0.854910	1.201458
H276	H	0.781230	-0.354910	1.701458
H277	H	0.232778	-0.885348	1.236171
H278	H	0.732778	-0.385348	1.736171
H279	H	0.257995	-0.877963	1.270921
H280	H	0.757995	-0.377963	1.770921
C281	C	0.692018	-0.495608	0.396161
C282	C	1.192018	0.004392	0.896161
C283	C	0.692020	-0.517075	0.359195
C284	C	1.192020	-0.017075	0.859195
C285	C	0.691985	-0.472284	0.303406
C286	C	1.191985	0.027716	0.803406
H287	H	0.657282	-0.461570	0.401349
H288	H	1.157282	0.038430	0.901349
H289	H	0.726739	-0.484709	0.378198
H290	H	1.226739	0.015291	0.878198
H291	H	0.657302	-0.527966	0.377154
H292	H	1.157302	-0.027966	0.877154
H293	H	0.726753	-0.551107	0.353990
H294	H	1.226753	-0.051107	0.853990
H295	H	0.726706	-0.461385	0.285443
H296	H	1.226706	0.038615	0.785443
H297	H	0.657249	-0.438248	0.308600
H298	H	1.157249	0.061752	0.808600
H299	H	0.691992	-0.486844	0.278316
H300	H	1.191992	0.013156	0.778316
H301	H	0.061737	-0.480889	0.910978
H302	H	0.561737	0.019111	1.410978
C303	C	-0.059446	-0.459099	1.184780
C304	C	0.440554	0.040901	1.684780
C305	C	-0.037997	-0.422153	1.184820
C306	C	0.462003	0.077847	1.684820
C307	C	-0.082796	-0.366363	1.184858
C308	C	0.417204	0.133637	1.684858
H309	H	-0.070356	-0.441102	1.150055
H310	H	0.429644	0.058898	1.650055
H311	H	-0.093476	-0.464313	1.219515
H312	H	0.406524	0.035687	1.719515
H313	H	-0.003978	-0.416937	1.150089
H314	H	0.496022	0.083063	1.650089
H315	H	-0.027092	-0.440131	1.219543
H316	H	0.472908	0.059869	1.719543
H317	H	-0.116826	-0.371577	1.219592
H318	H	0.383174	0.128423	1.719592
H319	H	-0.093703	-0.348372	1.150132
H320	H	0.406297	0.151628	1.650132
H321	H	-0.068251	-0.341290	1.184891
H322	H	0.431749	0.158710	1.684891
H323	H	0.209648	-0.611676	1.024626
H324	H	0.709648	-0.111676	1.524626
H325	H	-0.081227	-0.584696	0.666460
H326	H	0.418773	-0.084696	1.166460
C327	C	-0.096309	0.010498	0.678809
C328	C	0.403691	0.510498	1.178809
C329	C	-0.122562	0.061734	0.694730
C330	C	0.377438	0.561734	1.194730
C331	C	-0.178303	0.061843	0.739637
C332	C	0.321697	0.561843	1.239637
H333	H	-0.121549	0.010523	0.664423
H334	H	0.378451	0.510523	1.164423
H335	H	-0.091068	-0.024208	0.712866
H336	H	0.408932	0.475792	1.212866
H337	H	-0.127805	0.096431	0.660680
H338	H	0.372195	0.596431	1.160680
H339	H	-0.097340	0.061720	0.709127
H340	H	0.402660	0.561720	1.209127
H341	H	-0.173063	0.027136	0.773693
H342	H	0.326937	0.527136	1.273693
H343	H	-0.203538	0.061866	0.725246
H344	H	0.296462	0.561866	1.225246
H345	H	-0.196121	0.096603	0.750449
H346	H	0.303879	0.596603	1.250449
H347	H	0.097420	0.010424	0.666105
H348	H	0.597420	0.510424	1.166105
H349	H	0.247489	-0.573760	0.910909
H350	H	0.747489	-0.073760	1.410909
C351	C	-0.059049	-0.655713	1.184622
C352	C	0.440951	-0.155713	1.684622
C353	C	-0.110329	-0.604612	1.184617
C354	C	0.389671	-0.104612	1.684617
C355	C	-0.155103	-0.615603	1.184576
C356	C	0.344897	-0.115603	1.684576
H357	H	-0.045272	-0.665186	1.149886
H358	H	0.454728	-0.165186	1.649886
H359	H	-0.068420	-0.688357	1.219345
H360	H	0.431580	-0.188357	1.719345
H361	H	-0.100959	-0.571978	1.149898
H362	H	0.399041	-0.071978	1.649898
H363	H	-0.124123	-0.595131	1.219351
H364	H	0.375877	-0.095131	1.719351
H365	H	-0.164474	-0.648246	1.219298
H366	H	0.335526	-0.148246	1.719298
H367	H	-0.141321	-0.625076	1.149838
H368	H	0.358679	-0.125076	1.649838
H369	H	-0.189904	-0.580935	1.184578
H370	H	0.310096	-0.080935	1.684578
H371	H	0.029071	-0.474132	0.445424
H372	H	0.529071	0.025868	0.945424
H373	H	0.028825	0.010378	0.445599
H374	H	0.528825	0.510378	0.945599
C375	C	0.050478	-0.471059	0.703280
C376	C	0.550478	0.028941	1.203280
C377	C	-0.007966	-0.462254	0.712065
C378	C	0.492034	0.037746	1.212065
C379	C	-0.048801	-0.426193	0.748079
C380	C	0.451199	0.073807	1.248079
H381	H	0.056439	-0.490155	0.740880
H382	H	0.556439	0.009845	1.240880
H383	H	0.056457	-0.433466	0.684144
H384	H	0.556457	0.066534	1.184144
H385	H	-0.013942	-0.499841	0.731202
H386	H	0.486058	0.000159	1.231202
H387	H	-0.013946	-0.443152	0.674476
H388	H	0.486054	0.056848	1.174476
H389	H	-0.042823	-0.388600	0.728943
H390	H	0.457177	0.111400	1.228943
H391	H	-0.042835	-0.445293	0.785676
H392	H	0.457165	0.054707	1.285676
H393	H	-0.088460	-0.420210	0.754039
H394	H	0.411540	0.079790	1.254039
C395	C	0.006994	-0.514780	0.659762
C396	C	0.506994	-0.014780	1.159762
C397	C	-0.007962	-0.567122	0.691066
C398	C	0.492038	-0.067122	1.191066
C399	C	-0.069577	-0.552122	0.706253
C400	C	0.430423	-0.052122	1.206253
H401	H	-0.014342	-0.490358	0.684256
H402	H	0.485658	0.009642	1.184256
H403	H	-0.003320	-0.493529	0.624330
H404	H	0.496680	0.006471	1.124330
H405	H	0.002345	-0.588365	0.726493
H406	H	0.502345	-0.088365	1.226493
H407	H	0.013358	-0.591551	0.666584
H408	H	0.513358	-0.091551	1.166584
H409	H	-0.079891	-0.530870	0.670821
H410	H	0.420109	-0.030870	1.170821
H411	H	-0.090907	-0.527699	0.730745
H412	H	0.409093	-0.027699	1.230745
H413	H	-0.079732	-0.587633	0.727490
H414	H	0.420268	-0.087633	1.227490
C415	C	0.409929	-0.418668	0.609404
C416	C	0.909929	0.081332	1.109404
C417	C	0.425163	-0.386600	0.547933
C418	C	0.925163	0.113400	1.047933
C419	C	0.393900	-0.325404	0.538910
C420	C	0.893900	0.174596	1.038910
H421	H	0.368101	-0.411899	0.626065
H422	H	0.868101	0.088101	1.126065
H423	H	0.420224	-0.405674	0.628314
H424	H	0.920224	0.094326	1.128314
H425	H	0.414864	-0.399589	0.529030
H426	H	0.914864	0.100411	1.029030
H427	H	0.466985	-0.393351	0.531259
H428	H	0.966985	0.106649	1.031259
H429	H	0.404195	-0.312411	0.557820
H430	H	0.904195	0.187589	1.057820
H431	H	0.352074	-0.318641	0.555574
H432	H	0.852074	0.181359	1.055574
H433	H	0.404236	-0.303638	0.497202
H434	H	0.904236	0.196362	0.997202
C435	C	0.692373	-0.741359	0.715084
C436	C	1.192373	-0.241359	1.215084
C437	C	0.692395	-0.719901	0.752042
C438	C	1.192395	-0.219901	1.252042
C439	C	0.692489	-0.764711	0.807812
C440	C	1.192489	-0.264711	1.307812
H441	H	0.657673	-0.752292	0.733085
H442	H	1.157673	-0.252292	1.233085
H443	H	0.727130	-0.775379	0.709844
H444	H	1.227130	-0.275379	1.209844
H445	H	0.657641	-0.685893	0.757284
H446	H	1.157641	-0.185893	1.257284
H447	H	0.727092	-0.708973	0.734060
H448	H	1.227092	-0.208973	1.234060
H449	H	0.727246	-0.798731	0.802572
H450	H	1.227246	-0.298731	1.302572
H451	H	0.657789	-0.775641	0.825807
H452	H	1.157789	-0.275641	1.325807
H453	H	0.692509	-0.750160	0.832893
H454	H	1.192509	-0.250160	1.332893
H455	H	0.209407	-0.611608	0.562721
H456	H	0.709407	-0.111608	1.062721
C457	C	0.222414	0.010923	0.432824
C458	C	0.722414	0.510923	0.932824
C459	C	0.259342	0.011060	0.454231
C460	C	0.759342	0.511060	0.954231
C461	C	0.314997	0.011439	0.409313
C462	C	0.814997	0.511439	0.909313
H463	H	0.240547	-0.023721	0.421754
H464	H	0.740547	0.476279	0.921754
H465	H	0.216985	0.045741	0.398903
H466	H	0.716985	0.545741	0.898903
H467	H	0.264773	-0.023754	0.488141
H468	H	0.764773	0.476246	0.988141
H469	H	0.241229	0.045702	0.465297
H470	H	0.741229	0.545702	0.965297
H471	H	0.309567	0.046256	0.375393
H472	H	0.809567	0.546256	0.875393
H473	H	0.333123	-0.023205	0.398246
H474	H	0.833123	0.476795	0.898246
H475	H	0.340057	0.011538	0.423830
H476	H	0.840057	0.511538	0.923830
H477	H	0.247325	-0.573698	0.600612
H478	H	0.747325	-0.073698	1.100612
C479	C	0.222694	-0.655544	0.433221
C480	C	0.722694	-0.155544	0.933221
C481	C	0.259599	-0.713978	0.454779
C482	C	0.759599	-0.213978	0.954779
C483	C	0.315421	-0.725087	0.410060
C484	C	0.815421	-0.225087	0.910060
H485	H	0.217551	-0.651089	0.399169
H486	H	0.717551	-0.151089	0.899169
H487	H	0.240676	-0.627900	0.422320
H488	H	0.740676	-0.127900	0.922320
H489	H	0.241621	-0.741614	0.465671
H490	H	0.741621	-0.241614	0.965671
H491	H	0.264759	-0.718447	0.488824
H492	H	0.764759	-0.218447	0.988824
H493	H	0.333403	-0.697443	0.399159
H494	H	0.833403	-0.197443	0.899159
H495	H	0.310272	-0.720628	0.376011
H496	H	0.810272	-0.220628	0.876011
H497	H	0.340470	-0.764732	0.424683
H498	H	0.840470	-0.264732	0.924683
H499	H	0.418403	-0.619300	0.682106
H500	H	0.918403	-0.119300	1.182106
H501	H	0.532110	-0.657210	0.644171
H502	H	1.032110	-0.157210	1.144171
H503	H	0.200842	-0.263395	0.554238
H504	H	0.700842	0.236605	1.054238
C505	C	0.540667	-0.462337	0.565826
C506	C	1.040667	0.037663	1.065826
C507	C	0.576638	-0.464831	0.507981
C508	C	1.076638	0.035169	1.007981
C509	C	0.608061	-0.424630	0.478078
C510	C	1.108061	0.075370	0.978078
H511	H	0.513089	-0.422892	0.563459
H512	H	1.013089	0.077108	1.063459
H513	H	0.565171	-0.472829	0.587146
H514	H	1.065171	0.027171	1.087146
H515	H	0.552136	-0.454336	0.486666
H516	H	1.052136	0.045664	0.986666
H517	H	0.604226	-0.504267	0.510330
H518	H	1.104226	-0.004267	1.010330
H519	H	0.632565	-0.435122	0.499398
H520	H	1.132565	0.064878	0.999398
H521	H	0.580479	-0.385188	0.475716
H522	H	1.080479	0.114812	0.975716
H523	H	0.632475	-0.426321	0.438829
H524	H	1.132475	0.073679	0.938829
H525	H	0.162897	-0.149674	0.516363
H526	H	0.662897	0.350326	1.016363
C527	C	0.060435	-0.141275	0.713221
C528	C	0.560435	0.358725	1.213221
C529	C	0.091937	-0.156540	0.749172
C530	C	0.591937	0.343460	1.249172
C531	C	0.056005	-0.125294	0.790002
C532	C	0.556005	0.374706	1.290002
H533	H	0.050121	-0.099441	0.692039
H534	H	0.550121	0.400559	1.192039
H535	H	0.025005	-0.151568	0.737721
H536	H	0.525005	0.348432	1.237721
H537	H	0.127356	-0.146244	0.724675
H538	H	0.627356	0.353756	1.224675
H539	H	0.102250	-0.198369	0.770366
H540	H	0.602250	0.301631	1.270366
H541	H	0.020576	-0.135587	0.814502
H542	H	0.520576	0.364413	1.314502
H543	H	0.045693	-0.083461	0.768816
H544	H	0.545693	0.416539	1.268816
H545	H	0.077372	-0.135651	0.814404
H546	H	0.577372	0.364349	1.314404
C547	C	0.104110	-0.271998	0.756686
C548	C	0.604110	0.228002	1.256686
C549	C	0.156474	-0.307975	0.771629
C550	C	0.656474	0.192025	1.271629
C551	C	0.141522	-0.339389	0.833249
C552	C	0.641522	0.160611	1.333249
H553	H	0.079694	-0.244410	0.778013
H554	H	0.579694	0.255590	1.278013
H555	H	0.082870	-0.296501	0.767020
H556	H	0.582870	0.203499	1.267020
H557	H	0.177705	-0.283475	0.761301
H558	H	0.677705	0.216525	1.261301
H559	H	0.180896	-0.335574	0.750317
H560	H	0.680896	0.164426	1.250317
H561	H	0.120282	-0.363892	0.843583
H562	H	0.620282	0.136108	1.343583
H563	H	0.117106	-0.311797	0.854570
H564	H	0.617106	0.188203	1.354570
H565	H	0.177048	-0.363807	0.843395
H566	H	0.677048	0.136193	1.343395
