data_functionalizedCrystal
_audit_creation_method	'MofGen! by Chris Wilmer'
_symmetry_space_group_name_H-M	'P1'
_symmetry_Int_Tables_number	1
_symmetry_cell_setting	triclinic
loop_
_symmetry_equiv_pos_as_xyz
  x,y,z
_cell_length_a	11.169417
_cell_length_b	18.101397
_cell_length_c	11.169409
_cell_angle_alpha	89.960177
_cell_angle_beta	89.979436
_cell_angle_gamma	90.021344
loop_
_atom_site_label
_atom_site_type_symbol
_atom_site_fract_x
_atom_site_fract_y
_atom_site_fract_z
Zn1	Zn	1.834887	-0.294753	-0.678480
Zn2	Zn	1.834738	-0.418619	-0.477770
Zn3	Zn	1.634170	-0.294798	-0.477814
Zn4	Zn	1.634145	-0.418559	-0.678415
O5	O	1.734485	-0.356682	-0.578120
O6	O	2.002817	-0.311190	-0.651864
O7	O	1.808081	-0.402238	-0.309826
O8	O	1.660868	-0.191159	-0.504478
O9	O	2.002707	-0.402194	-0.504404
O10	O	1.808334	-0.191126	-0.651907
O11	O	1.660724	-0.311267	-0.309859
O12	O	1.466217	-0.311209	-0.504416
O13	O	1.660825	-0.402092	-0.846374
O14	O	1.466198	-0.402135	-0.651796
O15	O	1.808309	-0.311132	-0.846421
O16	O	1.808056	-0.522244	-0.504341
O17	O	1.660681	-0.522200	-0.651754
C18	C	1.422660	-0.356671	-0.578104
C19	C	1.289260	-0.356684	-0.578126
C20	C	1.734382	-0.549093	-0.578062
C21	C	1.734448	-0.631407	-0.578077
C22	C	1.734601	-0.930498	-0.578186
C23	C	1.827067	-0.899169	-0.485190
C24	C	1.827387	-0.813551	-0.485431
C25	C	1.734525	-0.782115	-0.578131
C26	C	1.768822	-0.813109	-0.704636
C27	C	1.769537	-0.898754	-0.704129
C28	C	1.607592	-0.899011	-0.545773
C29	C	1.608219	-0.813362	-0.542949
C30	C	1.734480	-0.698256	-0.578108
C31	C	1.734649	-1.014357	-0.578218
C32	C	2.047527	-0.356694	-0.578136
C33	C	2.180927	-0.356699	-0.578143
C34	C	1.734581	-0.356600	-0.891162
C35	C	1.734622	-0.356565	-1.024563
C36	C	1.734621	-0.163520	-0.578205
C37	C	1.734678	-0.081206	-0.578241
C38	C	1.734458	-0.356710	-0.266295
C39	C	1.734650	-0.356537	-0.132896
H40	H	1.805929	-0.792599	-0.391629
O41	O	1.892510	-0.925138	-0.740500
H42	H	1.894239	-0.986446	-0.740509
O43	O	1.684199	-0.926214	-0.799028
H44	H	1.734041	-0.960129	-0.865098
H45	H	1.805868	-0.919822	-0.391107
O46	O	1.682362	-0.786119	-0.798896
H47	H	1.708584	-0.808796	-0.887402
H48	H	1.582359	-0.793113	-0.449852
H49	H	1.535619	-0.791971	-0.605724
H50	H	1.860620	-0.791598	-0.732558
H51	H	1.538698	-0.919271	-0.613507
O52	O	1.951017	-0.927585	-0.513270
H53	H	1.947053	-0.963923	-0.593175
H54	H	1.576393	-0.920681	-0.455126
O55	O	1.952007	-0.786330	-0.513842
H56	H	1.952674	-0.725013	-0.514101
