data_functionalizedCrystal
_audit_creation_method	'MofGen! by Chris Wilmer'
_symmetry_space_group_name_H-M	'P1'
_symmetry_Int_Tables_number	1
_symmetry_cell_setting	triclinic
loop_
_symmetry_equiv_pos_as_xyz
  x,y,z
_cell_length_a	11.169417
_cell_length_b	12.759394
_cell_length_c	11.169409
_cell_angle_alpha	89.967228
_cell_angle_beta	89.979436
_cell_angle_gamma	90.014734
loop_
_atom_site_label
_atom_site_type_symbol
_atom_site_fract_x
_atom_site_fract_y
_atom_site_fract_z
Zn1	Zn	1.834942	-0.418157	-0.678539
Zn2	Zn	1.834816	-0.593883	-0.477854
Zn3	Zn	1.634225	-0.418221	-0.477873
Zn4	Zn	1.634223	-0.593798	-0.678499
O5	O	1.734551	-0.506015	-0.578191
O6	O	2.002875	-0.441477	-0.651926
O7	O	1.808156	-0.570644	-0.309907
O8	O	1.660904	-0.271192	-0.504516
O9	O	2.002783	-0.570582	-0.504484
O10	O	1.808370	-0.271145	-0.651945
O11	O	1.660782	-0.441586	-0.309921
O12	O	1.466275	-0.441503	-0.504478
O13	O	1.660900	-0.570436	-0.846454
O14	O	1.466273	-0.570498	-0.651877
O15	O	1.808368	-0.441394	-0.846483
O16	O	1.808154	-0.740893	-0.504445
O17	O	1.660778	-0.740830	-0.651858
C18	C	1.422727	-0.505999	-0.578176
C19	C	1.289327	-0.506017	-0.578197
C20	C	1.734485	-0.778982	-0.578171
C21	C	1.734566	-0.895759	-0.578203
C22	C	1.888007	-0.895552	-0.731835
C23	C	1.964766	-0.950309	-0.808660
C24	C	1.964837	-1.060031	-0.808686
C25	C	1.888139	-1.114998	-0.731881
C26	C	1.811381	-1.060240	-0.655056
C27	C	1.811320	-0.950516	-0.655036
C28	C	1.657935	-1.060447	-0.501432
C29	C	1.657868	-0.950726	-0.501398
C30	C	1.581237	-1.115414	-0.424627
C31	C	1.504483	-1.060657	-0.347794
C32	C	1.504416	-0.950929	-0.347770
C33	C	1.581110	-0.895969	-0.424573
C34	C	2.047594	-0.506032	-0.578207
C35	C	2.180994	-0.506039	-0.578214
C36	C	1.734648	-0.505898	-0.891234
C37	C	1.734689	-0.505849	-1.024634
C38	C	1.734651	-0.231981	-0.578237
C39	C	1.734694	-0.115205	-0.578257
C40	C	1.734525	-0.506055	-0.266366
C41	C	1.734716	-0.505809	-0.132967
H42	H	1.887968	-0.806211	-0.731810
N43	N	2.047629	-1.119085	-0.891550
H44	H	2.103295	-1.164602	-0.842829
H45	H	1.998775	-1.164545	-0.947124
H46	H	1.888194	-1.204339	-0.731919
H47	H	1.581296	-1.204755	-0.424658
N48	N	1.421767	-1.119939	-0.264963
H49	H	1.433456	-1.197755	-0.276641
H50	H	1.440479	-1.100809	-0.179258
N51	N	1.421625	-0.891881	-0.264899
H52	H	1.470393	-0.846364	-0.209304
H53	H	1.365972	-0.846422	-0.313700
N54	N	1.581053	-0.777627	-0.424548
H55	H	1.558948	-0.751160	-0.506860
H56	H	1.520803	-0.751355	-0.364175
H57	H	2.027210	-0.905546	-0.871197
