data_functionalizedCrystal
_audit_creation_method	'MofGen! by Chris Wilmer'
_symmetry_space_group_name_H-M	'P1'
_symmetry_Int_Tables_number	1
_symmetry_cell_setting	triclinic
loop_
_symmetry_equiv_pos_as_xyz
  x,y,z
_cell_length_a	21.295419
_cell_length_b	21.295417
_cell_length_c	13.032268
_cell_angle_alpha	82.858212
_cell_angle_beta	82.839550
_cell_angle_gamma	90.044503
loop_
_atom_site_label
_atom_site_type_symbol
_atom_site_fract_x
_atom_site_fract_y
_atom_site_fract_z
Zn1	Zn	0.917103	-0.295547	0.590820
Zn2	Zn	1.417103	0.204453	1.090820
Zn3	Zn	0.930393	-0.387455	0.416067
Zn4	Zn	1.430393	0.112545	0.916067
Zn5	Zn	0.825210	-0.282233	0.416097
Zn6	Zn	1.325210	0.217767	0.916097
Zn7	Zn	0.811802	-0.400805	0.590752
Zn8	Zn	1.311802	0.099195	1.090752
O9	O	0.871127	-0.341510	0.503434
O10	O	1.371127	0.158490	1.003434
O11	O	1.006954	-0.307724	0.567655
O12	O	1.506954	0.192276	1.067655
O13	O	0.927613	-0.362338	0.269843
O14	O	1.427613	0.137662	0.769843
O15	O	0.837449	-0.195913	0.439315
O16	O	1.337449	0.304087	0.939315
O17	O	1.016718	-0.375249	0.439265
O18	O	1.516718	0.124751	0.939265
O19	O	0.904962	-0.205695	0.567683
O20	O	1.404962	0.294305	1.067683
O21	O	0.850335	-0.285032	0.269865
O22	O	1.350335	0.214968	0.769865
O23	O	0.735343	-0.297977	0.439249
O24	O	1.235343	0.202023	0.939249
O25	O	0.814598	-0.398001	0.736990
O26	O	1.314598	0.101999	1.236990
O27	O	0.725492	-0.385091	0.567568
O28	O	1.225492	0.114909	1.067568
O29	O	0.891962	-0.320669	0.737040
O30	O	1.391962	0.179331	1.237040
O31	O	0.914612	-0.477312	0.439199
O32	O	1.414612	0.022688	0.939199
O33	O	0.827484	-0.487120	0.567539
O34	O	1.327484	0.012880	1.067539
C35	C	0.707577	-0.341538	0.503405
C36	C	1.207577	0.158462	1.003405
C37	C	0.637608	-0.341567	0.503417
C38	C	1.137608	0.158433	1.003417
C39	C	0.599672	-0.306481	0.570373
C40	C	1.099672	0.193519	1.070373
C41	C	0.533929	-0.306464	0.570377
C42	C	1.033929	0.193536	1.070377
C43	C	0.506124	-0.341546	0.503436
C44	C	1.006124	0.158454	1.003436
C45	C	0.544069	-0.376634	0.436467
C46	C	1.044069	0.123366	0.936467
C47	C	0.609811	-0.376644	0.436458
C48	C	1.109811	0.123356	0.936458
N49	N	0.403475	-0.396000	0.495271
N50	N	0.903475	0.104000	0.995271
N51	N	0.341023	-0.395988	0.495286
N52	N	0.841023	0.104012	0.995286
C53	C	0.308048	-0.341515	0.503459
C54	C	0.808048	0.158485	1.003459
N55	N	0.339884	-0.287054	0.511637
N56	N	0.839884	0.212946	1.011637
N57	N	0.402342	-0.287066	0.511627
N58	N	0.902342	0.212934	1.011627
C59	C	0.434839	-0.341538	0.503439
C60	C	0.934839	0.158462	1.003439
C61	C	0.198826	-0.306408	0.570423
C62	C	0.698826	0.193592	1.070423
C63	C	0.133082	-0.306390	0.570420
C64	C	0.633082	0.193610	1.070420
C65	C	0.143223	-0.376565	0.436515
C66	C	0.643223	0.123435	0.936515
C67	C	0.208966	-0.376577	0.436513
C68	C	0.708966	0.123423	0.936513
C69	C	0.236763	-0.341500	0.503473
C70	C	0.736763	0.158500	1.003473
C71	C	0.871051	-0.505058	0.503381
C72	C	1.371051	-0.005058	1.003381
C73	C	0.871073	-0.575027	0.503394
C74	C	1.371073	-0.075027	1.003394
C75	C	0.906201	-0.612933	0.570283
C76	C	1.406201	-0.112933	1.070283
C77	C	0.906221	-0.678678	0.570309
C78	C	1.406221	-0.178678	1.070309
C79	C	0.871121	-0.706512	0.503427
C80	C	1.371121	-0.206512	1.003427
C81	C	0.835986	-0.668597	0.436533
C82	C	1.335986	-0.168597	0.936533
C83	C	0.835962	-0.602854	0.436516
C84	C	1.335962	-0.102854	0.936516
N85	N	0.873367	-0.802782	0.411975
N86	N	1.373367	-0.302782	0.911975
N87	N	0.873394	-0.865235	0.411994
N88	N	1.373394	-0.365235	0.911994
C89	C	0.871191	-0.904590	0.503474
C90	C	1.371191	-0.404590	1.003474
N91	N	0.868974	-0.879133	0.594936
N92	N	1.368974	-0.379133	1.094936
N93	N	0.868951	-0.816674	0.594916
N94	N	1.368951	-0.316674	1.094916
C95	C	0.871144	-0.777798	0.503437
C96	C	1.371144	-0.277798	1.003437
C97	C	0.906343	-1.013785	0.570396
C98	C	1.406343	-0.513785	1.070396
C99	C	0.906358	-1.079530	0.570424
C100	C	1.406358	-0.579530	1.070424
C101	C	0.836128	-1.069448	0.436639
C102	C	1.336128	-0.569448	0.936639
C103	C	0.836108	-1.003704	0.436621
C104	C	1.336108	-0.503704	0.936621
C105	C	0.871219	-0.975876	0.503498
C106	C	1.371219	-0.475876	1.003498
C107	C	1.035315	-0.341482	0.503464
C108	C	1.535315	0.158518	1.003464
C109	C	1.105282	-0.341471	0.503477
C110	C	1.605282	0.158529	1.003477
C111	C	0.850301	-0.362309	0.775990
C112	C	1.350301	0.137691	1.275990
C113	C	0.841427	-0.371172	0.892137
C114	C	1.341427	0.128828	1.392137
C115	C	0.871219	-0.177326	0.503510
C116	C	1.371219	0.322674	1.003510
C117	C	0.871258	-0.107360	0.503543
C118	C	1.371258	0.392640	1.003543
C119	C	0.891907	-0.320746	0.231939
C120	C	1.391907	0.179254	0.731939
C121	C	0.900904	-0.311706	0.115792
C122	C	1.400904	0.188294	0.615792
C123	C	0.875749	-0.336862	0.943944
C124	C	1.375749	0.163138	1.443944
C125	C	0.866577	-0.346021	1.063988
C126	C	1.366577	0.153979	1.563988
H127	H	0.102195	-0.277814	0.624942
H128	H	0.602195	0.222186	1.124942
H129	H	0.805249	-0.407324	0.936656
H130	H	1.305249	0.092676	1.436656
H131	H	0.807545	-1.092110	0.382189
H132	H	1.307545	-0.592110	0.882189
H133	H	0.120585	-0.405129	0.382010
H134	H	0.620585	0.094871	0.882010
H135	H	0.503036	-0.277890	0.624899
H136	H	1.003036	0.222110	1.124899
H137	H	0.521427	-0.405197	0.381963
H138	H	1.021427	0.094803	0.881963
O139	O	0.249885	-0.414424	0.364295
O140	O	0.749885	0.085576	0.864295
H141	H	0.276251	-0.450058	0.410959
H142	H	0.776251	0.049942	0.910959
H143	H	0.911920	-0.300703	0.899425
H144	H	1.411920	0.199297	1.399425
H145	H	0.640700	-0.405217	0.381932
H146	H	1.140700	0.094783	0.881932
O147	O	0.228816	-0.268567	0.642624
O148	O	0.728816	0.231433	1.142624
H149	H	0.191389	-0.244156	0.689171
H150	H	0.691389	0.255844	1.189171
H151	H	0.830397	-0.382176	1.108503
H152	H	1.330397	0.117824	1.608503
O153	O	0.944080	-0.582916	0.642393
O154	O	1.444080	-0.082916	1.142393
H155	H	0.968513	-0.620324	0.688907
H156	H	1.468513	-0.120324	1.188907
O157	O	0.944110	-0.719578	0.642452
O158	O	1.444110	-0.219578	1.142452
H159	H	0.994884	-0.705550	0.624589
H160	H	1.494884	-0.205550	1.124589
O161	O	0.629657	-0.268636	0.642571
O162	O	1.129657	0.231364	1.142571
H163	H	0.592228	-0.244229	0.689120
H164	H	1.092228	0.255771	1.189120
H165	H	0.934963	-1.110394	0.624898
H166	H	1.434963	-0.610394	1.124898
H167	H	0.937077	-0.275544	1.071279
H168	H	1.437077	0.224456	1.571279
H169	H	0.807356	-0.571990	0.382046
H170	H	1.307356	-0.071990	0.882046
O171	O	0.798137	-0.698611	0.364380
O172	O	1.298137	-0.198611	0.864380
H173	H	0.804063	-0.750694	0.375616
H174	H	1.304063	-0.250694	0.875616
H175	H	0.807507	-0.972838	0.382149
H176	H	1.307507	-0.472838	0.882149
O177	O	0.944203	-0.983763	0.642532
O178	O	1.444203	-0.483763	1.142532
H179	H	0.968626	-1.021171	0.689062
H180	H	1.468626	-0.521171	1.189062
