data_functionalizedCrystal
_audit_creation_method	'MofGen! by Chris Wilmer'
_symmetry_space_group_name_H-M	'P1'
_symmetry_Int_Tables_number	1
_symmetry_cell_setting	triclinic
loop_
_symmetry_equiv_pos_as_xyz
  x,y,z
_cell_length_a	29.839134
_cell_length_b	18.101396
_cell_length_c	29.839135
_cell_angle_alpha	89.997490
_cell_angle_beta	89.982086
_cell_angle_gamma	90.032371
loop_
_atom_site_label
_atom_site_type_symbol
_atom_site_fract_x
_atom_site_fract_y
_atom_site_fract_z
Zn1	Zn	-0.686708	0.295099	0.254161
Zn2	Zn	-0.186708	0.795099	0.754161
Zn3	Zn	-0.686653	0.418895	0.179038
Zn4	Zn	-0.186653	0.918895	0.679038
Zn5	Zn	-0.611598	0.295062	0.179029
Zn6	Zn	-0.111598	0.795062	0.679029
Zn7	Zn	-0.611544	0.418894	0.254124
Zn8	Zn	-0.111544	0.918894	0.754124
O9	O	-0.649126	0.356988	0.216588
O10	O	-0.149126	0.856988	0.716588
O11	O	-0.749568	0.311538	0.244215
O12	O	-0.249568	0.811538	0.744215
O13	O	-0.676697	0.402454	0.116170
O14	O	-0.176697	0.902454	0.616170
O15	O	-0.621607	0.191434	0.189007
O16	O	-0.121607	0.691434	0.689007
O17	O	-0.749528	0.402490	0.189023
O18	O	-0.249528	0.902490	0.689023
O19	O	-0.676790	0.191462	0.244206
O20	O	-0.176790	0.691462	0.744206
O21	O	-0.621554	0.311474	0.116163
O22	O	-0.121554	0.811474	0.616163
O23	O	-0.548724	0.311472	0.188971
O24	O	-0.048724	0.811472	0.688971
O25	O	-0.621515	0.402487	0.316996
O26	O	-0.121515	0.902487	0.816996
O27	O	-0.548684	0.402451	0.244143
O28	O	-0.048684	0.902451	0.744143
O29	O	-0.676737	0.311536	0.317023
O30	O	-0.176737	0.811536	0.817023
O31	O	-0.676644	0.522528	0.188986
O32	O	-0.176644	1.022528	0.688986
O33	O	-0.621462	0.522527	0.244152
O34	O	-0.121462	1.022527	0.744152
C35	C	-0.532403	0.356958	0.216552
C36	C	-0.032403	0.856958	0.716552
C37	C	-0.482469	0.356963	0.216547
C38	C	0.017531	0.856963	0.716547
C39	C	-0.172814	0.404437	0.245267
C40	C	0.327186	0.904437	0.745267
C41	C	0.014859	0.404460	0.245281
C42	C	0.514859	0.904460	0.745281
O43	O	0.039133	0.444786	0.269687
O44	O	0.539133	0.944786	0.769687
N45	N	0.038316	0.357024	0.216601
N46	N	0.538316	0.857024	0.716601
C47	C	0.014853	0.309576	0.187918
C48	C	0.514853	0.809576	0.687918
O49	O	0.039111	0.269224	0.163528
O50	O	0.539111	0.769224	0.663528
C51	C	-0.172820	0.309549	0.187906
C52	C	0.327180	0.809549	0.687906
C53	C	-0.196275	0.356993	0.216585
C54	C	0.303725	0.856993	0.716585
C55	C	-0.196269	0.451876	0.273943
C56	C	0.303731	0.951876	0.773943
C57	C	-0.243185	0.451873	0.273938
C58	C	0.256815	0.951873	0.773938
C59	C	-0.266645	0.404430	0.245256
C60	C	0.233355	0.904430	0.745256
C61	C	-0.243190	0.356990	0.216579
C62	C	0.256810	0.856990	0.716579
C63	C	-0.196282	0.262098	0.159225
C64	C	0.303718	0.762098	0.659225
C65	C	-0.243203	0.262094	0.159226
C66	C	0.256797	0.762094	0.659226
C67	C	-0.266658	0.309538	0.187904
C68	C	0.233342	0.809538	0.687904
C69	C	-0.313566	0.309543	0.187891
C70	C	0.186434	0.809543	0.687891
N71	N	-0.337023	0.356979	0.216571
N72	N	0.162977	0.856979	0.716571
C73	C	-0.313563	0.404422	0.245253
C74	C	0.186437	0.904422	0.745253
C75	C	0.113383	0.309594	0.187925
C76	C	0.613383	0.809594	0.687925
C77	C	0.160301	0.309602	0.187928
C78	C	0.660301	0.809602	0.687928
C79	C	0.160304	0.404485	0.245292
C80	C	0.660304	0.904485	0.745292
C81	C	0.113385	0.404481	0.245287
C82	C	0.613385	0.904481	0.745287
C83	C	0.089926	0.357030	0.216605
C84	C	0.589926	0.857030	0.716605
C85	C	-0.412089	0.404412	0.245239
C86	C	0.087911	0.904412	0.745239
C87	C	-0.459008	0.404406	0.245230
C88	C	0.040992	0.904406	0.745230
C89	C	-0.459007	0.309520	0.187867
C90	C	0.040993	0.809520	0.687867
C91	C	-0.412092	0.309528	0.187875
C92	C	0.087908	0.809528	0.687875
C93	C	-0.388634	0.356976	0.216564
C94	C	0.111366	0.856976	0.716564
O95	O	-0.337869	0.269233	0.163501
O96	O	0.162131	0.769233	0.663501
O97	O	-0.337829	0.444757	0.269647
O98	O	0.162171	0.944757	0.769647
C99	C	-0.125899	0.404440	0.245272
C100	C	0.374101	0.904440	0.745272
C101	C	-0.102444	0.357001	0.216596
C102	C	0.397556	0.857001	0.716596
C103	C	-0.125904	0.309557	0.187914
C104	C	0.374096	0.809557	0.687914
C105	C	-0.055526	0.357008	0.216598
C106	C	0.444474	0.857008	0.716598
C107	C	-0.032065	0.404451	0.245280
C108	C	0.467935	0.904451	0.745280
C109	C	-0.055523	0.451887	0.273960
C110	C	0.444477	0.951887	0.773960
C111	C	-0.102438	0.451884	0.273955
C112	C	0.397562	0.951884	0.773955
C113	C	-0.102447	0.262121	0.159234
C114	C	0.397553	0.762121	0.659234
C115	C	-0.055531	0.262129	0.159241
C116	C	0.444469	0.762129	0.659241
C117	C	-0.032071	0.309573	0.187924
C118	C	0.467929	0.809573	0.687924
C119	C	-0.649054	0.549398	0.216576
C120	C	-0.149054	1.049398	0.716576
C121	C	-0.649064	0.631712	0.216586
C122	C	-0.149064	1.131712	0.716586
C123	C	0.233696	0.357022	0.216617
C124	C	0.733696	0.857022	0.716617
C125	C	0.183762	0.357045	0.216610
C126	C	0.683762	0.857045	0.716610
C127	C	-0.649144	0.930803	0.216612
C128	C	-0.149144	1.430803	0.716612
C129	C	-0.614507	0.899508	0.251407
C130	C	-0.114507	1.399508	0.751407
C131	C	-0.614348	0.813890	0.251297
C132	C	-0.114348	1.313890	0.751297
C133	C	-0.649104	0.782421	0.216600
C134	C	-0.149104	1.282421	0.716600
C135	C	-0.636295	0.813537	0.169250
C136	C	-0.136295	1.313537	0.669250
C137	C	-0.636066	0.899183	0.169459
C138	C	-0.136066	1.399183	0.669459
C139	C	-0.696668	0.899162	0.228750
C140	C	-0.196668	1.399162	0.728750
C141	C	-0.696393	0.813511	0.229788
C142	C	-0.196393	1.313511	0.729788
C143	C	-0.649082	0.698561	0.216589
C144	C	-0.149082	1.198561	0.716589
C145	C	-0.649164	1.014663	0.216619
C146	C	-0.149164	1.514663	0.716619
C147	C	-0.649126	0.357015	0.333766
C148	C	-0.149126	0.857015	0.833766
C149	C	-0.649126	0.357027	0.383701
C150	C	-0.149126	0.857027	0.883701
C151	C	-0.649195	1.163826	0.216611
C152	C	-0.149195	1.663826	0.716611
C153	C	-0.649184	1.081512	0.216626
C154	C	-0.149184	1.581512	0.716626
C155	C	-0.677880	0.309635	0.693361
C156	C	-0.177880	0.809635	1.193361
C157	C	-0.677883	0.309626	0.881034
C158	C	-0.177883	0.809626	1.381034
O159	O	-0.702321	0.269332	0.905314
O160	O	-0.202321	0.769332	1.405314
N161	N	-0.649133	0.356980	0.904486
N162	N	-0.149133	0.856980	1.404486
C163	C	-0.620379	0.404336	0.881016
C164	C	-0.120379	0.904336	1.381016
O165	O	-0.595922	0.444608	0.905269
O166	O	-0.095922	0.944608	1.405269
C167	C	-0.620373	0.404340	0.693344
C168	C	-0.120373	0.904340	1.193344
C169	C	-0.649128	0.356989	0.669895
C170	C	-0.149128	0.856989	1.169895
C171	C	-0.706632	0.262286	0.669912
C172	C	-0.206632	0.762286	1.169912
C173	C	-0.706632	0.262292	0.622997
C174	C	-0.206632	0.762292	1.122997
C175	C	-0.677881	0.309646	0.599530
C176	C	-0.177881	0.809646	1.099530
C177	C	-0.649129	0.356994	0.622979
C178	C	-0.149129	0.856994	1.122979
C179	C	-0.591617	0.451692	0.669875
C180	C	-0.091617	0.951692	1.169875
C181	C	-0.591617	0.451688	0.622954
C182	C	-0.091617	0.951688	1.122954
C183	C	-0.620372	0.404336	0.599505
C184	C	-0.120372	0.904336	1.099505
C185	C	-0.620378	0.404353	0.552598
C186	C	-0.120378	0.904353	1.052598
N187	N	-0.649128	0.357000	0.529146
N188	N	-0.149128	0.857000	1.029146
C189	C	-0.677879	0.309646	0.552613
C190	C	-0.177879	0.809646	1.052613
C191	C	-0.620384	0.404332	0.979547
C192	C	-0.120384	0.904332	1.479547
C193	C	-0.620386	0.404332	1.026465
C194	C	-0.120386	0.904332	1.526465
C195	C	-0.677890	0.309621	1.026480
C196	C	-0.177890	0.809621	1.526480
C197	C	-0.677890	0.309625	0.979561
C198	C	-0.177890	0.809625	1.479561
C199	C	-0.649134	0.356978	0.956095
C200	C	-0.149134	0.856978	1.456095
C201	C	-0.677878	0.309661	0.454087
C202	C	-0.177878	0.809661	0.954087
C203	C	-0.677878	0.309673	0.407167
C204	C	-0.177878	0.809673	0.907167
C205	C	-0.620372	0.404381	0.407156
C206	C	-0.120372	0.904381	0.907156
C207	C	-0.620375	0.404372	0.454072
C208	C	-0.120375	0.904372	0.954072
C209	C	-0.649129	0.357006	0.477536
C210	C	-0.149129	0.857006	0.977536
O211	O	-0.595949	0.444620	0.528289
O212	O	-0.095949	0.944620	1.028289
O213	O	-0.702325	0.269368	0.528351
O214	O	-0.202325	0.769368	1.028351
C215	C	-0.677879	0.309629	0.740277
C216	C	-0.177879	0.809629	1.240277
C217	C	-0.649127	0.356978	0.763726
C218	C	-0.149127	0.856978	1.263726
C219	C	-0.620375	0.404332	0.740259
C220	C	-0.120375	0.904332	1.240259
C221	C	-0.649129	0.356978	0.810644
C222	C	-0.149129	0.856978	1.310644
C223	C	-0.677880	0.309624	0.834110
C224	C	-0.177880	0.809624	1.334110
C225	C	-0.706630	0.262270	0.810659
C226	C	-0.206630	0.762270	1.310659
C227	C	-0.706630	0.262276	0.763743
C228	C	-0.206630	0.762276	1.263743
C229	C	-0.591626	0.451685	0.763711
C230	C	-0.091626	0.951685	1.263711
C231	C	-0.591628	0.451677	0.810626
C232	C	-0.091628	0.951677	1.310626
C233	C	-0.620379	0.404323	0.834093
C234	C	-0.120379	0.904323	1.334093
C235	C	-0.649126	0.356980	1.099865
C236	C	-0.149126	0.856980	1.599865
C237	C	-0.649137	0.356978	1.049931
C238	C	-0.149137	0.856978	1.549931
H239	H	-0.036413	0.490519	0.297313
H240	H	0.463587	0.990519	0.797313
H241	H	-0.601926	0.792141	0.158784
H242	H	-0.101926	1.292141	0.658784
C243	C	-0.588746	0.456462	0.381337
C244	C	-0.088746	0.956462	0.881337
H245	H	-0.592863	0.449673	0.350037
H246	H	-0.092863	0.949673	0.850037
H247	H	-0.595293	0.506225	0.389024
H248	H	-0.095293	1.006225	0.889024
H249	H	-0.558565	0.445604	0.389016
H250	H	-0.058565	0.945604	0.889016
H251	H	-0.036438	0.223495	0.135884
H252	H	0.463562	0.723495	0.635884
H253	H	-0.708345	0.920735	0.262690
H254	H	-0.208345	1.420735	0.762690
H255	H	-0.392994	0.270897	0.164522
H256	H	0.107006	0.770897	0.664522
H257	H	-0.723567	0.792086	0.206293
H258	H	-0.223567	1.292086	0.706293
C259	C	-0.709515	0.257528	1.052296
C260	C	-0.209515	0.757528	1.552296
H261	H	-0.726640	0.229324	1.031614
H262	H	-0.226640	0.729324	1.531614
H263	H	-0.692340	0.225263	1.070595
H264	H	-0.192340	0.725263	1.570595
H265	H	-0.729079	0.285866	1.070604
H266	H	-0.229079	0.785866	1.570604
H267	H	-0.262302	0.223448	0.135872
H268	H	0.237698	0.723448	0.635872
C269	C	-0.709449	0.786029	0.276859
C270	C	-0.209449	1.286029	0.776859
H271	H	-0.686181	0.755729	0.288428
H272	H	-0.186181	1.255729	0.788428
H273	H	-0.713823	0.827174	0.296125
H274	H	-0.213823	1.327174	0.796125
H275	H	-0.736394	0.758208	0.275059
H276	H	-0.236394	1.258208	0.775059
H277	H	-0.601327	0.919214	0.159177
H278	H	-0.101327	1.419214	0.659177
H279	H	-0.596976	0.442898	1.045553
H280	H	-0.096976	0.942898	1.545553
H281	H	-0.596968	0.442897	0.960445
H282	H	-0.096968	0.942897	1.460445
H283	H	-0.701295	0.271113	0.388077
H284	H	-0.201295	0.771113	0.888077
H285	H	-0.579124	0.793457	0.243256
H286	H	-0.079124	1.293457	0.743256
H287	H	-0.730045	0.223717	0.744655
H288	H	-0.230045	0.723717	1.244655
C289	C	-0.731520	0.926424	0.194486
C290	C	-0.231520	1.426424	0.694486
H291	H	-0.717204	0.956950	0.172891
H292	H	-0.217204	1.456950	0.672891
H293	H	-0.744768	0.885184	0.179916
H294	H	-0.244768	1.385184	0.679916
H295	H	-0.754080	0.953952	0.209504
H296	H	-0.254080	1.453952	0.709504
C297	C	-0.668660	0.927154	0.133237
C298	C	-0.168660	1.427154	0.633237
H299	H	-0.681980	0.886172	0.118457
H300	H	-0.181980	1.386172	0.618457
H301	H	-0.691375	0.956277	0.146842
H302	H	-0.191375	1.456277	0.646842
H303	H	-0.652727	0.956257	0.112056
H304	H	-0.152727	1.456257	0.612056
H305	H	-0.730042	0.223715	0.829773
H306	H	-0.230042	0.723715	1.329773
C307	C	-0.559995	0.503766	0.836415
C308	C	-0.059995	1.003766	1.336415
H309	H	-0.542870	0.531961	0.815715
H310	H	-0.042870	1.031961	1.315715
H311	H	-0.577160	0.536040	0.854726
H312	H	-0.077160	1.036040	1.354726
H313	H	-0.540430	0.475421	0.854708
H314	H	-0.040430	0.975421	1.354708
C315	C	-0.559998	0.503778	0.737904
C316	C	-0.059998	1.003778	1.237904
H317	H	-0.542880	0.531979	0.758594
H318	H	-0.042880	1.031979	1.258594
H319	H	-0.540434	0.475452	0.719594
H320	H	-0.040434	0.975452	1.219594
H321	H	-0.577171	0.536058	0.719609
H322	H	-0.077171	1.036058	1.219609
C323	C	-0.625176	0.927391	0.298980
C324	C	-0.125176	1.427391	0.798980
H325	H	-0.650853	0.958361	0.298052
H326	H	-0.150853	1.458361	0.798052
H327	H	-0.630894	0.886453	0.318067
H328	H	-0.130894	1.386453	0.818067
H329	H	-0.600353	0.954604	0.310167
H330	H	-0.100353	1.454604	0.810167
H331	H	-0.478117	0.270896	0.164514
H332	H	0.021883	0.770896	0.664514
H333	H	0.094291	0.443113	0.268640
H334	H	0.594291	0.943113	0.768640
H335	H	-0.392995	0.443047	0.268602
H336	H	0.107005	0.943047	0.768602
C337	C	-0.484806	0.456593	0.276779
C338	C	0.015194	0.956593	0.776779
H339	H	-0.464112	0.484842	0.293865
H340	H	0.035888	0.984842	0.793865
H341	H	-0.503092	0.488813	0.259560
H342	H	-0.003092	0.988813	0.759560
H343	H	-0.503125	0.428312	0.296384
H344	H	-0.003125	0.928312	0.796384
H345	H	-0.701291	0.271089	0.473186
H346	H	-0.201291	0.771089	0.973186
C347	C	-0.738258	0.210197	0.597209
C348	C	-0.238258	0.710197	1.097209
H349	H	-0.755376	0.181993	0.617910
H350	H	-0.255376	0.681993	1.117910
H351	H	-0.757823	0.238524	0.578910
H352	H	-0.257823	0.738524	1.078910
H353	H	-0.721084	0.177921	0.578904
H354	H	-0.221084	0.677921	1.078904
H355	H	-0.660732	0.793152	0.142618
H356	H	-0.160732	1.293152	0.642618
C357	C	-0.128247	0.209937	0.127678
C358	C	0.371753	0.709937	0.627678
H359	H	-0.107553	0.181695	0.110598
H360	H	0.392447	0.681695	0.610598
H361	H	-0.146569	0.177711	0.144889
H362	H	0.353431	0.677711	0.644889
H363	H	-0.146529	0.238218	0.108069
H364	H	0.353471	0.738218	0.608069
C365	C	0.186116	0.456666	0.276845
C366	C	0.686116	0.956666	0.776845
H367	H	0.217417	0.449867	0.272739
H368	H	0.717417	0.949867	0.772739
H369	H	0.178448	0.506409	0.270224
H370	H	0.678448	1.006409	0.770224
H371	H	0.178414	0.445899	0.307041
H372	H	0.678414	0.945899	0.807041
C373	C	-0.567208	0.928646	0.240680
C374	C	-0.067208	1.428646	0.740680
H375	H	-0.568476	0.959798	0.215089
H376	H	-0.068476	1.459798	0.715089
H377	H	-0.556163	0.955905	0.265540
H378	H	-0.056163	1.455905	0.765540
H379	H	-0.547804	0.888204	0.234785
H380	H	-0.047804	1.388204	0.734785
H381	H	-0.622361	0.792851	0.286406
H382	H	-0.122361	1.292851	0.786406
C383	C	-0.268979	0.504053	0.305490
C384	C	0.231021	1.004053	0.805490
H385	H	-0.248282	0.532299	0.322574
H386	H	0.251718	1.032299	0.822574
H387	H	-0.287268	0.536276	0.288275
H388	H	0.212732	1.036276	0.788275
H389	H	-0.287295	0.475770	0.325096
H390	H	0.212705	0.975770	0.825096
H391	H	-0.730045	0.223721	0.689014
H392	H	-0.230045	0.723721	1.189014
C393	C	-0.709515	0.257531	0.953771
C394	C	-0.209515	0.757531	1.453771
H395	H	-0.726635	0.229328	0.974471
H396	H	-0.226635	0.729328	1.474471
H397	H	-0.729077	0.285857	0.935471
H398	H	-0.229077	0.785857	1.435471
H399	H	-0.692339	0.225253	0.935468
H400	H	-0.192339	0.725253	1.435468
C401	C	-0.559996	0.503795	0.597144
C402	C	-0.059996	1.003795	1.097144
H403	H	-0.542878	0.532001	0.617832
H404	H	-0.042878	1.032001	1.117832
H405	H	-0.540431	0.475480	0.578829
H406	H	-0.040431	0.975480	1.078829
H407	H	-0.577178	0.536070	0.578854
H408	H	-0.077178	1.036070	1.078854
H409	H	-0.568202	0.490251	0.688959
H410	H	-0.068202	0.990251	1.188959
H411	H	0.094287	0.270953	0.164567
H412	H	0.594287	0.770953	0.664567
C413	C	-0.588748	0.456462	0.479866
C414	C	-0.088748	0.956462	0.979866
H415	H	-0.571624	0.484663	0.459169
H416	H	-0.071624	0.984663	0.959169
H417	H	-0.605917	0.488731	0.498178
H418	H	-0.105917	0.988731	0.998178
H419	H	-0.569183	0.428119	0.498159
H420	H	-0.069183	0.928119	0.998159
H421	H	0.179394	0.270975	0.164570
H422	H	0.679394	0.770975	0.664570
C423	C	-0.170470	0.504070	0.305496
C424	C	0.329530	1.004070	0.805496
H425	H	-0.191165	0.532320	0.322569
H426	H	0.308835	1.032320	0.822569
H427	H	-0.152181	0.475807	0.325104
H428	H	0.347819	0.975807	0.825104
H429	H	-0.152154	0.536299	0.288276
H430	H	0.347846	1.036299	0.788276
H431	H	-0.177193	0.223465	0.135871
H432	H	0.322807	0.723465	0.635871
H433	H	-0.121531	0.490517	0.297308
H434	H	0.378469	0.990517	0.797308
