data_functionalizedCrystal
_audit_creation_method	'MofGen! by Chris Wilmer'
_symmetry_space_group_name_H-M	'P1'
_symmetry_Int_Tables_number	1
_symmetry_cell_setting	triclinic
loop_
_symmetry_equiv_pos_as_xyz
  x,y,z
_cell_length_a	14.908783
_cell_length_b	29.839131
_cell_length_c	14.908662
_cell_angle_alpha	93.258598
_cell_angle_beta	83.203450
_cell_angle_gamma	93.325426
loop_
_atom_site_label
_atom_site_type_symbol
_atom_site_fract_x
_atom_site_fract_y
_atom_site_fract_z
Zn1	Zn	1.413307	-0.155294	-0.591705
Zn2	Zn	1.404436	-0.226330	-0.440305
Zn3	Zn	1.253203	-0.155305	-0.431610
Zn4	Zn	1.261858	-0.234490	-0.582874
O5	O	1.333201	-0.192855	-0.511623
O6	O	1.538804	-0.161298	-0.578957
O7	O	1.377040	-0.213498	-0.312486
O8	O	1.274532	-0.092436	-0.452903
O9	O	1.532286	-0.213488	-0.467724
O10	O	1.392160	-0.092428	-0.570525
O11	O	1.265930	-0.161316	-0.306097
O12	O	1.127678	-0.169229	-0.444340
O13	O	1.289283	-0.227395	-0.710711
O14	O	1.134037	-0.227406	-0.555473
O15	O	1.400552	-0.169210	-0.717199
O16	O	1.385432	-0.290281	-0.459161
O17	O	1.280681	-0.296276	-0.563905
C18	C	1.098013	-0.199204	-0.498005
C19	C	0.997399	-0.201932	-0.492200
C20	C	0.815131	-0.152796	-0.597296
C21	C	0.720596	-0.155357	-0.591845
C22	C	0.713792	-0.209613	-0.475843
C23	C	0.808327	-0.207052	-0.481294
C24	C	0.858993	-0.178643	-0.542024
C25	C	0.953530	-0.176084	-0.547479
C26	C	0.946724	-0.230338	-0.431473
C27	C	0.852189	-0.232899	-0.426022
C28	C	1.333059	-0.309579	-0.511539
C29	C	1.333082	-0.359513	-0.511538
C30	C	1.394442	-0.669119	-0.572951
C31	C	1.394543	-0.856791	-0.573011
O32	O	1.446575	-0.881026	-0.625161
N33	N	1.333361	-0.880296	-0.511733
C34	C	1.272144	-0.856880	-0.450439
O35	O	1.220101	-0.881179	-0.398326
C36	C	1.272039	-0.669209	-0.450384
C37	C	1.333232	-0.645707	-0.511660
C38	C	1.455629	-0.645616	-0.634222
C39	C	1.455607	-0.598701	-0.634203
C40	C	1.394397	-0.575288	-0.572913
C41	C	1.333209	-0.598791	-0.511641
C42	C	1.210819	-0.645795	-0.389096
C43	C	1.210797	-0.598874	-0.389089
C44	C	1.271990	-0.575371	-0.450365
C45	C	1.271977	-0.528463	-0.450332
N46	N	1.333160	-0.504958	-0.511610
C47	C	1.394370	-0.528371	-0.572900
C48	C	1.272205	-0.955410	-0.450471
C49	C	1.272232	-1.002327	-0.450484
C50	C	1.394630	-1.002235	-0.573057
C51	C	1.394607	-0.955316	-0.573039
C52	C	1.333388	-0.931905	-0.511749
C53	C	1.394318	-0.429845	-0.572855
C54	C	1.394292	-0.382926	-0.572829
C55	C	1.271891	-0.383022	-0.450259
C56	C	1.271920	-0.429938	-0.450283
C57	C	1.333136	-0.453348	-0.511588
O58	O	1.219966	-0.504200	-0.398215
O59	O	1.446392	-0.504065	-0.625019
C60	C	1.394465	-0.716034	-0.572970
C61	C	1.333278	-0.739537	-0.511698
C62	C	1.272068	-0.716125	-0.450407
C63	C	1.333305	-0.786455	-0.511710
C64	C	1.394515	-0.809867	-0.573001
C65	C	1.455697	-0.786362	-0.634279
C66	C	1.455675	-0.739447	-0.634260
C67	C	1.210885	-0.739629	-0.389129
C68	C	1.210913	-0.786545	-0.389153
C69	C	1.272123	-0.809957	-0.450443
C70	C	1.569308	-0.186482	-0.525296
C71	C	1.669923	-0.183765	-0.531122
C72	C	1.346873	-0.199212	-0.747716
C73	C	1.352699	-0.201921	-0.848325
C74	C	1.333370	-0.075675	-0.511729
C75	C	1.333442	-0.025740	-0.511774
C76	C	1.418748	-0.232904	-0.993457
C77	C	1.413281	-0.230361	-0.898927
C78	C	1.297578	-0.176023	-0.892260
C79	C	1.303046	-0.178566	-0.986791
C80	C	1.363634	-0.207007	-1.037386
C81	C	1.369105	-0.209547	-1.131919
C82	C	1.253398	-0.155212	-1.125250
C83	C	1.247931	-0.152668	-1.030720
C84	C	1.319635	-0.186489	-0.276452
C85	C	1.313984	-0.183649	-0.175854
H86	H	0.684887	-0.134308	-0.636852
N87	N	1.480625	-0.261954	-1.045158
N88	N	1.485495	-0.264221	-1.129559
H89	H	1.529196	-0.284738	-1.166073
H90	H	1.198600	-0.129514	-0.989512
N91	N	0.800433	-0.261924	-0.364006
N92	N	0.811287	-0.303256	-0.370465
H93	H	0.774736	-0.323757	-0.326667
N94	N	0.866891	-0.123773	-0.659315
N95	N	0.917824	-0.092837	-0.630618
H96	H	0.954380	-0.072338	-0.674419
H97	H	1.458164	-0.251448	-0.863164
N98	N	1.148342	-0.715722	-0.326528
N99	N	1.065157	-0.723421	-0.327633
H100	H	1.020981	-0.706540	-0.283415
N101	N	0.662015	-0.238624	-0.413812
N102	N	0.577610	-0.240903	-0.408953
H103	H	0.541040	-0.261392	-0.365143
H104	H	1.222412	-1.021459	-0.400578
H105	H	0.982447	-0.251388	-0.386473
N106	N	1.005273	-0.147059	-0.609504
N107	N	0.994412	-0.105728	-0.603044
H108	H	1.030953	-0.085226	-0.646849
H109	H	1.444126	-0.363791	-0.622727
N110	N	1.456852	-0.453747	-0.635484
N111	N	1.511475	-0.432750	-0.690181
H112	H	1.555644	-0.449629	-0.734411
H113	H	1.222098	-0.449074	-0.400380
H114	H	1.505432	-0.579568	-0.684102
N115	N	1.518235	-0.810282	-0.696875
N116	N	1.574112	-0.834031	-0.668420
H117	H	1.618275	-0.850926	-0.712627
H118	H	1.505474	-0.664674	-0.684138
H119	H	1.444435	-0.936183	-0.622936
N120	N	1.457155	-1.026162	-0.635654
N121	N	1.457162	-1.068052	-0.635648
H122	H	1.501314	-1.084953	-0.679857
N123	N	1.235687	-0.146982	-0.840556
N124	N	1.230810	-0.144721	-0.756155
H125	H	1.187097	-0.124212	-0.719636
H126	H	1.222352	-0.936351	-0.400559
N127	N	1.148294	-0.669788	-0.326507
N128	N	1.093641	-0.648870	-0.271807
H129	H	1.049473	-0.665814	-0.227604
N130	N	1.197114	-0.128753	-1.170138
N131	N	1.202012	-0.131021	-1.254540
H132	H	1.162268	-0.112333	-1.286244
H133	H	1.160942	-0.579815	-0.339180
H134	H	1.505503	-0.720314	-0.684157
N135	N	1.209385	-0.359094	-0.387652
N136	N	1.209382	-0.317204	-0.387651
H137	H	1.165236	-0.300303	-0.343436
N138	N	1.148414	-0.810549	-0.326543
N139	N	1.149643	-0.802917	-0.243374
H140	H	1.105501	-0.819869	-0.199160
N141	N	1.431006	-0.238589	-1.183608
N142	N	1.513928	-0.233067	-1.177895
H143	H	1.557648	-0.253577	-1.214400
