data_functionalizedCrystal
_audit_creation_method	'MofGen! by Chris Wilmer'
_symmetry_space_group_name_H-M	'P1'
_symmetry_Int_Tables_number	1
_symmetry_cell_setting	triclinic
loop_
_symmetry_equiv_pos_as_xyz
  x,y,z
_cell_length_a	10.654550
_cell_length_b	14.853567
_cell_length_c	9.130313
_cell_angle_alpha	90.002541
_cell_angle_beta	89.996220
_cell_angle_gamma	84.059917
loop_
_atom_site_label
_atom_site_type_symbol
_atom_site_fract_x
_atom_site_fract_y
_atom_site_fract_z
O1	O	1.666519	0.126622	-0.121906
O2	O	1.300915	0.138686	-0.121881
O3	O	1.493483	0.001476	-0.121899
O4	O	1.473951	0.263831	-0.121889
O5	O	1.493480	0.001480	0.121700
O6	O	1.300912	0.138690	0.121717
O7	O	1.666516	0.126626	0.121693
Cu8	Cu	1.483714	0.132658	0.143948
Cu9	Cu	1.483717	0.132654	-0.144136
O10	O	1.473948	0.263835	0.121710
C11	C	1.254125	0.137802	-0.000079
C12	C	1.114709	0.135152	-0.000070
C13	C	1.492596	-0.032115	-0.000104
C14	C	1.489944	-0.132213	-0.000116
C15	C	1.034384	0.215939	-0.000088
C16	C	0.903389	0.213443	-0.000114
C17	C	0.933057	0.049367	-0.000109
C18	C	1.064050	0.051863	-0.000073
C19	C	1.017254	0.310667	-0.000097
C20	C	0.886260	0.308171	-0.000123
C21	C	1.364344	-0.545419	-0.000080
C22	C	1.593119	-0.565475	-0.000095
C23	C	1.595613	-0.471428	-0.000104
C24	C	1.482470	-0.414372	-0.000099
C25	C	1.366834	-0.451363	-0.000084
C26	C	1.711247	-0.434430	-0.000104
C27	C	1.713745	-0.340378	-0.000111
C28	C	1.600601	-0.283320	-0.000116
C29	C	1.484961	-0.320316	-0.000103
C30	C	1.371818	-0.263260	-0.000097
C31	C	1.256176	-0.300254	-0.000095
C32	C	1.253691	-0.394305	-0.000089
C33	C	1.603087	-0.189269	-0.000122
C34	C	1.374308	-0.169204	-0.000102
C35	C	1.713306	0.127510	-0.000113
C36	C	1.852722	0.130160	-0.000131
C37	C	1.474835	0.297427	-0.000088
C38	C	1.477487	0.397525	-0.000085
N39	N	1.483721	0.132661	0.346570
N40	N	1.483720	0.132644	-0.346759
C41	C	1.569012	0.071925	0.423214
C42	C	1.569009	0.071914	0.576551
C43	C	1.398420	0.193382	0.576586
C44	C	1.398418	0.193388	0.423252
C45	C	1.667504	0.001799	0.423196
C46	C	1.667501	0.001788	0.576532
H47	H	1.129447	-0.013921	-0.000037
H48	H	1.685234	-0.611936	-0.000088
H49	H	1.758460	0.023756	0.375632
H50	H	1.637668	-0.063695	0.624079
C51	C	1.639499	-0.091811	0.366960
N52	N	1.618403	-0.162316	0.324604
C53	C	1.797632	0.022725	0.632753
N54	N	1.895632	0.038520	0.675098
H55	H	1.159541	-0.424435	-0.000086
H56	H	1.046200	0.347716	0.101855
H57	H	1.803361	-0.480892	-0.000095
H58	H	1.052598	0.340828	-0.105268
C59	C	0.824146	0.346867	0.141938
N60	N	0.777360	0.376018	0.248932
C61	C	0.829377	0.356379	-0.137859
N62	N	0.786534	0.392685	-0.241601
C63	C	1.840952	-0.299693	-0.000125
N64	N	1.936766	-0.269048	-0.000141
C65	C	0.877319	-0.042246	-0.000120
N66	N	0.835338	-0.111251	-0.000132
C67	C	1.131724	-0.237481	-0.000089
N68	N	1.037989	-0.190196	-0.000087
H69	H	1.282173	-0.122754	-0.000104
C70	C	1.237144	-0.586114	-0.000064
N71	N	1.141336	-0.616766	-0.000045
C72	C	1.304688	0.260271	0.338949
N73	N	1.234125	0.310678	0.275452
H74	H	1.697240	-0.159152	-0.000114
H75	H	1.328968	0.242825	0.639037
