data_functionalizedCrystal
_audit_creation_method	'MofGen! by Chris Wilmer'
_symmetry_space_group_name_H-M	'P1'
_symmetry_Int_Tables_number	1
_symmetry_cell_setting	triclinic
loop_
_symmetry_equiv_pos_as_xyz
  x,y,z
_cell_length_a	15.995292
_cell_length_b	15.995300
_cell_length_c	15.186229
_cell_angle_alpha	90.000802
_cell_angle_beta	89.995469
_cell_angle_gamma	83.470212
loop_
_atom_site_label
_atom_site_type_symbol
_atom_site_fract_x
_atom_site_fract_y
_atom_site_fract_z
O1	O	1.110995	0.107696	-0.073243
O2	O	0.867211	0.121075	-0.073239
O3	O	0.995789	-0.007506	-0.073246
O4	O	0.982417	0.236277	-0.073237
O5	O	0.995780	-0.007508	0.073212
O6	O	0.867202	0.121073	0.073218
O7	O	1.110987	0.107694	0.073214
Zn8	Zn	0.989093	0.114383	0.096469
Zn9	Zn	0.989104	0.114386	-0.096494
O10	O	0.982408	0.236276	0.073221
C11	C	0.995239	-0.038703	-0.000020
C12	C	0.993604	-0.131655	-0.000029
C13	C	0.836011	0.120530	-0.000010
C14	C	0.743058	0.118897	-0.000008
C15	C	0.990585	-0.301837	-0.000020
C16	C	1.082135	-0.349322	-0.000024
C17	C	1.080465	-0.446010	0.000312
C18	C	0.987613	-0.469393	-0.000013
C19	C	0.942187	-0.428250	0.083457
C20	C	0.944503	-0.331618	0.083524
C21	C	0.943157	-0.331340	-0.083031
C22	C	0.943166	-0.428284	-0.084125
C23	C	0.985928	-0.564088	-0.000005
C24	C	0.992266	-0.207142	-0.000021
C25	C	0.405321	0.112896	-0.000019
C26	C	0.428617	0.205702	-0.000342
C27	C	0.525292	0.207466	-0.000008
C28	C	0.572876	0.115874	-0.000014
C29	C	0.543778	0.069474	0.083616
C30	C	0.446988	0.068356	0.083682
C31	C	0.447142	0.066463	-0.082868
C32	C	0.543634	0.069903	-0.083969
C33	C	0.667572	0.117552	-0.000009
C34	C	0.310626	0.111215	-0.000018
C35	C	1.142186	0.108240	-0.000017
C36	C	1.235139	0.109872	-0.000024
C37	C	0.982958	0.267472	-0.000007
C38	C	0.984593	0.360424	-0.000004
N39	N	0.989091	0.114381	0.228162
N40	N	0.989113	0.114381	-0.228187
C41	C	1.046045	0.057465	0.453882
C42	C	1.046048	0.057463	0.546072
C43	C	0.932153	0.171301	0.546087
C44	C	0.932147	0.171298	0.453899
C45	C	0.989098	0.114381	0.407799
C46	C	0.989106	0.114382	0.592176
C47	C	0.989109	0.114380	0.692132
C48	C	0.989094	0.114381	0.307836
H49	H	1.116159	-0.474481	-0.059508
H50	H	0.875473	-0.443614	-0.089415
H51	H	0.544315	0.243800	-0.059959
H52	H	0.576617	0.003050	-0.089025
H53	H	1.118925	-0.330851	-0.059880
H54	H	0.433162	-0.001848	-0.083437
H55	H	1.092419	0.011115	0.583590
Br56	Br	1.123334	-0.019781	0.391321
H57	H	0.562201	0.103687	-0.145838
H58	H	0.563828	0.101694	0.145857
H59	H	0.885786	0.217642	0.583630
Br60	Br	0.854849	0.248540	0.391350
H61	H	0.977234	-0.313305	0.146155
H62	H	1.118400	-0.329662	0.059698
H63	H	1.115997	-0.473864	0.060495
H64	H	0.877277	-0.299330	0.087088
H65	H	0.399588	0.241275	0.059298
H66	H	0.873961	-0.442336	0.086328
H67	H	0.973300	-0.310844	-0.146317
Br68	Br	0.994119	-0.475522	0.187384
H69	H	0.543685	0.244022	0.060045
Br70	Br	0.402270	0.121916	0.187882
Br71	Br	0.998451	-0.473864	-0.187054
H72	H	0.418814	0.095472	-0.146254
H73	H	0.400618	0.241475	-0.060317
Br74	Br	0.830655	-0.278349	-0.084368
H75	H	0.432449	0.000310	0.087477
Br76	Br	0.596900	-0.042870	0.088790
