data_functionalizedCrystal
_audit_creation_method	'MofGen! by Chris Wilmer'
_symmetry_space_group_name_H-M	'P1'
_symmetry_Int_Tables_number	1
_symmetry_cell_setting	triclinic
loop_
_symmetry_equiv_pos_as_xyz
  x,y,z
_cell_length_a	19.077236
_cell_length_b	12.759394
_cell_length_c	19.077174
_cell_angle_alpha	92.276241
_cell_angle_beta	85.294282
_cell_angle_gamma	92.306804
loop_
_atom_site_label
_atom_site_type_symbol
_atom_site_fract_x
_atom_site_fract_y
_atom_site_fract_z
Zn1	Zn	1.093786	-0.379333	-0.441992
Zn2	Zn	1.593786	0.120667	0.058008
Zn3	Zn	1.088993	-0.548246	-0.324112
Zn4	Zn	1.588993	-0.048246	0.175888
Zn5	Zn	0.971168	-0.379349	-0.319375
Zn6	Zn	1.471168	0.120651	0.180625
Zn7	Zn	0.975885	-0.561739	-0.437217
Zn8	Zn	1.475885	-0.061739	0.062783
O9	O	1.032458	-0.467167	-0.380674
O10	O	1.532458	0.032833	0.119326
O11	O	1.191803	-0.396085	-0.430336
O12	O	1.691803	0.103915	0.069664
O13	O	1.069383	-0.520201	-0.224833
O14	O	1.569383	-0.020201	0.275167
O15	O	0.987465	-0.232324	-0.335656
O16	O	1.487465	0.267676	0.164344
O17	O	1.188281	-0.520185	-0.343730
O18	O	1.688281	-0.020185	0.156270
O19	O	1.077553	-0.232313	-0.425742
O20	O	1.577553	0.267687	0.074258
O21	O	0.982817	-0.396113	-0.221353
O22	O	1.482817	0.103887	0.278647
O23	O	0.873141	-0.409197	-0.331026
O24	O	1.373141	0.090803	0.168974
O25	O	0.995505	-0.543183	-0.536501
O26	O	1.495505	-0.043183	-0.036501
O27	O	0.876607	-0.543199	-0.417604
O28	O	1.376607	-0.043199	0.082396
O29	O	1.082127	-0.409170	-0.540009
O30	O	1.582127	0.090830	-0.040009
O31	O	1.073957	-0.697058	-0.339100
O32	O	1.573957	-0.197058	0.160900
O33	O	0.990857	-0.706972	-0.422198
O34	O	1.490857	-0.206972	0.077802
C35	C	0.849295	-0.477664	-0.373283
C36	C	1.349295	0.022336	0.126717
C37	C	0.770937	-0.482182	-0.370138
C38	C	1.270937	0.017818	0.129862
C39	C	0.735962	-0.419802	-0.413821
C40	C	1.235962	0.080198	0.086179
C41	C	0.662337	-0.424041	-0.410860
C42	C	1.162337	0.075959	0.089140
C43	C	0.623688	-0.490666	-0.364219
C44	C	1.123688	0.009334	0.135781
C45	C	0.658668	-0.553048	-0.320532
C46	C	1.158668	-0.053048	0.179468
C47	C	0.732292	-0.548803	-0.323490
C48	C	1.232292	-0.048803	0.176510
C49	C	0.403299	-0.510274	-0.350527
C50	C	0.903299	-0.010274	0.149473
C51	C	0.329670	-0.514517	-0.347573
C52	C	0.829670	-0.014517	0.152427
C53	C	0.333343	-0.385509	-0.437900
C54	C	0.833343	0.114491	0.062100
C55	C	0.406969	-0.381274	-0.440857
C56	C	0.906969	0.118726	0.059143
C57	C	0.441942	-0.443652	-0.397167
C58	C	0.941942	0.056348	0.102833
N59	N	0.548431	-0.495003	-0.361193
N60	N	1.048431	0.004997	0.138807
N61	N	0.517198	-0.439308	-0.400191
N62	N	1.017198	0.060692	0.099809
C63	C	1.032418	-0.740136	-0.380661
C64	C	1.532418	-0.240136	0.119339
C65	C	1.032467	-0.856911	-0.380681
C66	C	1.532467	-0.356911	0.119319
C67	C	1.126210	-0.856748	-0.474553
C68	C	1.626210	-0.356748	0.025447
C69	C	1.173104	-0.911526	-0.521495
C70	C	1.673104	-0.411526	-0.021495
C71	C	1.173147	-1.021247	-0.521512
C72	C	1.673147	-0.521247	-0.021512
C73	C	1.126289	-1.076191	-0.474583
C74	C	1.626289	-0.576191	0.025417
C75	C	1.079395	-1.021412	-0.427641
C76	C	1.579395	-0.521412	0.072359
C77	C	1.079359	-0.911690	-0.427628
C78	C	1.579359	-0.411690	0.072372
C79	C	0.985649	-1.021575	-0.333774
C80	C	1.485649	-0.521575	0.166226
C81	C	0.985609	-0.911855	-0.333753
C82	C	1.485609	-0.411855	0.166247
C83	C	0.938791	-1.076520	-0.286845
C84	C	1.438791	-0.576520	0.213155
C85	C	0.891899	-1.021741	-0.239899
C86	C	1.391899	-0.521741	0.260101
C87	C	0.891859	-0.912014	-0.239883
C88	C	1.391859	-0.412014	0.260117
C89	C	0.938715	-0.857077	-0.286811
C90	C	1.438715	-0.357077	0.213189
C91	C	1.216337	-0.456629	-0.388094
C92	C	1.716337	0.043371	0.111906
C93	C	1.294695	-0.452138	-0.391256
C94	C	1.794695	0.047862	0.108744
C95	C	1.039877	-0.477680	-0.564549
C96	C	1.539877	0.022320	-0.064549
C97	C	1.043039	-0.482160	-0.642906
C98	C	1.543039	0.017840	-0.142906
C99	C	1.032518	-0.193131	-0.380703
C100	C	1.532518	0.306869	0.119297
C101	C	1.032543	-0.076354	-0.380716
C102	C	1.532543	0.423646	0.119284
C103	C	0.999456	-0.419660	-0.677905
C104	C	1.499456	0.080340	-0.177905
C105	C	1.002424	-0.423878	-0.751530
C106	C	1.502424	0.076122	-0.251530
C107	C	1.048978	-0.490592	-0.790153
C108	C	1.548978	0.009408	-0.290153
C109	C	1.092563	-0.553099	-0.755149
C110	C	1.592563	-0.053099	-0.255149
C111	C	1.089591	-0.548885	-0.681525
C112	C	1.589591	-0.048885	-0.181525
C113	C	1.062696	-0.510126	-1.010537
C114	C	1.562696	-0.010126	-0.510537
C115	C	1.065666	-0.514333	-1.084165
C116	C	1.565666	-0.014333	-0.584165
C117	C	0.975526	-0.385113	-1.080541
C118	C	1.475526	0.114887	-0.580541
C119	C	0.972561	-0.380900	-1.006917
C120	C	1.472561	0.119100	-0.506917
C121	C	1.016143	-0.443412	-0.971919
C122	C	1.516143	0.056588	-0.471919
N123	N	1.052015	-0.494903	-0.865409
N124	N	1.552015	0.005097	-0.365409
N125	N	1.013102	-0.439105	-0.896664
N126	N	1.513102	0.060895	-0.396664
C127	C	1.025109	-0.456616	-0.197516
C128	C	1.525109	0.043384	0.302484
C129	C	1.022084	-0.451833	-0.119165
C130	C	1.522084	0.048167	0.380835
H131	H	0.431766	-0.561068	-0.314952
H132	H	0.931766	-0.061068	0.185048
H133	H	0.627195	-0.607290	-0.282553
H134	H	1.127195	-0.107290	0.217447
N135	N	0.949250	-0.347693	-0.636250
N136	N	1.449250	0.152307	-0.136250
H137	H	0.922091	-0.308740	-0.669597
H138	H	1.422091	0.191260	-0.169597
H139	H	0.915381	-0.390575	-0.604379
H140	H	1.415381	0.109425	-0.104379
H141	H	0.304860	-0.334723	-0.473469
H142	H	0.804860	0.165277	0.026531
N143	N	1.115877	-0.586309	-1.125816
N144	N	1.615877	-0.086309	-0.625816
H145	H	1.088444	-0.638379	-1.155200
H146	H	1.588444	-0.138379	-0.655200
H147	H	1.149785	-0.543423	-1.157644
H148	H	1.649785	-0.043423	-0.657644
N149	N	1.126164	-0.738408	-0.474530
N150	N	1.626164	-0.238408	0.025470
H151	H	1.137195	-0.708483	-0.426698
H152	H	1.637195	-0.208483	0.073302
H153	H	1.162957	-0.711997	-0.511410
H154	H	1.662957	-0.211997	-0.011410
H155	H	1.098176	-0.561039	-0.982050
H156	H	1.598176	-0.061039	-0.482050
N157	N	0.928512	-0.317715	-1.118293
N158	N	1.428512	0.182285	-0.618293
H159	H	0.938954	-0.241283	-1.105937
H160	H	1.438954	0.258717	-0.605937
H161	H	0.937480	-0.330600	-1.170780
H162	H	1.437480	0.169400	-0.670780
H163	H	1.211254	-0.866781	-0.559705
H164	H	1.711254	-0.366781	-0.059705
N165	N	0.938669	-0.738737	-0.286800
N166	N	1.438669	-0.238737	0.213200
H167	H	0.901852	-0.712368	-0.249944
H168	H	1.401852	-0.212368	0.250056
H169	H	0.986533	-0.708822	-0.275847
H170	H	1.486533	-0.208822	0.224153
N171	N	0.955414	-0.356456	-0.789268
N172	N	1.455414	0.143544	-0.289268
H173	H	0.965871	-0.280032	-0.776902
H174	H	1.465871	0.219968	-0.276902
H175	H	0.964371	-0.369326	-0.841758
H176	H	1.464371	0.130674	-0.341758
N177	N	0.770017	-0.616090	-0.276379
N178	N	1.270017	-0.116090	0.223621
H179	H	0.822521	-0.603288	-0.285327
H180	H	1.322521	-0.103288	0.214673
H181	H	0.755108	-0.597482	-0.225533
H182	H	1.255108	-0.097482	0.274467
N183	N	0.287982	-0.586385	-0.297269
N184	N	0.787982	-0.086385	0.202731
H185	H	0.321309	-0.625257	-0.270040
H186	H	0.821309	-0.125257	0.229960
H187	H	0.256114	-0.543442	-0.263471
H188	H	0.756114	-0.043442	0.236529
H189	H	1.130465	-0.607424	-0.786601
H190	H	1.630465	-0.107424	-0.286601
N191	N	1.223714	-1.080338	-0.572149
N192	N	1.723714	-0.580338	-0.072149
H193	H	1.253390	-1.028888	-0.601878
H194	H	1.753390	-0.528888	-0.101878
H195	H	1.255220	-1.122328	-0.544804
H196	H	1.755220	-0.622328	-0.044804
H197	H	0.767425	-0.365552	-0.451802
H198	H	1.267425	0.134448	0.048198
N199	N	0.922349	-0.308956	-0.965250
N200	N	1.422349	0.191044	-0.465250
H201	H	0.949784	-0.256885	-0.935867
H202	H	1.449784	0.243115	-0.435867
H203	H	0.895195	-0.270066	-0.998630
H204	H	1.395195	0.229934	-0.498630
H205	H	1.126322	-1.165531	-0.474607
H206	H	1.626322	-0.665531	0.025393
N207	N	1.136595	-0.616302	-0.643774
N208	N	1.636595	-0.116302	-0.143774
H209	H	1.166538	-0.659202	-0.679414
H210	H	1.666538	-0.159202	-0.179414
H211	H	1.167998	-0.569923	-0.614547
H212	H	1.667998	-0.069923	-0.114547
H213	H	0.853748	-1.066485	-0.201696
H214	H	1.353748	-0.566485	0.298304
N215	N	0.624612	-0.356740	-0.457960
N216	N	1.124612	0.143260	0.042040
H217	H	0.660267	-0.313888	-0.487954
H218	H	1.160267	0.186112	0.012046
H219	H	0.595373	-0.403188	-0.489310
H220	H	1.095373	0.096812	0.010690
H221	H	0.853670	-0.867419	-0.201660
H222	H	1.353670	-0.367419	0.298340
N223	N	0.448638	-0.309402	-0.491164
N224	N	0.948638	0.190598	0.008836
H225	H	0.435382	-0.234432	-0.479780
H226	H	0.935382	0.265568	0.020220
H227	H	0.500574	-0.316254	-0.486396
H228	H	1.000574	0.183746	0.013604
N229	N	0.938846	-1.194859	-0.286854
N230	N	1.438846	-0.694859	0.213146
H231	H	0.927821	-1.224806	-0.334682
H232	H	1.427821	-0.724806	0.165318
H233	H	0.986718	-1.217611	-0.275851
H234	H	1.486718	-0.717611	0.224149
