data_functionalizedCrystal
_audit_creation_method	'MofGen! by Chris Wilmer'
_symmetry_space_group_name_H-M	'P1'
_symmetry_Int_Tables_number	1
_symmetry_cell_setting	triclinic
loop_
_symmetry_equiv_pos_as_xyz
  x,y,z
_cell_length_a	11.792241
_cell_length_b	14.971486
_cell_length_c	10.268362
_cell_angle_alpha	89.994507
_cell_angle_beta	89.999626
_cell_angle_gamma	83.903772
loop_
_atom_site_label
_atom_site_type_symbol
_atom_site_fract_x
_atom_site_fract_y
_atom_site_fract_z
O1	O	-1.506118	-0.122598	0.108175
O2	O	-1.172785	0.210736	0.441508
O3	O	-0.839451	0.544069	0.774841
O4	O	-1.175695	-0.135233	0.108205
O5	O	-0.842362	0.198101	0.441538
O6	O	-0.509029	0.531434	0.774872
O7	O	-1.349763	0.001249	0.108180
O8	O	-1.016429	0.334583	0.441513
O9	O	-0.683096	0.667916	0.774846
O10	O	-1.332050	-0.259080	0.108200
O11	O	-0.998717	0.074254	0.441533
O12	O	-0.665384	0.407587	0.774866
O13	O	-1.349748	0.001255	-0.108421
O14	O	-1.016414	0.334588	0.224912
O15	O	-0.683081	0.667922	0.558246
O16	O	-1.175680	-0.135227	-0.108396
O17	O	-0.842347	0.198106	0.224938
O18	O	-0.509014	0.531440	0.558271
O19	O	-1.506103	-0.122592	-0.108426
O20	O	-1.172769	0.210741	0.224907
O21	O	-0.839436	0.544075	0.558241
Cu22	Cu	-1.340890	-0.128909	-0.128188
Cu23	Cu	-1.007557	0.204424	0.205145
Cu24	Cu	-0.674223	0.537758	0.538478
Cu25	Cu	-1.340908	-0.128916	0.127967
Cu26	Cu	-1.007575	0.204418	0.461300
Cu27	Cu	-0.674241	0.537751	0.794634
O28	O	-1.332035	-0.259074	-0.108401
O29	O	-0.998702	0.074259	0.224933
O30	O	-0.665369	0.407593	0.558266
C31	C	-1.133402	-0.134436	-0.000092
C32	C	-0.800069	0.198897	0.333242
C33	C	-0.466735	0.532230	0.666575
C34	C	-1.007404	-0.132061	-0.000080
C35	C	-0.674070	0.201273	0.333253
C36	C	-0.340737	0.534606	0.666586
N37	N	-1.340886	-0.128904	-0.308354
N38	N	-1.007552	0.204430	0.024979
N39	N	-0.674219	0.537763	0.358313
C40	C	-1.548396	-0.123389	-0.000127
C41	C	-1.215063	0.209945	0.333207
C42	C	-0.881729	0.543278	0.666540
C43	C	-1.674395	-0.125764	-0.000130
C44	C	-1.341061	0.207569	0.333204
C45	C	-1.007728	0.540903	0.666537
C46	C	-0.776720	-0.127692	-0.000118
C47	C	-0.443386	0.205641	0.333215
C48	C	-0.110053	0.538974	0.666549
C49	C	-0.905089	-0.130120	-0.000097
C50	C	-0.571756	0.203214	0.333236
C51	C	-0.238422	0.536547	0.666569
C52	C	-1.348963	0.034580	-0.000120
C53	C	-1.015630	0.367913	0.333213
C54	C	-0.682296	0.701247	0.666546
C55	C	-1.346589	0.133887	-0.000119
C56	C	-1.013256	0.467220	0.333214
C57	C	-0.679923	0.800553	0.666548
C58	C	-1.332835	-0.292405	-0.000098
C59	C	-0.999502	0.040928	0.333235
C60	C	-0.666168	0.374262	0.666569
C61	C	-1.335209	-0.391711	-0.000091
C62	C	-1.001875	-0.058378	0.333242
C63	C	-0.668542	0.274955	0.666576
C64	C	-1.448849	0.190702	-0.000129
C65	C	-1.115516	0.524036	0.333204
C66	C	-0.782183	0.857369	0.666537
C67	C	-1.446612	0.284011	-0.000116
C68	C	-1.113279	0.617344	0.333217
C69	C	-0.779945	0.950677	0.666551
C70	C	-1.342114	0.320502	-0.000102
C71	C	-1.008780	0.653835	0.333232
C72	C	-0.675447	0.987168	0.666565
C73	C	-1.239846	0.263679	-0.000087
C74	C	-0.906513	0.597012	0.333246
C75	C	-0.573179	0.930345	0.666579
C76	C	-1.242084	0.170372	-0.000091
C77	C	-0.908751	0.503706	0.333242
C78	C	-0.575418	0.837039	0.666575
C79	C	-1.235188	0.458160	-0.000082
C80	C	-0.901854	0.791493	0.333251
C81	C	-0.568521	1.124827	0.666585
C82	C	-1.232949	0.551473	-0.000081
C83	C	-0.899615	0.884806	0.333253
C84	C	-0.566282	1.218140	0.666586
C85	C	-1.439715	0.571798	-0.000107
C86	C	-1.106382	0.905132	0.333227
C87	C	-0.773049	1.238465	0.666560
C88	C	-1.441954	0.478492	-0.000111
C89	C	-1.108620	0.811825	0.333223
C90	C	-0.775287	1.145159	0.666556
C91	C	-1.339685	0.421675	-0.000099
C92	C	-1.006352	0.755009	0.333234
C93	C	-0.673019	1.088342	0.666568
C94	C	-1.340902	-0.128914	-0.574025
C95	C	-1.007569	0.204419	-0.240691
C96	C	-0.674236	0.537753	0.092642
C97	C	-1.340889	-0.128911	-0.426187
C98	C	-1.007556	0.204422	-0.092853
C99	C	-0.674223	0.537756	0.240480
N100	N	-1.340921	-0.128914	0.308133
N101	N	-1.007588	0.204419	0.641466
N102	N	-0.674255	0.537753	0.974800
H103	H	-1.533944	0.160999	-0.000149
H104	H	-1.200610	0.494333	0.333184
H105	H	-0.867277	0.827666	0.666518
C106	C	-1.124896	0.303822	-0.000082
C107	C	-0.791563	0.637156	0.333251
C108	C	-0.458230	0.970489	0.666584
N109	N	-1.038314	0.334057	-0.000088
N110	N	-0.704981	0.667390	0.333245
N111	N	-0.371647	1.000724	0.666578
H112	H	-1.529883	0.330267	-0.000127
H113	H	-1.196549	0.663600	0.333206
H114	H	-0.863216	0.996934	0.666540
C115	C	-1.556907	0.438354	-0.000133
C116	C	-1.223574	0.771687	0.333201
C117	C	-0.890240	1.105021	0.666534
N118	N	-1.643492	0.408123	-0.000146
N119	N	-1.310158	0.741456	0.333188
N120	N	-0.976825	1.074789	0.666521
H121	H	-1.522986	0.618063	-0.000112
H122	H	-1.189653	0.951397	0.333221
H123	H	-0.856319	1.284730	0.666554
C124	C	-1.117996	0.591611	-0.000048
C125	C	-0.784662	0.924944	0.333285
C126	C	-0.451329	1.258277	0.666618
N127	N	-1.031411	0.621842	-0.000019
N128	N	-0.698078	0.955176	0.333314
N129	N	-0.364744	1.288509	0.666647
H130	H	-1.151910	0.411902	-0.000069
H131	H	-0.818576	0.745235	0.333264
H132	H	-0.485243	1.078568	0.666598
H133	H	-1.158814	0.124113	-0.000083
H134	H	-0.825480	0.457446	0.333251
H135	H	-0.492147	0.790780	0.666584
