data_functionalizedCrystal
_audit_creation_method	'MofGen! by Chris Wilmer'
_symmetry_space_group_name_H-M	'P1'
_symmetry_Int_Tables_number	1
_symmetry_cell_setting	triclinic
loop_
_symmetry_equiv_pos_as_xyz
  x,y,z
_cell_length_a	6.817900
_cell_length_b	16.418055
_cell_length_c	10.943881
_cell_angle_alpha	93.815893
_cell_angle_beta	108.843448
_cell_angle_gamma	103.389726
loop_
_atom_site_label
_atom_site_type_symbol
_atom_site_fract_x
_atom_site_fract_y
_atom_site_fract_z
V1	V	-4.087840	-0.115862	-0.403000
O2	O	-4.074594	0.005592	-0.394868
O3	O	-4.038552	-0.229757	-0.400688
O4	O	-4.066255	-0.114069	-0.578560
O5	O	-4.046699	-0.110898	-0.215764
V6	V	-4.568109	-0.101336	-0.380552
O7	O	-4.356238	-0.147725	-0.452244
O8	O	-4.749909	-0.069472	-0.331308
O9	O	-4.394191	0.012560	-0.382864
O10	O	-4.698752	-0.222789	-0.388684
O11	O	-4.726647	-0.106299	-0.567788
O12	O	-4.366487	-0.103128	-0.204991
C13	C	-3.882469	-0.257523	-0.394445
C14	C	-3.923635	-0.350635	-0.393724
C15	C	-4.240090	-0.656620	-0.397917
C16	C	-4.201417	-0.569131	-0.398573
C17	C	-3.835220	-0.560587	-0.385635
C18	C	-3.873889	-0.648075	-0.384970
C19	C	-4.076332	-0.696090	-0.391117
C20	C	-3.998991	-0.521113	-0.392439
C21	C	-3.957060	-0.426252	-0.393151
C22	C	-4.118266	-0.790956	-0.390403
C23	C	-3.917806	-0.109949	-0.621337
C24	C	-3.981435	-0.109237	-0.764862
C25	C	-4.209935	-0.113182	-0.855760
C26	C	-4.113698	-0.041184	-0.921218
C27	C	-4.190999	-0.179914	-0.955125
C28	C	-3.884328	-0.037192	-0.828415
C29	C	-3.961687	-0.175985	-0.862330
C30	C	-3.865284	-0.103968	-0.927741
C31	C	-4.213615	0.040322	-0.389104
C32	C	-4.151688	0.133432	-0.389833
C33	C	-4.178278	-0.107250	-0.162208
C34	C	-4.093887	-0.107958	-0.018682
H35	H	-4.334767	-0.536999	-0.404107
C36	C	-4.550965	-0.771228	-0.516217
C37	C	-4.462603	-0.709398	-0.404658
H38	H	-4.688342	-0.803804	-0.520376
H39	H	-4.458984	-0.807254	-0.512067
H40	H	-4.565529	-0.744554	-0.591869
H41	H	-4.448025	-0.736072	-0.329005
H42	H	-4.554607	-0.673367	-0.408798
C43	C	-4.484013	-0.047642	-0.841920
C44	C	-4.405657	-0.118333	-0.812741
H45	H	-4.604828	-0.050818	-0.815351
H46	H	-4.525765	-0.046715	-0.933333
H47	H	-4.374590	0.002549	-0.796845
H48	H	-4.515075	-0.168524	-0.857824
H49	H	-4.363912	-0.119268	-0.721311
H50	H	-3.719989	-0.100045	-0.959325
H51	H	-3.670395	-0.521483	-0.380633
C52	C	-3.661040	-0.224948	-0.740552
C53	C	-3.874199	-0.252938	-0.826764
H54	H	-3.607043	-0.272462	-0.718603
H55	H	-3.655765	-0.192884	-0.663494
H56	H	-3.575746	-0.190527	-0.781105
H57	H	-3.959497	-0.287354	-0.786208
H58	H	-3.879489	-0.285016	-0.903836
C59	C	-4.042505	0.110388	-0.890227
C60	C	-4.201257	0.035763	-0.956744
H61	H	-4.096579	0.157888	-0.912152
H62	H	-3.919621	0.113712	-0.914683
H63	H	-4.003679	0.110179	-0.798730
H64	H	-4.240072	0.035970	-1.048242
H65	H	-4.324179	0.032439	-0.932296
C66	C	-4.547875	-0.265979	-0.993208
C67	C	-4.366872	-0.261331	-1.029337
H68	H	-4.656448	-0.316243	-1.039015
H69	H	-4.600606	-0.218085	-1.014253
H70	H	-4.509325	-0.266775	-0.901853
H71	H	-4.405418	-0.260529	-1.120692
H72	H	-4.314134	-0.309238	-1.008302
H73	H	-3.740527	-0.680210	-0.379430
C74	C	-3.650360	0.042916	-0.619743
C75	C	-3.708645	0.044318	-0.754402
H76	H	-3.541922	0.093241	-0.574051
H77	H	-3.596948	-0.004891	-0.599213
H78	H	-3.772683	0.039461	-0.594639
H79	H	-3.586325	0.047766	-0.779507
H80	H	-3.762051	0.092138	-0.774941
