data_functionalizedCrystal
_audit_creation_method	'MofGen! by Chris Wilmer'
_symmetry_space_group_name_H-M	'P1'
_symmetry_Int_Tables_number	1
_symmetry_cell_setting	triclinic
loop_
_symmetry_equiv_pos_as_xyz
  x,y,z
_cell_length_a	21.295420
_cell_length_b	21.295417
_cell_length_c	19.805399
_cell_angle_alpha	89.969157
_cell_angle_beta	89.981220
_cell_angle_gamma	90.028757
loop_
_atom_site_label
_atom_site_type_symbol
_atom_site_fract_x
_atom_site_fract_y
_atom_site_fract_z
Zn1	Zn	0.962319	-0.250653	-0.382690
Zn2	Zn	0.962232	-0.355922	-0.269495
Zn3	Zn	0.857053	-0.250667	-0.269516
Zn4	Zn	0.857011	-0.355885	-0.382644
O5	O	0.909654	-0.303282	-0.326086
O6	O	1.050396	-0.264627	-0.367685
O7	O	0.948261	-0.341981	-0.174781
O8	O	0.871070	-0.162576	-0.284557
O9	O	1.050333	-0.341967	-0.284521
O10	O	0.948409	-0.162566	-0.367705
O11	O	0.870986	-0.264651	-0.174797
O12	O	0.768958	-0.264615	-0.284512
O13	O	0.870999	-0.341905	-0.477366
O14	O	0.768927	-0.341918	-0.367626
O15	O	0.948368	-0.264591	-0.477400
O16	O	0.948220	-0.444006	-0.284476
O17	O	0.870915	-0.443980	-0.367606
C18	C	0.746102	-0.303265	-0.326067
C19	C	0.676134	-0.303273	-0.326075
C20	C	0.176677	-0.343608	-0.369322
C21	C	0.242419	-0.343608	-0.369315
C22	C	0.275294	-0.303296	-0.326107
C23	C	0.242422	-0.262993	-0.282892
C24	C	0.176681	-0.262998	-0.282895
N25	N	0.378536	-0.248179	-0.321019
N26	N	0.440987	-0.248176	-0.321019
C27	C	0.473369	-0.303278	-0.326093
N28	N	0.440941	-0.358385	-0.331179
N29	N	0.378483	-0.358388	-0.331182
C30	C	0.346580	-0.303286	-0.326099
C31	C	0.577519	-0.343583	-0.369295
C32	C	0.643263	-0.343584	-0.369283
C33	C	0.643265	-0.262963	-0.282864
C34	C	0.577522	-0.262967	-0.282872
C35	C	0.544653	-0.303277	-0.326091
C36	C	0.909571	-0.466834	-0.326049
C37	C	0.909593	-0.536802	-0.326055
C38	C	0.949882	-0.569661	-0.282814
C39	C	0.949911	-0.635404	-0.282829
C40	C	0.909641	-0.668284	-0.326079
C41	C	0.869350	-0.635416	-0.369328
C42	C	0.869326	-0.569675	-0.369317
N43	N	0.854574	-0.771548	-0.331232
N44	N	0.854598	-0.834000	-0.331239
C45	C	0.909712	-0.866359	-0.326117
N46	N	0.964801	-0.833907	-0.320975
N47	N	0.964776	-0.771450	-0.320964
C48	C	0.909663	-0.739569	-0.326096
C49	C	0.950036	-0.970504	-0.282890
C50	C	0.950066	-1.036248	-0.282910
C51	C	0.869499	-1.036259	-0.369406
C52	C	0.869474	-0.970517	-0.369389
C53	C	0.909741	-0.937643	-0.326128
C54	C	1.073844	-0.303299	-0.326106
C55	C	1.143812	-0.303307	-0.326115
C56	C	0.909689	-0.303242	-0.502629
C57	C	0.909704	-0.303225	-0.577861
C58	C	0.909754	-0.139092	-0.326139
C59	C	0.909796	-0.069123	-0.326161
C60	C	0.949991	-0.262966	-0.613224
C61	C	0.949997	-0.262948	-0.683913
C62	C	0.909720	-0.303192	-0.719237
C63	C	0.869428	-0.343453	-0.683869
C64	C	0.869419	-0.343468	-0.613182
C65	C	0.869464	-0.343395	-0.968942
C66	C	0.869477	-0.343378	-1.039634
C67	C	0.950042	-0.262875	-1.039673
C68	C	0.950033	-0.262889	-0.968986
C69	C	0.909739	-0.303148	-0.933624
C70	C	0.909732	-0.303166	-0.856976
C71	C	0.909730	-0.303178	-0.795884
C72	C	0.909655	-0.303276	-0.150230
C73	C	0.909762	-0.303116	-0.074999
H74	H	0.670031	-0.230143	-0.247681
N75	N	0.277882	-0.219512	-0.236296
H76	H	0.266462	-0.174549	-0.246896
H77	H	0.266411	-0.229285	-0.187934
N78	N	0.826021	-0.386782	-1.077728
H79	H	0.796875	-0.361184	-1.107058
H80	H	0.851627	-0.415948	-1.107013
H81	H	0.149923	-0.230178	-0.247711
N82	N	0.993362	-0.670848	-0.236177
H83	H	0.967799	-0.698163	-0.204794
H84	H	1.022526	-0.698048	-0.263754
H85	H	0.836665	-0.943760	-0.404598
N86	N	0.993491	-0.219441	-1.077816
H87	H	1.019005	-0.193950	-1.044711
H88	H	1.022611	-0.245058	-1.107145
H89	H	0.982672	-0.542898	-0.247590
N90	N	0.825916	-0.670875	-0.415978
H91	H	0.832043	-0.717509	-0.409423
H92	H	0.780961	-0.659428	-0.405398
N93	N	0.542070	-0.219498	-0.236272
H94	H	0.572870	-0.193960	-0.208898
H95	H	0.514815	-0.190401	-0.263881
N96	N	0.993456	-0.219522	-0.722042
H97	H	1.022617	-0.245097	-0.751370
H98	H	0.967855	-0.190343	-0.751332
N99	N	0.542062	-0.387057	-0.415905
H100	H	0.572860	-0.412592	-0.443273
H101	H	0.514760	-0.416157	-0.388300
N102	N	0.993438	-0.219563	-0.575127
H103	H	1.018959	-0.194056	-0.608258
H104	H	0.967829	-0.190435	-0.545802
N105	N	0.825869	-0.534229	-0.415956
H106	H	0.800362	-0.565031	-0.443359
H107	H	0.796743	-0.506998	-0.388368
N108	N	0.678713	-0.387059	-0.415881
H109	H	0.647913	-0.412593	-0.443259
H110	H	0.706015	-0.361470	-0.447249
H111	H	0.269183	-0.376426	-0.404501
N112	N	0.141226	-0.387093	-0.415923
H113	H	0.152687	-0.377378	-0.464304
H114	H	0.152666	-0.432036	-0.405258
N115	N	0.825966	-0.386895	-0.575045
H116	H	0.851523	-0.416076	-0.545710
H117	H	0.796812	-0.361271	-0.545760
N118	N	0.993465	-0.935042	-0.236235
H119	H	1.018997	-0.965837	-0.208846
H120	H	1.022570	-0.907719	-0.263809
H121	H	0.982878	-1.063001	-0.247700
N122	N	0.993479	-0.219484	-0.930890
H123	H	0.983731	-0.174504	-0.943203
H124	H	0.987341	-0.225657	-0.880756
N125	N	0.826068	-1.071713	-0.416060
H126	H	0.832197	-1.118347	-0.409508
H127	H	0.781111	-1.060269	-0.405480
H128	H	0.836664	-0.376185	-0.940159
H129	H	0.836631	-0.376219	-0.712635
