data_functionalizedCrystal
_audit_creation_method	'MofGen! by Chris Wilmer'
_symmetry_space_group_name_H-M	'P1'
_symmetry_Int_Tables_number	1
_symmetry_cell_setting	triclinic
loop_
_symmetry_equiv_pos_as_xyz
  x,y,z
_cell_length_a	19.805407
_cell_length_b	19.805404
_cell_length_c	19.805399
_cell_angle_alpha	90.027110
_cell_angle_beta	90.024201
_cell_angle_gamma	90.028840
loop_
_atom_site_label
_atom_site_type_symbol
_atom_site_fract_x
_atom_site_fract_y
_atom_site_fract_z
Zn1	Zn	1.034721	-0.269492	0.382805
Zn2	Zn	1.368054	0.063841	0.716139
Zn3	Zn	1.701387	0.397174	1.049472
Zn4	Zn	1.034629	-0.382681	0.269618
Zn5	Zn	1.367963	-0.049347	0.602951
Zn6	Zn	1.701296	0.283986	0.936285
Zn7	Zn	0.921535	-0.269510	0.269621
Zn8	Zn	1.254869	0.063824	0.602954
Zn9	Zn	1.588202	0.397157	0.936288
Zn10	Zn	0.921493	-0.382643	0.382756
Zn11	Zn	1.254826	-0.049310	0.716089
Zn12	Zn	1.588159	0.284023	1.049422
O13	O	0.978095	-0.326082	0.326200
O14	O	1.311428	0.007252	0.659533
O15	O	1.644761	0.340585	0.992867
O16	O	1.129425	-0.284516	0.367811
O17	O	1.462759	0.048818	0.701144
O18	O	1.796092	0.382151	1.034477
O19	O	1.019607	-0.367691	0.174902
O20	O	1.352940	-0.034358	0.508235
O21	O	1.686273	0.298975	0.841569
O22	O	0.936606	-0.174791	0.284657
O23	O	1.269939	0.158543	0.617990
O24	O	1.603272	0.491876	0.951324
O25	O	1.129358	-0.367675	0.284652
O26	O	1.462691	-0.034341	0.617986
O27	O	1.796025	0.298992	0.951319
O28	O	1.019763	-0.174778	0.367813
O29	O	1.353096	0.158555	0.701147
O30	O	1.686429	0.491889	1.034480
O31	O	0.936517	-0.284545	0.174904
O32	O	1.269850	0.048788	0.508237
O33	O	1.603184	0.382122	0.841571
O34	O	0.826813	-0.284509	0.284609
O35	O	1.160146	0.048825	0.617942
O36	O	1.493480	0.382158	0.951275
O37	O	0.936533	-0.367611	0.477479
O38	O	1.269866	-0.034277	0.810812
O39	O	1.603200	0.299056	1.144146
O40	O	0.826782	-0.367627	0.367728
O41	O	1.160115	-0.034294	0.701062
O42	O	1.493448	0.299039	1.034395
O43	O	1.019721	-0.284479	0.477515
O44	O	1.353054	0.048854	0.810849
O45	O	1.686388	0.382187	1.144182
O46	O	1.019565	-0.477392	0.284604
O47	O	1.352899	-0.144059	0.617937
O48	O	1.686232	0.189274	0.951271
O49	O	0.936444	-0.477365	0.367726
O50	O	1.269778	-0.144032	0.701059
O51	O	1.603111	0.189302	1.034392
C52	C	0.802238	-0.326066	0.326164
C53	C	1.135572	0.007267	0.659497
C54	C	1.468905	0.340600	0.992831
C55	C	0.727006	-0.326076	0.326165
C56	C	1.060340	0.007257	0.659498
C57	C	1.393673	0.340591	0.992831
C58	C	0.265217	-0.369443	0.369456
C59	C	0.598550	-0.036110	0.702789
C60	C	0.931884	0.297224	1.036122
C61	C	0.335905	-0.369442	0.369441
C62	C	0.669239	-0.036108	0.702775
C63	C	1.002572	0.297225	1.036108
C64	C	0.371245	-0.326098	0.326226
C65	C	0.704578	0.007235	0.659560
C66	C	1.037911	0.340569	0.992893
C67	C	0.335892	-0.282757	0.283018
C68	C	0.669225	0.050576	0.616351
C69	C	1.002559	0.383910	0.949685
C70	C	0.265205	-0.282762	0.283030
C71	C	0.598538	0.050571	0.616363
C72	C	0.931872	0.383904	0.949696
C73	C	0.620965	-0.282736	0.282971
C74	C	0.954299	0.050597	0.616304
C75	C	1.287632	0.383930	0.949637
C76	C	0.691658	-0.282733	0.282964
C77	C	1.024991	0.050600	0.616297
C78	C	1.358324	0.383933	0.949631
C79	C	0.691666	-0.369416	0.369382
C80	C	1.024999	-0.036083	0.702716
C81	C	1.358332	0.297251	1.036049
C82	C	0.620979	-0.369421	0.369394
C83	C	0.954312	-0.036088	0.702727
C84	C	1.287645	0.297246	1.036061
C85	C	0.585632	-0.326083	0.326183
C86	C	0.918965	0.007250	0.659517
C87	C	1.252299	0.340583	0.992850
C88	C	0.508984	-0.326086	0.326198
C89	C	0.842317	0.007247	0.659532
C90	C	1.175650	0.340581	0.992865
C91	C	0.447892	-0.326091	0.326214
C92	C	0.781225	0.007242	0.659548
C93	C	1.114559	0.340575	0.992881
C94	C	0.978009	-0.501938	0.326174
C95	C	1.311342	-0.168604	0.659507
C96	C	1.644675	0.164729	0.992841
C97	C	0.978034	-0.577170	0.326185
C98	C	1.311367	-0.243836	0.659519
C99	C	1.644700	0.089497	0.992852
C100	C	1.021542	-1.038952	0.283013
C101	C	1.354875	-0.705619	0.616347
C102	C	1.688209	-0.372286	0.949680
C103	C	1.021510	-0.968264	0.283000
C104	C	1.354843	-0.634931	0.616333
C105	C	1.688177	-0.301597	0.949667
C106	C	0.978183	-0.932931	0.326236
C107	C	1.311517	-0.599598	0.659569
C108	C	1.644850	-0.266265	0.992903
C109	C	0.934880	-0.968291	0.369483
C110	C	1.268214	-0.634957	0.702816
C111	C	1.601547	-0.301624	1.036150
C112	C	0.934909	-1.038978	0.369492
C113	C	1.268243	-0.705644	0.702826
C114	C	1.601576	-0.372311	1.036159
C115	C	0.934763	-0.683217	0.369446
C116	C	1.268096	-0.349884	0.702779
C117	C	1.601429	-0.016551	1.036112
C118	C	0.934739	-0.612525	0.369434
C119	C	1.268072	-0.279192	0.702768
C120	C	1.601405	0.054141	1.036101
C121	C	1.021364	-0.612504	0.282954
C122	C	1.354697	-0.279170	0.616287
C123	C	1.688030	0.054163	0.949620
C124	C	1.021392	-0.683191	0.282963
C125	C	1.354726	-0.349857	0.616296
C126	C	1.688059	-0.016524	0.949630
C127	C	0.978087	-0.718544	0.326207
C128	C	1.311421	-0.385211	0.659540
C129	C	1.644754	-0.051877	0.992874
C130	C	0.978121	-0.795192	0.326220
C131	C	1.311455	-0.461859	0.659553
C132	C	1.644788	-0.128526	0.992887
C133	C	0.978152	-0.856284	0.326227
C134	C	1.311485	-0.522951	0.659560
C135	C	1.644819	-0.189617	0.992894
C136	C	1.154637	-0.326097	0.326237
C137	C	1.487971	0.007236	0.659570
C138	C	1.821304	0.340569	0.992903
C139	C	1.229869	-0.326104	0.326252
C140	C	1.563203	0.007229	0.659586
C141	C	1.896536	0.340563	0.992919
C142	C	0.978132	-0.326039	0.502743
C143	C	1.311466	0.007294	0.836076
C144	C	1.644799	0.340628	1.169409
C145	C	0.978149	-0.326021	0.577975
C146	C	1.311482	0.007313	0.911308
C147	C	1.644815	0.340646	1.244642
C148	C	0.978199	-0.149539	0.326241
C149	C	1.311533	0.183795	0.659574
C150	C	1.644866	0.517128	0.992908
C151	C	0.978244	-0.074307	0.326258
C152	C	1.311577	0.259027	0.659592
C153	C	1.644910	0.592360	0.992925
C154	C	0.978096	-0.326075	0.150344
C155	C	1.311429	0.007258	0.483677
C156	C	1.644762	0.340591	0.817011
C157	C	0.978211	-0.325903	0.075112
C158	C	1.311544	0.007431	0.408446
C159	C	1.644877	0.340764	0.741779
C160	C	1.021466	-0.282732	0.613339
C161	C	1.354799	0.050601	0.946672
C162	C	1.688132	0.383935	1.280006
C163	C	1.021473	-0.282712	0.684028
C164	C	1.354806	0.050621	1.017361
C165	C	1.688139	0.383954	1.350694
C166	C	0.978165	-0.325985	0.719351
C167	C	1.311499	0.007348	1.052684
C168	C	1.644832	0.340681	1.386017
C169	C	0.934844	-0.369276	0.683981
C170	C	1.268177	-0.035943	1.017315
C171	C	1.601510	0.297391	1.350648
C172	C	0.934834	-0.369292	0.613294
C173	C	1.268167	-0.035958	0.946627
C174	C	1.601500	0.297375	1.279961
C175	C	0.934882	-0.369213	0.969055
C176	C	1.268215	-0.035880	1.302388
C177	C	1.601548	0.297454	1.635721
C178	C	0.934896	-0.369195	1.039747
C179	C	1.268230	-0.035862	1.373080
C180	C	1.601563	0.297471	1.706414
C181	C	1.021521	-0.282634	1.039788
C182	C	1.354854	0.050700	1.373122
C183	C	1.688187	0.384033	1.706455
C184	C	1.021511	-0.282649	0.969101
C185	C	1.354844	0.050684	1.302434
C186	C	1.688178	0.384017	1.635768
C187	C	0.978187	-0.325937	0.933738
C188	C	1.311520	0.007396	1.267071
C189	C	1.644854	0.340730	1.600405
C190	C	0.978179	-0.325957	0.857090
C191	C	1.311512	0.007376	1.190423
C192	C	1.644846	0.340710	1.523756
C193	C	0.978176	-0.325969	0.795998
C194	C	1.311510	0.007364	1.129331
C195	C	1.644843	0.340697	1.462664
H196	H	0.236448	-0.404735	0.404650
H197	H	0.569782	-0.071402	0.737984
H198	H	0.903115	0.261932	1.071317
O199	O	0.370142	-0.240561	0.241068
O200	O	0.703476	0.092773	0.574401
O201	O	1.036809	0.426106	0.907735
C202	C	0.352918	-0.173120	0.255989
C203	C	0.686252	0.160213	0.589322
C204	C	1.019585	0.493546	0.922656
H205	H	0.301612	-0.171754	0.282022
H206	H	0.634945	0.161579	0.615355
H207	H	0.968279	0.494912	0.948688
H208	H	0.350481	-0.142711	0.207192
H209	H	0.683814	0.190622	0.540525
H210	H	1.017148	0.523955	0.873859
H211	H	0.392734	-0.150361	0.290817
H212	H	0.726067	0.182972	0.624151
H213	H	1.059400	0.516305	0.957484
H214	H	0.899599	-0.939519	0.404684
H215	H	1.232933	-0.606185	0.738017
H216	H	1.566266	-0.272852	1.071351
O217	O	0.370137	-0.411562	0.411474
O218	O	0.703470	-0.078229	0.744807
O219	O	1.036804	0.255105	1.078141
C220	C	0.323788	-0.449828	0.449610
C221	C	0.657121	-0.116495	0.782943
C222	C	0.990455	0.216838	1.116276
H223	H	0.273415	-0.422108	0.452011
H224	H	0.606748	-0.088775	0.785344
H225	H	0.940081	0.244558	1.118677
H226	H	0.344240	-0.457116	0.502922
H227	H	0.677574	-0.123783	0.836255
H228	H	1.010907	0.209551	1.169588
H229	H	0.316230	-0.501202	0.424735
H230	H	0.649563	-0.167869	0.758069
H231	H	0.982897	0.165464	1.091402
H232	H	1.056827	-1.067715	0.247809
H233	H	1.390161	-0.734382	0.581143
H234	H	1.723494	-0.401048	0.914476
O235	O	0.725883	-0.240610	0.240914
O236	O	1.059216	0.092724	0.574247
O237	O	1.392550	0.426057	0.907580
C238	C	0.679528	-0.202349	0.202787
C239	C	1.012862	0.130984	0.536120
C240	C	1.346195	0.464318	0.869453
H241	H	0.629125	-0.230071	0.200402
H242	H	0.962459	0.103263	0.533736
H243	H	1.295792	0.436596	0.867069
H244	H	0.699928	-0.195066	0.149468
H245	H	1.033262	0.138267	0.482802
H246	H	1.366595	0.471600	0.816135
H247	H	0.672048	-0.150972	0.227658
H248	H	1.005382	0.182361	0.560991
H249	H	1.338715	0.515694	0.894324
O250	O	1.063506	-0.240512	0.934824
O251	O	1.396840	0.092821	1.268158
O252	O	1.730173	0.426155	1.601491
C253	C	1.048761	-0.173052	0.952130
C254	C	1.382094	0.160282	1.285463
C255	C	1.715427	0.493615	1.618797
H256	H	0.994692	-0.169633	0.971546
H257	H	1.328026	0.163701	1.304879
H258	H	1.661359	0.497034	1.638213
H259	H	1.054603	-0.139618	0.905657
H260	H	1.387936	0.193716	1.238990
H261	H	1.721269	0.527049	1.572324
H262	H	1.085062	-0.155354	0.993179
H263	H	1.418395	0.177979	1.326512
H264	H	1.751729	0.511312	1.659845
O265	O	1.063605	-0.240791	0.578998
O266	O	1.396938	0.092542	0.912331
O267	O	1.730272	0.425875	1.245665
C268	C	1.107283	-0.279335	0.538098
C269	C	1.440617	0.053999	0.871431
C270	C	1.773950	0.387332	1.204764
H271	H	1.111441	-0.332639	0.559386
H272	H	1.444774	0.000695	0.892720
H273	H	1.778107	0.334028	1.226053
H274	H	1.159385	-0.254855	0.537315
H275	H	1.492718	0.078478	0.870649
H276	H	1.826051	0.411812	1.203982
H277	H	1.086346	-0.281677	0.484519
H278	H	1.419679	0.051657	0.817852
H279	H	1.753012	0.384990	1.151186
O280	O	1.063392	-0.578234	0.240844
O281	O	1.396725	-0.244901	0.574178
O282	O	1.730059	0.088433	0.907511
C283	C	1.048638	-0.595553	0.173372
C284	C	1.381971	-0.262220	0.506705
C285	C	1.715304	0.071114	0.840039
H286	H	1.022641	-0.646901	0.171952
H287	H	1.355974	-0.313568	0.505285
H288	H	1.689307	0.019765	0.838619
H289	H	1.097506	-0.597947	0.143074
H290	H	1.430840	-0.264613	0.476407
H291	H	1.764173	0.068720	0.809740
H292	H	1.013837	-0.555817	0.150531
H293	H	1.347170	-0.222483	0.483864
H294	H	1.680503	0.110850	0.817197
H295	H	0.236426	-0.247469	0.247851
H296	H	0.569759	0.085864	0.581184
H297	H	0.903093	0.419197	0.914517
O298	O	0.892582	-0.578307	0.411456
O299	O	1.225916	-0.244973	0.744789
O300	O	1.559249	0.088360	1.078123
C301	C	0.854377	-0.624667	0.449638
C302	C	1.187711	-0.291334	0.782972
C303	C	1.521044	0.042000	1.116305
H304	H	0.852067	-0.675075	0.421920
H305	H	1.185401	-0.341741	0.755253
H306	H	1.518734	-0.008408	1.088587
H307	H	0.801038	-0.604282	0.456798
H308	H	1.134371	-0.270948	0.790131
H309	H	1.467705	0.062385	1.123464
H310	H	0.879132	-0.632133	0.501072
H311	H	1.212465	-0.298799	0.834405
H312	H	1.545798	0.034534	1.167739
H313	H	0.720453	-0.404706	0.404565
H314	H	1.053787	-0.071372	0.737898
H315	H	1.387120	0.261961	1.071231
H316	H	1.056795	-0.247384	1.068589
H317	H	1.390128	0.085949	1.401923
H318	H	1.723462	0.419283	1.735256
O319	O	0.892873	-1.073428	0.411439
O320	O	1.226206	-0.740095	0.744772
O321	O	1.559540	-0.406761	1.078105
C322	C	0.902199	-1.143394	0.402187
C323	C	1.235533	-0.810061	0.735521
C324	C	1.568866	-0.476727	1.068854
H325	H	0.924403	-1.153059	0.349977
H326	H	1.257737	-0.819726	0.683310
H327	H	1.591070	-0.486393	1.016644
H328	H	0.851508	-1.170302	0.406728
H329	H	1.184842	-0.836969	0.740062
H330	H	1.518175	-0.503635	1.073395
H331	H	0.938227	-1.163398	0.442375
H332	H	1.271560	-0.830064	0.775708
H333	H	1.604893	-0.496731	1.109042
H334	H	1.056766	-0.939479	0.247786
H335	H	1.390100	-0.606145	0.581120
H336	H	1.723433	-0.272812	0.914453
O337	O	0.892685	-0.411251	0.578913
O338	O	1.226019	-0.077917	0.912246
O339	O	1.559352	0.255416	1.245579
C340	C	0.848994	-0.372726	0.538009
C341	C	1.182327	-0.039392	0.871342
C342	C	1.515660	0.293941	1.204676
H343	H	0.844847	-0.319410	0.559320
H344	H	1.178180	0.013923	0.892653
H345	H	1.511514	0.347256	1.225986
H346	H	0.796891	-0.397203	0.537191
H347	H	1.130224	-0.063870	0.870525
H348	H	1.463557	0.269464	1.203858
H349	H	0.869911	-0.370412	0.484441
H350	H	1.203245	-0.037078	0.817775
H351	H	1.536578	0.296255	1.151108
O352	O	1.063593	-0.717415	0.240998
O353	O	1.396926	-0.384082	0.574331
O354	O	1.730260	-0.050748	0.907664
C355	C	1.131025	-0.700054	0.255890
C356	C	1.464358	-0.366721	0.589224
C357	C	1.797691	-0.033388	0.922557
H358	H	1.132358	-0.648721	0.281920
H359	H	1.465692	-0.315388	0.615253
H360	H	1.799025	0.017946	0.948586
H361	H	1.161414	-0.697608	0.207081
H362	H	1.494748	-0.364275	0.540414
H363	H	1.828081	-0.030941	0.873747
H364	H	1.153829	-0.739795	0.290712
H365	H	1.487162	-0.406462	0.624045
H366	H	1.820495	-0.073128	0.957378
O367	O	0.586755	-0.411590	0.411394
O368	O	0.920089	-0.078256	0.744727
O369	O	1.253422	0.255077	1.078061
C370	C	0.633113	-0.449832	0.449536
C371	C	0.966446	-0.116498	0.782869
C372	C	1.299779	0.216835	1.116202
H373	H	0.683485	-0.452135	0.421802
H374	H	1.016818	-0.118801	0.755135
H375	H	1.350152	0.214532	1.088468
H376	H	0.612669	-0.503171	0.456662
H377	H	0.946003	-0.169838	0.789995
H378	H	1.279336	0.163496	1.123328
H379	H	0.640670	-0.425114	0.500985
H380	H	0.974003	-0.091781	0.834319
H381	H	1.307336	0.241553	1.167652
O382	O	1.063618	-0.240643	0.718276
O383	O	1.396951	0.092690	1.051609
O384	O	1.730284	0.426024	1.384942
C385	C	1.101831	-0.202445	0.671941
C386	C	1.435164	0.130889	1.005274
C387	C	1.768498	0.464222	1.338608
H388	H	1.104148	-0.230182	0.621547
H389	H	1.437482	0.103152	0.954881
H390	H	1.770815	0.436485	1.288214
H391	H	1.155167	-0.195229	0.692381
H392	H	1.488500	0.138104	1.025715
H393	H	1.821834	0.471438	1.359048
H394	H	1.077079	-0.151037	0.664427
H395	H	1.410412	0.182297	0.997761
H396	H	1.743746	0.515630	1.331094
H397	H	0.899580	-0.404507	0.712747
H398	H	1.232913	-0.071174	1.046080
H399	H	1.566246	0.262159	1.379413
O400	O	0.892732	-0.411163	0.934672
O401	O	1.226065	-0.077830	1.268005
O402	O	1.559398	0.255503	1.601339
C403	C	0.849046	-0.372628	0.893771
C404	C	1.182379	-0.039294	1.227105
C405	C	1.515713	0.294039	1.560438
H406	H	0.844901	-0.319316	0.915092
H407	H	1.178234	0.014017	1.248425
H408	H	1.511568	0.347351	1.581758
H409	H	0.796942	-0.397101	0.892944
H410	H	1.130275	-0.063768	1.226277
H411	H	1.463608	0.269565	1.559611
H412	H	0.869969	-0.370305	0.840206
H413	H	1.203303	-0.036971	1.173540
H414	H	1.536636	0.296362	1.506873
H415	H	0.592195	-0.247451	0.247783
H416	H	0.925528	0.085883	0.581117
H417	H	1.258862	0.419216	0.914450
O418	O	0.892798	-0.717625	0.411492
O419	O	1.226131	-0.384292	0.744826
O420	O	1.559464	-0.050958	1.078159
C421	C	0.931324	-0.758438	0.455266
C422	C	1.264657	-0.425104	0.788599
C423	C	1.597991	-0.091771	1.121933
H424	H	0.982634	-0.769003	0.431445
H425	H	1.315967	-0.435670	0.764778
H426	H	1.649300	-0.102336	1.098111
H427	H	0.903765	-0.808161	0.464324
H428	H	1.237099	-0.474828	0.797657
H429	H	1.570432	-0.141494	1.130990
H430	H	0.938727	-0.731153	0.505426
H431	H	1.272060	-0.397820	0.838759
H432	H	1.605394	-0.064486	1.172092
H433	H	0.899628	-0.404435	1.068505
H434	H	1.232961	-0.071101	1.401838
H435	H	1.566294	0.262232	1.735172
