data_functionalizedCrystal
_audit_creation_method	'MofGen! by Chris Wilmer'
_symmetry_space_group_name_H-M	'P1'
_symmetry_Int_Tables_number	1
_symmetry_cell_setting	triclinic
loop_
_symmetry_equiv_pos_as_xyz
  x,y,z
_cell_length_a	15.944545
_cell_length_b	10.489741
_cell_length_c	9.565339
_cell_angle_alpha	90.000900
_cell_angle_beta	89.998129
_cell_angle_gamma	95.982327
loop_
_atom_site_label
_atom_site_type_symbol
_atom_site_fract_x
_atom_site_fract_y
_atom_site_fract_z
O1	O	0.118501	-1.692406	-0.116181
O2	O	0.129625	-1.321056	-0.116203
O3	O	0.001849	-1.516876	-0.116175
O4	O	0.246277	-1.496586	-0.116209
O5	O	0.001857	-1.516860	0.116345
O6	O	0.129633	-1.321040	0.116317
O7	O	0.118509	-1.692391	0.116339
Zn8	Zn	0.124072	-1.506713	0.153246
Zn9	Zn	0.124062	-1.506733	-0.153110
O10	O	0.246285	-1.496570	0.116311
C11	C	0.128788	-1.273528	0.000054
C12	C	0.126275	-1.131933	0.000046
C13	C	-0.029447	-1.516027	0.000086
C14	C	-0.122708	-1.513506	0.000090
C15	C	0.119345	-1.739918	0.000079
C16	C	0.121859	-1.881513	0.000078
C17	C	-0.394116	-1.384595	0.000054
C18	C	-0.343160	-1.446753	-0.114587
C19	C	-0.458406	-1.504516	0.000050
C20	C	-0.343180	-1.446770	0.114659
C21	C	-0.293466	-1.508926	0.000072
C22	C	-0.408679	-1.566642	-0.114686
C23	C	-0.408702	-1.566641	0.114663
C24	C	-0.357779	-1.628888	-0.000006
C25	C	-0.553423	-1.501971	0.000036
C26	C	-0.198451	-1.511480	0.000076
C27	C	0.277580	-1.497419	0.000046
C28	C	0.370842	-1.499940	0.000033
N29	N	0.124079	-1.506708	0.362325
C30	C	0.044975	-1.064923	0.000071
C31	C	0.083376	-0.972270	-0.114576
C32	C	0.083403	-0.972289	0.114670
C33	C	0.164710	-1.041145	-0.114696
C34	C	0.164726	-1.041174	0.114654
C35	C	0.203186	-0.948547	-0.000021
N36	N	0.124048	-1.506748	-0.362189
C37	C	0.183151	-1.416121	0.453515
C38	C	0.200147	-1.531382	0.546698
C39	C	0.107090	-1.391497	0.546697
C40	C	0.141113	-1.622027	0.453456
C41	C	0.048022	-1.482067	0.453447
C42	C	0.064986	-1.597411	0.546588
H43	H	-0.314534	-1.396114	-0.211515
O44	O	-0.442811	-1.626927	-0.230403
C45	C	-0.530997	-1.623811	-0.229030
H46	H	-0.547502	-1.540694	-0.161088
H47	H	-0.554341	-1.610450	-0.340187
H48	H	-0.562459	-1.717767	-0.184706
O49	O	0.042479	-0.935935	0.230452
C50	C	0.084634	-0.972787	0.351132
H51	H	0.153075	-0.984370	0.324210
H52	H	0.082529	-0.896065	0.435105
H53	H	0.052384	-1.067722	0.391666
O54	O	0.242734	-1.324835	0.404510
C55	C	0.241456	-1.325309	0.257125
H56	H	0.177028	-1.368924	0.219012
H57	H	0.254054	-1.222811	0.216868
H58	H	0.292251	-1.384571	0.216314
O59	O	0.276859	-1.556458	0.595417
C60	C	0.295214	-1.677075	0.545907
H61	H	0.257165	-1.702492	0.447053
H62	H	0.365386	-1.673354	0.521307
H63	H	0.277937	-1.752911	0.629323
H64	H	-0.314567	-1.396097	0.211577
H65	H	0.015015	-1.674119	0.587198
H66	H	-0.341666	-1.732245	-0.000065
H67	H	0.155546	-1.719497	0.412672
O68	O	0.089803	-1.275296	0.595487
C69	C	0.010219	-1.248569	0.545905
H70	H	-0.029175	-1.342155	0.518277
H71	H	-0.023315	-1.196490	0.630478
H72	H	0.018793	-1.185451	0.448871
O73	O	-0.442826	-1.626817	0.230440
C74	C	-0.409287	-1.563248	0.351079
H75	H	-0.385327	-1.460100	0.323607
H76	H	-0.460511	-1.563626	0.434272
H77	H	-0.354906	-1.614614	0.392912
O78	O	-0.034780	-1.125226	-0.000303
C79	C	-0.077339	-1.090313	-0.121386
H80	H	-0.029323	-1.056910	-0.205452
H81	H	-0.120020	-1.176550	-0.161401
H82	H	-0.117089	-1.009251	-0.095220
O83	O	0.042280	-0.936067	-0.230239
C84	C	0.015197	-1.045230	-0.310764
H85	H	0.009898	-1.133861	-0.241071
H86	H	-0.048984	-1.033346	-0.358698
H87	H	0.062775	-1.056755	-0.397637
O88	O	-0.028599	-1.456978	0.404362
C89	C	-0.018994	-1.345399	0.321258
H90	H	0.048463	-1.329554	0.280448
H91	H	-0.064625	-1.357024	0.229293
H92	H	-0.033052	-1.259393	0.386831
O93	O	0.205790	-1.077485	-0.230320
C94	C	0.276690	-1.138277	-0.189426
H95	H	0.266825	-1.177386	-0.078788
H96	H	0.285284	-1.220516	-0.264233
H97	H	0.335292	-1.066088	-0.192189
H98	H	0.270091	-0.898194	-0.000093
O99	O	0.205847	-1.077473	0.230237
C100	C	0.288774	-1.015865	0.231208
H101	H	0.291650	-0.925111	0.165066
H102	H	0.308059	-0.989617	0.343167
H103	H	0.333669	-1.083047	0.186177
O104	O	-0.413502	-1.261373	-0.000333
C105	C	-0.379954	-1.198601	-0.121426
H106	H	-0.370182	-1.272665	-0.205484
H107	H	-0.425633	-1.130270	-0.161444
H108	H	-0.316922	-1.142109	-0.095270
