data_functionalizedCrystal
_audit_creation_method	'MofGen! by Chris Wilmer'
_symmetry_space_group_name_H-M	'P1'
_symmetry_Int_Tables_number	1
_symmetry_cell_setting	triclinic
loop_
_symmetry_equiv_pos_as_xyz
  x,y,z
_cell_length_a	16.625548
_cell_length_b	21.295417
_cell_length_c	16.625539
_cell_angle_alpha	89.966627
_cell_angle_beta	89.979432
_cell_angle_gamma	90.031575
loop_
_atom_site_label
_atom_site_type_symbol
_atom_site_fract_x
_atom_site_fract_y
_atom_site_fract_z
Zn1	Zn	1.232635	-0.250590	-0.455881
Zn2	Zn	1.732635	0.249410	0.044119
Zn3	Zn	1.232520	-0.355864	-0.321036
Zn4	Zn	1.732520	0.144136	0.178964
Zn5	Zn	1.097797	-0.250614	-0.321061
Zn6	Zn	1.597797	0.249386	0.178939
Zn7	Zn	1.097749	-0.355827	-0.455826
Zn8	Zn	1.597749	0.144173	0.044174
O9	O	1.165175	-0.303224	-0.388451
O10	O	1.665175	0.196776	0.111549
O11	O	1.345452	-0.264560	-0.438006
O12	O	1.845452	0.235440	0.061994
O13	O	1.214620	-0.341927	-0.208207
O14	O	1.714620	0.158073	0.291793
O15	O	1.115753	-0.162522	-0.338979
O16	O	1.615753	0.337478	0.161021
O17	O	1.345367	-0.341904	-0.338936
O18	O	1.845367	0.158096	0.161064
O19	O	1.214818	-0.162504	-0.438030
O20	O	1.714818	0.337496	0.061970
O21	O	1.115640	-0.264601	-0.208226
O22	O	1.615640	0.235399	0.291774
O23	O	0.984958	-0.264566	-0.338926
O24	O	1.484958	0.235434	0.161074
O25	O	1.115670	-0.341842	-0.568666
O26	O	1.615670	0.158158	-0.068666
O27	O	0.984923	-0.341866	-0.437937
O28	O	1.484923	0.158134	0.062063
O29	O	1.214771	-0.264525	-0.568706
O30	O	1.714771	0.235475	-0.068706
O31	O	1.214573	-0.443948	-0.338883
O32	O	1.714573	0.056052	0.161117
O33	O	1.115558	-0.443922	-0.437912
O34	O	1.615558	0.056078	0.062088
C35	C	0.955684	-0.303215	-0.388429
C36	C	1.455684	0.196785	0.111571
C37	C	0.866063	-0.303226	-0.388438
C38	C	1.366063	0.196774	0.111562
C39	C	0.537888	-0.303230	-0.388473
C40	C	1.037888	0.196770	0.111527
C41	C	0.629196	-0.303227	-0.388460
C42	C	1.129196	0.196773	0.111540
C43	C	0.701973	-0.303229	-0.388455
C44	C	1.201973	0.196771	0.111545
C45	C	0.793287	-0.303225	-0.388444
C46	C	1.293287	0.196775	0.111556
C47	C	1.165070	-0.466775	-0.388407
C48	C	1.665070	0.033225	0.111593
C49	C	1.165098	-0.536744	-0.388414
C50	C	1.665098	-0.036744	0.111586
C51	C	1.216701	-0.569603	-0.336903
C52	C	1.716701	-0.069603	0.163097
C53	C	1.216739	-0.635346	-0.336921
C54	C	1.716739	-0.135346	0.163079
C55	C	1.165159	-0.668226	-0.388442
C56	C	1.665159	-0.168226	0.111558
C57	C	1.113552	-0.635359	-0.439964
C58	C	1.613552	-0.135359	0.060036
C59	C	1.113522	-0.569617	-0.439950
C60	C	1.613522	-0.069617	0.060050
N61	N	1.094624	-0.771493	-0.394581
N62	N	1.594624	-0.271493	0.105419
N63	N	1.094656	-0.833944	-0.394590
N64	N	1.594656	-0.333944	0.105410
C65	C	1.165250	-0.866301	-0.388488
C66	C	1.665250	-0.366301	0.111512
N67	N	1.235813	-0.833847	-0.382362
N68	N	1.735813	-0.333847	0.117638
N69	N	1.235780	-0.771389	-0.382350
N70	N	1.735780	-0.271389	0.117650
C71	C	1.165187	-0.739511	-0.388463
C72	C	1.665187	-0.239511	0.111537
C73	C	1.216898	-0.970446	-0.336994
C74	C	1.716898	-0.470446	0.163006
C75	C	1.216937	-1.036189	-0.337017
C76	C	1.716937	-0.536189	0.162983
C77	C	1.113743	-1.036201	-0.440056
C78	C	1.613743	-0.536201	0.059944
C79	C	1.113711	-0.970459	-0.440037
C80	C	1.613711	-0.470459	0.059963
C81	C	1.165288	-0.937585	-0.388501
C82	C	1.665288	-0.437585	0.111499
C83	C	1.375484	-0.303233	-0.388474
C84	C	1.875484	0.196767	0.111526
C85	C	1.465105	-0.303237	-0.388484
C86	C	1.965105	0.196763	0.111516
C87	C	1.165228	-0.303177	-0.598760
C88	C	1.665228	0.196823	-0.098760
C89	C	1.165250	-0.303157	-0.688381
C90	C	1.665250	0.196843	-0.188381
C91	C	1.165303	-0.139033	-0.388514
C92	C	1.665303	0.360967	0.111486
C93	C	1.165358	-0.069065	-0.388540
C94	C	1.665358	0.430935	0.111460
C95	C	1.165287	-0.303086	-1.016557
C96	C	1.665287	0.196914	-0.516557
C97	C	1.165275	-0.303108	-0.925249
C98	C	1.665275	0.196892	-0.425249
C99	C	1.165269	-0.303122	-0.852472
C100	C	1.665269	0.196878	-0.352472
C101	C	1.165256	-0.303143	-0.761158
C102	C	1.665256	0.196857	-0.261158
C103	C	1.165169	-0.303225	-0.178960
C104	C	1.665169	0.196775	0.321040
C105	C	1.165303	-0.303068	-0.089340
C106	C	1.665303	0.196932	0.410660
H107	H	1.258700	-0.542839	-0.294941
H108	H	1.758700	-0.042839	0.205059
C109	C	1.325217	-0.709230	-0.325794
C110	C	1.825217	-0.209230	0.174206
C111	C	1.273443	-0.671483	-0.280281
C112	C	1.773443	-0.171483	0.219719
H113	H	1.360219	-0.731537	-0.290822
H114	H	1.860219	-0.231537	0.209178
H115	H	1.294503	-0.738208	-0.356488
H116	H	1.794503	-0.238208	0.143512
H117	H	1.356051	-0.683542	-0.360930
H118	H	1.856051	-0.183542	0.139070
H119	H	1.242604	-0.697172	-0.245148
H120	H	1.742604	-0.197172	0.254852
H121	H	1.304160	-0.642502	-0.249573
H122	H	1.804160	-0.142502	0.250427
H123	H	1.071557	-0.662134	-0.481915
H124	H	1.571557	-0.162134	0.018085
H125	H	1.071500	-0.542862	-0.481898
H126	H	1.571500	-0.042862	0.018102
H127	H	1.071688	-0.943703	-0.481979
H128	H	1.571688	-0.443703	0.018021
C129	C	1.318905	-0.977035	-0.235148
C130	C	1.818905	-0.477035	0.264852
C131	C	1.273594	-0.934306	-0.280353
C132	C	1.773594	-0.434306	0.219647
H133	H	1.353908	-0.954724	-0.200183
H134	H	1.853908	-0.454724	0.299817
H135	H	1.283805	-1.002721	-0.204282
H136	H	1.783805	-0.502721	0.295718
H137	H	1.349740	-1.002632	-0.270322
H138	H	1.849740	-0.502632	0.229678
H139	H	1.242754	-0.908712	-0.245178
H140	H	1.742754	-0.408712	0.254822
H141	H	1.308698	-0.908609	-0.311220
H142	H	1.808698	-0.408609	0.188780
C143	C	1.067971	-1.136979	-0.485830
C144	C	1.567971	-0.636979	0.014170
C145	C	1.057047	-1.072336	-0.496693
C146	C	1.557047	-0.572336	0.003307
H147	H	1.032966	-1.159288	-0.520796
H148	H	1.532966	-0.659288	-0.020796
H149	H	1.122139	-1.147702	-0.497683
H150	H	1.622139	-0.647702	0.002317
H151	H	1.056203	-1.147789	-0.431645
H152	H	1.556203	-0.647789	0.068355
H153	H	1.068821	-1.061525	-0.550877
H154	H	1.568821	-0.561525	-0.050877
H155	H	1.002867	-1.061609	-0.484846
H156	H	1.502867	-0.561609	0.015154
H157	H	1.258964	-1.062943	-0.295072
H158	H	1.758964	-0.562943	0.204928
