data_functionalizedCrystal
_audit_creation_method	'MofGen! by Chris Wilmer'
_symmetry_space_group_name_H-M	'P1'
_symmetry_Int_Tables_number	1
_symmetry_cell_setting	triclinic
loop_
_symmetry_equiv_pos_as_xyz
  x,y,z
_cell_length_a	14.519709
_cell_length_b	14.519731
_cell_length_c	14.185569
_cell_angle_alpha	76.818244
_cell_angle_beta	103.184626
_cell_angle_gamma	83.684499
loop_
_atom_site_label
_atom_site_type_symbol
_atom_site_fract_x
_atom_site_fract_y
_atom_site_fract_z
O1	O	1.203024	0.141733	-0.083293
O2	O	0.934541	0.155977	-0.083324
O3	O	1.075893	0.014616	-0.083298
O4	O	1.061672	0.283095	-0.083318
O5	O	1.117650	-0.027139	0.083544
O6	O	0.976298	0.114222	0.083518
O7	O	1.244781	0.099978	0.083549
Cu8	Cu	1.114352	0.103288	0.098768
Cu9	Cu	1.064970	0.152668	-0.098542
O10	O	1.103429	0.241340	0.083524
C11	C	1.096105	-0.040621	0.000123
C12	C	1.094109	-0.143002	0.000123
C13	C	0.921058	0.134437	0.000094
C14	C	0.818674	0.132452	0.000082
C15	C	1.092487	-0.226145	0.000121
C16	C	1.090458	-0.330452	0.000113
C17	C	1.088848	-0.413589	0.000106
C18	C	1.086820	-0.517903	0.000100
C19	C	0.443789	0.125121	0.000128
C20	C	0.548094	0.127157	0.000115
C21	C	0.631228	0.128787	0.000104
C22	C	0.735540	0.130822	0.000093
C23	C	1.258263	0.121519	0.000130
C24	C	1.360646	0.123506	0.000135
C25	C	1.083216	0.296577	0.000101
C26	C	1.085210	0.398959	0.000094
N27	N	1.149091	0.068556	0.237545
N28	N	1.030238	0.187392	-0.237319
C29	C	0.928173	0.289394	0.605155
C30	C	0.954494	0.263092	0.710182
C31	C	1.079687	0.137963	0.710165
C32	C	1.053373	0.164252	0.605137
C33	C	0.977616	0.239969	0.552640
C34	C	1.102817	0.114826	0.552622
C35	C	1.076508	0.141117	0.447602
C36	C	1.000756	0.216833	0.395098
C37	C	0.951308	0.266260	0.447621
C38	C	1.178578	0.039114	0.605120
C39	C	1.228021	-0.010311	0.552605
C40	C	1.201709	0.015975	0.447584
C41	C	1.125957	0.091691	0.395080
C42	C	1.251157	-0.033452	0.395061
C43	C	1.224848	-0.007161	0.290042
C44	C	1.099648	0.117981	0.290061
H45	H	1.037953	0.179631	0.247316
Cl46	Cl	1.287011	-0.069296	0.224021
Cl47	Cl	0.967686	0.249889	0.263072
Cl48	Cl	0.856058	0.361440	0.381621
H49	H	1.289706	-0.071959	0.595360
H50	H	1.312845	-0.095096	0.437818
H51	H	0.866478	0.351044	0.562411
Cl52	Cl	1.174924	0.042780	0.776168
Cl53	Cl	0.892327	0.325241	0.776194
H54	H	1.199998	0.017714	0.690634
