data_functionalizedCrystal
_audit_creation_method	'MofGen! by Chris Wilmer'
_symmetry_space_group_name_H-M	'P1'
_symmetry_Int_Tables_number	1
_symmetry_cell_setting	triclinic
loop_
_symmetry_equiv_pos_as_xyz
  x,y,z
_cell_length_a	19.805407
_cell_length_b	18.050589
_cell_length_c	19.805398
_cell_angle_alpha	89.979370
_cell_angle_beta	89.984135
_cell_angle_gamma	90.028221
loop_
_atom_site_label
_atom_site_type_symbol
_atom_site_fract_x
_atom_site_fract_y
_atom_site_fract_z
Zn1	Zn	1.034702	-0.295689	-0.382745
Zn2	Zn	1.034621	-0.419877	-0.269567
Zn3	Zn	0.921524	-0.295706	-0.269569
Zn4	Zn	0.921477	-0.419842	-0.382713
O5	O	0.978081	-0.357778	-0.326148
O6	O	1.129408	-0.312171	-0.367743
O7	O	1.019604	-0.403428	-0.174850
O8	O	0.936592	-0.191779	-0.284596
O9	O	1.129348	-0.403411	-0.284592
O10	O	1.019743	-0.191766	-0.367746
O11	O	0.936513	-0.312199	-0.174852
O12	O	0.826802	-0.312165	-0.284566
O13	O	0.936511	-0.403350	-0.477434
O14	O	0.826767	-0.403367	-0.367693
O15	O	1.019697	-0.312136	-0.477457
O16	O	1.019558	-0.523797	-0.284562
O17	O	0.936432	-0.523771	-0.367690
C18	C	0.802225	-0.357764	-0.326127
C19	C	0.726993	-0.357776	-0.326133
C20	C	0.977999	-0.550731	-0.326137
C21	C	0.978026	-0.633276	-0.326155
C22	C	0.691649	-0.405336	-0.369347
C23	C	0.620960	-0.405338	-0.369357
C24	C	0.585618	-0.357782	-0.326148
C25	C	0.620967	-0.310216	-0.282933
C26	C	0.691654	-0.310212	-0.282927
C27	C	0.335894	-0.310233	-0.282955
C28	C	0.265202	-0.310242	-0.282962
C29	C	0.265200	-0.405359	-0.369385
C30	C	0.335887	-0.405354	-0.369379
C31	C	0.371230	-0.357786	-0.326166
C32	C	0.447879	-0.357784	-0.326157
C33	C	0.508970	-0.357787	-0.326153
C34	C	0.932867	-0.832740	-0.371344
C35	C	0.916372	-0.882176	-0.309581
C36	C	0.978093	-0.784407	-0.326164
C37	C	0.994621	-0.882051	-0.387934
C38	C	0.978156	-0.930392	-0.326178
C39	C	0.961566	-0.832756	-0.264368
C40	C	1.039843	-0.832627	-0.342762
C41	C	1.023372	-0.882042	-0.280957
C42	C	0.978055	-0.700308	-0.326157
C43	C	0.978194	-1.014488	-0.326178
C44	C	1.154624	-0.357793	-0.326171
C45	C	1.229856	-0.357800	-0.326180
C46	C	0.978108	-0.357737	-0.502691
C47	C	0.978119	-0.357720	-0.577923
C48	C	0.978182	-0.164073	-0.326175
C49	C	0.978224	-0.081527	-0.326186
C50	C	1.021516	-0.310093	-1.039727
C51	C	1.021505	-0.310116	-0.969039
C52	C	0.978188	-0.357616	-0.933685
C53	C	0.934884	-0.405103	-0.969023
C54	C	0.934899	-0.405083	-1.039711
C55	C	0.934826	-0.405183	-0.683950
C56	C	0.934813	-0.405198	-0.613258
C57	C	1.021432	-0.310216	-0.613278
C58	C	1.021446	-0.310196	-0.683966
C59	C	0.978145	-0.357685	-0.719298
C60	C	0.978158	-0.357661	-0.795946
C61	C	0.978172	-0.357637	-0.857038
C62	C	0.978094	-0.357766	-0.150292
C63	C	0.978214	-0.357574	-0.075061
H64	H	0.720419	-0.444064	-0.404530
H65	H	0.947552	-0.811192	-0.212121
H66	H	0.899566	-0.443851	-0.712709
H67	H	0.894564	-0.811091	-0.409498
C68	C	1.069098	-0.257942	-0.722851
N69	N	1.104993	-0.218586	-0.752138
H70	H	1.092022	-0.810848	-0.356819
C71	C	1.013473	-0.911304	-0.458498
N72	N	1.027668	-0.933334	-0.511648
C73	C	0.226316	-0.457679	-0.416926
N74	N	0.197029	-0.497086	-0.452733
H75	H	1.056785	-0.271407	-1.068507
H76	H	1.056768	-0.271454	-0.940274
H77	H	1.056692	-0.271550	-0.584502
C78	C	0.887162	-0.457458	-0.574370
N79	N	0.851272	-0.496818	-0.545080
H80	H	0.236428	-0.271512	-0.247777
C81	C	0.582084	-0.457672	-0.416883
N82	N	0.552803	-0.497098	-0.452677
C83	C	0.374762	-0.257911	-0.235415
N84	N	0.404040	-0.218501	-0.199604
C85	C	0.582088	-0.257902	-0.235404
N86	N	0.552804	-0.218500	-0.199604
C87	C	0.887234	-0.457353	-0.930132
N88	N	0.851341	-0.496706	-0.900839
H89	H	0.720431	-0.271479	-0.247741
H90	H	0.364659	-0.444082	-0.404562
C91	C	0.845862	-0.911579	-0.290617
N92	N	0.792752	-0.933724	-0.276338
C93	C	1.075075	-0.911109	-0.229289
N94	N	1.114015	-0.933005	-0.190371
C95	C	0.887262	-0.457315	-1.078577
N96	N	0.851381	-0.496658	-1.107850
