data_functionalizedCrystal
_audit_creation_method	'MofGen! by Chris Wilmer'
_symmetry_space_group_name_H-M	'P1'
_symmetry_Int_Tables_number	1
_symmetry_cell_setting	triclinic
loop_
_symmetry_equiv_pos_as_xyz
  x,y,z
_cell_length_a	12.837943
_cell_length_b	12.996460
_cell_length_c	12.837942
_cell_angle_alpha	89.994579
_cell_angle_beta	85.171060
_cell_angle_gamma	90.004257
loop_
_atom_site_label
_atom_site_type_symbol
_atom_site_fract_x
_atom_site_fract_y
_atom_site_fract_z
O1	O	1.402337	0.085548	-0.272142
O2	O	1.099204	0.085554	-0.258699
O3	O	1.244049	0.085544	-0.113854
O4	O	1.257492	0.085557	-0.416988
O5	O	1.244031	-0.085589	-0.113844
O6	O	1.099186	-0.085580	-0.258689
O7	O	1.402320	-0.085586	-0.272132
Cu8	Cu	1.250751	-0.101209	-0.265409
Cu9	Cu	1.250772	0.101176	-0.265422
O10	O	1.257475	-0.085577	-0.416977
C11	C	1.060126	-0.000013	-0.254153
C12	C	0.943711	-0.000010	-0.240608
N13	N	1.250744	-0.243556	-0.265401
C14	C	0.718837	-0.000018	-0.403437
C15	C	0.609454	-0.000017	-0.390716
C16	C	0.615562	-0.000014	-0.202445
C17	C	0.724944	-0.000015	-0.215166
C18	C	0.776578	-0.000016	-0.315666
C19	C	0.885962	-0.000010	-0.328386
C20	C	0.892067	-0.000014	-0.140116
C21	C	0.782685	-0.000013	-0.127395
C22	C	1.250771	-0.663370	-0.265423
C23	C	1.250761	-0.546565	-0.265420
C24	C	1.250758	-0.453467	-0.265413
C25	C	1.250747	-0.336654	-0.265408
C26	C	1.441398	-0.000018	-0.276679
C27	C	1.557813	-0.000013	-0.290223
C28	C	1.239499	-0.000022	-0.074780
C29	C	1.225954	-0.000020	0.041635
N30	N	1.250787	0.243524	-0.265423
C31	C	1.262025	-0.000008	-0.456051
C32	C	1.275569	-0.000004	-0.572467
C33	C	1.388784	-0.000002	0.266510
C34	C	1.376062	0.000000	0.375892
C35	C	1.187791	-0.000007	0.369785
C36	C	1.200513	-0.000009	0.260402
C37	C	1.301012	-0.000008	0.208769
C38	C	1.313732	-0.000017	0.099384
C39	C	1.125462	-0.000017	0.093279
C40	C	1.112741	-0.000015	0.202661
H41	H	0.760878	-0.000017	-0.485268
N42	N	1.079403	0.000004	0.425484
H43	H	1.084668	0.000010	0.503538
H44	H	1.040513	-0.063440	0.405047
H45	H	0.928000	-0.000012	-0.410218
N46	N	1.422124	-0.000023	0.043692
H47	H	1.461067	0.063420	0.064052
H48	H	1.416778	-0.000068	-0.034347
N49	N	0.559862	-0.000042	-0.094057
H50	H	0.481808	-0.000052	-0.099322
H51	H	0.580306	0.063394	-0.055164
N52	N	0.954344	-0.000001	-0.045439
H53	H	1.031473	0.000003	-0.068744
H54	H	0.936557	-0.063439	-0.002097
N55	N	1.497171	-0.000017	0.210810
H56	H	1.550846	-0.000018	0.263988
H57	H	1.506560	0.063423	0.165550
H58	H	1.030917	-0.000011	0.244717
H59	H	1.447536	0.000008	0.422901
N60	N	0.547157	-0.000018	-0.485371
H61	H	0.501635	-0.063459	-0.484268
H62	H	0.596521	0.000019	-0.550922
N63	N	1.030790	-0.000027	0.030996
H64	H	1.031872	0.063409	-0.014533
H65	H	0.965248	-0.000068	0.080374
H66	H	0.740630	-0.000024	-0.045571
