data_functionalizedCrystal
_audit_creation_method	'MofGen! by Chris Wilmer'
_symmetry_space_group_name_H-M	'P1'
_symmetry_Int_Tables_number	1
_symmetry_cell_setting	triclinic
loop_
_symmetry_equiv_pos_as_xyz
  x,y,z
_cell_length_a	19.288864
_cell_length_b	27.732048
_cell_length_c	18.366186
_cell_angle_alpha	89.988789
_cell_angle_beta	89.977106
_cell_angle_gamma	82.889449
loop_
_atom_site_label
_atom_site_type_symbol
_atom_site_fract_x
_atom_site_fract_y
_atom_site_fract_z
O1	O	0.920977	0.060300	-0.060791
O2	O	0.718665	0.068434	-0.060742
O3	O	0.826104	-0.006011	-0.060754
O4	O	0.813538	0.134745	-0.060779
O5	O	0.826086	-0.006014	0.060345
O6	O	0.718647	0.068430	0.060357
O7	O	0.920959	0.060296	0.060309
Zn8	Zn	0.819800	0.064363	0.079560
Zn9	Zn	0.819824	0.064368	-0.079994
O10	O	0.813520	0.134741	0.060321
C11	C	0.692781	0.068171	-0.000186
C12	C	0.615683	0.067385	-0.000167
C13	C	0.570714	0.111066	-0.000186
C14	C	0.498271	0.110328	-0.000194
C15	C	0.470801	0.065906	-0.000197
C16	C	0.515780	0.022219	-0.000174
C17	C	0.588220	0.022959	-0.000159
C18	C	0.362763	0.030987	-0.042642
C19	C	0.290323	0.030250	-0.042662
C20	C	0.247370	0.063624	-0.000241
C21	C	0.276863	0.097744	0.042190
C22	C	0.349304	0.098483	0.042206
C23	C	0.392252	0.065099	-0.000213
C24	C	0.123850	0.106507	-0.000268
C25	C	0.051406	0.105767	-0.000271
C26	C	0.068916	0.017658	-0.000258
C27	C	0.141358	0.018399	-0.000248
C28	C	0.168820	0.062825	-0.000256
C29	C	0.825831	-0.024020	-0.000202
C30	C	0.825037	-0.077678	-0.000196
C31	C	0.883526	-0.416316	-0.000248
C32	C	0.880579	-0.617985	-0.000257
O33	O	0.934063	-0.649079	-0.000302
N34	N	0.816872	-0.637301	-0.000241
C35	C	0.753897	-0.606196	-0.000227
O36	O	0.699643	-0.627253	-0.000222
C37	C	0.756845	-0.404529	-0.000223
C38	C	0.820556	-0.385216	-0.000232
C39	C	0.947232	-0.397002	-0.000257
C40	C	0.947968	-0.346588	-0.000251
C41	C	0.884998	-0.315488	-0.000235
C42	C	0.821292	-0.334801	-0.000226
C43	C	0.693871	-0.373425	-0.000215
C44	C	0.694614	-0.323006	-0.000216
C45	C	0.758325	-0.303693	-0.000224
C46	C	0.759059	-0.253287	-0.000203
N47	N	0.822766	-0.233971	-0.000219
C48	C	0.885735	-0.265071	-0.000235
C49	C	0.752354	-0.712075	-0.000228
C50	C	0.751617	-0.762492	-0.000228
C51	C	0.878299	-0.774276	-0.000259
C52	C	0.879035	-0.723859	-0.000254
C53	C	0.816061	-0.692759	-0.000244
C54	C	0.887276	-0.159197	-0.000221
C55	C	0.888007	-0.108778	-0.000212
C56	C	0.761325	-0.096998	-0.000185
C57	C	0.760595	-0.147412	-0.000190
C58	C	0.823576	-0.178511	-0.000211
O59	O	0.705603	-0.222164	-0.000167
O60	O	0.939982	-0.244005	-0.000257
C61	C	0.882790	-0.466730	-0.000254
C62	C	0.819084	-0.486044	-0.000245
C63	C	0.756114	-0.454943	-0.000229
C64	C	0.818347	-0.536461	-0.000244
C65	C	0.881317	-0.567561	-0.000260
C66	C	0.945023	-0.548245	-0.000276
C67	C	0.945760	-0.497831	-0.000270
C68	C	0.692407	-0.474260	-0.000213
C69	C	0.691676	-0.524674	-0.000218
C70	C	0.754646	-0.555775	-0.000234
C71	C	0.946842	0.060560	-0.000249
C72	C	1.023941	0.061345	-0.000273
C73	C	0.813792	0.152751	-0.000233
C74	C	0.814587	0.206408	-0.000244
N75	N	0.819789	0.064359	0.188451
N76	N	0.819841	0.064367	-0.188885
C77	C	0.867378	0.031411	0.226546
C78	C	0.867383	0.031409	0.302774
C79	C	0.819804	0.064363	0.340904
C80	C	0.772206	0.097314	0.302800
C81	C	0.772198	0.097312	0.226573
C82	C	0.810231	0.108406	0.461658
C83	C	0.810244	0.108409	0.537883
C84	C	0.819824	0.064369	0.576011
C85	C	0.829406	0.020325	0.537906
C86	C	0.829398	0.020323	0.461679
C87	C	0.819807	0.064369	0.423559
C88	C	0.867421	0.031416	0.696761
C89	C	0.867420	0.031413	0.772991
C90	C	0.772247	0.097322	0.773015
C91	C	0.772244	0.097321	0.696787
C92	C	0.819835	0.064368	0.658665
H93	H	0.461651	0.145899	-0.000207
H94	H	0.999848	-0.330868	-0.000261
O95	O	0.839581	-0.027154	0.420512
H96	H	0.886814	-0.028392	0.385692
O97	O	0.381123	0.135263	0.087997
H98	H	0.339091	0.158340	0.117507
O99	O	0.918722	-0.004144	0.655641
H100	H	0.910721	0.001389	0.596235
H101	H	0.643331	-0.297686	-0.000209
H102	H	0.708716	-0.163138	-0.000163
O103	O	0.189862	-0.028716	-0.000233
H104	H	0.244850	-0.020740	-0.000215
H105	H	0.699737	-0.778212	-0.000208
O106	O	0.693409	-0.063450	-0.000169
H107	H	0.704631	-0.025149	-0.000174
O108	O	0.258524	-0.006553	-0.088425
H109	H	0.221663	0.012663	-0.128288
O110	O	0.799923	0.155910	0.578982
H111	H	0.793251	0.186533	0.539665
H112	H	0.837207	-0.015536	0.568948
O113	O	0.486155	-0.025693	-0.000172
H114	H	0.504289	-0.046678	-0.049518
O115	O	0.720891	0.132861	0.343919
H116	H	0.728897	0.127332	0.403324
O117	O	0.720873	0.132853	0.185477
H118	H	0.687790	0.155771	0.224794
H119	H	0.593069	0.147241	-0.000194
O120	O	0.622952	-0.545499	-0.000208
H121	H	0.619568	-0.568192	0.049150
O122	O	1.015155	-0.430543	-0.000264
H123	H	1.059570	-0.408635	-0.000263
H124	H	0.397731	0.003809	-0.077191
H125	H	0.241891	0.124920	0.076734
O126	O	0.918702	-0.004136	0.185435
H127	H	0.952241	0.016150	0.150684
H128	H	0.146211	0.142682	-0.000263
O129	O	0.684428	-0.678533	-0.000202
H130	H	0.640011	-0.700440	-0.000180
H131	H	0.624835	-0.012613	-0.000144
H132	H	0.939890	-0.093056	-0.000217
H133	H	0.938562	-0.184513	-0.000241
H134	H	0.930914	-0.708138	-0.000262
O135	O	0.720916	0.132863	0.655700
H136	H	0.687371	0.112573	0.621003
H137	H	0.641128	-0.448942	-0.000201
O138	O	0.946219	-0.807824	-0.000281
H139	H	0.934996	-0.846125	-0.000286
O140	O	0.002901	0.152884	-0.000284
H141	H	-0.030502	0.154653	-0.049643
O142	O	0.799903	0.155908	0.420535
H143	H	0.793254	0.186534	0.459836
H144	H	0.046551	-0.018511	-0.000306
O145	O	0.625154	-0.394249	-0.000208
H146	H	0.581498	-0.364146	-0.000206
H147	H	0.997640	-0.482111	-0.000277
O148	O	1.012944	-0.581793	-0.000293
H149	H	1.001720	-0.620094	-0.000300
O150	O	0.918719	-0.004124	0.343877
H151	H	0.951814	-0.027035	0.304562
O152	O	0.918758	-0.004120	0.814085
H153	H	0.951854	-0.027028	0.774767
H154	H	0.733505	0.124152	0.804060
