data_functionalizedCrystal
_audit_creation_method	'MofGen! by Chris Wilmer'
_symmetry_space_group_name_H-M	'P1'
_symmetry_Int_Tables_number	1
_symmetry_cell_setting	triclinic
loop_
_symmetry_equiv_pos_as_xyz
  x,y,z
_cell_length_a	13.339070
_cell_length_b	15.538191
_cell_length_c	11.804365
_cell_angle_alpha	97.089886
_cell_angle_beta	74.875130
_cell_angle_gamma	81.450694
loop_
_atom_site_label
_atom_site_type_symbol
_atom_site_fract_x
_atom_site_fract_y
_atom_site_fract_z
O1	O	1.209080	0.418419	-0.099025
O2	O	0.935320	0.361861	-0.099024
O3	O	1.125491	0.266938	-0.099030
O4	O	1.018909	0.513341	-0.099019
O5	O	1.075439	0.291892	0.099027
O6	O	0.885268	0.386815	0.099033
O7	O	1.159028	0.443373	0.099033
Cu8	Cu	1.017578	0.417373	0.117117
Cu9	Cu	1.076770	0.387861	-0.117109
O10	O	0.968857	0.538296	0.099039
C11	C	0.876113	0.364784	0.000005
C12	C	0.774268	0.336307	0.000004
C13	C	0.328172	0.557731	-0.000004
C14	C	0.423860	0.584490	-0.000008
C15	C	0.511466	0.522446	-0.000004
C16	C	0.503376	0.433640	0.000002
C17	C	0.407681	0.406878	-0.000004
C18	C	0.590975	0.371593	-0.000004
C19	C	0.582885	0.282786	0.000002
C20	C	0.487198	0.256029	-0.000003
C21	C	0.399592	0.318072	-0.000006
C22	C	0.686670	0.398355	0.000002
C23	C	0.766179	0.247501	0.000002
C24	C	0.670491	0.220743	0.000006
C25	C	1.111617	0.247233	-0.000006
C26	C	1.144835	0.151340	-0.000018
C27	C	0.814845	-0.222695	0.000009
C28	C	0.846078	-0.312797	0.000012
C29	C	1.021762	-0.289322	0.000011
C30	C	0.990545	-0.199217	0.000002
C31	C	0.887085	-0.165911	0.000003
C32	C	1.062785	-0.142432	-0.000004
C33	C	1.031568	-0.052335	-0.000006
C34	C	0.928112	-0.019021	-0.000002
C35	C	0.855868	-0.075813	0.000001
C36	C	1.166242	-0.175739	0.000004
C37	C	1.238482	-0.118955	-0.000003
C38	C	1.207268	-0.028856	-0.000013
C39	C	1.103812	0.004457	-0.000009
C40	C	1.279512	0.027936	-0.000016
C41	C	1.248295	0.118034	-0.000018
C42	C	1.072595	0.094555	-0.000011
C43	C	1.218236	0.440449	0.000001
C44	C	1.320083	0.468926	-0.000006
C45	C	0.982732	0.558000	0.000011
C46	C	0.949516	0.653893	0.000016
N47	N	0.975952	0.438131	0.281859
N48	N	1.118406	0.367098	-0.281851
C49	C	1.218370	0.317233	0.655800
C50	C	1.249860	0.301526	0.531137
C51	C	1.181386	0.335676	0.468812
C52	C	1.081416	0.385536	0.531161
C53	C	1.049926	0.401251	0.655836
C54	C	1.012942	0.419693	0.468847
C55	C	0.912972	0.469553	0.531197
C56	C	0.881487	0.485265	0.655860
C57	C	0.949962	0.451115	0.718185
C58	C	1.044432	0.403978	0.344173
C59	C	0.875988	0.487995	0.344208
C60	C	0.844498	0.503703	0.468871
H61	H	0.837512	0.196979	-0.000000
Cl62	Cl	0.755819	0.547958	0.734243
H63	H	0.902696	0.054344	0.000003
Cl64	Cl	0.218045	0.635715	-0.000027
Cl65	Cl	1.339106	0.189427	-0.000004
H66	H	1.363746	0.000805	-0.000005
H67	H	1.125827	0.363382	0.293419
H68	H	1.191658	-0.249105	-0.000005
H69	H	1.207029	0.322884	0.367306
Cl70	Cl	0.684782	-0.180819	-0.000002
H71	H	1.331254	0.260931	0.480377
Cl72	Cl	1.304447	0.274317	0.734153
H73	H	0.693245	0.470662	0.000002
H74	H	0.924321	0.463901	0.819696
H75	H	0.820231	0.515805	0.293464
Cl76	Cl	0.279290	0.284437	0.000001
Cl77	Cl	0.718826	0.566384	0.547266
H78	H	0.430441	0.656794	-0.000022
Cl79	Cl	0.631759	0.556088	-0.000004
H80	H	0.988350	0.121673	-0.000020
H81	H	0.771623	-0.048695	-0.000008
H82	H	1.105998	-0.316452	0.000015
Cl83	Cl	0.660307	0.109103	0.000011
Cl84	Cl	0.477040	0.144381	-0.000035
H85	H	0.787240	-0.359027	0.000034
Cl86	Cl	1.368539	-0.160833	0.000006
