data_functionalizedCrystal
_audit_creation_method	'MofGen! by Chris Wilmer'
_symmetry_space_group_name_H-M	'P1'
_symmetry_Int_Tables_number	1
_symmetry_cell_setting	triclinic
loop_
_symmetry_equiv_pos_as_xyz
  x,y,z
_cell_length_a	18.050590
_cell_length_b	18.050589
_cell_length_c	12.759393
_cell_angle_alpha	89.969175
_cell_angle_beta	89.995106
_cell_angle_gamma	90.017386
loop_
_atom_site_label
_atom_site_type_symbol
_atom_site_fract_x
_atom_site_fract_y
_atom_site_fract_z
Zn1	Zn	1.135334	-0.295829	-0.593638
Zn2	Zn	1.135232	-0.420040	-0.417961
Zn3	Zn	1.011141	-0.295844	-0.418016
Zn4	Zn	1.011101	-0.419958	-0.593641
O5	O	1.073202	-0.357918	-0.505814
O6	O	1.239245	-0.312333	-0.570310
O7	O	1.118745	-0.403605	-0.270947
O8	O	1.027674	-0.191918	-0.441334
O9	O	1.239170	-0.403590	-0.441241
O10	O	1.118919	-0.191906	-0.570363
O11	O	1.027576	-0.312360	-0.270987
O12	O	0.907211	-0.312281	-0.441337
O13	O	1.027607	-0.403452	-0.740662
O14	O	0.907182	-0.403467	-0.570368
O15	O	1.118880	-0.312254	-0.740660
O16	O	1.118707	-0.523953	-0.441244
O17	O	1.027508	-0.523894	-0.570315
C18	C	0.880250	-0.357867	-0.505859
C19	C	0.797704	-0.357863	-0.505903
C20	C	1.073112	-0.550870	-0.505797
C21	C	1.073142	-0.633416	-0.505824
C22	C	0.598259	-0.407592	-0.575904
C23	C	0.548868	-0.339873	-0.601750
C24	C	0.646574	-0.357905	-0.505852
C25	C	0.548883	-0.425663	-0.480005
C26	C	0.500589	-0.357951	-0.505805
C27	C	0.598270	-0.290150	-0.531749
C28	C	0.598290	-0.375985	-0.409958
C29	C	0.548921	-0.308219	-0.435769
C30	C	0.730672	-0.357879	-0.505882
C31	C	0.416492	-0.357969	-0.505774
C32	C	1.023597	-0.832861	-0.575989
C33	C	1.005492	-0.882306	-0.480126
C34	C	1.073215	-0.784546	-0.505838
C35	C	1.091356	-0.882182	-0.601712
C36	C	1.073284	-0.930531	-0.505860
C37	C	1.055075	-0.832904	-0.409924
C38	C	1.140970	-0.832776	-0.531575
C39	C	1.122891	-0.882199	-0.435646
C40	C	1.073173	-0.700448	-0.505827
C41	C	1.073326	-1.014628	-0.505860
C42	C	1.266908	-0.357969	-0.505769
C43	C	1.349453	-0.357991	-0.505750
C44	C	1.073250	-0.357842	-0.779847
C45	C	1.073271	-0.357810	-0.896624
C46	C	1.073312	-0.164212	-0.505854
C47	C	1.073359	-0.081666	-0.505872
C48	C	1.025819	-0.310290	-0.951513
C49	C	1.025842	-0.310267	-1.061237
C50	C	1.120774	-0.405288	-1.061174
C51	C	1.120747	-0.405314	-0.951452
C52	C	0.978343	-0.262786	-0.896686
C53	C	0.930888	-0.215261	-0.951575
C54	C	0.930910	-0.215239	-1.061299
C55	C	0.978388	-0.262742	-1.116134
C56	C	1.073197	-0.357940	-0.232847
C57	C	1.073320	-0.357763	-0.116070
H58	H	0.527159	-0.324596	-0.682825
H59	H	1.039692	-0.811348	-0.328832
O60	O	0.973368	-0.807044	-0.646543
C61	C	0.902045	-0.832301	-0.619033
H62	H	0.900686	-0.846196	-0.531888
H63	H	0.888125	-0.883974	-0.666454
C64	C	0.846446	-0.754255	-0.749677
C65	C	0.844774	-0.771314	-0.642641
H66	H	0.811117	-0.716637	-0.764243
H67	H	0.894497	-0.737240	-0.768214
H68	H	0.834847	-0.797320	-0.789182
H69	H	0.856381	-0.728251	-0.603139
H70	H	0.796723	-0.788320	-0.624098
O71	O	0.624159	-0.221844	-0.557952
C72	C	0.702265	-0.222648	-0.557678
H73	H	0.722709	-0.281831	-0.569227
H74	H	0.723418	-0.200519	-0.479542
C75	C	0.706282	-0.100779	-0.633143
C76	C	0.731392	-0.173468	-0.647337
H77	H	0.724250	-0.070440	-0.688445
H78	H	0.653661	-0.100236	-0.633324
H79	H	0.723912	-0.082349	-0.568026
H80	H	0.713754	-0.191900	-0.712446
H81	H	0.784011	-0.174013	-0.647169
O82	O	1.166975	-0.451318	-1.114483
C83	C	1.214968	-0.409031	-1.177962
H84	H	1.219579	-0.350550	-1.144909
H85	H	1.192029	-0.406446	-1.261128
C86	C	1.286490	-0.517159	-1.220206
C87	C	1.292158	-0.445333	-1.179604
H88	H	1.334104	-0.539552	-1.221223
H89	H	1.254155	-0.545649	-1.177442
H90	H	1.267371	-0.514995	-1.289507
H91	H	1.311267	-0.447498	-1.110300
H92	H	1.324498	-0.416844	-1.222356
O93	O	1.166880	-0.451371	-0.898014
C94	C	1.214869	-0.409120	-0.834558
H95	H	1.188708	-0.352835	-0.818146
H96	H	1.269920	-0.400968	-0.876825
C97	C	1.260394	-0.519142	-0.750475
C98	C	1.228260	-0.450013	-0.730310
H99	H	1.268657	-0.544367	-0.686171
H100	H	1.228065	-0.547608	-0.793228
H101	H	1.306267	-0.512339	-0.785699
H102	H	1.182384	-0.456818	-0.695098
H103	H	1.260581	-0.421550	-0.687547
O104	O	0.884697	-0.169099	-0.898476
C105	C	0.842830	-0.127141	-0.970455
H106	H	0.840259	-0.157543	-1.048659
H107	H	0.870060	-0.070743	-0.982135
C108	C	0.766944	-0.079086	-0.831611
C109	C	0.763781	-0.116429	-0.927660
H110	H	0.718184	-0.072474	-0.805212
H111	H	0.795152	-0.107351	-0.783116
H112	H	0.789639	-0.032091	-0.841357
H113	H	0.741095	-0.163426	-0.917910
H114	H	0.735567	-0.088171	-0.976152
H115	H	0.527393	-0.266171	-0.376508
O116	O	0.978202	-0.262737	-0.790101
C117	C	0.926139	-0.210607	-0.753476
H118	H	0.882768	-0.200178	-0.816722
H119	H	0.955619	-0.156470	-0.734018
C120	C	0.941300	-0.253692	-0.576638
C121	C	0.888028	-0.240887	-0.654314
H122	H	0.917793	-0.272368	-0.515467
H123	H	0.976378	-0.288811	-0.601311
H124	H	0.965862	-0.208575	-0.560436
H125	H	0.863473	-0.286006	-0.670524
H126	H	0.852945	-0.205776	-0.629641
O127	O	1.173076	-0.907802	-0.364876
C128	C	1.244214	-0.881468	-0.391309
H129	H	1.238802	-0.829172	-0.440847
H130	H	1.275070	-0.925685	-0.437788
C131	C	1.294196	-0.927844	-0.229633
C132	C	1.287549	-0.863610	-0.290470
H133	H	1.320930	-0.916832	-0.167432
H134	H	1.246270	-0.945588	-0.211825
H135	H	1.319908	-0.964686	-0.268378
H136	H	1.261830	-0.826773	-0.251730
H137	H	1.335472	-0.845859	-0.308268
O138	O	0.937180	-0.908354	-0.454302
C139	C	0.909654	-0.952379	-0.536829
H140	H	0.957860	-0.973975	-0.585778
H141	H	0.871514	-0.917629	-0.588365
C142	C	0.806782	-0.991712	-0.431119
C143	C	0.865990	-1.018242	-0.491234
H144	H	0.779845	-1.032338	-0.402995
H145	H	0.825325	-0.962050	-0.375519
H146	H	0.775007	-0.962754	-0.474075
H147	H	0.897769	-1.047191	-0.448275
H148	H	0.847452	-1.047911	-0.546825
H149	H	0.619925	-0.449537	-0.635211
H150	H	1.198223	-0.811005	-0.553369
H151	H	0.620015	-0.391282	-0.328907
H152	H	1.106672	-0.903828	-0.682782
O153	O	0.523085	-0.494053	-0.454068
C154	C	0.548205	-0.546230	-0.528178
H155	H	0.600207	-0.524247	-0.568261
H156	H	0.503213	-0.555997	-0.589333
C157	C	0.502309	-0.646725	-0.423147
C158	C	0.566182	-0.619727	-0.472371
H159	H	0.513395	-0.692063	-0.388724
H160	H	0.485382	-0.611573	-0.373218
H161	H	0.464821	-0.654859	-0.474118
H162	H	0.603665	-0.611585	-0.421398
H163	H	0.583115	-0.654880	-0.522289
O164	O	0.884729	-0.169188	-1.114663
C165	C	0.836761	-0.211441	-1.178146
H166	H	0.832136	-0.269939	-1.145064
H167	H	0.859734	-0.213986	-1.261298
C168	C	0.765259	-0.103291	-1.220490
C169	C	0.759573	-0.175137	-1.179852
H170	H	0.717647	-0.080896	-1.221547
H171	H	0.797578	-0.074823	-1.177723
H172	H	0.784406	-0.105422	-1.289779
H173	H	0.740436	-0.173005	-1.110560
H174	H	0.727250	-0.203604	-1.222607
H175	H	0.978400	-0.262722	-1.205479
