data_functionalizedCrystal
_audit_creation_method	'MofGen! by Chris Wilmer'
_symmetry_space_group_name_H-M	'P1'
_symmetry_Int_Tables_number	1
_symmetry_cell_setting	triclinic
loop_
_symmetry_equiv_pos_as_xyz
  x,y,z
_cell_length_a	13.339070
_cell_length_b	14.472310
_cell_length_c	13.339070
_cell_angle_alpha	90.004905
_cell_angle_beta	64.370703
_cell_angle_gamma	90.016657
loop_
_atom_site_label
_atom_site_type_symbol
_atom_site_fract_x
_atom_site_fract_y
_atom_site_fract_z
O1	O	-1.496821	-0.076892	0.550523
O2	O	-1.182012	-0.076882	0.478263
O3	O	-1.303286	-0.076883	0.356988
O4	O	-1.375546	-0.076891	0.671797
O5	O	-1.303242	0.076799	0.356986
O6	O	-1.181968	0.076800	0.478261
O7	O	-1.496777	0.076790	0.550521
Cu8	Cu	-1.339368	0.090827	0.514391
Cu9	Cu	-1.339420	-0.090920	0.514393
O10	O	-1.375502	0.076791	0.671796
C11	C	-1.140874	-0.000040	0.466056
C12	C	-1.018360	-0.000036	0.429672
N13	N	-1.339339	0.218658	0.514391
C14	C	-0.732973	-0.000051	0.712571
C15	C	-0.848081	-0.000058	0.746759
C16	C	-0.890657	-0.000052	0.667490
C17	C	-0.818112	-0.000040	0.554028
C18	C	-0.702992	-0.000041	0.519837
C19	C	-0.860677	-0.000042	0.474756
C20	C	-0.788132	-0.000030	0.361294
C21	C	-0.673023	-0.000030	0.327109
C22	C	-0.630448	-0.000036	0.406377
C23	C	-0.975796	-0.000041	0.508947
C24	C	-0.945816	-0.000031	0.316213
C25	C	-0.830707	-0.000025	0.282025
C26	C	-1.339402	0.592749	0.514392
C27	C	-1.274124	0.553584	0.578896
C28	C	-1.274427	0.446496	0.579282
C29	C	-1.339370	0.407158	0.514392
C30	C	-1.460974	0.445991	0.571579
C31	C	-1.460642	0.553113	0.572076
C32	C	-1.284025	0.553282	0.392721
C33	C	-1.281615	0.446155	0.392751
C34	C	-1.339359	0.302270	0.514391
C35	C	-1.339422	0.697637	0.514397
C36	C	-0.537914	-0.000050	0.562728
C37	C	-0.660428	-0.000046	0.599111
C38	C	-1.291058	-0.000043	0.315872
C39	C	-1.254675	-0.000046	0.193358
N40	N	-1.339433	0.781249	0.514392
C41	C	-1.537574	-0.000054	-0.092030
C42	C	-1.571761	-0.000047	0.023079
C43	C	-1.492493	-0.000047	0.065655
C44	C	-1.379030	-0.000054	-0.006890
C45	C	-1.344839	-0.000054	-0.122010
C46	C	-1.299758	-0.000047	0.035674
C47	C	-1.186296	-0.000054	-0.036871
C48	C	-1.152111	-0.000055	-0.151979
C49	C	-1.231380	-0.000055	-0.194555
C50	C	-1.333949	-0.000046	0.150794
C51	C	-1.141215	-0.000046	0.120813
C52	C	-1.107028	-0.000054	0.005705
C53	C	-1.387730	-0.000051	0.712912
C54	C	-1.424114	-0.000055	0.835426
H55	H	-1.034852	-0.000047	0.601328
H56	H	-1.014645	-0.000059	-0.053377
H57	H	-1.602102	-0.000047	-0.126707
H58	H	-1.512444	0.579018	0.528668
C59	C	-1.519921	0.586856	0.693275
C60	C	-1.642130	0.560403	0.765235
C61	C	-1.701408	0.594140	0.886437
C62	C	-1.638478	0.654332	0.935678
C63	C	-1.516262	0.680789	0.863717
C64	C	-1.456984	0.647051	0.742515
H65	H	-1.688722	0.515842	0.728784
H66	H	-1.791881	0.574555	0.939707
H67	H	-1.682359	0.679306	1.025399
H68	H	-1.469670	0.725349	0.900168
H69	H	-1.366511	0.666637	0.689245
H70	H	-1.512047	0.420507	0.527192
H71	H	-1.505078	0.419151	0.660473
H72	H	-0.984385	-0.000060	0.695333
H73	H	-0.907140	-0.000075	0.839139
H74	H	-1.520335	-0.000040	0.159382
H75	H	-1.195532	0.580353	0.345714
H76	H	-1.191999	0.420776	0.350101
H77	H	-1.203550	-0.000064	-0.288284
C78	C	-1.153718	0.411022	0.526856
C79	C	-1.130351	0.306409	0.516944
C80	C	-1.009637	0.270941	0.464520
C81	C	-0.912290	0.340085	0.422007
C82	C	-0.935655	0.444704	0.431918
C83	C	-1.056369	0.480173	0.484342
H84	H	-1.202415	0.255218	0.548415
H85	H	-0.992341	0.193494	0.457183
H86	H	-0.822930	0.313829	0.383200
H87	H	-0.863591	0.495895	0.400447
H88	H	-1.073665	0.557619	0.491679
H89	H	-1.076667	-0.000042	0.155477
H90	H	-1.323601	0.419381	0.340012
H91	H	-0.698296	-0.000064	0.777099
C92	C	-1.347816	0.587498	0.327353
C93	C	-1.309789	0.558287	0.205322
C94	C	-1.373585	0.592508	0.139966
C95	C	-1.475409	0.655941	0.196640
C96	C	-1.513441	0.685156	0.318678
C97	C	-1.449644	0.650935	0.384034
H98	H	-1.234408	0.511327	0.163363
H99	H	-1.345431	0.570881	0.049626
H100	H	-1.522635	0.681274	0.148260
H101	H	-1.588821	0.732116	0.360637
H102	H	-1.477799	0.672562	0.474374
H103	H	-1.426331	-0.000040	0.209849
H104	H	-0.536718	-0.000031	0.378547
C105	C	-1.153095	0.588345	0.526621
C106	C	-1.112054	0.652729	0.424731
C107	C	-0.991005	0.687458	0.372417
C108	C	-0.910997	0.657802	0.421993
C109	C	-0.952036	0.593414	0.523889
C110	C	-1.073085	0.558686	0.576203
H111	H	-1.171283	0.674686	0.388027
H112	H	-0.960625	0.735122	0.296986
H113	H	-0.821389	0.683509	0.383267
H114	H	-0.892808	0.571458	0.560594
H115	H	-1.103465	0.511022	0.651634
H116	H	-0.771625	-0.000023	0.189642
H117	H	-1.664142	-0.000040	0.082137
H118	H	-1.059723	-0.000054	-0.211043
H119	H	-0.980480	-0.000030	0.251665
H120	H	-1.312495	0.580491	0.667978
H121	H	-0.613959	-0.000031	0.234721
C122	C	-1.326721	0.411852	0.700351
C123	C	-1.368343	0.481659	0.796984
C124	C	-1.420641	0.447016	0.918059
C125	C	-1.431318	0.342566	0.942500
C126	C	-1.389695	0.272753	0.845864
C127	C	-1.337397	0.307396	0.724790
H128	H	-1.360440	0.558985	0.778893
H129	H	-1.451453	0.498697	0.989595
H130	H	-1.470032	0.316921	1.032127
H131	H	-1.397598	0.195427	0.863955
H132	H	-1.306585	0.255715	0.653254
