data_functionalizedCrystal
_audit_creation_method	'MofGen! by Chris Wilmer'
_symmetry_space_group_name_H-M	'P1'
_symmetry_Int_Tables_number	1
_symmetry_cell_setting	triclinic
loop_
_symmetry_equiv_pos_as_xyz
  x,y,z
_cell_length_a	8.497374
_cell_length_b	19.805407
_cell_length_c	19.805405
_cell_angle_alpha	90.026410
_cell_angle_beta	89.985911
_cell_angle_gamma	89.995496
loop_
_atom_site_label
_atom_site_type_symbol
_atom_site_fract_x
_atom_site_fract_y
_atom_site_fract_z
Zn1	Zn	0.892011	-1.034635	0.269581
Zn2	Zn	0.628188	-1.034580	0.382739
Zn3	Zn	0.628226	-0.921479	0.269569
Zn4	Zn	0.891907	-0.921413	0.382733
O5	O	0.760083	-0.978027	0.326155
O6	O	0.857043	-1.129344	0.284598
O7	O	0.407431	-1.019581	0.367724
O8	O	0.663277	-0.936541	0.174854
O9	O	0.663213	-1.129303	0.367735
O10	O	0.857079	-1.019676	0.174862
O11	O	0.407458	-0.936487	0.284579
O12	O	0.663176	-0.826754	0.284573
O13	O	1.112683	-0.936428	0.367725
O14	O	0.856901	-0.826705	0.367714
O15	O	1.112760	-1.019611	0.284593
O16	O	0.663111	-1.019517	0.477455
O17	O	0.856864	-0.936374	0.477450
C18	C	0.760032	-0.802171	0.326142
C19	C	0.760048	-0.726939	0.326153
C20	C	0.760007	-0.977951	0.502011
C21	C	0.760027	-0.977980	0.577243
C22	C	0.760135	-1.154569	0.326169
C23	C	0.760157	-1.229801	0.326175
C24	C	1.171563	-0.978022	0.326156
C25	C	1.350207	-0.978023	0.326164
C26	C	0.760194	-0.978122	0.149613
C27	C	0.760241	-0.978162	0.074381
C28	C	0.860757	-0.691587	0.369510
C29	C	0.860779	-0.620899	0.369511
C30	C	0.760083	-0.585563	0.326158
C31	C	0.659369	-0.620920	0.282797
C32	C	0.659356	-0.691607	0.282793
C33	C	0.659421	-0.335847	0.282812
C34	C	0.659439	-0.265155	0.282821
C35	C	0.860844	-0.265138	0.369530
C36	C	0.860831	-0.335825	0.369526
C37	C	0.760124	-0.371176	0.326162
C38	C	0.760103	-0.447824	0.326161
C39	C	0.760095	-0.508916	0.326163
C40	C	0.659245	-1.021314	0.612567
C41	C	0.659280	-1.021343	0.683256
C42	C	0.760090	-0.978034	0.718619
C43	C	0.860882	-0.934697	0.683290
C44	C	0.860854	-0.934672	0.612603
C45	C	0.860999	-0.934797	0.968363
C46	C	0.861016	-0.934824	1.039055
C47	C	0.659425	-1.021468	1.039016
C48	C	0.659397	-1.021443	0.968329
C49	C	0.760195	-0.978109	0.933006
C50	C	0.760158	-0.978080	0.856358
C51	C	0.760120	-0.978059	0.795266
H52	H	0.942785	-0.592118	0.404817
H53	H	0.577212	-1.056630	0.712013
C54	C	0.569958	-0.512570	0.244300
C55	C	0.548686	-0.582081	0.235140
H56	H	0.501617	-0.488595	0.214880
H57	H	0.675988	-0.501001	0.234468
H58	H	0.546669	-0.500973	0.289763
H59	H	0.571987	-0.593679	0.189677
H60	H	0.442632	-0.593654	0.244967
C61	C	0.392447	-0.243395	0.249657
C62	C	0.548743	-0.226319	0.235160
H63	H	0.324113	-0.219423	0.220231
H64	H	0.369171	-0.231788	0.295113
H65	H	0.378056	-0.290555	0.243447
H66	H	0.563137	-0.179159	0.241375
H67	H	0.572027	-0.237921	0.189693
C68	C	0.447173	-1.030897	0.888867
C69	C	0.548581	-1.069050	0.929460
H70	H	0.378757	-1.060291	0.864876
H71	H	0.507190	-1.005091	0.857714
H72	H	0.386779	-1.001442	0.916485
H73	H	0.608984	-1.098502	0.901841
H74	H	0.488558	-1.094868	0.960616
H75	H	0.942923	-0.899386	0.583843
H76	H	0.577148	-1.056579	0.583779
C77	C	1.059940	-0.272224	0.455242
C78	C	0.971568	-0.226279	0.417190
H79	H	1.128286	-0.248234	0.484666
H80	H	1.120394	-0.299811	0.425791
H81	H	0.991069	-0.299777	0.481084
H82	H	1.040439	-0.198729	0.391344
H83	H	0.911110	-0.198680	0.446644
C84	C	1.127957	-0.901642	0.705040
C85	C	0.971699	-0.887092	0.722162
H86	H	1.196368	-0.872254	0.729041
H87	H	1.142357	-0.895423	0.657892
H88	H	1.151124	-0.947117	0.716587
H89	H	0.948528	-0.841619	0.710610
H90	H	0.957292	-0.893307	0.769320
C91	C	1.059860	-0.684463	0.455215
C92	C	0.971453	-0.730424	0.417163
H93	H	1.128210	-0.708440	0.484630
H94	H	0.991023	-0.656880	0.481061
H95	H	1.120325	-0.656906	0.425758
H96	H	0.910979	-0.757978	0.446619
H97	H	1.040299	-0.758019	0.391315
C98	C	1.072973	-0.415332	0.379062
C99	C	0.971524	-0.374666	0.417178
H100	H	1.141308	-0.439312	0.408481
H101	H	1.133439	-0.387770	0.349621
H102	H	1.012970	-0.446500	0.353244
H103	H	1.031527	-0.343494	0.442992
H104	H	0.911052	-0.402230	0.446631
H105	H	0.577357	-1.056755	1.067784
H106	H	0.577407	-0.364621	0.247508
C107	C	1.060326	-0.849182	1.031998
C108	C	0.971849	-0.887220	1.077928
H109	H	1.128750	-0.819799	1.055998
H110	H	0.991538	-0.823303	1.004462
H111	H	1.120716	-0.878650	1.004391
H112	H	0.911450	-0.857752	1.105531
H113	H	1.040646	-0.913101	1.105476
C114	C	0.392353	-0.713373	0.249649
C115	C	0.548645	-0.730472	0.235140
H116	H	0.324008	-0.737371	0.220231
H117	H	0.377956	-0.666224	0.243442
H118	H	0.369096	-0.724940	0.295112
H119	H	0.571906	-0.718901	0.189678
H120	H	0.563049	-0.777631	0.241341
C121	C	1.073180	-0.925276	0.888858
C122	C	0.971787	-0.887158	0.929547
H123	H	1.141583	-0.895862	0.864898
H124	H	1.013151	-0.951057	0.857678
H125	H	1.133588	-0.954753	0.916407
H126	H	0.911370	-0.857684	0.901998
H127	H	1.031823	-0.861365	0.960731
