data_functionalizedCrystal
_audit_creation_method	'MofGen! by Chris Wilmer'
_symmetry_space_group_name_H-M	'P1'
_symmetry_Int_Tables_number	1
_symmetry_cell_setting	triclinic
loop_
_symmetry_equiv_pos_as_xyz
  x,y,z
_cell_length_a	10.686220
_cell_length_b	17.637651
_cell_length_c	10.686551
_cell_angle_alpha	75.377812
_cell_angle_beta	90.308082
_cell_angle_gamma	106.361506
loop_
_atom_site_label
_atom_site_type_symbol
_atom_site_fract_x
_atom_site_fract_y
_atom_site_fract_z
Zn1	Zn	1.903571	-0.198904	-0.503375
Zn2	Zn	1.836326	-0.346572	-0.249807
Zn3	Zn	1.670479	-0.219774	-0.303501
Zn4	Zn	1.643327	-0.344918	-0.476075
O5	O	1.763426	-0.277542	-0.383190
O6	O	2.072971	-0.210450	-0.458693
O7	O	1.797547	-0.339178	-0.078587
O8	O	1.740905	-0.102832	-0.363912
O9	O	2.023567	-0.318941	-0.272397
O10	O	1.912157	-0.087499	-0.510758
O11	O	1.675700	-0.246020	-0.118036
O12	O	1.488557	-0.244417	-0.337439
O13	O	1.694628	-0.316123	-0.658038
O14	O	1.468609	-0.336360	-0.464228
O15	O	1.885828	-0.208846	-0.678096
O16	O	1.771219	-0.460526	-0.245925
O17	O	1.629424	-0.459311	-0.412163
C18	C	1.432346	-0.292474	-0.403699
C19	C	1.290705	-0.298881	-0.412497
C20	C	1.690115	-0.489519	-0.320281
C21	C	1.658873	-0.580196	-0.293403
C22	C	2.001635	-0.838204	-0.587723
C23	C	1.972236	-0.923412	-0.562448
C24	C	1.794005	-0.939489	-0.409373
C25	C	1.823394	-0.854281	-0.434630
C26	C	1.927209	-0.803645	-0.523808
C27	C	1.748968	-0.819722	-0.370714
C28	C	1.778350	-0.734521	-0.395975
C29	C	1.882158	-0.683879	-0.485152
C30	C	1.956591	-0.718444	-0.549069
C31	C	1.645147	-0.870360	-0.281544
C32	C	1.570721	-0.835800	-0.217628
C33	C	1.600108	-0.750598	-0.242882
C34	C	1.703917	-0.699956	-0.332058
C35	C	1.525675	-0.716033	-0.178965
C36	C	1.555057	-0.630833	-0.204226
C37	C	1.733299	-0.614755	-0.357319
C38	C	2.095798	-0.262552	-0.362601
C39	C	2.237435	-0.256164	-0.353827
C40	C	1.794701	-0.259972	-0.715602
C41	C	1.808028	-0.252485	-0.857257
C42	C	1.837061	-0.064734	-0.446370
C43	C	1.868439	0.025952	-0.473293
C44	C	1.732367	-0.294981	-0.052083
C45	C	1.719366	-0.302227	0.089518
H46	H	1.300188	-0.214691	-0.296866
H47	H	1.633265	-0.350544	-0.847679
H48	H	1.894142	-0.204171	-0.920064
H49	H	1.709476	-0.980729	-0.336767
Br50	Br	1.874211	-0.546027	-0.478326
Br51	Br	1.186106	-0.368023	-0.507423
H52	H	1.494451	-0.602695	-0.152180
H53	H	1.906080	-0.614503	-0.505717
Br54	Br	1.605460	-0.985993	-0.247038
H55	H	1.441141	-0.757274	-0.106366
H56	H	2.086181	-0.796973	-0.660331
Br57	Br	2.097504	-0.649715	-0.670076
H58	H	1.486192	-0.877040	-0.145023
Br59	Br	2.073260	-0.970311	-0.649195
