data_functionalizedCrystal
_audit_creation_method	'MofGen! by Chris Wilmer'
_symmetry_space_group_name_H-M	'P1'
_symmetry_Int_Tables_number	1
_symmetry_cell_setting	triclinic
loop_
_symmetry_equiv_pos_as_xyz
  x,y,z
_cell_length_a	14.853566
_cell_length_b	14.853567
_cell_length_c	13.930277
_cell_angle_alpha	89.991563
_cell_angle_beta	90.003759
_cell_angle_gamma	83.634672
loop_
_atom_site_label
_atom_site_type_symbol
_atom_site_fract_x
_atom_site_fract_y
_atom_site_fract_z
O1	O	1.196370	0.117686	0.079759
O2	O	1.696370	0.617686	0.579759
O3	O	0.933910	0.131709	0.079774
O4	O	1.433910	0.631709	0.579774
O5	O	1.072150	-0.006532	0.079769
O6	O	1.572150	0.493468	0.579769
O7	O	1.058129	0.255927	0.079764
O8	O	1.558129	0.755927	0.579764
O9	O	1.072130	-0.006511	-0.079893
O10	O	1.572130	0.493489	0.420107
O11	O	0.933890	0.131730	-0.079888
O12	O	1.433890	0.631730	0.420112
O13	O	1.196349	0.117707	-0.079903
O14	O	1.696349	0.617707	0.420097
Zn15	Zn	1.065116	0.124722	-0.105245
Zn16	Zn	1.565116	0.624722	0.394755
Zn17	Zn	1.065143	0.124694	0.105116
Zn18	Zn	1.565143	0.624694	0.605116
O19	O	1.058109	0.255948	-0.079898
O20	O	1.558109	0.755948	0.420102
C21	C	0.900311	0.131084	-0.000055
C22	C	1.400311	0.631084	0.499945
C23	C	0.800227	0.129181	-0.000049
C24	C	1.300227	0.629181	0.499951
C25	C	0.377054	0.121118	0.086966
C26	C	0.877054	0.621118	0.586966
C27	C	0.377053	0.121142	-0.087103
C28	C	0.877053	0.621142	0.412897
C29	C	0.471087	0.122929	-0.087101
C30	C	0.971087	0.622929	0.412899
C31	C	0.518108	0.123813	-0.000063
C32	C	1.018108	0.623813	0.499937
C33	C	0.471096	0.122909	0.086972
C34	C	0.971096	0.622909	0.586972
C35	C	0.518105	0.123843	-0.174134
C36	C	1.018105	0.623843	0.325866
C37	C	0.612145	0.125631	-0.174134
C38	C	1.112145	0.625631	0.325866
C39	C	0.659169	0.126508	-0.087095
C40	C	1.159169	0.626508	0.412905
C41	C	0.612151	0.125603	-0.000057
C42	C	1.112151	0.625603	0.499943
C43	C	0.659172	0.126486	0.086980
C44	C	1.159172	0.626486	0.586980
C45	C	0.612157	0.125575	0.174019
C46	C	1.112157	0.625575	0.674019
C47	C	0.518120	0.123786	0.174010
C48	C	1.018120	0.623786	0.674010
C49	C	0.753206	0.128297	-0.087086
C50	C	1.253206	0.628297	0.412914
C51	C	0.753215	0.128277	0.086986
C52	C	1.253215	0.628277	0.586986
C53	C	1.071505	-0.040111	-0.000059
C54	C	1.571505	0.459889	0.499941
C55	C	1.069601	-0.140194	-0.000051
C56	C	1.569601	0.359806	0.499949
C57	C	0.979435	-0.552728	-0.000064
C58	C	1.479435	-0.052728	0.499936
C59	C	1.143668	-0.574009	-0.000073
C60	C	1.643668	-0.074009	0.499927
C61	C	1.145458	-0.479976	-0.000067
C62	C	1.645458	0.020024	0.499933
C63	C	1.064236	-0.422313	-0.000061
C64	C	1.564236	0.077687	0.499939
C65	C	0.981223	-0.458685	-0.000061
C66	C	1.481223	0.041315	0.499939
C67	C	1.228470	-0.443597	-0.000078
C68	C	1.728470	0.056403	0.499922
C69	C	1.230263	-0.349558	-0.000073
C70	C	1.730263	0.150442	0.499927
C71	C	1.149040	-0.291894	-0.000060
C72	C	1.649040	0.208106	0.499940
C73	C	1.066023	-0.328271	-0.000059
C74	C	1.566023	0.171729	0.499941
C75	C	0.984801	-0.270608	-0.000053
C76	C	1.484801	0.229392	0.499947
C77	C	0.901784	-0.306983	-0.000045
C78	C	1.401784	0.193017	0.499955
C79	C	0.899999	-0.401021	-0.000048
C80	C	1.399999	0.098979	0.499952
C81	C	1.150824	-0.197856	-0.000057
C82	C	1.650824	0.302144	0.499943
C83	C	0.986588	-0.176566	-0.000050
C84	C	1.486588	0.323434	0.499950
C85	C	1.229948	0.118332	-0.000072
C86	C	1.729948	0.618332	0.499928
C87	C	1.330032	0.120235	-0.000071
C88	C	1.830032	0.620235	0.499929
C89	C	1.058754	0.289526	-0.000068
C90	C	1.558754	0.789526	0.499932
C91	C	1.060658	0.389610	-0.000070
C92	C	1.560658	0.889610	0.499930
N93	N	1.065105	0.124740	-0.248811
N94	N	1.565105	0.624740	0.251189
C95	C	1.119899	0.179457	-0.701075
C96	C	1.619899	0.679457	-0.201075
C97	C	1.010415	0.069894	-0.701056
C98	C	1.510415	0.569894	-0.201056
C99	C	1.010401	0.069909	-0.600560
C100	C	1.510401	0.569909	-0.100560
C101	C	1.065138	0.124697	-0.550317
C102	C	1.565138	0.624697	-0.050317
C103	C	1.119889	0.179471	-0.600570
C104	C	1.619889	0.679471	-0.100570
C105	C	0.955659	0.015129	-0.550299
C106	C	1.455659	0.515129	-0.050299
C107	C	0.955643	0.015141	-0.449798
C108	C	1.455643	0.515141	0.050202
C109	C	1.010376	0.069935	-0.399553
C110	C	1.510376	0.569935	0.100447
C111	C	1.065128	0.124711	-0.449812
C112	C	1.565128	0.624711	0.050188
C113	C	1.119865	0.179500	-0.399569
C114	C	1.619865	0.679500	0.100431
C115	C	1.174613	0.234282	-0.449826
C116	C	1.674613	0.734282	0.050174
C117	C	1.174622	0.234265	-0.550325
C118	C	1.674622	0.734265	-0.050325
C119	C	1.010368	0.069952	-0.299054
C120	C	1.510368	0.569952	0.200946
C121	C	1.119855	0.179514	-0.299064
C122	C	1.619855	0.679514	0.200936
N123	N	1.065162	0.124668	0.248682
N124	N	1.565162	0.624668	0.748682
H125	H	0.479813	0.123130	-0.244995
H126	H	0.979813	0.623130	0.255005
H127	H	0.338761	0.120429	-0.157965
H128	H	0.838761	0.620429	0.342035
H129	H	0.965795	0.025347	-0.258139
H130	H	1.465795	0.525347	0.241861
H131	H	1.294597	-0.490552	-0.000091
H132	H	1.794597	0.009448	0.499909
H133	H	0.650453	0.126300	0.244885
H134	H	1.150453	0.626300	0.744885
H135	H	0.791494	0.128993	0.157863
H136	H	1.291494	0.628993	0.657863
H137	H	1.219184	0.278886	-0.408905
H138	H	1.719184	0.778886	0.091095
C139	C	1.180120	0.239709	-0.756351
C140	C	1.680120	0.739709	-0.256351
H141	H	1.172293	0.231854	-0.823401
H142	H	1.672293	0.731854	-0.323401
H143	H	1.163445	0.301366	-0.739898
H144	H	1.663445	0.801366	-0.239898
H145	H	1.241782	0.223065	-0.739866
H146	H	1.741782	0.723065	-0.239866
C147	C	1.233005	-0.637434	-0.000082
C148	C	1.733005	-0.137434	0.499918
H149	H	1.220051	-0.698649	-0.000079
H150	H	1.720051	-0.198649	0.499921
H151	H	1.267035	-0.626384	-0.055758
H152	H	1.767035	-0.126384	0.444242
H153	H	1.267042	-0.626409	0.055604
H154	H	1.767042	-0.126409	0.555604
H155	H	0.338770	0.120373	0.157831
H156	H	0.838770	0.620373	0.657831
C157	C	0.895391	-0.045079	-0.394519
C158	C	1.395391	0.454921	0.105481
H159	H	0.903216	-0.037218	-0.327469
H160	H	1.403216	0.462782	0.172531
H161	H	0.833741	-0.028418	-0.411025
H162	H	1.333741	0.471582	0.088975
H163	H	0.912050	-0.106748	-0.410949
H164	H	1.412050	0.393252	0.089051
H165	H	0.479832	0.123042	0.244873
H166	H	0.979832	0.623042	0.744873
C167	C	0.950210	0.009633	-0.756320
C168	C	1.450210	0.509633	-0.256320
H169	H	0.958054	0.017473	-0.823371
H170	H	1.458054	0.517473	-0.323371
H171	H	0.966878	-0.052020	-0.739827
H172	H	1.466878	0.447980	-0.239827
H173	H	0.888543	0.026283	-0.739868
H174	H	1.388543	0.526283	-0.239868
C175	C	0.895426	-0.045107	-0.605561
C176	C	1.395426	0.454893	-0.105561
H177	H	0.862819	-0.077728	-0.561239
H178	H	1.362819	0.422272	-0.061239
H179	H	0.853993	-0.008219	-0.644768
H180	H	1.353993	0.491781	-0.144768
H181	H	0.932307	-0.086544	-0.644763
H182	H	1.432307	0.413456	-0.144763
C183	C	0.663855	0.126626	-0.269871
C184	C	1.163855	0.626626	0.230129
H185	H	0.622382	0.125838	-0.321707
H186	H	1.122382	0.625838	0.178293
H187	H	0.693734	0.179852	-0.273491
H188	H	1.193734	0.679852	0.226509
H189	H	0.707344	0.074783	-0.273484
H190	H	1.207344	0.574783	0.226516
H191	H	0.791480	0.129049	-0.157952
H192	H	1.291480	0.629049	0.342048
C193	C	0.897242	-0.113144	-0.000044
C194	C	1.397242	0.386856	0.499956
H195	H	0.847549	-0.148278	-0.000047
H196	H	1.347549	0.351722	0.499953
H197	H	0.894532	-0.076023	0.055631
H198	H	1.394532	0.423977	0.555631
H199	H	0.894517	-0.076013	-0.055731
H200	H	1.394517	0.423987	0.444269
H201	H	0.835653	-0.260023	-0.000046
H202	H	1.335653	0.239977	0.499954
H203	H	0.832411	-0.430646	-0.000043
H204	H	1.332411	0.069354	0.499957
C205	C	1.242130	-0.157846	-0.000068
C206	C	1.742130	0.342154	0.499932
H207	H	1.290247	-0.205656	-0.000071
H208	H	1.790247	0.294344	0.499929
H209	H	1.246230	-0.121591	-0.055743
H210	H	1.746230	0.378409	0.444257
H211	H	1.246252	-0.121619	0.055619
H212	H	1.746252	0.378381	0.555619
C213	C	0.888124	-0.592735	-0.000059
C214	C	1.388124	-0.092735	0.499941
H215	H	0.898687	-0.656999	-0.000066
H216	H	1.398687	-0.156999	0.499934
H217	H	0.854682	-0.572957	0.055619
H218	H	1.354682	-0.072957	0.555619
H219	H	0.854674	-0.572942	-0.055743
H220	H	1.354674	-0.072942	0.444257
C221	C	1.234847	0.294507	-0.605609
C222	C	1.734847	0.794507	-0.105609
H223	H	1.227022	0.286641	-0.672658
H224	H	1.727022	0.786641	-0.172658
H225	H	1.218177	0.356167	-0.589168
H226	H	1.718177	0.856167	-0.089168
H227	H	1.296509	0.277861	-0.589119
H228	H	1.796509	0.777861	-0.089119
C229	C	1.321576	-0.309553	-0.000069
C230	C	1.821576	0.190447	0.499931
H231	H	1.369692	-0.357363	-0.000066
H232	H	1.869692	0.142637	0.499934
H233	H	1.325686	-0.273296	-0.055741
H234	H	1.825686	0.226704	0.444259
H235	H	1.325690	-0.273328	0.055621
H236	H	1.825690	0.226672	0.555621
C237	C	1.180065	0.239781	-0.243800
C238	C	1.680065	0.739781	0.256200
H239	H	1.172217	0.231949	-0.176748
H240	H	1.672217	0.731949	0.323252
H241	H	1.241727	0.223146	-0.260258
H242	H	1.741727	0.723146	0.239742
H243	H	1.163380	0.301438	-0.260289
H244	H	1.663380	0.801438	0.239711
