data_functionalizedCrystal
_audit_creation_method	'MofGen! by Chris Wilmer'
_symmetry_space_group_name_H-M	'P1'
_symmetry_Int_Tables_number	1
_symmetry_cell_setting	triclinic
loop_
_symmetry_equiv_pos_as_xyz
  x,y,z
_cell_length_a	21.395362
_cell_length_b	12.759393
_cell_length_c	21.395361
_cell_angle_alpha	90.039434
_cell_angle_beta	89.953415
_cell_angle_gamma	89.960041
loop_
_atom_site_label
_atom_site_type_symbol
_atom_site_fract_x
_atom_site_fract_y
_atom_site_fract_z
Zn1	Zn	0.957835	-0.594559	0.249135
Zn2	Zn	1.457835	-0.094559	0.749135
Zn3	Zn	0.957745	-0.418855	0.353927
Zn4	Zn	1.457745	0.081145	0.853927
Zn5	Zn	0.853057	-0.418829	0.249197
Zn6	Zn	1.353057	0.081171	0.749197
Zn7	Zn	0.853019	-0.594427	0.353907
Zn8	Zn	1.353019	-0.094427	0.853907
O9	O	0.905414	-0.506667	0.301542
O10	O	1.405414	-0.006667	0.801542
O11	O	1.045501	-0.571317	0.263018
O12	O	1.545501	-0.071317	0.763018
O13	O	0.943836	-0.271831	0.340069
O14	O	1.443836	0.228169	0.840069
O15	O	0.867010	-0.442184	0.161510
O16	O	1.367010	0.057816	0.661510
O17	O	1.045435	-0.442229	0.340009
O18	O	1.545435	0.057771	0.840009
O19	O	0.943990	-0.571292	0.161465
O20	O	1.443990	-0.071292	0.661465
O21	O	0.866922	-0.271811	0.263124
O22	O	1.366922	0.228189	0.763124
O23	O	0.765374	-0.442056	0.263104
O24	O	1.265374	0.057944	0.763104
O25	O	0.866945	-0.741466	0.339975
O26	O	1.366945	-0.241466	0.839975
O27	O	0.765346	-0.571068	0.340035
O28	O	1.265346	-0.071068	0.840035
O29	O	0.943953	-0.741562	0.262999
O30	O	1.443953	-0.241562	0.762999
O31	O	0.943799	-0.442101	0.441603
O32	O	1.443799	0.057899	0.941603
O33	O	0.866857	-0.571094	0.441588
O34	O	1.366857	-0.071094	0.941588
C35	C	0.742626	-0.506546	0.301575
C36	C	1.242626	-0.006546	0.801575
C37	C	0.672985	-0.506518	0.301604
C38	C	1.172985	-0.006518	0.801604
C39	C	0.640274	-0.573594	0.341715
C40	C	1.140274	-0.073594	0.841715
C41	C	0.574838	-0.573641	0.341699
C42	C	1.074838	-0.073641	0.841699
C43	C	0.542117	-0.506593	0.301580
C44	C	1.042117	-0.006593	0.801580
C45	C	0.574836	-0.439513	0.261461
C46	C	1.074836	0.060487	0.761461
C47	C	0.640270	-0.439475	0.261473
C48	C	1.140270	0.060525	0.761473
C49	C	0.438396	-0.412012	0.296550
C50	C	0.938396	0.087988	0.796550
C51	C	0.372963	-0.412047	0.296542
C52	C	0.872963	0.087953	0.796542
C53	C	0.340296	-0.506709	0.301539
C54	C	0.840296	-0.006709	0.801539
C55	C	0.373070	-0.601338	0.306556
C56	C	0.873070	-0.101338	0.806556
C57	C	0.438504	-0.601301	0.306568
C58	C	0.938504	-0.101301	0.806568
C59	C	0.471164	-0.506627	0.301562
C60	C	0.971164	-0.006627	0.801562
C61	C	0.236632	-0.573841	0.341635
C62	C	0.736632	-0.073841	0.841635
C63	C	0.171196	-0.573890	0.341615
C64	C	0.671196	-0.073890	0.841615
C65	C	0.171194	-0.439752	0.261380
C66	C	0.671194	0.060248	0.761380
C67	C	0.236630	-0.439713	0.261397
C68	C	0.736630	0.060287	0.761397
C69	C	0.269345	-0.506756	0.301528
C70	C	0.769345	-0.006756	0.801528
C71	C	0.905455	-0.780701	0.301478
C72	C	1.405455	-0.280701	0.801478
C73	C	0.905472	-0.897478	0.301451
C74	C	1.405472	-0.397478	0.801451
C75	C	0.865440	-0.952336	0.261378
C76	C	1.365440	-0.452336	0.761378
C77	C	0.865459	-1.062060	0.261359
C78	C	1.365459	-0.562060	0.761359
C79	C	0.945547	-1.062058	0.341488
C80	C	1.445547	-0.562058	0.841488
C81	C	0.945525	-0.952336	0.341509
C82	C	1.445525	-0.452336	0.841509
C83	C	0.825388	-0.897477	0.221319
C84	C	1.325388	-0.397477	0.721319
C85	C	0.785353	-0.952335	0.181243
C86	C	1.285353	-0.452335	0.681243
C87	C	0.785372	-1.062059	0.181224
C88	C	1.285372	-0.562059	0.681224
C89	C	0.825425	-1.116926	0.221282
C90	C	1.325425	-0.616926	0.721282
C91	C	1.068837	-0.506790	0.301509
C92	C	1.568837	-0.006790	0.801509
C93	C	1.138479	-0.506843	0.301495
C94	C	1.638479	-0.006843	0.801495
C95	C	0.905331	-0.506609	0.464329
C96	C	1.405331	-0.006609	0.964329
C97	C	0.905353	-0.506619	0.533970
C98	C	1.405353	-0.006619	1.033970
C99	C	0.905409	-0.233700	0.301560
C100	C	1.405409	0.266300	0.801560
C101	C	0.905514	-0.116924	0.301410
C102	C	1.405514	0.383076	0.801410
C103	C	0.905514	-0.506749	0.138118
C104	C	1.405514	-0.006749	0.638118
C105	C	0.905557	-0.506784	0.068477
C106	C	1.405557	-0.006784	0.568477
C107	C	0.945452	-0.439522	0.566670
C108	C	1.445452	0.060478	1.066670
C109	C	0.945481	-0.439545	0.632106
C110	C	1.445481	0.060455	1.132106
C111	C	0.905400	-0.506655	0.664839
C112	C	1.405400	-0.006655	1.164839
C113	C	0.865299	-0.573766	0.632131
C114	C	1.365299	-0.073766	1.132131
C115	C	0.865275	-0.573748	0.566697
C116	C	1.365275	-0.073748	1.066697
C117	C	0.848985	-0.514856	0.768568
C118	C	1.348985	-0.014856	1.268568
C119	C	0.849008	-0.514867	0.834001
C120	C	1.349008	-0.014867	1.334001
C121	C	0.905473	-0.506717	0.866659
C122	C	1.405473	-0.006717	1.366659
C123	C	0.961918	-0.498534	0.833877
C124	C	1.461918	0.001466	1.333877
C125	C	0.961894	-0.498516	0.768443
C126	C	1.461894	0.001484	1.268443
C127	C	0.905422	-0.506683	0.735791
C128	C	1.405422	-0.006683	1.235791
C129	C	0.945607	-0.439641	0.970312
C130	C	1.445607	0.060359	1.470312
C131	C	0.945637	-0.439672	1.035748
C132	C	1.445637	0.060328	1.535748
C133	C	0.865449	-0.573887	1.035772
C134	C	1.365449	-0.073887	1.535772
C135	C	0.865424	-0.573862	0.970337
C136	C	1.365424	-0.073862	1.470337
C137	C	0.905503	-0.506733	0.937611
C138	C	1.405503	-0.006733	1.437611
H139	H	0.548190	-0.384924	0.228794
H140	H	1.048190	0.115076	0.728794
H141	H	0.346283	-0.334994	0.292461
H142	H	0.846283	0.165006	0.792461
H143	H	0.978131	-0.907670	0.374131
H144	H	1.478131	-0.407670	0.874131
H145	H	0.825436	-1.206270	0.221265
H146	H	1.325436	-0.706270	0.721265
Br147	Br	0.684667	-0.348439	0.207031
Br148	Br	1.184667	0.151561	0.707031
H149	H	0.832665	-0.628409	0.658786
H150	H	1.332665	-0.128409	1.158786
Br151	Br	0.731026	-1.136508	0.126851
Br152	Br	1.231026	-0.636508	0.626851
Br153	Br	1.038555	-0.487456	0.878190
Br154	Br	1.538555	0.012544	1.378190
Br155	Br	0.999852	-0.348434	0.522259
Br156	Br	1.499852	0.151566	1.022259
H157	H	1.007853	-0.491856	0.741753
H158	H	1.507853	0.008144	1.241753
H159	H	0.825369	-0.808134	0.221329
H160	H	1.325369	-0.308134	0.721329
Br161	Br	0.772405	-0.525966	0.878485
Br162	Br	1.272405	-0.025966	1.378485
H163	H	0.752739	-0.907656	0.148633
H164	H	1.252739	-0.407656	0.648633
Br165	Br	0.999995	-0.348538	0.925894
Br166	Br	1.499995	0.151462	1.425894
Br167	Br	0.126794	-0.348767	0.206925
Br168	Br	0.626794	0.151233	0.706925
Br169	Br	0.684670	-0.664583	0.396176
Br170	Br	1.184670	-0.164583	0.896176
Br171	Br	1.000069	-0.348614	1.080128
Br172	Br	1.500069	0.151386	1.580128
H173	H	0.832621	-0.628388	0.540072
H174	H	1.332621	-0.128388	1.040072
H175	H	0.548200	-0.628266	0.374362
H176	H	1.048200	-0.128266	0.874362
H177	H	0.465186	-0.678351	0.310652
H178	H	0.965186	-0.178351	0.810652
Br179	Br	0.772347	-0.525922	0.724252
Br180	Br	1.272347	-0.025922	1.224252
H181	H	0.978158	-1.106739	0.374099
H182	H	1.478158	-0.606739	0.874099
H183	H	0.346474	-0.678422	0.310624
H184	H	0.846474	-0.178422	0.810624
Br185	Br	0.281027	-0.348676	0.206958
Br186	Br	0.781027	0.151324	0.706958
H187	H	0.263270	-0.628437	0.374309
H188	H	0.763270	-0.128437	0.874309
Br189	Br	0.482723	-0.283530	0.289769
Br190	Br	0.982723	0.216470	0.789769
Br191	Br	0.126800	-0.664939	0.396051
Br192	Br	0.626800	-0.164939	0.896051
H193	H	0.978137	-0.384907	0.658735
H194	H	1.478137	0.115093	1.158735
Br195	Br	0.811059	-0.664978	1.080188
Br196	Br	1.311059	-0.164978	1.580188
Br197	Br	0.811000	-0.664925	0.925955
Br198	Br	1.311000	-0.164925	1.425955
