data_functionalizedCrystal
_audit_creation_method	'MofGen! by Chris Wilmer'
_symmetry_space_group_name_H-M	'P1'
_symmetry_Int_Tables_number	1
_symmetry_cell_setting	triclinic
loop_
_symmetry_equiv_pos_as_xyz
  x,y,z
_cell_length_a	16.992694
_cell_length_b	11.026607
_cell_length_c	15.455313
_cell_angle_alpha	93.255562
_cell_angle_beta	87.142206
_cell_angle_gamma	99.627120
loop_
_atom_site_label
_atom_site_type_symbol
_atom_site_fract_x
_atom_site_fract_y
_atom_site_fract_z
O1	O	1.079936	0.255850	-0.072014
O2	O	0.851247	0.252986	-0.072040
O3	O	0.946638	0.075927	-0.072026
O4	O	0.984545	0.432909	-0.072028
O5	O	0.941177	0.086007	0.072235
O6	O	0.845786	0.263067	0.072221
O7	O	1.074474	0.265931	0.072247
Cu8	Cu	0.959632	0.265419	0.085406
Cu9	Cu	0.966090	0.253498	-0.085199
O10	O	0.979084	0.442990	0.072233
C11	C	0.818785	0.254344	0.000087
C12	C	0.730190	0.243358	0.000077
C13	C	0.936914	0.035078	0.000103
C14	C	0.916067	-0.101658	0.000097
C15	C	0.694911	0.349355	0.000078
C16	C	0.611666	0.339026	0.000090
C17	C	0.563702	0.222699	0.000095
C18	C	0.598986	0.116694	0.000098
C19	C	0.682229	0.127024	0.000092
C20	C	0.314060	0.179884	0.000119
C21	C	0.230811	0.169561	0.000122
C22	C	0.243497	0.391895	0.000115
C23	C	0.326741	0.402215	0.000104
C24	C	0.362018	0.296210	0.000111
N25	N	0.478612	0.212138	0.000105
N26	N	0.447106	0.306772	0.000108
C27	C	0.973629	-0.169881	0.000103
C28	C	0.952084	-0.311205	0.000097
C29	C	1.106937	0.264572	0.000118
C30	C	1.195532	0.275558	0.000122
C31	C	0.988808	0.483838	0.000102
C32	C	1.009655	0.620574	0.000102
N33	N	0.955095	0.273804	0.205401
N34	N	0.970632	0.245104	-0.205194
C35	C	0.995642	0.198614	0.250801
C36	C	0.992220	0.204967	0.341609
C37	C	0.948255	0.286517	0.387014
C38	C	0.907702	0.361709	0.341608
C39	C	0.911120	0.355349	0.250802
C40	C	0.933497	0.313936	0.658594
C41	C	0.930084	0.320293	0.749406
C42	C	1.014601	0.163549	0.749400
C43	C	1.018019	0.157201	0.658593
C44	C	0.977463	0.232389	0.613194
N45	N	0.944758	0.293015	0.479834
N46	N	0.980956	0.225883	0.520376
H47	H	0.733959	0.444082	0.000072
C48	C	1.066375	0.067488	0.608653
H49	H	1.090029	0.023609	0.648698
H50	H	1.107049	0.112503	0.573219
H51	H	1.031873	0.010989	0.573240
C52	C	0.866522	0.438063	0.200862
H53	H	0.839854	0.487551	0.240908
H54	H	0.828515	0.388085	0.165447
H55	H	0.903689	0.489602	0.165432
H56	H	0.365789	0.496940	0.000090
C57	C	0.572863	0.455624	0.000087
H58	H	0.613351	0.526382	0.000072
H59	H	0.538758	0.459739	0.050397
H60	H	0.542549	0.452694	-0.050224
C61	C	0.204690	0.508490	0.000119
H62	H	0.148244	0.485682	0.000130
H63	H	0.222834	0.552347	-0.050188
H64	H	0.219042	0.559367	0.050433
H65	H	0.886850	-0.357418	0.000084
H66	H	0.191760	0.074828	0.000126
C67	C	0.352854	0.063282	0.000121
H68	H	0.312364	-0.007475	0.000116
H69	H	0.383165	0.066202	0.050426
H70	H	0.386961	0.059170	-0.050194
H71	H	1.074893	-0.333219	0.000044
H72	H	0.710952	0.040709	0.000091
H73	H	0.850837	-0.147876	0.000084
H74	H	1.031448	0.132213	0.213838
C75	C	1.061753	-0.107463	0.000116
H76	H	1.095073	-0.168592	0.000113
H77	H	1.070373	-0.054138	0.050424
H78	H	1.074183	-0.061167	-0.050197
C79	C	0.546228	-0.011264	0.000103
H80	H	0.491598	-0.002238	0.000097
H81	H	0.555366	-0.051734	0.050409
H82	H	0.559165	-0.058759	-0.050212
C83	C	1.036832	0.122270	0.391545
H84	H	1.063515	0.072806	0.351498
H85	H	0.999678	0.070728	0.426979
H86	H	1.074841	0.172268	0.426957
C87	C	1.059200	0.080838	0.799340
H88	H	1.050863	0.096294	0.859924
H89	H	1.114706	0.098343	0.784450
H90	H	1.039528	-0.003166	0.784464
C91	C	0.881669	0.409932	0.799351
H92	H	0.857984	0.453774	0.759309
H93	H	0.916125	0.466454	0.834788
H94	H	0.841004	0.364839	0.834760
C95	C	0.888896	0.396651	0.608667
H96	H	0.862232	0.446138	0.648717
H97	H	0.850885	0.346678	0.573252
H98	H	0.926062	0.448191	0.573236
C99	C	0.859312	0.451375	0.391548
H100	H	0.835638	0.495225	0.351501
H101	H	0.893783	0.507887	0.426976
H102	H	0.818639	0.406313	0.426965
