data_functionalizedCrystal
_audit_creation_method	'MofGen! by Chris Wilmer'
_symmetry_space_group_name_H-M	'P1'
_symmetry_Int_Tables_number	1
_symmetry_cell_setting	triclinic
loop_
_symmetry_equiv_pos_as_xyz
  x,y,z
_cell_length_a	10.654545
_cell_length_b	11.792254
_cell_length_c	9.730223
_cell_angle_alpha	89.995422
_cell_angle_beta	89.997167
_cell_angle_gamma	84.340838
loop_
_atom_site_label
_atom_site_type_symbol
_atom_site_fract_x
_atom_site_fract_y
_atom_site_fract_z
O1	O	1.667399	0.159394	-0.114277
O2	O	2.167399	0.659394	0.385723
O3	O	1.301878	0.174588	-0.114283
O4	O	1.801878	0.674588	0.385717
O5	O	1.493501	0.001842	-0.114270
O6	O	1.993501	0.501842	0.385730
O7	O	1.475777	0.332140	-0.114290
O8	O	1.975777	0.832140	0.385710
O9	O	1.493488	0.001837	0.114310
O10	O	1.993488	0.501837	0.614310
O11	O	1.301866	0.174583	0.114297
O12	O	1.801866	0.674583	0.614297
O13	O	1.667387	0.159390	0.114303
O14	O	2.167387	0.659390	0.614303
Zn15	Zn	1.484624	0.166986	0.150592
Zn16	Zn	1.984624	0.666986	0.650592
Zn17	Zn	1.484641	0.166992	-0.150572
Zn18	Zn	1.984641	0.666992	0.349428
O19	O	1.475765	0.332136	0.114290
O20	O	1.975765	0.832136	0.614290
C21	C	1.255077	0.173471	0.000007
C22	C	1.755077	0.673471	0.500007
C23	C	1.115643	0.170137	0.000005
C24	C	1.615643	0.670137	0.500005
C25	C	1.050136	0.168564	0.124604
C26	C	1.550136	0.668564	0.624604
C27	C	0.919125	0.165412	0.124605
C28	C	1.419125	0.665412	0.624605
C29	C	0.919139	0.165410	-0.124606
C30	C	1.419139	0.665410	0.375394
C31	C	1.050149	0.168554	-0.124605
C32	C	1.550149	0.668554	0.375395
C33	C	1.492378	-0.040454	0.000020
C34	C	1.992378	0.459546	0.500020
C35	C	1.489036	-0.166474	0.000018
C36	C	1.989036	0.333526	0.500018
C37	C	1.486321	-0.268817	0.000013
C38	C	1.986321	0.231183	0.500013
C39	C	1.482926	-0.397212	0.000001
C40	C	1.982926	0.102788	0.500001
C41	C	1.714188	0.160506	0.000011
C42	C	2.214188	0.660506	0.500011
C43	C	1.853623	0.163841	0.000004
C44	C	2.353623	0.663841	0.500004
C45	C	1.476887	0.374431	-0.000002
C46	C	1.976887	0.874431	0.499998
C47	C	1.480229	0.500452	-0.000010
C48	C	1.980229	1.000452	0.499990
N49	N	1.484622	0.166981	0.356128
N50	N	1.984622	0.666981	0.856128
N51	N	1.484653	0.166988	-0.356108
N52	N	1.984653	0.666988	0.143892
C53	C	1.569502	0.090521	0.428060
C54	C	2.069502	0.590521	0.928060
C55	C	1.569515	0.090522	0.571943
C56	C	2.069515	0.590522	1.071943
C57	C	1.399764	0.243451	0.571950
C58	C	1.899764	0.743451	1.071950
C59	C	1.399746	0.243444	0.428070
C60	C	1.899746	0.743444	0.928070
H61	H	0.865795	0.164133	0.226066
H62	H	1.365795	0.664133	0.726066
H63	H	1.330621	0.305707	0.369499
H64	H	1.830621	0.805707	0.869499
C65	C	0.847090	0.163684	-0.261664
C66	C	1.347090	0.663684	0.238336
H67	H	0.759681	0.161599	-0.243822
H68	H	1.259681	0.661599	0.256178
H69	H	0.877688	0.098130	-0.312861
H70	H	1.377688	0.598130	0.187139
H71	H	0.859436	0.230282	-0.312860
H72	H	1.359436	0.730282	0.187140
H73	H	1.103457	0.169853	0.226069
H74	H	1.603457	0.669853	0.726069
C75	C	1.306420	0.327564	0.651090
C76	C	1.806420	0.827564	1.151090
H77	H	1.318595	0.316627	0.747083
H78	H	1.818595	0.816627	1.247083
H79	H	1.222518	0.314536	0.627534
H80	H	1.722518	0.814536	1.127534
H81	H	1.320581	0.403433	0.627489
H82	H	1.820581	0.903433	1.127489
C83	C	1.122211	0.170288	-0.261671
C84	C	1.622211	0.670288	0.238329
H85	H	1.064441	0.168912	-0.335884
H86	H	1.564441	0.668912	0.164116
H87	H	1.182448	0.105443	-0.266843
H88	H	1.682448	0.605443	0.233157
H89	H	1.164185	0.237595	-0.266850
H90	H	1.664185	0.737595	0.233150
C91	C	1.662850	0.006406	0.348929
C92	C	2.162850	0.506406	0.848929
H93	H	1.713393	-0.039138	0.412381
H94	H	2.213393	0.460862	0.912381
H95	H	1.715399	0.047667	0.292780
H96	H	2.215399	0.547667	0.792780
H97	H	1.617336	-0.041229	0.292823
H98	H	2.117336	0.458771	0.792823
C99	C	1.662887	0.006421	0.651062
C100	C	2.162887	0.506421	1.151062
H101	H	1.713436	-0.039110	0.587605
H102	H	2.213436	0.460890	1.087605
H103	H	1.617404	-0.041210	0.707207
H104	H	2.117404	0.458790	1.207207
H105	H	1.715448	0.047703	0.707171
H106	H	2.215448	0.547703	1.207171
