data_functionalizedCrystal
_audit_creation_method	'MofGen! by Chris Wilmer'
_symmetry_space_group_name_H-M	'P1'
_symmetry_Int_Tables_number	1
_symmetry_cell_setting	triclinic
loop_
_symmetry_equiv_pos_as_xyz
  x,y,z
_cell_length_a	18.215407
_cell_length_b	18.215405
_cell_length_c	18.215399
_cell_angle_alpha	89.972459
_cell_angle_beta	89.980167
_cell_angle_gamma	90.023180
loop_
_atom_site_label
_atom_site_type_symbol
_atom_site_fract_x
_atom_site_fract_y
_atom_site_fract_z
Zn1	Zn	1.125083	-0.292983	-0.416118
Zn2	Zn	1.458416	0.040350	-0.082785
Zn3	Zn	1.791750	0.373684	0.250549
Zn4	Zn	1.124996	-0.416054	-0.293053
Zn5	Zn	1.458329	-0.082721	0.040281
Zn6	Zn	1.791663	0.250612	0.373614
Zn7	Zn	1.002016	-0.293007	-0.293065
Zn8	Zn	1.335349	0.040326	0.040268
Zn9	Zn	1.668682	0.373660	0.373601
Zn10	Zn	1.001986	-0.416013	-0.416077
Zn11	Zn	1.335319	-0.082680	-0.082744
Zn12	Zn	1.668653	0.250653	0.250589
O13	O	1.063520	-0.354514	-0.354578
O14	O	1.396853	-0.021181	-0.021245
O15	O	1.730187	0.312152	0.312088
O16	O	1.228056	-0.309316	-0.399805
O17	O	1.561389	0.024018	-0.066471
O18	O	1.894722	0.357351	0.266862
O19	O	1.108658	-0.399759	-0.190070
O20	O	1.441992	-0.066426	0.143263
O21	O	1.775325	0.266908	0.476597
O22	O	1.018389	-0.190020	-0.309411
O23	O	1.351723	0.143314	0.023923
O24	O	1.685056	0.476647	0.357256
O25	O	1.227992	-0.399736	-0.309389
O26	O	1.561325	-0.066402	0.023944
O27	O	1.894658	0.266931	0.357278
O28	O	1.108807	-0.190002	-0.399817
O29	O	1.442140	0.143331	-0.066484
O30	O	1.775473	0.476665	0.266850
O31	O	1.018305	-0.309357	-0.190079
O32	O	1.351638	0.023977	0.143254
O33	O	1.684972	0.357310	0.476587
O34	O	0.899027	-0.309317	-0.309372
O35	O	1.232361	0.024016	0.023962
O36	O	1.565694	0.357350	0.357295
O37	O	1.018339	-0.399666	-0.519067
O38	O	1.351672	-0.066333	-0.185734
O39	O	1.685006	0.267001	0.147600
O40	O	0.899006	-0.399689	-0.399748
O41	O	1.232339	-0.066356	-0.066415
O42	O	1.565672	0.266977	0.266919
O43	O	1.108778	-0.309276	-0.519097
O44	O	1.442111	0.024057	-0.185764
O45	O	1.775445	0.357391	0.147570
O46	O	1.108630	-0.519033	-0.309350
O47	O	1.441963	-0.185700	0.023984
O48	O	1.775296	0.147634	0.357317
O49	O	1.018255	-0.519003	-0.399736
O50	O	1.351588	-0.185670	-0.066402
O51	O	1.684921	0.147664	0.266931
C52	C	0.872314	-0.354502	-0.354557
C53	C	1.205647	-0.021168	-0.021224
C54	C	1.538981	0.312165	0.312109
C55	C	0.790515	-0.354514	-0.354566
C56	C	1.123848	-0.021181	-0.021232
C57	C	1.457182	0.312152	0.312101
C58	C	0.602329	-0.401645	-0.401566
C59	C	0.935662	-0.068312	-0.068232
C60	C	1.268996	0.265022	0.265101
C61	C	0.525470	-0.401647	-0.401575
C62	C	0.858804	-0.068314	-0.068241
C63	C	1.192137	0.265019	0.265092
C64	C	0.525463	-0.307397	-0.307607
C65	C	0.858797	0.025936	0.025726
C66	C	1.192130	0.359269	0.359060
C67	C	0.602321	-0.307392	-0.307602
C68	C	0.935654	0.025942	0.025731
C69	C	1.268987	0.359275	0.359064
C70	C	0.640751	-0.354520	-0.354580
C71	C	0.974085	-0.021186	-0.021247
C72	C	1.307418	0.312147	0.312086
C73	C	0.487035	-0.354528	-0.354594
C74	C	0.820369	-0.021194	-0.021261
C75	C	1.153702	0.312139	0.312072
C76	C	0.403702	-0.354530	-0.354604
C77	C	0.737035	-0.021196	-0.021271
C78	C	1.070368	0.312137	0.312063
C79	C	0.724090	-0.354517	-0.354572
C80	C	1.057424	-0.021184	-0.021239
C81	C	1.390757	0.312150	0.312095
C82	C	1.063450	-0.545721	-0.354553
C83	C	1.396783	-0.212387	-0.021220
C84	C	1.730116	0.120946	0.312114
C85	C	1.063487	-0.627520	-0.354567
C86	C	1.396820	-0.294186	-0.021233
C87	C	1.730153	0.039147	0.312100
C88	C	1.110589	-0.815643	-0.401705
C89	C	1.443923	-0.482310	-0.068372
C90	C	1.777256	-0.148977	0.264962
C91	C	1.110616	-0.892502	-0.401719
C92	C	1.443949	-0.559169	-0.068385
C93	C	1.777283	-0.225835	0.264948
C94	C	1.016542	-0.892634	-0.307497
C95	C	1.349875	-0.559300	0.025836
C96	C	1.683209	-0.225967	0.359169
C97	C	1.016512	-0.815776	-0.307488
C98	C	1.349845	-0.482443	0.025846
C99	C	1.683179	-0.149110	0.359179
C100	C	1.063540	-0.777283	-0.354590
C101	C	1.396873	-0.443950	-0.021257
C102	C	1.730207	-0.110616	0.312076
C103	C	1.063597	-0.930999	-0.354614
C104	C	1.396930	-0.597666	-0.021281
C105	C	1.730263	-0.264332	0.312053
C106	C	1.063625	-1.014333	-0.354628
C107	C	1.396958	-0.680999	-0.021295
C108	C	1.730292	-0.347666	0.312038
C109	C	1.063511	-0.693944	-0.354577
C110	C	1.396844	-0.360611	-0.021244
C111	C	1.730177	-0.027277	0.312090
C112	C	1.255473	-0.354528	-0.354600
C113	C	1.588806	-0.021194	-0.021267
C114	C	1.922140	0.312139	0.312067
C115	C	1.337272	-0.354533	-0.354609
C116	C	1.670605	-0.021200	-0.021276
C117	C	2.003939	0.312133	0.312058
C118	C	1.063565	-0.354464	-0.546531
C119	C	1.396898	-0.021130	-0.213198
C120	C	1.730232	0.312203	0.120135
C121	C	1.063584	-0.354442	-0.628330
C122	C	1.396917	-0.021109	-0.294997
C123	C	1.730251	0.312225	0.038336
C124	C	1.063611	-0.162561	-0.354620
C125	C	1.396944	0.170772	-0.021287
C126	C	1.730278	0.504105	0.312047
C127	C	1.063650	-0.080763	-0.354638
C128	C	1.396983	0.252571	-0.021304
C129	C	1.730316	0.585904	0.312029
C130	C	1.110692	-0.307332	-0.816541
C131	C	1.444026	0.026001	-0.483208
C132	C	1.777359	0.359335	-0.149874
C133	C	1.110701	-0.307311	-0.893400
C134	C	1.444035	0.026023	-0.560066
C135	C	1.777368	0.359356	-0.226733
C136	C	1.016528	-0.401438	-0.893358
C137	C	1.349861	-0.068105	-0.560024
C138	C	1.683194	0.265228	-0.226691
C139	C	1.016516	-0.401455	-0.816500
C140	C	1.349849	-0.068122	-0.483167
C141	C	1.683182	0.265211	-0.149833
C142	C	1.063602	-0.354403	-0.778094
C143	C	1.396936	-0.021070	-0.444761
C144	C	1.730269	0.312263	-0.111427
C145	C	1.063623	-0.354365	-0.931810
C146	C	1.396956	-0.021031	-0.598477
C147	C	1.730290	0.312302	-0.265143
C148	C	1.063632	-0.354342	-1.015144
C149	C	1.396966	-0.021009	-0.681810
C150	C	1.730299	0.312325	-0.348477
C151	C	1.063592	-0.354425	-0.694755
C152	C	1.396926	-0.021092	-0.361421
C153	C	1.730259	0.312242	-0.028088
C154	C	1.063518	-0.354512	-0.163372
C155	C	1.396851	-0.021179	0.169961
C156	C	1.730184	0.312155	0.503295
C157	C	1.063641	-0.354326	-0.081574
C158	C	1.396975	-0.020993	0.251760
C159	C	1.730308	0.312341	0.585093
H160	H	0.633605	-0.269012	-0.269341
H161	H	0.966938	0.064321	0.063992
H162	H	1.300272	0.397654	0.397326
H163	H	0.978255	-0.923984	-0.269147
H164	H	1.311588	-0.590651	0.064187
H165	H	1.644921	-0.257317	0.397520
C166	C	0.923528	-0.823620	-0.214345
C167	C	1.256861	-0.490287	0.118988
C168	C	1.590194	-0.156953	0.452321
C169	C	0.964793	-0.773605	-0.255694
C170	C	1.298126	-0.440271	0.077640
C171	C	1.631459	-0.106938	0.410973
H172	H	0.891603	-0.797583	-0.182371
H173	H	1.224936	-0.464250	0.150963
H174	H	1.558269	-0.130917	0.484296
H175	H	0.895370	-0.853599	-0.246384
H176	H	1.228703	-0.520266	0.086949
H177	H	1.562036	-0.186932	0.420282
H178	H	0.955628	-0.853590	-0.186230
H179	H	1.288961	-0.520257	0.147104
H180	H	1.622295	-0.186923	0.480437
H181	H	0.932693	-0.743638	-0.283814
H182	H	1.266026	-0.410305	0.049520
H183	H	1.599359	-0.076972	0.382853
H184	H	0.992953	-0.743613	-0.223650
H185	H	1.326286	-0.410280	0.109683
H186	H	1.659620	-0.076947	0.443016
H187	H	0.978164	-0.439786	-0.785196
H188	H	1.311497	-0.106453	-0.451862
H189	H	1.644831	0.226881	-0.118529
C190	C	1.203772	-0.214283	-0.824305
C191	C	1.537106	0.119051	-0.490972
C192	C	1.870439	0.452384	-0.157639
C193	C	1.162442	-0.255606	-0.774324
C194	C	1.495775	0.077727	-0.440991
C195	C	1.829108	0.411061	-0.107657
H196	H	1.235716	-0.182344	-0.798242
H197	H	1.569049	0.150989	-0.464909
H198	H	1.902382	0.484322	-0.131576
H199	H	1.231914	-0.246340	-0.854277
H200	H	1.565247	0.086994	-0.520944
H201	H	1.898580	0.420327	-0.187611
H202	H	1.171715	-0.186129	-0.854286
H203	H	1.505048	0.147204	-0.520952
H204	H	1.838381	0.480537	-0.187619
H205	H	1.194499	-0.283764	-0.744347
H206	H	1.527832	0.049570	-0.411014
H207	H	1.861166	0.382903	-0.077681
H208	H	1.134298	-0.223545	-0.744340
H209	H	1.467631	0.109788	-0.411006
H210	H	1.800965	0.443122	-0.077673
C211	C	0.626034	-0.437638	-0.526119
C212	C	0.959367	-0.104305	-0.192786
C213	C	1.292701	0.229028	0.140548
C214	C	0.644575	-0.453438	-0.453210
C215	C	0.977908	-0.120105	-0.119877
C216	C	1.311242	0.213228	0.213456
H217	H	0.652118	-0.469611	-0.558003
H218	H	0.985451	-0.136278	-0.224670
H219	H	1.318784	0.197056	0.108664
H220	H	0.574768	-0.444389	-0.532841
H221	H	0.908101	-0.111055	-0.199507
H222	H	1.241434	0.222278	0.133826
H223	H	0.638655	-0.388202	-0.536961
H224	H	0.971988	-0.054869	-0.203628
H225	H	1.305321	0.278465	0.129706
H226	H	0.631949	-0.502874	-0.442366
H227	H	0.965283	-0.169540	-0.109033
H228	H	1.298616	0.163793	0.224300
H229	H	0.695853	-0.446695	-0.446485
H230	H	1.029186	-0.113361	-0.113152
H231	H	1.362519	0.219972	0.220182
H232	H	0.494190	-0.440020	-0.439836
H233	H	0.827523	-0.106687	-0.106503
H234	H	1.160857	0.226646	0.226831
C235	C	0.407642	-0.265556	-0.265891
C236	C	0.740976	0.067777	0.067443
C237	C	1.074309	0.401111	0.400776
C238	C	0.483217	-0.255599	-0.255968
C239	C	0.816551	0.077734	0.077366
C240	C	1.149884	0.411068	0.410699
H241	H	0.381564	-0.233580	-0.234006
H242	H	0.714898	0.099754	0.099327
H243	H	1.048231	0.433087	0.432661
H244	H	0.395075	-0.254849	-0.315352
H245	H	0.728409	0.078485	0.017982
H246	H	1.061742	0.411818	0.351315
H247	H	0.395033	-0.314992	-0.255032
H248	H	0.728367	0.018342	0.078301
H249	H	1.061700	0.351675	0.411635
H250	H	0.495827	-0.206164	-0.266832
H251	H	0.829161	0.127169	0.066502
H252	H	1.162494	0.460503	0.399835
H253	H	0.495789	-0.266301	-0.206495
H254	H	0.829123	0.067032	0.126838
H255	H	1.162456	0.400366	0.460171
C256	C	1.203569	-0.823236	-0.494850
C257	C	1.536902	-0.489903	-0.161517
C258	C	1.870236	-0.156569	0.171817
C259	C	1.162271	-0.773331	-0.453489
C260	C	1.495605	-0.439998	-0.120156
C261	C	1.828938	-0.106664	0.213177
H262	H	1.235470	-0.797114	-0.526825
H263	H	1.568804	-0.463781	-0.193492
H264	H	1.902137	-0.130447	0.139842
H265	H	1.231754	-0.853206	-0.462819
H266	H	1.565087	-0.519873	-0.129486
H267	H	1.898420	-0.186540	0.203848
H268	H	1.171488	-0.853225	-0.522966
H269	H	1.504821	-0.519891	-0.189633
H270	H	1.838155	-0.186558	0.143701
H271	H	1.194353	-0.743345	-0.425369
H272	H	1.527686	-0.410012	-0.092036
H273	H	1.861019	-0.076679	0.241298
H274	H	1.134085	-0.743348	-0.485525
H275	H	1.467418	-0.410015	-0.152191
H276	H	1.800751	-0.076681	0.181142
H277	H	1.148927	-0.923731	-0.440086
H278	H	1.482260	-0.590398	-0.106752
H279	H	1.815593	-0.257065	0.226581
H280	H	1.149046	-0.268979	-0.924700
H281	H	1.482379	0.064354	-0.591367
H282	H	1.815712	0.397687	-0.258033
C283	C	0.974734	-0.443211	-1.011156
C284	C	1.308068	-0.109878	-0.677823
C285	C	1.641401	0.223456	-0.344490
C286	C	0.964778	-0.453162	-0.935577
C287	C	1.298111	-0.119828	-0.602243
C288	C	1.631444	0.213505	-0.268910
H289	H	0.942789	-0.475148	-1.037218
H290	H	1.276122	-0.141815	-0.703884
H291	H	1.609455	0.191518	-0.370551
H292	H	0.963985	-0.393767	-1.023760
H293	H	1.297319	-0.060434	-0.690426
H294	H	1.630652	0.272899	-0.357093
H295	H	1.024181	-0.453981	-1.023750
H296	H	1.357514	-0.120648	-0.690417
H297	H	1.690848	0.212686	-0.357083
H298	H	0.915332	-0.442386	-0.922982
H299	H	1.248665	-0.109053	-0.589649
H300	H	1.581999	0.224280	-0.256315
H301	H	0.975522	-0.502617	-0.922968
H302	H	1.308855	-0.169283	-0.589635
H303	H	1.642188	0.164050	-0.256302
