data_functionalizedCrystal
_audit_creation_method	'MofGen! by Chris Wilmer'
_symmetry_space_group_name_H-M	'P1'
_symmetry_Int_Tables_number	1
_symmetry_cell_setting	triclinic
loop_
_symmetry_equiv_pos_as_xyz
  x,y,z
_cell_length_a	13.635800
_cell_length_b	19.551749
_cell_length_c	21.454186
_cell_angle_alpha	92.699299
_cell_angle_beta	116.811359
_cell_angle_gamma	101.661913
loop_
_atom_site_label
_atom_site_type_symbol
_atom_site_fract_x
_atom_site_fract_y
_atom_site_fract_z
V1	V	-2.039534	-0.218232	-0.097417
O2	O	-1.995646	-0.213695	0.003928
O3	O	-2.050840	-0.217107	-0.192436
O4	O	-2.010441	-0.313242	-0.096249
O5	O	-2.036325	-0.116894	-0.092926
V6	V	-2.277381	-0.206066	-0.085256
O7	O	-2.178749	-0.244918	-0.124093
O8	O	-2.363265	-0.179380	-0.058579
O9	O	-2.154472	-0.207191	0.009764
O10	O	-2.379967	-0.210602	-0.186600
O11	O	-2.339289	-0.307404	-0.089747
O12	O	-2.194871	-0.111055	-0.086424
V13	V	-1.539534	-0.218232	-0.097417
O14	O	-1.495646	-0.213695	0.003928
O15	O	-1.550840	-0.217107	-0.192436
O16	O	-1.510441	-0.313242	-0.096249
O17	O	-1.536325	-0.116894	-0.092926
V18	V	-1.777381	-0.206066	-0.085256
O19	O	-1.678749	-0.244918	-0.124093
O20	O	-1.863265	-0.179380	-0.058579
O21	O	-1.654472	-0.207191	0.009764
O22	O	-1.879967	-0.210602	-0.186600
O23	O	-1.839289	-0.307404	-0.089747
O24	O	-1.694871	-0.111055	-0.086424
C25	C	-1.982136	-0.213759	-0.215590
C26	C	-2.031990	-0.213472	-0.293272
C27	C	-2.034481	-0.149305	-0.319561
C28	C	-2.081336	-0.149026	-0.392551
C29	C	-2.125693	-0.212915	-0.439249
C30	C	-2.123204	-0.277086	-0.412956
C31	C	-2.076356	-0.277365	-0.339968
C32	C	-1.930602	-0.336389	-0.092892
C33	C	-1.947692	-0.414063	-0.092566
C34	C	-1.999251	-0.460770	-0.156441
C35	C	-2.015323	-0.533755	-0.156142
C36	C	-1.979813	-0.560028	-0.091963
C37	C	-1.928252	-0.513311	-0.028079
C38	C	-1.912192	-0.440328	-0.028380
C39	C	-1.912648	-0.665528	-0.040183
C40	C	-1.928704	-0.738509	-0.039884
C41	C	-2.029352	-0.785130	-0.091031
C42	C	-2.113938	-0.758762	-0.142488
C43	C	-2.097877	-0.685780	-0.142789
C44	C	-1.997224	-0.639164	-0.091629
C45	C	-2.098343	-0.910977	-0.154586
C46	C	-2.114420	-0.983963	-0.154285
C47	C	-2.027337	-0.963517	-0.026220
C48	C	-2.011272	-0.890533	-0.026524
C49	C	-2.046772	-0.864267	-0.090709
C50	C	-2.054849	-0.210537	0.032914
C51	C	-1.994613	-0.210828	0.110595
C52	C	-2.106382	-0.087906	-0.089783
C53	C	-2.078910	-0.010231	-0.090105
C54	C	-1.482136	-0.213759	-0.215590
C55	C	-1.531990	-0.213472	-0.293272
C56	C	-1.996981	-0.275016	0.136842
C57	C	-1.940353	-0.275341	0.209821
C58	C	-1.881339	-0.211476	0.256552
C59	C	-1.878980	-0.147280	0.230299
C60	C	-1.935617	-0.146956	0.157320
C61	C	-1.713405	-0.165186	0.377695
C62	C	-1.656764	-0.165513	0.450671
C63	C	-1.706655	-0.212471	0.481642
C64	C	-1.813186	-0.259116	0.439625
C65	C	-1.869823	-0.258792	0.366647
C66	C	-1.819923	-0.211820	0.335686
C67	C	-1.647623	-0.277015	0.587020
C68	C	-1.590999	-0.277338	0.660002
C69	C	-1.529616	-0.149275	0.680478
C70	C	-1.586250	-0.148955	0.607498
C71	C	-1.645247	-0.212827	0.560773
C72	C	-1.430602	-0.336389	-0.092892
C73	C	-1.447692	-0.414063	-0.092566
C74	C	-1.554849	-0.210537	0.032914
C75	C	-1.494613	-0.210828	0.110595
C76	C	-1.606382	-0.087906	-0.089783
C77	C	-1.578910	-0.010231	-0.090105
C78	C	-1.547920	-0.454114	-0.095908
C79	C	-1.563985	-0.527096	-0.095593
C80	C	-1.479825	-0.560026	-0.091939
C81	C	-1.379588	-0.519969	-0.088594
C82	C	-1.363520	-0.446988	-0.088905
C83	C	-1.551458	-0.207460	0.150650
C84	C	-1.494868	-0.207722	0.223642
C85	C	-1.381437	-0.211357	0.256578
C86	C	-1.324589	-0.214724	0.216518
C87	C	-1.381176	-0.214457	0.143528
C88	C	-1.480836	0.022681	-0.093751
C89	C	-1.455003	0.095666	-0.094046
C90	C	-1.527249	0.135736	-0.090700
C91	C	-1.625329	0.102820	-0.087052
C92	C	-1.651157	0.029837	-0.086752
H93	H	-1.998363	-0.097277	-0.281547
F94	F	-1.755550	-0.005183	-0.082881
H95	H	-1.335373	-0.211574	0.316011
F96	F	-1.256845	-0.404370	-0.085354
F97	F	-2.083972	-0.080723	-0.420520
F98	F	-1.203863	-0.218589	0.251581
H99	H	-1.643820	-0.204500	0.123844
H100	H	-2.074331	-0.329619	-0.318570
H101	H	-1.541175	-0.204982	0.256249
H102	H	-1.334879	-0.217206	0.110919
F103	F	-2.175548	-0.212607	-0.516929
H104	H	-1.616461	-0.427313	-0.098885
H105	H	-2.159327	-0.329102	-0.450989
H106	H	-2.028165	-0.439390	-0.208706
F107	F	-2.070202	-0.583473	-0.224130
H108	H	-2.166752	-0.664314	-0.184687
H109	H	-1.492923	-0.619453	-0.091687
H110	H	-1.311070	-0.546792	-0.085620
H111	H	-1.421996	-0.009935	-0.096475
F112	F	-1.499747	0.213411	-0.091022
F113	F	-2.221073	-0.808373	-0.196918
H114	H	-1.645612	-0.559702	-0.098320
F115	F	-1.350617	0.130684	-0.097933
H116	H	-2.127251	-0.889590	-0.206850
F117	F	-2.169307	-1.033673	-0.222274
H118	H	-1.998430	-0.984908	0.026036
F119	F	-1.956363	-0.840820	0.041464
H120	H	-1.684144	0.135457	-0.084326
F121	F	-1.838675	-0.766566	0.014876
H122	H	-1.830683	-0.627574	0.001469
F123	F	-1.942872	-0.343660	0.237761
H124	H	-1.870206	-0.402298	0.023636
F125	F	-1.890464	-0.541274	0.040225
H126	H	-2.045019	-0.327025	0.098802
H127	H	-1.956563	-0.296771	0.332440
F128	F	-1.583726	-0.080637	0.579564
H129	H	-1.695664	-0.329024	0.548975
F130	F	-1.866295	-0.309097	0.472580
H131	H	-1.592935	-0.329609	0.681369
H132	H	-1.481571	-0.097275	0.718526
F133	F	-1.543387	-0.115873	0.495380
H134	H	-1.672763	-0.126945	0.352485
H135	H	-1.830929	-0.095281	0.268352
H136	H	-1.933684	-0.094686	0.135953
