data_functionalizedCrystal
_audit_creation_method	'MofGen! by Chris Wilmer'
_symmetry_space_group_name_H-M	'P1'
_symmetry_Int_Tables_number	1
_symmetry_cell_setting	triclinic
loop_
_symmetry_equiv_pos_as_xyz
  x,y,z
_cell_length_a	23.096457
_cell_length_b	20.875641
_cell_length_c	20.875641
_cell_angle_alpha	90.154590
_cell_angle_beta	57.592177
_cell_angle_gamma	62.440196
loop_
_atom_site_label
_atom_site_type_symbol
_atom_site_fract_x
_atom_site_fract_y
_atom_site_fract_z
Zr1	Zr	0.680238	0.592191	-0.109912
O2	O	0.801024	0.489771	-0.212327
O3	O	0.559452	0.623585	-0.078520
O4	O	0.689102	0.618676	-0.217244
O5	O	0.664381	0.498554	0.035829
O6	O	0.696095	0.720362	-0.221117
O7	O	0.671374	0.494679	-0.073603
O8	O	0.464175	0.729144	0.027035
O9	O	0.896301	0.489773	-0.212323
O10	O	0.614352	0.712865	-0.068017
O11	O	0.603915	0.639870	0.016542
O12	O	0.756561	0.634090	-0.146788
O13	O	0.746124	0.561095	-0.062229
Zr14	Zr	0.680238	0.760548	0.058443
Zr15	Zr	0.691390	0.754368	-0.116089
Zr16	Zr	0.669086	0.598371	0.064621
Zr17	Zr	0.832195	0.592195	-0.109904
Zr18	Zr	0.528281	0.760544	0.058435
O19	O	0.801024	0.729153	0.027051
O20	O	0.816881	0.720366	-0.221111
O21	O	0.785167	0.498558	0.035835
O22	O	0.559453	0.862968	0.160858
O23	O	0.575309	0.854181	-0.087304
O24	O	0.543596	0.632373	0.169643
O25	O	0.696095	0.854184	-0.087298
O26	O	0.671374	0.734062	0.165775
O27	O	0.664381	0.632376	0.169648
O28	O	0.689103	0.858059	0.022134
O29	O	0.905166	0.618683	-0.217233
O30	O	0.455310	0.734056	0.165765
O31	O	0.464175	0.862965	0.160854
O32	O	0.473039	0.858053	0.022124
O33	O	0.887437	0.494686	-0.073593
O34	O	0.896302	0.623595	-0.078504
O35	O	0.603915	0.718649	0.095319
O36	O	0.614352	0.791644	0.010760
O37	O	0.756561	0.712869	-0.068011
O38	O	0.746125	0.639874	0.016548
C39	C	0.490163	0.676364	-0.025743
C40	C	0.425653	0.676362	-0.025747
C41	C	0.666289	0.684100	0.192579
C42	C	0.661554	0.686723	0.266672
C43	C	0.694188	0.879228	-0.033462
C44	C	0.698922	0.948077	-0.036085
C45	C	0.400800	0.714460	-0.069888
C46	C	0.340178	0.714467	-0.069882
C47	C	0.304422	0.676362	-0.025744
C48	C	0.329279	0.638263	0.018407
C49	C	0.389894	0.638263	0.018406
N50	N	0.237971	0.611688	-0.029200
N51	N	0.180391	0.611689	-0.029203
C52	C	0.121790	0.676362	-0.025737
N53	N	0.122953	0.741031	-0.022282
N54	N	0.180541	0.741028	-0.022283
C55	C	0.238694	0.676358	-0.025738
C56	C	0.031203	0.714471	-0.069874
C57	C	-0.029425	0.714481	-0.069862
C58	C	-0.040317	0.638269	0.018422
C59	C	0.020304	0.638267	0.018415
C60	C	0.056063	0.676366	-0.025737
C61	C	0.870313	0.676375	-0.025725
C62	C	0.934823	0.676377	-0.025722
C63	C	0.666288	0.473510	-0.018007
C64	C	0.661554	0.404662	-0.015384
C65	C	0.626916	1.021542	0.003802
C66	C	0.631370	1.086230	0.001331
C67	C	0.707830	1.077451	-0.041021
C68	C	0.779841	1.003978	-0.080912
C69	C	0.775387	0.939292	-0.078446
C70	C	0.729111	1.266503	-0.052809
C71	C	0.733560	1.331197	-0.055270
C72	C	0.585088	1.413444	0.026972
C73	C	0.580641	1.348753	0.029438
C74	C	0.652652	1.275286	-0.010456
N75	N	0.712384	1.143571	-0.043545
N76	N	0.648098	1.209167	-0.007937
C77	C	0.694188	0.668639	-0.244048
C78	C	0.698922	0.666015	-0.318141
C79	C	0.733560	0.646838	0.260366
C80	C	0.729106	0.649300	0.329988
C81	C	0.652646	0.691652	0.405914
C82	C	0.580635	0.731539	0.412219
C83	C	0.585089	0.729072	0.342598
C84	C	0.631365	0.703435	0.618543
C85	C	0.626916	0.705901	0.688165
C86	C	0.775388	0.623660	0.605929
C87	C	0.779836	0.621201	0.536311
C88	C	0.707824	0.661084	0.542621
N89	N	0.648092	0.694172	0.477080
N90	N	0.712379	0.658560	0.471457
C91	C	0.504113	0.879223	-0.033471
C92	C	0.444337	0.948070	-0.036097
C93	C	0.476213	0.684094	0.192570
C94	C	0.406969	0.686716	0.266660
C95	C	0.490163	0.886953	0.184842
C96	C	0.425653	0.958424	0.256310
C97	C	0.870313	0.465785	-0.236311
C98	C	0.934823	0.394315	-0.307779
C99	C	0.856364	0.473516	-0.017998
C100	C	0.916139	0.404669	-0.015372
C101	C	0.884263	0.668644	-0.244039
C102	C	0.953507	0.666023	-0.318129
C103	C	0.416267	0.939279	-0.078458
C104	C	0.360110	1.003961	-0.080941
C105	C	0.332021	1.077433	-0.041058
C106	C	0.360098	1.086223	0.001305
C107	C	0.416258	1.021541	0.003783
C108	C	0.374451	0.729069	0.342582
C109	C	0.309397	0.731530	0.412205
C110	C	0.276858	0.691642	0.405903
C111	C	0.309382	0.649283	0.329973
C112	C	0.374439	0.646818	0.260353
C113	C	0.400807	1.030097	0.245733
C114	C	0.340203	1.097256	0.312877
C115	C	0.304442	1.092742	0.390598
C116	C	0.329293	1.021061	0.401174
C117	C	0.389901	0.953903	0.334030
C118	C	0.959676	0.322642	-0.297201
C119	C	1.020300	0.255482	-0.364346
C120	C	1.056064	0.259997	-0.442067
C121	C	1.031209	0.331677	-0.452643
C122	C	0.970591	0.398835	-0.385499
C123	C	0.944217	0.413460	0.026982
C124	C	1.000391	0.348777	0.029446
C125	C	1.028482	0.275304	-0.010440
C126	C	1.000402	0.266515	-0.052799
C127	C	0.944234	0.331197	-0.055268
C128	C	0.986025	0.705920	-0.311802
C129	C	1.051080	0.703471	-0.381412
C130	C	1.083619	0.661121	-0.457347
C131	C	1.051095	0.621223	-0.463673
C132	C	0.986037	0.623676	-0.394064
H133	H	0.429911	0.745484	-0.105837
H134	H	0.921348	0.473279	0.059468
H135	H	0.319938	0.745492	-0.105828
H136	H	1.074218	0.222643	-0.008424
H137	H	0.319976	1.155615	0.304252
H138	H	0.518380	0.766020	0.474045
Cl139	Cl	0.261417	1.158740	-0.044179
H140	H	0.564654	1.028699	0.038293
H141	H	0.255092	1.147432	0.445264
Cl142	Cl	0.908937	0.320132	-0.108512
H143	H	0.282879	0.616807	0.324855
Cl144	Cl	0.324822	0.992894	-0.134197
Cl145	Cl	1.091959	0.753629	-0.373441
H146	H	0.223884	0.693655	0.462599
H147	H	0.572736	1.146046	0.033799
Cl148	Cl	0.945132	0.759168	-0.216348
H149	H	0.834016	0.591188	0.600801
Cl150	Cl	0.415341	0.779224	0.350525
H151	H	0.300167	1.017397	0.464464
H152	H	0.787748	1.206691	-0.085292
Cl153	Cl	0.494565	1.505803	0.077125
Cl154	Cl	0.451570	0.846921	-0.128608
Cl155	Cl	0.530790	0.759174	0.783618
Cl156	Cl	1.035675	0.359844	0.082706
Cl157	Cl	0.945172	0.573505	-0.402032
H158	H	0.300162	0.607239	0.054345
H159	H	1.040526	0.197124	-0.355719
Cl160	Cl	0.324774	1.178594	0.051444
H161	H	0.439105	1.028710	0.038283
Cl162	Cl	1.035722	0.174144	-0.102934
H163	H	1.136593	0.659129	-0.514021
H164	H	0.842097	0.996835	-0.115400
Cl165	Cl	0.829688	1.320156	-0.108516
H166	H	-0.049663	0.745509	-0.105804
H167	H	0.410130	0.607238	0.054351
Cl168	Cl	1.092017	0.567977	-0.559141
Cl169	Cl	0.076153	0.762372	-0.125371
H170	H	0.930559	0.318952	-0.233923
Cl171	Cl	-0.085260	0.590365	0.073910
H172	H	0.400908	0.612332	0.198536
H173	H	0.040542	0.607241	0.054357
Cl174	Cl	0.445758	1.035792	0.148034
H175	H	0.410122	0.895547	0.342654
Cl176	Cl	0.268520	0.784787	0.507649
Cl177	Cl	1.132268	0.175561	-0.526470
Cl178	Cl	0.484515	1.359796	0.082694
H179	H	0.834022	0.879473	-0.110928
H180	H	1.060336	0.335344	-0.515932
H181	H	0.526454	0.761549	0.347738
Cl182	Cl	0.829687	0.593596	0.164919
H183	H	0.950356	0.457193	-0.394121
Cl184	Cl	0.819631	0.599127	0.322056
H185	H	0.842098	0.586714	0.474491
H186	H	0.572728	0.735914	0.623692
