data_functionalizedCrystal
_audit_creation_method	'MofGen! by Chris Wilmer'
_symmetry_space_group_name_H-M	'P1'
_symmetry_Int_Tables_number	1
_symmetry_cell_setting	triclinic
loop_
_symmetry_equiv_pos_as_xyz
  x,y,z
_cell_length_a	14.044220
_cell_length_b	10.868271
_cell_length_c	11.792254
_cell_angle_alpha	89.994692
_cell_angle_beta	88.693738
_cell_angle_gamma	90.000690
loop_
_atom_site_label
_atom_site_type_symbol
_atom_site_fract_x
_atom_site_fract_y
_atom_site_fract_z
O1	O	1.259124	-0.102193	0.273770
O2	O	1.759124	0.397807	0.773770
O3	O	0.983103	-0.102224	0.263891
O4	O	1.483103	0.397776	0.763891
O5	O	1.127806	-0.102199	0.104289
O6	O	1.627806	0.397801	0.604289
O7	O	1.114422	-0.102218	0.433372
O8	O	1.614422	0.397782	0.933372
O9	O	1.127794	0.102446	0.104281
O10	O	1.627794	0.602446	0.604281
O11	O	0.983091	0.102421	0.263883
O12	O	1.483091	0.602421	0.763883
O13	O	1.259112	0.102452	0.273762
O14	O	1.759112	0.602452	0.773762
Zn15	Zn	1.121100	0.134928	0.268821
Zn16	Zn	1.621100	0.634928	0.768821
Zn17	Zn	1.121115	-0.134700	0.268832
Zn18	Zn	1.621115	0.365300	0.768832
O19	O	1.114410	0.102427	0.433364
O20	O	1.614410	0.602427	0.933364
C21	C	0.947761	0.000095	0.259563
C22	C	1.447761	0.500095	0.759563
C23	C	0.842468	0.000083	0.246664
C24	C	1.342468	0.500083	0.746664
N25	N	1.121096	0.318942	0.268814
N26	N	1.621096	0.818942	0.768814
N27	N	1.121127	-0.318714	0.268831
N28	N	1.621127	0.181286	0.768831
C29	C	0.649685	0.000109	0.223082
C30	C	1.149685	0.500109	0.723082
C31	C	0.592525	0.000109	0.314566
C32	C	1.092525	0.500109	0.814566
C33	C	0.485254	0.000123	0.301445
C34	C	0.985254	0.500123	0.801445
C35	C	0.756966	0.000095	0.236201
C36	C	1.256966	0.500095	0.736201
C37	C	1.294455	0.000131	0.278090
C38	C	1.794455	0.500131	0.778090
C39	C	1.399747	0.000135	0.290989
C40	C	1.899747	0.500135	0.790989
C41	C	1.126956	0.000123	0.061915
C42	C	1.626956	0.500123	0.561915
C43	C	1.124433	0.000122	-0.064335
C44	C	1.624433	0.500122	0.435665
C45	C	1.121110	0.569948	0.268829
C46	C	1.621110	1.069948	0.768829
C47	C	1.121099	0.430271	0.268824
C48	C	1.621099	0.930271	0.768824
C49	C	1.122383	0.000117	-0.166864
C50	C	1.622383	0.500117	0.333136
C51	C	1.119819	0.000106	-0.295491
C52	C	1.619819	0.500106	0.204509
C53	C	1.115259	0.000102	0.475738
C54	C	1.615259	0.500102	0.975738
C55	C	1.117782	0.000096	0.601988
C56	C	1.617782	0.500096	1.101988
H57	H	0.624152	0.000098	0.402743
H58	H	1.124152	0.500098	0.902743
F59	F	0.608348	0.000119	0.107835
F60	F	1.108348	0.500119	0.607835
