data_functionalizedCrystal
_audit_creation_method	'MofGen! by Chris Wilmer'
_symmetry_space_group_name_H-M	'P1'
_symmetry_Int_Tables_number	1
_symmetry_cell_setting	triclinic
loop_
_symmetry_equiv_pos_as_xyz
  x,y,z
_cell_length_a	23.096457
_cell_length_b	14.395555
_cell_length_c	14.395555
_cell_angle_alpha	60.000749
_cell_angle_beta	89.998972
_cell_angle_gamma	59.999859
loop_
_atom_site_label
_atom_site_type_symbol
_atom_site_fract_x
_atom_site_fract_y
_atom_site_fract_z
Zr1	Zr	0.557796	1.016765	-0.121937
O2	O	0.465350	1.210558	-0.270261
O3	O	0.586133	0.822970	-0.076466
O4	O	0.586137	1.016757	-0.270262
O5	O	0.465344	1.016778	0.076402
O6	O	0.681420	1.016754	-0.270265
O7	O	0.465345	1.016771	-0.076465
O8	O	0.681411	0.670104	0.076400
O9	O	0.465352	1.363427	-0.270263
O10	O	0.669329	0.902679	-0.057078
O11	O	0.598221	0.902687	0.057008
O12	O	0.598226	1.130846	-0.171162
O13	O	0.527117	1.130854	-0.057077
Zr14	Zr	0.709759	1.016770	0.121863
Zr15	Zr	0.709760	1.016759	-0.121942
Zr16	Zr	0.557794	1.016776	0.121868
Zr17	Zr	0.557800	1.260574	-0.121941
Zr18	Zr	0.709754	0.772961	0.121867
O19	O	0.681422	1.210565	0.076392
O20	O	0.681423	1.210550	-0.270268
O21	O	0.465348	1.210573	0.076399
O22	O	0.802205	0.822978	0.270187
O23	O	0.802206	0.822962	-0.076473
O24	O	0.586131	0.822986	0.270194
O25	O	0.802210	1.016758	-0.076476
O26	O	0.681417	1.016778	0.270188
O27	O	0.586135	1.016782	0.270191
O28	O	0.802209	1.016765	0.076391
O29	O	0.586144	1.363423	-0.270267
O30	O	0.681411	0.670113	0.270193
O31	O	0.802202	0.670108	0.270189
O32	O	0.802203	0.670099	0.076396
O33	O	0.465351	1.363436	-0.076470
O34	O	0.586143	1.363431	-0.076474
O35	O	0.669328	0.902689	0.171088
O36	O	0.740437	0.902681	0.057003
O37	O	0.669334	1.130849	-0.057081
O38	O	0.598225	1.130856	0.057004
C39	C	0.633771	0.711800	-0.000032
C40	C	0.633770	0.608296	-0.000031
C41	C	0.595000	0.547708	0.062177
C42	C	0.566902	0.561961	-0.045097
C43	C	0.661851	0.409648	0.107211
C44	C	0.605632	0.623975	-0.107368
C45	C	0.700618	0.471599	0.045017
C46	C	0.672537	0.485898	-0.062321
C47	C	0.443693	1.016775	-0.000030
C48	C	0.379180	1.016777	-0.000028
C49	C	0.348878	1.016783	-0.084249
C50	C	0.288265	1.016771	-0.084249
C51	C	0.257950	1.016780	-0.000036
C52	C	0.288262	1.016767	0.084200
C53	C	0.348877	1.016765	0.084204
N54	N	0.139599	1.091156	0.025458
N55	N	0.082016	1.091160	0.025447
C56	C	0.075320	1.016781	-0.000042
N57	N	0.128378	0.942414	-0.025542
N58	N	0.185964	0.942416	-0.025537
C59	C	0.192223	1.016780	-0.000031
C60	C	-0.020704	1.016772	-0.084268
C61	C	-0.081315	1.016752	-0.084261
C62	C	-0.081322	1.016760	0.084184
C63	C	-0.020708	1.016767	0.084181
C64	C	0.009595	1.016779	-0.000051
C65	C	0.823861	1.016760	-0.000043
C66	C	0.888374	1.016758	-0.000046
C67	C	0.633779	1.016754	-0.305000
C68	C	0.633779	1.016749	-0.408502
C69	C	0.633783	1.321736	-0.000042
C70	C	0.633785	1.425239	-0.000043
C71	C	0.672551	0.892343	-0.406887
C72	C	0.605690	0.954536	-0.499908
C73	C	0.700624	0.954561	-0.499910
C74	C	0.566878	1.078943	-0.500160
C75	C	0.661861	1.078951	-0.500148
C76	C	0.594959	1.141235	-0.593186
C77	C	0.633776	1.016782	0.304927
C78	C	0.633775	1.016786	0.408428
C79	C	0.823856	0.711792	-0.000039
C80	C	0.888367	0.608286	-0.000039
C81	C	0.633770	0.711813	0.304931
C82	C	0.633768	0.608315	0.408435
C83	C	0.823854	0.711806	0.304925
C84	C	0.888365	0.608305	0.408426
C85	C	0.443700	1.321729	-0.304999
C86	C	0.379190	1.425231	-0.408500
C87	C	0.443699	1.321743	-0.000035
C88	C	0.379188	1.425249	-0.000034
C89	C	0.633784	1.321722	-0.305005
C90	C	0.633787	1.425221	-0.408508
C91	C	0.881544	0.559678	-0.059599
C92	C	0.942153	0.462436	-0.059622
C93	C	1.009584	0.413799	-0.000079
C94	C	1.016405	0.462417	0.059482
C95	C	0.955797	0.559664	0.059498
C96	C	0.955784	0.559696	0.397480
C97	C	1.016404	0.462459	0.494721
C98	C	1.009603	0.413826	0.602907
C99	C	0.942177	0.462445	0.613851
C100	C	0.881559	0.559687	0.516611
C101	C	0.311771	1.473852	-0.397554
C102	C	0.251150	1.571119	-0.494795
C103	C	0.257951	1.619756	-0.602981
C104	C	0.325377	1.571131	-0.613925
C105	C	0.385996	1.473872	-0.516685
C106	C	0.386010	1.473868	0.059515
C107	C	0.325401	1.571136	0.059511
C108	C	0.257970	1.619777	-0.000035
C109	C	0.251149	1.571154	-0.059592
C110	C	0.311758	1.473894	-0.059595
C111	C	0.594994	0.547731	0.406823
C112	C	0.661856	0.409632	0.499840
C113	C	0.566925	0.561968	0.499848
C114	C	0.700669	0.471515	0.500089
C115	C	0.605690	0.623925	0.500083
C116	C	0.672591	0.485835	0.593118
H117	H	0.562170	0.574938	0.114706
H118	H	0.003964	1.016770	0.152758
H119	H	0.330906	1.610744	-0.702022
Br120	Br	0.477516	1.407881	0.140334
Br121	Br	1.091832	0.281820	-0.000112
H122	H	0.581933	0.901958	-0.500838
Br123	Br	0.965069	0.625614	0.140344
H124	H	0.562257	0.574813	0.327065
H125	H	0.510320	1.131486	-0.499337
Br126	Br	0.727115	0.717011	-0.273952
Br127	Br	0.302486	1.407917	-0.140414
H128	H	0.826644	0.599277	-0.108100
Br129	Br	1.091880	0.281854	0.734866
Br130	Br	0.472687	0.623941	-0.108624
Br131	Br	0.701450	0.256919	0.501394
H132	H	0.961334	0.599278	0.309398
H133	H	0.510396	0.599143	0.500765
H134	H	0.757158	0.901961	-0.500810
H135	H	0.208625	1.698972	-0.000024
Br136	Br	0.932879	0.396472	-0.140458
H137	H	0.263577	1.016771	0.152769
Br138	Br	1.107924	0.396392	0.140290
Br139	Br	0.701481	1.166516	-0.498530
H140	H	1.071300	0.422883	0.485790
Br141	Br	0.566071	0.776678	0.498461
H142	H	0.562124	1.246518	-0.672814
H143	H	0.440890	1.434286	-0.525611
Br144	Br	-0.122438	1.016742	-0.198561
Br145	Br	0.932960	0.396431	0.760684
Br146	Br	0.794815	0.409652	0.108582
Br147	Br	0.334675	1.637100	0.140347
Br148	Br	0.565952	0.776578	-0.258611
H149	H	0.685593	0.318043	0.197908
H150	H	0.826665	0.599252	0.525540
Br151	Br	0.302522	1.407862	-0.250742
H152	H	0.705321	0.458951	-0.115007
Br153	Br	0.159630	1.637177	-0.140397
Br154	Br	0.390006	1.016793	-0.198557
Br155	Br	0.794937	0.409209	0.498722
Br156	Br	0.159653	1.637087	-0.479915
H157	H	0.208585	1.698950	-0.682151
H158	H	0.705429	0.458808	0.672745
H159	H	0.373550	1.016761	0.152788
Br160	Br	0.247134	1.016776	-0.198558
H161	H	0.003971	1.016776	-0.152852
H162	H	-0.106002	1.016760	0.152756
