data_functionalizedCrystal
_audit_creation_method	'MofGen! by Chris Wilmer'
_symmetry_space_group_name_H-M	'P1'
_symmetry_Int_Tables_number	1
_symmetry_cell_setting	triclinic
loop_
_symmetry_equiv_pos_as_xyz
  x,y,z
_cell_length_a	6.817900
_cell_length_b	11.102188
_cell_length_c	16.255661
_cell_angle_alpha	93.854934
_cell_angle_beta	103.488922
_cell_angle_gamma	108.603886
loop_
_atom_site_label
_atom_site_type_symbol
_atom_site_fract_x
_atom_site_fract_y
_atom_site_fract_z
V1	V	-4.052929	-0.176866	-0.263871
O2	O	-4.013087	0.007443	-0.258848
O3	O	-4.030098	-0.349679	-0.262067
O4	O	-4.004157	-0.174608	-0.378955
O5	O	-4.039208	-0.168839	-0.141151
V6	V	-4.533293	-0.154765	-0.249193
O7	O	-4.321119	-0.225344	-0.296070
O8	O	-4.715300	-0.106287	-0.216995
O9	O	-4.332917	0.018048	-0.250997
O10	O	-4.690532	-0.339074	-0.254216
O11	O	-4.664411	-0.162792	-0.371913
O12	O	-4.358859	-0.157022	-0.134110
C13	C	-3.881331	-0.391792	-0.257904
C14	C	-3.943948	-0.533072	-0.257196
C15	C	-3.989273	-0.713751	-0.178699
C16	C	-3.930415	-0.581002	-0.179361
C17	C	-4.016325	-0.617898	-0.334374
C18	C	-4.075168	-0.750644	-0.333711
C19	C	-3.975755	-0.761674	-0.100860
C20	C	-3.903377	-0.676857	-0.023682
C21	C	-3.844519	-0.544108	-0.024344
C22	C	-3.858038	-0.496176	-0.102183
C23	C	-3.848239	-0.168471	-0.407005
C24	C	-3.889815	-0.167769	-0.501086
C25	C	-3.799129	-0.159385	-0.723905
C26	C	-3.971585	-0.267595	-0.793381
C27	C	-3.966004	-0.166453	-0.673335
C28	C	-3.867655	-0.057005	-0.771496
C29	C	-4.039583	-0.165176	-0.839718
C30	C	-4.137957	-0.274760	-0.741581
C31	C	-4.033950	-0.064074	-0.719680
C32	C	-4.206548	-0.172315	-0.789137
C33	C	-3.923613	-0.167190	-0.577486
C34	C	-4.081993	-0.164449	-0.935567
C35	C	-4.145027	0.060155	-0.255158
C36	C	-4.061649	0.201433	-0.255871
C37	C	-4.178119	-0.163164	-0.106055
C38	C	-4.115781	-0.163859	-0.011973
H39	H	-4.134094	-0.819704	-0.396551
H40	H	-3.892358	-0.715891	0.039693
O41	O	-4.274029	-0.384715	-0.725673
C42	C	-4.408655	-0.460951	-0.803806
H43	H	-4.418570	-0.397298	-0.855698
H44	H	-4.340012	-0.536457	-0.822773
C45	C	-4.622869	-0.606394	-0.729700
C46	C	-4.635061	-0.528213	-0.793433
H47	H	-4.762525	-0.647890	-0.723302
H48	H	-4.532165	-0.555036	-0.677060
H49	H	-4.565658	-0.669305	-0.745515
H50	H	-4.692246	-0.465294	-0.777614
H51	H	-4.725781	-0.579562	-0.846071
O52	O	-4.412683	-0.179093	-0.822947
C53	C	-4.554865	-0.293956	-0.807989
H54	H	-4.470038	-0.367302	-0.797577
H55	H	-4.607968	-0.273446	-0.748640
C56	C	-4.857214	-0.257966	-0.898675
C57	C	-4.753034	-0.348055	-0.885894
H58	H	-4.979460	-0.291336	-0.946727
H59	H	-4.761426	-0.180578	-0.908749
H60	H	-4.901448	-0.240883	-0.849212
H61	H	-4.708779	-0.365125	-0.935352
H62	H	-4.848820	-0.425448	-0.875829
O63	O	-4.064438	0.038719	-0.681386
C64	C	-3.921060	0.153281	-0.696141
H65	H	-3.777349	0.133837	-0.710746
H66	H	-4.006595	0.189426	-0.752870
C67	C	-4.019536	0.279744	-0.597963
C68	C	-3.843018	0.255865	-0.615893
H69	H	-3.971402	0.343026	-0.548465
H70	H	-4.116139	0.202563	-0.588024
H71	H	-4.090799	0.309859	-0.645243
H72	H	-3.771775	0.225736	-0.568618
H73	H	-3.746401	0.333044	-0.625822
O74	O	-4.029435	-0.571129	-0.409909
C75	C	-3.961934	-0.435775	-0.393944
H76	H	-3.980556	-0.404046	-0.328891
H77	H	-3.786148	-0.393269	-0.394091
C78	C	-4.077629	-0.427171	-0.544083
C79	C	-4.100518	-0.388201	-0.464186
H80	H	-4.163105	-0.397823	-0.587413
H81	H	-4.123098	-0.518361	-0.554840
H82	H	-3.931135	-0.391746	-0.544193
H83	H	-4.247004	-0.423639	-0.464074
H84	H	-4.055076	-0.297015	-0.453431
O85	O	-3.731513	0.052761	-0.787591
C86	C	-3.517496	0.059124	-0.754261
H87	H	-3.509614	-0.002560	-0.701117
H88	H	-3.458398	0.021954	-0.807412
C89	C	-3.383877	0.275372	-0.783117
C90	C	-3.374193	0.199618	-0.717839
H91	H	-3.295476	0.362035	-0.760654
H92	H	-3.528063	0.271084	-0.805575
H93	H	-3.334632	0.244382	-0.827404
H94	H	-3.423462	0.230599	-0.673559
H95	H	-3.230010	0.203914	-0.695373
H96	H	-4.023680	-0.869763	-0.100313
O97	O	-3.593324	-0.152977	-0.689772
C98	C	-3.556014	-0.152641	-0.600703
H99	H	-3.675266	-0.116895	-0.576939
H100	H	-3.577356	-0.254409	-0.586249
C101	C	-3.178874	-0.106992	-0.584225
C102	C	-3.325330	-0.063078	-0.555035
H103	H	-3.036575	-0.051751	-0.556054
H104	H	-3.204010	-0.107223	-0.644233
H105	H	-3.196685	-0.191799	-0.572178
H106	H	-3.307536	0.021720	-0.567092
H107	H	-3.300186	-0.062831	-0.495028
O108	O	-3.940887	-0.370383	-0.831588
C109	C	-4.081545	-0.484917	-0.815539
H110	H	-4.131121	-0.463887	-0.755361
H111	H	-4.230457	-0.525078	-0.872297
C112	C	-3.906177	-0.610017	-0.876537
C113	C	-3.967053	-0.584189	-0.802622
H114	H	-3.835559	-0.671255	-0.868573
H115	H	-3.811418	-0.532853	-0.887352
H116	H	-4.030285	-0.643477	-0.923828
H117	H	-3.842944	-0.550714	-0.755335
H118	H	-4.061789	-0.661349	-0.791798
H119	H	-3.810050	-0.388079	-0.102715
H120	H	-3.785568	-0.475051	0.038499
