data_functionalizedCrystal
_audit_creation_method	'MofGen! by Chris Wilmer'
_symmetry_space_group_name_H-M	'P1'
_symmetry_Int_Tables_number	1
_symmetry_cell_setting	triclinic
loop_
_symmetry_equiv_pos_as_xyz
  x,y,z
_cell_length_a	19.077105
_cell_length_b	12.759394
_cell_length_c	19.077174
_cell_angle_alpha	92.274588
_cell_angle_beta	85.483752
_cell_angle_gamma	87.711291
loop_
_atom_site_label
_atom_site_type_symbol
_atom_site_fract_x
_atom_site_fract_y
_atom_site_fract_z
Zn1	Zn	1.093765	-0.510482	-0.441858
Zn2	Zn	1.088969	-0.678821	-0.323976
Zn3	Zn	0.971148	-0.495796	-0.319255
Zn4	Zn	0.975863	-0.678752	-0.437093
O5	O	1.032436	-0.590963	-0.380546
O6	O	1.191779	-0.538988	-0.430190
O7	O	1.069360	-0.648424	-0.224699
O8	O	0.987447	-0.350726	-0.335538
O9	O	1.188256	-0.662665	-0.343582
O10	O	1.077533	-0.361516	-0.425614
O11	O	0.982797	-0.513957	-0.221232
O12	O	0.873123	-0.513890	-0.330917
O13	O	0.995483	-0.662548	-0.536375
O14	O	0.876587	-0.648307	-0.417492
O15	O	1.082105	-0.538921	-0.539876
O16	O	1.073931	-0.825829	-0.338962
O17	O	0.990833	-0.825779	-0.422069
C18	C	0.849276	-0.579498	-0.373176
C19	C	0.770919	-0.574620	-0.370040
C20	C	1.032393	-0.863926	-0.380527
C21	C	1.032440	-0.980707	-0.380545
C22	C	0.735926	-0.642409	-0.413571
C23	C	0.662303	-0.637812	-0.410628
C24	C	0.623673	-0.565430	-0.364149
C25	C	0.658671	-0.497634	-0.320617
C26	C	0.732293	-0.502227	-0.323564
C27	C	0.403289	-0.544174	-0.350512
C28	C	0.329662	-0.539588	-0.347567
C29	C	0.333299	-0.679765	-0.437579
C30	C	0.406923	-0.684356	-0.440519
C31	C	0.441914	-0.616556	-0.396989
N32	N	0.548417	-0.560731	-0.361138
N33	N	0.517168	-0.621251	-0.400004
C34	C	1.119041	-0.980715	-0.294076
C35	C	1.162360	-1.035581	-0.250850
C36	C	1.162402	-1.145306	-0.250871
C37	C	1.119122	-1.200168	-0.294124
C38	C	1.075803	-1.145302	-0.337349
C39	C	1.075764	-1.035574	-0.337322
C40	C	0.989207	-1.145294	-0.423821
C41	C	0.989160	-1.035569	-0.423798
C42	C	0.945927	-1.200156	-0.467074
C43	C	0.902603	-1.145289	-0.510297
C44	C	0.902562	-1.035557	-0.510274
C45	C	0.945841	-0.980702	-0.467023
C46	C	1.216312	-0.602472	-0.387945
C47	C	1.294669	-0.607377	-0.391097
C48	C	1.039855	-0.602365	-0.564420
C49	C	1.043016	-0.607224	-0.642776
C50	C	1.032499	-0.316935	-0.380581
C51	C	1.032526	-0.200161	-0.380596
C52	C	0.999435	-0.539498	-0.677782
C53	C	1.002403	-0.544073	-0.751406
C54	C	1.048956	-0.616368	-0.790023
C55	C	1.092539	-0.684101	-0.755012
C56	C	1.089567	-0.679531	-0.681389
C57	C	1.062673	-0.637548	-1.010405
C58	C	1.065643	-0.642110	-1.084032
C59	C	0.975506	-0.502082	-1.080421
C60	C	0.972541	-0.497515	-1.006798
C61	C	1.016121	-0.565251	-0.971793
N62	N	1.051992	-0.621043	-0.865278
N63	N	1.013081	-0.560581	-0.896539
C64	C	1.025087	-0.579531	-0.197389
C65	C	1.022062	-0.574385	-0.119038
H66	H	0.767374	-0.701353	-0.451416
F67	F	0.440521	-0.472012	-0.304185
F68	F	0.617556	-0.420593	-0.271156
F69	F	0.769535	-0.430074	-0.277234
H70	H	0.867371	-1.189967	-0.545513
F71	F	1.119161	-0.863955	-0.294211
F72	F	1.208510	-1.203701	-0.204869
H73	H	1.103556	-0.700984	-1.115472
H74	H	0.867289	-0.990891	-0.545476
H75	H	1.197600	-0.990903	-0.215636
H76	H	1.119167	-1.289513	-0.294143
F77	F	0.288550	-0.462552	-0.298092
F78	F	0.945730	-1.316906	-0.466852
F79	F	0.922994	-0.420566	-0.965704
H80	H	0.945807	-0.891358	-0.466995
F81	F	0.949890	-0.462546	-0.636690
F82	F	0.955991	-0.472026	-0.788657
H83	H	0.940024	-0.446936	-1.108930
H84	H	1.098152	-0.692715	-0.981912
F85	F	1.135950	-0.751618	-0.644133
F86	F	0.625064	-0.709962	-0.456959
F87	F	0.448030	-0.761397	-0.489986
H88	H	1.130440	-0.742971	-0.786459
H89	H	0.304801	-0.734963	-0.473019
