data_functionalizedCrystal
_audit_creation_method	'MofGen! by Chris Wilmer'
_symmetry_space_group_name_H-M	'P1'
_symmetry_Int_Tables_number	1
_symmetry_cell_setting	triclinic
loop_
_symmetry_equiv_pos_as_xyz
  x,y,z
_cell_length_a	10.489741
_cell_length_b	15.995350
_cell_length_c	15.072220
_cell_angle_alpha	89.992853
_cell_angle_beta	89.998786
_cell_angle_gamma	84.015774
loop_
_atom_site_label
_atom_site_type_symbol
_atom_site_fract_x
_atom_site_fract_y
_atom_site_fract_z
O1	O	-1.692399	-0.118137	0.073723
O2	O	-1.321048	-0.129225	0.073736
O3	O	-1.516874	-0.001854	0.073728
O4	O	-1.496572	-0.245507	0.073731
O5	O	-1.516861	-0.001839	-0.073837
O6	O	-1.321035	-0.129210	-0.073829
O7	O	-1.692386	-0.118121	-0.073842
Zn8	Zn	-1.506708	-0.123663	-0.097265
Zn9	Zn	-1.506725	-0.123683	0.097159
O10	O	-1.496559	-0.245492	-0.073834
C11	C	-1.273521	-0.128380	-0.000045
C12	C	-1.131927	-0.125874	-0.000039
C13	C	-1.516029	0.029353	-0.000053
C14	C	-1.513512	0.122319	-0.000047
C15	C	-1.739912	-0.118966	-0.000060
C16	C	-1.881507	-0.121472	-0.000059
C17	C	-1.064921	-0.044832	-0.000048
C18	C	-0.972265	-0.083123	0.072707
C19	C	-0.972286	-0.083127	-0.072780
C20	C	-1.041136	-0.164199	0.072777
C21	C	-1.041166	-0.164192	-0.072776
C22	C	-0.948537	-0.202542	-0.000003
C23	C	-1.497405	-0.276699	-0.000052
C24	C	-1.499921	-0.369665	-0.000051
N25	N	-1.506706	-0.123648	-0.229954
C26	C	-1.504476	0.460121	-0.000050
C27	C	-1.365012	0.413527	0.000286
C28	C	-1.367528	0.316822	-0.000047
C29	C	-1.508958	0.292533	-0.000048
C30	C	-1.577739	0.333205	-0.084316
C31	C	-1.574236	0.429862	-0.084387
C32	C	-1.577131	0.430185	0.083423
C33	C	-1.577098	0.333239	0.084536
C34	C	-1.511499	0.197820	-0.000050
C35	C	-1.501939	0.554834	-0.000054
C36	C	-1.506726	-0.123677	-0.589155
C37	C	-1.611849	-0.055755	-0.551525
C38	C	-1.611575	-0.055500	-0.448699
C39	C	-1.506717	-0.123663	-0.410951
C40	C	-1.373644	-0.103780	-0.448289
C41	C	-1.374266	-0.103299	-0.551147
C42	C	-1.533478	-0.211677	-0.551232
C43	C	-1.536499	-0.211106	-0.448368
C44	C	-1.506704	-0.123656	-0.310238
C45	C	-1.506731	-0.123682	-0.689868
N46	N	-1.506738	-0.123691	0.229847
H47	H	-1.115543	0.021790	0.000042
C48	C	-0.931081	-0.036781	-0.155876
H49	H	-0.971351	0.019244	-0.155780
H50	H	-0.840663	-0.035963	-0.155572
H51	H	-0.955839	-0.065023	-0.207543
H52	H	-1.313461	0.288720	0.060360
C53	C	-1.506451	0.455006	-0.169472
H54	H	-1.481305	0.406169	-0.203667
H55	H	-1.563430	0.492637	-0.203166
H56	H	-1.432774	0.481711	-0.154071
H57	H	-1.349486	-0.040303	-0.422537
H58	H	-1.309274	0.432389	0.060716
C59	C	-0.931009	-0.036811	0.155797
H60	H	-0.971254	0.019220	0.155710
H61	H	-0.955732	-0.065068	0.207466
H62	H	-0.840583	-0.035997	0.155462
H63	H	-1.071728	-0.198448	-0.134290
H64	H	-1.681644	0.318453	-0.087451
H65	H	-1.309511	0.433462	-0.059804
H66	H	-1.628441	-0.230588	-0.577170
H67	H	-1.313087	0.289292	-0.060553
H68	H	-1.071490	-0.198469	0.134355
H69	H	-1.711101	-0.067532	-0.576258
H70	H	-1.676628	0.461493	-0.088211
C71	C	-1.513182	0.295277	-0.169031
H72	H	-1.444323	0.254667	-0.153227
H73	H	-1.574092	0.269175	-0.203129
H74	H	-1.481272	0.338598	-0.202994
C75	C	-1.515539	0.458286	0.169706
H76	H	-1.444928	0.488541	0.155626
H77	H	-1.577080	0.493386	0.202609
H78	H	-1.486577	0.410259	0.204105
H79	H	-1.526811	0.306287	0.146875
H80	H	-0.898180	-0.269234	0.000037
H81	H	-1.680235	0.317255	0.089623
C82	C	-1.745198	-0.071661	-0.414585
H83	H	-1.745206	-0.071532	-0.351553
H84	H	-1.807191	-0.028738	-0.435695
H85	H	-1.765624	-0.124698	-0.435455
H86	H	-1.679958	0.461325	0.083988
H87	H	-1.595006	0.009162	-0.577383
H88	H	-1.594482	0.009789	-0.424101
C89	C	-1.342424	-0.016569	-0.583574
H90	H	-1.329238	0.018041	-0.533885
H91	H	-1.266836	-0.023173	-0.618680
H92	H	-1.411577	0.008942	-0.618148
C93	C	-1.265186	-0.167352	-0.584781
H94	H	-1.220705	-0.193564	-0.535580
H95	H	-1.299984	-0.208779	-0.619858
H96	H	-1.207485	-0.139167	-0.619643
H97	H	-1.293533	-0.151900	-0.423839
C98	C	-1.668737	-0.231472	-0.415397
H99	H	-1.705650	-0.186878	-0.378975
H100	H	-1.723014	-0.237971	-0.464825
H101	H	-1.659120	-0.282127	-0.382027
H102	H	-1.464894	-0.264080	-0.422670
C103	C	-1.429927	-0.279974	-0.584111
H104	H	-1.370671	-0.255027	-0.620772
H105	H	-1.386066	-0.306146	-0.534654
H106	H	-1.469163	-0.320873	-0.617211
