data_functionalizedCrystal
_audit_creation_method	'MofGen! by Chris Wilmer'
_symmetry_space_group_name_H-M	'P1'
_symmetry_Int_Tables_number	1
_symmetry_cell_setting	triclinic
loop_
_symmetry_equiv_pos_as_xyz
  x,y,z
_cell_length_a	16.109301
_cell_length_b	10.654550
_cell_length_c	14.586319
_cell_angle_alpha	90.003177
_cell_angle_beta	90.001775
_cell_angle_gamma	83.973243
loop_
_atom_site_label
_atom_site_type_symbol
_atom_site_fract_x
_atom_site_fract_y
_atom_site_fract_z
O1	O	1.104091	0.161421	0.076188
O2	O	0.862149	0.181509	0.076200
O3	O	0.988683	-0.011349	0.076190
O4	O	0.977557	0.354280	0.076198
O5	O	0.988672	-0.011354	-0.076291
O6	O	0.862138	0.181505	-0.076281
O7	O	1.104081	0.161417	-0.076293
Cu8	Cu	0.983109	0.171460	-0.090210
Cu9	Cu	0.983121	0.171466	0.090117
O10	O	0.977547	0.354275	-0.076283
C11	C	0.831164	0.180693	-0.000039
C12	C	0.738854	0.178254	-0.000034
C13	C	0.430489	0.284717	-0.000048
C14	C	0.517223	0.287021	-0.000042
C15	C	0.535735	0.058200	-0.000035
C16	C	0.449003	0.055898	-0.000033
C17	C	0.396381	0.169160	-0.000045
C18	C	0.569848	0.173766	-0.000040
C19	C	0.663889	0.176264	-0.000035
C20	C	0.302335	0.166663	-0.000049
C21	C	0.987861	-0.058139	-0.000049
C22	C	0.985417	-0.197549	-0.000046
C23	C	1.059918	-0.278045	-0.000052
C24	C	1.057616	-0.409035	-0.000046
C25	C	0.906306	-0.379019	-0.000030
C26	C	0.908608	-0.248032	-0.000030
C27	C	1.136726	-0.227562	-0.000068
C28	C	1.211233	-0.308060	-0.000076
C29	C	1.208932	-0.439049	-0.000069
C30	C	1.132123	-0.489541	-0.000055
C31	C	1.135066	0.162233	-0.000052
C32	C	1.227375	0.164673	-0.000051
C33	C	0.978369	0.401065	-0.000042
C34	C	0.980813	0.540475	-0.000039
N35	N	0.983106	0.171456	-0.217041
C36	C	1.039158	0.086086	-0.548040
C37	C	1.039156	0.086086	-0.452058
C38	C	0.927076	0.256839	-0.452060
C39	C	0.927082	0.256844	-0.548040
C40	C	0.983122	0.171460	-0.596027
C41	C	0.983114	0.171456	-0.404066
C42	C	0.983111	0.171457	-0.299999
C43	C	0.983126	0.171460	-0.700101
N44	N	0.983130	0.171460	0.216948
H45	H	0.544988	0.381119	-0.000044
H46	H	0.578590	-0.034013	-0.000028
O47	O	0.416004	-0.056471	-0.000072
C48	C	0.481045	-0.155946	-0.000047
H49	H	0.540158	-0.120775	-0.028919
H50	H	0.462453	-0.236632	-0.044311
H51	H	0.493118	-0.190868	0.073107
H52	H	0.843772	-0.420140	-0.000020
H53	H	1.138608	-0.120905	-0.000076
O54	O	1.093501	0.002895	-0.405554
C55	C	1.079208	-0.121360	-0.429132
H56	H	1.012620	-0.121881	-0.455477
H57	H	1.088418	-0.184500	-0.366076
H58	H	1.125025	-0.158176	-0.484906
H59	H	0.881448	0.326355	-0.412979
O60	O	1.285770	-0.258809	-0.000126
C61	C	1.271829	-0.125934	-0.000108
H62	H	1.207123	-0.095150	-0.028972
H63	H	1.321016	-0.085743	-0.044382
H64	H	1.276074	-0.089464	0.073043
O65	O	0.872565	0.339827	-0.594519
C66	C	0.823111	0.415202	-0.531585
H67	H	0.821865	0.363714	-0.463170
H68	H	0.756831	0.434337	-0.559328
H69	H	0.850644	0.508503	-0.521367
H70	H	1.084790	0.016563	-0.587109
O71	O	0.379491	0.394851	-0.000008
C72	C	0.428198	0.497337	-0.000030
H73	H	0.492739	0.465437	0.028836
H74	H	0.396668	0.576691	0.044241
H75	H	0.434574	0.532757	-0.073183
H76	H	1.269599	-0.504588	-0.000066
H77	H	0.847943	-0.182489	-0.000026
O78	O	1.129991	-0.616806	0.000079
C79	C	1.170707	-0.668782	0.079063
H80	H	1.216212	-0.602058	0.105384
H81	H	1.206356	-0.763797	0.061306
H82	H	1.122478	-0.682524	0.134365
