data_functionalizedCrystal
_audit_creation_method	'MofGen! by Chris Wilmer'
_symmetry_space_group_name_H-M	'P1'
_symmetry_Int_Tables_number	1
_symmetry_cell_setting	triclinic
loop_
_symmetry_equiv_pos_as_xyz
  x,y,z
_cell_length_a	18.050591
_cell_length_b	18.050589
_cell_length_c	18.050582
_cell_angle_alpha	90.018912
_cell_angle_beta	90.021817
_cell_angle_gamma	90.024227
loop_
_atom_site_label
_atom_site_type_symbol
_atom_site_fract_x
_atom_site_fract_y
_atom_site_fract_z
Zn1	Zn	-1.135299	0.295781	-0.420054
Zn2	Zn	-0.801966	0.629114	-0.086721
Zn3	Zn	-0.468632	0.962447	0.246613
Zn4	Zn	-1.135208	0.419965	-0.295873
Zn5	Zn	-0.801875	0.753299	0.037460
Zn6	Zn	-0.468541	1.086632	0.370793
Zn7	Zn	-1.011116	0.295785	-0.295865
Zn8	Zn	-0.677783	0.629118	0.037468
Zn9	Zn	-0.344450	0.962452	0.370802
Zn10	Zn	-1.011066	0.419925	-0.420009
Zn11	Zn	-0.677733	0.753258	-0.086676
Zn12	Zn	-0.344400	1.086591	0.246658
O13	O	-1.073172	0.357864	-0.357950
O14	O	-0.739839	0.691197	-0.024617
O15	O	-0.406506	1.024531	0.308716
O16	O	-1.239212	0.312269	-0.403603
O17	O	-0.905878	0.645602	-0.070270
O18	O	-0.572545	0.978936	0.263063
O19	O	-1.118730	0.403512	-0.191948
O20	O	-0.785396	0.736845	0.141386
O21	O	-0.452063	1.070178	0.474719
O22	O	-1.027649	0.191860	-0.312354
O23	O	-0.694315	0.525193	0.020979
O24	O	-0.360982	0.858527	0.354312
O25	O	-1.239145	0.403507	-0.312369
O26	O	-0.905811	0.736841	0.020965
O27	O	-0.572478	1.070174	0.354298
O28	O	-1.118885	0.191857	-0.403595
O29	O	-0.785552	0.525190	-0.070262
O30	O	-0.452218	0.858523	0.263071
O31	O	-1.027560	0.312277	-0.191942
O32	O	-0.694227	0.645610	0.141392
O33	O	-0.360893	0.978943	0.474725
O34	O	-0.907185	0.312237	-0.312311
O35	O	-0.573852	0.645571	0.021023
O36	O	-0.240518	0.978904	0.354356
O37	O	-1.027563	0.403438	-0.523940
O38	O	-0.694230	0.736771	-0.190606
O39	O	-0.360897	1.070104	0.142727
O40	O	-0.907148	0.403442	-0.403519
O41	O	-0.573815	0.736775	-0.070185
O42	O	-0.240482	1.070109	0.263148
O43	O	-1.118837	0.312230	-0.523973
O44	O	-0.785503	0.645563	-0.190639
O45	O	-0.452170	0.978896	0.142694
O46	O	-1.118681	0.523885	-0.312325
O47	O	-0.785348	0.857218	0.021008
O48	O	-0.452014	1.190551	0.354342
O49	O	-1.027475	0.523855	-0.403527
O50	O	-0.694141	0.857188	-0.070193
O51	O	-0.360808	1.190521	0.263140
C52	C	-0.880220	0.357836	-0.357909
C53	C	-0.546887	0.691170	-0.024576
C54	C	-0.213554	1.024503	0.308757
C55	C	-0.797674	0.357842	-0.357909
C56	C	-0.464341	0.691176	-0.024576
C57	C	-0.131008	1.024509	0.308757
C58	C	-1.073083	0.550816	-0.357938
C59	C	-0.739749	0.884149	-0.024605
C60	C	-0.406416	1.217483	0.308729
C61	C	-1.073112	0.633362	-0.357958
C62	C	-0.739779	0.966695	-0.024624
C63	C	-0.406446	1.300028	0.308709
C64	C	-1.266878	0.357892	-0.357992
C65	C	-0.933545	0.691226	-0.024659
C66	C	-0.600211	1.024559	0.308675
C67	C	-1.349424	0.357904	-0.358010
C68	C	-1.016090	0.691238	-0.024676
C69	C	-0.682757	1.024571	0.308657
C70	C	-1.073205	0.357829	-0.551656
C71	C	-0.739871	0.691162	-0.218323
C72	C	-0.406538	1.024495	0.115011
C73	C	-1.073218	0.357814	-0.634202
C74	C	-0.739885	0.691147	-0.300868
C75	C	-0.406552	1.024480	0.032465
C76	C	-0.598222	0.308188	-0.308425
C77	C	-0.264889	0.641521	0.024909
C78	C	0.068444	0.974854	0.358242
C79	C	-0.548802	0.375924	-0.290154
C80	C	-0.215469	0.709257	0.043180
C81	C	0.117864	1.042590	0.376513
C82	C	-0.646544	0.357865	-0.357943
C83	C	-0.313211	0.691198	-0.024610
C84	C	0.020123	1.024531	0.308724
C85	C	-0.548882	0.290152	-0.376212
C86	C	-0.215549	0.623486	-0.042879
C87	C	0.117784	0.956819	0.290455
C88	C	-0.500559	0.357881	-0.357974
C89	C	-0.167226	0.691214	-0.024641
C90	C	0.166108	1.024547	0.308693
C91	C	-0.598211	0.425637	-0.339637
C92	C	-0.264878	0.758970	-0.006303
C93	C	0.068455	1.092303	0.327030
C94	C	-0.598296	0.339819	-0.425726
C95	C	-0.264962	0.673153	-0.092393
C96	C	0.068371	1.006486	0.240940
C97	C	-0.548898	0.407602	-0.407481
C98	C	-0.215565	0.740936	-0.074148
C99	C	0.117769	1.074269	0.259186
C100	C	-0.730642	0.357855	-0.357923
C101	C	-0.397309	0.691188	-0.024590
C102	C	-0.063976	1.024521	0.308744
C103	C	-0.416462	0.357898	-0.357994
C104	C	-0.083129	0.691232	-0.024660
C105	C	0.250204	1.024565	0.308673
C106	C	-1.073283	0.164158	-0.357979
C107	C	-0.739949	0.497492	-0.024646
C108	C	-0.406616	0.830825	0.308688
C109	C	-1.073330	0.081612	-0.357991
C110	C	-0.739996	0.414946	-0.024658
C111	C	-0.406663	0.748279	0.308675
C112	C	-1.023563	0.832823	-0.407536
C113	C	-0.690230	1.166156	-0.074202
C114	C	-0.356896	1.499490	0.259131
C115	C	-1.005464	0.882257	-0.339767
C116	C	-0.672131	1.215590	-0.006433
C117	C	-0.338798	1.548923	0.326900
C118	C	-1.073185	0.784492	-0.357967
C119	C	-0.739852	1.117825	-0.024634
C120	C	-0.406519	1.451159	0.308699
C121	C	-1.091321	0.882140	-0.425744
C122	C	-0.757987	1.215474	-0.092411
C123	C	-0.424654	1.548807	0.240922
C124	C	-1.073254	0.930477	-0.357983
C125	C	-0.739921	1.263811	-0.024649
C126	C	-0.406588	1.597144	0.308684
C127	C	-1.055051	0.832838	-0.290162
C128	C	-0.721717	1.166172	0.043171
C129	C	-0.388384	1.499505	0.376505
C130	C	-1.140939	0.832718	-0.376186
C131	C	-0.807605	1.166051	-0.042852
C132	C	-0.474272	1.499384	0.290481
C133	C	-1.122866	0.882129	-0.308370
C134	C	-0.789532	1.215462	0.024964
C135	C	-0.456199	1.548796	0.358297
C136	C	-1.073144	0.700394	-0.357959
C137	C	-0.739810	1.033727	-0.024626
C138	C	-0.406477	1.367061	0.308707
C139	C	-1.073296	1.014574	-0.357983
C140	C	-0.739963	1.347907	-0.024649
C141	C	-0.406630	1.681240	0.308684
C142	C	-1.023630	0.407332	-0.883010
C143	C	-0.690297	0.740665	-0.549676
C144	C	-0.356963	1.073998	-0.216343
C145	C	-1.005490	0.339593	-0.833615
C146	C	-0.672157	0.672926	-0.500281
C147	C	-0.338823	1.006260	-0.166948
C148	C	-1.073281	0.357704	-0.931322
C149	C	-0.739948	0.691038	-0.597989
C150	C	-0.406614	1.024371	-0.264656
C151	C	-1.091355	0.425493	-0.833636
C152	C	-0.758022	0.758826	-0.500302
C153	C	-0.424688	1.092160	-0.166969
C154	C	-1.073248	0.357762	-0.785337
C155	C	-0.739915	0.691095	-0.452004
C156	C	-0.406582	1.024428	-0.118671
C157	C	-1.055106	0.289930	-0.883015
C158	C	-0.721773	0.623263	-0.549681
C159	C	-0.388439	0.956596	-0.216348
C160	C	-1.141003	0.375875	-0.883040
C161	C	-0.807669	0.709209	-0.549707
C162	C	-0.474336	1.042542	-0.216373
C163	C	-1.122888	0.308090	-0.833667
C164	C	-0.789555	0.641423	-0.500334
C165	C	-0.456222	0.974757	-0.167001
C166	C	-1.073298	0.357672	-1.015421
C167	C	-0.739965	0.691006	-0.682087
C168	C	-0.406631	1.024339	-0.348754
C169	C	-1.073231	0.357786	-0.701241
C170	C	-0.739898	0.691119	-0.367907
C171	C	-0.406565	1.024453	-0.034574
C172	C	-1.073183	0.357846	-0.164998
C173	C	-0.739850	0.691179	0.168335
C174	C	-0.406516	1.024512	0.501668
C175	C	-1.073313	0.357651	-0.082453
C176	C	-0.739980	0.690985	0.250880
C177	C	-0.406647	1.024318	0.584214
H178	H	-0.619879	0.266222	-0.266503
H179	H	-0.286546	0.599556	0.066830
H180	H	0.046787	0.932889	0.400163
H181	H	-1.198271	0.391245	-0.904766
H182	H	-0.864938	0.724578	-0.571433
H183	H	-0.531604	1.057911	-0.238099
H184	H	-1.106632	0.903797	-0.483056
H185	H	-0.773299	1.237130	-0.149723
H186	H	-0.439965	1.570463	0.183610
H187	H	-0.981624	0.449222	-0.904676
H188	H	-0.648291	0.782556	-0.571342
H189	H	-0.314957	1.115889	-0.238009
H190	H	-1.198190	0.810943	-0.391613
H191	H	-0.864857	1.144277	-0.058280
H192	H	-0.531524	1.477610	0.275053
H193	H	-1.106657	0.482797	-0.811946
H194	H	-0.773324	0.816131	-0.478613
H195	H	-0.439990	1.149464	-0.145279
H196	H	-1.164859	0.903642	-0.266409
H197	H	-0.831526	1.236975	0.066924
H198	H	-0.498192	1.570309	0.400257
H199	H	-0.948200	0.904033	-0.324371
H200	H	-0.614866	1.237366	0.008962
H201	H	-0.281533	1.570700	0.342295
H202	H	-0.981538	0.811173	-0.449395
H203	H	-0.648204	1.144506	-0.116062
H204	H	-0.314871	1.477839	0.217272
H205	H	-1.039740	0.232609	-0.904614
H206	H	-0.706407	0.565942	-0.571281
H207	H	-0.373073	0.899276	-0.237948
H208	H	-1.164863	0.266098	-0.812139
H209	H	-0.831529	0.599431	-0.478806
H210	H	-0.498196	0.932764	-0.145473
H211	H	-0.619790	0.482924	-0.324134
H212	H	-0.286456	0.816257	0.009199
H213	H	0.046877	1.149591	0.342533
H214	H	-0.948205	0.324244	-0.811905
H215	H	-0.614872	0.657577	-0.478571
H216	H	-0.281538	0.990910	-0.145238
H217	H	-0.527064	0.391199	-0.232844
H218	H	-0.193730	0.724532	0.100489
H219	H	0.139603	1.057865	0.433823
H220	H	-0.527377	0.449668	-0.449370
H221	H	-0.194044	0.783001	-0.116037
H222	H	0.139289	1.116334	0.217296
H223	H	-0.620052	0.324524	-0.483019
H224	H	-0.286719	0.657857	-0.149686
H225	H	0.046614	0.991190	0.183648
H226	H	-1.039673	0.811272	-0.232834
H227	H	-0.706340	1.144605	0.100499
H228	H	-0.373006	1.477938	0.433832
H229	H	-0.527175	0.232889	-0.391625
H230	H	-0.193842	0.566223	-0.058292
H231	H	0.139492	0.899556	0.275041
