data_functionalizedCrystal
_audit_creation_method	'MofGen! by Chris Wilmer'
_symmetry_space_group_name_H-M	'P1'
_symmetry_Int_Tables_number	1
_symmetry_cell_setting	triclinic
loop_
_symmetry_equiv_pos_as_xyz
  x,y,z
_cell_length_a	11.792241
_cell_length_b	14.971486
_cell_length_c	10.268362
_cell_angle_alpha	89.994507
_cell_angle_beta	89.999626
_cell_angle_gamma	83.903772
loop_
_atom_site_label
_atom_site_type_symbol
_atom_site_fract_x
_atom_site_fract_y
_atom_site_fract_z
O1	O	-1.506118	-0.122598	0.108175
O2	O	-1.175695	-0.135233	0.108205
O3	O	-1.349763	0.001249	0.108180
O4	O	-1.332050	-0.259080	0.108200
O5	O	-1.349748	0.001255	-0.108421
O6	O	-1.175680	-0.135227	-0.108396
O7	O	-1.506103	-0.122592	-0.108426
Cu8	Cu	-1.340890	-0.128909	-0.128188
Cu9	Cu	-1.340908	-0.128916	0.127967
O10	O	-1.332035	-0.259074	-0.108401
C11	C	-1.133402	-0.134436	-0.000092
C12	C	-1.007404	-0.132061	-0.000080
N13	N	-1.340886	-0.128904	-0.308354
C14	C	-1.548396	-0.123389	-0.000127
C15	C	-1.674395	-0.125764	-0.000130
C16	C	-0.776720	-0.127692	-0.000118
C17	C	-0.905089	-0.130120	-0.000097
C18	C	-1.348963	0.034580	-0.000120
C19	C	-1.346589	0.133887	-0.000119
C20	C	-1.332835	-0.292405	-0.000098
C21	C	-1.335209	-0.391711	-0.000091
C22	C	-1.448849	0.190702	-0.000129
C23	C	-1.446612	0.284011	-0.000116
C24	C	-1.342114	0.320502	-0.000102
C25	C	-1.239846	0.263679	-0.000087
C26	C	-1.242084	0.170372	-0.000091
C27	C	-1.235188	0.458160	-0.000082
C28	C	-1.232949	0.551473	-0.000081
C29	C	-1.439715	0.571798	-0.000107
C30	C	-1.441954	0.478492	-0.000111
C31	C	-1.339685	0.421675	-0.000099
C32	C	-1.340902	-0.128914	-0.574025
C33	C	-1.340889	-0.128911	-0.426187
N34	N	-1.340921	-0.128914	0.308133
H35	H	-1.533944	0.160999	-0.000149
C36	C	-1.124896	0.303822	-0.000082
N37	N	-1.038314	0.334057	-0.000088
H38	H	-1.529883	0.330267	-0.000127
C39	C	-1.556907	0.438354	-0.000133
N40	N	-1.643492	0.408123	-0.000146
H41	H	-1.522986	0.618063	-0.000112
C42	C	-1.117996	0.591611	-0.000048
N43	N	-1.031411	0.621842	-0.000019
H44	H	-1.151910	0.411902	-0.000069
H45	H	-1.158814	0.124113	-0.000083
