data_functionalizedCrystal
_audit_creation_method	'MofGen! by Chris Wilmer'
_symmetry_space_group_name_H-M	'P1'
_symmetry_Int_Tables_number	1
_symmetry_cell_setting	triclinic
loop_
_symmetry_equiv_pos_as_xyz
  x,y,z
_cell_length_a	19.188925
_cell_length_b	11.026607
_cell_length_c	9.482900
_cell_angle_alpha	78.599815
_cell_angle_beta	80.741727
_cell_angle_gamma	84.135717
loop_
_atom_site_label
_atom_site_type_symbol
_atom_site_fract_x
_atom_site_fract_y
_atom_site_fract_z
O1	O	0.953929	-0.132318	-0.120924
O2	O	0.753215	-0.152707	-0.120920
O3	O	0.836936	0.034051	-0.120916
O4	O	0.870207	-0.319076	-0.120927
O5	O	0.819950	-0.004035	0.120876
O6	O	0.736228	-0.190793	0.120872
O7	O	0.936942	-0.170404	0.120868
Cu8	Cu	0.835034	-0.184076	0.142948
Cu9	Cu	0.855123	-0.139035	-0.142999
O10	O	0.853220	-0.357162	0.120864
C11	C	0.718626	-0.171091	-0.000023
C12	C	0.640869	-0.169112	-0.000021
C13	C	0.091377	-0.265446	-0.000028
C14	C	0.164439	-0.267314	-0.000036
C15	C	0.195407	-0.157732	-0.000030
C16	C	0.153309	-0.046266	-0.000053
C17	C	0.080250	-0.044399	-0.000060
N18	N	0.300191	-0.091363	0.082281
N19	N	0.369595	-0.093145	0.082290
C20	C	0.415531	-0.163352	-0.000013
N21	N	0.389441	-0.231730	-0.082307
N22	N	0.320031	-0.229952	-0.082310
C23	C	0.274627	-0.159744	-0.000023
C24	C	0.536842	-0.276834	-0.000008
C25	C	0.609906	-0.278697	-0.000025
C26	C	0.598774	-0.057648	-0.000028
C27	C	0.525713	-0.055786	-0.000025
C28	C	0.494751	-0.165384	-0.000009
C29	C	0.822305	0.060186	-0.000022
C30	C	0.804009	0.194803	-0.000027
C31	C	0.971531	-0.152020	-0.000032
C32	C	1.049288	-0.153997	-0.000043
C33	C	0.867851	-0.383297	-0.000033
C34	C	0.886149	-0.517912	-0.000038
N35	N	0.820910	-0.215755	0.344067
C36	C	0.854530	0.268879	-0.000030
C37	C	0.835621	0.408013	-0.000035
N38	N	0.869251	-0.107346	-0.344119
C39	C	0.850951	-0.148372	0.416268
C40	C	0.839206	-0.174739	0.583685
H41	H	0.045981	0.046360	-0.000072
C42	C	0.057323	-0.386009	-0.000001
N43	N	0.031672	-0.476818	0.000023
H44	H	0.903665	-0.030127	0.593758
C45	C	0.774413	-0.320060	0.427995
N46	N	0.739390	-0.398625	0.491208
H47	H	0.198713	-0.358075	-0.000010
H48	H	0.511632	-0.366075	0.000003
C49	C	0.187375	0.074274	-0.000037
N50	N	0.213034	0.165068	-0.000027
C51	C	0.897431	-0.044043	0.332340
N52	N	0.932436	0.034546	0.269127
H53	H	0.644175	-0.369454	-0.000025
C54	C	0.792706	-0.279049	0.667607
N55	N	0.757683	-0.357613	0.730820
H56	H	0.491443	0.034967	-0.000029
C57	C	0.632835	0.062896	-0.000025
N58	N	0.658493	0.153693	-0.000027
H59	H	0.911780	0.229292	-0.000022
C60	C	0.963499	0.428624	-0.000038
N61	N	1.021758	0.388354	-0.000036
C62	C	0.758271	0.461479	-0.000031
N63	N	0.700011	0.501751	-0.000024
C64	C	0.726663	0.248275	-0.000023
N65	N	0.668403	0.288546	-0.000016
