data_functionalizedCrystal
_audit_creation_method	'MofGen! by Chris Wilmer'
_symmetry_space_group_name_H-M	'P1'
_symmetry_Int_Tables_number	1
_symmetry_cell_setting	triclinic
loop_
_symmetry_equiv_pos_as_xyz
  x,y,z
_cell_length_a	21.295417
_cell_length_b	21.295420
_cell_length_c	10.686551
_cell_angle_alpha	85.601698
_cell_angle_beta	94.412210
_cell_angle_gamma	89.972078
loop_
_atom_site_label
_atom_site_type_symbol
_atom_site_fract_x
_atom_site_fract_y
_atom_site_fract_z
Zn1	Zn	-0.223300	-0.989668	0.713493
Zn2	Zn	-0.336663	-0.981492	0.502460
Zn3	Zn	-0.231406	-0.876314	0.502496
Zn4	Zn	-0.328534	-0.884358	0.713403
O5	O	-0.279976	-0.932958	0.607963
O6	O	-0.238348	-1.076674	0.685522
O7	O	-0.329495	-0.960752	0.325881
O8	O	-0.142239	-0.891407	0.530537
O9	O	-0.321635	-1.070667	0.530476
O10	O	-0.136284	-0.974687	0.685556
O11	O	-0.252163	-0.883479	0.325907
O12	O	-0.244280	-0.789291	0.530450
O13	O	-0.307780	-0.905115	0.889999
O14	O	-0.315640	-0.795200	0.685403
O15	O	-0.230465	-0.982486	0.890065
O16	O	-0.423677	-0.968551	0.530390
O17	O	-0.417704	-0.897187	0.685369
C18	C	-0.279958	-0.769405	0.607922
C19	C	-0.279965	-0.699437	0.607934
C20	C	-0.317200	-0.203070	0.688546
C21	C	-0.317202	-0.268812	0.688535
C22	C	-0.279980	-0.298600	0.607983
C23	C	-0.242767	-0.262639	0.527414
C24	C	-0.242771	-0.196898	0.527418
N25	N	-0.225229	-0.401477	0.598499
N26	N	-0.225226	-0.463929	0.598502
C27	C	-0.279966	-0.496674	0.607962
N28	N	-0.334709	-0.464608	0.617444
N29	N	-0.334711	-0.402151	0.617448
C30	C	-0.279972	-0.369885	0.607969
C31	C	-0.317183	-0.603911	0.688508
C32	C	-0.317186	-0.669654	0.688488
C33	C	-0.242744	-0.663480	0.527373
C34	C	-0.242747	-0.597738	0.527387
C35	C	-0.279965	-0.567958	0.607961
C36	C	-0.443530	-0.932873	0.607893
C37	C	-0.513498	-0.932896	0.607905
C38	C	-0.549450	-0.970094	0.527290
C39	C	-0.615192	-0.970125	0.527319
C40	C	-0.644979	-0.932945	0.607949
C41	C	-0.609018	-0.895744	0.688580
C42	C	-0.543277	-0.895720	0.688558
N43	N	-0.747874	-0.878246	0.617555
N44	N	-0.810325	-0.878271	0.617568
C45	C	-0.843051	-0.933018	0.608021
N46	N	-0.810968	-0.987740	0.598436
N47	N	-0.748511	-0.987714	0.598416
C48	C	-0.716263	-0.932968	0.607982
C49	C	-0.950288	-0.970253	0.527433
C50	C	-1.016030	-0.970285	0.527470
C51	C	-1.009855	-0.895899	0.688724
C52	C	-0.944114	-0.895873	0.688694
C53	C	-0.914334	-0.933049	0.608041
C54	C	-0.115782	-0.933062	0.608061
C55	C	-0.045812	-0.933106	0.608102
C56	C	-0.267312	-0.945610	0.937098
C57	C	-0.261915	-0.951001	1.077356
C58	C	-0.279991	-0.097150	0.607997
C59	C	-0.279989	-0.167118	0.607992
C60	C	-0.292545	-0.920392	0.280108
C61	C	-0.297765	-0.915122	0.139851
H62	H	-0.212461	-0.286896	0.461826
H63	H	-0.514004	-0.865428	0.754206
O64	O	-0.517336	-1.010199	0.440313
H65	H	-0.489899	-0.979571	0.376040
H66	H	-0.633274	-0.865474	0.754231
H67	H	-0.227095	-0.985848	1.131160
H68	H	-0.212467	-0.167625	0.461821
O69	O	-0.357323	-0.708432	0.775382
H70	H	-0.351074	-0.759149	0.761835
H71	H	-0.347509	-0.178827	0.754152
O72	O	-0.918160	-1.010356	0.440467
H73	H	-0.954207	-1.036238	0.384429
O74	O	-0.202610	-0.695602	0.440470
H75	H	-0.176739	-0.659553	0.384445
O76	O	-0.653982	-1.010241	0.440357
H77	H	-0.622230	-1.036084	0.384265
H78	H	-0.332587	-0.880282	1.086053
O79	O	-1.054813	-1.010407	0.440515
H80	H	-1.023058	-1.036246	0.384424
O81	O	-1.041971	-0.855793	0.775688
H82	H	-1.093726	-0.862056	0.762156
O83	O	-0.202610	-0.558959	0.440500
H84	H	-0.208871	-0.508241	0.454025
O85	O	-0.357332	-0.307603	0.775432
H86	H	-0.383209	-0.275850	0.831466
O87	O	-0.905331	-0.855734	0.775610
H88	H	-0.937086	-0.829877	0.831670
O89	O	-0.357348	-0.571781	0.775357
H90	H	-0.383241	-0.607828	0.831343
