data_functionalizedCrystal
_audit_creation_method	'MofGen! by Chris Wilmer'
_symmetry_space_group_name_H-M	'P1'
_symmetry_Int_Tables_number	1
_symmetry_cell_setting	triclinic
loop_
_symmetry_equiv_pos_as_xyz
  x,y,z
_cell_length_a	19.121368
_cell_length_b	14.908571
_cell_length_c	14.908308
_cell_angle_alpha	90.175053
_cell_angle_beta	89.301516
_cell_angle_gamma	91.003368
loop_
_atom_site_label
_atom_site_type_symbol
_atom_site_fract_x
_atom_site_fract_y
_atom_site_fract_z
Zn1	Zn	0.364748	1.326676	-0.566599
Zn2	Zn	0.864748	1.826676	-0.066599
Zn3	Zn	0.475300	1.329613	-0.409879
Zn4	Zn	0.975300	1.829613	0.090121
Zn5	Zn	0.351323	1.185677	-0.408369
Zn6	Zn	0.851323	1.685677	0.091631
Zn7	Zn	0.474469	1.170683	-0.551578
Zn8	Zn	0.974469	1.670683	-0.051578
O9	O	0.416460	1.253162	-0.484106
O10	O	0.916460	1.753162	0.015894
O11	O	0.385378	1.452587	-0.552727
O12	O	0.885378	1.952587	-0.052727
O13	O	0.453583	1.318024	-0.284157
O14	O	0.953583	1.818024	0.215843
O15	O	0.255300	1.209426	-0.435012
O16	O	0.755300	1.709426	0.064988
O17	O	0.466601	1.454745	-0.437586
O18	O	0.966601	1.954745	0.062414
O19	O	0.265163	1.313018	-0.551263
O20	O	0.765163	1.813018	-0.051263
O21	O	0.362498	1.212274	-0.283048
O22	O	0.862498	1.712274	0.216952
O23	O	0.361693	1.058166	-0.420448
O24	O	0.861693	1.558166	0.079552
O25	O	0.465185	1.183872	-0.679092
O26	O	0.965185	1.683872	-0.179092
O27	O	0.452168	1.047151	-0.525663
O28	O	0.952168	1.547151	-0.025663
O29	O	0.384573	1.298480	-0.690128
O30	O	0.884573	1.798480	-0.190128
O31	O	0.572993	1.303485	-0.423022
O32	O	1.072993	1.803485	0.076978
O33	O	0.572383	1.186720	-0.527128
O34	O	1.072383	1.686720	-0.027128
C35	C	0.405384	1.020112	-0.471262
C36	C	0.905384	1.520112	0.028738
C37	C	0.400663	0.920410	-0.465788
C38	C	0.900663	1.420410	0.034212
C39	C	0.234163	1.262567	-0.494645
C40	C	0.734163	1.762567	0.005355
C41	C	0.156479	1.266575	-0.499135
C42	C	0.656479	1.766575	0.000865
C43	C	0.486137	0.721640	-0.564900
C44	C	0.986137	1.221640	-0.064900
C45	C	0.481704	0.627960	-0.559759
C46	C	0.981704	1.127960	-0.059759
C47	C	0.387361	0.639371	-0.450371
C48	C	0.887361	1.139371	0.049629
C49	C	0.391794	0.733050	-0.455512
C50	C	0.891794	1.233050	0.044488
C51	C	0.441185	0.774181	-0.512777
C52	C	0.941185	1.274181	-0.012777
C53	C	0.445621	0.867862	-0.517912
C54	C	0.945621	1.367862	-0.017912
C55	C	0.351275	0.879270	-0.408530
C56	C	0.851275	1.379270	0.091470
C57	C	0.346842	0.785591	-0.403389
C58	C	0.846842	1.285591	0.096611
C59	C	0.114847	1.214526	-0.440722
C60	C	0.614847	1.714526	0.059278
C61	C	0.041855	1.218290	-0.444950
C62	C	0.541855	1.718290	0.055050
C63	C	0.010496	1.274107	-0.507589
C64	C	0.510496	1.774107	-0.007589
C65	C	0.052134	1.326158	-0.566009
C66	C	0.552134	1.826158	-0.066009
C67	C	0.125125	1.322389	-0.561784
C68	C	0.625125	1.822389	-0.061784
C69	C	-0.209632	1.288181	-0.523377
C70	C	0.290368	1.788181	-0.023377
C71	C	-0.282628	1.291948	-0.527596
C72	C	0.217372	1.791948	-0.027596
C73	C	-0.292902	1.184079	-0.406538
C74	C	0.207098	1.684079	0.093462
C75	C	-0.219910	1.180319	-0.402315
C76	C	0.280090	1.680319	0.097685
C77	C	-0.178278	1.232366	-0.460738
C78	C	0.321722	1.732366	0.039262
C79	C	-0.064113	1.277958	-0.511911
C80	C	0.435887	1.777958	-0.011911
C81	C	-0.103670	1.228510	-0.456420
C82	C	0.396330	1.728510	0.043580
C83	C	0.598050	1.243818	-0.473630
C84	C	1.098050	1.743818	0.026370
C85	C	0.675740	1.239900	-0.469182
C86	C	1.175740	1.739900	0.030818
C87	C	0.426284	1.239176	-0.718066
C88	C	0.926284	1.739176	-0.218066
C89	C	0.430471	1.233215	-0.817766
C90	C	0.930471	1.733215	-0.317766
C91	C	0.427580	1.487123	-0.497001
C92	C	0.927580	1.987123	0.002999
C93	C	0.432318	1.586822	-0.502496
C94	C	0.932318	2.086822	-0.002496
C95	C	0.354380	1.341354	-1.016606
C96	C	0.854380	1.841354	-0.516606
C97	C	0.358311	1.335757	-1.110284
C98	C	0.858311	1.835757	-0.610284
C99	C	0.442261	1.216420	-1.098799
C100	C	0.942261	1.716420	-0.598799
C101	C	0.438329	1.222017	-1.005122
C102	C	0.938329	1.722017	-0.505122
C103	C	0.394388	1.284487	-0.964029
C104	C	0.894388	1.784487	-0.464029
C105	C	0.390461	1.290088	-0.870350
C106	C	0.890461	1.790088	-0.370350
C107	C	0.474406	1.170748	-0.858868
C108	C	0.974406	1.670748	-0.358868
C109	C	0.478338	1.165150	-0.952545
C110	C	0.978338	1.665150	-0.452545
C111	C	0.406626	1.267149	-0.251062
C112	C	0.906626	1.767149	0.248938
C113	C	0.402251	1.273293	-0.151384
C114	C	0.902251	1.773293	0.348616
H115	H	0.485838	0.901349	-0.564539
H116	H	0.985838	1.401349	-0.064539
H117	H	0.354683	1.340956	-0.836894
H118	H	0.854683	1.840956	-0.336894
H119	H	0.314673	0.922060	-0.366086
H120	H	0.814673	1.422060	0.133914
H121	H	0.526356	0.755129	-0.611522
H122	H	1.026356	1.255129	-0.111522
F123	F	0.516995	1.110229	-0.802905
F124	F	1.016995	1.610229	-0.302905
H125	H	0.478035	1.165560	-1.132274
H126	H	0.978035	1.665560	-0.632274
H127	H	0.306628	0.752089	-0.356768
H128	H	0.806628	1.252089	0.143232
H129	H	0.325730	1.382062	-1.153089
H130	H	0.825730	1.882062	-0.653089
H131	H	0.518307	0.585184	-0.602205
H132	H	1.018307	1.085184	-0.102205
F133	F	0.334793	0.595580	-0.389443
F134	F	0.834793	1.095580	0.110557
F135	F	0.525099	1.098667	-0.996289
F136	F	1.025099	1.598667	-0.496289
H137	H	0.140373	1.169077	-0.389712
H138	H	0.640373	1.669077	0.110288
H139	H	0.007958	1.175908	-0.397386
H140	H	0.507958	1.675908	0.102614
F141	F	-0.186541	1.120909	-0.335648
F142	F	0.313459	1.620909	0.164352
H143	H	-0.308156	1.337405	-0.578606
H144	H	0.191844	1.837405	-0.078606
F145	F	-0.337214	1.128689	-0.344367
F146	F	0.162786	1.628689	0.155633
H147	H	0.026598	1.371602	-0.617015
H148	H	0.526598	1.871602	-0.117015
F149	F	0.169433	1.377785	-0.623957
F150	F	0.669433	1.877785	-0.123957
F151	F	-0.165334	1.343567	-0.585563
F152	F	0.334666	1.843567	-0.085563
H153	H	-0.078135	1.183059	-0.405424
H154	H	0.421865	1.683059	0.094576
H155	H	-0.089651	1.323407	-0.562911
H156	H	0.410349	1.823407	-0.062911
H157	H	0.318605	1.392224	-0.983148
H158	H	0.818605	1.892224	-0.483148
