data_functionalizedCrystal
_audit_creation_method	'MofGen! by Chris Wilmer'
_symmetry_space_group_name_H-M	'P1'
_symmetry_Int_Tables_number	1
_symmetry_cell_setting	triclinic
loop_
_symmetry_equiv_pos_as_xyz
  x,y,z
_cell_length_a	15.944545
_cell_length_b	15.021413
_cell_length_c	11.026607
_cell_angle_alpha	90.006856
_cell_angle_beta	83.958906
_cell_angle_gamma	90.004532
loop_
_atom_site_label
_atom_site_type_symbol
_atom_site_fract_x
_atom_site_fract_y
_atom_site_fract_z
O1	O	1.138183	0.073971	-0.156458
O2	O	1.638183	0.573971	0.343542
O3	O	0.896551	0.073985	-0.175762
O4	O	1.396551	0.573985	0.324238
O5	O	0.997341	0.073976	0.010544
O6	O	1.497341	0.573976	0.510544
O7	O	1.037394	0.073980	-0.342764
O8	O	1.537394	0.573980	0.157236
O9	O	0.997325	-0.074089	0.010518
O10	O	1.497325	0.425911	0.510518
O11	O	0.896535	-0.074079	-0.175789
O12	O	1.396535	0.425921	0.324211
O13	O	1.138167	-0.074093	-0.156484
O14	O	1.638167	0.425907	0.343516
Zn15	Zn	1.017348	-0.097595	-0.166141
Zn16	Zn	1.517348	0.402405	0.333859
Zn17	Zn	1.017370	0.097486	-0.166106
Zn18	Zn	1.517370	0.597486	0.333894
O19	O	1.037377	-0.074084	-0.342791
O20	O	1.537377	0.425916	0.157209
C21	C	0.865128	-0.000046	-0.174975
C22	C	1.365128	0.499954	0.325025
C23	C	0.771519	-0.000040	-0.172577
C24	C	1.271519	0.499960	0.327423
C25	C	0.482346	-0.000051	-0.049929
C26	C	0.982346	0.499949	0.450071
C27	C	0.541858	-0.073056	-0.109073
C28	C	1.041858	0.426944	0.390927
C29	C	0.434582	-0.000055	-0.164023
C30	C	0.934582	0.499945	0.335977
C31	C	0.541860	0.072924	-0.109077
C32	C	1.041860	0.572924	0.390923
C33	C	0.600130	-0.000046	-0.168219
C34	C	1.100130	0.499954	0.331781
C35	C	0.492862	-0.073121	-0.223137
C36	C	0.992862	0.426879	0.276863
C37	C	0.492857	0.072925	-0.223124
C38	C	0.992857	0.572925	0.276876
C39	C	0.552349	-0.000098	-0.282352
C40	C	1.052349	0.499902	0.217648
C41	C	0.339214	-0.000061	-0.161602
C42	C	0.839214	0.499939	0.338398
C43	C	0.695497	-0.000047	-0.170649
C44	C	1.195497	0.499953	0.329351
N45	N	1.017339	-0.230732	-0.166164
N46	N	1.517339	0.269268	0.333836
C47	C	0.970719	-0.470412	-0.252271
C48	C	1.470719	0.029588	0.247729
C49	C	1.050181	-0.529750	-0.275828
C50	C	1.550181	-0.029750	0.224172
C51	C	1.017356	-0.412339	-0.166134
C52	C	1.517356	0.087661	0.333866
C53	C	0.937919	-0.529743	-0.142604
C54	C	1.437919	-0.029743	0.357396
C55	C	1.017366	-0.587763	-0.166107
C56	C	1.517366	-0.087763	0.333893
C57	C	1.096865	-0.470372	-0.189745
C58	C	1.596865	0.029628	0.310255
C59	C	0.984546	-0.470359	-0.056473
C60	C	1.484546	0.029641	0.443527
C61	C	1.064056	-0.529670	-0.079983
C62	C	1.564056	-0.029670	0.420017
C63	C	1.017350	-0.311282	-0.166152
C64	C	1.517350	0.188718	0.333848
C65	C	1.017381	-0.688819	-0.166088
C66	C	1.517381	-0.188819	0.333912
C67	C	1.169590	-0.000061	-0.157271
C68	C	1.669590	0.499939	0.342729
C69	C	1.263199	-0.000061	-0.159670
C70	C	1.763199	0.499939	0.340330
C71	C	0.989944	-0.000055	0.055742
C72	C	1.489944	0.499945	0.555742
C73	C	0.967917	-0.000051	0.190457
C74	C	1.467917	0.499949	0.690457
N75	N	1.017384	0.230624	-0.166073
N76	N	1.517384	0.730624	0.333927
C77	C	1.044774	-0.000052	-0.387988
C78	C	1.544774	0.499948	0.112012
C79	C	1.066801	-0.000050	-0.522704
C80	C	1.566801	0.499950	-0.022704
C81	C	1.028737	-0.000053	0.264260
C82	C	1.528737	0.499947	0.764260
C83	C	1.005973	-0.000048	0.403495
C84	C	1.505973	0.499952	0.903495
H85	H	0.451839	-0.000123	0.048331
H86	H	0.951839	0.499877	0.548331
C87	C	1.159918	-0.000055	0.423429
C88	C	1.659918	0.499945	0.923429
H89	H	1.195122	-0.000049	0.487790
H90	H	1.695122	0.499951	0.987790
H91	H	1.171036	-0.051688	0.374629
H92	H	1.671036	0.448312	0.874629
H93	H	1.171044	0.051585	0.374649
H94	H	1.671044	0.551585	0.874649
H95	H	1.103554	-0.555526	-0.007124
H96	H	1.603554	-0.055526	0.492876
C97	C	0.571104	-0.156428	-0.043996
C98	C	1.071104	0.343572	0.456004
H99	H	0.546963	-0.156340	0.038533
H100	H	1.046963	0.343660	0.538533
H101	H	0.553549	-0.208271	-0.083719
H102	H	1.053549	0.291729	0.416281
H103	H	0.630850	-0.156093	-0.046631
H104	H	1.130850	0.343907	0.453369
C105	C	0.874807	-0.000044	0.244339
C106	C	1.374807	0.499956	0.744339
H107	H	0.871722	-0.000048	0.330853
H108	H	1.371722	0.499952	0.830853
H109	H	0.847633	0.051589	0.217712
H110	H	1.347633	0.551589	0.717712
H111	H	0.847625	-0.051684	0.217705
H112	H	1.347625	0.448316	0.717705
H113	H	0.956767	-0.444251	0.036223
H114	H	1.456767	0.055749	0.536223
H115	H	0.471324	-0.134907	-0.271297
H116	H	0.971324	0.365093	0.228703
H117	H	1.097660	-0.000062	0.224365
H118	H	1.597660	0.499938	0.724365
H119	H	1.077940	-0.555837	-0.368554
H120	H	1.577940	-0.055837	0.131446
H121	H	0.582706	-0.000140	-0.380687
H122	H	1.082706	0.499860	0.119313
C123	C	0.463585	0.156304	-0.288142
C124	C	0.963585	0.656304	0.211858
H125	H	0.480228	0.208127	-0.247462
H126	H	0.980228	0.708127	0.252538
H127	H	0.488539	0.156829	-0.370257
H128	H	0.988539	0.656829	0.129743
H129	H	0.403918	0.155407	-0.286792
H130	H	0.903918	0.655407	0.213208
H131	H	0.937045	-0.000038	0.443384
H132	H	1.437045	0.499962	0.943384
H133	H	0.870737	-0.555824	-0.122715
H134	H	1.370737	-0.055824	0.377285
H135	H	0.931339	-0.444392	-0.325174
H136	H	1.431339	0.055608	0.174826
C137	C	0.571087	0.156300	-0.043952
C138	C	1.071087	0.656300	0.456048
H139	H	0.546928	0.156204	0.038569
H140	H	1.046928	0.656204	0.538569
H141	H	0.630827	0.155993	-0.046579
H142	H	1.130827	0.655993	0.453421
H143	H	0.553517	0.208142	-0.083654
H144	H	1.053517	0.708142	0.416346
H145	H	1.164078	-0.444402	-0.209746
H146	H	1.664078	0.055598	0.290254
