data_functionalizedCrystal
_audit_creation_method	'MofGen! by Chris Wilmer'
_symmetry_space_group_name_H-M	'P1'
_symmetry_Int_Tables_number	1
_symmetry_cell_setting	triclinic
loop_
_symmetry_equiv_pos_as_xyz
  x,y,z
_cell_length_a	26.809956
_cell_length_b	17.699083
_cell_length_c	17.699105
_cell_angle_alpha	83.287442
_cell_angle_beta	89.998339
_cell_angle_gamma	89.997218
loop_
_atom_site_label
_atom_site_type_symbol
_atom_site_fract_x
_atom_site_fract_y
_atom_site_fract_z
O1	O	0.041416	-1.004089	-0.095700
O2	O	0.374750	-0.670756	0.237634
O3	O	0.708083	-0.337423	0.570967
O4	O	0.041433	-0.783712	-0.108152
O5	O	0.374767	-0.450378	0.225181
O6	O	0.708100	-0.117045	0.558515
O7	O	0.041414	-0.900118	0.008262
O8	O	0.374747	-0.566785	0.341596
O9	O	0.708080	-0.233451	0.674929
O10	O	0.041436	-0.887683	-0.212114
O11	O	0.374770	-0.554350	0.121220
O12	O	0.708103	-0.221016	0.454553
O13	O	-0.041546	-0.900096	0.008245
O14	O	0.291788	-0.566763	0.341578
O15	O	0.625121	-0.233430	0.674911
O16	O	-0.041526	-0.783690	-0.108170
O17	O	0.291808	-0.450356	0.225164
O18	O	0.625141	-0.117023	0.558497
O19	O	-0.041543	-1.004067	-0.095717
O20	O	0.291790	-0.670734	0.237616
O21	O	0.625124	-0.337401	0.570949
Zn22	Zn	-0.054706	-0.893875	-0.101946
Zn23	Zn	0.278627	-0.560542	0.231387
Zn24	Zn	0.611961	-0.227208	0.564720
Zn25	Zn	0.054596	-0.893904	-0.101923
Zn26	Zn	0.387930	-0.560571	0.231410
Zn27	Zn	0.721263	-0.227237	0.564744
O28	O	-0.041523	-0.887661	-0.212132
O29	O	0.291810	-0.554328	0.121202
O30	O	0.625144	-0.220994	0.454535
C31	C	-0.000044	-0.755504	-0.107715
C32	C	0.333289	-0.422170	0.225619
C33	C	0.666623	-0.088837	0.558952
C34	C	-0.000038	-0.671486	-0.106376
C35	C	0.333295	-0.338152	0.226957
C36	C	0.666629	-0.004819	0.560291
N37	N	-0.129302	-0.893861	-0.101962
N38	N	0.204031	-0.560527	0.231372
N39	N	0.537365	-0.227194	0.564705
C40	C	-0.000068	-0.899659	0.036450
C41	C	0.333266	-0.566325	0.369783
C42	C	0.666599	-0.232992	0.703117
C43	C	-0.000073	-0.898314	0.120467
C44	C	0.333261	-0.564980	0.453801
C45	C	0.666594	-0.231647	0.787134
C46	C	-0.473937	-0.945442	-0.050387
C47	C	-0.140603	-0.612109	0.282946
C48	C	0.192730	-0.278775	0.616279
C49	C	-0.682814	-0.945460	-0.050376
C50	C	-0.349481	-0.612127	0.282957
C51	C	-0.016148	-0.278793	0.616291
O52	O	-0.709826	-0.989286	-0.006530
O53	O	-0.376492	-0.655952	0.326803
O54	O	-0.043159	-0.322619	0.660137
N55	N	-0.708929	-0.893908	-0.101906
N56	N	-0.375596	-0.560575	0.231427
N57	N	-0.042262	-0.227241	0.564760
C58	C	-0.682821	-0.842345	-0.153440
C59	C	-0.349488	-0.509011	0.179893
C60	C	-0.016154	-0.175678	0.513227
O61	O	-0.709826	-0.798492	-0.197264
O62	O	-0.376492	-0.465158	0.136069
O63	O	-0.043159	-0.131825	0.469403
C64	C	-0.473944	-0.842324	-0.153447
C65	C	-0.140611	-0.508990	0.179886
C66	C	0.192723	-0.175657	0.513220
C67	C	-0.447832	-0.893884	-0.101919
C68	C	-0.114499	-0.560551	0.231415
C69	C	0.218834	-0.227218	0.564748
C70	C	-0.447825	-0.996998	0.001138
C71	C	-0.114492	-0.663664	0.334471
C72	C	0.218842	-0.330331	0.667804
C73	C	-0.395609	-0.996996	0.001131
C74	C	-0.062275	-0.663662	0.334465
C75	C	0.271058	-0.330329	0.667798
C76	C	-0.369504	-0.945438	-0.050400
C77	C	-0.036171	-0.612104	0.282934
C78	C	0.297162	-0.278771	0.616267
C79	C	-0.395616	-0.893882	-0.101925
C80	C	-0.062283	-0.560549	0.231409
C81	C	0.271051	-0.227215	0.564742
C82	C	-0.447837	-0.790757	-0.204977
C83	C	-0.114504	-0.457424	0.128357
C84	C	0.218830	-0.124091	0.461690
C85	C	-0.395615	-0.790755	-0.204973
C86	C	-0.062281	-0.457422	0.128361
C87	C	0.271052	-0.124089	0.461694
C88	C	-0.369503	-0.842316	-0.153444
C89	C	-0.036169	-0.508982	0.179889
C90	C	0.297164	-0.175649	0.513223
C91	C	-0.317295	-0.842322	-0.153462
C92	C	0.016038	-0.508988	0.179871
C93	C	0.349371	-0.175655	0.513205
N94	N	-0.291181	-0.893874	-0.101932
N95	N	0.042153	-0.560540	0.231402
N96	N	0.375486	-0.227207	0.564735
C97	C	-0.317285	-0.945432	-0.050401
C98	C	0.016048	-0.612098	0.282933
C99	C	0.349381	-0.278765	0.616266
C100	C	-0.792484	-0.842360	-0.153433
C101	C	-0.459151	-0.509027	0.179900
C102	C	-0.125818	-0.175694	0.513233
C103	C	-0.844703	-0.842366	-0.153433
C104	C	-0.511370	-0.509033	0.179901
C105	C	-0.178036	-0.175700	0.513234
C106	C	-0.844693	-0.945481	-0.050367
C107	C	-0.511360	-0.612148	0.282966
C108	C	-0.178026	-0.278814	0.616299
C109	C	-0.792473	-0.945478	-0.050372
C110	C	-0.459140	-0.612145	0.282961
C111	C	-0.125807	-0.278811	0.616294
C112	C	-0.766370	-0.893912	-0.101903
C113	C	-0.433036	-0.560579	0.231430
C114	C	-0.099703	-0.227246	0.564764
C115	C	-0.207627	-0.945423	-0.050418
C116	C	0.125706	-0.612090	0.282916
C117	C	0.459039	-0.278757	0.616249
C118	C	-0.155406	-0.945419	-0.050431
C119	C	0.177927	-0.612085	0.282903
C120	C	0.511260	-0.278752	0.616236
C121	C	-0.155421	-0.842302	-0.153493
C122	C	0.177912	-0.508968	0.179841
C123	C	0.511246	-0.175635	0.513174
C124	C	-0.207637	-0.842309	-0.153483
C125	C	0.125696	-0.508976	0.179850
C126	C	0.459029	-0.175642	0.513184
C127	C	-0.233739	-0.893873	-0.101939
C128	C	0.099594	-0.560539	0.231394
C129	C	0.432928	-0.227206	0.564728
O130	O	-0.290252	-0.798514	-0.197279
O131	O	0.043082	-0.465180	0.136054
O132	O	0.376415	-0.131847	0.469388
O133	O	-0.290271	-0.989267	-0.006572
O134	O	0.043062	-0.655933	0.326762
O135	O	0.376395	-0.322600	0.660095
C136	C	-0.526153	-0.945444	-0.050381
C137	C	-0.192820	-0.612111	0.282952
C138	C	0.140514	-0.278778	0.616285
C139	C	-0.552265	-0.893889	-0.101906
C140	C	-0.218932	-0.560555	0.231427
C141	C	0.114402	-0.227222	0.564760
C142	C	-0.526161	-0.842331	-0.153437
C143	C	-0.192827	-0.508997	0.179896
C144	C	0.140506	-0.175664	0.513229
C145	C	-0.604484	-0.893895	-0.101905
C146	C	-0.271151	-0.560561	0.231428
C147	C	0.062183	-0.227228	0.564761
C148	C	-0.630588	-0.945453	-0.050374
C149	C	-0.297255	-0.612119	0.282959
C150	C	0.036078	-0.278786	0.616292
C151	C	-0.604474	-0.997005	0.001156
C152	C	-0.271140	-0.663671	0.334489
C153	C	0.062193	-0.330338	0.667823
C154	C	-0.552258	-0.997002	0.001150
C155	C	-0.218924	-0.663669	0.334483
C156	C	0.114409	-0.330336	0.667817
C157	C	-0.552275	-0.790779	-0.204968
C158	C	-0.218942	-0.457445	0.128366
C159	C	0.114392	-0.124112	0.461699
C160	C	-0.604491	-0.790786	-0.204958
C161	C	-0.271158	-0.457453	0.128375
C162	C	0.062175	-0.124119	0.461709
C163	C	-0.630596	-0.842344	-0.153427
C164	C	-0.297262	-0.509010	0.179907
C165	C	0.036071	-0.175677	0.513240
N166	N	0.129192	-0.893924	-0.101901
N167	N	0.462526	-0.560591	0.231432
N168	N	0.795859	-0.227258	0.564765
C169	C	-0.000064	-1.032275	-0.096155
C170	C	0.333269	-0.698942	0.237179
C171	C	0.666602	-0.365609	0.570512
C172	C	-0.000067	-1.116293	-0.097493
C173	C	0.333266	-0.782960	0.235840
C174	C	0.666600	-0.449627	0.569173
C175	C	-0.000031	-0.622870	-0.174709
C176	C	0.333302	-0.289537	0.158625
C177	C	0.666636	0.043797	0.491958
C178	C	-0.000038	-0.543927	-0.173446
C179	C	0.333296	-0.210593	0.159887
C180	C	0.666629	0.122740	0.493220
C181	C	-0.000048	-0.513600	-0.103851
C182	C	0.333286	-0.180267	0.229483
C183	C	0.666619	0.153066	0.562816
C184	C	-0.000056	-0.562222	-0.035513
C185	C	0.333277	-0.228889	0.297821
C186	C	0.666611	0.104444	0.631154
C187	C	-0.000053	-0.641164	-0.036776
C188	C	0.333280	-0.307831	0.296558
C189	C	0.666614	0.025503	0.629891
C190	C	-0.000069	-0.243859	-0.030418
C191	C	0.333264	0.089475	0.302916
C192	C	0.666598	0.422808	0.636249
C193	C	-0.000070	-0.164911	-0.029160
C194	C	0.333263	0.168423	0.304174
C195	C	0.666596	0.501756	0.637507
C196	C	-0.000054	-0.146621	-0.167088
C197	C	0.333280	0.186712	0.166245
C198	C	0.666613	0.520045	0.499578
C199	C	-0.000051	-0.225563	-0.168351
C200	C	0.333283	0.107770	0.164982
C201	C	0.666616	0.441104	0.498315
C202	C	-0.000062	-0.274178	-0.100014
C203	C	0.333272	0.059155	0.233320
C204	C	0.666605	0.392489	0.566653
C205	C	-0.000055	-0.359777	-0.101383
C206	C	0.333278	-0.026444	0.231950
C207	C	0.666611	0.306889	0.565283
C208	C	-0.000050	-0.428003	-0.102480
C209	C	0.333283	-0.094669	0.230853
C210	C	0.666616	0.238664	0.564186
C211	C	0.045175	-0.890098	0.636188
C212	C	0.378509	-0.556764	0.969521
C213	C	0.711842	-0.223431	1.302855
C214	C	0.045172	-0.891361	0.557245
C215	C	0.378505	-0.558027	0.890578
C216	C	0.711838	-0.224694	1.223911
C217	C	-0.000052	-0.891979	0.517777
C218	C	0.333281	-0.558645	0.851110
C219	C	0.666615	-0.225312	1.184443
C220	C	-0.045275	-0.891341	0.557257
C221	C	0.288058	-0.558008	0.890590
C222	C	0.621392	-0.224675	1.223924
C223	C	-0.045271	-0.890084	0.636200
C224	C	0.288062	-0.556751	0.969533
C225	C	0.621396	-0.223417	1.302866
C226	C	-0.045292	-0.896413	0.238891
C227	C	0.288041	-0.563080	0.572224
C228	C	0.621374	-0.229747	0.905558
C229	C	-0.045293	-0.897669	0.159943
C230	C	0.288040	-0.564335	0.493276
C231	C	0.621374	-0.231002	0.826609
C232	C	0.045150	-0.897690	0.159936
C233	C	0.378484	-0.564357	0.493269
C234	C	0.711817	-0.231024	0.826603
C235	C	0.045154	-0.896433	0.238879
C236	C	0.378488	-0.563099	0.572212
C237	C	0.711821	-0.229766	0.905545
C238	C	-0.000068	-0.895800	0.278353
C239	C	0.333265	-0.562466	0.611686
C240	C	0.666598	-0.229133	0.945019
C241	C	-0.000064	-0.894432	0.363952
C242	C	0.333269	-0.561098	0.697285
C243	C	0.666603	-0.227765	1.030619
C244	C	-0.000057	-0.893341	0.432178
C245	C	0.333277	-0.560008	0.765511
C246	C	0.666610	-0.226674	1.098845
C247	C	-0.000044	-0.888118	0.759680
C248	C	0.333290	-0.554785	1.093014
C249	C	0.666623	-0.221452	1.426347
C250	C	-0.000044	-0.889458	0.675662
C251	C	0.333289	-0.556125	1.008996
C252	C	0.666622	-0.222792	1.342329
H253	H	-0.134148	-0.987408	-0.008470
H254	H	0.199186	-0.654075	0.324864
H255	H	0.532519	-0.320741	0.658197
H256	H	-0.082093	-0.889563	0.668339
H257	H	0.251240	-0.556229	1.001672
H258	H	0.584573	-0.222896	1.335005
Br259	Br	-0.880135	-0.772401	-0.223379
Br260	Br	-0.546801	-0.439068	0.109954
Br261	Br	-0.213468	-0.105735	0.443288
Br262	Br	-0.639923	-0.720809	-0.274901
Br263	Br	-0.306590	-0.387476	0.058433
Br264	Br	0.026743	-0.054142	0.391766
Br265	Br	-0.483264	-0.720779	-0.274911
Br266	Br	-0.149930	-0.387446	0.058422
Br267	Br	0.183403	-0.054112	0.391756
Br268	Br	-0.360177	-1.066969	0.071069
Br269	Br	-0.026844	-0.733636	0.404403
Br270	Br	0.306490	-0.400302	0.737736
H271	H	0.081994	-0.891883	0.525108
H272	H	0.415327	-0.558550	0.858442
H273	H	0.748661	-0.225216	1.191775
H274	H	-0.771234	-0.800368	-0.195398
H275	H	-0.437901	-0.467035	0.137936
H276	H	-0.104567	-0.133702	0.471269
Br277	Br	-0.000085	-0.309826	0.062327
Br278	Br	0.333248	0.023507	0.395660
Br279	Br	0.666582	0.356840	0.728993
H280	H	-0.531025	-0.748793	-0.246930
H281	H	-0.197691	-0.415460	0.086404
H282	H	0.135642	-0.082126	0.419737
Br283	Br	0.106525	-0.898559	0.106362
Br284	Br	0.439859	-0.565226	0.439695
Br285	Br	0.773192	-0.231893	0.773028
Br286	Br	-0.000082	-0.123754	0.065298
Br287	Br	0.333251	0.209579	0.398631
Br288	Br	0.666584	0.542912	0.731965
H289	H	-0.865956	-0.987463	-0.008410
H290	H	-0.532623	-0.654129	0.324924
H291	H	-0.199289	-0.320796	0.658257
Br292	Br	-0.106672	-0.898505	0.106378
Br293	Br	0.226661	-0.565172	0.439712
Br294	Br	0.559995	-0.231839	0.773045
Br295	Br	-0.000013	-0.664019	-0.269165
Br296	Br	0.333321	-0.330685	0.064168
Br297	Br	0.666654	0.002648	0.397501
Br298	Br	0.106554	-0.889251	0.689743
Br299	Br	0.439887	-0.555917	1.023076
Br300	Br	0.773221	-0.222584	1.356410
H301	H	0.081980	-0.895926	0.271009
H302	H	0.415313	-0.562593	0.604342
H303	H	0.748647	-0.229259	0.937676
Br304	Br	-0.106666	-0.895548	0.292452
Br305	Br	0.226667	-0.562215	0.625785
Br306	Br	0.560001	-0.228882	0.959119
Br307	Br	-0.106651	-0.892187	0.503695
Br308	Br	0.226682	-0.558854	0.837029
Br309	Br	0.560016	-0.225521	1.170362
Br310	Br	-0.000027	-0.477950	-0.266188
Br311	Br	0.333307	-0.144617	0.067145
Br312	Br	0.666640	0.188716	0.400479
Br313	Br	-0.639911	-1.066979	0.071087
Br314	Br	-0.306578	-0.733646	0.404420
Br315	Br	0.026755	-0.400313	0.737754
H316	H	-0.228874	-0.987410	-0.008445
H317	H	0.104460	-0.654077	0.324888
H318	H	0.437793	-0.320744	0.658221
H319	H	-0.469075	-1.038982	0.043104
H320	H	-0.135741	-0.705649	0.376437
H321	H	0.197592	-0.372316	0.709771
Br322	Br	-0.516827	-1.066981	0.071084
Br323	Br	-0.183494	-0.733648	0.404418
Br324	Br	0.149839	-0.400314	0.737751
Br325	Br	-0.119985	-0.772335	-0.223428
Br326	Br	0.213348	-0.439001	0.109906
Br327	Br	0.546681	-0.105668	0.443239
Br328	Br	-0.000039	-0.080640	-0.259834
Br329	Br	0.333294	0.252694	0.073499
Br330	Br	0.666627	0.586027	0.406833
Br331	Br	-0.757042	-1.015455	0.019562
Br332	Br	-0.423708	-0.682122	0.352895
Br333	Br	-0.090375	-0.348788	0.686228
Br334	Br	-0.360192	-0.720766	-0.274908
Br335	Br	-0.026859	-0.387432	0.058425
Br336	Br	0.306475	-0.054099	0.391758
H337	H	-0.228898	-0.800331	-0.195449
H338	H	0.104435	-0.466998	0.137884
H339	H	0.437769	-0.133664	0.471217
H340	H	-0.000071	-0.537524	0.021153
H341	H	0.333262	-0.204191	0.354487
H342	H	0.666595	0.129142	0.687820
H343	H	-0.000040	-0.250250	-0.225023
H344	H	0.333293	0.083083	0.108310
H345	H	0.666626	0.416417	0.441644
H346	H	-0.000058	-0.680747	0.018868
H347	H	0.333275	-0.347414	0.352201
H348	H	0.666608	-0.014080	0.685534
