data_functionalizedCrystal
_audit_creation_method	'MofGen! by Chris Wilmer'
_symmetry_space_group_name_H-M	'P1'
_symmetry_Int_Tables_number	1
_symmetry_cell_setting	triclinic
loop_
_symmetry_equiv_pos_as_xyz
  x,y,z
_cell_length_a	14.853566
_cell_length_b	14.853567
_cell_length_c	17.766277
_cell_angle_alpha	89.997439
_cell_angle_beta	89.993490
_cell_angle_gamma	83.634672
loop_
_atom_site_label
_atom_site_type_symbol
_atom_site_fract_x
_atom_site_fract_y
_atom_site_fract_z
O1	O	1.196372	0.117700	-0.062538
O2	O	0.933912	0.131723	-0.062550
O3	O	1.072153	-0.006518	-0.062546
O4	O	1.058131	0.255941	-0.062542
O5	O	1.072128	-0.006525	0.062643
O6	O	0.933888	0.131716	0.062639
O7	O	1.196347	0.117693	0.062651
Cu8	Cu	1.065115	0.124704	0.074075
Cu9	Cu	1.065144	0.124712	-0.073974
O10	O	1.058107	0.255934	0.062647
C11	C	0.900311	0.131084	0.000043
C12	C	0.800227	0.129181	0.000038
C13	C	1.071505	-0.040111	0.000046
C14	C	1.069601	-0.140194	0.000040
C15	C	0.377056	0.121134	-0.068189
C16	C	0.377051	0.121127	0.068296
C17	C	0.471085	0.122914	0.068294
C18	C	0.518108	0.123813	0.000049
C19	C	0.471098	0.122924	-0.068193
C20	C	0.518101	0.123812	0.136536
C21	C	0.612140	0.125601	0.136536
C22	C	0.659167	0.126493	0.068290
C23	C	0.612151	0.125603	0.000045
C24	C	0.659175	0.126502	-0.068200
C25	C	0.612161	0.125606	-0.136446
C26	C	0.518124	0.123816	-0.136439
C27	C	0.753204	0.128282	0.068283
C28	C	0.753217	0.128292	-0.068204
C29	C	0.979435	-0.552728	0.000050
C30	C	1.143668	-0.574009	0.000057
C31	C	1.145458	-0.479976	0.000053
C32	C	1.064236	-0.422313	0.000048
C33	C	0.981223	-0.458685	0.000048
C34	C	1.228470	-0.443597	0.000061
C35	C	1.230263	-0.349558	0.000057
C36	C	1.149040	-0.291894	0.000047
C37	C	1.066023	-0.328271	0.000046
C38	C	0.984801	-0.270608	0.000041
C39	C	0.901784	-0.306984	0.000035
C40	C	0.899999	-0.401021	0.000038
C41	C	1.150824	-0.197856	0.000044
C42	C	0.986588	-0.176566	0.000039
C43	C	1.229948	0.118332	0.000056
C44	C	1.330032	0.120235	0.000056
C45	C	1.058754	0.289526	0.000053
C46	C	1.060658	0.389610	0.000055
N47	N	1.065102	0.124697	0.178206
N48	N	1.065165	0.124711	-0.178105
C49	C	1.126334	0.063514	0.217594
C50	C	1.126340	0.063510	0.296396
C51	C	1.065121	0.124704	0.335806
C52	C	1.003876	0.185892	0.296408
C53	C	1.003867	0.185889	0.217608
C54	C	1.053411	0.206796	0.460645
C55	C	1.053427	0.206801	0.539444
C56	C	1.065145	0.124715	0.578853
C57	C	1.076866	0.042621	0.539453
C58	C	1.076856	0.042618	0.460652
C59	C	1.065124	0.124715	0.421252
C60	C	1.126387	0.063523	0.703687
C61	C	1.126385	0.063517	0.782490
C62	C	1.003926	0.185907	0.782501
C63	C	1.003923	0.185905	0.703699
C64	C	1.065158	0.124714	0.664297
H65	H	0.791498	0.129021	-0.123778
O66	O	0.657929	0.126603	-0.202689
C67	C	0.702185	0.205673	-0.206776
H68	H	0.712883	0.231950	-0.147525
H69	H	0.658866	0.259611	-0.240456
C70	C	0.781454	0.151410	-0.318559
C71	C	0.794601	0.183680	-0.245784
H72	H	0.838459	0.137846	-0.342623
H73	H	0.751636	0.098140	-0.315807
H74	H	0.745352	0.196364	-0.346616
H75	H	0.830693	0.138722	-0.217726
H76	H	0.824428	0.236941	-0.248532
H77	H	0.911845	-0.582349	0.000042
H78	H	0.954077	0.235730	0.814588
O79	O	0.657672	0.126422	0.202894
C80	C	0.595998	0.125270	0.263128
H81	H	0.532660	0.095481	0.243123
H82	H	0.576632	0.197348	0.284113
C83	C	0.718139	0.103471	0.352169
C84	C	0.640350	0.066877	0.327600
H85	H	0.745498	0.067456	0.391941
H86	H	0.759690	0.104251	0.311589
H87	H	0.701990	0.163536	0.369652
H88	H	0.656502	0.006819	0.310109
H89	H	0.598802	0.066086	0.368179
H90	H	1.218415	-0.168244	0.000055
H91	H	1.176245	0.013694	0.671605
H92	H	0.920446	-0.129622	0.000032
O93	O	1.310878	-0.314183	0.000189
C94	C	1.316809	-0.260399	0.065010
H95	H	1.269667	-0.282695	0.110331
H96	H	1.296104	-0.186272	0.050345
C97	C	1.472840	-0.244283	0.038744
C98	C	1.414945	-0.271672	0.094410
H99	H	1.533375	-0.251232	0.056879
H100	H	1.468844	-0.280515	-0.004928
H101	H	1.455575	-0.182512	0.026528
H102	H	1.432204	-0.333444	0.106619
H103	H	1.418946	-0.235450	0.138086
H104	H	1.209796	-0.620963	0.000067
O105	O	1.307337	-0.499647	-0.000064
C106	C	1.311219	-0.554693	-0.064891
H107	H	1.265176	-0.520308	-0.110213
H108	H	1.287789	-0.623099	-0.050235
C109	C	1.465856	-0.611098	-0.038614
C110	C	1.409311	-0.568861	-0.094281
H111	H	1.526364	-0.619841	-0.056742
H112	H	1.463241	-0.574015	0.005063
H113	H	1.446320	-0.668098	-0.026406
H114	H	1.428840	-0.511857	-0.106482
H115	H	1.411932	-0.605935	-0.137961
H116	H	1.176193	0.013687	0.185515
H117	H	0.835653	-0.260023	0.000036
H118	H	1.176204	0.013686	0.328472
H119	H	0.479838	0.123086	-0.192001
H120	H	1.176246	0.013690	0.814561
O121	O	0.331330	0.120425	-0.134460
C122	C	0.266803	0.197393	-0.138533
H123	H	0.288067	0.252461	-0.099807
H124	H	0.197820	0.178393	-0.120197
C125	C	0.234661	0.165110	-0.267626
C126	C	0.260782	0.232749	-0.220067
H127	H	0.230943	0.186918	-0.317921
H128	H	0.278131	0.113253	-0.264882
H129	H	0.177178	0.149283	-0.252337
H130	H	0.318269	0.248567	-0.235351
H131	H	0.217321	0.284609	-0.222816
H132	H	0.338757	0.120401	0.123858
H133	H	0.479806	0.123086	0.192097
H134	H	1.086398	-0.024226	0.428576
O135	O	0.798854	0.128991	0.134587
C136	C	0.785964	0.050549	0.176115
H137	H	0.767180	-0.004472	0.136190
H138	H	0.729091	0.067152	0.218670
C139	C	0.897153	0.084337	0.266965
C140	C	0.874090	0.016757	0.217927
H141	H	0.951511	0.063494	0.292759
H142	H	0.905835	0.137187	0.238989
H143	H	0.849752	0.098167	0.302420
H144	H	0.921485	0.002936	0.182467
H145	H	0.865417	-0.036097	0.245898
O146	O	0.819420	-0.436465	-0.000062
C147	C	0.813477	-0.490211	-0.064903
H148	H	0.884509	-0.513534	-0.086518
H149	H	0.773644	-0.448725	-0.110307
C150	C	0.677593	-0.544811	-0.018653
C151	C	0.764837	-0.573463	-0.045197
H152	H	0.647587	-0.596163	-0.006499
H153	H	0.681595	-0.508599	0.025030
H154	H	0.644411	-0.510239	-0.056494
H155	H	0.798021	-0.608025	-0.007353
H156	H	0.760840	-0.609684	-0.088874
H157	H	1.086407	-0.024221	0.571538
O158	O	0.944538	0.245473	0.665468
C159	C	0.959290	0.334745	0.684732
H160	H	1.031470	0.335316	0.706380
H161	H	0.909361	0.361134	0.730480
C162	C	0.856695	0.395141	0.588142
C163	C	0.945350	0.395843	0.614725
H164	H	0.848092	0.432831	0.544961
H165	H	0.846753	0.334997	0.575165
H166	H	0.815098	0.417130	0.626272
H167	H	0.986945	0.373844	0.576599
H168	H	0.955299	0.455985	0.627694
O169	O	1.042067	0.286623	0.422484
C170	C	1.031717	0.359079	0.474154
H171	H	1.063381	0.335925	0.530324
H172	H	0.956574	0.382017	0.482540
C173	C	1.040254	0.466954	0.374400
C174	C	1.079151	0.438518	0.443388
H175	H	1.069510	0.515958	0.355422
H176	H	1.047224	0.418140	0.339589
H177	H	0.977637	0.486062	0.381398
H178	H	1.141764	0.419399	0.436387
H179	H	1.072193	0.487330	0.478197
O180	O	0.944372	0.245213	0.334772
C181	C	0.888693	0.196829	0.380355
H182	H	0.924517	0.126349	0.392158
H183	H	0.822054	0.190578	0.350001
C184	C	0.825498	0.334192	0.440710
C185	C	0.869501	0.247630	0.455212
H186	H	0.813655	0.365529	0.486885
H187	H	0.863007	0.366790	0.409998
H188	H	0.769970	0.328971	0.415413
H189	H	0.925032	0.252852	0.480500
H190	H	0.832001	0.215033	0.485931
O191	O	0.944352	0.245416	0.179459
C192	C	0.890299	0.299411	0.231136
H193	H	0.927263	0.300499	0.287303
H194	H	0.823296	0.270014	0.239527
C195	C	0.826432	0.395298	0.131394
C196	C	0.871835	0.396640	0.200377
H197	H	0.815039	0.455272	0.112420
H198	H	0.862846	0.358918	0.096577
H199	H	0.770602	0.370796	0.138395
H200	H	0.927669	0.421131	0.193373
H201	H	0.835430	0.433026	0.235193
H202	H	1.043888	0.273647	0.571517
