data_functionalizedCrystal
_audit_creation_method	'MofGen! by Chris Wilmer'
_symmetry_space_group_name_H-M	'P1'
_symmetry_Int_Tables_number	1
_symmetry_cell_setting	triclinic
loop_
_symmetry_equiv_pos_as_xyz
  x,y,z
_cell_length_a	34.408637
_cell_length_b	34.407814
_cell_length_c	34.404193
_cell_angle_alpha	60.004510
_cell_angle_beta	60.009006
_cell_angle_gamma	59.994604
loop_
_atom_site_label
_atom_site_type_symbol
_atom_site_fract_x
_atom_site_fract_y
_atom_site_fract_z
O1	O	0.053973	-0.567860	0.474801
O2	O	0.020377	-0.442124	0.382567
O3	O	0.100004	-0.521670	0.382483
O4	O	-0.025653	-0.488314	0.474886
O5	O	0.126426	-0.495253	0.408816
O6	O	0.046800	-0.415707	0.408900
O7	O	0.080396	-0.541443	0.501134
Zn8	Zn	0.067793	-0.474381	0.459198
Zn9	Zn	0.032980	-0.509186	0.424503
O10	O	0.000769	-0.461897	0.501219
N11	N	0.091552	-0.450631	0.482879
N12	N	0.009225	-0.532940	0.400823
C13	C	0.142848	-0.268847	0.534081
C14	C	0.142979	-0.399386	0.664559
C15	C	0.142862	-0.399365	0.534081
C16	C	0.273409	-0.399338	0.533986
C17	C	0.157225	-0.311914	0.548422
C18	C	0.157300	-0.385019	0.621491
C19	C	0.230339	-0.384991	0.548370
C20	C	0.157235	-0.385007	0.548422
C21	C	0.124548	-0.214028	0.515827
C22	C	0.124571	-0.417639	0.515827
C23	C	0.175526	-0.366733	0.566676
C24	C	0.353121	-0.385580	0.491988
C25	C	0.402952	-0.402180	0.475348
C26	C	0.402981	-0.482812	0.506096
C27	C	0.353151	-0.466211	0.522737
C28	C	0.136544	-0.189099	0.466839
C29	C	0.119905	-0.139265	0.450247
C30	C	0.079280	-0.139291	0.531632
C31	C	0.095918	-0.189125	0.548224
C32	C	0.075577	-0.405615	0.527900
C33	C	0.058953	-0.422228	0.511301
C34	C	0.140315	-0.462889	0.470566
C35	C	0.156941	-0.446276	0.487159
C36	C	0.075772	-0.405653	0.744326
C37	C	0.059206	-0.422280	0.794159
C38	C	0.140607	-0.462951	0.794094
C39	C	0.157172	-0.446325	0.744260
C40	C	0.124753	-0.417674	0.719377
C41	C	0.328223	-0.417595	0.515681
C42	C	-0.172390	-0.583988	0.349141
C43	C	-0.041751	-0.584138	0.218783
C44	C	-0.041941	-0.584130	0.349402
C45	C	-0.041957	-0.714607	0.349338
C46	C	-0.129326	-0.598388	0.334853
C47	C	-0.056165	-0.598473	0.261852
C48	C	-0.056282	-0.671535	0.334962
C49	C	-0.056272	-0.598469	0.334999
C50	C	-0.227205	-0.565659	0.367327
C51	C	-0.023703	-0.565882	0.367734
C52	C	-0.074511	-0.616717	0.316667
C53	C	-0.055754	-0.794298	0.391257
C54	C	-0.039181	-0.844132	0.407888
C55	C	0.041447	-0.844215	0.377269
C56	C	0.024873	-0.794381	0.360637
C57	C	-0.252183	-0.577666	0.416302
C58	C	-0.302014	-0.561001	0.432833
C59	C	-0.301886	-0.520329	0.351410
C60	C	-0.252055	-0.536994	0.334880
C61	C	-0.035709	-0.516892	0.355682
C62	C	-0.019129	-0.500308	0.372353
C63	C	0.021465	-0.581700	0.413115
C64	C	0.004884	-0.598286	0.396450
C65	C	-0.035389	-0.516907	0.139026
C66	C	-0.018707	-0.500324	0.089193
C67	C	0.021949	-0.581721	0.089240
C68	C	0.005268	-0.598303	0.139074
C69	C	-0.023402	-0.565894	0.163965
C70	C	-0.023728	-0.769425	0.367633
N71	N	0.427173	-0.450553	0.482630
O72	O	0.589997	-0.458460	0.365361
O73	O	0.590185	-0.550997	0.490963
O74	O	0.590104	-0.550786	0.411309
O75	O	0.590077	-0.458671	0.445016
O76	O	0.510940	-0.524462	0.437777
O77	O	0.511020	-0.524674	0.517432
O78	O	0.510832	-0.432136	0.391830
Zn79	Zn	0.498357	-0.474225	0.458833
Zn80	Zn	0.602660	-0.508908	0.423960
O81	O	0.510913	-0.432348	0.471484
N82	N	0.673844	-0.532580	0.400158
N83	N	0.091520	-0.115070	0.482873
O84	O	-0.025663	0.047841	0.474857
O85	O	0.099940	0.047877	0.382299
O86	O	0.020247	0.047844	0.382560
O87	O	0.054030	0.047874	0.474596
O88	O	0.046674	-0.031326	0.408942
O89	O	0.126367	-0.031293	0.408680
O90	O	0.000764	-0.031329	0.501238
Zn91	Zn	0.067761	-0.043881	0.459148
Zn92	Zn	0.032943	0.060429	0.424389
O93	O	0.080457	-0.031296	0.500977
N94	N	0.009178	0.131618	0.400665
N95	N	0.091852	-0.450680	0.818332
O96	O	0.083862	-0.567845	0.981235
O97	O	-0.008657	-0.442198	0.981276
O98	O	-0.008441	-0.521875	0.981252
O99	O	0.083646	-0.488168	0.981258
O100	O	0.017919	-0.495468	0.902085
O101	O	0.017703	-0.415791	0.902109
O102	O	0.110222	-0.541438	0.902067
Zn103	Zn	0.068148	-0.474422	0.889518
Zn104	Zn	0.033417	-0.509214	0.993825
O105	O	0.110006	-0.461761	0.902091
N106	N	0.009712	-0.532961	1.065011
C107	C	0.030439	-0.413071	0.383027
C108	C	0.129046	-0.511580	0.382922
C109	C	0.070334	-0.570496	0.500675
C110	C	-0.028274	-0.471987	0.500780
C111	C	0.550625	-0.550579	0.520021
C112	C	0.550527	-0.550317	0.421379
C113	C	0.550389	-0.432554	0.362773
C114	C	0.550491	-0.432816	0.461414
C115	C	0.128944	0.008394	0.382712
C116	C	0.030287	0.008256	0.383068
C117	C	-0.028273	0.008252	0.500793
C118	C	0.070417	0.008292	0.500470
C119	C	-0.008218	-0.413165	0.941698
C120	C	-0.007945	-0.511830	0.941653
C121	C	0.109783	-0.570471	0.941646
C122	C	0.109516	-0.471800	0.941673
H123	H	0.019320	-0.412483	0.814467
H124	H	0.138447	-0.464586	0.941669
O125	O	0.078899	-0.613550	0.535279
C126	C	0.073597	-0.607340	0.575395
H127	H	0.078788	-0.572453	0.563957
H128	H	0.036416	-0.606348	0.602345
C129	C	0.104644	-0.691872	0.612309
C130	C	0.111024	-0.649025	0.598260
H131	H	0.127729	-0.717586	0.626415
H132	H	0.108215	-0.696056	0.585283
H133	H	0.073659	-0.691039	0.634765
H134	H	0.142007	-0.649856	0.575800
H135	H	0.107460	-0.644842	0.625283
H136	H	0.044746	-0.608091	0.436494
H137	H	0.550329	-0.403500	0.326702
H138	H	0.023260	-0.376951	0.354059
H139	H	0.550485	-0.403881	0.468626
H140	H	-0.036863	-0.519031	0.941619
O141	O	-0.071288	-0.463548	0.535456
C142	C	-0.065021	-0.468868	0.575548
H143	H	-0.027049	-0.492676	0.575048
H144	H	-0.071819	-0.432470	0.574650
C145	C	-0.146922	-0.462446	0.621844
C146	C	-0.100286	-0.491691	0.621232
H147	H	-0.168676	-0.476523	0.650025
H148	H	-0.151145	-0.458860	0.594833
H149	H	-0.152580	-0.432116	0.621094
H150	H	-0.094626	-0.522019	0.621976
H151	H	-0.096062	-0.495283	0.648244
O152	O	0.044214	-0.377842	0.720231
C153	C	-0.002570	-0.370786	0.752939
H154	H	-0.002445	-0.400839	0.788451
H155	H	-0.016847	-0.335290	0.758250
C156	C	-0.034712	-0.333523	0.689906
C157	C	-0.034559	-0.370436	0.733521
H158	H	-0.054445	-0.333305	0.677928
H159	H	-0.003192	-0.338275	0.667870
H160	H	-0.046608	-0.303947	0.694338
H161	H	-0.022657	-0.400012	0.729088
H162	H	-0.066077	-0.365689	0.755557
O163	O	0.171905	0.008692	0.348003
C164	C	0.201521	0.008785	0.365087
H165	H	0.178632	0.023614	0.395756
H166	H	0.225747	-0.029143	0.378129
C167	C	0.260181	0.021877	0.287035
C168	C	0.232068	0.040094	0.324701
H169	H	0.279026	0.041188	0.262122
H170	H	0.240230	0.021812	0.275525
H171	H	0.280365	-0.009730	0.297909
H172	H	0.211881	0.071698	0.313827
H173	H	0.252017	0.040165	0.336208
O174	O	-0.071306	0.008307	0.535477
C175	C	-0.092372	0.049320	0.548241
H176	H	-0.063504	0.063001	0.538569
H177	H	-0.118368	0.078023	0.528276
C178	C	-0.154717	0.020061	0.614097
C179	C	-0.119261	0.036862	0.602221
H180	H	-0.171306	0.012378	0.647394
H181	H	-0.140526	-0.007569	0.605497
H182	H	-0.176376	0.043983	0.597456
H183	H	-0.097600	0.012938	0.618857
H184	H	-0.133449	0.064488	0.610825
O185	O	0.550708	-0.585193	0.563075
C186	C	0.550712	-0.568048	0.592697
H187	H	0.565660	-0.537470	0.569805
H188	H	0.512742	-0.554859	0.616765
C189	C	0.563455	-0.646001	0.651580
C190	C	0.581818	-0.608447	0.623464
H191	H	0.582640	-0.670920	0.670560
H192	H	0.563450	-0.657552	0.631624
H193	H	0.531814	-0.635003	0.671632
H194	H	0.613456	-0.619443	0.603408
H195	H	0.581828	-0.596899	0.643417
O196	O	0.550518	-0.584781	0.412706
C197	C	0.550472	-0.567443	0.365924
H198	H	0.535445	-0.526896	0.353419
H199	H	0.588439	-0.579453	0.341267
C200	C	0.537890	-0.636850	0.380383
C201	C	0.519429	-0.587051	0.365025
H202	H	0.518743	-0.648947	0.379827
H203	H	0.537923	-0.648533	0.411900
H204	H	0.569528	-0.646852	0.359833
H205	H	0.487794	-0.577049	0.385578
H206	H	0.519390	-0.575367	0.333511
O207	O	0.078998	0.008381	0.534954
C208	C	0.046363	0.049372	0.547782
H209	H	0.032379	0.078029	0.517301
H210	H	0.015395	0.040091	0.580944
C211	C	0.088610	0.032779	0.595614
C212	C	0.071438	0.067977	0.558174
H213	H	0.104076	0.044254	0.602027
H214	H	0.110596	0.005161	0.586973
H215	H	0.062800	0.025048	0.623244
H216	H	0.097248	0.075703	0.530544
H217	H	0.049456	0.095596	0.566811
H218	H	-0.037264	-0.377079	0.941710
H219	H	0.138832	-0.606554	0.941627
H220	H	0.167007	-0.486271	0.814352
O221	O	0.021649	0.008327	0.348532
C222	C	0.026915	0.049325	0.308382
H223	H	0.021767	0.077993	0.319761
H224	H	0.064071	0.040062	0.281398
C225	C	-0.004247	0.032687	0.271631
C226	C	-0.010574	0.067899	0.285607
H227	H	-0.027370	0.044143	0.257580
H228	H	-0.007793	0.005065	0.298680
H229	H	0.026718	0.024971	0.249146
H230	H	-0.041536	0.075610	0.308095
H231	H	-0.007034	0.095523	0.258561
H232	H	0.197059	-0.456117	0.723950
H233	H	-0.065262	-0.864385	0.427124
O234	O	0.044068	-0.377782	0.555722
C235	C	-0.002740	-0.370739	0.562822
H236	H	-0.002676	-0.376302	0.532786
H237	H	-0.016989	-0.397271	0.598323
C238	C	-0.034788	-0.312858	0.600088
C239	C	-0.034710	-0.319687	0.563195
H240	H	-0.054510	-0.281368	0.600320
H241	H	-0.003253	-0.317604	0.595306
H242	H	-0.046661	-0.334972	0.629668
H243	H	-0.022832	-0.297578	0.533615
H244	H	-0.066244	-0.314935	0.567972
H245	H	0.166679	-0.486211	0.447227
O246	O	0.011364	-0.410493	0.522946
C247	C	-0.000722	-0.385406	0.481097
H248	H	0.027348	-0.368529	0.451148
H249	H	-0.002385	-0.411027	0.470610
C250	C	-0.084074	-0.366920	0.526791
C251	C	-0.049599	-0.346188	0.490008
H252	H	-0.114224	-0.342730	0.532287
H253	H	-0.075931	-0.383823	0.554985
H254	H	-0.085453	-0.388270	0.518047
H255	H	-0.048216	-0.324843	0.498754
H256	H	-0.057742	-0.329280	0.461815
H257	H	0.129672	-0.118967	0.410356
O258	O	0.204550	-0.458010	0.475399
C259	C	0.229555	-0.486833	0.446524
H260	H	0.205794	-0.504964	0.452904
H261	H	0.240253	-0.463827	0.407494
C262	C	0.303696	-0.502636	0.451251
C263	C	0.274514	-0.524908	0.459090
H264	H	0.331430	-0.526121	0.459000
H265	H	0.286850	-0.483216	0.470703
H266	H	0.312606	-0.483465	0.418726
H267	H	0.265599	-0.544074	0.491616
H268	H	0.291359	-0.544333	0.439643
H269	H	0.423275	-0.522397	0.511838
O270	O	0.328992	-0.497323	0.545674
C271	C	0.341162	-0.520662	0.515177
H272	H	0.354826	-0.497961	0.476600
H273	H	0.370108	-0.556619	0.523189
C274	C	0.280116	-0.556129	0.570534
C275	C	0.296894	-0.528246	0.523152
H276	H	0.252810	-0.560810	0.575454
H277	H	0.271917	-0.540407	0.591081
H278	H	0.304242	-0.586090	0.577204
H279	H	0.272770	-0.498284	0.516484
H280	H	0.305087	-0.543963	0.502604
O281	O	0.427068	-0.371013	0.452321
C282	C	0.394381	-0.324544	0.449671
H283	H	0.358851	-0.322609	0.452963
H284	H	0.389109	-0.315243	0.479856
C285	C	0.457431	-0.291340	0.397512
C286	C	0.413794	-0.288962	0.401551
H287	H	0.469406	-0.269390	0.367830
H288	H	0.479453	-0.322647	0.399298
H289	H	0.453032	-0.283589	0.422668
H290	H	0.418195	-0.296718	0.376398
H291	H	0.391773	-0.257655	0.399759
H292	H	0.159856	-0.209371	0.440456
O293	O	0.328830	-0.338366	0.485158
C294	C	0.279509	-0.330578	0.504934
H295	H	0.272703	-0.361038	0.507338
H296	H	0.265395	-0.328818	0.542072
C297	C	0.262250	-0.245887	0.470165
C298	C	0.253891	-0.283297	0.473115
H299	H	0.246447	-0.216721	0.450540
H300	H	0.295479	-0.251134	0.456843
H301	H	0.250488	-0.244427	0.501116
H302	H	0.265658	-0.284761	0.442165
H303	H	0.220664	-0.278049	0.486431
O304	O	0.051529	-0.115153	0.563149
C305	C	0.076733	-0.127319	0.591920
H306	H	0.105753	-0.163494	0.592384
H307	H	0.093632	-0.099262	0.576920
C308	C	0.006595	-0.085214	0.642414
C309	C	0.042235	-0.129647	0.642987
H310	H	-0.014685	-0.086648	0.673914
H311	H	-0.010386	-0.077016	0.623029
H312	H	0.020683	-0.061838	0.629911
H313	H	0.028147	-0.153021	0.655484
H314	H	0.059212	-0.137850	0.662375
O315	O	0.084322	-0.213413	0.595795
C316	C	0.105169	-0.262738	0.603496
H317	H	0.112630	-0.269546	0.570816
H318	H	0.139963	-0.276850	0.610071
C319	C	0.061702	-0.279997	0.687311
C320	C	0.070861	-0.288359	0.647174
H321	H	0.040541	-0.295802	0.714255
H322	H	0.047658	-0.246766	0.682123
H323	H	0.090699	-0.291757	0.692784
H324	H	0.041865	-0.276593	0.641698
H325	H	0.084900	-0.321589	0.652362
O326	O	-0.030422	-0.452720	0.065044
C327	C	-0.059296	-0.427676	0.097703
H328	H	-0.077456	-0.451418	0.133206
H329	H	-0.036329	-0.416955	0.103059
C330	C	-0.075029	-0.353570	0.034578
C331	C	-0.097336	-0.382729	0.078183
H332	H	-0.098492	-0.325843	0.022537
H333	H	-0.055574	-0.370442	0.012574
H334	H	-0.055890	-0.344641	0.039047
H335	H	-0.116469	-0.391662	0.073712
H336	H	-0.116794	-0.365858	0.100185
H337	H	-0.058738	-0.490513	0.159288
H338	H	0.045284	-0.608113	0.068976
H339	H	-0.058984	-0.490504	0.332300
O340	O	0.016939	-0.645908	0.163226
C341	C	0.045826	-0.670954	0.130569
H342	H	0.039526	-0.647187	0.095015
H343	H	0.084846	-0.681741	0.125339
C344	C	0.040916	-0.745036	0.193654
C345	C	0.033176	-0.715847	0.149987
H346	H	0.033115	-0.772730	0.205633
H347	H	0.021456	-0.728163	0.215656
H348	H	0.073434	-0.754021	0.189290
H349	H	0.000658	-0.706858	0.154352
H350	H	0.052630	-0.732719	0.127986
O351	O	-0.030721	-0.452715	0.360562
C352	C	-0.013605	-0.432057	0.310652
H353	H	0.017127	-0.460465	0.294633
H354	H	-0.043459	-0.416287	0.295820
C355	C	-0.033841	-0.357527	0.317481
C356	C	0.003907	-0.392418	0.297807
H357	H	-0.023041	-0.333075	0.309557
H358	H	-0.045375	-0.371444	0.351106
H359	H	-0.058716	-0.344391	0.305119
H360	H	0.028778	-0.405557	0.310174
H361	H	0.015444	-0.378502	0.264183
H362	H	0.014660	-0.638178	0.406265
H363	H	0.081021	-0.864532	0.371574
O364	O	0.056047	-0.770295	0.337717
C365	C	0.102497	-0.803013	0.335103
H366	H	0.100556	-0.838521	0.364536
H367	H	0.121560	-0.808332	0.298994
C368	C	0.132495	-0.739990	0.305115
C369	C	0.130110	-0.783601	0.341268
H370	H	0.149528	-0.728015	0.308916
H371	H	0.101200	-0.717946	0.306874
H372	H	0.148379	-0.744428	0.275027
H373	H	0.114221	-0.779160	0.371354
H374	H	0.161402	-0.805643	0.339514
O375	O	-0.102978	-0.770127	0.398059
C376	C	-0.127689	-0.802771	0.422478
H377	H	-0.102114	-0.838312	0.416765
H378	H	-0.143243	-0.808045	0.462125
C379	C	-0.199631	-0.739645	0.410332
C380	C	-0.168220	-0.783295	0.403312
H381	H	-0.224634	-0.727631	0.398511
H382	H	-0.182983	-0.717652	0.393881
H383	H	-0.212588	-0.744045	0.443371
H384	H	-0.155259	-0.778893	0.370273
H385	H	-0.184866	-0.805288	0.419756
O386	O	-0.228120	-0.605488	0.447887
C387	C	-0.260853	-0.612516	0.494660
H388	H	-0.296352	-0.582443	0.494514
H389	H	-0.266179	-0.647998	0.508924
C390	C	-0.197858	-0.649825	0.526860
C391	C	-0.241458	-0.612886	0.526681
H392	H	-0.185895	-0.650055	0.546614
H393	H	-0.175805	-0.645091	0.495348
H394	H	-0.202303	-0.679389	0.538746
H395	H	-0.237012	-0.583322	0.514790
H396	H	-0.263511	-0.617614	0.558192
O397	O	-0.326300	-0.572583	0.480405
C398	C	-0.355129	-0.530697	0.492422
H399	H	-0.340074	-0.500786	0.464350
H400	H	-0.392880	-0.520172	0.494013
C401	C	-0.374457	-0.576303	0.575801
C402	C	-0.355962	-0.539567	0.541324
H403	H	-0.374973	-0.581774	0.605967
H404	H	-0.355035	-0.604523	0.567705
H405	H	-0.405914	-0.567527	0.577120
H406	H	-0.324504	-0.548345	0.540001
H407	H	-0.375379	-0.511349	0.549421
H408	H	-0.231721	-0.527215	0.295000
O409	O	-0.325973	-0.492543	0.319845
C410	C	-0.313774	-0.517721	0.291037
H411	H	-0.277615	-0.546760	0.290608
H412	H	-0.341834	-0.534596	0.305977
C413	C	-0.355798	-0.447536	0.240492
C414	C	-0.311386	-0.483200	0.239962
H415	H	-0.354327	-0.426242	0.208987
H416	H	-0.364019	-0.430574	0.259901
H417	H	-0.379177	-0.461605	0.252944
H418	H	-0.288009	-0.469132	0.227515
H419	H	-0.303161	-0.500160	0.220549
O420	O	0.172133	-0.520128	0.348362
C421	C	0.201716	-0.566904	0.365557
H422	H	0.188808	-0.579512	0.406103
H423	H	0.200405	-0.591521	0.353502
C424	C	0.269095	-0.552227	0.296055
C425	C	0.253243	-0.567711	0.345853
H426	H	0.300880	-0.552726	0.283899
H427	H	0.249164	-0.520713	0.284469
H428	H	0.267999	-0.572744	0.286015
H429	H	0.254334	-0.547191	0.355892
H430	H	0.273175	-0.599221	0.357440
