data_functionalizedCrystal
_audit_creation_method	'MofGen! by Chris Wilmer'
_symmetry_space_group_name_H-M	'P1'
_symmetry_Int_Tables_number	1
_symmetry_cell_setting	triclinic
loop_
_symmetry_equiv_pos_as_xyz
  x,y,z
_cell_length_a	16.974800
_cell_length_b	16.992695
_cell_length_c	9.130313
_cell_angle_alpha	89.998255
_cell_angle_beta	93.656583
_cell_angle_gamma	87.021674
loop_
_atom_site_label
_atom_site_type_symbol
_atom_site_fract_x
_atom_site_fract_y
_atom_site_fract_z
O1	O	1.055459	0.099873	0.003354
O2	O	0.826057	0.112613	-0.023852
O3	O	0.939838	-0.007898	-0.010346
O4	O	0.941678	0.220385	-0.010151
O5	O	0.939837	-0.007895	0.233252
O6	O	0.826055	0.112616	0.219747
O7	O	1.055458	0.099877	0.246952
Cu8	Cu	0.940757	0.106247	0.255592
Cu9	Cu	0.940758	0.106243	-0.032491
O10	O	0.941676	0.220388	0.233447
C11	C	0.796567	0.112132	0.094451
C12	C	0.708698	0.110684	0.084030
C13	C	0.667421	0.110004	0.211924
C14	C	0.584860	0.108631	0.202137
C15	C	0.543577	0.107945	0.064456
C16	C	0.584860	0.108623	-0.063448
C17	C	0.667420	0.109990	-0.053659
C18	C	0.296659	0.103850	0.020943
C19	C	0.214093	0.102486	0.011164
C20	C	0.214099	0.102493	0.276750
C21	C	0.296661	0.103865	0.286526
C22	C	0.337937	0.104539	0.158623
N23	N	0.459186	0.106544	0.054449
N24	N	0.422326	0.105934	0.168631
C25	C	0.937472	-0.037107	0.111172
C26	C	0.930412	-0.124143	0.110335
C27	C	0.998528	-0.174460	0.118414
C28	C	0.991890	-0.256239	0.117613
C29	C	0.917135	-0.287699	0.108743
C30	C	0.849015	-0.237376	0.100658
C31	C	0.855653	-0.155598	0.101449
C32	C	0.889621	-0.531266	0.105460
C33	C	0.882987	-0.613050	0.104674
C34	C	1.025863	-0.631908	0.121626
C35	C	1.032495	-0.550128	0.122425
C36	C	0.964374	-0.499812	0.114332
N37	N	0.910349	-0.371291	0.107928
N38	N	0.971162	-0.416222	0.115136
C39	C	1.084948	0.100358	0.128647
C40	C	1.172817	0.101805	0.139058
C41	C	0.944043	0.249596	0.111925
C42	C	0.951103	0.336633	0.112753
N43	N	0.940761	0.106249	0.458215
N44	N	0.940759	0.106235	-0.235114
C45	C	0.991159	0.052904	0.540849
C46	C	0.991156	0.052895	0.694186
C47	C	0.890356	0.159582	0.682241
C48	C	0.890356	0.159587	0.528907
C49	C	1.049357	-0.008688	0.547747
C50	C	1.049354	-0.008697	0.701084
H51	H	0.701028	0.110570	0.324039
H52	H	0.788148	-0.262997	0.093427
H53	H	0.822110	-0.638661	0.097474
F54	F	1.064389	-0.309788	0.126215
F55	F	0.340578	0.104568	-0.115185
H56	H	0.180483	0.101929	-0.100959
H57	H	0.180484	0.101943	0.380881
H58	H	0.551241	0.108058	-0.175551
F59	F	0.783155	-0.102046	0.092845
H60	H	1.081323	-0.672884	0.128211
F61	F	0.836707	0.216353	0.440961
H62	H	0.701027	0.110545	-0.157804
H63	H	1.110814	0.004144	0.749987
F64	F	0.817119	-0.477726	0.096843
H65	H	1.027056	-0.065463	0.745992
H66	H	0.849317	0.203007	0.739814
H67	H	1.032585	-0.068825	0.504144
F68	F	1.112059	-0.516653	0.131828
F69	F	0.540933	0.107918	0.338260
H70	H	1.107772	0.009849	0.507114
H71	H	0.330268	0.104420	0.398641
H72	H	1.059401	-0.148852	0.125646
