data_functionalizedCrystal
_audit_creation_method	'MofGen! by Chris Wilmer'
_symmetry_space_group_name_H-M	'P1'
_symmetry_Int_Tables_number	1
_symmetry_cell_setting	triclinic
loop_
_symmetry_equiv_pos_as_xyz
  x,y,z
_cell_length_a	15.944493
_cell_length_b	15.944551
_cell_length_c	7.540329
_cell_angle_alpha	89.995457
_cell_angle_beta	89.997607
_cell_angle_gamma	83.486891
loop_
_atom_site_label
_atom_site_type_symbol
_atom_site_fract_x
_atom_site_fract_y
_atom_site_fract_z
O1	O	1.114553	0.108099	-0.147463
O2	O	0.869996	0.121506	-0.147472
O3	O	0.998953	-0.007474	-0.147451
O4	O	0.985596	0.237079	-0.147484
O5	O	0.998945	-0.007475	0.147514
O6	O	0.869989	0.121504	0.147493
O7	O	1.114545	0.108097	0.147502
Cu8	Cu	0.992266	0.114801	0.174430
Cu9	Cu	0.992275	0.114803	-0.174400
O10	O	0.985589	0.237077	0.147482
C11	C	0.838698	0.120957	0.000010
C12	C	0.745449	0.119314	0.000007
C13	C	0.509689	0.195235	-0.000005
C14	C	0.459127	0.154293	0.145442
C15	C	0.574728	0.116270	0.000010
C16	C	0.459139	0.154276	-0.145371
C17	C	0.409819	0.113336	0.000006
C18	C	0.525394	0.075350	0.145577
C19	C	0.525410	0.075344	-0.145366
C20	C	0.474880	0.034345	0.000115
C21	C	0.669728	0.117963	0.000014
C22	C	0.314821	0.111637	0.000015
C23	C	0.998395	-0.038768	0.000032
C24	C	0.996732	-0.132014	0.000033
C25	C	0.912826	-0.346853	0.000005
C26	C	0.951785	-0.407879	0.145442
C27	C	0.993725	-0.302739	0.000019
C28	C	0.951812	-0.407861	-0.145370
C29	C	0.990814	-0.467651	-0.000002
C30	C	1.032707	-0.362537	0.145576
C31	C	1.032722	-0.362513	-0.145367
C32	C	1.071741	-0.423521	0.000106
C33	C	0.995399	-0.207737	0.000033
C34	C	0.989146	-0.562652	-0.000003
C35	C	1.145844	0.108646	0.000017
C36	C	1.239092	0.110289	0.000008
C37	C	0.986147	0.268372	-0.000005
C38	C	0.987809	0.361617	-0.000018
N39	N	0.992266	0.114799	0.419779
N40	N	0.992282	0.114798	-0.419748
H41	H	0.845675	-0.313532	0.000148
H42	H	0.917587	-0.427930	-0.268334
H43	H	1.066913	-0.342389	-0.268326
H44	H	0.430204	0.187641	-0.268317
H45	H	0.430187	0.187640	0.268394
H46	H	1.066892	-0.342555	0.268667
C47	C	0.530812	0.287118	0.000165
C48	C	0.500933	0.346519	0.154235
C49	C	0.522058	0.438400	0.154415
C50	C	0.573061	0.470879	0.000524
C51	C	0.602943	0.411478	-0.153557
C52	C	0.581818	0.319597	-0.153737
H53	H	0.463175	0.322476	0.268165
H54	H	0.499937	0.482372	0.268477
H55	H	0.588699	0.538895	0.000657
H56	H	0.640701	0.435521	-0.267487
H57	H	0.603939	0.275625	-0.267799
H58	H	0.917565	-0.427981	0.268395
H59	H	0.554219	0.042021	0.268662
C60	C	0.454056	-0.057637	0.000136
C61	C	0.484174	-0.117052	0.154035
C62	C	0.463385	-0.209044	0.154019
C63	C	0.412478	-0.241621	0.000104
C64	C	0.382356	-0.182205	-0.153806
C65	C	0.403145	-0.090213	-0.153790
H66	H	0.521862	-0.092938	0.267982
H67	H	0.485683	-0.253028	0.267954
H68	H	0.397088	-0.309719	0.000092
H69	H	0.344669	-0.206319	-0.267753
H70	H	0.380847	-0.046229	-0.267725
C71	C	1.162533	-0.468341	0.000206
C72	C	1.222713	-0.453936	0.154169
C73	C	1.313505	-0.498755	0.154277
C74	C	1.344115	-0.557980	0.000421
C75	C	1.283933	-0.572388	-0.153553
C76	C	1.193142	-0.527568	-0.153661
H77	H	1.200055	-0.410092	0.268073
H78	H	1.358055	-0.488089	0.268260
H79	H	1.411324	-0.591158	0.000501
H80	H	1.306592	-0.616232	-0.267457
H81	H	1.148592	-0.538235	-0.267644
H82	H	0.554359	0.042022	-0.268326
