data_functionalizedCrystal
_audit_creation_method	'MofGen! by Chris Wilmer'
_symmetry_space_group_name_H-M	'P1'
_symmetry_Int_Tables_number	1
_symmetry_cell_setting	triclinic
loop_
_symmetry_equiv_pos_as_xyz
  x,y,z
_cell_length_a	19.077236
_cell_length_b	12.759394
_cell_length_c	19.076929
_cell_angle_alpha	92.271260
_cell_angle_beta	89.889628
_cell_angle_gamma	92.307717
loop_
_atom_site_label
_atom_site_type_symbol
_atom_site_fract_x
_atom_site_fract_y
_atom_site_fract_z
Zn1	Zn	1.058317	-0.381344	-0.440552
Zn2	Zn	1.062980	-0.549721	-0.323051
Zn3	Zn	0.945537	-0.380802	-0.318332
Zn4	Zn	0.940797	-0.563729	-0.435789
O5	O	1.001908	-0.468899	-0.379431
O6	O	1.157268	-0.398044	-0.428933
O7	O	1.051337	-0.521224	-0.224094
O8	O	0.960530	-0.233852	-0.334564
O9	O	1.160695	-0.521750	-0.342605
O10	O	1.043389	-0.234250	-0.424358
O11	O	0.965052	-0.397120	-0.220628
O12	O	0.846575	-0.410703	-0.329945
O13	O	0.952451	-0.545625	-0.534752
O14	O	0.843093	-0.545099	-0.416240
O15	O	1.038792	-0.411627	-0.538251
O16	O	1.046740	-0.698601	-0.337987
O17	O	0.956972	-0.708893	-0.420815
C18	C	0.819337	-0.479363	-0.372064
C19	C	0.741232	-0.483866	-0.368929
C20	C	0.702752	-0.421686	-0.412471
C21	C	0.629365	-0.425911	-0.409520
C22	C	0.594458	-0.492324	-0.363029
C23	C	0.632943	-0.554506	-0.319482
C24	C	0.706330	-0.550275	-0.322431
C25	C	0.375167	-0.511869	-0.349380
C26	C	0.301775	-0.516099	-0.346437
C27	C	0.298202	-0.387502	-0.436473
C28	C	0.371590	-0.383280	-0.439421
C29	C	0.410069	-0.445459	-0.395872
N30	N	0.519444	-0.496647	-0.360013
N31	N	0.485082	-0.441130	-0.398885
C32	C	1.001866	-0.741868	-0.379412
C33	C	1.001912	-0.858643	-0.379430
C34	C	1.095452	-0.847873	-0.293251
C35	C	1.142239	-0.897348	-0.250171
C36	C	1.142280	-1.007069	-0.250191
C37	C	1.095529	-1.067317	-0.293299
C38	C	1.048741	-1.017842	-0.336380
C39	C	1.048704	-0.908118	-0.336353
C40	C	0.955206	-1.028611	-0.422561
C41	C	0.955161	-0.918891	-0.422538
C42	C	0.908455	-1.088859	-0.465669
C43	C	0.861662	-1.039384	-0.508747
C44	C	0.861623	-0.929657	-0.508724
C45	C	0.908373	-0.869416	-0.465618
C46	C	1.185191	-0.458395	-0.386827
C47	C	1.263295	-0.453918	-0.389979
C48	C	1.001968	-0.194864	-0.379466
C49	C	1.001994	-0.078087	-0.379481
C50	C	0.994572	-0.480249	-0.562710
C51	C	0.991447	-0.485085	-0.640813
C52	C	0.969031	-0.519859	-1.080253
C53	C	0.971966	-0.515299	-1.006867
C54	C	1.018390	-0.443259	-0.972000
C55	C	1.061877	-0.375768	-1.010522
C56	C	1.058939	-0.380324	-1.083906
C57	C	1.031995	-0.422150	-0.752719
C58	C	1.034932	-0.417601	-0.679330
C59	C	0.945019	-0.557131	-0.675680
C60	C	0.942088	-0.561685	-0.749066
C61	C	0.985573	-0.494190	-0.787582
N62	N	1.021392	-0.438599	-0.896987
N63	N	0.982566	-0.498846	-0.862592
C64	C	1.009255	-0.457515	-0.196866
C65	C	1.012517	-0.452375	-0.118770
H66	H	0.400006	-0.329204	-0.477281
H67	H	1.095572	-1.156657	-0.293318
N68	N	0.908493	-1.207200	-0.465687
H69	H	0.871778	-1.237856	-0.499531
H70	H	0.956203	-1.231517	-0.480565
H71	H	1.180305	-0.848285	-0.215074
N72	N	1.192746	-1.060439	-0.203732
H73	H	1.222358	-1.005629	-0.176422
H74	H	1.165483	-1.105647	-0.170051
H75	H	0.823526	-0.889380	-0.543808
H76	H	0.823605	-1.088446	-0.543845
H77	H	0.904285	-0.620348	-0.777450
N78	N	0.416656	-0.578937	-0.302409
H79	H	0.403445	-0.655435	-0.312724
H80	H	0.468431	-0.566099	-0.311342
H81	H	0.909616	-0.612081	-0.644313
N82	N	0.918963	-0.597565	-1.117857
H83	H	0.891860	-0.639622	-1.082318
H84	H	0.885236	-0.558551	-1.147001
N85	N	1.085008	-0.339901	-0.641720
H86	H	1.112109	-0.297833	-0.677255
H87	H	1.057634	-0.291034	-0.610124
H88	H	0.908341	-0.780075	-0.465591
N89	N	0.256701	-0.320439	-0.483441
H90	H	0.204914	-0.333193	-0.474520
H91	H	0.269968	-0.243968	-0.473105
N92	N	1.111961	-0.298090	-0.972913
H93	H	1.084648	-0.249145	-0.941312
H94	H	1.145714	-0.337140	-0.943822
H95	H	1.067408	-0.367196	-0.784070
N96	N	0.925039	-0.588049	-0.965322
H97	H	0.895179	-0.634370	-0.998545
H98	H	0.954826	-0.633153	-0.936003
N99	N	1.105836	-0.307531	-1.125453
H100	H	1.135691	-0.261202	-1.092231
H101	H	1.137126	-0.350320	-1.157208
N102	N	0.264123	-0.587738	-0.296294
H103	H	0.299634	-0.626486	-0.269153
H104	H	0.234967	-0.544641	-0.262606
H105	H	0.598037	-0.375279	-0.444978
N106	N	0.740399	-0.350064	-0.462621
H107	H	0.728069	-0.275035	-0.451285
H108	H	0.792716	-0.356913	-0.457860
N109	N	0.595291	-0.626127	-0.269335
H110	H	0.563704	-0.678402	-0.296611
H111	H	0.630846	-0.664803	-0.242206
N112	N	0.747837	-0.617334	-0.275465
H113	H	0.714589	-0.660050	-0.245566
H114	H	0.777147	-0.666034	-0.305232
H115	H	1.095415	-0.758532	-0.293221
