data_functionalizedCrystal
_audit_creation_method	'MofGen! by Chris Wilmer'
_symmetry_space_group_name_H-M	'P1'
_symmetry_Int_Tables_number	1
_symmetry_cell_setting	triclinic
loop_
_symmetry_equiv_pos_as_xyz
  x,y,z
_cell_length_a	19.805407
_cell_length_b	13.897448
_cell_length_c	19.805399
_cell_angle_alpha	90.025019
_cell_angle_beta	90.019573
_cell_angle_gamma	90.017692
loop_
_atom_site_label
_atom_site_type_symbol
_atom_site_fract_x
_atom_site_fract_y
_atom_site_fract_z
Zn1	Zn	1.034777	-0.384037	0.382732
Zn2	Zn	1.034709	-0.545343	0.269549
Zn3	Zn	0.921591	-0.384064	0.269556
Zn4	Zn	0.921572	-0.545292	0.382695
O5	O	0.978162	-0.464684	0.326133
O6	O	1.129484	-0.405445	0.367730
O7	O	1.019683	-0.523982	0.174833
O8	O	0.936642	-0.249079	0.284588
O9	O	1.129434	-0.523956	0.284575
O10	O	1.019799	-0.249059	0.367737
O11	O	0.936576	-0.405490	0.174839
O12	O	0.826872	-0.405441	0.284552
O13	O	0.936609	-0.523869	0.477417
O14	O	0.826858	-0.523894	0.367675
O15	O	1.019780	-0.405395	0.477443
O16	O	1.019664	-0.680318	0.284539
O17	O	0.936543	-0.680280	0.367668
C18	C	0.802306	-0.464666	0.326111
C19	C	0.727074	-0.464681	0.326118
C20	C	0.691740	-0.526453	0.369330
C21	C	0.621052	-0.526454	0.369339
C22	C	0.585699	-0.464688	0.326133
C23	C	0.621037	-0.402910	0.282919
C24	C	0.691725	-0.402904	0.282913
C25	C	0.335964	-0.402931	0.282941
C26	C	0.265272	-0.402944	0.282949
C27	C	0.265292	-0.526481	0.369367
C28	C	0.335979	-0.526476	0.369362
C29	C	0.371311	-0.464694	0.326151
C30	C	0.447960	-0.464692	0.326142
C31	C	0.509051	-0.464695	0.326138
C32	C	0.978113	-0.715298	0.326113
C33	C	0.978154	-0.822512	0.326128
C34	C	0.978225	-1.018807	0.326170
C35	C	0.978183	-0.909575	0.326149
C36	C	1.154705	-0.464703	0.326155
C37	C	1.229937	-0.464711	0.326165
C38	C	0.978200	-0.464623	0.502676
C39	C	0.978216	-0.464597	0.577908
C40	C	0.978230	-0.213091	0.326167
C41	C	0.978259	-0.105877	0.326182
C42	C	0.978163	-0.464675	0.150277
C43	C	0.978278	-0.464429	0.075045
C44	C	1.021524	-0.402905	0.613267
C45	C	1.021531	-0.402877	0.683955
C46	C	0.978233	-0.464547	0.719283
C47	C	0.934920	-0.526242	0.683919
C48	C	0.934910	-0.526264	0.613232
C49	C	0.934958	-0.526152	0.968993
C50	C	0.934973	-0.526127	1.039685
C51	C	1.021579	-0.402765	1.039716
C52	C	1.021570	-0.402787	0.969029
C53	C	0.978255	-0.464478	0.933671
C54	C	0.978247	-0.464507	0.857022
C55	C	0.978244	-0.464524	0.795931
H56	H	0.592286	-0.576756	0.404526
H57	H	1.056785	-0.352690	0.584508
C58	C	0.887343	-0.593963	1.078548
H59	H	0.893561	-0.585121	1.125710
H60	H	0.841867	-0.579845	1.066962
H61	H	0.897232	-0.658782	1.066955
C62	C	0.374864	-0.594414	0.416890
H63	H	0.343696	-0.631198	0.442633
H64	H	0.402423	-0.636392	0.390948
H65	H	0.402455	-0.557558	0.446426
C66	C	0.887292	-0.594079	0.722775
H67	H	0.861493	-0.630818	0.691590
H68	H	0.913176	-0.636102	0.750348
H69	H	0.857812	-0.557163	0.750350
H70	H	0.899699	-0.576398	0.940213
H71	H	1.056799	-0.352644	0.712742
C72	C	0.226424	-0.594431	0.416906
H73	H	0.179262	-0.585584	0.410730
H74	H	0.237992	-0.659221	0.406920
H75	H	0.238034	-0.580393	0.462401
H76	H	1.056830	-0.352573	0.940268
C77	C	0.226381	-0.334990	0.235429
H78	H	0.179222	-0.343850	0.241618
H79	H	0.237979	-0.270199	0.245419
H80	H	0.237942	-0.349014	0.189928
C81	C	0.374821	-0.334991	0.235400
H82	H	0.343640	-0.298220	0.209662
H83	H	0.402418	-0.293003	0.261331
H84	H	0.402373	-0.371846	0.205860
C85	C	0.887288	-0.594149	0.574337
H86	H	0.861511	-0.630887	0.605500
H87	H	0.857799	-0.557276	0.546754
H88	H	0.913183	-0.636186	0.546769
C89	C	0.582151	-0.334972	0.235391
H90	H	0.534991	-0.343829	0.241577
H91	H	0.593748	-0.270178	0.245372
H92	H	0.593716	-0.349012	0.189894
C93	C	1.069221	-0.334899	1.078612
H94	H	1.063024	-0.343707	1.125770
H95	H	1.114692	-0.349028	1.067034
H96	H	1.059330	-0.270088	1.067032
C97	C	0.730595	-0.334958	0.235382
H98	H	0.777757	-0.343792	0.241571
H99	H	0.718991	-0.348985	0.189887
H100	H	0.719024	-0.270165	0.245375
C101	C	0.730623	-0.594395	0.416858
H102	H	0.699453	-0.631176	0.442600
H103	H	0.758181	-0.636374	0.390916
H104	H	0.758215	-0.557541	0.446395
