data_functionalizedCrystal
_audit_creation_method	'MofGen! by Chris Wilmer'
_symmetry_space_group_name_H-M	'P1'
_symmetry_Int_Tables_number	1
_symmetry_cell_setting	triclinic
loop_
_symmetry_equiv_pos_as_xyz
  x,y,z
_cell_length_a	15.298206
_cell_length_b	15.299816
_cell_length_c	12.759393
_cell_angle_alpha	80.349000
_cell_angle_beta	80.332067
_cell_angle_gamma	69.257501
loop_
_atom_site_label
_atom_site_type_symbol
_atom_site_fract_x
_atom_site_fract_y
_atom_site_fract_z
Zn1	Zn	1.485552	-0.615761	0.418318
Zn2	Zn	1.512337	-0.771231	0.268592
Zn3	Zn	1.330061	-0.588931	0.268633
Zn4	Zn	1.356916	-0.744302	0.470175
O5	O	1.421216	-0.680056	0.356430
O6	O	1.619222	-0.658882	0.376738
O7	O	1.488128	-0.747090	0.121591
O8	O	1.328239	-0.462402	0.266804
O9	O	1.638901	-0.773106	0.266735
O10	O	1.442477	-0.482114	0.376777
O11	O	1.354211	-0.613155	0.121621
O12	O	1.203506	-0.587044	0.317087
O13	O	1.374009	-0.727210	0.610303
O14	O	1.223236	-0.701194	0.465159
O15	O	1.468517	-0.632771	0.572204
O16	O	1.514168	-0.897747	0.317018
O17	O	1.399981	-0.877963	0.465120
C18	C	1.179633	-0.638286	0.396755
C19	C	1.076286	-0.620439	0.414035
C20	C	1.017510	-0.552676	0.479552
C21	C	0.920410	-0.535899	0.495788
C22	C	0.882076	-0.586888	0.446517
C23	C	0.940853	-0.654657	0.381006
C24	C	1.037962	-0.671431	0.364761
C25	C	0.902527	-0.705642	0.331726
C26	C	0.961304	-0.773411	0.266215
C27	C	1.058404	-0.790182	0.249973
C28	C	1.096738	-0.739193	0.299245
C29	C	0.805418	-0.688869	0.347971
C30	C	0.825869	-0.807623	0.233180
C31	C	0.922970	-0.824400	0.216943
C32	C	1.462921	-0.921590	0.396710
C33	C	1.480847	-1.024934	0.413963
C34	C	1.293704	-1.275531	0.233375
C35	C	1.276856	-1.178433	0.217168
C36	C	1.327852	-1.140054	0.266365
C37	C	1.395699	-1.198781	0.331772
C38	C	1.412543	-1.295887	0.347987
C39	C	1.446692	-1.160410	0.380977
C40	C	1.514538	-1.219137	0.446385
C41	C	1.531380	-1.316233	0.462596
C42	C	1.480383	-1.354613	0.413399
C43	C	1.429848	-1.063304	0.364762
C44	C	1.548687	-1.083660	0.479375
C45	C	1.565535	-1.180757	0.495582
C46	C	1.663743	-0.721990	0.315947
C47	C	1.767094	-0.739860	0.298696
C48	C	1.421270	-0.679979	0.630437
C49	C	1.421293	-0.679946	0.747202
C50	C	1.379374	-0.437584	0.316011
C51	C	1.361544	-0.334257	0.298787
C52	C	1.421204	-0.680075	0.083469
C53	C	1.421316	-0.679878	-0.033370
C54	C	1.470507	-0.630763	0.782225
C55	C	1.470515	-0.630726	0.891940
C56	C	1.372097	-0.729062	0.931600
C57	C	1.372083	-0.729094	0.821887
C58	C	1.484840	-0.526793	1.018061
C59	C	1.534069	-0.477621	1.053087
C60	C	1.622330	-0.479047	0.999965
C61	C	1.661383	-0.529663	0.911818
C62	C	1.612160	-0.578843	0.876798
C63	C	1.523883	-0.577397	0.929918
C64	C	1.357769	-0.833029	0.695763
C65	C	1.308550	-0.882215	0.660741
C66	C	1.220289	-0.880798	0.713863
C67	C	1.181243	-0.830199	0.802016
C68	C	1.230461	-0.781013	0.837038
C69	C	1.318721	-0.782428	0.783908
H70	H	0.872560	-0.480723	0.549129
H71	H	1.048731	-0.511164	0.519655
H72	H	1.221615	-1.130621	0.163915
C73	C	1.253697	-1.297778	0.068008
C74	C	1.237648	-1.317714	0.179305
H75	H	1.219081	-1.323814	0.034628
H76	H	1.318922	-1.324452	0.044915
H77	H	1.233955	-1.231542	0.049000
H78	H	1.257397	-1.383950	0.198313
H79	H	1.172409	-1.291042	0.202406
H80	H	1.106257	-0.845356	0.196620
H81	H	1.198661	-0.739812	0.908818
H82	H	1.374607	-1.015496	0.311508
H83	H	1.494100	-1.433677	0.426587
H84	H	1.175806	-0.752861	0.286043
C85	C	1.514186	-0.587143	0.596432
C86	C	1.524586	-0.576730	0.700129
H87	H	1.547575	-0.553785	0.545753
H88	H	1.449368	-0.562744	0.586613
H89	H	1.538576	-0.651964	0.586600
H90	H	1.500189	-0.511909	0.709964
H91	H	1.589417	-0.601125	0.709952
C92	C	1.693655	-0.459732	1.144478
C93	C	1.676457	-0.425011	1.038467
H94	H	1.727066	-0.426369	1.168250
H95	H	1.730067	-0.524734	1.148362
H96	H	1.635491	-0.451624	1.188721
H97	H	1.734621	-0.433125	0.994222
H98	H	1.640044	-0.359993	1.034576
H99	H	0.794659	-0.849143	0.193060
H100	H	1.314132	-1.060992	0.253164
C101	C	1.647172	-1.326602	0.574238
C102	C	1.605960	-1.380788	0.534487
H103	H	1.693221	-1.366458	0.618612
H104	H	1.600080	-1.281739	0.614841
H105	H	1.676179	-1.294874	0.516216
H106	H	1.576947	-1.412512	0.592509
H107	H	1.653061	-1.425669	0.493883
H108	H	0.970840	-0.879578	0.163603
H109	H	1.620776	-1.228586	0.548837
C110	C	1.575645	-0.943855	0.505405
C111	C	1.604751	-1.041483	0.533455
H112	H	1.610257	-0.917815	0.538787
H113	H	1.510419	-0.917192	0.528506
H114	H	1.586534	-0.930348	0.429897
H115	H	1.593855	-1.054990	0.608963
H116	H	1.669992	-1.068155	0.510360
C117	C	1.740970	-0.703611	0.801485
C118	C	1.655075	-0.634474	0.779910
H119	H	1.767465	-0.737946	0.741662
H120	H	1.730790	-0.745248	0.862665
H121	H	1.782913	-0.674521	0.814742
H122	H	1.613129	-0.663564	0.766661
H123	H	1.665252	-0.592830	0.718711
H124	H	0.757571	-0.633689	0.401309
H125	H	1.340356	-0.923426	0.588969
H126	H	1.733258	-0.530828	0.868576
H127	H	1.502263	-0.436408	1.124859
H128	H	1.109375	-0.829048	0.845274
H129	H	1.412966	-0.525618	1.061317
H130	H	1.332034	-0.769079	0.992422
H131	H	1.429636	-0.834182	0.652495
C132	C	1.219903	-1.030688	0.681126
C133	C	1.166189	-0.934869	0.675369
H134	H	1.186503	-1.064064	0.657358
H135	H	1.231573	-1.054214	0.753040
H136	H	1.278055	-1.038769	0.636866
H137	H	1.108039	-0.926788	0.719635
H138	H	1.154506	-0.911336	0.603443
C139	C	0.731848	-0.498212	0.532285
C140	C	0.775342	-0.568457	0.464374
H141	H	0.665954	-0.486840	0.543318
H142	H	0.743433	-0.442001	0.500541
H143	H	0.756651	-0.518166	0.599059
H144	H	0.750544	-0.548500	0.397597
H145	H	0.763750	-0.624679	0.496115
