data_functionalizedCrystal
_audit_creation_method	'MofGen! by Chris Wilmer'
_symmetry_space_group_name_H-M	'P1'
_symmetry_Int_Tables_number	1
_symmetry_cell_setting	triclinic
loop_
_symmetry_equiv_pos_as_xyz
  x,y,z
_cell_length_a	10.654541
_cell_length_b	26.210047
_cell_length_c	10.654555
_cell_angle_alpha	89.992904
_cell_angle_beta	84.486741
_cell_angle_gamma	90.007771
loop_
_atom_site_label
_atom_site_type_symbol
_atom_site_fract_x
_atom_site_fract_y
_atom_site_fract_z
O1	O	1.667861	0.042410	0.176366
O2	O	1.302383	0.042414	0.193175
O3	O	1.493518	0.042412	0.002032
O4	O	1.476726	0.042413	0.367509
O5	O	1.493481	-0.042446	0.002062
O6	O	1.302346	-0.042444	0.193205
O7	O	1.667824	-0.042448	0.176395
Cu8	Cu	1.485082	-0.050194	0.184803
Cu9	Cu	1.485125	0.050161	0.184768
O10	O	1.476689	-0.042446	0.367539
C11	C	1.255566	-0.000014	0.191956
C12	C	1.116123	-0.000012	0.188266
N13	N	1.485060	-0.120778	0.184827
C14	C	1.088161	-0.000006	0.416829
C15	C	1.008671	-0.000000	0.529372
C16	C	0.877653	0.000000	0.525896
C17	C	0.826123	-0.000006	0.409865
C18	C	0.905613	-0.000012	0.297323
C19	C	1.036633	-0.000011	0.300811
C20	C	0.933574	-0.000022	0.068762
C21	C	1.064593	-0.000019	0.072235
C22	C	0.882044	-0.000028	-0.047268
C23	C	0.961534	-0.000030	-0.159814
C24	C	1.092560	-0.000030	-0.156333
C25	C	1.144082	-0.000024	-0.040308
C26	C	1.569751	-0.473293	0.100149
C27	C	1.569779	-0.686952	0.100131
O28	O	1.641738	-0.714574	0.028140
N29	N	1.485132	-0.713672	0.184740
C30	C	1.400466	-0.686974	0.269353
O31	O	1.328461	-0.714604	0.341309
C32	C	1.400434	-0.473317	0.269364
C33	C	1.485095	-0.446599	0.184758
C34	C	1.654405	-0.446575	0.015549
C35	C	1.654402	-0.393164	0.015559
C36	C	1.569745	-0.366470	0.100168
C37	C	1.485092	-0.393188	0.184768
C38	C	1.315763	-0.446620	0.353970
C39	C	1.315760	-0.393202	0.353963
C40	C	1.400422	-0.366485	0.269357
C41	C	1.400432	-0.313082	0.269387
N42	N	1.485079	-0.286362	0.184778
C43	C	1.569736	-0.313056	0.100169
C44	C	1.400491	-0.799147	0.269344
C45	C	1.400500	-0.852562	0.269343
C46	C	1.569812	-0.852535	0.100119
C47	C	1.569807	-0.799120	0.100127
C48	C	1.485138	-0.772427	0.184735
C49	C	1.569724	-0.200888	0.100197
C50	C	1.569716	-0.147472	0.100217
C51	C	1.400401	-0.147503	0.269436
C52	C	1.400412	-0.200914	0.269421
C53	C	1.485078	-0.227606	0.184790
O54	O	1.328501	-0.285427	0.341331
O55	O	1.641712	-0.285417	0.028205
C56	C	1.569754	-0.526704	0.100139
C57	C	1.485101	-0.553422	0.184738
C58	C	1.400445	-0.526728	0.269348
C59	C	1.485111	-0.606836	0.184738
C60	C	1.569767	-0.633530	0.100128
C61	C	1.654414	-0.606810	0.015520
C62	C	1.654411	-0.553398	0.015529
C63	C	1.315798	-0.553448	0.353956
C64	C	1.315809	-0.606860	0.353941
C65	C	1.400465	-0.633554	0.269331
C66	C	1.714641	-0.000018	0.177614
C67	C	1.854084	-0.000017	0.181305
C68	C	1.492263	-0.000016	-0.044751
C69	C	1.488566	-0.000013	-0.184194
N70	N	1.485157	0.120744	0.184734
C71	C	1.481586	-0.092531	-0.446192
C72	C	1.483297	-0.138788	-0.380661
C73	C	1.486765	-0.138788	-0.249643
C74	C	1.488519	-0.092526	-0.184151
C75	C	1.486808	-0.046269	-0.249682
C76	C	1.483343	-0.046274	-0.380704
C77	C	1.486855	0.046244	-0.249724
C78	C	1.483395	0.046246	-0.380744
C79	C	1.488608	0.092506	-0.184233
C80	C	1.486906	0.138764	-0.249765
C81	C	1.483439	0.138762	-0.380792
C82	C	1.481684	0.092503	-0.446275
C83	C	1.477944	-0.000016	0.414321
C84	C	1.481641	-0.000016	0.553764
H85	H	1.194841	0.000005	0.419670
O86	O	1.736502	-0.367308	-0.066966
C87	C	1.808016	-0.351216	-0.284831
C88	C	1.714948	-0.380468	-0.191401
H89	H	1.790640	-0.361853	-0.385457
H90	H	1.793645	-0.308427	-0.270652
H91	H	1.908734	-0.361740	-0.267539
H92	H	1.614193	-0.369988	-0.208636
H93	H	1.729430	-0.423250	-0.205602
H94	H	1.157274	-0.000036	-0.247980
H95	H	1.488326	0.176427	-0.196430
O96	O	0.911418	0.000054	-0.272482
C97	C	0.779656	0.043991	-0.409043
C98	C	0.836358	0.043964	-0.281415
H99	H	0.718937	0.079483	-0.416295
H100	H	0.858919	0.044023	-0.488938
H101	H	0.719063	0.008459	-0.416344
H102	H	0.896939	0.079490	-0.273990
H103	H	0.757035	0.043905	-0.201581
H104	H	1.478866	0.092497	-0.552958
H105	H	1.246870	-0.628610	0.422848
O106	O	1.736765	-0.632666	-0.066724
C107	C	1.904628	-0.627021	-0.234642
C108	C	1.811471	-0.597672	-0.141547
H109	H	1.965034	-0.598741	-0.295179
H110	H	1.967925	-0.652017	-0.179908
H111	H	1.849820	-0.652039	-0.297821
H112	H	1.866177	-0.572626	-0.078346
H113	H	1.748175	-0.572708	-0.196359
H114	H	1.050642	0.000004	0.623842
O115	O	1.736388	-0.527430	-0.066881
C116	C	1.761331	-0.467267	-0.238501
C117	C	1.668407	-0.496605	-0.145109
H118	H	1.706405	-0.442346	-0.301790
H119	H	1.824663	-0.442186	-0.184014
H120	H	1.821731	-0.495581	-0.298897
H121	H	1.607925	-0.468327	-0.084689
H122	H	1.605162	-0.521693	-0.199671
O123	O	1.481594	0.183728	-0.444293
C124	C	1.371873	0.262779	-0.471194
C125	C	1.373835	0.211880	-0.399164
H126	H	1.284745	0.285549	-0.434754
H127	H	1.460233	0.285632	-0.456145
H128	H	1.369150	0.254817	-0.576086
H129	H	1.376514	0.219796	-0.294251
H130	H	1.285480	0.189042	-0.414319
H131	H	1.331486	-0.222668	0.338326
O132	O	0.800380	-0.000084	0.635183
C133	C	0.636146	-0.044023	0.763886
C134	C	0.723605	-0.043997	0.640088
H135	H	0.574033	-0.079517	0.767880
H136	H	0.695413	-0.044052	0.847461
H137	H	0.574183	-0.008492	0.767928
H138	H	0.785585	-0.079521	0.635923
H139	H	0.664264	-0.043941	0.556570
O140	O	1.652004	-0.121598	0.017904
C141	C	1.819988	-0.127219	-0.149892
C142	C	1.726852	-0.156582	-0.056762
H143	H	1.880545	-0.155491	-0.210265
H144	H	1.765287	-0.102225	-0.213222
H145	H	1.883143	-0.102199	-0.095061
H146	H	1.663674	-0.181630	-0.111491
H147	H	1.781631	-0.181544	0.006568
H148	H	0.719440	-0.000012	0.407046
O149	O	1.481770	-0.183758	-0.444160
C150	C	1.589326	-0.262821	-0.497540
C151	C	1.591203	-0.211916	-0.425555
H152	H	1.677805	-0.285596	-0.482545
H153	H	1.502320	-0.285665	-0.461027
H154	H	1.586495	-0.254867	-0.602427
H155	H	1.594078	-0.219823	-0.320657
H156	H	1.678198	-0.189087	-0.462171
H157	H	1.491328	-0.092531	-0.077467
H158	H	0.775361	-0.000031	-0.050090
H159	H	1.250762	-0.000018	-0.037463
O160	O	1.488243	-0.183752	-0.186089
C161	C	1.380585	-0.262799	-0.132594
C162	C	1.378775	-0.211904	-0.204656
H163	H	1.292077	-0.285570	-0.147559
H164	H	1.467562	-0.285656	-0.169070
H165	H	1.383422	-0.254833	-0.027719
H166	H	1.375893	-0.219824	-0.309542
H167	H	1.291808	-0.189063	-0.168077
O168	O	1.318149	-0.878433	0.351584
C169	C	1.150260	-0.872807	0.519473
C170	C	1.243445	-0.843447	0.426387
H171	H	1.089856	-0.844533	0.579994
H172	H	1.086964	-0.897801	0.464732
H173	H	1.205045	-0.897827	0.582668
H174	H	1.188762	-0.818399	0.363170
H175	H	1.306741	-0.818485	0.481207
O176	O	1.651795	-0.226835	0.017867
C177	C	1.677071	-0.287144	-0.153379
C178	C	1.583983	-0.257781	-0.060243
H179	H	1.622283	-0.312179	-0.216538
H180	H	1.737553	-0.258890	-0.213928
H181	H	1.740308	-0.312127	-0.098551
H182	H	1.520666	-0.232797	-0.114971
H183	H	1.523590	-0.286062	0.000305
H184	H	1.723342	-0.468305	-0.053356
O185	O	1.233688	-0.527546	0.436332
C186	C	1.161963	-0.511267	0.654046
C187	C	1.255043	-0.540619	0.560881
H188	H	1.179178	-0.521834	0.754763
H189	H	1.176484	-0.468493	0.639650
H190	H	1.061245	-0.521771	0.636684
H191	H	1.355798	-0.530158	0.578186
H192	H	1.240412	-0.583386	0.575299
O193	O	1.651913	-0.773207	0.017729
C194	C	1.723611	-0.756930	-0.200007
C195	C	1.630534	-0.786286	-0.106803
H196	H	1.706376	-0.767502	-0.300711
H197	H	1.709105	-0.714157	-0.185645
H198	H	1.824330	-0.767427	-0.182652
H199	H	1.529779	-0.775832	-0.124101
H200	H	1.645150	-0.829052	-0.121187
O201	O	1.652217	-0.878448	0.018048
C202	C	1.869934	-0.894760	-0.053602
C203	C	1.776766	-0.865389	0.039436
H204	H	1.970651	-0.884205	-0.036360
H205	H	1.855497	-0.937531	-0.039062
H206	H	1.852613	-0.884262	-0.154334
H207	H	1.794031	-0.875844	0.140205
H208	H	1.791225	-0.822625	0.024786
O209	O	1.318125	-0.773197	0.351375
C210	C	1.146878	-0.712887	0.376567
C211	C	1.240055	-0.742251	0.283521
H212	H	1.083751	-0.687852	0.321744
H213	H	1.086299	-0.741141	0.437020
H214	H	1.201673	-0.687904	0.439834
H215	H	1.185360	-0.767234	0.220172
H216	H	1.300633	-0.713970	0.223156
H217	H	1.246824	-0.468366	0.422862
H218	H	1.246808	-0.371471	0.422860
O219	O	1.318122	-0.121646	0.351742
C220	C	1.150119	-0.127294	0.519520
C221	C	1.243260	-0.156642	0.426405
H222	H	1.089551	-0.155575	0.579891
H223	H	1.204816	-0.102300	0.582854
H224	H	1.086976	-0.102274	0.464677
H225	H	1.306426	-0.181689	0.481145
H226	H	1.188484	-0.181604	0.363071
H227	H	1.478775	-0.092536	-0.552876
H228	H	1.491426	0.092503	-0.077550
