data_functionalizedCrystal
_audit_creation_method	'MofGen! by Chris Wilmer'
_symmetry_space_group_name_H-M	'P1'
_symmetry_Int_Tables_number	1
_symmetry_cell_setting	triclinic
loop_
_symmetry_equiv_pos_as_xyz
  x,y,z
_cell_length_a	23.096457
_cell_length_b	14.560438
_cell_length_c	14.560438
_cell_angle_alpha	90.001334
_cell_angle_beta	119.998983
_cell_angle_gamma	119.999406
loop_
_atom_site_label
_atom_site_type_symbol
_atom_site_fract_x
_atom_site_fract_y
_atom_site_fract_z
Zr1	Zr	-0.633730	0.884785	-0.120488
O2	O	-0.754519	0.738138	-0.267133
O3	O	-0.512943	0.929737	-0.075537
O4	O	-0.633732	0.929737	-0.267136
O5	O	-0.633729	0.738142	0.075607
O6	O	-0.633731	1.080877	-0.267134
O7	O	-0.633731	0.738138	-0.075534
O8	O	-0.417661	1.080878	0.075601
O9	O	-0.849798	0.738141	-0.267129
O10	O	-0.562623	1.061707	-0.056360
O11	O	-0.562623	0.948915	0.056433
O12	O	-0.704836	0.948915	-0.169150
O13	O	-0.704835	0.836123	-0.056357
Zr14	Zr	-0.633726	1.125842	0.120567
Zr15	Zr	-0.633729	1.125836	-0.120485
Zr16	Zr	-0.633728	0.884791	0.120564
Zr17	Zr	-0.785689	0.884791	-0.120481
Zr18	Zr	-0.481768	1.125837	0.120560
O19	O	-0.754514	1.080890	0.075616
O20	O	-0.754517	1.080881	-0.267129
O21	O	-0.754516	0.738146	0.075612
O22	O	-0.512937	1.272490	0.267212
O23	O	-0.512941	1.272481	-0.075533
O24	O	-0.512939	0.929746	0.267208
O25	O	-0.633727	1.272485	-0.075528
O26	O	-0.633725	1.080890	0.267215
O27	O	-0.633726	0.929750	0.267213
O28	O	-0.633726	1.272489	0.075613
O29	O	-0.849797	0.929745	-0.267126
O30	O	-0.417659	1.080882	0.267205
O31	O	-0.417658	1.272486	0.267207
O32	O	-0.417660	1.272481	0.075603
O33	O	-0.849796	0.738146	-0.075524
O34	O	-0.849795	0.929750	-0.075522
O35	O	-0.562621	1.061712	0.169229
O36	O	-0.562621	1.174504	0.056435
O37	O	-0.704834	1.061712	-0.056354
O38	O	-0.704833	0.948920	0.056439
C39	C	-0.443651	1.005306	0.000031
C40	C	-0.379141	1.005304	0.000028
C41	C	0.028887	0.922068	-0.083240
C42	C	-0.031732	0.922058	-0.083238
C43	C	-0.009553	1.005324	0.000026
C44	C	0.073254	1.088588	0.083311
C45	C	0.133869	1.088589	0.083313
N46	N	-0.065654	1.104065	0.025238
N47	N	-0.123240	1.104059	0.025229
C48	C	-0.192182	1.005324	0.000026
N49	N	-0.201371	0.906588	-0.025190
N50	N	-0.143782	0.906594	-0.025187
C51	C	-0.075275	1.005331	0.000033
C52	C	-0.340707	0.922050	-0.083247
C53	C	-0.401325	0.922039	-0.083238
C54	C	-0.296336	1.088578	0.083307
C55	C	-0.235722	1.088579	0.083301
C56	C	-0.257912	1.005316	0.000019
C57	C	-0.633730	0.703795	0.000036
C58	C	-0.633731	0.601463	0.000035
C59	C	0.176193	1.005321	0.000043
C60	C	0.111679	1.005325	0.000030
C61	C	-0.633733	0.553384	-0.083232
C62	C	-0.633728	0.457237	-0.083225
C63	C	-0.633721	0.457252	0.083319
C64	C	-0.633720	0.553402	0.083316
C65	C	-0.633731	1.005306	-0.301480
C66	C	-0.633733	1.005303	-0.403813
C67	C	-0.633726	1.306832	0.000043
C68	C	-0.633726	1.409164	0.000044
C69	C	-0.707965	0.946428	-0.510764
C70	C	-0.707961	0.946441	-0.606913
C71	C	-0.559486	1.064206	-0.489146
C72	C	-0.559491	1.064199	-0.392999
C73	C	-0.633725	1.005321	0.301559
C74	C	-0.633724	1.005324	0.403892
C75	C	-0.443649	1.306825	0.000034
C76	C	-0.379138	1.409155	0.000032
C77	C	-0.443648	1.005314	0.301550
C78	C	-0.379137	1.005314	0.403880
C79	C	-0.443646	1.306832	0.301554
C80	C	-0.379134	1.409165	0.403885
C81	C	-0.823810	0.703795	-0.301475
C82	C	-0.888322	0.601462	-0.403806
C83	C	-0.823807	0.703802	0.000045
C84	C	-0.888318	0.601472	0.000046
C85	C	-0.823808	1.005313	-0.301472
C86	C	-0.888320	1.005313	-0.403802
C87	C	-0.348844	1.398331	-0.058857
C88	C	-0.288238	1.494472	-0.058881
C89	C	-0.257922	1.601436	-0.000009
C90	C	-0.288222	1.612257	0.058882
C91	C	-0.348832	1.516117	0.058899
C92	C	-0.348840	1.064193	0.510824
C93	C	-0.288233	1.064189	0.606983
C94	C	-0.257920	1.005312	0.596196
C95	C	-0.288222	0.946426	0.489241
C96	C	-0.348832	0.946424	0.393085
C97	C	-0.348839	1.516108	0.393064
C98	C	-0.288231	1.612270	0.489205
C99	C	-0.257916	1.601486	0.596167
C100	C	-0.288217	1.494532	0.606986
C101	C	-0.348828	1.398373	0.510846
C102	C	-0.918625	0.494519	-0.392985
C103	C	-0.979251	0.398357	-0.489127
C104	C	-1.009570	0.409141	-0.596089
C105	C	-0.979265	0.516095	-0.606908
C106	C	-0.918643	0.612254	-0.510767
C107	C	-0.918618	0.612296	0.058926
C108	C	-0.979242	0.516155	0.058923
C109	C	-1.009559	0.409191	0.000048
C110	C	-0.979256	0.398370	-0.058839
C111	C	-0.918638	0.494510	-0.058842
C112	C	-0.918614	1.064201	-0.392979
C113	C	-0.979222	1.064223	-0.489119
C114	C	-1.009538	1.005349	-0.596082
C115	C	-0.979237	0.946459	-0.606903
C116	C	-0.918627	0.946444	-0.510763
H117	H	-0.099154	0.854245	-0.151035
N118	N	-0.633726	0.405398	0.173125
H119	H	-0.633723	0.450449	0.225874
H120	H	-0.583243	0.405541	0.216793
N121	N	-0.255556	1.482781	-0.122385
H122	H	-0.212561	1.559910	-0.113474
H123	H	-0.301854	1.440245	-0.204719
N124	N	-1.011917	0.527841	0.122440
H125	H	-0.983503	0.610192	0.159744
H126	H	-1.001373	0.490511	0.181631
N127	N	-1.011969	0.527707	-0.722280
H128	H	-0.965728	0.570167	-0.731302
H129	H	-1.037131	0.570149	-0.731233
N130	N	-0.479422	1.127711	-0.277633
H131	H	-0.432390	1.165016	-0.285371
H132	H	-0.476189	1.073649	-0.235176
N133	N	-1.011946	0.882955	-0.722275
H134	H	-0.983561	0.845641	-0.714555
H135	H	-1.001396	0.937023	-0.764727
H136	H	-0.893969	0.485681	-0.106786
H137	H	-0.893972	0.699329	-0.519591
H138	H	-0.499041	1.112155	-0.480355
H139	H	-0.208563	1.679795	0.674442
N140	N	-0.633718	0.605253	0.173136
H141	H	-0.684199	0.605111	0.136815
H142	H	-0.583199	0.685158	0.216859
H143	H	-1.058891	1.005370	-0.674356
N144	N	-0.788040	0.882920	-0.522434
H145	H	-0.791349	0.936919	-0.485163
H146	H	-0.791309	0.823663	-0.485190
N147	N	-0.255554	1.127723	0.722327
H148	H	-0.194708	1.186969	0.764846
H149	H	-0.266164	1.073662	0.764764
N150	N	-0.381533	1.282972	-0.122357
H151	H	-0.353140	1.290720	-0.159665
H152	H	-0.442381	1.240514	-0.181542
H153	H	-0.358777	0.854250	-0.151059
N154	N	-0.255510	0.882944	0.477620
H155	H	-0.283894	0.845640	0.395282
H156	H	-0.266056	0.823756	0.514953
H157	H	-0.893968	0.898485	-0.519591
H158	H	-0.893941	1.112144	-0.305893
H159	H	-0.468741	0.854237	-0.151048
H160	H	-0.208569	1.679710	-0.000031
N161	N	-1.011946	0.283000	-0.122316
H162	H	-1.054937	0.223747	-0.113361
H163	H	-0.965648	0.274103	-0.091380
H164	H	-0.263566	1.699347	0.480376
H165	H	-1.003886	1.112177	-0.480287
H166	H	-0.893938	0.699382	0.106877
N167	N	0.004955	0.832270	-0.173065
H168	H	-0.056696	0.779526	-0.225818
H169	H	0.027812	0.788593	-0.136663
H170	H	-1.058918	0.330917	0.000060
N171	N	-0.192538	1.005332	0.699911
H172	H	-0.213625	0.925596	0.699971
H173	H	-0.177970	1.051624	0.769237
N174	N	-0.255522	1.727627	0.122376
H175	H	-0.212528	1.786880	0.113426
H176	H	-0.230409	1.736544	0.204718
H177	H	-0.373491	0.898481	0.306010
H178	H	-0.278276	1.156369	0.151107
N179	N	0.097181	1.178396	0.173119
H180	H	0.046218	1.165765	0.160480
H181	H	0.130702	1.254799	0.169443
H182	H	-1.003915	0.311281	-0.480296
N183	N	-0.146420	1.178396	0.173102
H184	H	-0.111386	1.165763	0.160469
H185	H	-0.134092	1.174718	0.249505
N186	N	-0.381500	1.527799	0.122424
H187	H	-0.353093	1.610151	0.159715
H188	H	-0.370943	1.490484	0.181624
N189	N	-0.381526	1.127704	0.522475
H190	H	-0.353132	1.164994	0.604821
H191	H	-0.442374	1.073643	0.485143
N192	N	-0.255516	1.482910	0.722355
H193	H	-0.212520	1.560060	0.781609
H194	H	-0.230403	1.440404	0.731267
H195	H	-0.768408	0.898501	-0.693994
N196	N	-0.381497	1.283029	0.522525
H197	H	-0.353089	1.290800	0.604876
H198	H	-0.370940	1.240574	0.485208
H199	H	0.201286	1.156389	0.151124
N200	N	-0.381518	1.527769	0.277712
H201	H	-0.406669	1.570240	0.268707
H202	H	-0.424480	1.450599	0.218501
N203	N	-0.633744	0.605224	-0.173051
H204	H	-0.633743	0.560174	-0.225797
H205	H	-0.583259	0.685159	-0.136642
H206	H	-0.633729	0.418095	-0.151027
H207	H	-1.058931	0.330833	-0.674363
N208	N	-0.885929	0.482872	-0.277627
H209	H	-0.914334	0.400526	-0.285377
H210	H	-0.896471	0.520210	-0.235163
