data_functionalizedCrystal
_audit_creation_method	'MofGen! by Chris Wilmer'
_symmetry_space_group_name_H-M	'P1'
_symmetry_Int_Tables_number	1
_symmetry_cell_setting	triclinic
loop_
_symmetry_equiv_pos_as_xyz
  x,y,z
_cell_length_a	14.971491
_cell_length_b	19.188930
_cell_length_c	14.048226
_cell_angle_alpha	89.988446
_cell_angle_beta	89.991693
_cell_angle_gamma	83.380508
loop_
_atom_site_label
_atom_site_type_symbol
_atom_site_fract_x
_atom_site_fract_y
_atom_site_fract_z
O1	O	1.186463	0.091005	-0.079212
O2	O	0.926006	0.101897	-0.079207
O3	O	1.063751	-0.005180	-0.079191
O4	O	1.048719	0.198082	-0.079228
O5	O	1.063735	-0.005187	0.079130
O6	O	0.925990	0.101891	0.079115
O7	O	1.186447	0.090999	0.079109
Zn8	Zn	1.056216	0.096444	0.104249
Zn9	Zn	1.056238	0.096452	-0.104347
O10	O	1.048702	0.198076	0.079093
C11	C	0.892676	0.101406	-0.000045
C12	C	0.793387	0.099945	-0.000042
C13	C	0.365724	0.093641	-0.086364
C14	C	0.459017	0.095012	-0.086361
C15	C	0.505650	0.095699	-0.000056
C16	C	0.458986	0.095007	0.086250
C17	C	0.365696	0.093631	0.086246
C18	C	0.653433	0.097877	0.086253
C19	C	0.746730	0.099255	0.086258
C20	C	0.746754	0.099259	-0.086353
C21	C	0.653463	0.097882	-0.086358
C22	C	0.606806	0.097192	-0.000051
C23	C	1.063256	-0.031196	-0.000028
C24	C	1.061795	-0.108705	-0.000020
C25	C	1.142619	-0.153368	-0.000017
C26	C	1.141246	-0.226196	-0.000032
C27	C	1.059044	-0.254358	-0.000031
C28	C	0.978210	-0.209686	-0.000039
C29	C	0.979585	-0.136859	-0.000033
N30	N	0.996205	-0.362569	0.053850
N31	N	0.994905	-0.431752	0.053847
C32	C	1.054896	-0.473780	-0.000050
N33	N	1.116251	-0.444014	-0.053932
N34	N	1.117555	-0.374826	-0.053924
C35	C	1.057544	-0.333326	-0.000038
C36	C	1.134237	-0.597412	-0.000065
C37	C	1.132861	-0.670242	-0.000086
C38	C	0.969822	-0.653730	-0.000084
C39	C	0.971201	-0.580902	-0.000072
C40	C	1.053411	-0.552748	-0.000058
C41	C	1.219777	0.091490	-0.000055
C42	C	1.319066	0.092951	-0.000064
C43	C	1.049197	0.224092	-0.000072
C44	C	1.050659	0.301601	-0.000087
N45	N	1.056208	0.096438	0.246609
N46	N	1.056253	0.096453	-0.246707
C47	C	1.117220	0.049043	0.296434
C48	C	1.117226	0.049043	0.396092
C49	C	1.056223	0.096441	0.445923
C50	C	0.995204	0.143837	0.396091
C51	C	0.995195	0.143834	0.296435
C52	C	0.995230	0.143842	0.603805
C53	C	0.995241	0.143847	0.703468
C54	C	1.117261	0.049052	0.703462
C55	C	1.117252	0.049048	0.603806
C56	C	1.056234	0.096446	0.553981
H57	H	0.615496	0.097328	-0.156634
H58	H	0.784746	0.099822	-0.156627
H59	H	1.201177	-0.574488	-0.000058
H60	H	1.166906	0.010451	0.436659
Br61	Br	0.810018	0.100183	0.203386
Br62	Br	0.590115	0.096930	0.203385
H63	H	0.496963	0.095562	0.156520
H64	H	0.945540	0.182436	0.563241
Br65	Br	0.912406	0.208160	0.463715
Br66	Br	0.912383	0.208153	0.228815
Br67	Br	0.302376	0.092685	0.203371
Br68	Br	1.254189	-0.115162	-0.000025
Br69	Br	1.250944	-0.286822	-0.000032
Br70	Br	0.522336	0.095941	-0.203487
H71	H	0.911280	-0.232620	-0.000040
Br72	Br	1.242561	-0.730858	-0.000093
Br73	Br	0.302444	0.092717	-0.203498
Br74	Br	1.200021	-0.015281	0.228817
Br75	Br	1.200048	-0.015271	0.536175
H76	H	0.913766	-0.100494	-0.000035
Br77	Br	1.200074	-0.015270	0.771084
Br78	Br	0.912447	0.208175	0.771088
Br79	Br	0.858261	-0.691942	-0.000092
Br80	Br	0.861505	-0.520284	-0.000075
