data_functionalizedCrystal
_audit_creation_method	'MofGen! by Chris Wilmer'
_symmetry_space_group_name_H-M	'P1'
_symmetry_Int_Tables_number	1
_symmetry_cell_setting	triclinic
loop_
_symmetry_equiv_pos_as_xyz
  x,y,z
_cell_length_a	12.594517
_cell_length_b	29.839131
_cell_length_c	12.594510
_cell_angle_alpha	89.951258
_cell_angle_beta	89.978880
_cell_angle_gamma	90.035028
loop_
_atom_site_label
_atom_site_type_symbol
_atom_site_fract_x
_atom_site_fract_y
_atom_site_fract_z
Zn1	Zn	1.627123	-0.178815	-0.601754
Zn2	Zn	1.626955	-0.253958	-0.423730
Zn3	Zn	1.449127	-0.178842	-0.423782
Zn4	Zn	1.449049	-0.253919	-0.601660
O5	O	1.538064	-0.216383	-0.512732
O6	O	1.776046	-0.188788	-0.578156
O7	O	1.603328	-0.244021	-0.274791
O8	O	1.472842	-0.115972	-0.447452
O9	O	1.775923	-0.243995	-0.447363
O10	O	1.603614	-0.115952	-0.578206
O11	O	1.472679	-0.188834	-0.274830
O12	O	1.300171	-0.188796	-0.447361
O13	O	1.472709	-0.243928	-0.750619
O14	O	1.300114	-0.243954	-0.578047
O15	O	1.603539	-0.188750	-0.750687
O16	O	1.603252	-0.316820	-0.447272
O17	O	1.472546	-0.316791	-0.577997
C18	C	1.261523	-0.216374	-0.512700
C19	C	1.143217	-0.216381	-0.512712
C20	C	1.073964	-0.186340	-0.441768
C21	C	1.003121	-0.227320	-0.415563
C22	C	1.003262	-0.175421	-0.538935
C23	C	1.073932	-0.257383	-0.486457
C24	C	1.074079	-0.205456	-0.609874
C25	C	1.003268	-0.246465	-0.583706
C26	C	1.537901	-0.333106	-0.512642
C27	C	1.537929	-0.383040	-0.512639
C28	C	1.606142	-0.692638	-0.580913
C29	C	1.606258	-0.880311	-0.580977
O30	O	1.664096	-0.904538	-0.638959
N31	N	1.538244	-0.903825	-0.512850
C32	C	1.470193	-0.880418	-0.444707
O33	O	1.412338	-0.904725	-0.386770
C34	C	1.470073	-0.692746	-0.444649
C35	C	1.538098	-0.669235	-0.512773
C36	C	1.674161	-0.669127	-0.649032
C37	C	1.674136	-0.622211	-0.649011
C38	C	1.606091	-0.598808	-0.580871
C39	C	1.538072	-0.622319	-0.512752
C40	C	1.402016	-0.669340	-0.376513
C41	C	1.401990	-0.622419	-0.376506
C42	C	1.470015	-0.598907	-0.444630
C43	C	1.470002	-0.552000	-0.444592
N44	N	1.538016	-0.528486	-0.512719
C45	C	1.606060	-0.551890	-0.580858
C46	C	1.470262	-0.978949	-0.444741
C47	C	1.470293	-1.025867	-0.444754
C48	C	1.606357	-1.025757	-0.581025
C49	C	1.606330	-0.978838	-0.581006
C50	C	1.538275	-0.955435	-0.512868
C51	C	1.606002	-0.453364	-0.580809
C52	C	1.605974	-0.406444	-0.580779
C53	C	1.469906	-0.406558	-0.444512
C54	C	1.469938	-0.453474	-0.444538
C55	C	1.537990	-0.476876	-0.512695
O56	O	1.412186	-0.527745	-0.386649
O57	O	1.663889	-0.527575	-0.638803
C58	C	1.606168	-0.739554	-0.580933
C59	C	1.538149	-0.763065	-0.512814
C60	C	1.470104	-0.739662	-0.444675
C61	C	1.538180	-0.809983	-0.512827
C62	C	1.606224	-0.833387	-0.580967
C63	C	1.674237	-0.809873	-0.649094
C64	C	1.674212	-0.762958	-0.649073
C65	C	1.402091	-0.763176	-0.376548
C66	C	1.402123	-0.810091	-0.376573
C67	C	1.470167	-0.833495	-0.444713
C68	C	1.815684	-0.216393	-0.512764
C69	C	1.933990	-0.216397	-0.512777
C70	C	1.538134	-0.216332	-0.790353
C71	C	1.538164	-0.216309	-0.908658
C72	C	1.538256	-0.099205	-0.512845
C73	C	1.538337	-0.049271	-0.512893
C74	C	1.609344	-0.186296	-0.977949
C75	C	1.512276	-0.175299	-1.048746
C76	C	1.635288	-0.227275	-1.048660
C77	C	1.441045	-0.205292	-0.977898
C78	C	1.564122	-0.257286	-0.977805
C79	C	1.466988	-0.246305	-1.048571
C80	C	1.538055	-0.216403	-0.236191
C81	C	1.538231	-0.216298	-0.117886
H82	H	1.105006	-0.160960	-0.381698
H83	H	1.729524	-0.603071	-0.704486
H84	H	1.586085	-0.291934	-0.946624
H85	H	1.358913	-0.195973	-0.946945
N86	N	1.738284	-0.238928	-1.087652
N87	N	1.749870	-0.272938	-1.144351
H88	H	1.822612	-0.281167	-1.171887
N89	N	1.332506	-0.693351	-0.306954
N90	N	1.264674	-0.719536	-0.344367
H91	H	1.215575	-0.736495	-0.295242
N92	N	1.684739	-0.154446	-0.939034
N93	N	1.780657	-0.158130	-0.962990
H94	H	1.833902	-0.135636	-0.935504
N95	N	1.675863	-1.049675	-0.650617
N96	N	1.675872	-1.091565	-0.650609
H97	H	1.724955	-1.108460	-0.699758
H98	H	1.346730	-0.829230	-0.321089
N99	N	0.964036	-0.238923	-0.312516
N100	N	0.986677	-0.215052	-0.234211
H101	H	0.959079	-0.223244	-0.161430
N102	N	1.484784	-0.131821	-1.087843
N103	N	1.548188	-0.110856	-1.145933
H104	H	1.528781	-0.080147	-1.173542
H105	H	0.972162	-0.140779	-0.561050
H106	H	1.105270	-0.196194	-0.691989
H107	H	1.661372	-0.387303	-0.636253
H108	H	1.406753	-0.271682	-1.079385
N109	N	1.675534	-0.477256	-0.650422
N110	N	1.773746	-0.471977	-0.643439
H111	H	1.822860	-0.488850	-0.692599
N112	N	1.112721	-0.300858	-0.458552
N113	N	1.210453	-0.307863	-0.453984
H114	H	1.237851	-0.338565	-0.434274
H115	H	1.729645	-0.828937	-0.704572
N116	N	1.332571	-0.739280	-0.306938
N117	N	1.271853	-0.760285	-0.246123
H118	H	1.222753	-0.743411	-0.196953
H119	H	0.972421	-0.271906	-0.643730
H120	H	1.661722	-0.959698	-0.636478
N121	N	1.743675	-0.693022	-0.718653
N122	N	1.804391	-0.672015	-0.779464
H123	H	1.853495	-0.688887	-0.828635
N124	N	1.400819	-1.049873	-0.375141
N125	N	1.340076	-1.028966	-0.314309
H126	H	1.291004	-1.045918	-0.265144
H127	H	1.414842	-0.959897	-0.389252
H128	H	1.414555	-0.472618	-0.389057
N129	N	1.332458	-0.598521	-0.306902
N130	N	1.271730	-0.619523	-0.246091
H131	H	1.222623	-0.602646	-0.196931
H132	H	1.414508	-0.387496	-0.389030
H133	H	1.729604	-0.743818	-0.704546
