data_functionalizedCrystal
_audit_creation_method	'MofGen! by Chris Wilmer'
_symmetry_space_group_name_H-M	'P1'
_symmetry_Int_Tables_number	1
_symmetry_cell_setting	triclinic
loop_
_symmetry_equiv_pos_as_xyz
  x,y,z
_cell_length_a	9.065215
_cell_length_b	14.519731
_cell_length_c	7.540329
_cell_angle_alpha	89.995423
_cell_angle_beta	89.997574
_cell_angle_gamma	84.351775
loop_
_atom_site_label
_atom_site_type_symbol
_atom_site_fract_x
_atom_site_fract_y
_atom_site_fract_z
O1	O	1.957883	0.135211	-0.147467
O2	O	2.457883	0.635211	0.352533
O3	O	1.528392	0.146306	-0.147475
O4	O	2.028392	0.646306	0.352525
O5	O	1.754508	0.006605	-0.147454
O6	O	2.254508	0.506605	0.352546
O7	O	1.731766	0.274913	-0.147487
O8	O	2.231766	0.774913	0.352513
O9	O	1.754495	0.006603	0.147511
O10	O	2.254495	0.506603	0.647511
O11	O	1.528378	0.146304	0.147490
O12	O	2.028378	0.646304	0.647490
O13	O	1.957870	0.135209	0.147498
O14	O	2.457870	0.635209	0.647498
Cu15	Cu	1.743123	0.140757	0.174427
Cu16	Cu	2.243123	0.640757	0.674427
Cu17	Cu	1.743139	0.140759	-0.174403
Cu18	Cu	2.243139	0.640759	0.325597
O19	O	1.731753	0.274911	0.147478
O20	O	2.231753	0.774911	0.647478
C21	C	1.473418	0.145239	0.000007
C22	C	1.973418	0.645239	0.500007
C23	C	1.309634	0.142053	0.000004
C24	C	1.809634	0.642053	0.500004
C25	C	1.753436	-0.027764	0.000028
C26	C	2.253436	0.472236	0.500028
C27	C	1.750243	-0.130167	0.000029
C28	C	2.250243	0.369833	0.500029
C29	C	1.747648	-0.213330	0.000025
C30	C	2.247648	0.286670	0.500025
C31	C	1.744406	-0.317663	0.000012
C32	C	2.244406	0.182337	0.500012
C33	C	1.741833	-0.400821	0.000000
C34	C	2.241833	0.099179	0.500000
C35	C	1.738592	-0.505160	-0.000010
C36	C	2.238592	-0.005160	0.499990
C37	C	2.012844	0.136276	0.000013
C38	C	2.512844	0.636276	0.500013
C39	C	2.176627	0.139462	0.000004
C40	C	2.676627	0.639462	0.500004
C41	C	1.732825	0.309279	-0.000009
C42	C	2.232825	0.809279	0.499991
C43	C	1.736018	0.411682	-0.000022
C44	C	2.236018	0.911682	0.499978
N45	N	1.743122	0.140755	0.419775
N46	N	2.243122	0.640755	0.919775
N47	N	1.743151	0.140754	-0.419752
N48	N	2.243151	0.640754	0.080248
