data_functionalizedCrystal
_audit_creation_method	'MofGen! by Chris Wilmer'
_symmetry_space_group_name_H-M	'P1'
_symmetry_Int_Tables_number	1
_symmetry_cell_setting	triclinic
loop_
_symmetry_equiv_pos_as_xyz
  x,y,z
_cell_length_a	23.532407
_cell_length_b	14.971486
_cell_length_c	13.448316
_cell_angle_alpha	90.006811
_cell_angle_beta	90.001429
_cell_angle_gamma	83.231403
loop_
_atom_site_label
_atom_site_type_symbol
_atom_site_fract_x
_atom_site_fract_y
_atom_site_fract_z
O1	O	-0.755726	-0.108581	-0.082568
O2	O	-0.589930	-0.124291	-0.082598
O3	O	-0.677272	0.013811	-0.082575
O4	O	-0.668384	-0.246683	-0.082591
O5	O	-0.677261	0.013820	0.082809
O6	O	-0.589919	-0.124283	0.082786
O7	O	-0.755715	-0.108572	0.082815
Cu8	Cu	-0.672816	-0.116427	0.097902
Cu9	Cu	-0.672829	-0.116437	-0.097684
O10	O	-0.668373	-0.246674	0.082793
C11	C	-0.568707	-0.123887	0.000091
C12	C	-0.505485	-0.122684	0.000080
C13	C	-0.676869	0.047136	0.000116
C14	C	-0.675678	0.146420	0.000115
C15	C	-0.776939	-0.108976	0.000125
C16	C	-0.840161	-0.110179	0.000129
C17	C	-0.106699	-0.196866	0.000120
C18	C	-0.047294	-0.195748	0.000126
O19	O	-0.010844	-0.264516	0.000158
N20	N	-0.024317	-0.113647	0.000130
C21	C	-0.060747	-0.032657	0.000137
O22	O	-0.035748	0.037280	0.000141
C23	C	-0.120151	-0.033775	0.000138
C24	C	-0.143125	-0.115882	0.000124
C25	C	-0.129674	-0.278966	0.000108
C26	C	-0.189075	-0.280083	0.000100
C27	C	-0.225501	-0.199100	0.000104
C28	C	-0.202526	-0.116999	0.000116
C29	C	-0.156581	0.047213	0.000152
C30	C	-0.215988	0.046088	0.000154
C31	C	-0.238962	-0.036019	0.000141
C32	C	-0.298353	-0.037133	0.000113
N33	N	-0.321331	-0.119235	0.000109
C34	C	-0.284905	-0.200218	0.000105
C35	C	0.064005	-0.030315	0.000137
C36	C	0.123408	-0.029195	0.000129
C37	C	0.136857	-0.192287	0.000120
C38	C	0.077453	-0.193405	0.000121
C39	C	0.041028	-0.112416	0.000133
C40	C	-0.409652	-0.202558	0.000087
C41	C	-0.469059	-0.203667	0.000075
C42	C	-0.482502	-0.040576	0.000089
C43	C	-0.423101	-0.039466	0.000096
C44	C	-0.386676	-0.120464	0.000099
O45	O	-0.334838	0.031598	0.000085
O46	O	-0.309913	-0.270143	0.000114
C47	C	-0.668776	-0.279999	0.000099
C48	C	-0.669968	-0.379284	0.000094
N49	N	-0.672811	-0.116419	0.235466
C50	C	-0.726989	0.204188	0.000125
C51	C	-0.725866	0.297475	0.000115
C52	C	-0.673432	0.332994	0.000102
C53	C	-0.622117	0.275219	0.000089
C54	C	-0.623241	0.181933	0.000092
C55	C	-0.619780	0.469657	0.000085
C56	C	-0.618657	0.562949	0.000084
C57	C	-0.722406	0.585199	0.000108
C58	C	-0.723529	0.491913	0.000111
C59	C	-0.672214	0.434145	0.000100
N60	N	-0.672839	-0.116437	-0.235248
C61	C	-0.711498	-0.055292	0.287516
C62	C	-0.711502	-0.055292	0.391620
C63	C	-0.672821	-0.116423	0.443671
C64	C	-0.634130	-0.177552	0.391613
C65	C	-0.634124	-0.177548	0.287512
C66	C	-0.634145	-0.177558	0.608593
C67	C	-0.634152	-0.177564	0.712702
C68	C	-0.711523	-0.055302	0.712701
C69	C	-0.711518	-0.055297	0.608600
C70	C	-0.672827	-0.116429	0.556549
H71	H	-0.487761	-0.270532	0.000064
H72	H	0.034350	0.035641	0.000138
Cl73	Cl	-0.555268	0.397035	0.000071
H74	H	-0.743017	-0.005524	0.566220
H75	H	-0.100021	-0.344916	0.000108
H76	H	-0.575960	0.591865	0.000090
Cl77	Cl	-0.127714	0.150440	0.000152
Cl78	Cl	-0.261777	0.147910	0.000171
Cl79	Cl	-0.556200	0.319871	0.000061
Cl80	Cl	-0.394218	0.063755	0.000118
H81	H	-0.766225	0.462998	0.000128
H82	H	-0.742999	-0.005516	0.245143
Cl83	Cl	-0.528306	0.061226	0.000099
Cl84	Cl	-0.792910	0.159546	0.000151
Cl85	Cl	-0.790375	0.370094	0.000130
Cl86	Cl	-0.585503	-0.254409	0.543162
Cl87	Cl	-0.786916	0.657821	0.000116
Cl88	Cl	-0.760137	0.021556	0.457056
H89	H	-0.207775	-0.346943	0.000089
Cl90	Cl	-0.760163	0.021546	0.778139
H91	H	-0.581458	0.134899	0.000084
H92	H	-0.602653	-0.227342	0.755076
Cl93	Cl	-0.585498	-0.254400	0.457046
H94	H	0.058752	-0.260264	0.000115
H95	H	-0.602620	-0.227323	0.245133
H96	H	-0.380002	-0.268514	0.000093
H97	H	0.166526	-0.258228	0.000121
Cl98	Cl	0.152282	0.074029	0.000120
