data_functionalizedCrystal
_audit_creation_method	'MofGen! by Chris Wilmer'
_symmetry_space_group_name_H-M	'P1'
_symmetry_Int_Tables_number	1
_symmetry_cell_setting	triclinic
loop_
_symmetry_equiv_pos_as_xyz
  x,y,z
_cell_length_a	16.625546
_cell_length_b	16.625548
_cell_length_c	19.805399
_cell_angle_alpha	89.981391
_cell_angle_beta	89.972133
_cell_angle_gamma	90.023536
loop_
_atom_site_label
_atom_site_type_symbol
_atom_site_fract_x
_atom_site_fract_y
_atom_site_fract_z
Zn1	Zn	-0.320997	1.232665	-0.382701
Zn2	Zn	-0.455835	1.232573	-0.269512
Zn3	Zn	-0.321022	1.097831	-0.269527
Zn4	Zn	-0.455794	1.097797	-0.382661
O5	O	-0.388412	1.165216	-0.326100
O6	O	-0.338890	1.345485	-0.367697
O7	O	-0.437979	1.214675	-0.174798
O8	O	-0.208186	1.115770	-0.284563
O9	O	-0.437955	1.345417	-0.284537
O10	O	-0.208168	1.214832	-0.367711
O11	O	-0.338932	1.115681	-0.174809
O12	O	-0.338893	0.984994	-0.284524
O13	O	-0.437886	1.115712	-0.477383
O14	O	-0.437910	0.984969	-0.367643
O15	O	-0.338851	1.214799	-0.477412
O16	O	-0.568662	1.214642	-0.284498
O17	O	-0.568632	1.115622	-0.367628
C18	C	-0.388401	0.955726	-0.326081
C19	C	-0.388415	0.866105	-0.326089
C20	C	-0.388420	0.537929	-0.326118
C21	C	-0.388417	0.629237	-0.326108
C22	C	-0.388418	0.702014	-0.326103
C23	C	-0.388414	0.793328	-0.326094
C24	C	-0.597903	1.165140	-0.326072
C25	C	-0.687524	1.165181	-0.326082
C26	C	-1.015700	1.165322	-0.326153
C27	C	-0.924391	1.165280	-0.326135
C28	C	-0.851615	1.165251	-0.326117
C29	C	-0.760300	1.165211	-0.326100
C30	C	-0.178103	1.165315	-0.326144
C31	C	-0.088482	1.165357	-0.326162
C32	C	-0.388361	1.165262	-0.502643
C33	C	-0.388340	1.165281	-0.577875
C34	C	-0.388424	1.375525	-0.326120
C35	C	-0.388429	1.465146	-0.326128
C36	C	-0.336770	1.216877	-0.613236
C37	C	-0.336746	1.216885	-0.683924
C38	C	-0.388297	1.165301	-0.719251
C39	C	-0.439870	1.113700	-0.683885
C40	C	-0.439888	1.113688	-0.613198
C41	C	-0.439795	1.113745	-0.968959
C42	C	-0.439774	1.113763	-1.039651
C43	C	-0.336652	1.216942	-1.039685
C44	C	-0.336671	1.216930	-0.968998
C45	C	-0.388240	1.165326	-0.933638
C46	C	-0.388264	1.165317	-0.856990
C47	C	-0.388278	1.165314	-0.795898
C48	C	-0.388404	1.165218	-0.150244
C49	C	-0.388199	1.165355	-0.075013
H50	H	-0.294793	1.258885	-0.584478
H51	H	-0.481797	1.071738	-0.940178
H52	H	-0.481754	1.071753	-1.068412
Cl53	Cl	-0.504675	1.048848	-0.728296
H54	H	-0.294755	1.258901	-0.712712
Cl55	Cl	-0.504719	1.048820	-0.568744
Cl56	Cl	-0.271864	1.281784	-0.924591
H57	H	-0.294660	1.258958	-1.068483
