data_functionalizedCrystal
_audit_creation_method	'MofGen! by Chris Wilmer'
_symmetry_space_group_name_H-M	'P1'
_symmetry_Int_Tables_number	1
_symmetry_cell_setting	triclinic
loop_
_symmetry_equiv_pos_as_xyz
  x,y,z
_cell_length_a	15.995343
_cell_length_b	15.995350
_cell_length_c	9.730223
_cell_angle_alpha	90.000899
_cell_angle_beta	90.004116
_cell_angle_gamma	83.490779
loop_
_atom_site_label
_atom_site_type_symbol
_atom_site_fract_x
_atom_site_fract_y
_atom_site_fract_z
O1	O	1.110985	0.107892	-0.114145
O2	O	0.867209	0.121226	-0.114177
O3	O	0.995761	-0.007329	-0.114159
O4	O	0.982433	0.236447	-0.114163
O5	O	0.995759	-0.007326	0.114421
O6	O	0.867207	0.121229	0.114403
O7	O	1.110983	0.107895	0.114435
Zn8	Zn	0.989095	0.114563	0.150711
Zn9	Zn	0.989097	0.114559	-0.150453
O10	O	0.982431	0.236450	0.114417
C11	C	0.836013	0.120678	0.000109
C12	C	0.743062	0.119028	0.000096
C13	C	0.572876	0.116035	0.000114
C14	C	0.549530	0.023238	0.000116
C15	C	0.452852	0.021492	0.000643
C16	C	0.405316	0.113086	0.000131
C17	C	0.434407	0.159748	0.130401
C18	C	0.531199	0.160849	0.130502
C19	C	0.531111	0.162204	-0.129445
C20	C	0.434616	0.158778	-0.131149
C21	C	0.310618	0.111425	0.000145
C22	C	0.667574	0.117699	0.000110
C23	C	0.995209	-0.038522	0.000128
C24	C	0.993557	-0.131472	0.000120
C25	C	0.987625	-0.469220	0.000124
C26	C	0.896072	-0.421783	-0.000401
C27	C	0.897725	-0.325093	0.000115
C28	C	0.990567	-0.301659	0.000121
C29	C	1.035723	-0.342736	0.130655
C30	C	1.033423	-0.439372	0.130764
C31	C	1.035316	-0.439734	-0.129174
C32	C	1.035295	-0.342788	-0.130899
C33	C	0.992235	-0.206962	0.000125
C34	C	0.985960	-0.563917	0.000130
C35	C	1.142179	0.108444	0.000146
C36	C	1.235130	0.110093	0.000150
C37	C	0.982983	0.267643	0.000126
C38	C	0.984635	0.360594	0.000125
N39	N	0.989100	0.114565	0.356247
N40	N	0.989099	0.114549	-0.355990
C41	C	1.046037	0.057660	0.428181
C42	C	1.046035	0.057650	0.572064
C43	C	0.932156	0.171457	0.572066
C44	C	0.932154	0.171463	0.428186
C45	C	1.111787	-0.008043	0.428181
C46	C	1.111785	-0.008053	0.572064
H47	H	0.434415	-0.014860	0.094573
C48	C	0.409540	0.112878	-0.261352
N49	N	0.390646	0.078304	-0.359418
H50	H	1.176008	0.005731	0.611123
C51	C	0.846864	-0.448224	0.125372
N52	N	0.809807	-0.468132	0.220116
C53	C	1.126505	-0.482648	-0.130359
N54	N	1.195185	-0.514977	-0.131243
C55	C	0.550890	0.252781	0.138012
N56	N	0.565718	0.322023	0.143679
H57	H	0.885784	0.217792	0.369618
C58	C	0.990735	-0.305929	-0.261360
N59	N	0.957165	-0.278169	-0.359621
C60	C	0.390117	0.249078	-0.142298
N61	N	0.356601	0.317096	-0.150684
H62	H	1.102999	-0.327428	-0.138775
C63	C	0.550051	0.254477	-0.131153
N64	N	0.564323	0.323973	-0.132431
C65	C	0.846631	-0.446828	-0.126852
N66	N	0.809390	-0.465699	-0.222097
C67	C	0.427158	-0.027867	-0.125475
N68	N	0.407811	-0.065053	-0.220465
C69	C	0.391377	0.250815	0.136464
N70	N	0.358963	0.319405	0.141030
C71	C	1.085006	-0.089974	0.632342
N72	N	1.064832	-0.151673	0.677745
C73	C	0.849450	-0.287442	0.126734
N74	N	0.813089	-0.259085	0.222110
H75	H	0.862229	-0.296671	-0.093457
C76	C	0.988928	-0.464094	0.262570
N77	N	0.955410	-0.482710	0.361847
H78	H	0.577538	-0.012732	-0.093288
C79	C	1.124227	-0.482942	0.138793
N80	N	1.192620	-0.515755	0.144849
H81	H	1.103932	-0.328612	0.135514
H82	H	1.172405	0.011820	0.383563
H83	H	0.578514	-0.012144	0.093396
H84	H	0.557984	0.128914	0.228253
C85	C	0.869518	0.234040	0.651212
N86	N	0.822337	0.281179	0.710824
C87	C	0.993348	-0.304398	0.261882
N88	N	0.961425	-0.275524	0.360719
H89	H	1.098051	-0.072280	0.389126
H90	H	0.559382	0.132925	-0.228216
C91	C	0.407270	0.116497	0.261874
N92	N	0.386832	0.083915	0.360896
H93	H	1.005384	-0.460274	-0.228110
