data_functionalizedCrystal
_audit_creation_method	'MofGen! by Chris Wilmer'
_symmetry_space_group_name_H-M	'P1'
_symmetry_Int_Tables_number	1
_symmetry_cell_setting	triclinic
loop_
_symmetry_equiv_pos_as_xyz
  x,y,z
_cell_length_a	21.295418
_cell_length_b	21.295417
_cell_length_c	12.759393
_cell_angle_alpha	90.037048
_cell_angle_beta	90.041937
_cell_angle_gamma	90.045515
loop_
_atom_site_label
_atom_site_type_symbol
_atom_site_fract_x
_atom_site_fract_y
_atom_site_fract_z
Zn1	Zn	0.962348	-0.250313	0.594561
Zn2	Zn	0.962255	-0.355595	0.418861
Zn3	Zn	0.857075	-0.250373	0.418832
Zn4	Zn	0.857042	-0.355577	0.594434
O5	O	0.909680	-0.302964	0.506672
O6	O	1.050425	-0.264261	0.571320
O7	O	0.948278	-0.341669	0.271836
O8	O	0.871092	-0.162275	0.442184
O9	O	1.050357	-0.341612	0.442234
O10	O	0.948436	-0.162231	0.571291
O11	O	0.871002	-0.264363	0.271815
O12	O	0.768981	-0.264346	0.442060
O13	O	0.871037	-0.341581	0.741472
O14	O	0.768957	-0.341639	0.571075
O15	O	0.948404	-0.264244	0.741565
O16	O	0.948246	-0.443682	0.442110
O17	O	0.870947	-0.443669	0.571103
C18	C	0.746128	-0.302998	0.506551
C19	C	0.676160	-0.303027	0.506524
C20	C	0.643298	-0.343327	0.573601
C21	C	0.577555	-0.343311	0.573649
C22	C	0.544678	-0.303003	0.506600
C23	C	0.577548	-0.262695	0.439518
C24	C	0.643290	-0.262707	0.439480
N25	N	0.441404	-0.298091	0.414709
N26	N	0.378952	-0.298083	0.414748
C27	C	0.346603	-0.302962	0.506711
N28	N	0.379065	-0.307862	0.598637
N29	N	0.441522	-0.307873	0.598597
C30	C	0.473392	-0.302985	0.506634
C31	C	0.242455	-0.343248	0.573845
C32	C	0.176711	-0.343228	0.573894
C33	C	0.176706	-0.262614	0.439754
C34	C	0.242448	-0.262631	0.439715
C35	C	0.275319	-0.302951	0.506759
C36	C	0.909600	-0.466516	0.506619
C37	C	0.909623	-0.536484	0.506631
C38	C	0.949873	-0.569271	0.573906
C39	C	0.949895	-0.635013	0.573931
C40	C	0.909674	-0.667967	0.506664
C41	C	0.869416	-0.635172	0.439385
C42	C	0.869391	-0.569431	0.439369
N43	N	0.904916	-0.771236	0.414715
N44	N	0.904944	-0.833688	0.414734
C45	C	0.909748	-0.866041	0.506712
N46	N	0.914534	-0.833584	0.598673
N47	N	0.914510	-0.771127	0.598653
C48	C	0.909697	-0.739252	0.506675
C49	C	0.950024	-0.970113	0.574020
C50	C	0.950042	-1.035857	0.574048
C51	C	0.869566	-1.036015	0.439492
C52	C	0.869545	-0.970272	0.439474
C53	C	0.909777	-0.937326	0.506736
C54	C	1.073870	-0.302932	0.506794
C55	C	1.143839	-0.302918	0.506846
C56	C	0.909727	-0.302904	0.780706
C57	C	0.909747	-0.302878	0.897482
C58	C	0.909778	-0.138774	0.506748
C59	C	0.909819	-0.068806	0.506781
C60	C	0.909669	-0.302979	0.233705
C61	C	0.909771	-0.302828	0.116929
C62	C	0.950036	-0.262602	0.952395
C63	C	0.950046	-0.262575	1.062119
C64	C	0.869478	-0.343105	1.062009
C65	C	0.869465	-0.343129	0.952286
H66	H	0.670046	-0.229888	0.384858
H67	H	0.836653	-0.375926	0.907576
F68	F	0.992689	-0.534210	0.645498
H69	H	0.836772	-0.943576	0.384688
H70	H	0.670057	-0.376158	0.628196
H71	H	0.982834	-0.229826	0.907776
F72	F	0.992931	-0.219712	1.120556
H73	H	0.550793	-0.376128	0.628275
F74	F	0.826612	-0.385943	1.120344
H75	H	0.982782	-0.943287	0.628793
H76	H	0.550775	-0.229874	0.384928
F77	F	0.992739	-0.669914	0.645532
F78	F	0.277441	-0.386156	0.645203
F79	F	0.141737	-0.386120	0.645297
F80	F	0.141720	-0.219711	0.368401
H81	H	0.269205	-0.229817	0.385088
H82	H	0.836667	-0.662007	0.384618
H83	H	0.836614	-0.542735	0.384585
F84	F	0.992877	-1.070751	0.645665
H85	H	0.836813	-1.062845	0.384728
