data_functionalizedCrystal
_audit_creation_method	'MofGen! by Chris Wilmer'
_symmetry_space_group_name_H-M	'P1'
_symmetry_Int_Tables_number	1
_symmetry_cell_setting	triclinic
loop_
_symmetry_equiv_pos_as_xyz
  x,y,z
_cell_length_a	14.908780
_cell_length_b	14.908977
_cell_length_c	14.908308
_cell_angle_alpha	90.159711
_cell_angle_beta	89.787311
_cell_angle_gamma	89.825272
loop_
_atom_site_label
_atom_site_type_symbol
_atom_site_fract_x
_atom_site_fract_y
_atom_site_fract_z
Zn1	Zn	-1.364364	0.313498	0.570888
Zn2	Zn	-1.381499	0.454268	0.412905
Zn3	Zn	-1.222618	0.312524	0.411908
Zn4	Zn	-1.223567	0.471424	0.553593
O5	O	-1.298012	0.387928	0.487323
O6	O	-1.492053	0.325399	0.557586
O7	O	-1.367197	0.427878	0.287360
O8	O	-1.233853	0.187240	0.439818
O9	O	-1.504642	0.428822	0.441516
O10	O	-1.337993	0.187956	0.556620
O11	O	-1.250468	0.323739	0.286628
O12	O	-1.097328	0.340374	0.423048
O13	O	-1.235470	0.458062	0.681299
O14	O	-1.098025	0.457117	0.527143
O15	O	-1.338913	0.342035	0.694006
O16	O	-1.368117	0.581956	0.424746
O17	O	-1.252086	0.594561	0.528109
C18	C	-1.065158	0.400502	0.473111
C19	C	-0.965542	0.405905	0.467051
C20	C	-0.765242	0.308529	0.576694
C21	C	-0.671644	0.313602	0.571003
C22	C	-0.684745	0.421118	0.449975
C23	C	-0.778343	0.416045	0.455666
C24	C	-0.818588	0.359750	0.519028
C25	C	-0.912188	0.354682	0.524723
C26	C	-0.925288	0.462193	0.403691
C27	C	-0.831690	0.467266	0.398001
C28	C	-1.312087	0.620777	0.474680
C29	C	-1.318189	0.720388	0.469307
C30	C	-0.531776	0.375298	0.501585
C31	C	-0.631391	0.369895	0.507647
C32	C	-1.208726	0.920757	0.566735
C33	C	-1.214456	1.014350	0.561689
C34	C	-1.335375	1.001170	0.454164
C35	C	-1.329644	0.907577	0.459210
C36	C	-1.266319	0.867373	0.515498
C37	C	-1.260594	0.773778	0.520549
C38	C	-1.381507	0.760600	0.413020
C39	C	-1.387237	0.854194	0.407974
C40	C	-1.285386	0.402071	0.721080
C41	C	-1.280006	0.408098	0.820693
C42	C	-1.283877	1.154171	0.500025
C43	C	-1.277779	1.054561	0.505406
C44	C	-1.310636	0.373773	0.254483
C45	C	-1.316175	0.367485	0.154895
C46	C	-1.377606	0.298582	1.021110
C47	C	-1.372554	0.304242	1.114706
C48	C	-1.264843	0.425071	1.101481
C49	C	-1.269896	0.419411	1.007886
C50	C	-1.326281	0.356166	0.967704
C51	C	-1.331338	0.350511	0.874106
C52	C	-1.223623	0.471336	0.860884
C53	C	-1.218570	0.476995	0.954479
H54	H	-0.651961	0.466940	0.398380
N55	N	-0.979769	0.514530	0.344782
N56	N	-0.974003	0.598153	0.345473
H57	H	-1.012480	0.635119	0.303872
H58	H	-1.167560	1.057812	0.603413
N59	N	-1.440344	0.706072	0.360678
N60	N	-1.523350	0.712340	0.371177
H61	H	-1.564902	0.673827	0.334214
N62	N	-1.400047	1.042232	0.396653
N63	N	-1.451458	0.994561	0.350897
H64	H	-1.497129	1.023559	0.310272
N65	N	-0.617140	0.261284	0.629899
N66	N	-0.563140	0.205057	0.598388
H67	H	-0.524646	0.168105	0.639985
H68	H	-1.209033	0.741046	0.566384
H69	H	-1.157170	0.888023	0.612574
N70	N	-1.451905	0.895268	0.350467
N71	N	-1.426703	0.945785	0.288589
H72	H	-1.472376	0.974794	0.247973
N73	N	-1.388938	0.285910	0.833073
N74	N	-1.434759	0.234500	0.880772
H75	H	-1.475440	0.188871	0.851796
H76	H	-1.423522	0.247090	0.988393
N77	N	-0.790562	0.524757	0.333282
N78	N	-0.706992	0.529277	0.328206
H79	H	-0.677945	0.569883	0.282498
N80	N	-1.424982	0.245409	1.169246
N81	N	-1.475314	0.188944	1.133353
H82	H	-1.512342	0.147389	1.171872
H83	H	-1.218938	0.476562	1.134214
H84	H	-1.181832	0.518227	0.817390
N85	N	-0.953286	0.297179	0.589450
N86	N	-0.905640	0.251450	0.640930
H87	H	-0.934662	0.210834	0.686645
N88	N	-0.806343	0.251032	0.641424
N89	N	-0.758701	0.205307	0.692912
H90	H	-0.787726	0.164697	0.738629
N91	N	-1.160977	0.541585	0.995543
N92	N	-1.156469	0.546628	1.079110
H93	H	-1.115794	0.592247	1.108111
