data_functionalizedCrystal
_audit_creation_method	'MofGen! by Chris Wilmer'
_symmetry_space_group_name_H-M	'P1'
_symmetry_Int_Tables_number	1
_symmetry_cell_setting	triclinic
loop_
_symmetry_equiv_pos_as_xyz
  x,y,z
_cell_length_a	14.971486
_cell_length_b	10.489741
_cell_length_c	13.448316
_cell_angle_alpha	89.993703
_cell_angle_beta	89.998199
_cell_angle_gamma	84.076651
loop_
_atom_site_label
_atom_site_type_symbol
_atom_site_fract_x
_atom_site_fract_y
_atom_site_fract_z
O1	O	1.187893	0.166222	-0.082577
O2	O	0.927607	0.186128	-0.082604
O3	O	1.063673	-0.009491	-0.082584
O4	O	1.051827	0.361841	-0.082597
O5	O	1.063655	-0.009503	0.082800
O6	O	0.927589	0.186116	0.082780
O7	O	1.187876	0.166210	0.082807
Cu8	Cu	1.057731	0.176162	0.097894
Cu9	Cu	1.057752	0.176176	-0.097691
O10	O	1.051810	0.361829	0.082787
C11	C	0.894268	0.185232	0.000085
C12	C	0.794956	0.182564	0.000074
C13	C	0.738385	0.297485	0.000072
C14	C	0.645071	0.294971	0.000087
C15	C	0.608330	0.177534	0.000097
C16	C	0.664909	0.062604	0.000103
C17	C	0.758221	0.065120	0.000095
C18	C	0.470416	0.057369	0.000117
C19	C	0.377098	0.054853	0.000123
C20	C	0.357267	0.287220	0.000108
C21	C	0.450579	0.289736	0.000101
C22	C	0.507151	0.174805	0.000104
C23	C	1.062769	-0.057019	0.000107
C24	C	1.060093	-0.198617	0.000105
C25	C	0.973518	-0.265755	0.000089
C26	C	1.014406	-0.358357	0.081636
C27	C	1.014444	-0.358320	-0.081419
C28	C	1.101017	-0.289354	0.081720
C29	C	1.101043	-0.289307	-0.081409
C30	C	1.141994	-0.381882	0.000158
C31	C	1.221215	0.167106	0.000116
C32	C	1.320527	0.169774	0.000120
C33	C	1.052713	0.409357	0.000094
C34	C	1.055390	0.550955	0.000089
N35	N	1.057723	0.176151	0.235459
N36	N	1.057766	0.176177	-0.235255
C37	C	1.117992	0.089567	0.287508
C38	C	1.117998	0.089566	0.391611
C39	C	1.057738	0.176156	0.443663
C40	C	0.997462	0.262745	0.391607
C41	C	0.997453	0.262739	0.287505
C42	C	0.997487	0.262753	0.608587
C43	C	0.997497	0.262761	0.712695
C44	C	1.118032	0.089580	0.712693
C45	C	1.118023	0.089574	0.608591
C46	C	1.057748	0.176165	0.556542
H47	H	0.599014	0.388551	0.000083
C48	C	1.150499	-0.247921	-0.174537
C49	C	1.236270	-0.179795	-0.163428
C50	C	1.285719	-0.138405	-0.256565
C51	C	1.249397	-0.165141	-0.360811
C52	C	1.163622	-0.233271	-0.371924
C53	C	1.114173	-0.274661	-0.278787
H54	H	1.263161	-0.160000	-0.086255
H55	H	1.349215	-0.087970	-0.248338
H56	H	1.286002	-0.134501	-0.429757
H57	H	1.136731	-0.253066	-0.449097
H58	H	1.050677	-0.325095	-0.287014
H59	H	0.948402	0.333261	0.566212
H60	H	1.213239	-0.432131	0.000211
H61	H	0.634987	-0.033015	0.000126
H62	H	0.804281	-0.028461	0.000097
H63	H	0.480489	0.385363	0.000083
C64	C	0.964914	-0.399700	0.174760
C65	C	0.866202	-0.347921	0.192664
C66	C	0.816703	-0.389259	0.285783
C67	C	0.865916	-0.482377	0.360998
C68	C	0.964633	-0.534161	0.343095
C69	C	1.014132	-0.492823	0.249977
H70	H	0.829767	-0.278985	0.136984
H71	H	0.743626	-0.350924	0.299035
H72	H	0.829274	-0.512978	0.429930
H73	H	1.001068	-0.603097	0.398776
H74	H	1.087209	-0.531158	0.236725
H75	H	0.948375	0.333243	0.245128
C76	C	1.150450	-0.248292	0.174964
C77	C	1.248880	-0.301100	0.193387
C78	C	1.298309	-0.260034	0.286630
C79	C	1.249308	-0.166159	0.361450
C80	C	1.150872	-0.113345	0.343029
C81	C	1.101443	-0.154412	0.249786
H82	H	1.285159	-0.370597	0.137999
H83	H	1.371178	-0.299131	0.300266
H84	H	1.285898	-0.135760	0.430474
H85	H	1.114594	-0.043848	0.398417
H86	H	1.028574	-0.115315	0.236149
H87	H	0.977809	-0.388855	-0.150368
H88	H	1.167067	0.019060	0.245134
C89	C	0.532649	-0.069052	0.000119
C90	C	0.528008	-0.165259	0.086000
C91	C	0.590242	-0.291676	0.085996
C92	C	0.657117	-0.321886	0.000112
C93	C	0.661760	-0.225677	-0.085775
C94	C	0.599527	-0.099260	-0.085771
H95	H	0.478501	-0.142897	0.149582
H96	H	0.586804	-0.362895	0.149576
H97	H	0.703186	-0.415467	0.000110
H98	H	0.711268	-0.248039	-0.149357
H99	H	0.602965	-0.028041	-0.149351
C100	C	0.931204	0.358005	0.769950
C101	C	0.864899	0.453235	0.712695
C102	C	0.798603	0.548480	0.769947
C103	C	0.798613	0.548495	0.884454
C104	C	0.864920	0.453262	0.941716
C105	C	0.931216	0.358017	0.884464
H106	H	0.864889	0.453226	0.627924
H107	H	0.749518	0.618978	0.727557
H108	H	0.749537	0.619001	0.926836
H109	H	0.864930	0.453270	1.026487
H110	H	0.980301	0.287519	0.926853
H111	H	0.768291	0.393115	0.000063
H112	H	0.902336	-0.215280	0.000164
H113	H	1.167073	0.019061	0.433989
H114	H	1.167095	0.019072	0.566211
H115	H	0.948393	0.333244	0.433993
H116	H	0.311201	0.380801	0.000110
H117	H	0.347187	-0.040774	0.000132
H118	H	1.167109	0.019075	0.755077
