data_functionalizedCrystal
_audit_creation_method	'MofGen! by Chris Wilmer'
_symmetry_space_group_name_H-M	'P1'
_symmetry_Int_Tables_number	1
_symmetry_cell_setting	triclinic
loop_
_symmetry_equiv_pos_as_xyz
  x,y,z
_cell_length_a	8.597213
_cell_length_b	10.654541
_cell_length_c	7.088929
_cell_angle_alpha	83.716231
_cell_angle_beta	88.663806
_cell_angle_gamma	84.909053
loop_
_atom_site_label
_atom_site_type_symbol
_atom_site_fract_x
_atom_site_fract_y
_atom_site_fract_z
O1	O	2.034862	0.226984	-0.494171
O2	O	1.585513	0.235446	-0.420158
O3	O	1.820522	0.048667	-0.458855
O4	O	1.799853	0.413764	-0.455474
O5	O	1.851928	0.023647	-0.146051
O6	O	1.616919	0.210427	-0.107354
O7	O	2.066268	0.201965	-0.181367
Cu8	Cu	1.844461	0.203911	-0.115799
Cu9	Cu	1.807320	0.233500	-0.485726
O10	O	1.831259	0.388744	-0.142670
C11	C	1.543679	0.220634	-0.254279
C12	C	1.372236	0.213759	-0.226040
C13	C	1.834708	-0.010669	-0.302204
C14	C	1.830170	-0.150197	-0.301460
C15	C	2.111188	-0.172951	-0.347723
C16	C	2.249559	-0.249877	-0.370498
C17	C	2.245286	-0.380974	-0.369800
C18	C	2.102625	-0.435146	-0.346330
C19	C	1.964254	-0.358220	-0.323555
C20	C	1.968544	-0.227122	-0.324250
C21	C	1.683238	-0.335465	-0.277306
C22	C	1.687510	-0.204369	-0.277990
C23	C	1.540577	-0.389637	-0.253836
C24	C	1.402204	-0.312712	-0.231046
C25	C	1.406484	-0.181607	-0.231743
C26	C	1.549138	-0.127443	-0.255214
C27	C	2.108102	0.216777	-0.347250
C28	C	2.279543	0.223654	-0.375502
C29	C	1.817072	0.448081	-0.299325
C30	C	1.821609	0.587609	-0.300081
N31	N	1.870596	0.183100	0.144386
N32	N	1.781198	0.254302	-0.745912
H33	H	1.320427	0.200031	-0.076472
O34	O	1.658435	0.352019	0.166172
H35	H	1.660576	0.350276	0.009863
O36	O	1.257236	-0.098640	-0.207181
H37	H	1.265255	-0.048568	-0.078900
O38	O	1.993341	0.085367	0.232334
H39	H	2.110160	0.107384	0.174762
H40	H	1.331343	0.237395	-0.525059
H41	H	2.365713	-0.205757	-0.389591
H42	H	2.114685	-0.066208	-0.348268
H43	H	2.357958	-0.443607	-0.388361
H44	H	1.537106	-0.496383	-0.253281
O45	O	2.098006	-0.576543	-0.345576
H46	H	2.218190	-0.620934	-0.365348
O47	O	1.248347	-0.371136	-0.205741
H48	H	1.194580	-0.350723	-0.067291
O49	O	1.553749	0.013955	-0.255971
H50	H	1.676190	0.038696	-0.276133
