data_functionalizedCrystal
_audit_creation_method	'MofGen! by Chris Wilmer'
_symmetry_space_group_name_H-M	'P1'
_symmetry_Int_Tables_number	1
_symmetry_cell_setting	triclinic
loop_
_symmetry_equiv_pos_as_xyz
  x,y,z
_cell_length_a	10.968094
_cell_length_b	11.792254
_cell_length_c	10.065875
_cell_angle_alpha	98.849918
_cell_angle_beta	93.118877
_cell_angle_gamma	84.459577
loop_
_atom_site_label
_atom_site_type_symbol
_atom_site_fract_x
_atom_site_fract_y
_atom_site_fract_z
O1	O	1.614166	0.197939	0.266098
O2	O	2.114166	0.697939	0.766098
O3	O	1.264149	0.201188	0.183784
O4	O	1.764149	0.701188	0.683784
O5	O	1.447642	0.034705	0.226946
O6	O	1.947642	0.534705	0.726946
O7	O	1.430673	0.364422	0.222936
O8	O	1.930673	0.864422	0.722936
O9	O	1.412653	0.066584	0.445705
O10	O	1.912653	0.566584	0.945705
O11	O	1.229160	0.233067	0.402543
O12	O	1.729160	0.733067	0.902543
O13	O	1.579177	0.229818	0.484857
O14	O	2.079177	0.729818	0.984857
Zn15	Zn	1.398613	0.236504	0.478432
Zn16	Zn	1.898613	0.736504	0.978432
Zn17	Zn	1.444713	0.194502	0.190209
Zn18	Zn	1.944713	0.694502	0.690209
O19	O	1.395684	0.396301	0.441695
O20	O	1.895684	0.896301	0.941695
C21	C	1.201844	0.214484	0.282625
C22	C	1.701844	0.714484	0.782625
C23	C	1.068324	0.206593	0.251226
C24	C	1.568324	0.706593	0.751226
C25	C	0.852666	0.211420	0.318089
C26	C	1.352666	0.711420	0.818089
C27	C	0.990663	0.219586	0.350555
C28	C	1.490663	0.719586	0.850555
C29	C	1.429078	0.008315	0.336074
C30	C	1.929078	0.508315	0.836074
C31	C	1.425879	-0.117815	0.335320
C32	C	1.925879	0.382185	0.835320
C33	C	1.423279	-0.220247	0.334704
C34	C	1.923279	0.279753	0.834704
C35	C	1.420030	-0.348754	0.333927
C36	C	1.920030	0.151246	0.833927
C37	C	1.641482	0.216522	0.386012
C38	C	2.141482	0.716522	0.886012
C39	C	1.775004	0.224412	0.417404
C40	C	2.275004	0.724412	0.917404
C41	C	1.414248	0.422691	0.332564
C42	C	1.914248	0.922691	0.832564
C43	C	1.417449	0.548820	0.333310
C44	C	1.917449	1.048820	0.833310
N45	N	1.367161	0.265170	0.675139
N46	N	1.867161	0.765170	1.175139
N47	N	1.476175	0.165828	-0.006496
N48	N	1.976175	0.665828	0.493504
C49	C	1.433762	0.204468	0.758584
C50	C	1.933762	0.704468	1.258584
C51	C	1.409564	0.226539	0.910060
C52	C	1.909564	0.726539	1.410060
H53	H	0.810678	0.241574	0.526467
H54	H	1.310678	0.741574	1.026467
N55	N	1.575448	0.075345	0.939615
N56	N	2.075448	0.575345	1.439615
H57	H	1.616569	0.037870	1.016115
H58	H	2.116569	0.537870	1.516115
H59	H	1.537998	0.015031	0.871534
H60	H	2.037998	0.515031	1.371534
H61	H	1.292222	0.333474	0.715838
H62	H	1.792222	0.833474	1.215838
H63	H	0.816993	0.194246	0.209026
H64	H	1.316993	0.694246	0.709026
N65	N	1.532993	0.113953	0.704683
N66	N	2.032993	0.613953	1.204683
H67	H	1.536200	0.111004	0.604111
H68	H	2.036200	0.611004	1.104111
H69	H	1.614657	0.133947	0.748753
H70	H	2.114657	0.633947	1.248753
N71	N	1.037894	0.242321	0.495034
N72	N	1.537894	0.742321	0.995034
H73	H	1.129779	0.244931	0.497748
H74	H	1.629779	0.744931	0.997748
H75	H	0.998399	0.318541	0.539804
H76	H	1.498399	0.818541	1.039804
N77	N	1.021098	0.183840	0.106746
N78	N	1.521098	0.683840	0.606746
H79	H	0.929213	0.181229	0.104028
H80	H	1.429213	0.681229	0.604028
H81	H	1.042012	0.247462	0.057597
H82	H	1.542012	0.747462	0.557597
N83	N	1.310290	0.317021	0.963946
N84	N	1.810290	0.817021	1.463946
H85	H	1.307073	0.319960	1.064516
H86	H	1.807073	0.819960	1.564516
H87	H	1.328762	0.394625	0.943381
H88	H	1.828762	0.894625	1.443381
