data_functionalizedCrystal
_audit_creation_method	'MofGen! by Chris Wilmer'
_symmetry_space_group_name_H-M	'P1'
_symmetry_Int_Tables_number	1
_symmetry_cell_setting	triclinic
loop_
_symmetry_equiv_pos_as_xyz
  x,y,z
_cell_length_a	14.395555
_cell_length_b	23.196402
_cell_length_c	23.196402
_cell_angle_alpha	90.005244
_cell_angle_beta	60.002323
_cell_angle_gamma	60.001199
loop_
_atom_site_label
_atom_site_type_symbol
_atom_site_fract_x
_atom_site_fract_y
_atom_site_fract_z
Zr1	Zr	1.016776	0.555383	-0.075659
O2	O	1.210572	0.463327	-0.167712
O3	O	0.822980	0.583601	-0.047439
O4	O	1.016773	0.583594	-0.167709
O5	O	1.016782	0.463342	0.047429
O6	O	1.016771	0.678465	-0.167708
O7	O	1.016779	0.463334	-0.047441
O8	O	0.670111	0.678477	0.047433
O9	O	1.363442	0.463330	-0.167713
O10	O	0.902690	0.666439	-0.035404
O11	O	0.902693	0.595644	0.035396
O12	O	1.130859	0.595636	-0.106207
O13	O	1.130863	0.524841	-0.035407
Zr14	Zr	1.016776	0.706705	0.075649
Zr15	Zr	1.016772	0.706692	-0.075658
Zr16	Zr	1.016780	0.555396	0.075648
Zr17	Zr	1.260585	0.555388	-0.075661
Zr18	Zr	0.772967	0.706700	0.075651
O19	O	1.210572	0.678487	0.047428
O20	O	1.210567	0.678469	-0.167710
O21	O	1.210577	0.463345	0.047427
O22	O	0.822980	0.798761	0.167701
O23	O	0.822975	0.798742	-0.047437
O24	O	0.822986	0.583619	0.167700
O25	O	1.016771	0.798746	-0.047439
O26	O	1.016779	0.678494	0.167699
O27	O	1.016782	0.583622	0.167698
O28	O	1.016773	0.798754	0.047431
O29	O	1.363439	0.583600	-0.167712
O30	O	0.670114	0.678487	0.167702
O31	O	0.670111	0.798758	0.167703
O32	O	0.670108	0.798747	0.047434
O33	O	1.363445	0.463340	-0.047445
O34	O	1.363442	0.583611	-0.047444
O35	O	0.902693	0.666451	0.106197
O36	O	0.902690	0.737247	0.035397
O37	O	1.130859	0.666444	-0.035406
O38	O	1.130863	0.595648	0.035394
C39	C	0.711808	0.631038	-0.000002
C40	C	0.608305	0.631036	-0.000001
C41	C	1.016781	0.631060	0.189256
C42	C	1.016783	0.631065	0.253490
C43	C	1.016771	0.820308	-0.000004
C44	C	1.016770	0.884543	-0.000003
C45	C	0.547714	0.592438	0.038604
C46	C	0.561970	0.564455	-0.027971
C47	C	0.409653	0.659002	0.066554
C48	C	0.623986	0.603014	-0.066616
C49	C	0.471607	0.697599	0.027957
C50	C	0.485909	0.669632	-0.038658
C51	C	1.321744	0.631050	-0.000008
C52	C	1.425248	0.631051	-0.000009
C53	C	1.016781	0.441779	-0.000007
C54	C	1.016783	0.377545	-0.000007
C55	C	0.897671	0.951674	0.036959
C56	C	0.897670	1.012030	0.036955
C57	C	1.016773	1.005249	-0.000001
C58	C	1.135887	0.938105	-0.036971
C59	C	1.135886	0.877752	-0.036972
C60	C	1.108024	1.072553	0.005277
C61	C	1.108020	1.132906	0.005284
C62	C	1.016783	1.191397	-0.000001
C63	C	0.925527	1.189533	-0.005278
C64	C	0.925525	1.129180	-0.005279
C65	C	1.016788	1.070688	-0.000004
C66	C	0.897675	1.323975	0.036959
C67	C	0.897678	1.384330	0.036951
C68	C	1.135899	1.310403	-0.036971
C69	C	1.135892	1.250051	-0.036967
C70	C	1.016776	1.256841	0.000002
C71	C	1.016771	0.631028	-0.189267
C72	C	1.016770	0.631022	-0.253500
C73	C	1.135881	0.594110	0.246707
C74	C	1.135883	0.594100	0.307061
C75	C	1.016779	0.631058	0.374198
C76	C	0.897665	0.668015	0.380979
C77	C	0.897667	0.668019	0.320625
C78	C	0.925529	0.692959	0.498137
C79	C	0.925532	0.692958	0.558488
C80	C	1.016769	0.631047	0.560352
C81	C	1.108025	0.569137	0.501850
C82	C	1.108027	0.569141	0.441496
C83	C	1.016764	0.631058	0.439646
C84	C	1.135878	0.594076	0.619009
C85	C	1.135875	0.594064	0.679366
C86	C	0.897653	0.667987	0.753284
C87	C	0.897660	0.667992	0.692927
C88	C	1.016776	0.631039	0.625792
C89	C	0.711803	0.820303	-0.000001
C90	C	0.608298	0.884535	0.000000
C91	C	0.711813	0.631054	0.189259
C92	C	0.608311	0.631058	0.253494
C93	C	0.711808	0.820319	0.189260
C94	C	0.608305	0.884557	0.253495
C95	C	1.321744	0.441769	-0.189271
C96	C	1.425248	0.377531	-0.253506
C97	C	1.321749	0.441785	-0.000009
C98	C	1.425254	0.377552	-0.000011
C99	C	1.321740	0.631033	-0.189270
C100	C	1.425241	0.631030	-0.253504
C101	C	0.559691	0.877739	-0.036963
C102	C	0.462451	0.938086	-0.036975
C103	C	0.413812	1.005230	-0.000021
C104	C	0.462429	1.012025	0.036943
C105	C	0.559674	0.951678	0.036952
C106	C	0.559705	0.668020	0.320623
C107	C	0.462468	0.668021	0.380984
C108	C	0.413831	0.631063	0.374214
C109	C	0.462447	0.594096	0.307078
C110	C	0.559689	0.594091	0.246719
C111	C	0.559697	0.951684	0.246704
C112	C	0.462458	1.012049	0.307054
C113	C	0.413822	1.005284	0.374194
C114	C	0.462440	0.938149	0.380984
C115	C	0.559683	0.877786	0.320635
C116	C	1.473868	0.310403	-0.246714
C117	C	1.571137	0.250039	-0.307064
C118	C	1.619778	0.256804	-0.374205
C119	C	1.571154	0.323939	-0.380995
C120	C	1.473893	0.384302	-0.320646
C121	C	1.473871	0.384349	0.036946
C122	C	1.571139	0.324001	0.036942
C123	C	1.619780	0.256858	-0.000015
C124	C	1.571159	0.250063	-0.036976
C125	C	1.473900	0.310410	-0.036976
C126	C	1.473847	0.667995	-0.246712
C127	C	1.571085	0.668006	-0.307061
C128	C	1.619722	0.631046	-0.374202
C129	C	1.571107	0.594080	-0.380993
C130	C	1.473864	0.594074	-0.320644
H131	H	0.574942	0.559752	0.071203
H132	H	1.232873	0.823089	-0.067073
Br133	Br	0.396402	1.103154	0.087095
Br134	Br	1.407925	0.301173	-0.087133
H135	H	0.851232	0.743369	0.606115
H136	H	1.232869	0.563983	0.564345
Br137	Br	1.751776	0.174965	-0.000008
H138	H	1.182344	1.134412	0.009566
H139	H	1.610770	0.329439	-0.435668
Br140	Br	0.281859	0.631075	0.456139
Br141	Br	1.637184	0.158934	-0.087126
H142	H	0.800682	1.066698	0.067067
Br143	Br	0.801758	1.268889	-0.012503
H144	H	0.800689	1.438993	0.067045
H145	H	0.599238	0.957222	0.067055
Br146	Br	0.440988	0.724037	-0.093149
H147	H	0.599156	0.508169	-0.051626
H148	H	0.599292	0.823073	-0.067064
H149	H	1.434262	0.698092	-0.192048
Br150	Br	1.637048	0.718175	-0.297829
H151	H	1.434270	0.304882	-0.192051
H152	H	0.599295	0.698116	0.326148
Br153	Br	0.736022	1.333186	0.087123
H154	H	0.422897	0.698126	0.435643
Br155	Br	1.637103	0.158937	-0.297833
Br156	Br	1.407883	0.475465	0.087105
H157	H	0.434440	0.753872	0.051628
Br158	Br	1.297543	1.301194	-0.087147
Br159	Br	0.281835	1.087123	-0.000039
Br160	Br	1.297535	1.158938	-0.087127
H161	H	0.422832	0.564005	0.301577
Br162	Br	1.231869	0.993171	0.012440
H163	H	0.318046	0.682647	0.122842
Br164	Br	0.396494	1.103151	0.297822
Br165	Br	0.625636	0.543926	0.155617
Br166	Br	1.751698	0.631061	-0.456098
H167	H	1.434307	0.438958	-0.326184
H168	H	1.698973	0.207647	-0.423339
H169	H	1.610722	0.563989	-0.435667
H170	H	1.434300	0.563969	-0.326184
Br171	Br	0.625634	0.786686	0.329865
H172	H	0.851219	0.743377	0.496631
H173	H	0.715551	0.579303	-0.122930
H174	H	0.599281	0.957206	0.192040
H175	H	1.610710	0.329548	0.067043
Br176	Br	1.297530	0.928901	-0.087128
H177	H	1.232875	0.564018	0.192046
Br178	Br	0.736015	0.960892	0.087133
H179	H	0.851224	1.127666	-0.009578
Br180	Br	0.281847	1.087213	0.456091
Br181	Br	0.396421	0.928980	0.472109
H182	H	1.232870	0.564003	0.301537
H183	H	1.182320	0.518723	0.503364
Br184	Br	1.231862	0.485125	0.362106
H185	H	0.800677	0.698075	0.807948
Br186	Br	1.297523	0.543884	0.670157
Br187	Br	0.736017	0.718151	0.702133
Br188	Br	0.736020	0.718176	0.329832
Br189	Br	0.396489	0.928848	-0.087143
Br190	Br	0.736023	0.718168	0.472093
