data_functionalizedCrystal
_audit_creation_method	'MofGen! by Chris Wilmer'
_symmetry_space_group_name_H-M	'P1'
_symmetry_Int_Tables_number	1
_symmetry_cell_setting	triclinic
loop_
_symmetry_equiv_pos_as_xyz
  x,y,z
_cell_length_a	12.759401
_cell_length_b	17.637651
_cell_length_c	12.759393
_cell_angle_alpha	78.749777
_cell_angle_beta	89.980163
_cell_angle_gamma	101.220604
loop_
_atom_site_label
_atom_site_type_symbol
_atom_site_fract_x
_atom_site_fract_y
_atom_site_fract_z
Zn1	Zn	1.521697	-0.314692	-0.509354
Zn2	Zn	1.486059	-0.446931	-0.298096
Zn3	Zn	1.345987	-0.314737	-0.333677
Zn4	Zn	1.310471	-0.446874	-0.473749
O5	O	1.416054	-0.380808	-0.403719
O6	O	1.663989	-0.332239	-0.481341
O7	O	1.467427	-0.429438	-0.155783
O8	O	1.399074	-0.204088	-0.386773
O9	O	1.637806	-0.429395	-0.326130
O10	O	1.528168	-0.204056	-0.515842
O11	O	1.364517	-0.332316	-0.181925
O12	O	1.194257	-0.332259	-0.352248
O13	O	1.338541	-0.429297	-0.625505
O14	O	1.168163	-0.429340	-0.455158
O15	O	1.493729	-0.332183	-0.651664
O16	O	1.432988	-0.557566	-0.291605
O17	O	1.303984	-0.557524	-0.420656
C18	C	1.143089	-0.380799	-0.403701
C19	C	1.026308	-0.380814	-0.403713
C20	C	0.957866	-0.431440	-0.457172
C21	C	0.848141	-0.431443	-0.457192
C22	C	0.875311	-0.330191	-0.350286
C23	C	0.985035	-0.330184	-0.350273
C24	C	1.360794	-0.586233	-0.348429
C25	C	1.337249	-0.674115	-0.324811
C26	C	1.595600	-0.962767	-0.583475
C27	C	1.573443	-1.045345	-0.561264
C28	C	1.439108	-1.045486	-0.426735
C29	C	1.461257	-0.962906	-0.448931
C30	C	1.539504	-0.921553	-0.527303
C31	C	1.405161	-0.921693	-0.392759
C32	C	1.427304	-0.839120	-0.414958
C33	C	1.505545	-0.797761	-0.493328
C34	C	1.561647	-0.838980	-0.549502
C35	C	1.326909	-0.963048	-0.314392
C36	C	1.270813	-0.921834	-0.258220
C37	C	1.292961	-0.839260	-0.280413
C38	C	1.371202	-0.797901	-0.358784
C39	C	1.236859	-0.798041	-0.224240
C40	C	1.259003	-0.715468	-0.246439
C41	C	1.393346	-0.715328	-0.380983
C42	C	1.690084	-0.380819	-0.403738
C43	C	1.806860	-0.380823	-0.403746
C44	C	1.416148	-0.380728	-0.677774
C45	C	1.416189	-0.380694	-0.794560
C46	C	1.471558	-0.174581	-0.459248
C47	C	1.495211	-0.086700	-0.482911
C48	C	1.362630	-0.330113	-0.863036
C49	C	1.362661	-0.330089	-0.972767
C50	C	1.469818	-0.431229	-0.945535
C51	C	1.469780	-0.431257	-0.835806
C52	C	1.416035	-0.380831	-0.130746
C53	C	1.416258	-0.380642	-0.014020
H54	H	0.792419	-0.472668	-0.500725
C55	C	1.681674	-0.917273	-0.669691
N56	N	1.746498	-0.883008	-0.734629
H57	H	1.040765	-0.288953	-0.306741
C58	C	0.829898	-0.274506	-0.291498
N59	N	0.795694	-0.232565	-0.247215
C60	C	1.303750	-0.274441	-1.048087
N61	N	1.259376	-0.232524	-1.104819
C62	C	1.528489	-0.487017	-0.990870
N63	N	1.572581	-0.529100	-1.024998
C64	C	1.479420	-0.669835	-0.467198
N65	N	1.544244	-0.635569	-0.532137
H66	H	1.513396	-0.472449	-0.780049
C67	C	1.647721	-0.793487	-0.635717
N68	N	1.712546	-0.759221	-0.700656
C69	C	1.353105	-1.090984	-0.340462
N70	N	1.288353	-1.125253	-0.275453
C71	C	1.635160	-1.090677	-0.623065
N72	N	1.681643	-1.124821	-0.669614
H73	H	1.523574	-0.730525	-0.511401
C74	C	1.003264	-0.487128	-0.515967
N75	N	1.037455	-0.529071	-0.560257
H76	H	1.213322	-0.681912	-0.200698
C77	C	1.184810	-0.967332	-0.171947
N78	N	1.120058	-1.001601	-0.106939
H79	H	1.308872	-1.030284	-0.296331
H80	H	1.173144	-0.831723	-0.160437
C81	C	1.303668	-0.274500	-0.817668
N82	N	1.259252	-0.232612	-0.783500
