data_functionalizedCrystal
_audit_creation_method	'MofGen! by Chris Wilmer'
_symmetry_space_group_name_H-M	'P1'
_symmetry_Int_Tables_number	1
_symmetry_cell_setting	triclinic
loop_
_symmetry_equiv_pos_as_xyz
  x,y,z
_cell_length_a	18.050590
_cell_length_b	18.050590
_cell_length_c	17.077396
_cell_angle_alpha	89.970225
_cell_angle_beta	89.996080
_cell_angle_gamma	90.007719
loop_
_atom_site_label
_atom_site_type_symbol
_atom_site_fract_x
_atom_site_fract_y
_atom_site_fract_z
Zn1	Zn	1.135377	-0.295874	-0.443509
Zn2	Zn	1.135298	-0.420071	-0.312240
Zn3	Zn	1.011186	-0.295876	-0.312293
Zn4	Zn	1.011165	-0.420003	-0.443500
O5	O	1.073256	-0.357956	-0.377885
O6	O	1.239291	-0.312377	-0.426078
O7	O	1.118810	-0.403626	-0.202400
O8	O	1.027702	-0.191951	-0.329725
O9	O	1.239233	-0.403624	-0.329635
O10	O	1.118944	-0.191950	-0.426129
O11	O	1.027625	-0.312380	-0.202439
O12	O	0.907258	-0.312314	-0.329716
O13	O	1.027666	-0.403508	-0.553348
O14	O	0.907243	-0.403510	-0.426113
O15	O	1.118924	-0.312311	-0.553355
O16	O	1.118790	-0.523987	-0.329626
O17	O	1.027590	-0.523937	-0.426062
C18	C	0.880304	-0.357906	-0.377919
C19	C	0.797758	-0.357902	-0.377952
C20	C	0.598321	-0.407636	-0.430249
C21	C	0.548918	-0.339919	-0.449566
C22	C	0.646628	-0.357943	-0.377914
C23	C	0.548949	-0.425699	-0.358596
C24	C	0.500643	-0.357989	-0.377878
C25	C	0.598312	-0.290190	-0.397269
C26	C	0.598348	-0.376016	-0.306265
C27	C	0.548967	-0.308252	-0.325556
C28	C	0.730726	-0.357918	-0.377937
C29	C	0.416546	-0.358007	-0.377856
C30	C	1.073199	-0.550909	-0.377854
C31	C	1.073243	-0.633454	-0.377867
C32	C	1.122941	-0.832905	-0.325498
C33	C	1.141082	-0.882240	-0.397136
C34	C	1.073285	-0.784585	-0.377898
C35	C	1.055220	-0.882332	-0.306293
C36	C	1.073327	-0.930570	-0.377922
C37	C	1.091461	-0.832832	-0.449573
C38	C	1.005567	-0.832920	-0.358682
C39	C	1.023682	-0.882232	-0.430369
C40	C	1.073263	-0.700486	-0.377884
C41	C	1.073349	-1.014666	-0.377945
C42	C	1.266962	-0.358008	-0.377852
C43	C	1.349508	-0.358030	-0.377838
C44	C	1.073301	-0.357902	-0.582630
C45	C	1.073320	-0.357878	-0.669880
C46	C	1.073334	-0.164251	-0.377934
C47	C	1.073367	-0.081705	-0.377955
C48	C	1.120840	-0.310388	-0.710875
C49	C	1.120849	-0.310363	-0.792855
C50	C	1.073342	-0.357833	-0.833839
C51	C	1.025817	-0.405326	-0.792838
C52	C	1.025804	-0.405346	-0.710859
C53	C	1.025846	-0.405281	-0.963708
C54	C	1.025859	-0.405262	-1.045693
C55	C	1.120891	-0.310298	-1.045704
C56	C	1.120879	-0.310319	-0.963725
C57	C	1.073355	-0.357812	-0.922730
C58	C	1.073254	-0.357957	-0.173938
C59	C	1.073379	-0.357771	-0.086688
H60	H	0.527434	-0.266200	-0.281283
O61	O	0.929712	-0.804185	-0.337103
H62	H	0.892061	-0.851620	-0.325795
H63	H	0.987132	-0.443974	-0.826214
H64	H	0.619993	-0.449586	-0.474556
H65	H	0.987101	-0.444010	-0.677482
O66	O	0.520226	-0.501573	-0.336969
H67	H	0.486408	-0.497548	-0.282854
H68	H	0.620077	-0.391308	-0.245706
O69	O	1.172106	-0.259147	-0.837075
H70	H	1.205147	-0.226150	-0.794803
H71	H	1.164947	-0.811246	-0.281231
O72	O	1.216959	-0.910941	-0.418695
H73	H	1.258064	-0.891190	-0.375107
H74	H	0.981708	-0.903754	-0.474743
O75	O	1.034944	-0.911129	-0.226070
H76	H	1.076227	-0.891364	-0.182677
O77	O	1.172081	-0.259188	-0.666671
H78	H	1.205120	-0.226156	-0.708954
O79	O	1.111821	-0.804164	-0.529824
H80	H	1.111673	-0.742677	-0.529175
O81	O	0.520152	-0.319759	-0.529823
H82	H	0.540759	-0.263945	-0.546282
O83	O	0.626903	-0.214292	-0.418994
H84	H	0.688391	-0.214877	-0.418870
H85	H	1.159568	-0.271669	-0.930359
O86	O	1.172145	-0.259064	-1.089913
H87	H	1.164166	-0.267014	-1.153804
H88	H	0.987173	-0.443914	-1.079060
O89	O	0.974585	-0.456500	-0.919487
H90	H	0.941555	-0.489509	-0.961757
