data_functionalizedCrystal
_audit_creation_method	'MofGen! by Chris Wilmer'
_symmetry_space_group_name_H-M	'P1'
_symmetry_Int_Tables_number	1
_symmetry_cell_setting	triclinic
loop_
_symmetry_equiv_pos_as_xyz
  x,y,z
_cell_length_a	18.050589
_cell_length_b	18.050591
_cell_length_c	12.645323
_cell_angle_alpha	90.029432
_cell_angle_beta	89.967070
_cell_angle_gamma	89.986033
loop_
_atom_site_label
_atom_site_type_symbol
_atom_site_fract_x
_atom_site_fract_y
_atom_site_fract_z
Zn1	Zn	-0.295769	-1.135381	-0.599617
Zn2	Zn	-0.419972	-1.135294	-0.422339
Zn3	Zn	-0.295787	-1.011186	-0.422338
Zn4	Zn	-0.419908	-1.011165	-0.599530
O5	O	-0.357859	-1.073257	-0.510956
O6	O	-0.312265	-1.239294	-0.576138
O7	O	-0.403533	-1.118803	-0.273991
O8	O	-0.191860	-1.027706	-0.445891
O9	O	-0.403516	-1.239230	-0.445892
O10	O	-0.191847	-1.118952	-0.576137
O11	O	-0.312294	-1.027621	-0.273991
O12	O	-0.312232	-0.907259	-0.445807
O13	O	-0.403406	-1.027670	-0.747889
O14	O	-0.403423	-0.907243	-0.575989
O15	O	-0.312202	-1.118931	-0.747953
O16	O	-0.523888	-1.118783	-0.445807
O17	O	-0.523841	-1.027586	-0.575989
C18	C	-0.357823	-0.880304	-0.510889
C19	C	-0.357825	-0.797759	-0.510885
C20	C	-0.308171	-0.548920	-0.440241
C21	C	-0.290081	-0.598357	-0.536992
C22	C	-0.357847	-0.500638	-0.510950
C23	C	-0.375891	-0.598283	-0.414172
C24	C	-0.357834	-0.646623	-0.510913
C25	C	-0.339723	-0.548989	-0.607753
C26	C	-0.425564	-0.548909	-0.484867
C27	C	-0.407500	-0.598325	-0.581685
C28	C	-0.357853	-0.416540	-0.510970
C29	C	-0.357829	-0.730720	-0.510904
C30	C	-0.550811	-1.073193	-0.510912
C31	C	-0.633357	-1.073234	-0.510929
C32	C	-0.882181	-1.122956	-0.440253
C33	C	-0.832844	-1.055196	-0.414202
C34	C	-0.930477	-1.073327	-0.511010
C35	C	-0.832733	-1.141036	-0.536971
C36	C	-0.784492	-1.073285	-0.510968
C37	C	-0.882227	-1.005532	-0.484910
C38	C	-0.882120	-1.091418	-0.607723
C39	C	-0.832805	-1.023611	-0.581709
C40	C	-1.014575	-1.073352	-0.511032
C41	C	-0.700396	-1.073252	-0.510946
C42	C	-0.164153	-1.073341	-0.511024
C43	C	-0.081608	-1.073377	-0.511052
C44	C	-0.357795	-1.073308	-0.787462
C45	C	-0.357768	-1.073330	-0.905292
C46	C	-0.357883	-0.266962	-0.511006
C47	C	-0.357859	-0.349508	-0.510979
C48	C	-0.415132	-1.015921	-0.950134
C49	C	-0.414916	-1.015719	-1.072694
C50	C	-0.279375	-1.052409	-1.073202
C51	C	-0.279753	-1.051970	-0.950603
C52	C	-0.378014	-1.151853	-0.950495
C53	C	-0.379694	-1.151455	-1.073100
C54	C	-0.357869	-1.073248	-0.235526
C55	C	-0.357687	-1.073370	-0.117697
H56	H	-0.266135	-0.527230	-0.380534
C57	C	-0.804218	-0.967500	-0.661484
C58	C	-0.864265	-0.932331	-0.710341
C59	C	-0.837958	-0.880629	-0.783819
H60	H	-0.775219	-0.992126	-0.713431
H61	H	-0.774647	-0.931648	-0.626230
H62	H	-0.893824	-0.968178	-0.745594
H63	H	-0.893270	-0.907690	-0.658421
H64	H	-0.808388	-0.844776	-0.748565
H65	H	-0.808959	-0.905261	-0.835759
H66	H	-0.878696	-0.856755	-0.816970
C67	C	-0.322434	-1.208990	-0.911773
C68	C	-0.359456	-1.263667	-0.853705
C69	C	-0.308281	-1.316313	-0.818024
H70	H	-0.286680	-1.185521	-0.868026
H71	H	-0.298368	-1.231091	-0.970714
H72	H	-0.383509	-1.241568	-0.794772
H73	H	-0.395206	-1.287155	-0.897430
H74	H	-0.284216	-1.338414	-0.876966
H75	H	-0.272530	-1.292838	-0.774282
H76	H	-0.333394	-1.353421	-0.778630
C77	C	-0.213665	-0.627285	-0.566193
C78	C	-0.161884	-0.602274	-0.491920
C79	C	-0.091484	-0.628912	-0.518769
H80	H	-0.200399	-0.609700	-0.634409
H81	H	-0.214299	-0.679914	-0.566553
H82	H	-0.161248	-0.549656	-0.491571
H83	H	-0.175126	-0.619857	-0.423698
H84	H	-0.092117	-0.681541	-0.519129
H85	H	-0.078225	-0.611325	-0.586986
H86	H	-0.056343	-0.611952	-0.468374
H87	H	-0.811197	-1.039872	-0.332396
H88	H	-0.340961	-1.196508	-1.103740
H89	H	-0.324390	-0.527425	-0.689604
H90	H	-0.482819	-0.527174	-0.462787
H91	H	-0.391157	-0.619938	-0.332344
H92	H	-0.810993	-1.198315	-0.558945
C93	C	-0.463411	-0.627033	-0.661650
C94	C	-0.444170	-0.601936	-0.762748
C95	C	-0.495648	-0.628377	-0.836442
H96	H	-0.511404	-0.609369	-0.643863
H97	H	-0.463380	-0.679663	-0.660861
H98	H	-0.444209	-0.549317	-0.763534
H99	H	-0.396186	-0.619598	-0.780569
H100	H	-0.495617	-0.681007	-0.835653
H101	H	-0.543638	-0.610712	-0.818644
H102	H	-0.482597	-0.611358	-0.905046
C103	C	-0.911057	-1.178773	-0.360268
C104	C	-0.886105	-1.159458	-0.259130
C105	C	-0.912700	-1.210850	-0.185418
H106	H	-0.893402	-1.226795	-0.377907
H107	H	-0.963686	-1.178703	-0.361221
H108	H	-0.833487	-1.159536	-0.258179
H109	H	-0.903758	-1.111445	-0.241457
H110	H	-0.965329	-1.210780	-0.186371
H111	H	-0.895043	-1.258869	-0.203068
H112	H	-0.895780	-1.197748	-0.116787
C113	C	-0.911230	-0.929194	-0.455448
C114	C	-0.988791	-0.930120	-0.455749
C115	C	-1.015535	-0.859817	-0.428600
H116	H	-0.894007	-0.893838	-0.505341
H117	H	-0.893991	-0.916238	-0.386919
H118	H	-1.006023	-0.943067	-0.524268
H119	H	-1.006033	-0.965462	-0.405855
H120	H	-0.998296	-0.846860	-0.360071
H121	H	-0.998307	-0.824466	-0.478496
H122	H	-1.068162	-0.860437	-0.428791
C123	C	-0.492269	-1.033220	-1.113024
C124	C	-0.492026	-1.033057	-1.223746
C125	C	-0.563267	-1.049197	-1.260930
H126	H	-0.526044	-0.996853	-1.087977
H127	H	-0.506981	-1.080659	-1.088199
H128	H	-0.477323	-0.985624	-1.248561
H129	H	-0.458266	-1.069424	-1.248821
H130	H	-0.577979	-1.096636	-1.236105
H131	H	-0.597036	-1.012828	-1.235876
H132	H	-0.563110	-1.049095	-1.336058
H133	H	-0.262623	-0.994581	-0.921997
H134	H	-0.903783	-1.106762	-0.689507
C135	C	-0.492767	-1.033238	-0.910664
C136	C	-0.490484	-1.095804	-0.845345
C137	C	-0.561986	-1.111772	-0.808946
H138	H	-0.524320	-1.042679	-0.969230
H139	H	-0.511262	-0.992189	-0.871696
H140	H	-0.471999	-1.136844	-0.884311
H141	H	-0.458945	-1.086380	-0.786763
H142	H	-0.580481	-1.070723	-0.769979
H143	H	-0.593534	-1.121209	-0.867518
H144	H	-0.560446	-1.154220	-0.764616
H145	H	-0.235441	-1.092954	-1.102353
C146	C	-0.397440	-0.938720	-0.909282
C147	C	-0.382985	-0.891701	-0.994866
C148	C	-0.366678	-0.820578	-0.957284
H149	H	-0.355140	-0.940829	-0.864734
H150	H	-0.438495	-0.920254	-0.870296
H151	H	-0.341935	-0.910163	-1.033835
H152	H	-0.425276	-0.889571	-1.039422
H153	H	-0.407732	-0.802112	-0.918297
H154	H	-0.324379	-0.822695	-0.912736
H155	H	-0.356875	-0.788666	-1.015346
H156	H	-0.401473	-0.957547	-1.102010
H157	H	-0.235538	-1.091980	-0.920940
C158	C	-0.256000	-0.976811	-1.114255
C159	C	-0.190139	-0.983825	-1.171945
C160	C	-0.168593	-0.914199	-1.209788
H161	H	-0.248324	-0.944171	-1.056343
H162	H	-0.293735	-0.957467	-1.158724
H163	H	-0.152412	-1.003158	-1.127478
H164	H	-0.197796	-1.016450	-1.229871
H165	H	-0.206328	-0.894856	-1.254257
H166	H	-0.160921	-0.881565	-1.151870
H167	H	-0.123909	-0.918950	-1.248943
H168	H	-0.434175	-1.170972	-0.919574
C169	C	-0.456486	-1.172687	-1.111939
C170	C	-0.452050	-1.238396	-1.170488
C171	C	-0.522777	-1.257981	-1.206281
H172	H	-0.475574	-1.134262	-1.155398
H173	H	-0.488383	-1.179838	-1.053036
H174	H	-0.420165	-1.231242	-1.229383
H175	H	-0.432975	-1.276836	-1.127051
H176	H	-0.554674	-1.265131	-1.147377
H177	H	-0.541859	-1.219551	-1.249735
H178	H	-0.519778	-1.302569	-1.246001
