data_functionalizedCrystal
_audit_creation_method	'MofGen! by Chris Wilmer'
_symmetry_space_group_name_H-M	'P1'
_symmetry_Int_Tables_number	1
_symmetry_cell_setting	triclinic
loop_
_symmetry_equiv_pos_as_xyz
  x,y,z
_cell_length_a	16.625548
_cell_length_b	12.827893
_cell_length_c	12.827885
_cell_angle_alpha	90.025051
_cell_angle_beta	90.021236
_cell_angle_gamma	90.004578
loop_
_atom_site_label
_atom_site_type_symbol
_atom_site_fract_x
_atom_site_fract_y
_atom_site_fract_z
Zn1	Zn	1.232792	-0.415953	0.590938
Zn2	Zn	1.732792	0.084047	1.090938
Zn3	Zn	1.232738	-0.590730	0.416213
Zn4	Zn	1.732738	-0.090730	0.916213
Zn5	Zn	1.097952	-0.416007	0.416206
Zn6	Zn	1.597952	0.083993	0.916206
Zn7	Zn	1.097969	-0.590656	0.590907
Zn8	Zn	1.597969	-0.090656	1.090907
O9	O	1.165363	-0.503336	0.503566
O10	O	1.665363	-0.003336	1.003566
O11	O	1.345617	-0.439146	0.567776
O12	O	1.845617	0.060854	1.067776
O13	O	1.214829	-0.567606	0.269976
O14	O	1.714829	-0.067606	0.769976
O15	O	1.115855	-0.269764	0.439394
O16	O	1.615855	0.230236	0.939394
O17	O	1.345578	-0.567554	0.439406
O18	O	1.845578	-0.067554	0.939406
O19	O	1.214921	-0.269724	0.567769
O20	O	1.714921	0.230276	1.067769
O21	O	1.115802	-0.439238	0.269970
O22	O	1.615802	0.060762	0.769970
O23	O	0.985122	-0.439166	0.439364
O24	O	1.485122	0.060834	0.939364
O25	O	1.115883	-0.567427	0.737147
O26	O	1.615883	-0.067427	1.237147
O27	O	0.985134	-0.567480	0.567716
O28	O	1.485134	-0.067480	1.067716
O29	O	1.214937	-0.439073	0.737170
O30	O	1.714937	0.060927	1.237170
O31	O	1.214845	-0.736956	0.439376
O32	O	1.714845	-0.236956	0.939376
O33	O	1.115831	-0.736901	0.567723
O34	O	1.615831	-0.236901	1.067723
C35	C	1.165356	-0.774846	0.503570
C36	C	1.665356	-0.274846	1.003570
C37	C	1.165427	-0.890999	0.503606
C38	C	1.665427	-0.390999	1.003606
C39	C	0.955872	-0.503321	0.503536
C40	C	1.455872	-0.003321	1.003536
C41	C	0.866251	-0.503340	0.503549
C42	C	1.366251	-0.003340	1.003549
C43	C	1.165418	-0.503236	0.776136
C44	C	1.665418	-0.003236	1.276136
C45	C	1.165441	-0.503193	0.892289
C46	C	1.665441	-0.003193	1.392289
C47	C	0.538075	-0.503347	0.503593
C48	C	1.038075	-0.003347	1.003593
C49	C	0.629384	-0.503342	0.503578
C50	C	1.129384	-0.003342	1.003578
C51	C	0.702160	-0.503344	0.503570
C52	C	1.202160	-0.003344	1.003570
C53	C	0.793474	-0.503338	0.503556
C54	C	1.293474	-0.003338	1.003556
C55	C	1.375672	-0.503352	0.503596
C56	C	1.875672	-0.003352	1.003596
C57	C	1.465293	-0.503359	0.503608
C58	C	1.965293	-0.003359	1.003608
C59	C	1.165392	-0.230766	0.503584
C60	C	1.665392	0.269234	1.003584
C61	C	1.165404	-0.114613	0.503593
C62	C	1.665404	0.385387	1.003593
C63	C	1.116394	-0.062848	0.440079
C64	C	1.616394	0.437152	0.940079
C65	C	1.116405	0.057202	0.440085
C66	C	1.616405	0.557202	0.940085
C67	C	1.165355	-0.503361	0.232056
C68	C	1.665355	-0.003361	0.732056
C69	C	1.165487	-0.503109	0.115903
C70	C	1.665487	-0.003109	0.615903
C71	C	1.214461	-0.439667	0.944085
C72	C	1.714461	0.060333	1.444085
C73	C	1.214487	-0.439622	1.064136
C74	C	1.714487	0.060378	1.564136
H75	H	1.074423	-0.107407	0.385701
H76	H	1.574423	0.392593	0.885701
N77	N	1.060824	0.116167	0.368056
N78	N	1.560824	0.616167	0.868056
H79	H	1.003201	0.097239	0.384259
H80	H	1.503201	0.597239	0.884259
H81	H	1.073385	0.097175	0.293402
H82	H	1.573385	0.597175	0.793402
H83	H	1.123486	-0.557539	0.936821
H84	H	1.623486	-0.057539	1.436821
N85	N	1.270036	-0.367674	0.885107
N86	N	1.770036	0.132326	1.385107
H87	H	1.302754	-0.325274	0.936167
H88	H	1.802754	0.174726	1.436167
H89	H	1.237180	-0.319367	0.839819
H90	H	1.737180	0.180633	1.339819
N91	N	1.221016	0.050066	0.575650
N92	N	1.721016	0.550066	1.075650
H93	H	1.258342	0.004761	0.533151
H94	H	1.758342	0.504761	1.033151
H95	H	1.188167	0.004863	0.624020
H96	H	1.688167	0.504863	1.124020
N97	N	1.220997	-0.055593	0.575628
N98	N	1.720997	0.444407	1.075628
H99	H	1.278616	-0.074541	0.559423
H100	H	1.778616	0.425459	1.059423
H101	H	1.208432	-0.074526	0.650280
H102	H	1.708432	0.425474	1.150280
N103	N	1.270087	-0.367581	1.123126
N104	N	1.770087	0.132419	1.623126
H105	H	1.262225	-0.377762	1.200524
H106	H	1.762225	0.122238	1.700524
H107	H	1.257555	-0.292936	1.104107
H108	H	1.757555	0.207064	1.604107
N109	N	1.109885	-0.575163	1.056931
N110	N	1.609885	-0.075163	1.556931
H111	H	1.142666	-0.623573	1.011646
H112	H	1.642666	-0.123573	1.511646
H113	H	1.072555	-0.532596	1.011704
H114	H	1.572555	-0.032596	1.511704
