data_functionalizedCrystal
_audit_creation_method	'MofGen! by Chris Wilmer'
_symmetry_space_group_name_H-M	'P1'
_symmetry_Int_Tables_number	1
_symmetry_cell_setting	triclinic
loop_
_symmetry_equiv_pos_as_xyz
  x,y,z
_cell_length_a	17.699077
_cell_length_b	16.992696
_cell_length_c	16.176319
_cell_angle_alpha	89.998370
_cell_angle_beta	90.003161
_cell_angle_gamma	93.025485
loop_
_atom_site_label
_atom_site_type_symbol
_atom_site_fract_x
_atom_site_fract_y
_atom_site_fract_z
O1	O	1.010250	-0.099109	0.068751
O2	O	1.510250	0.400891	0.568751
O3	O	0.790674	-0.112012	0.068757
O4	O	1.290674	0.387988	0.568757
O5	O	0.899582	0.008580	0.068731
O6	O	1.399582	0.508580	0.568731
O7	O	0.901343	-0.219701	0.068777
O8	O	1.401343	0.280299	0.568777
O9	O	0.899572	0.008559	-0.068762
O10	O	1.399572	0.508559	0.431238
O11	O	0.790665	-0.112034	-0.068737
O12	O	1.290665	0.387966	0.431263
O13	O	1.010240	-0.099130	-0.068743
O14	O	1.510240	0.400870	0.431257
Cu15	Cu	0.900451	-0.105584	-0.081294
Cu16	Cu	1.400451	0.394416	0.418706
Cu17	Cu	0.900463	-0.105559	0.081308
Cu18	Cu	1.400463	0.394441	0.581308
O19	O	0.901333	-0.219723	-0.068717
O20	O	1.401333	0.280277	0.431283
C21	C	0.762444	-0.111562	0.000010
C22	C	1.262444	0.388438	0.500010
C23	C	0.678339	-0.110177	0.000012
C24	C	1.178339	0.389823	0.500012
C25	C	0.638826	-0.109536	-0.074937
C26	C	1.138826	0.390464	0.425063
C27	C	0.559801	-0.108223	-0.074938
C28	C	1.059801	0.391777	0.425062
C29	C	0.520292	-0.107555	0.000010
C30	C	1.020292	0.392445	0.500010
C31	C	0.559811	-0.108194	0.074965
C32	C	1.059811	0.391806	0.574965
C33	C	0.638834	-0.109502	0.074965
C34	C	1.138834	0.390498	0.574965
C35	C	0.241119	-0.102918	0.074965
C36	C	0.741119	0.397082	0.574965
C37	C	0.162090	-0.101612	0.074959
C38	C	0.662090	0.398388	0.574959
C39	C	0.162086	-0.101639	-0.074938
C40	C	0.662086	0.398361	0.425062
C41	C	0.241110	-0.102947	-0.074937
C42	C	0.741110	0.397053	0.425063
C43	C	0.280622	-0.103581	0.000016
C44	C	0.780622	0.396419	0.500016
C45	C	0.366309	-0.105004	0.000017
C46	C	0.866309	0.394996	0.500017
C47	C	0.434605	-0.106138	0.000011
C48	C	0.934605	0.393862	0.500011
C49	C	0.897312	0.037778	-0.000020
C50	C	1.397312	0.537778	0.499980
C51	C	0.890555	0.124809	-0.000032
C52	C	1.390555	0.624809	0.499968
C53	C	0.955752	0.175175	-0.000041
C54	C	1.455752	0.675175	0.499959
C55	C	0.949399	0.256949	-0.000045
C56	C	1.449399	0.756949	0.499955
C57	C	0.877846	0.288356	-0.000045
C58	C	1.377846	0.788356	0.499955
C59	C	0.812644	0.237983	-0.000034
C60	C	1.312644	0.737983	0.499966
C61	C	0.818998	0.156211	-0.000024
C62	C	1.318998	0.656211	0.499976
C63	C	0.851510	0.531903	-0.000068
C64	C	1.351510	1.031903	0.499932
C65	C	0.845160	0.613682	-0.000081
C66	C	1.345160	1.113682	0.499919
C67	C	0.981916	0.632642	-0.000091
C68	C	1.481916	1.132642	0.499909
C69	C	0.988264	0.550867	-0.000086
C70	C	1.488264	1.050867	0.499914
C71	C	0.923061	0.500502	-0.000070
C72	C	1.423061	1.000502	0.499930
N73	N	0.871350	0.371942	-0.000052
N74	N	1.371350	0.871942	0.499948
N75	N	0.929558	0.416917	-0.000057
N76	N	1.429558	0.916917	0.499943
C77	C	1.038471	-0.099581	0.000005
C78	C	1.538471	0.400419	0.500005
C79	C	1.122575	-0.100966	0.000010
C80	C	1.622575	0.399034	0.500010
N81	N	0.900449	-0.105602	-0.195659
N82	N	1.400449	0.394398	0.304341
C83	C	0.903602	0.751079	-0.000000
C84	C	1.403602	1.251079	0.500000
C85	C	0.910358	0.664048	-0.000090
C86	C	1.410358	1.164048	0.499910
C87	C	0.851697	-0.058051	-0.761058
C88	C	1.351697	0.441949	-0.261058
C89	C	0.851696	-0.058057	-0.674511
C90	C	1.351696	0.441943	-0.174511
C91	C	0.900466	-0.105552	-0.631234
C92	C	1.400466	0.394448	-0.131234
C93	C	0.949246	-0.153038	-0.674510
C94	C	1.449246	0.346962	-0.174510
C95	C	0.949250	-0.153027	-0.761055
C96	C	1.449250	0.346973	-0.261055
C97	C	0.949230	-0.153082	-0.325481
C98	C	1.449230	0.346918	0.174519
C99	C	0.949220	-0.153091	-0.238930
C100	C	1.449220	0.346909	0.261070
C101	C	0.851676	-0.058112	-0.238937
C102	C	1.351676	0.441888	0.261063
C103	C	0.851680	-0.058101	-0.325482
C104	C	1.351680	0.441899	0.174518
C105	C	0.900462	-0.105583	-0.368750
C106	C	1.400462	0.394417	0.131250
C107	C	0.900464	-0.105575	-0.462594
C108	C	1.400464	0.394425	0.037406
C109	C	0.900461	-0.105565	-0.537392
C110	C	1.400461	0.394435	-0.037392
N111	N	0.900471	-0.105535	0.195673
N112	N	1.400471	0.394465	0.695673
H113	H	0.129923	-0.101068	0.135995
H114	H	0.629923	0.398932	0.635995
O115	O	0.755742	0.107171	0.000019
O116	O	1.255742	0.607171	0.500019
C117	C	0.776693	0.028262	0.000009
C118	C	1.276693	0.528262	0.500009
H119	H	0.836327	0.025246	0.026036
H120	H	1.336327	0.525246	0.526036
H121	H	0.735444	-0.008868	0.039935
H122	H	1.235444	0.491132	0.539935
H123	H	0.775248	0.004599	-0.065950
H124	H	1.275248	0.504599	0.434050
O125	O	0.804296	-0.011841	-0.802965
O126	O	1.304296	0.488159	-0.302965
C127	C	0.761234	0.030054	-0.746212
C128	C	1.261234	0.530054	-0.246212
H129	H	0.792283	0.034662	-0.684515
H130	H	1.292283	0.534662	-0.184515
H131	H	0.752816	0.091703	-0.771211
H132	H	1.252816	0.591703	-0.271211
H133	H	0.703784	-0.002323	-0.737017
H134	H	1.203784	0.497677	-0.237017
O135	O	0.279463	-0.103454	-0.147764
O136	O	0.779463	0.396546	0.352236
C137	C	0.264606	-0.035276	-0.193380
C138	C	0.764606	0.464724	0.306620
H139	H	0.246009	0.012529	-0.149534
H140	H	0.746009	0.512529	0.350466
H141	H	0.318074	-0.013356	-0.227381
H142	H	0.818074	0.486644	0.272619
H143	H	0.217724	-0.049868	-0.240112
H144	H	0.717724	0.450132	0.259888
O145	O	0.788098	0.483097	-0.000100
O146	O	1.288098	0.983097	0.499900
C147	C	0.723585	0.528356	-0.000089
C148	C	1.223585	1.028356	0.499911
H149	H	0.739105	0.589424	-0.026124
H150	H	1.239105	1.089424	0.473876
H151	H	0.677596	0.498098	-0.040006
H152	H	1.177596	0.998098	0.459994
H153	H	0.701885	0.534143	0.065872
H154	H	1.201885	1.034143	0.565872
O155	O	1.057752	0.520320	-0.000226
O156	O	1.557752	1.020320	0.499774
C157	C	1.065503	0.473563	-0.071418
C158	C	1.565503	0.973563	0.428582
H159	H	1.024786	0.492825	-0.121192
H160	H	1.524786	0.992825	0.378808
H161	H	1.126049	0.481012	-0.095322
H162	H	1.626049	0.981012	0.404678
H163	H	1.051943	0.409044	-0.055311
H164	H	1.551943	0.909044	0.444689
O165	O	0.677178	-0.110268	0.147791
O166	O	1.177178	0.389732	0.647791
C167	C	0.653387	-0.177805	0.193410
C168	C	1.153387	0.322195	0.693410
H169	H	0.628535	-0.224893	0.149566
H170	H	1.128535	0.275107	0.649566
H171	H	0.703858	-0.201443	0.227410
H172	H	1.203858	0.298557	0.727410
H173	H	0.608533	-0.161694	0.240142
H174	H	1.108533	0.338306	0.740142
H175	H	0.273280	-0.103432	0.135997
H176	H	0.773280	0.396568	0.635997
O177	O	0.521314	-0.107577	0.147696
O178	O	1.021314	0.392423	0.647696
C179	C	0.443094	-0.106268	0.131627
C180	C	0.943094	0.393732	0.631627
H181	H	0.430663	-0.130912	0.067219
H182	H	0.930663	0.369088	0.567219
H183	H	0.410558	-0.143812	0.179502
H184	H	0.910558	0.356188	0.679502
H185	H	0.424809	-0.043024	0.135166
H186	H	0.924809	0.456976	0.635166
H187	H	0.988951	-0.191745	-0.360700
H188	H	1.488951	0.308255	0.139300
H189	H	1.014018	0.149611	-0.000046
H190	H	1.514018	0.649611	0.499954
H191	H	0.811964	-0.019429	-0.360714
H192	H	1.311964	0.480571	0.139286
O193	O	0.775693	0.644287	0.000033
O194	O	1.275693	1.144287	0.500033
C195	C	0.767934	0.691017	0.071244
C196	C	1.267934	1.191017	0.571244
H197	H	0.826355	0.711495	0.094975
H198	H	1.326355	1.211495	0.594975
H199	H	0.734533	0.744509	0.055221
H200	H	1.234533	1.244509	0.555221
H201	H	0.736642	0.654835	0.121117
H202	H	1.236642	1.154835	0.621117
H203	H	0.811957	-0.019447	-0.203698
H204	H	1.311957	0.480553	0.296302
H205	H	1.002490	0.297955	-0.000054
H206	H	1.502490	0.797955	0.499946
H207	H	0.988937	-0.191769	-0.203697
H208	H	1.488937	0.308231	0.296303
O209	O	0.521324	-0.107698	-0.147687
O210	O	1.021324	0.392302	0.352313
C211	C	0.471147	-0.174819	-0.152170
C212	C	0.971147	0.325181	0.347830
H213	H	0.457824	-0.197246	-0.087092
H214	H	0.957824	0.302754	0.412908
H215	H	0.416581	-0.158629	-0.183887
H216	H	0.916581	0.341371	0.316113
H217	H	0.498460	-0.222858	-0.189154
H218	H	0.998460	0.277142	0.310846
H219	H	0.670989	-0.110086	-0.135969
H220	H	1.170989	0.389914	0.364031
O221	O	0.804259	-0.012057	-0.632399
O222	O	1.304259	0.487943	-0.132399
C223	C	0.755500	-0.059958	-0.582377
C224	C	1.255500	0.440042	-0.082377
H225	H	0.782587	-0.118087	-0.569401
H226	H	1.282587	0.381913	-0.069401
H227	H	0.745131	-0.028461	-0.521522
H228	H	1.245131	0.471539	-0.021522
H229	H	0.699355	-0.072058	-0.615758
H230	H	1.199355	0.427942	-0.115758
O231	O	1.045172	0.681679	-0.000062
O232	O	1.545172	1.181679	0.499938
C233	C	1.024225	0.760589	-0.000091
C234	C	1.524225	1.260589	0.499909
H235	H	0.964595	0.763612	0.025938
H236	H	1.464595	1.263612	0.525938
H237	H	1.065482	0.797724	0.039823
H238	H	1.565482	1.297724	0.539823
H239	H	1.025661	0.784239	-0.066056
H240	H	1.525661	1.284239	0.433944
H241	H	0.129906	-0.101119	-0.135969
H242	H	0.629906	0.398881	0.364031
H243	H	0.754385	0.263561	-0.000029
H244	H	1.254385	0.763561	0.499971
H245	H	0.988958	-0.191705	-0.639267
H246	H	1.488958	0.308295	-0.139267
H247	H	0.988967	-0.191693	-0.796284
H248	H	1.488967	0.308307	-0.296284
