data_functionalizedCrystal
_audit_creation_method	'MofGen! by Chris Wilmer'
_symmetry_space_group_name_H-M	'P1'
_symmetry_Int_Tables_number	1
_symmetry_cell_setting	triclinic
loop_
_symmetry_equiv_pos_as_xyz
  x,y,z
_cell_length_a	10.686220
_cell_length_b	16.625546
_cell_length_c	10.685880
_cell_angle_alpha	94.335175
_cell_angle_beta	89.641569
_cell_angle_gamma	94.404440
loop_
_atom_site_label
_atom_site_type_symbol
_atom_site_fract_x
_atom_site_fract_y
_atom_site_fract_z
Zn1	Zn	1.972202	-0.251696	-0.562343
Zn2	Zn	2.305535	0.081637	-0.229010
Zn3	Zn	2.638869	0.414971	0.104324
Zn4	Zn	1.955958	-0.377078	-0.352575
Zn5	Zn	2.289291	-0.043745	-0.019242
Zn6	Zn	2.622624	0.289589	0.314091
Zn7	Zn	1.746331	-0.253339	-0.368665
Zn8	Zn	2.079664	0.079994	-0.035332
Zn9	Zn	2.412998	0.413327	0.298001
Zn10	Zn	1.762371	-0.397573	-0.578345
Zn11	Zn	2.095704	-0.064239	-0.245012
Zn12	Zn	2.429037	0.269094	0.088322
O13	O	1.859215	-0.319921	-0.465482
O14	O	2.192549	0.013412	-0.132149
O15	O	2.525882	0.346745	0.201185
O16	O	2.145592	-0.259063	-0.521086
O17	O	2.478925	0.074270	-0.187753
O18	O	2.812258	0.407603	0.145580
O19	O	1.914639	-0.352774	-0.179170
O20	O	2.247973	-0.019441	0.154164
O21	O	2.581306	0.313892	0.487497
O22	O	1.776379	-0.140287	-0.394394
O23	O	2.109712	0.193047	-0.061060
O24	O	2.443045	0.526380	0.272273
O25	O	2.133657	-0.351181	-0.366971
O26	O	2.466990	-0.017848	-0.033638
O27	O	2.800324	0.315486	0.299696
O28	O	1.942325	-0.139079	-0.536688
O29	O	2.275658	0.194254	-0.203355
O30	O	2.608992	0.527587	0.129979
O31	O	1.760627	-0.261864	-0.190991
O32	O	2.093961	0.071469	0.142343
O33	O	2.427294	0.404802	0.475676
O34	O	1.572914	-0.281737	-0.409910
O35	O	1.906247	0.051596	-0.076577
O36	O	2.239581	0.384930	0.256756
O37	O	1.803716	-0.386111	-0.751762
O38	O	2.137049	-0.052778	-0.418429
O39	O	2.470383	0.280556	-0.085096
O40	O	1.584698	-0.387705	-0.563961
O41	O	1.918032	-0.054371	-0.230628
O42	O	2.251365	0.278962	0.102706
O43	O	1.957878	-0.278936	-0.740006
O44	O	2.291212	0.054397	-0.406672
O45	O	2.624545	0.387730	-0.073339
O46	O	1.930192	-0.492631	-0.382488
O47	O	2.263526	-0.159298	-0.049154
O48	O	2.596859	0.174035	0.284179
O49	O	1.787965	-0.507689	-0.548359
O50	O	2.121298	-0.174355	-0.215026
O51	O	2.454631	0.158978	0.118307
C52	C	1.533289	-0.337124	-0.490419
C53	C	1.866623	-0.003790	-0.157085
C54	C	2.199956	0.329543	0.176248
C55	C	1.393859	-0.344504	-0.501116
C56	C	1.727193	-0.011170	-0.167783
C57	C	2.060526	0.322163	0.165550
C58	C	1.859093	-0.529416	-0.465439
C59	C	2.192426	-0.196083	-0.132105
C60	C	2.525759	0.137250	0.201228
C61	C	1.859158	-0.619035	-0.465453
C62	C	2.192491	-0.285702	-0.132120
C63	C	2.525825	0.047632	0.201213
C64	C	1.859387	-0.947205	-0.465567
C65	C	2.192720	-0.613871	-0.132234
C66	C	2.526054	-0.280538	0.201099
C67	C	1.859319	-0.855898	-0.465539
C68	C	2.192653	-0.522565	-0.132206
C69	C	2.525986	-0.189232	0.201127
C70	C	1.859271	-0.783123	-0.465510
C71	C	2.192605	-0.449789	-0.132176
C72	C	2.525938	-0.116456	0.201157
C73	C	1.859206	-0.691810	-0.465483
C74	C	2.192539	-0.358477	-0.132150
C75	C	2.525873	-0.025144	0.201184
C76	C	2.186414	-0.302653	-0.440449
C77	C	2.519747	0.030681	-0.107116
C78	C	2.853080	0.364014	0.226218
C79	C	2.325846	-0.295294	-0.429781
C80	C	2.659180	0.038039	-0.096448
C81	C	2.992513	0.371373	0.236885
C82	C	1.884398	-0.334627	-0.792672
C83	C	2.217732	-0.001293	-0.459339
C84	C	2.551065	0.332040	-0.126006
C85	C	1.895130	-0.340893	-0.932101
C86	C	2.228463	-0.007560	-0.598768
C87	C	2.561796	0.325774	-0.265435
C88	C	1.859375	-0.109608	-0.465551
C89	C	2.192708	0.223725	-0.132217
C90	C	2.526041	0.557059	0.201116
C91	C	1.859443	-0.019985	-0.465580
C92	C	2.192776	0.313348	-0.132246
C93	C	2.526109	0.646682	0.201087
C94	C	1.834202	-0.305212	-0.139559
C95	C	2.167536	0.028122	0.193774
C96	C	2.500869	0.361455	0.527107
C97	C	1.823714	-0.298705	-0.000113
C98	C	2.157047	0.034628	0.333221
C99	C	2.490381	0.367961	0.666554
H100	H	1.374286	-0.247518	-0.360523
H101	H	1.707619	0.085815	-0.027190
H102	H	2.040952	0.419149	0.306144
H103	H	1.345413	-0.392287	-0.570371
H104	H	1.678747	-0.058954	-0.237038
H105	H	2.012080	0.274379	0.096295
H106	H	1.964487	-0.381807	-0.980541
H107	H	2.297820	-0.048474	-0.647207
H108	H	2.631153	0.284860	-0.313874
C109	C	1.730011	-0.243426	-0.934670
C110	C	2.063344	0.089907	-0.601336
C111	C	2.396677	0.423241	-0.268003
N112	N	1.659438	-0.201788	-0.885377
N113	N	1.992771	0.131545	-0.552043
N114	N	2.326104	0.464878	-0.218710
