data_functionalizedCrystal
_audit_creation_method	'MofGen! by Chris Wilmer'
_symmetry_space_group_name_H-M	'P1'
_symmetry_Int_Tables_number	1
_symmetry_cell_setting	triclinic
loop_
_symmetry_equiv_pos_as_xyz
  x,y,z
_cell_length_a	10.723023
_cell_length_b	10.489763
_cell_length_c	9.798715
_cell_angle_alpha	89.991854
_cell_angle_beta	90.003242
_cell_angle_gamma	95.492046
loop_
_atom_site_label
_atom_site_type_symbol
_atom_site_fract_x
_atom_site_fract_y
_atom_site_fract_z
O1	O	1.657311	-0.178900	0.113493
O2	O	1.294171	-0.196026	0.113500
O3	O	1.483990	-0.001862	0.113471
O4	O	1.467493	-0.373064	0.113522
O5	O	1.483975	-0.001860	-0.113511
O6	O	1.294157	-0.196024	-0.113482
O7	O	1.657297	-0.178899	-0.113489
Zn8	Zn	1.475725	-0.187461	-0.149524
Zn9	Zn	1.475743	-0.187463	0.149535
O10	O	1.467478	-0.373063	-0.113460
C11	C	1.247663	-0.194779	0.000010
C12	C	1.109106	-0.191051	0.000012
C13	C	1.482731	0.045670	-0.000024
C14	C	1.478985	0.187295	-0.000034
C15	C	1.047326	-0.189388	-0.117571
C16	C	0.904120	-0.185535	-0.117572
C17	C	1.358194	0.255357	-0.000029
C18	C	1.415238	0.347516	-0.111953
C19	C	1.415280	0.347489	0.111834
C20	C	1.536079	0.277589	-0.112050
C21	C	1.536105	0.277553	0.111837
C22	C	1.593236	0.369684	-0.000114
C23	C	1.703805	-0.180145	0.000004
C24	C	1.842362	-0.183874	0.000012
N25	N	1.475721	-0.187459	-0.353623
C26	C	1.468718	0.579404	0.000014
C27	C	1.472404	0.437771	-0.000036
C28	C	1.548537	-0.261424	-0.421392
C29	C	1.548557	-0.261423	-0.578555
N30	N	1.475757	-0.187455	0.353635
H31	H	1.100453	-0.190810	-0.218237
H32	H	1.364161	0.378419	0.206455
H33	H	0.895482	-0.185311	0.100684
Cl34	Cl	1.027094	-0.188835	0.155441
H35	H	0.850989	-0.184112	-0.218239
H36	H	1.364122	0.378495	-0.206570
Cl37	Cl	1.379497	-0.089677	-0.443673
H38	H	1.258888	0.205643	-0.000135
H39	H	1.610891	-0.324754	-0.636834
Cl40	Cl	1.746691	0.446095	-0.000214
H41	H	1.587138	0.246790	-0.206769
H42	H	1.413407	-0.124134	-0.588095
Cl43	Cl	1.614957	0.229666	0.257927
H44	H	1.610868	-0.324744	-0.363059
