data_functionalizedCrystal
_audit_creation_method	'MofGen! by Chris Wilmer'
_symmetry_space_group_name_H-M	'P1'
_symmetry_Int_Tables_number	1
_symmetry_cell_setting	triclinic
loop_
_symmetry_equiv_pos_as_xyz
  x,y,z
_cell_length_a	25.639239
_cell_length_b	16.625548
_cell_length_c	16.625539
_cell_angle_alpha	90.020568
_cell_angle_beta	89.968745
_cell_angle_gamma	89.960246
loop_
_atom_site_label
_atom_site_type_symbol
_atom_site_fract_x
_atom_site_fract_y
_atom_site_fract_z
Zn1	Zn	-0.208135	-1.232590	-0.455893
Zn2	Zn	0.291865	-0.732590	0.044107
Zn3	Zn	-0.295573	-1.232455	-0.321053
Zn4	Zn	0.204427	-0.732455	0.178947
Zn5	Zn	-0.208155	-1.097751	-0.321073
Zn6	Zn	0.291845	-0.597751	0.178927
Zn7	Zn	-0.295543	-1.097684	-0.455843
Zn8	Zn	0.204457	-0.597684	0.044157
O9	O	-0.251851	-1.165120	-0.388466
O10	O	0.248149	-0.665120	0.111534
O11	O	-0.219738	-1.345404	-0.438018
O12	O	0.280262	-0.845404	0.061982
O13	O	-0.283998	-1.214558	-0.208223
O14	O	0.216002	-0.714558	0.291777
O15	O	-0.134987	-1.115723	-0.338987
O16	O	0.365013	-0.615723	0.161013
O17	O	-0.283978	-1.345305	-0.338952
O18	O	0.216022	-0.845305	0.161048
O19	O	-0.134972	-1.214788	-0.438038
O20	O	0.365028	-0.714788	0.061962
O21	O	-0.219772	-1.115592	-0.208238
O22	O	0.280228	-0.615592	0.291762
O23	O	-0.219743	-0.984910	-0.338938
O24	O	0.280257	-0.484910	0.161062
O25	O	-0.283927	-1.115607	-0.568682
O26	O	0.216073	-0.615607	-0.068682
O27	O	-0.283946	-0.984860	-0.437953
O28	O	0.216054	-0.484860	0.062047
O29	O	-0.219709	-1.214722	-0.568719
O30	O	0.280291	-0.714722	-0.068719
O31	O	-0.368734	-1.214492	-0.338904
O32	O	0.131266	-0.714492	0.161096
O33	O	-0.368712	-1.115477	-0.437933
O34	O	0.131288	-0.615477	0.062067
C35	C	-0.251844	-0.955629	-0.388443
C36	C	0.248156	-0.455629	0.111557
C37	C	-0.251853	-0.866008	-0.388452
C38	C	0.248147	-0.366008	0.111548
C39	C	-0.387694	-1.164984	-0.388429
C40	C	0.112306	-0.664984	0.111571
C41	C	-0.445808	-1.165000	-0.388440
C42	C	0.054192	-0.665000	0.111560
C43	C	-0.251812	-1.165172	-0.598775
C44	C	0.248188	-0.665172	-0.098775
C45	C	-0.251796	-1.165195	-0.688396
C46	C	0.248204	-0.665195	-0.188396
C47	C	-0.806170	-1.216812	-0.336989
C48	C	-0.306170	-0.716812	0.163011
C49	C	-0.860774	-1.216843	-0.337000
C50	C	-0.360774	-0.716843	0.163000
O51	O	-0.889010	-1.260755	-0.293213
O52	O	-0.389010	-0.760755	0.206787
N53	N	-0.888090	-1.165262	-0.388519
N54	N	-0.388090	-0.665262	0.111481
C55	C	-0.860799	-1.113651	-0.440037
C56	C	-0.360799	-0.613651	0.059963
O57	O	-0.889048	-1.069780	-0.483860
O58	O	-0.389048	-0.569780	0.016140
C59	C	-0.806196	-1.113625	-0.440029
C60	C	-0.306196	-0.613625	0.059971
C61	C	-0.778883	-1.165204	-0.388501
C62	C	-0.278883	-0.665204	0.111499
C63	C	-0.778857	-1.268387	-0.285465
C64	C	-0.278857	-0.768387	0.214535
C65	C	-0.724256	-1.268355	-0.285453
C66	C	-0.224256	-0.768355	0.214547
C67	C	-0.696969	-1.216747	-0.336965
C68	C	-0.196969	-0.716747	0.163035
C69	C	-0.724282	-1.165171	-0.388489
C70	C	-0.224282	-0.665171	0.111511
C71	C	-0.778906	-1.062019	-0.491551
C72	C	-0.278906	-0.562019	0.008449
C73	C	-0.724299	-1.061997	-0.491539
C74	C	-0.224299	-0.561997	0.008461
C75	C	-0.696986	-1.113576	-0.440011
C76	C	-0.196986	-0.613576	0.059989
C77	C	-0.642395	-1.113531	-0.439990
C78	C	-0.142395	-0.613531	0.060010
N79	N	-0.615078	-1.165112	-0.388470
N80	N	-0.115078	-0.665112	0.111530
C81	C	-0.642366	-1.216720	-0.336958
C82	C	-0.142366	-0.716720	0.163042
C83	C	-0.975470	-1.113712	-0.440049
C84	C	-0.475470	-0.613712	0.059951
C85	C	-1.030072	-1.113734	-0.440053
C86	C	-0.530072	-0.613734	0.059947
C87	C	-1.030043	-1.216927	-0.337017
C88	C	-0.530043	-0.716927	0.162983
C89	C	-0.975440	-1.216900	-0.337009
C90	C	-0.475440	-0.716900	0.162991
C91	C	-0.948154	-1.165293	-0.388530
C92	C	-0.448154	-0.665293	0.111470
C93	C	-0.527700	-1.216648	-0.336937
C94	C	-0.027700	-0.716648	0.163063
C95	C	-0.473095	-1.216608	-0.336928
C96	C	0.026905	-0.716608	0.163072
C97	C	-0.473129	-1.113418	-0.439967
C98	C	0.026871	-0.613418	0.060033
C99	C	-0.527729	-1.113454	-0.439973
C100	C	-0.027729	-0.613454	0.060027
C101	C	-0.555014	-1.165076	-0.388456
C102	C	-0.055014	-0.665076	0.111544
O103	O	-0.614124	-1.069644	-0.483756
O104	O	-0.114124	-0.569644	0.016244
O105	O	-0.614110	-1.260591	-0.293150
O106	O	-0.114110	-0.760591	0.206850
C107	C	-0.115478	-1.165278	-0.388520
C108	C	0.384522	-0.665278	0.111480
C109	C	-0.057364	-1.165345	-0.388544
C110	C	0.442636	-0.665345	0.111456
C111	C	-0.251859	-1.375429	-0.388489
C112	C	0.248141	-0.875429	0.111511
C113	C	-0.251863	-1.465050	-0.388498
C114	C	0.248137	-0.965050	0.111502
C115	C	-0.251857	-0.537832	-0.388487
C116	C	0.248143	-0.037832	0.111513
C117	C	-0.251854	-0.629141	-0.388475
C118	C	0.248146	-0.129141	0.111525
C119	C	-0.251855	-0.701917	-0.388469
C120	C	0.248145	-0.201917	0.111531
C121	C	-0.251852	-0.793231	-0.388458
C122	C	0.248148	-0.293231	0.111542
C123	C	-0.251737	-1.165232	-1.016572
C124	C	0.248263	-0.665232	-0.516572
C125	C	-0.251755	-1.165219	-0.925263
C126	C	0.248245	-0.665219	-0.425263
C127	C	-0.251767	-1.165214	-0.852487
C128	C	0.248233	-0.665214	-0.352487
C129	C	-0.251784	-1.165200	-0.761172
C130	C	0.248216	-0.665200	-0.261172
C131	C	-0.251852	-1.165114	-0.178975
C132	C	0.248148	-0.665114	0.321025
C133	C	-0.251722	-1.165248	-0.089354
C134	C	0.248278	-0.665248	0.410646
H135	H	-0.549909	-1.258684	-0.294988
H136	H	-0.049909	-0.758684	0.205012
C137	C	-0.694512	-1.324275	-0.229543
C138	C	-0.194512	-0.824275	0.270457
C139	C	-0.640850	-1.313201	-0.240535
C140	C	-0.140850	-0.813201	0.259465
C141	C	-0.613438	-1.364698	-0.189036
C142	C	-0.113438	-0.864698	0.310964
H143	H	-0.703360	-1.378478	-0.241348
H144	H	-0.203360	-0.878478	0.258652
H145	H	-0.703464	-1.312502	-0.175342
H146	H	-0.203464	-0.812502	0.324658
H147	H	-0.631901	-1.324979	-0.294724
H148	H	-0.131901	-0.824979	0.205276
H149	H	-0.631986	-1.259008	-0.228724
H150	H	-0.131986	-0.759008	0.271276
H151	H	-0.622390	-1.352925	-0.134835
H152	H	-0.122390	-0.852925	0.365165
H153	H	-0.622290	-1.418898	-0.200846
H154	H	-0.122290	-0.918898	0.299154
H155	H	-0.577025	-1.357186	-0.196482
H156	H	-0.077025	-0.857186	0.303518
C157	C	-0.808382	-1.324452	-0.229440
C158	C	-0.308382	-0.824452	0.270560
C159	C	-0.772765	-1.369593	-0.184310
C160	C	-0.272765	-0.869593	0.315690
C161	C	-0.799940	-1.421239	-0.132676
C162	C	-0.299940	-0.921239	0.367324
H163	H	-0.829651	-1.359656	-0.260219
H164	H	-0.329651	-0.859656	0.239781
H165	H	-0.829704	-1.293657	-0.194236
H166	H	-0.329704	-0.793657	0.305764
H167	H	-0.751452	-1.400386	-0.219510
H168	H	-0.251452	-0.900386	0.280490
H169	H	-0.751495	-1.334411	-0.153515
H170	H	-0.251495	-0.834411	0.346485
H171	H	-0.821262	-1.390443	-0.097471
H172	H	-0.321262	-0.890443	0.402529
H173	H	-0.821208	-1.456437	-0.163461
H174	H	-0.321208	-0.956437	0.336539
H175	H	-0.775778	-1.451867	-0.102043
H176	H	-0.275778	-0.951867	0.397957
H177	H	-0.549969	-1.071457	-0.481935
H178	H	-0.049969	-0.571457	0.018065
H179	H	-0.450903	-1.071397	-0.481905
H180	H	0.049097	-0.571397	0.018095
H181	H	-1.052270	-1.258952	-0.295075
H182	H	-0.552270	-0.758952	0.204925
C183	C	-0.443536	-1.272701	-0.280950
C184	C	0.056464	-0.772701	0.219050
C185	C	-0.479124	-1.317919	-0.235859
C186	C	0.020876	-0.817919	0.264141
C187	C	-0.451915	-1.369607	-0.184296
C188	C	0.048085	-0.869607	0.315704
H189	H	-0.422270	-1.241957	-0.245712
H190	H	0.077730	-0.741957	0.254288
H191	H	-0.422208	-1.307848	-0.311803
H192	H	0.077792	-0.807848	0.188197
H193	H	-0.500443	-1.282777	-0.205009
H194	H	-0.000443	-0.782777	0.294991
H195	H	-0.500391	-1.348680	-0.271076
H196	H	-0.000391	-0.848680	0.228924
H197	H	-0.430588	-1.404753	-0.215149
H198	H	0.069412	-0.904753	0.284851
H199	H	-0.430651	-1.338856	-0.149063
H200	H	0.069349	-0.838856	0.350937
H201	H	-0.476058	-1.400298	-0.153701
H202	H	0.023942	-0.900298	0.346299
C203	C	-0.945882	-1.272992	-0.281037
C204	C	-0.445882	-0.772992	0.218963
C205	C	-0.981473	-1.318202	-0.235942
C206	C	-0.481473	-0.818202	0.264058
C207	C	-0.954267	-1.369892	-0.184377
C208	C	-0.454267	-0.869892	0.315623
H209	H	-0.924614	-1.242250	-0.245801
H210	H	-0.424614	-0.742250	0.254199
H211	H	-0.924558	-1.308144	-0.311889
H212	H	-0.424558	-0.808144	0.188111
H213	H	-1.002788	-1.283054	-0.205091
H214	H	-0.502788	-0.783054	0.294909
H215	H	-1.002743	-1.348960	-0.271156
H216	H	-0.502743	-0.848960	0.228844
H217	H	-0.932943	-1.405044	-0.215230
H218	H	-0.432943	-0.905044	0.284770
H219	H	-0.932999	-1.339144	-0.149147
H220	H	-0.432999	-0.839144	0.350853
H221	H	-0.978411	-1.400578	-0.153780
H222	H	-0.478411	-0.900578	0.346220
C223	C	-1.059629	-1.057696	-0.496081
C224	C	-0.559629	-0.557696	0.003919
C225	C	-1.024038	-1.012511	-0.541200
C226	C	-0.524038	-0.512511	-0.041200
C227	C	-1.051244	-0.960890	-0.592834
C228	C	-0.551244	-0.460890	-0.092834
H229	H	-1.080970	-1.022520	-0.465302
H230	H	-0.580970	-0.522520	0.034698
H231	H	-1.080881	-1.088512	-0.531292
H232	H	-0.580881	-0.588512	-0.031292
H233	H	-1.002795	-0.981697	-0.505993
H234	H	-0.502795	-0.481697	-0.005993
H235	H	-1.002696	-1.047666	-0.571995
H236	H	-0.502696	-0.547666	-0.071995
H237	H	-1.072496	-0.991706	-0.628045
H238	H	-0.572496	-0.491706	-0.128045
H239	H	-1.072584	-0.925719	-0.562049
H240	H	-0.572584	-0.425719	-0.062049
H241	H	-1.027100	-0.930231	-0.623459
H242	H	-0.527100	-0.430231	-0.123459
H243	H	-0.953256	-1.071681	-0.482001
H244	H	-0.453256	-0.571681	0.017999
H245	H	-0.801135	-1.020014	-0.533507
H246	H	-0.301135	-0.520014	-0.033507
H247	H	-0.702085	-1.019973	-0.533496
H248	H	-0.202085	-0.519973	-0.033496
