data_functionalizedCrystal
_audit_creation_method	'MofGen! by Chris Wilmer'
_symmetry_space_group_name_H-M	'P1'
_symmetry_Int_Tables_number	1
_symmetry_cell_setting	triclinic
loop_
_symmetry_equiv_pos_as_xyz
  x,y,z
_cell_length_a	10.686220
_cell_length_b	13.897448
_cell_length_c	10.686551
_cell_angle_alpha	94.404661
_cell_angle_beta	90.308082
_cell_angle_gamma	85.598866
loop_
_atom_site_label
_atom_site_type_symbol
_atom_site_fract_x
_atom_site_fract_y
_atom_site_fract_z
Zn1	Zn	1.972263	0.235164	-0.562391
Zn2	Zn	1.956016	0.409753	-0.352637
Zn3	Zn	1.746379	0.259840	-0.368710
Zn4	Zn	1.762446	0.407798	-0.578415
O5	O	1.859276	0.328139	-0.465538
O6	O	2.145651	0.248815	-0.521135
O7	O	1.914683	0.401012	-0.179224
O8	O	1.776419	0.121579	-0.394423
O9	O	2.133714	0.377085	-0.367029
O10	O	1.942375	0.103450	-0.536720
O11	O	1.760664	0.290871	-0.191032
O12	O	1.572968	0.288975	-0.409960
O13	O	1.803803	0.373753	-0.751834
O14	O	1.584772	0.397680	-0.564029
O15	O	1.957954	0.246920	-0.740062
O16	O	1.930263	0.544481	-0.382566
O17	O	1.788048	0.543045	-0.548444
C18	C	1.533354	0.345794	-0.490478
C19	C	1.393925	0.353368	-0.501177
C20	C	1.859172	0.578760	-0.465524
C21	C	1.859246	0.685968	-0.465552
C22	C	1.859376	0.882251	-0.465632
C23	C	1.859300	0.773025	-0.465592
C24	C	2.186471	0.310416	-0.440502
C25	C	2.325903	0.302863	-0.429833
C26	C	1.884483	0.307366	-0.792738
C27	C	1.895225	0.298514	-0.932171
C28	C	1.859407	1.076535	-0.465592
C29	C	1.859439	0.969316	-0.465655
C30	C	1.834240	0.348757	-0.139606
C31	C	1.823741	0.357324	-0.000155
H32	H	1.374333	0.253830	-0.360566
H33	H	1.964653	0.241392	-0.980643
O34	O	1.336302	0.411805	-0.583981
C35	C	1.377869	0.381197	-0.706634
H36	H	1.473250	0.338838	-0.702099
H37	H	1.386537	0.447081	-0.762406
H38	H	1.307434	0.332923	-0.754579
O39	O	1.741088	0.425520	-0.942189
C40	C	1.806711	0.488722	-0.860945
H41	H	1.900312	0.450773	-0.834179
H42	H	1.748594	0.510200	-0.772655
H43	H	1.824291	0.556298	-0.910301
