data_functionalizedCrystal
_audit_creation_method	'MofGen! by Chris Wilmer'
_symmetry_space_group_name_H-M	'P1'
_symmetry_Int_Tables_number	1
_symmetry_cell_setting	triclinic
loop_
_symmetry_equiv_pos_as_xyz
  x,y,z
_cell_length_a	18.050590
_cell_length_b	13.897449
_cell_length_c	13.897441
_cell_angle_alpha	90.020733
_cell_angle_beta	89.977321
_cell_angle_gamma	89.990680
loop_
_atom_site_label
_atom_site_type_symbol
_atom_site_fract_x
_atom_site_fract_y
_atom_site_fract_z
Zn1	Zn	0.295610	1.474767	0.545434
Zn2	Zn	0.628944	1.808101	0.878768
Zn3	Zn	0.962277	2.141434	1.212101
Zn4	Zn	0.419815	1.474688	0.384158
Zn5	Zn	0.753148	1.808022	0.717491
Zn6	Zn	1.086481	2.141355	1.050825
Zn7	Zn	0.295646	1.313456	0.384153
Zn8	Zn	0.628979	1.646790	0.717486
Zn9	Zn	0.962312	1.980123	1.050819
Zn10	Zn	0.419766	1.313465	0.545411
Zn11	Zn	0.753099	1.646799	0.878744
Zn12	Zn	1.086432	1.980132	1.212077
O13	O	0.357709	1.394094	0.464789
O14	O	0.691042	1.727428	0.798122
O15	O	1.024376	2.060761	1.131456
O16	O	0.312092	1.609738	0.524053
O17	O	0.645425	1.943072	0.857386
O18	O	0.978759	2.276405	1.190719
O19	O	0.403379	1.453264	0.249176
O20	O	0.736712	1.786597	0.582509
O21	O	1.070045	2.119931	0.915842
O22	O	0.191716	1.334884	0.405555
O23	O	0.525050	1.668217	0.738888
O24	O	0.858383	2.001551	1.072221
O25	O	0.403344	1.609681	0.405564
O26	O	0.736678	1.943014	0.738897
O27	O	1.070011	2.276347	1.072230
O28	O	0.191690	1.453398	0.524048
O29	O	0.525024	1.786732	0.857381
O30	O	0.858357	2.120065	1.190714
O31	O	0.312152	1.334808	0.249172
O32	O	0.645486	1.668141	0.582505
O33	O	0.978819	2.001474	0.915838
O34	O	0.312105	1.178476	0.405532
O35	O	0.645438	1.511809	0.738865
O36	O	0.978772	1.845143	1.072198
O37	O	0.403261	1.334899	0.680395
O38	O	0.736594	1.668232	1.013729
O39	O	1.069928	2.001566	1.347062
O40	O	0.403295	1.178483	0.524007
O41	O	0.736629	1.511816	0.857341
O42	O	1.069962	1.845149	1.190674
O43	O	0.312045	1.453407	0.680413
O44	O	0.645378	1.786740	1.013746
O45	O	0.978711	2.120074	1.347080
O46	O	0.523733	1.453273	0.405541
O47	O	0.857066	1.786606	0.738874
O48	O	1.190399	2.119939	1.072207
O49	O	0.523697	1.334823	0.524012
O50	O	0.857030	1.668156	0.857346
O51	O	1.190363	2.001489	1.190679
C52	C	0.357699	1.143480	0.464767
C53	C	0.691033	1.476813	0.798100
C54	C	1.024366	1.810147	1.131434
C55	C	0.357713	1.036266	0.464780
C56	C	0.691046	1.369599	0.798114
C57	C	1.024380	1.702933	1.131447
C58	C	0.164004	1.394149	0.464803
C59	C	0.497337	1.727482	0.798137
C60	C	0.830670	2.060816	1.131470
C61	C	0.081458	1.394172	0.464809
C62	C	0.414791	1.727506	0.798143
C63	C	0.748124	2.060839	1.131476
C64	C	0.357715	0.839971	0.464806
C65	C	0.691049	1.173304	0.798139
C66	C	1.024382	1.506638	1.131472
C67	C	0.357712	0.949204	0.464789
C68	C	0.691045	1.282537	0.798122
C69	C	1.024378	1.615870	1.131456
C70	C	-0.118007	1.458617	0.529266
C71	C	0.215326	1.791950	0.862599
C72	C	0.548660	2.125283	1.195933
C73	C	-0.167376	1.482186	0.441268
C74	C	0.165957	1.815519	0.774602
C75	C	0.499290	2.148852	1.107935
C76	C	-0.069673	1.394163	0.464814
C77	C	0.263661	1.727496	0.798148
C78	C	0.596994	2.060829	1.131481
C79	C	-0.167385	1.370629	0.552815
C80	C	0.165948	1.703963	0.886148
C81	C	0.499282	2.037296	1.219481
C82	C	-0.215658	1.394155	0.464827
C83	C	0.117676	1.727488	0.798160
C84	C	0.451009	2.060822	1.131494
C85	C	-0.117955	1.417777	0.376770
C86	C	0.215379	1.751110	0.710104
C87	C	0.548712	2.084444	1.043437
C88	C	-0.117959	1.306180	0.488376
C89	C	0.215374	1.639513	0.821709
C90	C	0.548708	1.972846	1.155043
C91	C	-0.167306	1.329715	0.400318
C92	C	0.166027	1.663048	0.733651
C93	C	0.499361	1.996382	1.066984
C94	C	0.014426	1.394169	0.464808
C95	C	0.347759	1.727503	0.798142
C96	C	0.681092	2.060836	1.131475
C97	C	-0.299754	1.394148	0.464823
C98	C	0.033579	1.727481	0.798157
C99	C	0.366912	2.060815	1.131490
C100	C	0.550661	1.394066	0.464796
C101	C	0.883995	1.727400	0.798129
C102	C	1.217328	2.060733	1.131462
C103	C	0.633207	1.394142	0.464831
C104	C	0.966540	1.727476	0.798164
C105	C	1.299874	2.060809	1.131497
C106	C	0.357643	1.394163	0.716382
C107	C	0.690977	1.727496	1.049715
C108	C	1.024310	2.060829	1.383049
C109	C	0.357615	1.394192	0.823596
C110	C	0.690949	1.727525	1.156929
C111	C	1.024282	2.060859	1.490263
C112	C	0.357720	1.645687	0.464812
C113	C	0.691053	1.979021	0.798145
C114	C	1.024386	2.312354	1.131478
C115	C	0.357724	1.752901	0.464821
C116	C	0.691057	2.086235	0.798154
C117	C	1.024391	2.419568	1.131488
C118	C	0.357721	1.394082	0.214175
C119	C	0.691054	1.727415	0.547508
C120	C	1.024388	2.060748	0.880841
C121	C	0.357540	1.394239	0.106961
C122	C	0.690873	1.727573	0.440294
C123	C	1.024206	2.060906	0.773628
C124	C	0.357565	1.394218	1.019891
C125	C	0.690899	1.727551	1.353225
C126	C	1.024232	2.060885	1.686558
C127	C	0.357595	1.394201	0.910659
C128	C	0.690929	1.727534	1.243992
C129	C	1.024262	2.060867	1.577325
H130	H	-0.096361	1.513168	0.583698
H131	H	0.236973	1.846502	0.917031
H132	H	0.570306	2.179835	1.250364
H133	H	-0.096238	1.231798	0.508331
H134	H	0.237095	1.565132	0.841664
H135	H	0.570429	1.898465	1.174998
O136	O	-0.193375	1.346764	0.641515
O137	O	0.139958	1.680097	0.974848
O138	O	0.473292	2.013431	1.308182
C139	C	-0.236293	1.262267	0.634877
C140	C	0.097040	1.595600	0.968210
C141	C	0.430373	1.928933	1.301543
H142	H	-0.257567	1.253699	0.558127
H143	H	0.075766	1.587032	0.891460
H144	H	0.409100	1.920365	1.224794
H145	H	-0.285265	1.267361	0.686452
H146	H	0.048068	1.600694	1.019785
H147	H	0.381401	1.934028	1.353119
H148	H	-0.200755	1.197415	0.654683
H149	H	0.132578	1.530749	0.988016
H150	H	0.465912	1.864082	1.321350
O151	O	-0.193007	1.264574	0.335365
O152	O	0.140326	1.597907	0.668698
O153	O	0.473659	1.931240	1.002032
C154	C	-0.236004	1.194691	0.383207
C155	C	0.097329	1.528025	0.716540
C156	C	0.430663	1.861358	1.049874
H157	H	-0.219325	1.191818	0.462261
H158	H	0.114009	1.525151	0.795594
H159	H	0.447342	1.858484	1.128928
H160	H	-0.226311	1.121331	0.348696
H161	H	0.107023	1.454664	0.682029
H162	H	0.440356	1.787997	1.015362
H163	H	-0.297143	1.214416	0.377350
H164	H	0.036190	1.547749	0.710683
H165	H	0.369523	1.881083	1.044017
H166	H	-0.189082	1.556588	0.421338
H167	H	0.144251	1.889921	0.754672
H168	H	0.477584	2.223254	1.088005
H169	H	-0.096333	1.437770	0.302335
H170	H	0.237000	1.771103	0.635668
H171	H	0.570333	2.104436	0.969002
