data_functionalizedCrystal
_audit_creation_method	'MofGen! by Chris Wilmer'
_symmetry_space_group_name_H-M	'P1'
_symmetry_Int_Tables_number	1
_symmetry_cell_setting	triclinic
loop_
_symmetry_equiv_pos_as_xyz
  x,y,z
_cell_length_a	16.109301
_cell_length_b	27.732048
_cell_length_c	15.186229
_cell_angle_alpha	89.991324
_cell_angle_beta	89.999362
_cell_angle_gamma	83.052068
loop_
_atom_site_label
_atom_site_type_symbol
_atom_site_fract_x
_atom_site_fract_y
_atom_site_fract_z
O1	O	1.102361	0.062130	-0.073183
O2	O	0.860204	0.069862	-0.073198
O3	O	0.988803	-0.004369	-0.073173
O4	O	0.973762	0.136361	-0.073208
O5	O	0.988795	-0.004370	0.073284
O6	O	0.860195	0.069861	0.073259
O7	O	1.102353	0.062129	0.073275
Zn8	Zn	0.981273	0.065995	0.096520
Zn9	Zn	0.981284	0.065996	-0.096444
O10	O	0.973753	0.136360	0.073250
C11	C	0.829228	0.069548	0.000029
C12	C	0.736945	0.068609	0.000024
C13	C	0.514154	0.110473	0.000024
C14	C	0.427445	0.109587	0.000030
C15	C	0.448409	0.021514	0.000048
C16	C	0.535117	0.022401	0.000048
C17	C	0.567987	0.066882	0.000032
C18	C	0.394570	0.065109	0.000037
C19	C	0.300556	0.064148	0.000044
C20	C	0.662007	0.067843	0.000027
C21	C	0.988483	-0.022378	0.000058
C22	C	0.987533	-0.076037	0.000065
C23	C	1.057541	-0.414559	0.000024
C24	C	1.054013	-0.616233	0.000012
O25	O	1.118031	-0.647221	-0.000023
N26	N	0.977759	-0.635676	0.000008
C27	C	0.902381	-0.604697	0.000001
O28	O	0.837441	-0.625862	-0.000011
C29	C	0.905910	-0.403024	0.000008
C30	C	0.982169	-0.383584	0.000020
C31	C	1.133794	-0.395119	0.000036
C32	C	1.134675	-0.344703	0.000044
C33	C	1.059303	-0.313728	0.000040
C34	C	0.983050	-0.333168	0.000028
C35	C	0.830533	-0.372045	-0.000005
C36	C	0.831422	-0.321624	-0.000006
C37	C	0.907681	-0.302184	0.000007
C38	C	0.908559	-0.251777	0.000032
N39	N	0.984814	-0.232334	0.000036
C40	C	1.060186	-0.263310	0.000040
C41	C	0.900534	-0.710579	-0.000000
C42	C	0.899652	-0.760997	-0.000000
C43	C	1.051284	-0.772530	0.000009
C44	C	1.052166	-0.722111	0.000015
C45	C	0.976789	-0.691136	0.000004
C46	C	1.062030	-0.157433	0.000058
C47	C	1.062905	-0.107012	0.000069
C48	C	0.911273	-0.095484	0.000056
C49	C	0.910398	-0.145900	0.000049
C50	C	0.985783	-0.176874	0.000047
O51	O	0.844576	-0.220761	0.000057
O52	O	1.125116	-0.242135	0.000033
C53	C	1.056660	-0.464975	0.000016
C54	C	0.980407	-0.484415	0.000005
C55	C	0.905035	-0.453440	0.000001
C56	C	0.979525	-0.534833	0.000005
C57	C	1.054897	-0.565808	0.000009
C58	C	1.131151	-0.546365	0.000013
C59	C	1.132032	-0.495950	0.000020
C60	C	0.828781	-0.472883	-0.000003
C61	C	0.827906	-0.523299	-0.000010
C62	C	0.903278	-0.554274	-0.000006
C63	C	1.133328	0.062443	0.000046
C64	C	1.225612	0.063382	0.000045
C65	C	0.974073	0.154369	0.000017
C66	C	0.975024	0.208028	0.000004
N67	N	0.981271	0.065994	0.228213
N68	N	0.981292	0.065994	-0.228136
C69	C	1.038234	0.033135	0.453947
C70	C	1.038237	0.033134	0.546136
C71	C	0.924323	0.098854	0.546124
C72	C	0.924317	0.098852	0.453936
C73	C	0.981277	0.065993	0.407850
C74	C	0.981286	0.065994	0.592227
C75	C	0.981288	0.065993	0.692183
C76	C	0.981274	0.065994	0.307887
H77	H	0.578951	-0.013099	0.000057
C78	C	0.382880	0.184381	-0.075283
C79	C	0.368270	0.157504	0.000015
H80	H	0.346344	0.213962	-0.075293
H81	H	0.439218	0.191272	-0.075280
H82	H	0.372972	0.166136	-0.126344
H83	H	0.378185	0.175747	0.051076
H84	H	0.311919	0.150614	0.000020
H85	H	1.084613	0.006379	0.416426
H86	H	0.877932	0.125610	0.416401
H87	H	0.770039	-0.296407	-0.000017
H88	H	0.421636	-0.014700	0.000066
C89	C	1.150841	-0.031822	0.536883
C90	C	1.100849	-0.002983	0.596806
H91	H	1.189499	-0.054118	0.568166
H92	H	1.116459	-0.049215	0.500936
H93	H	1.180480	-0.011690	0.500917
H94	H	1.071205	-0.023115	0.632768
H95	H	1.135236	0.014411	0.632768
H96	H	1.125007	-0.091187	0.000082
C97	C	0.873758	0.128041	0.687436
C98	C	0.861722	0.134975	0.596785
H99	H	0.835114	0.150345	0.718709
H100	H	0.865141	0.095785	0.702554
H101	H	0.929180	0.133300	0.702526
H102	H	0.806302	0.129714	0.581694
H103	H	0.870333	0.167240	0.581661
C104	C	0.599493	0.162570	-0.075280
C105	C	0.550283	0.159367	0.000011
H106	H	0.621790	0.192757	-0.075288
H107	H	0.643963	0.136740	-0.075270
H108	H	0.566094	0.160393	-0.126346
H109	H	0.583684	0.161540	0.051077
H110	H	0.505807	0.185204	0.000008
C111	C	0.821423	-0.195917	0.075324
C112	C	0.826572	-0.167269	0.000044
H113	H	0.769668	-0.209103	0.075316
H114	H	0.866176	-0.221581	0.075314
H115	H	0.824919	-0.176492	0.126397
H116	H	0.823082	-0.186695	-0.051029
H117	H	0.781806	-0.141601	0.000046
H118	H	1.123416	-0.182646	0.000053
C119	C	1.264189	-0.339016	-0.075244
C120	C	1.218503	-0.323339	0.000046
H121	H	1.315941	-0.325827	-0.075247
H122	H	1.274437	-0.373472	-0.075237
H123	H	1.233175	-0.328372	-0.126310
H124	H	1.249514	-0.333986	0.051112
H125	H	1.208258	-0.288876	0.000047
C126	C	1.220801	-0.458497	-0.075246
C127	C	1.216655	-0.429160	0.000041
H128	H	1.271962	-0.479507	-0.075239
H129	H	1.175276	-0.477297	-0.075244
H130	H	1.217990	-0.438580	-0.126314
H131	H	1.219459	-0.449077	0.051110
H132	H	1.262192	-0.410359	0.000048
C133	C	1.141134	-0.672101	-0.075268
C134	C	1.135989	-0.700743	0.000020
H135	H	1.192883	-0.658909	-0.075262
H136	H	1.137641	-0.691528	-0.126330
H137	H	1.096370	-0.646436	-0.075263
H138	H	1.180750	-0.726410	0.000012
H139	H	1.139490	-0.681315	0.051095
C140	C	1.138246	-0.835913	-0.075292
C141	C	1.134137	-0.806583	0.000002
H142	H	1.189396	-0.856934	-0.075303
H143	H	1.092707	-0.854702	-0.075282
H144	H	1.135435	-0.815992	-0.126356
H145	H	1.136942	-0.826503	0.051066
H146	H	1.179689	-0.787792	-0.000000
C147	C	0.749861	-0.744521	-0.000016
C148	C	0.815825	-0.782362	-0.000007
H149	H	0.698110	-0.757710	-0.000030
H150	H	0.753357	-0.725102	0.051055
H151	H	0.753375	-0.725091	-0.051091
H152	H	0.812315	-0.801790	0.051071
H153	H	0.812328	-0.801788	-0.051084
H154	H	0.768435	-0.387864	-0.000021
C155	C	0.813536	-0.647190	-0.075297
C156	C	0.817670	-0.676536	-0.000008
H157	H	0.762375	-0.626178	-0.075300
H158	H	0.859062	-0.628391	-0.075289
H159	H	0.816353	-0.667099	-0.126364
H160	H	0.814859	-0.656626	0.051059
H161	H	0.772131	-0.695337	-0.000008
C162	C	0.845313	-0.013072	0.000047
C163	C	0.828426	-0.061429	0.000046
H164	H	0.794166	0.007952	0.000031
H165	H	0.876595	-0.007188	0.051123
H166	H	0.876621	-0.007183	-0.051023
H167	H	0.797124	-0.067319	0.051119
H168	H	0.797131	-0.067315	-0.051036
H169	H	1.194130	-0.480127	0.000031
H170	H	1.192521	-0.571594	0.000020
C171	C	0.678109	-0.506822	-0.000035
C172	C	0.744073	-0.544663	-0.000027
H173	H	0.626357	-0.520011	-0.000057
H174	H	0.681601	-0.487407	0.051041
H175	H	0.681627	-0.487389	-0.051105
H176	H	0.740559	-0.564094	0.051046
H177	H	0.740580	-0.564086	-0.051109
H178	H	0.767402	-0.447667	-0.000009
