data_functionalizedCrystal
_audit_creation_method	'MofGen! by Chris Wilmer'
_symmetry_space_group_name_H-M	'P1'
_symmetry_Int_Tables_number	1
_symmetry_cell_setting	triclinic
loop_
_symmetry_equiv_pos_as_xyz
  x,y,z
_cell_length_a	19.805399
_cell_length_b	21.295419
_cell_length_c	19.805404
_cell_angle_alpha	89.954090
_cell_angle_beta	89.970203
_cell_angle_gamma	90.019371
loop_
_atom_site_label
_atom_site_type_symbol
_atom_site_fract_x
_atom_site_fract_y
_atom_site_fract_z
Zn1	Zn	-0.382706	-0.962324	-0.269180
Zn2	Zn	-0.049372	-0.628991	0.064154
Zn3	Zn	0.283961	-0.295657	0.397487
Zn4	Zn	-0.269513	-0.962239	-0.382368
Zn5	Zn	0.063820	-0.628906	-0.049035
Zn6	Zn	0.397154	-0.295573	0.284298
Zn7	Zn	-0.269531	-0.857058	-0.269231
Zn8	Zn	0.063803	-0.523725	0.064102
Zn9	Zn	0.397136	-0.190391	0.397435
Zn10	Zn	-0.382660	-0.857019	-0.382365
Zn11	Zn	-0.049327	-0.523685	-0.049032
Zn12	Zn	0.284006	-0.190352	0.284302
O13	O	-0.326102	-0.909660	-0.325786
O14	O	0.007231	-0.576327	0.007547
O15	O	0.340564	-0.242993	0.340881
O16	O	-0.367702	-1.050402	-0.284174
O17	O	-0.034369	-0.717069	0.049159
O18	O	0.298965	-0.383735	0.382492
O19	O	-0.174799	-0.948268	-0.367383
O20	O	0.158535	-0.614934	-0.034050
O21	O	0.491868	-0.281601	0.299283
O22	O	-0.284570	-0.871074	-0.174508
O23	O	0.048763	-0.537740	0.158826
O24	O	0.382097	-0.204407	0.492159
O25	O	-0.284540	-1.050340	-0.367333
O26	O	0.048793	-0.717007	-0.034000
O27	O	0.382127	-0.383673	0.299333
O28	O	-0.367719	-0.948412	-0.174470
O29	O	-0.034386	-0.615079	0.158863
O30	O	0.298947	-0.281745	0.492197
O31	O	-0.174812	-0.870992	-0.284262
O32	O	0.158522	-0.537658	0.049071
O33	O	0.491855	-0.204325	0.382405
O34	O	-0.284526	-0.768963	-0.284259
O35	O	0.048807	-0.435630	0.049075
O36	O	0.382141	-0.102297	0.382408
O37	O	-0.477383	-0.871007	-0.367328
O38	O	-0.144050	-0.537673	-0.033995
O39	O	0.189284	-0.204340	0.299339
O40	O	-0.367642	-0.768934	-0.367378
O41	O	-0.034308	-0.435601	-0.034044
O42	O	0.299025	-0.102268	0.299289
O43	O	-0.477416	-0.948374	-0.284171
O44	O	-0.144083	-0.615041	0.049162
O45	O	0.189250	-0.281707	0.382495
O46	O	-0.284496	-0.948230	-0.477084
O47	O	0.048837	-0.614896	-0.143751
O48	O	0.382171	-0.281563	0.189582
O49	O	-0.367625	-0.870924	-0.477082
O50	O	-0.034291	-0.537591	-0.143749
O51	O	0.299042	-0.204258	0.189585
C52	C	-0.326081	-0.746108	-0.325824
C53	C	0.007252	-0.412775	0.007509
C54	C	0.340586	-0.079442	0.340843
C55	C	-0.326088	-0.676140	-0.325856
C56	C	0.007245	-0.342807	0.007477
C57	C	0.340579	-0.009474	0.340810
C58	C	-0.369457	-0.643328	-0.282627
C59	C	-0.036124	-0.309995	0.050706
C60	C	0.297210	0.023338	0.384039
C61	C	-0.369459	-0.577586	-0.282611
C62	C	-0.036125	-0.244253	0.050722
C63	C	0.297208	0.089081	0.384055
C64	C	-0.326099	-0.544658	-0.325836
C65	C	0.007235	-0.211324	0.007497
C66	C	0.340568	0.122009	0.340830
C67	C	-0.282721	-0.577477	-0.369069
C68	C	0.050612	-0.244144	-0.035735
C69	C	0.383945	0.089189	0.297598
C70	C	-0.282716	-0.643219	-0.369079
C71	C	0.050617	-0.309885	-0.035745
C72	C	0.383951	0.023448	0.297588
N73	N	-0.320808	-0.441384	-0.385062
N74	N	0.012525	-0.108051	-0.051728
N75	N	0.345858	0.225283	0.281605
N76	N	-0.320817	-0.378932	-0.385050
N77	N	0.012516	-0.045599	-0.051717
N78	N	0.345849	0.287734	0.281616
C79	C	-0.326111	-0.346583	-0.325808
C80	C	0.007223	-0.013250	0.007525
C81	C	0.340556	0.320084	0.340859
N82	N	-0.331408	-0.379044	-0.266576
N83	N	0.001925	-0.045711	0.066757
N84	N	0.335259	0.287622	0.400090
N85	N	-0.331403	-0.441501	-0.266588
N86	N	0.001931	-0.108168	0.066745
N87	N	0.335264	0.225165	0.400078
C88	C	-0.326099	-0.473372	-0.325830
C89	C	0.007234	-0.140039	0.007503
C90	C	0.340568	0.193294	0.340836
C91	C	-0.369484	-0.242486	-0.282558
C92	C	-0.036151	0.090848	0.050775
C93	C	0.297183	0.424181	0.384109
C94	C	-0.369481	-0.176742	-0.282541
C95	C	-0.036148	0.156591	0.050793
C96	C	0.297186	0.489925	0.384126
C97	C	-0.282747	-0.176635	-0.369004
C98	C	0.050587	0.156699	-0.035671
C99	C	0.383920	0.490032	0.297663
C100	C	-0.282746	-0.242377	-0.369015
C101	C	0.050587	0.090956	-0.035682
C102	C	0.383920	0.424289	0.297652
C103	C	-0.326118	-0.275299	-0.325793
C104	C	0.007215	0.058035	0.007540
C105	C	0.340548	0.391368	0.340874
C106	C	-0.502645	-0.909695	-0.325743
C107	C	-0.169312	-0.576362	0.007590
C108	C	0.164021	-0.243029	0.340923
C109	C	-0.577877	-0.909710	-0.325725
C110	C	-0.244544	-0.576377	0.007608
C111	C	0.088789	-0.243044	0.340941
C112	C	-0.613240	-0.949996	-0.282423
C113	C	-0.279907	-0.616663	0.050910
C114	C	0.053427	-0.283330	0.384243
C115	C	-0.683928	-0.950003	-0.282404
C116	C	-0.350595	-0.616669	0.050930
C117	C	-0.017262	-0.283336	0.384263
C118	C	-0.719253	-0.909726	-0.325690
C119	C	-0.385920	-0.576393	0.007643
C120	C	-0.052586	-0.243059	0.340977
C121	C	-0.683885	-0.869435	-0.368994
C122	C	-0.350552	-0.536102	-0.035660
C123	C	-0.017219	-0.202769	0.297673
C124	C	-0.613198	-0.869426	-0.369009
C125	C	-0.279865	-0.536093	-0.035676
C126	C	0.053469	-0.202760	0.297657
C127	C	-0.968959	-0.869471	-0.368931
C128	C	-0.635625	-0.536138	-0.035597
C129	C	-0.302292	-0.202804	0.297736
C130	C	-1.039651	-0.869485	-0.368913
C131	C	-0.706318	-0.536151	-0.035580
C132	C	-0.372984	-0.202818	0.297754
C133	C	-1.039689	-0.950048	-0.282325
C134	C	-0.706356	-0.616714	0.051008
C135	C	-0.373022	-0.283381	0.384342
C136	C	-0.969002	-0.950038	-0.282341
C137	C	-0.635669	-0.616705	0.050993
C138	C	-0.302335	-0.283372	0.384326
C139	C	-0.933640	-0.909746	-0.325642
C140	C	-0.600307	-0.576412	0.007692
C141	C	-0.266974	-0.243079	0.341025
C142	C	-0.856992	-0.909738	-0.325661
C143	C	-0.523659	-0.576405	0.007672
C144	C	-0.190325	-0.243072	0.341005
C145	C	-0.795900	-0.909736	-0.325674
C146	C	-0.462567	-0.576403	0.007659
C147	C	-0.129233	-0.243069	0.340993
C148	C	-0.150246	-0.909661	-0.325780
C149	C	0.183087	-0.576328	0.007554
C150	C	0.516420	-0.242994	0.340887
C151	C	-0.075015	-0.909768	-0.325607
C152	C	0.258318	-0.576435	0.007726
C153	C	0.591652	-0.243101	0.341060
C154	C	-0.326068	-0.909581	-0.501642
C155	C	0.007265	-0.576247	-0.168309
C156	C	0.340598	-0.242914	0.165025
C157	C	-0.326076	-0.909604	-0.576874
C158	C	0.007257	-0.576271	-0.243541
C159	C	0.340591	-0.242938	0.089793
C160	C	-0.326121	-0.073850	-0.325757
C161	C	0.007213	0.259483	0.007577
C162	C	0.340546	0.592816	0.340910
C163	C	-0.326119	-0.143818	-0.325766
C164	C	0.007214	0.189515	0.007568
C165	C	0.340547	0.522848	0.340901
C166	C	-0.369493	-0.950016	-1.038586
C167	C	-0.036160	-0.616682	-0.705253
C168	C	0.297173	-0.283349	-0.371920
C169	C	-0.369478	-0.949991	-0.967898
C170	C	-0.036145	-0.616657	-0.634565
C171	C	0.297189	-0.283324	-0.301231
C172	C	-0.326144	-0.909744	-0.932636
C173	C	0.007189	-0.576411	-0.599302
C174	C	0.340522	-0.243078	-0.265969
C175	C	-0.282819	-0.869525	-0.968065
C176	C	0.050515	-0.536192	-0.634732
C177	C	0.383848	-0.202858	-0.301399
C178	C	-0.282831	-0.869553	-1.038753
C179	C	0.050502	-0.536220	-0.705419
C180	C	0.383835	-0.202887	-0.372086
C181	C	-0.282766	-0.869410	-0.682992
C182	C	0.050567	-0.536076	-0.349659
C183	C	0.383901	-0.202743	-0.016326
C184	C	-0.282758	-0.869383	-0.612300
C185	C	0.050575	-0.536050	-0.278967
C186	C	0.383908	-0.202716	0.054366
C187	C	-0.369413	-0.949847	-0.612138
C188	C	-0.036079	-0.616514	-0.278804
C189	C	0.297254	-0.283180	0.054529
C190	C	-0.369425	-0.949875	-0.682825
C191	C	-0.036092	-0.616542	-0.349491
C192	C	0.297241	-0.283209	-0.016158
C193	C	-0.326097	-0.909659	-0.718248
C194	C	0.007236	-0.576325	-0.384915
C195	C	0.340569	-0.242992	-0.051582
C196	C	-0.326114	-0.909687	-0.794897
C197	C	0.007219	-0.576354	-0.461563
C198	C	0.340553	-0.243020	-0.128230
C199	C	-0.326131	-0.909713	-0.855989
C200	C	0.007203	-0.576379	-0.522655
C201	C	0.340536	-0.243046	-0.189322
C202	C	-0.326152	-0.909757	-0.149243
C203	C	0.007182	-0.576423	0.184090
C204	C	0.340515	-0.243090	0.517423
C205	C	-0.326173	-0.909798	-0.074011
C206	C	0.007161	-0.576464	0.259322
C207	C	0.340494	-0.243131	0.592655
H208	H	-0.247417	-0.550663	-0.404262
H209	H	0.085917	-0.217330	-0.070929
H210	H	0.419250	0.116004	0.262404
N211	N	-1.077759	-0.826033	-0.415589
N212	N	-0.744425	-0.492700	-0.082256
N213	N	-0.411092	-0.159366	0.251078
H214	H	-1.107084	-0.851598	-0.446945
H215	H	-0.773751	-0.518265	-0.113612
H216	H	-0.440417	-0.184931	0.219721
H217	H	-1.044594	-0.800509	-0.442976
H218	H	-0.711260	-0.467176	-0.109643
H219	H	-0.377927	-0.133843	0.223690
H220	H	-0.940244	-0.982838	-0.247095
H221	H	-0.606911	-0.649505	0.086238
H222	H	-0.273577	-0.316171	0.419572
N223	N	-0.575142	-0.993442	-0.235740
N224	N	-0.241809	-0.660109	0.097593
N225	N	0.091524	-0.326776	0.430926
H226	H	-0.608273	-1.018963	-0.208305
H227	H	-0.274940	-0.685630	0.125028
H228	H	0.058393	-0.352297	0.458361
H229	H	-0.545817	-0.967833	-0.204429
H230	H	-0.212483	-0.634500	0.128904
H231	H	0.120850	-0.301166	0.462238
N232	N	-0.236104	-0.826179	-1.076964
N233	N	0.097229	-0.492846	-0.743631
N234	N	0.430563	-0.159512	-0.410298
H235	H	-0.208650	-0.800678	-1.043901
H236	H	0.124683	-0.467345	-0.710568
H237	H	0.458016	-0.134012	-0.377234
H238	H	-0.263629	-0.797044	-1.106315
H239	H	0.069705	-0.463710	-0.772981
H240	H	0.403038	-0.130377	-0.439648
H241	H	-0.404752	-0.982739	-0.939055
H242	H	-0.071419	-0.649406	-0.605722
H243	H	0.261914	-0.316073	-0.272389
N244	N	-0.236078	-0.826122	-0.930030
N245	N	0.097256	-0.492788	-0.596697
N246	N	0.430589	-0.159455	-0.263364
H247	H	-0.263549	-0.796922	-0.900723
H248	H	0.069784	-0.463589	-0.567389
H249	H	0.403117	-0.130255	-0.234056
H250	H	-0.208642	-0.800691	-0.963240
H251	H	0.124692	-0.467357	-0.629906
H252	H	0.458025	-0.134024	-0.296573
H253	H	-0.712718	-0.982809	-0.247145
H254	H	-0.379384	-0.649476	0.086189
H255	H	-0.046051	-0.316143	0.419522
N256	N	-0.930843	-0.826009	-0.415640
N257	N	-0.597510	-0.492675	-0.082307
N258	N	-0.264176	-0.159342	0.251027
H259	H	-0.901508	-0.851558	-0.447015
H260	H	-0.568174	-0.518225	-0.113682
H261	H	-0.234841	-0.184891	0.219652
H262	H	-0.901561	-0.796849	-0.388103
H263	H	-0.568228	-0.463515	-0.054770
H264	H	-0.234894	-0.130182	0.278564
N265	N	-0.721981	-0.825979	-0.415667
N266	N	-0.388648	-0.492645	-0.082333
N267	N	-0.055315	-0.159312	0.251000
H268	H	-0.772128	-0.832094	-0.409084
H269	H	-0.438795	-0.498761	-0.075751
H270	H	-0.105461	-0.165428	0.257582
H271	H	-0.709619	-0.835736	-0.464011
H272	H	-0.376285	-0.502403	-0.130678
H273	H	-0.042952	-0.169069	0.202655
N274	N	-0.416236	-0.542185	-0.235984
N275	N	-0.082903	-0.208852	0.097350
N276	N	0.250430	0.124482	0.430683
H277	H	-0.443710	-0.573017	-0.208604
H278	H	-0.110377	-0.239683	0.124729
H279	H	0.222956	0.093650	0.458062
H280	H	-0.447507	-0.514898	-0.263578
H281	H	-0.114174	-0.181564	0.069755
H282	H	0.219160	0.151769	0.403088
H283	H	-0.404774	-0.670129	-0.247432
H284	H	-0.071440	-0.336796	0.085901
H285	H	0.261893	-0.003462	0.419235
H286	H	-0.247399	-0.669934	-0.404282
H287	H	0.085935	-0.336600	-0.070949
H288	H	0.419268	-0.003267	0.262385
H289	H	-0.404714	-0.982646	-0.711532
H290	H	-0.071381	-0.649312	-0.378199
H291	H	0.261952	-0.315979	-0.044865
H292	H	-0.404690	-0.982596	-0.583288
H293	H	-0.071357	-0.649263	-0.249955
H294	H	0.261976	-0.315929	0.083378
H295	H	-0.247442	-0.149825	-0.404199
H296	H	0.085891	0.183508	-0.070865
H297	H	0.419225	0.516841	0.262468
H298	H	-0.404796	-0.269292	-0.247360
H299	H	-0.071462	0.064042	0.085974
H300	H	0.261871	0.397375	0.419307
N301	N	-1.077829	-0.993506	-0.235618
N302	N	-0.744495	-0.660173	0.097715
N303	N	-0.411162	-0.326840	0.431049
H304	H	-1.127969	-0.987401	-0.242172
H305	H	-0.794636	-0.654068	0.091162
H306	H	-0.461302	-0.320735	0.424495
H307	H	-1.065482	-0.983736	-0.187283
H308	H	-0.732149	-0.650403	0.146050
H309	H	-0.398816	-0.317069	0.479384
H310	H	-0.404796	-0.150028	-0.247334
H311	H	-0.071463	0.183306	0.085999
H312	H	0.261871	0.516639	0.419332
H313	H	-0.247433	-0.269093	-0.404220
H314	H	0.085900	0.064240	-0.070886
H315	H	0.419233	0.397574	0.262447
H316	H	-0.584407	-0.836615	-0.404263
H317	H	-0.251073	-0.503281	-0.070930
H318	H	0.082260	-0.169948	0.262403
H319	H	-0.404787	-0.982783	-1.067292
H320	H	-0.071454	-0.649449	-0.733959
H321	H	0.261879	-0.316116	-0.400625
N322	N	-0.236017	-0.825974	-0.574265
N323	N	0.097317	-0.492641	-0.240931
N324	N	0.430650	-0.159307	0.092402
H325	H	-0.208568	-0.800502	-0.607431
H326	H	0.124765	-0.467169	-0.274098
H327	H	0.458098	-0.133836	0.059236
H328	H	-0.204720	-0.851609	-0.544922
H329	H	0.128613	-0.518275	-0.211589
H330	H	0.461947	-0.184942	0.121744
H331	H	-0.247486	-0.836663	-0.711826
H332	H	0.085847	-0.503329	-0.378492
H333	H	0.419180	-0.169996	-0.045159
