data_functionalizedCrystal
_audit_creation_method	'MofGen! by Chris Wilmer'
_symmetry_space_group_name_H-M	'P1'
_symmetry_Int_Tables_number	1
_symmetry_cell_setting	triclinic
loop_
_symmetry_equiv_pos_as_xyz
  x,y,z
_cell_length_a	6.394989
_cell_length_b	10.654550
_cell_length_c	9.730223
_cell_angle_alpha	89.999957
_cell_angle_beta	90.001437
_cell_angle_gamma	94.508679
loop_
_atom_site_label
_atom_site_type_symbol
_atom_site_fract_x
_atom_site_fract_y
_atom_site_fract_z
O1	O	-0.293441	1.670947	-0.114177
O2	O	-0.321399	1.305765	-0.114202
O3	O	-0.003431	1.493539	-0.114190
O4	O	-0.611409	1.483172	-0.114189
O5	O	-0.003422	1.493527	0.114390
O6	O	-0.321390	1.305752	0.114378
O7	O	-0.293433	1.670934	0.114403
Zn8	Zn	-0.307410	1.488341	0.150682
Zn9	Zn	-0.307421	1.488358	-0.150482
O10	O	-0.611400	1.483160	0.114391
C11	C	-0.319341	1.258939	0.000085
C12	C	-0.313200	1.119430	0.000075
C13	C	-0.500414	1.041927	0.000080
C14	C	-0.494631	0.910845	0.000104
C15	C	-0.114403	0.934782	0.000113
C16	C	-0.120188	1.065861	0.000099
C17	C	0.074425	1.491483	0.000094
C18	C	0.310750	1.485219	0.000093
C19	C	-0.295490	1.717760	0.000113
C20	C	-0.301631	1.857269	0.000113
N21	N	-0.307401	1.488339	0.356219
N22	N	-0.307414	1.488369	-0.356018
C23	C	-0.166665	1.571516	0.428150
C24	C	-0.166665	1.571528	0.572033
C25	C	-0.448157	1.405184	0.572041
C26	C	-0.448144	1.405166	0.428161
H27	H	0.042741	0.891149	0.000141
O28	O	-0.030055	1.652201	0.358051
C29	C	-0.060134	1.634305	0.215633
H30	H	-0.225553	1.590055	0.195955
H31	H	-0.038198	1.729033	0.160908
H32	H	0.059022	1.569359	0.174871
O33	O	-0.676353	0.835431	-0.000084
C34	C	-0.684400	0.758903	-0.118475
H35	H	-0.518469	0.749648	-0.157930
H36	H	-0.760803	0.661667	-0.091842
H37	H	-0.780433	0.803509	-0.201384
O38	O	0.061741	1.141103	-0.000151
C39	C	0.178839	1.116327	-0.118512
H40	H	0.069200	1.073282	-0.201255
H41	H	0.261262	1.207958	-0.158254
H42	H	0.300743	1.047709	-0.091737
O43	O	-0.688076	1.093760	0.000129
C44	C	-0.852074	0.997239	0.000106
H45	H	-0.792211	0.907315	0.043392
H46	H	-0.986706	1.026746	0.066465
H47	H	-0.909917	0.979607	-0.109554
O48	O	-0.029882	1.652448	0.641693
C49	C	0.094374	1.725826	0.547336
H50	H	0.008694	1.728583	0.444770
H51	H	0.124687	1.825637	0.588895
H52	H	0.250215	1.682594	0.532044
O53	O	-0.584805	1.324523	0.642141
C54	C	-0.554611	1.342353	0.784559
H55	H	-0.478071	1.440985	0.804199
H56	H	-0.712622	1.330885	0.839231
H57	H	-0.448728	1.269609	0.825411
O58	O	-0.585067	1.324321	0.358491
C59	C	-0.709271	1.250900	0.452838
H60	H	-0.712450	1.302444	0.555394
H61	H	-0.875817	1.234364	0.411251
H62	H	-0.639983	1.156524	0.468158
