data_functionalizedCrystal
_audit_creation_method	'MofGen! by Chris Wilmer'
_symmetry_space_group_name_H-M	'P1'
_symmetry_Int_Tables_number	1
_symmetry_cell_setting	triclinic
loop_
_symmetry_equiv_pos_as_xyz
  x,y,z
_cell_length_a	10.654550
_cell_length_b	10.654545
_cell_length_c	9.130313
_cell_angle_alpha	89.996934
_cell_angle_beta	90.004776
_cell_angle_gamma	95.516009
loop_
_atom_site_label
_atom_site_type_symbol
_atom_site_fract_x
_atom_site_fract_y
_atom_site_fract_z
O1	O	-0.176372	1.667843	-0.121786
O2	O	-0.193184	1.302364	-0.121792
O3	O	-0.002038	1.493506	-0.121778
O4	O	-0.367517	1.476700	-0.121800
O5	O	-0.002033	1.493493	0.121821
O6	O	-0.193178	1.302350	0.121807
O7	O	-0.176366	1.667830	0.121813
Cu8	Cu	-0.184772	1.485089	0.144052
Cu9	Cu	-0.184778	1.485104	-0.144031
O10	O	-0.367511	1.476687	0.121799
C11	C	-0.191948	1.255559	0.000007
C12	C	-0.188258	1.116115	0.000005
C13	C	-0.186518	1.050604	0.132791
C14	C	-0.183030	0.919584	0.132791
C15	C	-0.183028	0.919599	-0.132793
C16	C	-0.186507	1.050617	-0.132792
C17	C	-0.414312	1.477927	-0.000003
C18	C	-0.553755	1.481619	-0.000012
C19	C	-0.633243	1.369078	0.000000
C20	C	-0.764264	1.372554	0.000011
C21	C	-0.736297	1.601124	0.000003
C22	C	-0.605278	1.597646	-0.000018
C23	C	-0.581720	1.253051	0.000006
C24	C	-0.661209	1.140500	0.000020
C25	C	-0.792230	1.143976	0.000030
C26	C	-0.843762	1.260004	0.000027
C27	C	0.044762	1.492266	0.000021
C28	C	0.184206	1.488574	0.000020
C29	C	-0.177602	1.714634	0.000011
C30	C	-0.181292	1.854078	0.000004
N31	N	-0.184766	1.485087	0.346675
N32	N	-0.184774	1.485116	-0.346654
C33	C	-0.100163	1.569754	0.423333
C34	C	-0.100163	1.569766	0.576670
C35	C	-0.269381	1.400440	0.576677
C36	C	-0.269374	1.400423	0.423343
H37	H	-0.475038	1.250207	-0.000001
O38	O	-0.786560	1.713718	0.000077
C39	C	-0.919245	1.692653	0.000064
H40	H	-0.949145	1.594908	0.046183
H41	H	-0.955786	1.699063	-0.116796
C42	C	-0.937708	1.913075	0.038964
C43	C	-0.974432	1.793027	0.095621
H44	H	-0.971752	1.974992	0.097902
H45	H	-0.848316	1.927268	0.038968
H46	H	-0.968162	1.918398	-0.058418
H47	H	-0.943965	1.787700	0.192994
H48	H	-1.063821	1.778835	0.095636
O49	O	-0.528236	1.707085	0.000036
C50	C	-0.601803	1.810239	0.000010
H51	H	-0.699288	1.779221	0.046150
H52	H	-0.611462	1.845747	-0.116857
C53	C	-0.417698	1.954948	0.038852
C54	C	-0.537428	1.916854	0.095533
H55	H	-0.377987	2.020716	0.097769
H56	H	-0.368133	1.885452	0.038864
H57	H	-0.425764	1.984530	-0.058536
H58	H	-0.529360	1.887258	0.192912
H59	H	-0.586990	1.986348	0.095540
O60	O	-0.181516	0.856084	-0.261876
C61	C	-0.290963	0.874796	-0.342645
H62	H	-0.329679	0.965497	-0.304891
H63	H	-0.365040	0.791758	-0.324234
C64	C	-0.210601	0.773485	-0.553113
C65	C	-0.258146	0.884891	-0.506751
H66	H	-0.190361	0.779706	-0.654342
H67	H	-0.136866	0.760873	-0.498697
H68	H	-0.272339	0.704298	-0.537758
H69	H	-0.196403	0.954073	-0.522089
H70	H	-0.331871	0.897515	-0.561174
O71	O	-0.017936	1.652135	0.650908
C72	C	0.056760	1.726828	0.550352
H73	H	0.005254	1.728679	0.441044
H74	H	0.150441	1.685247	0.534063
C75	C	0.144642	1.859817	0.744425
C76	C	0.081376	1.862099	0.610174
H77	H	0.159832	1.943257	0.781327
H78	H	0.094322	1.809493	0.812173
H79	H	0.222702	1.825161	0.730833
H80	H	0.003311	1.896740	0.623771
H81	H	0.131684	1.912433	0.542429
H82	H	-0.187944	1.103928	0.240923
O83	O	-0.187979	1.114347	-0.261751
C84	C	-0.081429	1.203440	-0.269666
H85	H	-0.004490	1.173234	-0.194309
H86	H	-0.108612	1.299729	-0.233984
C87	C	-0.126748	1.248595	-0.520864
C88	C	-0.032246	1.211489	-0.428318
H89	H	-0.096411	1.253565	-0.618728
H90	H	-0.198536	1.188575	-0.515531
H91	H	-0.149392	1.328832	-0.491111
H92	H	-0.009615	1.131247	-0.458060
H93	H	0.039548	1.271496	-0.433659
O94	O	-0.351613	1.318084	0.650929
C95	C	-0.426303	1.243368	0.550382
H96	H	-0.374792	1.241497	0.441089
H97	H	-0.519984	1.284944	0.534050
C98	C	-0.514191	1.110417	0.744484
C99	C	-0.450919	1.108110	0.610252
H100	H	-0.529381	1.026984	0.781416
H101	H	-0.463875	1.160756	0.812226
H102	H	-0.592251	1.145069	0.730856
H103	H	-0.372854	1.073473	0.623885
H104	H	-0.501223	1.057761	0.542513
H105	H	-0.031269	1.638690	0.360914
H106	H	-0.338268	1.331471	0.360924
H107	H	-0.619242	1.046034	0.000011
H108	H	-0.181614	0.866250	0.240920
H109	H	-0.856946	1.052332	0.000028
H110	H	-0.950449	1.262825	0.000029
