data_functionalizedCrystal
_audit_creation_method	'MofGen! by Chris Wilmer'
_symmetry_space_group_name_H-M	'P1'
_symmetry_Int_Tables_number	1
_symmetry_cell_setting	triclinic
loop_
_symmetry_equiv_pos_as_xyz
  x,y,z
_cell_length_a	15.995350
_cell_length_b	10.654541
_cell_length_c	9.130307
_cell_angle_alpha	89.996917
_cell_angle_beta	90.002128
_cell_angle_gamma	83.988152
loop_
_atom_site_label
_atom_site_type_symbol
_atom_site_fract_x
_atom_site_fract_y
_atom_site_fract_z
O1	O	1.111921	0.161871	-0.121675
O2	O	0.868262	0.181860	-0.121705
O3	O	0.995695	-0.010947	-0.121680
O4	O	0.984488	0.354679	-0.121699
O5	O	0.995691	-0.010949	0.121919
O6	O	0.868258	0.181859	0.121894
O7	O	1.111917	0.161869	0.121924
Cu8	Cu	0.990087	0.171864	0.144152
Cu9	Cu	0.990092	0.171866	-0.143932
O10	O	0.984484	0.354677	0.121900
C11	C	0.994870	-0.057735	0.000119
C12	C	0.992410	-0.197146	0.000116
C13	C	0.837060	0.181033	0.000091
C14	C	0.744095	0.178556	0.000080
C15	C	1.144790	-0.227108	0.000153
C16	C	1.219821	-0.307582	0.000175
C17	C	1.217504	-0.438570	0.000170
C18	C	1.140148	-0.489085	0.000139
C19	C	1.065117	-0.408610	0.000118
C20	C	1.067442	-0.277621	0.000127
C21	C	0.912738	-0.378649	0.000070
C22	C	0.915053	-0.247661	0.000085
C23	C	0.835382	-0.429164	0.000039
C24	C	0.760349	-0.348689	0.000028
C25	C	0.762670	-0.217694	0.000034
C26	C	0.840023	-0.167187	0.000064
C27	C	0.406296	0.169658	0.000111
C28	C	0.452934	0.032344	0.000661
C29	C	0.549638	0.034822	0.000102
C30	C	0.573882	0.174072	0.000096
C31	C	0.533191	0.241800	-0.139008
C32	C	0.436535	0.238351	-0.139115
C33	C	0.436208	0.241186	0.137903
C34	C	0.533153	0.241153	0.139731
C35	C	0.668594	0.176573	0.000083
C36	C	0.311584	0.167161	0.000114
C37	C	1.143119	0.162697	0.000125
C38	C	1.236083	0.165174	0.000127
C39	C	0.985309	0.401465	0.000098
C40	C	0.987769	0.540876	0.000091
N41	N	0.990090	0.171862	0.346775
N42	N	0.990096	0.171858	-0.346555
C43	C	1.102978	0.001180	0.346787
C44	C	1.159428	-0.084158	0.423459
C45	C	1.159436	-0.084158	0.576793
C46	C	1.102987	0.001185	0.653457
C47	C	1.046537	0.086522	0.576784
C48	C	1.046537	0.086516	0.423447
C49	C	0.933646	0.257196	0.576772
C50	C	0.933640	0.257205	0.423439
C51	C	0.877197	0.342539	0.653437
C52	C	0.820750	0.427884	0.576764
C53	C	0.820745	0.427883	0.423421
C54	C	0.877191	0.342542	0.346766
H55	H	1.282803	-0.266439	0.000213
N56	N	0.553172	0.368539	0.150257
N57	N	0.597980	0.412155	0.054584
H58	H	0.612119	0.502126	0.062007
H59	H	1.102984	0.001182	0.221934
N60	N	0.397113	0.368196	0.139106
N61	N	0.441257	0.458265	0.135612
H62	H	0.413645	0.547963	0.136453
N63	N	1.217076	-0.171329	0.345126
N64	N	1.217064	-0.171323	0.208222
H65	H	1.257776	-0.232890	0.152900
H66	H	0.701570	-0.152178	0.000011
H67	H	1.205399	-0.153652	0.639220
N68	N	1.147160	-0.093309	0.000140
N69	N	1.114194	-0.028145	-0.102554
H70	H	1.115869	0.066352	-0.102565
H71	H	0.560181	0.191712	0.242640
N72	N	0.427944	-0.036192	-0.123777
N73	N	0.375936	0.015654	-0.212865
H74	H	0.358285	-0.032746	-0.300752
N75	N	0.842409	-0.033391	0.000087
N76	N	0.911479	0.011690	0.000119
H77	H	0.913168	0.106185	0.000135
H78	H	1.278601	-0.504094	0.000176
H79	H	0.561294	0.194760	-0.242529
H80	H	1.138268	-0.595743	0.000117
H81	H	0.577187	-0.018774	-0.099782
H82	H	0.833501	-0.535822	0.000026
H83	H	0.877194	0.342537	0.221914
N84	N	0.681333	-0.400267	0.000019
N85	N	0.614346	-0.328407	0.000021
H86	H	0.558538	-0.364836	0.000022
N87	N	0.584907	-0.031978	0.125191
N88	N	0.538104	-0.080761	0.213516
H89	H	0.563008	-0.127951	0.301860
H90	H	0.417942	0.188962	-0.243095
N91	N	0.429344	-0.036463	0.125881
N92	N	0.377879	0.014888	0.216176
H93	H	0.361234	-0.033693	0.304642
H94	H	0.404871	0.339165	-0.145432
H95	H	1.102990	0.001168	0.778309
N96	N	0.551640	0.370144	-0.145505
N97	N	0.528541	0.444686	-0.044141
H98	H	0.541571	0.535331	-0.048725
N99	N	0.410112	0.184888	0.270181
N100	N	0.333676	0.179665	0.294738
H101	H	0.315244	0.139896	0.388154
H102	H	0.877203	0.342529	0.778289
H103	H	0.774789	0.497359	0.639194
N104	N	0.763070	0.515055	0.345130
N105	N	0.712677	0.591236	0.413603
H106	H	0.671942	0.652803	0.358316
