data_functionalizedCrystal
_audit_creation_method	'MofGen! by Chris Wilmer'
_symmetry_space_group_name_H-M	'P1'
_symmetry_Int_Tables_number	1
_symmetry_cell_setting	triclinic
loop_
_symmetry_equiv_pos_as_xyz
  x,y,z
_cell_length_a	11.169417
_cell_length_b	11.169416
_cell_length_c	21.395355
_cell_angle_alpha	89.989073
_cell_angle_beta	89.979112
_cell_angle_gamma	90.011589
loop_
_atom_site_label
_atom_site_type_symbol
_atom_site_fract_x
_atom_site_fract_y
_atom_site_fract_z
Zn1	Zn	1.834979	-0.477906	-0.354233
Zn2	Zn	2.334979	0.022094	0.145767
Zn3	Zn	1.834863	-0.678577	-0.249470
Zn4	Zn	2.334863	-0.178577	0.250530
Zn5	Zn	1.634260	-0.477911	-0.249477
Zn6	Zn	2.134260	0.022089	0.250523
Zn7	Zn	1.634272	-0.678550	-0.354217
Zn8	Zn	2.134272	-0.178550	0.145783
O9	O	1.734593	-0.578236	-0.301849
O10	O	2.234593	-0.078236	0.198151
O11	O	2.002913	-0.504535	-0.340340
O12	O	2.502913	-0.004535	0.159660
O13	O	1.808199	-0.651971	-0.161793
O14	O	2.308199	-0.151971	0.338207
O15	O	1.660929	-0.309960	-0.263383
O16	O	2.160929	0.190040	0.236617
O17	O	2.002828	-0.651967	-0.263371
O18	O	2.502828	-0.151967	0.236629
O19	O	1.808396	-0.309957	-0.340347
O20	O	2.308396	0.190043	0.159653
O21	O	1.660817	-0.504543	-0.161798
O22	O	2.160817	-0.004543	0.338202
O23	O	1.466312	-0.504517	-0.263367
O24	O	1.966312	-0.004517	0.236633
O25	O	1.660950	-0.651921	-0.441897
O26	O	2.160950	-0.151921	0.058103
O27	O	1.466321	-0.651926	-0.340318
O28	O	1.966321	-0.151926	0.159682
O29	O	1.808408	-0.504509	-0.441909
O30	O	2.308408	-0.004509	0.058091
O31	O	1.808211	-0.846523	-0.263355
O32	O	2.308211	-0.346523	0.236645
O33	O	1.660838	-0.846504	-0.340312
O34	O	2.160838	-0.346504	0.159688
C35	C	1.422769	-0.578220	-0.301842
C36	C	1.922769	-0.078220	0.198158
C37	C	1.289369	-0.578242	-0.301854
C38	C	1.789369	-0.078242	0.198146
C39	C	1.734546	-0.890061	-0.301844
C40	C	2.234546	-0.390061	0.198156
C41	C	1.734635	-1.023461	-0.301863
C42	C	2.234635	-0.523461	0.198137
C43	C	2.047636	-0.578253	-0.301857
C44	C	2.547636	-0.078253	0.198143
C45	C	2.181036	-0.578260	-0.301860
C46	C	2.681036	-0.078260	0.198140
C47	C	1.734693	-0.578212	-0.465272
C48	C	2.234693	-0.078212	0.034728
C49	C	1.734735	-0.578201	-0.534914
C50	C	2.234735	-0.078201	-0.034914
C51	C	1.734674	-0.265194	-0.301868
C52	C	2.234674	0.234806	0.198132
C53	C	1.734708	-0.131794	-0.301875
C54	C	2.234708	0.368206	0.198125
C55	C	1.811514	-0.501441	-0.567634
C56	C	2.311514	-0.001441	-0.067634
C57	C	1.811512	-0.501389	-0.633070
C58	C	2.311512	-0.001389	-0.133070
C59	C	1.734745	-0.578120	-0.665782
C60	C	2.234745	-0.078120	-0.165782
C61	C	1.657952	-0.654886	-0.633054
C62	C	2.157952	-0.154886	-0.133054
C63	C	1.657947	-0.654927	-0.567619
C64	C	2.157947	-0.154927	-0.067619
C65	C	1.725252	-0.686185	-0.769455
C66	C	2.225252	-0.186185	-0.269455
C67	C	1.725265	-0.686146	-0.834888
C68	C	2.225265	-0.186146	-0.334888
C69	C	1.734752	-0.577993	-0.867603
C70	C	2.234752	-0.077993	-0.367603
C71	C	1.744252	-0.469875	-0.834876
C72	C	2.244252	0.030125	-0.334876
C73	C	1.744247	-0.469916	-0.769442
C74	C	2.244247	0.030084	-0.269442
C75	C	1.734741	-0.578083	-0.736734
C76	C	2.234741	-0.078083	-0.236734
C77	C	1.811533	-0.501169	-0.971276
C78	C	2.311533	-0.001169	-0.471276
C79	C	1.811523	-0.501116	-1.036713
C80	C	2.311523	-0.001116	-0.536713
C81	C	1.657968	-0.654623	-1.036695
C82	C	2.157968	-0.154623	-0.536695
C83	C	1.657972	-0.654666	-0.971260
C84	C	2.157972	-0.154666	-0.471260
C85	C	1.734761	-0.577941	-0.938554
C86	C	2.234761	-0.077941	-0.438554
C87	C	1.734563	-0.578174	-0.139061
C88	C	2.234563	-0.078174	0.360939
C89	C	1.734753	-0.577846	-0.069421
C90	C	2.234753	-0.077846	0.430579
H91	H	1.874039	-0.438963	-0.541009
H92	H	2.374039	0.061037	-0.041009
Cl93	Cl	1.561449	-0.751075	-1.077813
Cl94	Cl	2.061449	-0.251075	-0.577813
H95	H	1.717205	-0.774234	-0.742825
H96	H	2.217205	-0.274234	-0.242825
Cl97	Cl	1.756180	-0.334003	-0.728302
Cl98	Cl	2.256180	0.165997	-0.228302
Cl99	Cl	1.908058	-0.404711	-0.930157
Cl100	Cl	2.408058	0.095289	-0.430157
Cl101	Cl	1.561439	-0.751343	-0.674177
Cl102	Cl	2.061439	-0.251343	-0.174177
H103	H	1.595419	-0.717433	-0.540979
H104	H	2.095419	-0.217433	-0.040979
Cl105	Cl	1.756185	-0.333901	-0.875996
Cl106	Cl	2.256185	0.166099	-0.375996
H107	H	1.874031	-0.438874	-0.659716
H108	H	2.374031	0.061126	-0.159716
Cl109	Cl	1.908072	-0.404626	-1.077848
Cl110	Cl	2.408072	0.095374	-0.577848
H111	H	1.595458	-0.717181	-0.944619
H112	H	2.095458	-0.217181	-0.444619
Cl113	Cl	1.713334	-0.822064	-0.876023
Cl114	Cl	2.213334	-0.322064	-0.376023
