data_functionalizedCrystal
_audit_creation_method	'MofGen! by Chris Wilmer'
_symmetry_space_group_name_H-M	'P1'
_symmetry_Int_Tables_number	1
_symmetry_cell_setting	triclinic
loop_
_symmetry_equiv_pos_as_xyz
  x,y,z
_cell_length_a	18.050590
_cell_length_b	12.759399
_cell_length_c	12.759393
_cell_angle_alpha	90.031355
_cell_angle_beta	89.992932
_cell_angle_gamma	89.987198
loop_
_atom_site_label
_atom_site_type_symbol
_atom_site_fract_x
_atom_site_fract_y
_atom_site_fract_z
Zn1	Zn	1.135373	0.418519	-0.593625
Zn2	Zn	1.635373	0.918519	-0.093625
Zn3	Zn	1.135277	0.594235	-0.417942
Zn4	Zn	1.635277	1.094235	0.082058
Zn5	Zn	1.011176	0.418537	-0.418003
Zn6	Zn	1.511176	0.918537	0.081997
Zn7	Zn	1.011151	0.594124	-0.593622
Zn8	Zn	1.511151	1.094124	-0.093622
O9	O	1.073244	0.506354	-0.505798
O10	O	1.573244	1.006354	-0.005798
O11	O	1.239285	0.441868	-0.570296
O12	O	1.739285	0.941868	-0.070296
O13	O	1.118785	0.570982	-0.270929
O14	O	1.618785	1.070982	0.229071
O15	O	1.027702	0.271514	-0.441326
O16	O	1.527702	0.771514	0.058674
O17	O	1.239214	0.570965	-0.441223
O18	O	1.739214	1.070965	0.058777
O19	O	1.118949	0.271501	-0.570354
O20	O	1.618949	0.771501	-0.070354
O21	O	1.027608	0.441898	-0.270973
O22	O	1.527608	0.941898	0.229027
O23	O	0.907248	0.441790	-0.441323
O24	O	1.407248	0.941790	0.058677
O25	O	1.027659	0.570775	-0.740644
O26	O	1.527659	1.070775	-0.240644
O27	O	0.907229	0.570793	-0.570350
O28	O	1.407229	1.070793	-0.070350
O29	O	1.118925	0.441760	-0.740646
O30	O	1.618925	0.941760	-0.240646
O31	O	1.118761	0.741241	-0.441220
O32	O	1.618761	1.241241	0.058780
O33	O	1.027565	0.741159	-0.570291
O34	O	1.527565	1.241159	-0.070291
C35	C	0.880292	0.506282	-0.505843
C36	C	1.380292	1.006282	-0.005843
C37	C	0.797746	0.506277	-0.505887
C38	C	1.297746	1.006277	-0.005887
C39	C	0.598307	0.576629	-0.575886
C40	C	1.098307	1.076629	-0.075886
C41	C	0.548911	0.480828	-0.601735
C42	C	1.048911	0.980828	-0.101735
C43	C	0.646616	0.506335	-0.505836
C44	C	1.146616	1.006335	-0.005836
C45	C	0.548930	0.602191	-0.479986
C46	C	1.048930	1.102191	0.020014
C47	C	0.500631	0.506401	-0.505789
C48	C	1.000631	1.006401	-0.005789
C49	C	0.598307	0.410484	-0.531736
C50	C	1.098307	0.910484	-0.031736
C51	C	0.598331	0.531911	-0.409942
C52	C	1.098331	1.031911	0.090058
C53	C	0.548957	0.436044	-0.435755
C54	C	1.048957	0.936044	0.064245
C55	C	0.730714	0.506299	-0.505866
C56	C	1.230714	1.006299	-0.005866
C57	C	0.416534	0.506426	-0.505758
C58	C	0.916534	1.006426	-0.005758
C59	C	1.073170	0.779321	-0.505772
C60	C	1.573170	1.279321	-0.005772
C61	C	1.073206	0.896098	-0.505796
C62	C	1.573206	1.396098	-0.005796
C63	C	1.120692	0.950863	-0.573037
C64	C	1.620692	1.450863	-0.073037
C65	C	1.120722	1.060587	-0.573063
C66	C	1.620722	1.560587	-0.073063
C67	C	1.025777	1.060771	-0.438597
C68	C	1.525777	1.560771	0.061403
C69	C	1.025745	0.951049	-0.438577
C70	C	1.525745	1.451049	0.061423
C71	C	1.266950	0.506427	-0.505753
C72	C	1.766950	1.006427	-0.005753
C73	C	1.349496	0.506458	-0.505734
C74	C	1.849496	1.006458	-0.005734
C75	C	1.073311	1.232321	-0.505840
C76	C	1.573311	1.732321	-0.005840
C77	C	1.073268	1.115544	-0.505841
C78	C	1.573268	1.615544	-0.005841
C79	C	1.073300	0.506253	-0.779831
C80	C	1.573300	1.006253	-0.279831
C81	C	1.073324	0.506210	-0.896608
C82	C	1.573324	1.006210	-0.396608
C83	C	1.120849	0.439021	-0.951473
C84	C	1.620849	0.939021	-0.451473
C85	C	1.120862	0.438976	-1.061197
C86	C	1.620862	0.938976	-0.561197
C87	C	1.025821	0.573318	-1.061182
C88	C	1.525821	1.073318	-0.561182
C89	C	1.025805	0.573357	-0.951460
C90	C	1.525805	1.073357	-0.451460
C91	C	1.073232	0.506379	-0.232831
C92	C	1.573232	1.006379	0.267169
C93	C	1.073352	0.506126	-0.116054
C94	C	1.573352	1.006126	0.383946
H95	H	0.527204	0.459217	-0.682811
H96	H	1.027204	0.959217	-0.182811
N97	N	0.520200	0.709529	-0.451038
N98	N	1.020200	1.209529	0.048962
H99	H	0.538154	0.762540	-0.504020
H100	H	1.038154	1.262540	-0.004020
H101	H	0.538959	0.729270	-0.379120
H102	H	1.038959	1.229270	0.120880
N103	N	1.172101	0.366606	-0.892309
N104	N	1.672101	0.866606	-0.392309
H105	H	1.141938	0.317924	-0.846788
H106	H	1.641938	0.817924	-0.346788
H107	H	1.206482	0.409422	-0.846842
H108	H	1.706482	0.909422	-0.346842
N109	N	0.626904	0.303109	-0.560809
N110	N	1.126904	0.803109	-0.060809
H111	H	0.608531	0.249976	-0.508237
H112	H	1.108531	0.749976	-0.008237
H113	H	0.682853	0.303847	-0.560696
H114	H	1.182853	0.803847	-0.060696
H115	H	1.159337	0.906124	-0.627772
H116	H	1.659337	1.406124	-0.127772
H117	H	0.987099	0.628070	-0.906788
H118	H	1.487099	1.128070	-0.406788
H119	H	0.619978	0.635970	-0.635191
H120	H	1.119978	1.135970	-0.135191
N121	N	1.172129	0.366516	-1.120370
N122	N	1.672129	0.866516	-0.620370
H123	H	1.164930	0.376674	-1.198202
H124	H	1.664930	0.876674	-0.698202
H125	H	1.160599	0.291483	-1.101203
H126	H	1.660599	0.791483	-0.601203
H127	H	0.987072	0.906456	-0.383821
H128	H	1.487072	1.406456	0.116179
N129	N	0.520435	0.357251	-0.357259
N130	N	1.020435	0.857251	0.142741
H131	H	0.488917	0.303412	-0.394405
H132	H	0.988917	0.803412	0.105595
H133	H	0.489667	0.394453	-0.302576
H134	H	0.989667	0.894453	0.197424
N135	N	1.171930	1.119636	-0.645614
N136	N	1.671930	1.619636	-0.145614
H137	H	1.224995	1.100509	-0.629352
H138	H	1.724995	1.600509	-0.129352
H139	H	1.164691	1.197468	-0.635418
H140	H	1.664691	1.697468	-0.135418
N141	N	0.627100	0.560576	-0.302575
N142	N	1.127100	1.060576	0.197425
H143	H	0.658690	0.625693	-0.307757
H144	H	1.158690	1.125693	0.192243
H145	H	0.657850	0.500892	-0.274117
H146	H	1.157850	1.000892	0.225883
N147	N	0.974596	1.120040	-0.366090
N148	N	1.474596	1.620040	0.133910
H149	H	0.981825	1.197859	-0.376299
H150	H	1.481825	1.697859	0.123701
H151	H	0.986182	1.100898	-0.291066
H152	H	1.486182	1.600898	0.208934
N153	N	0.974560	0.645722	-1.120344
N154	N	1.474560	1.145722	-0.620344
H155	H	0.981778	0.635499	-1.198178
H156	H	1.481778	1.135499	-0.698178
H157	H	0.986076	0.720774	-1.101157
H158	H	1.486076	1.220774	-0.601157
