data_functionalizedCrystal
_audit_creation_method	'MofGen! by Chris Wilmer'
_symmetry_space_group_name_H-M	'P1'
_symmetry_Int_Tables_number	1
_symmetry_cell_setting	triclinic
loop_
_symmetry_equiv_pos_as_xyz
  x,y,z
_cell_length_a	12.827893
_cell_length_b	17.077402
_cell_length_c	17.077396
_cell_angle_alpha	89.970216
_cell_angle_beta	90.017613
_cell_angle_gamma	89.977146
loop_
_atom_site_label
_atom_site_type_symbol
_atom_site_fract_x
_atom_site_fract_y
_atom_site_fract_z
Zn1	Zn	1.597598	0.312509	0.443796
Zn2	Zn	1.597474	0.443784	0.312527
Zn3	Zn	1.422845	0.312536	0.312548
Zn4	Zn	1.422802	0.443736	0.443755
O5	O	1.510180	0.378141	0.378157
O6	O	1.743818	0.329931	0.426391
O7	O	1.574275	0.426404	0.202683
O8	O	1.446096	0.202685	0.329985
O9	O	1.743727	0.426378	0.329948
O10	O	1.574486	0.202665	0.426412
O11	O	1.445976	0.329977	0.202699
O12	O	1.276603	0.329931	0.329945
O13	O	1.446023	0.426298	0.553607
O14	O	1.276572	0.426324	0.426342
O15	O	1.574445	0.329885	0.553638
O16	O	1.574234	0.553624	0.329909
O17	O	1.445903	0.553590	0.426321
C18	C	1.510079	0.582089	0.378125
C19	C	1.510131	0.669339	0.378138
C20	C	1.238670	0.378126	0.378142
C21	C	1.122517	0.378138	0.378154
C22	C	1.510243	0.378083	0.582901
C23	C	1.510270	0.378059	0.670151
C24	C	0.950676	0.330391	0.330552
C25	C	1.070726	0.330377	0.330538
C26	C	1.782750	0.378157	0.378172
C27	C	1.898903	0.378164	0.378179
C28	C	1.510309	0.173397	0.378205
C29	C	1.510365	0.086147	0.378226
C30	C	1.577022	0.710321	0.327990
C31	C	1.577073	0.792301	0.328010
C32	C	1.510227	0.833298	0.378175
C33	C	1.443334	0.792310	0.428328
C34	C	1.443289	0.710331	0.428312
C35	C	1.443431	0.963180	0.428358
C36	C	1.443474	1.045165	0.428374
C37	C	1.577215	1.045150	0.328056
C38	C	1.577170	0.963171	0.328040
C39	C	1.510275	0.922189	0.378193
C40	C	1.510177	0.378142	0.174209
C41	C	1.510352	0.377946	0.086959
C42	C	1.577142	0.327853	0.711158
C43	C	1.577154	0.327826	0.793138
C44	C	1.510300	0.378011	0.834110
C45	C	1.443420	0.428219	0.793097
C46	C	1.443403	0.428241	0.711118
C47	C	1.443463	0.428172	0.963968
C48	C	1.443481	0.428152	1.045952
C49	C	1.577213	0.327758	1.045988
C50	C	1.577196	0.327779	0.964009
C51	C	1.510318	0.377989	0.923001
H52	H	0.906123	0.289499	0.289790
H53	H	1.115249	0.289480	0.289760
H54	H	1.389039	0.469015	1.079309
Br55	Br	1.352649	0.907562	0.496427
H56	H	1.078000	0.419043	0.418929
Br57	Br	1.352681	0.496323	0.848701
H58	H	0.943455	0.419049	0.418947
Br59	Br	1.667736	0.654690	0.259898
H60	H	1.631541	0.825665	0.287174
H61	H	1.631610	0.286945	0.826523
H62	H	1.631594	0.929792	0.287188
Br63	Br	1.352513	0.654712	0.496378
H64	H	1.388912	0.825696	0.469177
H65	H	1.631666	0.286874	1.079380
Br66	Br	1.667987	1.100768	0.259981
H67	H	1.389063	1.078542	0.469237
Br68	Br	1.667886	0.259747	0.655561
H69	H	1.631641	0.286919	0.930652
Br70	Br	1.352695	0.496312	0.908315
Br71	Br	1.352639	0.496376	0.655465
