data_functionalizedCrystal
_audit_creation_method	'MofGen! by Chris Wilmer'
_symmetry_space_group_name_H-M	'P1'
_symmetry_Int_Tables_number	1
_symmetry_cell_setting	triclinic
loop_
_symmetry_equiv_pos_as_xyz
  x,y,z
_cell_length_a	12.784890
_cell_length_b	12.837942
_cell_length_c	7.540329
_cell_angle_alpha	89.996889
_cell_angle_beta	89.998056
_cell_angle_gamma	83.967749
loop_
_atom_site_label
_atom_site_type_symbol
_atom_site_fract_x
_atom_site_fract_y
_atom_site_fract_z
O1	O	1.410967	0.006425	-0.147428
O2	O	1.105967	0.050420	-0.147443
O3	O	1.251704	-0.121871	-0.147425
O4	O	1.265230	0.178716	-0.147446
O5	O	1.251694	-0.121872	0.147540
O6	O	1.105957	0.050419	0.147522
O7	O	1.410957	0.006424	0.147537
Cu8	Cu	1.258456	0.028421	0.174462
Cu9	Cu	1.258468	0.028423	-0.174368
O10	O	1.265220	0.178715	0.147519
C11	C	1.066653	0.053280	0.000038
C12	C	0.949521	0.061794	0.000032
C13	C	0.781351	0.168495	0.000022
C14	C	0.891407	0.160502	0.000023
C15	C	0.897572	-0.028928	0.000036
C16	C	0.787516	-0.020935	0.000035
C17	C	0.729410	0.077780	0.000031
C18	C	0.619353	0.085771	0.000043
C19	C	0.625519	-0.103657	0.000043
C20	C	0.735575	-0.111650	0.000044
C21	C	1.247130	-0.160080	0.000056
C22	C	1.233502	-0.273929	0.000053
C23	C	1.397334	-0.529655	0.000024
C24	C	1.384534	-0.636627	0.000020
C25	C	1.195104	-0.594847	0.000029
C26	C	1.207904	-0.487875	0.000033
C27	C	1.309022	-0.455284	0.000033
C28	C	1.321821	-0.348309	0.000049
C29	C	1.132391	-0.306531	0.000046
C30	C	1.119592	-0.413503	0.000042
C31	C	1.450272	0.003563	0.000053
C32	C	1.567404	-0.004950	0.000047
C33	C	1.269795	0.216924	0.000034
C34	C	1.283422	0.330772	0.000026
N35	N	1.258456	0.028419	0.419811
N36	N	1.258476	0.028416	-0.419717
H37	H	1.404156	-0.321777	0.000056
O38	O	0.718680	0.274963	0.000035
H39	H	0.668399	0.283129	0.120270
H40	H	1.479668	-0.503120	0.000041
H41	H	0.572044	0.166150	0.000049
H42	H	0.782900	-0.192020	0.000041
H43	H	0.944901	-0.109296	0.000025
H44	H	1.112778	-0.621402	0.000010
H45	H	0.583217	-0.177525	-0.000091
O46	O	1.010535	-0.448665	0.000044
H47	H	0.951277	-0.378975	0.000042
H48	H	1.060481	-0.245964	0.000067
H49	H	0.933693	0.234372	0.000019
O50	O	1.479783	-0.716848	0.000032
H51	H	1.552242	-0.676208	0.000049
