data_functionalizedCrystal
_audit_creation_method	'MofGen! by Chris Wilmer'
_symmetry_space_group_name_H-M	'P1'
_symmetry_Int_Tables_number	1
_symmetry_cell_setting	triclinic
loop_
_symmetry_equiv_pos_as_xyz
  x,y,z
_cell_length_a	13.635800
_cell_length_b	23.752959
_cell_length_c	9.582880
_cell_angle_alpha	85.527948
_cell_angle_beta	111.207034
_cell_angle_gamma	79.933576
loop_
_atom_site_label
_atom_site_type_symbol
_atom_site_fract_x
_atom_site_fract_y
_atom_site_fract_z
V1	V	2.050012	-0.078918	0.467444
O2	O	2.051618	0.004041	0.457676
O3	O	2.017299	-0.156721	0.465084
O4	O	2.045538	-0.077595	0.670931
O5	O	2.023184	-0.075632	0.250404
V6	V	2.290373	-0.069008	0.441383
O7	O	2.183713	-0.100657	0.524612
O8	O	2.381770	-0.047270	0.384215
O9	O	2.211482	0.008794	0.443743
O10	O	2.347464	-0.151968	0.451151
O11	O	2.375898	-0.072294	0.658423
O12	O	2.183243	-0.070331	0.237896
V13	V	2.550012	-0.078918	0.467444
O14	O	2.551618	0.004041	0.457676
O15	O	2.517299	-0.156721	0.465084
O16	O	2.545538	-0.077595	0.670931
O17	O	2.523184	-0.075632	0.250404
V18	V	2.790373	-0.069008	0.441383
O19	O	2.683713	-0.100657	0.524612
O20	O	2.881770	-0.047270	0.384215
O21	O	2.711482	0.008794	0.443743
O22	O	2.847464	-0.151968	0.451151
O23	O	2.875898	-0.072294	0.658423
O24	O	2.683243	-0.070331	0.237896
C25	C	1.937090	-0.175691	0.457926
C26	C	1.951118	-0.239295	0.457352
C27	C	1.920366	-0.511308	0.447467
C28	C	1.907168	-0.451545	0.447994
O29	O	1.822565	-0.418163	0.441941
N30	N	1.992036	-0.424564	0.455748
C31	C	2.090113	-0.457351	0.462990
O32	O	2.161088	-0.428914	0.469635
C33	C	2.103312	-0.517114	0.462474
C34	C	2.018433	-0.544091	0.454704
C35	C	1.835495	-0.538285	0.439700
C36	C	1.848692	-0.598045	0.439170
C37	C	1.946760	-0.630827	0.446408
C38	C	2.031630	-0.603850	0.454175
C39	C	2.201390	-0.549900	0.469727
C40	C	2.214583	-0.609667	0.469211
C41	C	2.129704	-0.636644	0.461442
C42	C	2.142895	-0.696392	0.460882
N43	N	2.058027	-0.723372	0.453129
C44	C	1.959959	-0.690590	0.445892
C45	C	2.062387	-0.331844	0.464076
C46	C	2.049186	-0.272082	0.464582
C47	C	1.866242	-0.266280	0.449588
C48	C	1.879442	-0.326043	0.449072
C49	C	1.977518	-0.358825	0.456323
C50	C	1.987680	-0.816089	0.444778
C51	C	2.000885	-0.875853	0.444243
C52	C	2.183829	-0.881651	0.459244
C53	C	2.170624	-0.821891	0.459772
C54	C	2.072543	-0.789112	0.452543
O55	O	2.227468	-0.729810	0.466938
O56	O	1.889003	-0.719036	0.439268
C57	C	1.973111	-0.074758	0.720502
C58	C	2.010038	-0.074191	0.886859
C59	C	2.123361	0.027761	0.450897
C60	C	2.098953	0.091364	0.451480
C61	C	2.087340	-0.073171	0.188317
C62	C	2.040032	-0.073735	0.021958
C63	C	2.437090	-0.175691	0.457926
C64	C	2.451118	-0.239295	0.457352
C65	C	2.473111	-0.074758	0.720502
C66	C	2.510038	-0.074191	0.886859
C67	C	2.623361	0.027761	0.450897
C68	C	2.598953	0.091364	0.451480
C69	C	2.587340	-0.073171	0.188317
C70	C	2.540032	-0.073735	0.021958
C71	C	2.549187	-0.272077	0.464591
C72	C	2.562387	-0.331841	0.464075
C73	C	2.477516	-0.358821	0.456310
C74	C	2.379441	-0.326035	0.449075
C75	C	2.366244	-0.266272	0.449601
C76	C	2.673379	0.124146	0.444246
C77	C	2.650450	0.183910	0.444769
C78	C	2.553099	0.210890	0.452538
C79	C	2.478667	0.178104	0.459769
C80	C	2.501592	0.118342	0.459234
H81	H	1.931762	-0.897815	0.437917
H82	H	2.752653	0.102187	0.437921
H83	H	2.711070	0.210597	0.438882
Br84	Br	1.854572	-0.771612	0.434969
H85	H	2.142253	-0.358532	0.469968
Br86	Br	1.702389	-0.493806	0.429879
Br87	Br	2.164374	-0.235475	0.475080
Br88	Br	2.664390	-0.235476	0.475143
Br89	Br	2.347696	-0.654155	0.479062
Br90	Br	2.285818	-0.785279	0.470323
Br91	Br	2.695494	-0.376324	0.473890
H92	H	2.286383	-0.239584	0.443699
H93	H	2.534445	0.259553	0.452970
Br94	Br	2.495444	-0.439929	0.455596
Br95	Br	2.264267	-0.362659	0.438531
H96	H	2.399402	0.200080	0.466092
H97	H	1.779572	-0.620003	0.432839
Br98	Br	1.733149	-0.221779	0.439777
Br99	Br	1.764244	-0.362648	0.438530
Br100	Br	2.316586	-0.513303	0.480236
H101	H	2.263675	-0.908353	0.465134
H102	H	2.440984	0.091654	0.465139
