data_functionalizedCrystal
_audit_creation_method	'MofGen! by Chris Wilmer'
_symmetry_space_group_name_H-M	'P1'
_symmetry_Int_Tables_number	1
_symmetry_cell_setting	triclinic
loop_
_symmetry_equiv_pos_as_xyz
  x,y,z
_cell_length_a	29.839134
_cell_length_b	29.839131
_cell_length_c	29.839125
_cell_angle_alpha	89.982291
_cell_angle_beta	89.978020
_cell_angle_gamma	90.036281
loop_
_atom_site_label
_atom_site_type_symbol
_atom_site_fract_x
_atom_site_fract_y
_atom_site_fract_z
Zn1	Zn	0.686720	-0.178978	-0.254125
Zn2	Zn	1.186720	0.321022	0.245875
Zn3	Zn	0.686652	-0.254090	-0.178995
Zn4	Zn	1.186652	0.245910	0.321005
Zn5	Zn	0.611602	-0.178968	-0.178995
Zn6	Zn	1.111602	0.321032	0.321005
Zn7	Zn	0.611550	-0.254075	-0.254083
Zn8	Zn	1.111550	0.245925	0.245917
O9	O	0.649131	-0.216528	-0.216549
O10	O	1.149131	0.283472	0.283451
O11	O	0.749578	-0.188952	-0.244176
O12	O	1.249578	0.311048	0.255824
O13	O	0.676690	-0.244127	-0.116128
O14	O	1.176690	0.255873	0.383872
O15	O	0.621617	-0.116102	-0.188978
O16	O	1.121617	0.383898	0.311022
O17	O	0.749528	-0.244137	-0.188979
O18	O	1.249528	0.255863	0.311021
O19	O	0.676805	-0.116109	-0.244176
O20	O	1.176805	0.383891	0.255824
O21	O	0.621551	-0.188935	-0.116127
O22	O	1.121551	0.311065	0.383873
O23	O	0.548728	-0.188921	-0.188938
O24	O	1.048728	0.311079	0.311062
O25	O	0.621528	-0.244111	-0.316956
O26	O	1.121528	0.255889	0.183044
O27	O	0.548690	-0.244101	-0.244105
O28	O	1.048690	0.255899	0.255895
O29	O	0.676755	-0.188937	-0.316987
O30	O	1.176755	0.311063	0.183013
O31	O	0.676639	-0.316955	-0.188938
O32	O	1.176639	0.183045	0.311062
O33	O	0.621462	-0.316944	-0.244105
O34	O	1.121462	0.183056	0.255895
C35	C	0.649050	-0.333250	-0.216527
C36	C	1.149050	0.166750	0.283473
C37	C	0.649056	-0.383185	-0.216533
C38	C	1.149056	0.116815	0.283467
C39	C	0.532408	-0.216509	-0.216517
C40	C	1.032408	0.283491	0.283483
C41	C	0.482474	-0.216511	-0.216514
C42	C	0.982474	0.283489	0.283486
C43	C	0.677914	-0.692821	-0.187866
C44	C	1.177914	-0.192821	0.312134
C45	C	0.677969	-0.880494	-0.187883
C46	C	1.177969	-0.380494	0.312117
O47	O	0.702441	-0.904753	-0.163493
O48	O	1.202441	-0.404753	0.336507
N49	N	0.649224	-0.903970	-0.216583
N50	N	1.149224	-0.403970	0.283417
C51	C	0.620465	-0.880524	-0.245283
C52	C	1.120465	-0.380524	0.254717
O53	O	0.596020	-0.904798	-0.269698
O54	O	1.096020	-0.404798	0.230302
C55	C	0.620412	-0.692852	-0.245268
C56	C	1.120412	-0.192852	0.254732
C57	C	0.649156	-0.669379	-0.216563
C58	C	1.149156	-0.169379	0.283437
C59	C	0.706656	-0.669348	-0.159164
C60	C	1.206656	-0.169348	0.340836
C61	C	0.706640	-0.622433	-0.159158
C62	C	1.206640	-0.122433	0.340842
C63	C	0.677882	-0.598990	-0.187854
C64	C	1.177882	-0.098990	0.312146
C65	C	0.649140	-0.622463	-0.216557
C66	C	1.149140	-0.122463	0.283443
C67	C	0.591656	-0.669407	-0.273969
C68	C	1.091656	-0.169407	0.226031
C69	C	0.591646	-0.622486	-0.273964
C70	C	1.091646	-0.122486	0.226036
C71	C	0.620390	-0.599013	-0.245259
C72	C	1.120390	-0.099013	0.254741
C73	C	0.620367	-0.552106	-0.245248
C74	C	1.120367	-0.052106	0.254752
N75	N	0.649112	-0.528630	-0.216548
N76	N	1.149112	-0.028630	0.283452
C77	C	0.677869	-0.552072	-0.187851
C78	C	1.177869	-0.052072	0.312149
C79	C	0.620494	-0.979055	-0.245289
C80	C	1.120494	-0.479055	0.254711
C81	C	0.620507	-1.025973	-0.245292
C82	C	1.120507	-0.525973	0.254708
C83	C	0.678012	-1.025939	-0.187893
C84	C	1.178012	-0.525939	0.312107
C85	C	0.677996	-0.979021	-0.187887
C86	C	1.177996	-0.479021	0.312113
C87	C	0.649239	-0.955579	-0.216589
C88	C	1.149239	-0.455579	0.283411
C89	C	0.677834	-0.453547	-0.187841
C90	C	1.177834	0.046453	0.312159
C91	C	0.677814	-0.406627	-0.187836
C92	C	1.177814	0.093373	0.312164
C93	C	0.620311	-0.406664	-0.245237
C94	C	1.120311	0.093336	0.254763
C95	C	0.620329	-0.453580	-0.245240
C96	C	1.120329	0.046420	0.254760
C97	C	0.649094	-0.477020	-0.216540
C98	C	1.149094	0.022980	0.283460
O99	O	0.595912	-0.527818	-0.269629
O100	O	1.095912	-0.027818	0.230371
O101	O	0.702318	-0.527791	-0.163447
O102	O	1.202318	-0.027791	0.336553
C103	C	0.677930	-0.739737	-0.187872
C104	C	1.177930	-0.239737	0.312128
C105	C	0.649188	-0.763210	-0.216574
C106	C	1.149188	-0.263210	0.283426
C107	C	0.620430	-0.739767	-0.245271
C108	C	1.120430	-0.239767	0.254729
C109	C	0.649200	-0.810128	-0.216578
C110	C	1.149200	-0.310128	0.283422
C111	C	0.677958	-0.833570	-0.187881
C112	C	1.177958	-0.333570	0.312119
C113	C	0.706703	-0.810094	-0.159181
C114	C	1.206703	-0.310094	0.340819
C115	C	0.706687	-0.763179	-0.159175
C116	C	1.206687	-0.263179	0.340825
C117	C	0.591685	-0.763243	-0.273971
C118	C	1.091685	-0.263243	0.226029
C119	C	0.591703	-0.810158	-0.273974
C120	C	1.091703	-0.310158	0.226026
C121	C	0.620461	-0.833601	-0.245277
C122	C	1.120461	-0.333601	0.254723
C123	C	0.172820	-0.245303	-0.245240
C124	C	0.672820	0.254697	0.254760
C125	C	-0.014853	-0.245315	-0.245260
C126	C	0.485147	0.254685	0.254740
O127	O	-0.039127	-0.269774	-0.269665
O128	O	0.460873	0.230226	0.230335
N129	N	-0.038311	-0.216544	-0.216583
N130	N	0.461689	0.283456	0.283417
C131	C	-0.014848	-0.187766	-0.187902
C132	C	0.485152	0.312234	0.312098
O133	O	-0.039107	-0.163291	-0.163514
O134	O	0.460893	0.336709	0.336486
C135	C	0.172824	-0.187751	-0.187884
C136	C	0.672824	0.312249	0.312116
C137	C	0.196280	-0.216527	-0.216560
C138	C	0.696280	0.283473	0.283440
C139	C	0.196276	-0.274076	-0.273913
C140	C	0.696276	0.225924	0.226087
C141	C	0.243191	-0.274075	-0.273906
C142	C	0.743191	0.225925	0.226094
C143	C	0.266651	-0.245299	-0.245226
C144	C	0.766651	0.254701	0.254774
C145	C	0.243195	-0.216526	-0.216553
C146	C	0.743195	0.283474	0.283447
C147	C	0.196286	-0.158971	-0.159205
C148	C	0.696286	0.341029	0.340795
C149	C	0.243207	-0.158969	-0.159204
C150	C	0.743207	0.341031	0.340796
C151	C	0.266663	-0.187745	-0.187880
C152	C	0.766663	0.312255	0.312120
C153	C	0.313570	-0.187749	-0.187865
C154	C	0.813570	0.312251	0.312135
N155	N	0.337029	-0.216520	-0.216542
N156	N	0.837029	0.283480	0.283458
C157	C	0.313569	-0.245295	-0.245222
C158	C	0.813569	0.254705	0.254778
C159	C	-0.113379	-0.187776	-0.187912
C160	C	0.386621	0.312224	0.312088
C161	C	-0.160297	-0.187780	-0.187916
C162	C	0.339703	0.312220	0.312084
C163	C	-0.160298	-0.245329	-0.245275
C164	C	0.339702	0.254671	0.254725
C165	C	-0.113380	-0.245327	-0.245269
C166	C	0.386620	0.254673	0.254731
C167	C	-0.089921	-0.216547	-0.216589
C168	C	0.410079	0.283453	0.283411
C169	C	0.412095	-0.245290	-0.245205
C170	C	0.912095	0.254710	0.254795
C171	C	0.459014	-0.245287	-0.245194
C172	C	0.959014	0.254713	0.254806
C173	C	0.459012	-0.187736	-0.187837
C174	C	0.959012	0.312264	0.312163
C175	C	0.412096	-0.187740	-0.187846
C176	C	0.912096	0.312260	0.312154
C177	C	0.388639	-0.216519	-0.216534
C178	C	0.888639	0.283481	0.283466
O179	O	0.337873	-0.163299	-0.163477
O180	O	0.837873	0.336701	0.336523
O181	O	0.337836	-0.269759	-0.269613
O182	O	0.837836	0.230241	0.230387
C183	C	0.125905	-0.245304	-0.245247
C184	C	0.625905	0.254696	0.254753
C185	C	0.102449	-0.216531	-0.216574
C186	C	0.602449	0.283469	0.283426
C187	C	0.125909	-0.187755	-0.187893
C188	C	0.625909	0.312245	0.312107
C189	C	0.055531	-0.216535	-0.216577
C190	C	0.555531	0.283465	0.283423
C191	C	0.032071	-0.245310	-0.245258
C192	C	0.532071	0.254690	0.254742
C193	C	0.055529	-0.274082	-0.273934
C194	C	0.555529	0.225918	0.226066
C195	C	0.102445	-0.274080	-0.273927
C196	C	0.602445	0.225920	0.226073
C197	C	0.102451	-0.158984	-0.159217
C198	C	0.602451	0.341016	0.340783
C199	C	0.055535	-0.158989	-0.159226
C200	C	0.555535	0.341011	0.340774
C201	C	0.032075	-0.187764	-0.187906
C202	C	0.532075	0.312236	0.312094
C203	C	0.766309	-0.216547	-0.216582
C204	C	1.266309	0.283453	0.283418
C205	C	0.816244	-0.216555	-0.216596
C206	C	1.316244	0.283445	0.283404
C207	C	0.649143	-0.216524	-0.333728
C208	C	1.149143	0.283476	0.166272
C209	C	0.649148	-0.216522	-0.383662
C210	C	1.149148	0.283478	0.116338
C211	C	0.649225	-0.099349	-0.216582
C212	C	1.149225	0.400651	0.283418
C213	C	0.649265	-0.049415	-0.216595
C214	C	1.149265	0.450585	0.283405
C215	C	0.677935	-0.187718	-0.693325
C216	C	1.177935	0.312282	-0.193325
C217	C	0.677957	-0.187680	-0.880998
C218	C	1.177957	0.312320	-0.380998
O219	O	0.702399	-0.163232	-0.905279
O220	O	1.202399	0.336768	-0.405279
N221	N	0.649208	-0.216402	-0.904448
N222	N	1.149208	0.283598	-0.404448
C223	C	0.620449	-0.245133	-0.880976
C224	C	1.120449	0.254867	-0.380976
O225	O	0.595993	-0.269559	-0.905228
O226	O	1.095993	0.230441	-0.405228
C227	C	0.620424	-0.245169	-0.693304
C228	C	1.120424	0.254831	-0.193304
C229	C	0.649179	-0.216448	-0.669857
C230	C	1.149179	0.283552	-0.169857
C231	C	0.706687	-0.158999	-0.669877
C232	C	1.206687	0.341001	-0.169877
C233	C	0.706683	-0.159011	-0.622962
C234	C	1.206683	0.340989	-0.122962
C235	C	0.677927	-0.187741	-0.599494
C236	C	1.177927	0.312259	-0.099494
C237	C	0.649175	-0.216460	-0.622941
C238	C	1.149175	0.283540	-0.122941
C239	C	0.591663	-0.273898	-0.669833
C240	C	1.091663	0.226102	-0.169833
C241	C	0.591659	-0.273903	-0.622912
C242	C	1.091659	0.226097	-0.122912
C243	C	0.620414	-0.245183	-0.599465
C244	C	1.120414	0.254817	-0.099465
C245	C	0.620415	-0.245202	-0.552558
C246	C	1.120415	0.254798	-0.052558
N247	N	0.649164	-0.216480	-0.529108
N248	N	1.149164	0.283520	-0.029108
C249	C	0.677920	-0.187749	-0.552576
C250	C	1.177920	0.312251	-0.052576
C251	C	0.620464	-0.245113	-0.979507
C252	C	1.120464	0.254887	-0.479507
C253	C	0.620471	-0.245105	-1.026425
C254	C	1.120471	0.254895	-0.526425
C255	C	0.677979	-0.187650	-1.026443
C256	C	1.177979	0.312350	-0.526443
C257	C	0.677974	-0.187661	-0.979524
C258	C	1.177974	0.312339	-0.479524
C259	C	0.649214	-0.216391	-0.956057
C260	C	1.149214	0.283609	-0.456057
C261	C	0.677910	-0.187776	-0.454050
C262	C	1.177910	0.312224	0.045950
C263	C	0.677904	-0.187792	-0.407130
C264	C	1.177904	0.312208	0.092870
C265	C	0.620395	-0.245244	-0.407116
C266	C	1.120395	0.254756	0.092884
C267	C	0.620401	-0.245230	-0.454032
C268	C	1.120401	0.254770	0.045968
C269	C	0.649161	-0.216493	-0.477497
C270	C	1.149161	0.283507	0.022503
O271	O	0.595982	-0.269633	-0.528248
O272	O	1.095982	0.230367	-0.028248
O273	O	0.702366	-0.163320	-0.528316
O274	O	1.202366	0.336680	-0.028316
C275	C	0.677939	-0.187706	-0.740240
C276	C	1.177939	0.312294	-0.240240
C277	C	0.649187	-0.216425	-0.763688
C278	C	1.149187	0.283575	-0.263688
C279	C	0.620431	-0.245155	-0.740219
C280	C	1.120431	0.254845	-0.240219
C281	C	0.649194	-0.216417	-0.810605
C282	C	1.149194	0.283583	-0.310605
C283	C	0.677950	-0.187686	-0.834074
C284	C	1.177950	0.312314	-0.334074
C285	C	0.706699	-0.158964	-0.810624
C286	C	1.206699	0.341036	-0.310624
C287	C	0.706695	-0.158976	-0.763708
C288	C	1.206695	0.341024	-0.263708
C289	C	0.591682	-0.273877	-0.763669
C290	C	1.091682	0.226123	-0.263669
C291	C	0.591689	-0.273864	-0.810585
C292	C	1.091689	0.226136	-0.310585
C293	C	0.620445	-0.245133	-0.834053
C294	C	1.120445	0.254867	-0.334053
C295	C	0.649145	-0.216499	-0.099827
C296	C	1.149145	0.283501	0.400173
C297	C	0.649227	-0.216374	-0.049893
C298	C	1.149227	0.283626	0.450107
H299	H	0.701220	-0.387517	-0.164459
H300	H	1.201220	0.112483	0.335541
H301	H	0.596991	-0.268621	-0.473123
H302	H	1.096991	0.231379	0.026877
H303	H	0.596895	-0.387570	-0.268600
H304	H	1.096895	0.112430	0.231400
H305	H	0.730093	-0.744071	-0.135801
H306	H	1.230093	-0.244071	0.364199
H307	H	0.597044	-0.268511	-0.960404
H308	H	1.097044	0.231489	-0.460404
Br309	Br	0.552639	-0.312881	-0.701643
Br310	Br	1.052639	0.187119	-0.201643
Br311	Br	0.490859	-0.148686	-0.148915
Br312	Br	0.990859	0.351314	0.351085
Br313	Br	0.581453	-0.284093	-1.058240
Br314	Br	1.081453	0.215907	-0.558240
H315	H	0.701393	-0.164257	-1.045559
H316	H	1.201393	0.335743	-0.545559
Br317	Br	0.717038	-1.057763	-0.148946
Br318	Br	1.217038	-0.557763	0.351054
H319	H	0.568292	-0.829266	-0.297349
H320	H	1.068292	-0.329266	0.202651
H321	H	0.568268	-0.744160	-0.297340
H322	H	1.068268	-0.244160	0.202660
Br323	Br	0.023708	-0.119933	-0.120303
Br324	Br	0.523708	0.380067	0.379697
H325	H	0.597076	-0.959972	-0.268661
H326	H	1.097076	-0.459972	0.231339
Br327	Br	0.134270	-0.313136	-0.312845
Br328	Br	0.634270	0.186864	0.187155
Br329	Br	0.552623	-0.312894	-0.591066
Br330	Br	1.052623	0.187106	-0.091066
H331	H	0.568248	-0.688511	-0.297342
H332	H	1.068248	-0.188511	0.202658
H333	H	0.730117	-0.829189	-0.135814
H334	H	1.230117	-0.329189	0.364186
Br335	Br	0.745658	-0.590584	-0.120205
Br336	Br	1.245658	-0.090584	0.379795
H337	H	0.478110	-0.268721	-0.268545
H338	H	0.978110	0.231279	0.231455
Br339	Br	0.581370	-0.284233	-0.375257
Br340	Br	1.081370	0.215767	0.124743
Br341	Br	0.023682	-0.313137	-0.312854
Br342	Br	0.523682	0.186863	0.187146
H343	H	0.121547	-0.135551	-0.135861
H344	H	0.621547	0.364449	0.364139
Br345	Br	0.745722	-0.119996	-0.731894
Br346	Br	1.245722	0.380004	-0.231894
Br347	Br	0.380267	-0.284346	-0.284139
Br348	Br	0.880267	0.215654	0.215861
H349	H	0.701321	-0.164403	-0.388042
H350	H	1.201321	0.335597	0.111958
Br351	Br	0.275017	-0.313128	-0.312827
Br352	Br	0.775017	0.186872	0.187173
H353	H	0.177180	-0.297509	-0.297271
H354	H	0.677180	0.202491	0.202729
Br355	Br	-0.081552	-0.284382	-0.284186
Br356	Br	0.418448	0.215618	0.215814
H357	H	0.730076	-0.688430	-0.135795
H358	H	1.230076	-0.188430	0.364205
H359	H	0.730115	-0.135573	-0.829740
H360	H	1.230115	0.364427	-0.329740
H361	H	0.597097	-1.045080	-0.268662
H362	H	1.097097	-0.545080	0.231338
H363	H	-0.179407	-0.268759	-0.268628
H364	H	0.320593	0.231241	0.231372
H365	H	0.701327	-0.164374	-0.473150
H366	H	1.201327	0.335626	0.026850
H367	H	-0.179390	-0.164352	-0.164561
H368	H	0.320610	0.335648	0.335439
H369	H	0.568274	-0.297256	-0.829671
H370	H	1.068274	0.202744	-0.329671
H371	H	0.701258	-0.472626	-0.164472
H372	H	1.201258	0.027374	0.335528
Br373	Br	0.275042	-0.119906	-0.120281
Br374	Br	0.775042	0.380094	0.379719
H375	H	0.596925	-0.472692	-0.268615
H376	H	1.096925	0.027308	0.231385
Br377	Br	-0.081548	-0.148713	-0.148987
Br378	Br	0.418452	0.351287	0.351013
Br379	Br	0.745706	-0.120028	-0.591148
Br380	Br	1.245706	0.379972	-0.091148
H381	H	0.177197	-0.135539	-0.135854
H382	H	0.677197	0.364461	0.364146
Br383	Br	0.380262	-0.148695	-0.148921
Br384	Br	0.880262	0.351305	0.351079
H385	H	0.701402	-0.959912	-0.164514
H386	H	1.201402	-0.459912	0.335486
H387	H	0.730104	-0.135601	-0.688980
H388	H	1.230104	0.364399	-0.188980
H389	H	0.568229	-0.603402	-0.297337
H390	H	1.068229	-0.103402	0.202663
H391	H	0.701388	-0.164274	-0.960437
H392	H	1.201388	0.335726	-0.460437
H393	H	0.568265	-0.297274	-0.744566
H394	H	1.068265	0.202726	-0.244566
