data_functionalizedCrystal
_audit_creation_method	'MofGen! by Chris Wilmer'
_symmetry_space_group_name_H-M	'P1'
_symmetry_Int_Tables_number	1
_symmetry_cell_setting	triclinic
loop_
_symmetry_equiv_pos_as_xyz
  x,y,z
_cell_length_a	10.868271
_cell_length_b	19.188928
_cell_length_c	11.792241
_cell_angle_alpha	83.668613
_cell_angle_beta	89.994263
_cell_angle_gamma	89.982618
loop_
_atom_site_label
_atom_site_type_symbol
_atom_site_fract_x
_atom_site_fract_y
_atom_site_fract_z
O1	O	0.102799	-0.926944	-0.141683
O2	O	0.102697	-0.723741	-0.160760
O3	O	0.102742	-0.830274	0.014023
O4	O	0.102754	-0.820411	-0.316466
O5	O	-0.101903	-0.830273	0.014032
O6	O	-0.101947	-0.723740	-0.160751
O7	O	-0.101845	-0.926943	-0.141673
Zn8	Zn	-0.134388	-0.825341	-0.151210
Zn9	Zn	0.135240	-0.825343	-0.151223
O10	O	-0.101890	-0.820410	-0.316456
C11	C	0.000362	-0.697726	-0.160138
C12	C	0.000323	-0.620211	-0.158285
C13	C	0.000342	-0.575868	-0.260841
C14	C	0.000349	-0.503034	-0.259100
C15	C	0.000362	-0.474546	-0.154797
C16	C	0.000335	-0.518899	-0.052227
C17	C	0.000316	-0.591731	-0.053971
N18	N	0.070048	-0.366115	-0.075074
N19	N	0.070069	-0.296927	-0.073425
C20	C	0.000418	-0.255108	-0.149536
N21	N	-0.069240	-0.285089	-0.227377
N22	N	-0.069256	-0.354283	-0.229030
C23	C	0.000382	-0.395573	-0.152894
C24	C	0.000443	-0.131789	-0.250212
C25	C	0.000443	-0.058955	-0.248467
C26	C	0.000441	-0.074822	-0.041590
C27	C	0.000429	-0.147655	-0.043339
C28	C	0.000436	-0.176134	-0.147653
N29	N	-0.318402	-0.825345	-0.151201
N30	N	0.319254	-0.825344	-0.151223
C31	C	0.570260	-0.825342	-0.151216
C32	C	0.430583	-0.825341	-0.151224
C33	C	0.000420	-0.829654	0.056309
C34	C	0.000420	-0.827799	0.182295
C35	C	0.000471	0.047042	-0.142299
C36	C	0.000453	-0.030472	-0.144162
C37	C	0.000435	-0.821030	-0.358743
C38	C	0.000442	-0.822885	-0.484729
C39	C	0.000439	-0.824390	0.412956
C40	C	0.000429	-0.826284	0.284600
H41	H	0.000362	-0.466923	-0.342617
H42	H	0.000431	-0.154978	-0.335151
H43	H	0.000301	-0.627836	0.029546
O44	O	0.000569	-0.491196	0.049065
C45	C	0.106577	-0.418169	0.171059
C46	C	0.106487	-0.449507	0.056314
H47	H	0.192189	-0.384445	0.176947
H48	H	0.106640	-0.462349	0.244109
H49	H	0.020906	-0.384473	0.177033
H50	H	0.192143	-0.483196	0.050228
H51	H	0.106360	-0.405294	-0.016681
O52	O	0.000513	-0.015977	-0.348201
C53	C	0.000460	-0.007929	-0.553574
C54	C	0.000409	-0.056682	-0.440710
H55	H	0.000349	-0.040819	-0.628397
H56	H	0.086129	0.026534	-0.558006
H57	H	-0.085158	0.026599	-0.557869
H58	H	0.085969	-0.091253	-0.436340
H59	H	-0.085317	-0.091097	-0.436325
O60	O	0.000672	-0.047126	0.059704
C61	C	0.106675	0.025901	0.181701
C62	C	0.106585	-0.005433	0.066954
H63	H	0.192283	0.059629	0.187590
H64	H	0.106744	-0.018280	0.254749
H65	H	0.021000	0.059594	0.187681
H66	H	0.192245	-0.039118	0.060863
H67	H	0.106452	0.038782	-0.006039
O68	O	0.000281	-0.603415	-0.362268
C69	C	0.000361	-0.579988	-0.567273
C70	C	0.000406	-0.548695	-0.452489
H71	H	0.000488	-0.535762	-0.640247
H72	H	-0.085314	-0.613640	-0.573337
H73	H	0.085973	-0.613737	-0.573205
H74	H	-0.085148	-0.514915	-0.446479
H75	H	0.086137	-0.515083	-0.446474
O76	O	0.000478	-0.190634	0.056391
C77	C	0.000404	-0.198683	0.261764
C78	C	0.000382	-0.149930	0.148900
H79	H	0.000300	-0.165793	0.336587
H80	H	0.086058	-0.233186	0.266194
H81	H	-0.085229	-0.233171	0.266060
H82	H	0.085957	-0.115398	0.144529
H83	H	-0.085329	-0.115474	0.144518
