data_functionalizedCrystal
_audit_creation_method	'MofGen! by Chris Wilmer'
_symmetry_space_group_name_H-M	'P1'
_symmetry_Int_Tables_number	1
_symmetry_cell_setting	triclinic
loop_
_symmetry_equiv_pos_as_xyz
  x,y,z
_cell_length_a	18.215407
_cell_length_b	25.639240
_cell_length_c	18.215399
_cell_angle_alpha	89.960373
_cell_angle_beta	89.983176
_cell_angle_gamma	90.033205
loop_
_atom_site_label
_atom_site_type_symbol
_atom_site_fract_x
_atom_site_fract_y
_atom_site_fract_z
Zn1	Zn	1.125010	-0.208137	-0.416068
Zn2	Zn	1.124908	-0.295577	-0.292982
Zn3	Zn	1.001949	-0.208158	-0.293016
Zn4	Zn	1.001891	-0.295544	-0.416007
O5	O	1.063439	-0.251854	-0.354518
O6	O	1.227981	-0.219742	-0.399752
O7	O	1.108578	-0.284003	-0.190002
O8	O	1.018340	-0.134990	-0.309379
O9	O	1.227906	-0.283983	-0.309322
O10	O	1.108752	-0.134975	-0.399785
O11	O	1.018241	-0.219777	-0.190027
O12	O	0.898957	-0.219745	-0.309319
O13	O	1.018242	-0.283927	-0.519000
O14	O	0.898915	-0.283947	-0.399681
O15	O	1.108697	-0.219710	-0.519045
O16	O	1.108523	-0.368738	-0.309262
O17	O	1.018143	-0.368714	-0.399648
C18	C	0.872233	-0.251845	-0.354497
C19	C	0.790434	-0.251854	-0.354506
C20	C	1.063335	-0.387697	-0.354461
C21	C	1.063358	-0.445811	-0.354461
C22	C	0.602238	-0.285337	-0.401498
C23	C	0.525379	-0.285338	-0.401507
C24	C	0.525393	-0.218381	-0.307555
C25	C	0.602251	-0.218377	-0.307550
C26	C	0.640671	-0.251858	-0.354520
C27	C	0.486955	-0.251864	-0.354535
C28	C	0.403621	-0.251865	-0.354544
C29	C	0.724010	-0.251856	-0.354512
C30	C	1.110541	-0.806128	-0.401678
C31	C	1.110562	-0.860732	-0.401693
O32	O	1.150555	-0.888929	-0.441779
N33	N	1.063542	-0.888093	-0.354590
C34	C	1.016491	-0.860848	-0.307474
O35	O	0.976498	-0.889135	-0.267410
C36	C	1.016466	-0.806244	-0.307463
C37	C	1.063495	-0.778886	-0.354564
C38	C	1.157565	-0.778769	-0.448776
C39	C	1.157544	-0.724168	-0.448760
C40	C	1.110499	-0.696926	-0.401646
C41	C	1.063474	-0.724285	-0.354548
C42	C	0.969412	-0.779000	-0.260351
C43	C	0.969391	-0.724393	-0.260345
C44	C	1.016420	-0.697034	-0.307446
C45	C	1.016408	-0.642443	-0.307418
N46	N	1.063428	-0.615081	-0.354521
C47	C	1.110474	-0.642323	-0.401635
C48	C	1.016546	-0.975518	-0.307500
C49	C	1.016574	-1.030121	-0.307507
C50	C	1.110644	-1.030001	-0.401727
C51	C	1.110620	-0.975398	-0.401717
C52	C	1.063566	-0.948157	-0.354604
C53	C	1.110427	-0.527658	-0.401597
C54	C	1.110404	-0.473053	-0.401575
C55	C	1.016331	-0.473177	-0.307357
C56	C	1.016356	-0.527778	-0.307377
C57	C	1.063407	-0.555017	-0.354503
O58	O	0.976434	-0.614211	-0.267354
O59	O	1.150454	-0.614029	-0.441698
C60	C	1.255392	-0.251864	-0.354540
C61	C	1.337191	-0.251868	-0.354549
C62	C	1.063474	-0.251813	-0.546471
C63	C	1.063489	-0.251795	-0.628270
C64	C	1.063564	-0.115481	-0.354592
C65	C	1.063617	-0.057367	-0.354624
C66	C	1.016490	-0.218330	-0.816478
C67	C	1.016503	-0.218319	-0.893337
C68	C	1.110576	-0.285198	-0.893301
C69	C	1.110559	-0.285210	-0.816443
C70	C	1.063517	-0.251773	-0.778034
C71	C	1.063547	-0.251750	-0.931750
C72	C	1.063561	-0.251739	-1.015084
C73	C	1.063502	-0.251785	-0.694695
C74	C	1.063447	-0.251858	-0.163312
C75	C	1.063575	-0.251729	-0.081514
H76	H	0.494090	-0.312599	-0.439762
C77	C	1.161556	-0.557291	-0.452642
C78	C	1.208757	-0.588645	-0.411031
C79	C	1.255864	-0.615954	-0.458026
H80	H	1.189624	-0.533229	-0.480701
H81	H	1.133419	-0.578619	-0.484682
H82	H	1.236892	-0.567320	-0.379004
H83	H	1.180709	-0.612717	-0.382974
H84	H	1.227727	-0.637282	-0.490066
H85	H	1.283927	-0.591888	-0.486082
H86	H	1.287891	-0.637235	-0.429800
H87	H	0.494102	-0.191123	-0.269313
H88	H	1.148856	-0.312446	-0.785141
C89	C	1.161701	-0.945791	-0.452943
C90	C	1.202891	-0.981342	-0.494214
C91	C	1.249947	-0.954090	-0.541422
H92	H	1.193842	-0.924482	-0.424905
H93	H	1.133534	-0.924503	-0.485020
H94	H	1.231055	-1.002621	-0.462140
H95	H	1.170769	-1.002652	-0.522267
H96	H	1.221780	-0.932803	-0.573499
H97	H	1.282083	-0.932782	-0.513378
H98	H	1.277895	-0.978208	-0.569435
H99	H	0.633517	-0.312598	-0.439746
H100	H	0.978186	-0.191103	-0.785208
H101	H	0.633544	-0.191112	-0.269296
H102	H	1.195875	-0.800943	-0.487146
C103	C	1.161492	-0.443444	-0.452799
C104	C	1.202679	-0.478993	-0.494077
C105	C	1.249738	-0.451739	-0.541279
H106	H	1.193634	-0.422139	-0.424757
H107	H	1.133327	-0.422152	-0.484873
H108	H	1.230841	-0.500276	-0.462007
H109	H	1.170556	-0.500299	-0.522135
H110	H	1.221574	-0.430446	-0.573353
H111	H	1.281876	-0.430435	-0.513230
H112	H	1.277685	-0.475854	-0.569296
C113	C	0.965350	-0.182096	-0.935112
C114	C	0.918148	-0.211694	-0.979193
C115	C	0.871004	-0.178343	-1.017677
H116	H	0.993436	-0.159299	-0.965175
H117	H	0.937290	-0.162197	-0.901248
H118	H	0.946205	-0.231584	-1.013053
H119	H	0.890045	-0.234489	-0.949148
H120	H	0.842944	-0.158444	-0.983812
H121	H	0.899097	-0.155548	-1.047735
H122	H	0.838968	-0.198421	-1.047584
H123	H	1.148950	-1.052191	-0.440092
H124	H	1.195837	-0.701896	-0.487115
C125	C	1.161624	-0.321439	-0.935137
C126	C	1.151590	-0.314261	-1.010674
C127	C	1.198611	-0.347632	-1.049234
H128	H	1.150867	-0.356592	-0.922607
H129	H	1.211091	-0.313785	-0.922591
H130	H	1.102134	-0.321918	-1.023215
H131	H	1.162352	-0.279115	-1.023226
H132	H	1.248078	-0.339978	-1.036688
H133	H	1.187850	-0.382783	-1.036698
H134	H	1.191814	-0.342763	-1.100490
H135	H	0.978286	-1.052391	-0.269145
C136	C	0.965281	-0.443499	-0.256289
C137	C	0.975317	-0.389826	-0.266379
C138	C	0.928291	-0.362469	-0.219359
H139	H	0.976032	-0.452405	-0.206821
H140	H	0.915815	-0.452440	-0.267028
H141	H	1.024772	-0.380888	-0.255635
H142	H	0.964561	-0.380905	-0.315836
H143	H	0.878826	-0.371410	-0.230098
H144	H	0.939047	-0.371379	-0.169894
H145	H	0.935090	-0.326049	-0.226203
H146	H	0.978232	-0.953341	-0.269129
C147	C	0.918266	-0.808600	-0.209187
C148	C	0.877049	-0.773045	-0.167949
C149	C	0.829914	-0.800292	-0.120814
H150	H	0.946354	-0.829906	-0.177080
H151	H	0.886150	-0.829890	-0.237300
H152	H	0.909161	-0.751764	-0.139838
H153	H	0.848946	-0.751738	-0.200037
H154	H	0.797799	-0.821582	-0.148927
H155	H	0.858008	-0.821597	-0.088712
H156	H	0.801939	-0.776172	-0.092834
H157	H	0.931072	-0.702216	-0.221981
H158	H	0.978067	-0.550054	-0.269017
