data_functionalizedCrystal
_audit_creation_method	'MofGen! by Chris Wilmer'
_symmetry_space_group_name_H-M	'P1'
_symmetry_Int_Tables_number	1
_symmetry_cell_setting	triclinic
loop_
_symmetry_equiv_pos_as_xyz
  x,y,z
_cell_length_a	16.109301
_cell_length_b	10.489716
_cell_length_c	15.186229
_cell_angle_alpha	89.996222
_cell_angle_beta	90.002891
_cell_angle_gamma	83.995308
loop_
_atom_site_label
_atom_site_type_symbol
_atom_site_fract_x
_atom_site_fract_y
_atom_site_fract_z
O1	O	1.104135	0.163942	0.073165
O2	O	1.604135	0.663942	0.573165
O3	O	0.862198	0.184345	0.073178
O4	O	1.362198	0.684345	0.573178
O5	O	0.988682	-0.011537	0.073174
O6	O	1.488682	0.488463	0.573174
O7	O	0.977650	0.359823	0.073169
O8	O	1.477650	0.859823	0.573169
O9	O	0.988667	-0.011525	-0.073283
O10	O	1.488667	0.488475	0.426717
O11	O	0.862183	0.184356	-0.073279
O12	O	1.362183	0.684356	0.426721
O13	O	1.104120	0.163953	-0.073292
O14	O	1.604120	0.663953	0.426708
Zn15	Zn	0.983149	0.174156	-0.096539
Zn16	Zn	1.483149	0.674156	0.403461
Zn17	Zn	0.983169	0.174142	0.096425
Zn18	Zn	1.483169	0.674142	0.596425
O19	O	0.977636	0.359834	-0.073289
O20	O	1.477636	0.859834	0.426711
C21	C	0.831210	0.183524	-0.000049
C22	C	1.331210	0.683524	0.499951
C23	C	0.738900	0.181046	-0.000044
C24	C	1.238900	0.681046	0.499956
C25	C	0.987846	-0.059051	-0.000052
C26	C	1.487846	0.440949	0.499948
C27	C	0.985366	-0.200646	-0.000043
C28	C	1.485366	0.299354	0.499957
C29	C	0.517302	0.291517	-0.000055
C30	C	1.017302	0.791517	0.499945
C31	C	0.430567	0.289179	-0.000061
C32	C	0.930567	0.789179	0.499939
C33	C	0.449022	0.056772	-0.000054
C34	C	0.949022	0.556772	0.499946
C35	C	0.535755	0.059112	-0.000055
C36	C	1.035755	0.559112	0.499945
C37	C	0.569893	0.176488	-0.000051
C38	C	1.069893	0.676488	0.499949
C39	C	0.396425	0.171810	-0.000056
C40	C	0.896425	0.671810	0.499944
C41	C	0.302383	0.169274	-0.000062
C42	C	0.802383	0.669274	0.499938
C43	C	0.663940	0.179024	-0.000046
C44	C	1.163940	0.679024	0.499954
C45	C	1.062930	-0.299445	-0.000056
C46	C	1.562930	0.200555	0.499944
C47	C	1.021951	-0.376217	0.072155
C48	C	1.521951	0.123783	0.572155
C49	C	1.021918	-0.376170	-0.072240
C50	C	1.521918	0.123830	0.427760
C51	C	0.944419	-0.275553	0.072227
C52	C	1.444419	0.224447	0.572227
C53	C	0.944398	-0.275500	-0.072233
C54	C	1.444398	0.224500	0.427767
C55	C	0.903361	-0.352222	-0.000004
C56	C	1.403361	0.147778	0.499996
C57	C	1.135107	0.164774	-0.000064
C58	C	1.635107	0.664774	0.499936
C59	C	1.227418	0.167252	-0.000063
C60	C	1.727418	0.667252	0.499937
C61	C	0.978472	0.407349	-0.000061
C62	C	1.478472	0.907349	0.499939
C63	C	0.980952	0.548944	-0.000063
C64	C	1.480952	1.048944	0.499937
N65	N	0.983142	0.174166	-0.228232
N66	N	1.483142	0.674166	0.271768
C67	C	1.034038	0.251530	-0.453959
C68	C	1.534038	0.751530	0.046041
C69	C	1.034047	0.251521	-0.546148
C70	C	1.534047	0.751521	-0.046148
C71	C	0.932284	0.096749	-0.546149
C72	C	1.432284	0.596749	-0.046149
C73	C	0.932280	0.096752	-0.453961
C74	C	1.432280	0.596752	0.046039
C75	C	0.983156	0.174150	-0.407868
C76	C	1.483156	0.674150	0.092132
C77	C	0.983169	0.174138	-0.592246
C78	C	1.483169	0.674138	-0.092246
C79	C	0.983178	0.174127	-0.692202
C80	C	1.483178	0.674127	-0.192202
C81	C	0.983148	0.174159	-0.307906
C82	C	1.483148	0.674159	0.192094
N83	N	0.983183	0.174122	0.228117
N84	N	1.483183	0.674122	0.728117
H85	H	0.545093	0.387092	-0.000059
H86	H	1.045093	0.887092	0.499941
Br87	Br	0.790828	-0.391314	0.000060
Br88	Br	1.290828	0.108686	0.500060
H89	H	0.911700	-0.231779	0.133344
H90	H	1.411700	0.268221	0.633344
Br91	Br	0.359196	0.445297	-0.000072
Br92	Br	0.859196	0.945297	0.499928
H93	H	0.578577	-0.034565	-0.000053
H94	H	1.078577	0.465435	0.499947
Br95	Br	0.889879	-0.202131	-0.173987
Br96	Br	1.389879	0.297869	0.326013
Br97	Br	1.076506	-0.449412	-0.173990
Br98	Br	1.576506	0.050588	0.326010
H99	H	0.421217	-0.038792	-0.000062
H100	H	0.921217	0.461208	0.499938
H101	H	1.130398	-0.275748	0.000014
H102	H	1.630398	0.224252	0.500014
Br103	Br	1.103088	0.356560	-0.391406
Br104	Br	1.603088	0.856560	0.108594
H105	H	1.054700	-0.420192	0.133202
H106	H	1.554700	0.079808	0.633202
H107	H	1.075481	0.314530	-0.583671
H108	H	1.575481	0.814530	-0.083671
Br109	Br	0.863237	-0.008278	-0.608709
Br110	Br	1.363237	0.491722	-0.108709
Br111	Br	0.863221	-0.008272	-0.391404
Br112	Br	1.363221	0.491728	0.108596
