data_functionalizedCrystal
_audit_creation_method	'MofGen! by Chris Wilmer'
_symmetry_space_group_name_H-M	'P1'
_symmetry_Int_Tables_number	1
_symmetry_cell_setting	triclinic
loop_
_symmetry_equiv_pos_as_xyz
  x,y,z
_cell_length_a	10.654545
_cell_length_b	8.597304
_cell_length_c	9.130313
_cell_angle_alpha	82.295602
_cell_angle_beta	89.996934
_cell_angle_gamma	84.908900
loop_
_atom_site_label
_atom_site_type_symbol
_atom_site_fract_x
_atom_site_fract_y
_atom_site_fract_z
O1	O	1.669014	0.220431	-0.149595
O2	O	2.169014	0.720431	0.350405
O3	O	1.303646	0.241443	-0.152252
O4	O	1.803646	0.741443	0.347748
O5	O	1.493520	0.002548	-0.122099
O6	O	1.993520	0.502548	0.377901
O7	O	1.479140	0.459326	-0.179748
O8	O	1.979140	0.959326	0.320252
O9	O	1.493506	0.002541	0.121500
O10	O	1.993506	0.502541	0.621500
O11	O	1.303633	0.241436	0.091348
O12	O	1.803633	0.741436	0.591348
O13	O	1.669000	0.220424	0.094005
O14	O	2.169000	0.720424	0.594005
Cu15	Cu	1.486315	0.230929	0.114919
Cu16	Cu	1.986315	0.730929	0.614919
Cu17	Cu	1.486331	0.230937	-0.173166
Cu18	Cu	1.986331	0.730937	0.326834
O19	O	1.479126	0.459319	0.063852
O20	O	1.979126	0.959319	0.563852
C21	C	1.256833	0.239898	-0.030258
C22	C	1.756833	0.739898	0.469742
C23	C	1.117365	0.235286	-0.029679
C24	C	1.617365	0.735286	0.470321
C25	C	1.051842	0.233112	0.103382
C26	C	1.551842	0.733112	0.603382
C27	C	0.920799	0.228753	0.103932
C28	C	1.420799	0.728753	0.603932
C29	C	0.920814	0.228750	-0.161652
C30	C	1.420814	0.728750	0.338348
C31	C	1.051855	0.233098	-0.162199
C32	C	1.551855	0.733098	0.337801
C33	C	1.491968	-0.055944	0.007079
C34	C	1.991968	0.444056	0.507079
C35	C	1.487351	-0.230222	0.029064
C36	C	1.987351	0.269778	0.529064
C37	C	1.715813	0.221969	-0.027992
C38	C	2.215813	0.721969	0.472008
C39	C	1.855281	0.226580	-0.028581
C40	C	2.355281	0.726580	0.471419
C41	C	1.480678	0.517811	-0.065329
C42	C	1.980678	1.017811	0.434671
C43	C	1.485295	0.692088	-0.087324
C44	C	1.985295	1.192088	0.412676
N45	N	1.486313	0.230922	0.317542
N46	N	1.986313	0.730922	0.817542
N47	N	1.486343	0.230932	-0.375788
N48	N	1.986343	0.730932	0.124212
C49	C	1.570419	0.125184	0.407540
C50	C	2.070419	0.625184	0.907540
C51	C	1.570431	0.125185	0.560877
C52	C	2.070431	0.625185	1.060877
C53	C	1.402228	0.336675	0.534203
C54	C	1.902228	0.836675	1.034203
C55	C	1.402211	0.336665	0.380870
C56	C	1.902211	0.836665	0.880870
H57	H	0.867456	0.226983	0.212284
H58	H	1.367456	0.726983	0.712284
H59	H	1.485563	-0.297041	0.145545
H60	H	1.985563	0.202959	0.645545
Br61	Br	1.684554	-0.018327	0.321601
Br62	Br	2.184554	0.481673	0.821601
Br63	Br	1.684572	-0.018329	0.683016
Br64	Br	2.184572	0.481671	1.183016
H65	H	1.333756	0.422771	0.585780
H66	H	1.833756	0.922771	1.085780
H67	H	1.333717	0.422770	0.307588
H68	H	1.833717	0.922770	0.807588
H69	H	0.867460	0.226970	-0.269546
H70	H	1.367460	0.726970	0.230454
H71	H	1.487064	-0.241098	-0.203798
H72	H	1.987064	0.258902	0.296202
Br73	Br	1.140745	0.236077	0.283231
Br74	Br	1.640745	0.736077	0.783231
H75	H	1.105206	0.234864	-0.270560
H76	H	1.605206	0.734864	0.229440
