data_functionalizedCrystal
_audit_creation_method	'MofGen! by Chris Wilmer'
_symmetry_space_group_name_H-M	'P1'
_symmetry_Int_Tables_number	1
_symmetry_cell_setting	triclinic
loop_
_symmetry_equiv_pos_as_xyz
  x,y,z
_cell_length_a	19.188905
_cell_length_b	19.188930
_cell_length_c	17.666332
_cell_angle_alpha	90.006765
_cell_angle_beta	90.013693
_cell_angle_gamma	83.139668
loop_
_atom_site_label
_atom_site_type_symbol
_atom_site_fract_x
_atom_site_fract_y
_atom_site_fract_z
O1	O	0.926158	0.087081	0.063081
O2	O	1.259492	0.420414	0.396415
O3	O	1.592825	0.753748	0.729748
O4	O	0.722845	0.098833	0.063057
O5	O	1.056178	0.432167	0.396390
O6	O	1.389511	0.765500	0.729723
O7	O	0.830369	-0.008699	0.063055
O8	O	1.163702	0.324634	0.396388
O9	O	1.497035	0.657968	0.729722
O10	O	0.818634	0.194613	0.063083
O11	O	1.151968	0.527947	0.396417
O12	O	1.485301	0.861280	0.729750
O13	O	0.830355	-0.008695	-0.062842
O14	O	1.163688	0.324638	0.270492
O15	O	1.497021	0.657971	0.603825
O16	O	0.722830	0.098837	-0.062840
O17	O	1.056164	0.432170	0.270493
O18	O	1.389497	0.765504	0.603827
O19	O	0.926144	0.087085	-0.062815
O20	O	1.259478	0.420418	0.270518
O21	O	1.592811	0.753751	0.603851
Cu22	Cu	0.824486	0.092961	-0.074323
Cu23	Cu	1.157819	0.426294	0.259010
Cu24	Cu	1.491153	0.759628	0.592344
Cu25	Cu	0.824503	0.092957	0.074565
Cu26	Cu	1.157836	0.426290	0.407898
Cu27	Cu	1.491170	0.759624	0.741231
O28	O	0.818620	0.194617	-0.062814
O29	O	1.151953	0.527950	0.270520
O30	O	1.485287	0.861284	0.603853
C31	C	0.696826	0.098458	0.000105
C32	C	1.030160	0.431791	0.333438
C33	C	1.363493	0.765124	0.666772
C34	C	0.619321	0.097324	0.000095
C35	C	0.952654	0.430657	0.333428
C36	C	1.285987	0.763991	0.666762
C37	C	0.829982	-0.034708	0.000104
C38	C	1.163315	0.298625	0.333438
C39	C	1.496648	0.631959	0.666771
C40	C	0.828841	-0.112213	0.000098
C41	C	1.162174	0.221121	0.333431
C42	C	1.495508	0.554454	0.666764
C43	C	0.582937	0.096777	0.068723
C44	C	0.916270	0.430111	0.402056
C45	C	1.249603	0.763444	0.735390
C46	C	0.510113	0.095704	0.068732
C47	C	0.843446	0.429038	0.402066
C48	C	1.176780	0.762371	0.735399
C49	C	0.473678	0.095164	0.000110
C50	C	0.807012	0.428497	0.333443
C51	C	1.140345	0.761830	0.666776
C52	C	0.510070	0.095714	-0.068528
C53	C	0.843404	0.429048	0.264806
C54	C	1.176737	0.762381	0.598139
C55	C	0.582892	0.096794	-0.068535
C56	C	0.916225	0.430128	0.264798
C57	C	1.249558	0.763461	0.598132
N58	N	0.364652	0.053737	-0.050966
N59	N	0.697985	0.387070	0.282368
N60	N	1.031319	0.720403	0.615701
N61	N	0.295475	0.052709	-0.050954
N62	N	0.628808	0.386042	0.282379
N63	N	0.962142	0.719376	0.615713
C64	C	0.254272	0.091911	0.000127
C65	C	0.587605	0.425244	0.333461
C66	C	0.920938	0.758578	0.666794
N67	N	0.284859	0.132171	0.051208
N68	N	0.618193	0.465504	0.384542
N69	N	0.951526	0.798837	0.717875
N70	N	0.354043	0.133195	0.051199
N71	N	0.687377	0.466528	0.384532
N72	N	1.020710	0.799862	0.717865
C73	C	0.394716	0.093993	0.000110
C74	C	0.728049	0.427326	0.333443
C75	C	1.061382	0.760660	0.666776
C76	C	0.138924	0.090202	0.068770
C77	C	0.472257	0.423535	0.402104
C78	C	0.805590	0.756869	0.735437
C79	C	0.066098	0.089133	0.068777
C80	C	0.399431	0.422467	0.402110
C81	C	0.732765	0.755800	0.735443
C82	C	0.066058	0.089136	-0.068485
C83	C	0.399391	0.422470	0.264848
C84	C	0.732725	0.755803	0.598181
C85	C	0.138881	0.090212	-0.068490
C86	C	0.472214	0.423546	0.264844
C87	C	0.805548	0.756879	0.598177
C88	C	0.175310	0.090742	0.000140
C89	C	0.508643	0.424075	0.333474
C90	C	0.841977	0.757408	0.666807
C91	C	0.891933	-0.157142	0.000102
C92	C	1.225266	0.176191	0.333435
C93	C	1.558599	0.509525	0.666769
C94	C	0.890861	-0.229966	0.000114
C95	C	1.224194	0.103367	0.333447
C96	C	1.557528	0.436701	0.666781
C97	C	0.826694	-0.257857	0.000107
C98	C	1.160027	0.075477	0.333440
C99	C	1.493361	0.408810	0.666773
C100	C	0.763594	-0.212917	0.000107
C101	C	1.096927	0.120416	0.333440
C102	C	1.430261	0.453749	0.666773
C103	C	0.764668	-0.140095	0.000102
C104	C	1.098001	0.193238	0.333436
C105	C	1.431334	0.526572	0.666769
N106	N	0.777641	-0.365856	-0.042744
N107	N	1.110975	-0.032523	0.290589
N108	N	1.444308	0.300811	0.623922
N109	N	0.776626	-0.435035	-0.042742
N110	N	1.109959	-0.101701	0.290591
N111	N	1.443292	0.231632	0.623925
C112	C	0.823456	-0.477265	0.000122
C113	C	1.156789	-0.143932	0.333455
C114	C	1.490122	0.189402	0.666788
N115	N	0.871350	-0.447705	0.042973
N116	N	1.204684	-0.114372	0.376306
N117	N	1.538017	0.218962	0.709639
N118	N	0.872368	-0.378520	0.042967
N119	N	1.205701	-0.045187	0.376300
N120	N	1.539035	0.288146	0.709633
C121	C	0.825523	-0.336819	0.000112
C122	C	1.158856	-0.003486	0.333445
C123	C	1.492190	0.329848	0.666779
C124	C	0.885390	-0.601159	0.000140
C125	C	1.218723	-0.267826	0.333473
C126	C	1.552056	0.065508	0.666806
C127	C	0.884315	-0.673984	0.000156
C128	C	1.217649	-0.340650	0.333490
C129	C	1.550982	-0.007317	0.666823
C130	C	0.757047	-0.656933	0.000142
C131	C	1.090380	-0.323600	0.333475
C132	C	1.423714	0.009733	0.666808
C133	C	0.758123	-0.584110	0.000133
C134	C	1.091456	-0.250777	0.333466
C135	C	1.424790	0.082556	0.666799
C136	C	0.822296	-0.556228	0.000128
C137	C	1.155630	-0.222894	0.333461
C138	C	1.488963	0.110439	0.666795
C139	C	0.952163	0.087460	0.000138
C140	C	1.285496	0.420794	0.333471
C141	C	1.618829	0.754127	0.666805
C142	C	1.029668	0.088594	0.000153
C143	C	1.363001	0.421927	0.333487
C144	C	1.696335	0.755261	0.666820
C145	C	0.819007	0.220626	0.000139
C146	C	1.152341	0.553959	0.333472
C147	C	1.485674	0.887293	0.666805
C148	C	0.820148	0.298131	0.000150
C149	C	1.153481	0.631464	0.333484
C150	C	1.486815	0.964797	0.666817
N151	N	0.824479	0.092964	-0.179042
N152	N	1.157813	0.426297	0.154291
N153	N	1.491146	0.759630	0.487624
C154	C	0.866730	0.135181	-0.781080
C155	C	1.200063	0.468514	-0.447747
C156	C	1.533397	0.801847	-0.114413
C157	C	0.866723	0.135188	-0.701832
C158	C	1.200056	0.468521	-0.368499
C159	C	1.533390	0.801854	-0.035166
C160	C	0.824509	0.092950	-0.662224
C161	C	1.157843	0.426283	-0.328891
C162	C	1.491176	0.759616	0.004443
C163	C	0.782286	0.050715	-0.701869
C164	C	1.115619	0.384049	-0.368536
C165	C	1.448953	0.717382	-0.035203
C166	C	0.782289	0.050715	-0.781116
C167	C	1.115622	0.384048	-0.447782
C168	C	1.448956	0.717381	-0.114449
N169	N	0.822819	0.031789	-0.537808
N170	N	1.156152	0.365123	-0.204475
N171	N	1.489485	0.698456	0.128858
N172	N	0.822820	0.031792	-0.462528
N173	N	1.156153	0.365125	-0.129195
N174	N	1.489487	0.698458	0.204139
C175	C	0.824497	0.092950	-0.423460
C176	C	1.157830	0.426283	-0.090127
C177	C	1.491163	0.759616	0.243207
N178	N	0.826186	0.154106	-0.462516
N179	N	1.159519	0.487439	-0.129183
N180	N	1.492853	0.820773	0.204151
N181	N	0.826189	0.154103	-0.537804
N182	N	1.159522	0.487436	-0.204470
N183	N	1.492855	0.820769	0.128863
C184	C	0.824501	0.092946	-0.576295
C185	C	1.157834	0.426279	-0.242961
C186	C	1.491168	0.759612	0.090372
C187	C	0.866706	0.135193	-0.297895
C188	C	1.200040	0.468526	0.035439
C189	C	1.533373	0.801859	0.368772
C190	C	0.866694	0.135201	-0.218646
C191	C	1.200028	0.468534	0.114688
C192	C	1.533361	0.801868	0.448021
C193	C	0.782261	0.050722	-0.218684
C194	C	1.115595	0.384056	0.114649
C195	C	1.448928	0.717389	0.447983
C196	C	0.782269	0.050720	-0.297932
C197	C	1.115603	0.384054	0.035402
C198	C	1.448936	0.717387	0.368735
C199	C	0.824495	0.092954	-0.337532
C200	C	1.157829	0.426288	-0.004199
C201	C	1.491162	0.759621	0.329135
N202	N	0.824515	0.092949	0.179284
N203	N	1.157849	0.426282	0.512617
N204	N	1.491182	0.759615	0.845951
H205	H	0.612593	0.097209	0.124607
H206	H	0.945926	0.430542	0.457940
H207	H	1.279259	0.763875	0.791274
H208	H	0.706747	-0.547527	0.000125
H209	H	1.040080	-0.214194	0.333458
H210	H	1.373413	0.119139	0.666792
H211	H	0.935694	-0.710565	0.000164
H212	H	1.269028	-0.377232	0.333497
H213	H	1.602361	-0.043899	0.666830
Br214	Br	0.924010	0.192510	-0.351643
Br215	Br	1.257343	0.525843	-0.018310
Br216	Br	1.590677	0.859176	0.315024
Br217	Br	0.188367	0.090926	0.161908
Br218	Br	0.521700	0.424259	0.495242
Br219	Br	0.855033	0.757592	0.828575
Br220	Br	0.460624	0.094989	-0.161660
Br221	Br	0.793958	0.428322	0.171674
Br222	Br	1.127291	0.761655	0.505007
Br223	Br	0.016717	0.088401	0.161924
Br224	Br	0.350050	0.421734	0.495257
Br225	Br	0.683383	0.755067	0.828590
H226	H	0.704801	-0.679641	0.000140
H227	H	1.038134	-0.346308	0.333473
H228	H	1.371468	-0.012975	0.666806
H229	H	0.901069	0.169596	-0.186375
H230	H	1.234402	0.502929	0.146958
H231	H	1.567736	0.836262	0.480291
Br232	Br	0.676510	-0.250767	0.000107
Br233	Br	1.009843	0.082567	0.333440
Br234	Br	1.343176	0.415900	0.666773
Br235	Br	0.632274	0.097538	-0.161681
Br236	Br	0.965607	0.430871	0.171653
Br237	Br	1.298940	0.764204	0.504986
Br238	Br	0.188263	0.090952	-0.161634
Br239	Br	0.521597	0.424285	0.171700
Br240	Br	0.854930	0.757619	0.505033
Br241	Br	0.924032	0.192502	-0.834820
Br242	Br	1.257365	0.525836	-0.501487
Br243	Br	1.590699	0.859169	-0.168154
Br244	Br	0.460723	0.094964	0.161877
Br245	Br	0.794057	0.428297	0.495211
Br246	Br	1.127390	0.761631	0.828544
H247	H	0.944187	-0.134445	0.000101
H248	H	1.277521	0.198888	0.333434
H249	H	1.610854	0.532221	0.666767
H250	H	0.747914	0.016326	-0.669615
H251	H	1.081247	0.349660	-0.336282
H252	H	1.414581	0.682993	-0.002948
Br253	Br	0.924029	0.192495	-0.648029
Br254	Br	1.257363	0.525829	-0.314695
Br255	Br	1.590696	0.859162	0.018638
Br256	Br	0.016617	0.088413	-0.161619
Br257	Br	0.349950	0.421747	0.171715
Br258	Br	0.683284	0.755080	0.505048
H259	H	0.942239	-0.266555	0.000120
H260	H	1.275573	0.066779	0.333454
H261	H	1.608906	0.400112	0.666787
H262	H	0.713289	-0.103513	0.000099
H263	H	1.046622	0.229821	0.333432
H264	H	1.379956	0.563154	0.666766
H265	H	0.747897	0.016327	-0.330204
H266	H	1.081230	0.349661	0.003130
H267	H	1.414563	0.682994	0.336463
H268	H	0.747886	0.016336	-0.186436
H269	H	1.081219	0.349669	0.146898
H270	H	1.414553	0.683002	0.480231
Br271	Br	0.972480	-0.563314	0.000126
Br272	Br	1.305813	-0.229980	0.333459
Br273	Br	1.639146	0.103353	0.666792
Br274	Br	0.724992	-0.006603	-0.834911
Br275	Br	1.058325	0.326730	-0.501578
Br276	Br	1.391658	0.660063	-0.168245
