data_functionalizedCrystal
_audit_creation_method	'MofGen! by Chris Wilmer'
_symmetry_space_group_name_H-M	'P1'
_symmetry_Int_Tables_number	1
_symmetry_cell_setting	triclinic
loop_
_symmetry_equiv_pos_as_xyz
  x,y,z
_cell_length_a	16.959455
_cell_length_b	29.839131
_cell_length_c	29.839125
_cell_angle_alpha	89.982291
_cell_angle_beta	89.988873
_cell_angle_gamma	90.038367
loop_
_atom_site_label
_atom_site_type_symbol
_atom_site_fract_x
_atom_site_fract_y
_atom_site_fract_z
Zn1	Zn	1.208242	-0.178953	-0.253995
Zn2	Zn	1.541575	0.154380	0.079338
Zn3	Zn	1.874908	0.487714	0.412672
Zn4	Zn	1.208122	-0.254065	-0.178865
Zn5	Zn	1.541455	0.079268	0.154468
Zn6	Zn	1.874789	0.412602	0.487802
Zn7	Zn	1.076077	-0.178946	-0.178879
Zn8	Zn	1.409411	0.154388	0.154455
Zn9	Zn	1.742744	0.487721	0.487788
Zn10	Zn	1.075985	-0.254053	-0.253968
Zn11	Zn	1.409319	0.079281	0.079366
Zn12	Zn	1.742652	0.412614	0.412699
O13	O	1.142107	-0.216504	-0.216427
O14	O	1.475440	0.116829	0.116907
O15	O	1.808773	0.450163	0.450240
O16	O	1.318837	-0.188925	-0.244034
O17	O	1.652170	0.144408	0.089299
O18	O	1.985503	0.477742	0.422632
O19	O	1.190595	-0.244102	-0.116000
O20	O	1.523928	0.089231	0.217334
O21	O	1.857261	0.422564	0.550667
O22	O	1.093698	-0.116080	-0.188860
O23	O	1.427031	0.217254	0.144473
O24	O	1.760364	0.550587	0.477806
O25	O	1.318749	-0.244109	-0.188837
O26	O	1.652082	0.089224	0.144497
O27	O	1.985416	0.422557	0.477830
O28	O	1.190798	-0.116085	-0.244048
O29	O	1.524131	0.217248	0.089285
O30	O	1.857465	0.550582	0.422619
O31	O	1.093582	-0.188913	-0.116010
O32	O	1.426915	0.144421	0.217324
O33	O	1.760249	0.477754	0.550657
O34	O	0.965454	-0.188901	-0.188834
O35	O	1.298788	0.144433	0.144500
O36	O	1.632121	0.477766	0.477833
O37	O	1.093541	-0.244088	-0.316838
O38	O	1.426874	0.089245	0.016495
O39	O	1.760208	0.422578	0.349828
O40	O	0.965387	-0.244081	-0.244001
O41	O	1.298720	0.089252	0.089332
O42	O	1.632053	0.422585	0.422666
O43	O	1.190709	-0.188913	-0.316858
O44	O	1.524042	0.144420	0.016475
O45	O	1.857376	0.477754	0.349808
O46	O	1.190505	-0.316930	-0.188810
O47	O	1.523839	0.016403	0.144523
O48	O	1.857172	0.349736	0.477857
O49	O	1.093425	-0.316921	-0.243988
O50	O	1.426759	0.016412	0.089346
O51	O	1.760092	0.349745	0.422679
C52	C	0.936740	-0.216489	-0.216416
C53	C	1.270074	0.116844	0.116917
C54	C	1.603407	0.450177	0.450250
C55	C	0.848884	-0.216494	-0.216422
C56	C	1.182217	0.116840	0.116911
C57	C	1.515550	0.450173	0.450244
C58	C	1.141964	-0.333227	-0.216404
C59	C	1.475297	0.000107	0.116929
C60	C	1.808631	0.333440	0.450262
C61	C	1.141975	-0.383161	-0.216410
C62	C	1.475308	-0.049828	0.116924
C63	C	1.808642	0.283506	0.450257
C64	C	0.477419	-0.187748	-0.187761
C65	C	0.810752	0.145585	0.145572
C66	C	1.144086	0.478919	0.478906
C67	C	0.477397	-0.245297	-0.245118
C68	C	0.810731	0.088036	0.088215
C69	C	1.144064	0.421370	0.421549
C70	C	0.559943	-0.245291	-0.245115
C71	C	0.893277	0.088043	0.088218
C72	C	1.226610	0.421376	0.421552
C73	C	0.601231	-0.216513	-0.216434
C74	C	0.934564	0.116820	0.116899
C75	C	1.267897	0.450154	0.450232
C76	C	0.559972	-0.187742	-0.187756
C77	C	0.893306	0.145592	0.145577
C78	C	1.226639	0.478925	0.478910
C79	C	0.601208	-0.274065	-0.273789
C80	C	0.934541	0.059269	0.059544
C81	C	1.267874	0.392602	0.392877
C82	C	0.683759	-0.274060	-0.273788
C83	C	1.017092	0.059274	0.059546
C84	C	1.350425	0.392607	0.392879
C85	C	0.725048	-0.245279	-0.245109
C86	C	1.058381	0.088054	0.088225
C87	C	1.391714	0.421387	0.421558
C88	C	0.683784	-0.216507	-0.216430
C89	C	1.017118	0.116827	0.116904
C90	C	1.350451	0.450160	0.450237
C91	C	0.725072	-0.187729	-0.187749
C92	C	1.058405	0.145605	0.145584
C93	C	1.391739	0.478938	0.478918
C94	C	0.683810	-0.158953	-0.159072
C95	C	1.017143	0.174380	0.174261
C96	C	1.350477	0.507713	0.507595
C97	C	0.601261	-0.158961	-0.159077
C98	C	0.934595	0.174372	0.174256
C99	C	1.267928	0.507705	0.507589
C100	C	0.807596	-0.245272	-0.245103
C101	C	1.140930	0.088062	0.088230
C102	C	1.474263	0.421395	0.421563
C103	C	0.807625	-0.187722	-0.187744
C104	C	1.140959	0.145611	0.145589
C105	C	1.474292	0.478944	0.478922
C106	C	1.192748	-0.692797	-0.187738
C107	C	1.526082	-0.359463	0.145596
C108	C	1.859415	-0.026130	0.478929
C109	C	1.192846	-0.880470	-0.187755
C110	C	1.526179	-0.547136	0.145578
C111	C	1.859512	-0.213803	0.478912
O112	O	1.235902	-0.904728	-0.163360
O113	O	1.569235	-0.571394	0.169974
O114	O	1.902568	-0.238061	0.503307
N115	N	1.142270	-0.903946	-0.216460
N116	N	1.475604	-0.570613	0.116873
N117	N	1.808937	-0.237279	0.450206
C118	C	1.091671	-0.880502	-0.245166
C119	C	1.425004	-0.547168	0.088168
C120	C	1.758338	-0.213835	0.421501
O121	O	1.048661	-0.904776	-0.269585
O122	O	1.381995	-0.571443	0.063748
O123	O	1.715328	-0.238109	0.397082
C124	C	1.091578	-0.692829	-0.245150
C125	C	1.424911	-0.359496	0.088183
C126	C	1.758245	-0.026163	0.421517
C127	C	1.142151	-0.669355	-0.216440
C128	C	1.475484	-0.336022	0.116894
C129	C	1.808817	-0.002689	0.450227
C130	C	1.243318	-0.669322	-0.159030
C131	C	1.576651	-0.335989	0.174304
C132	C	1.909984	-0.002656	0.507637
C133	C	1.243290	-0.622407	-0.159024
C134	C	1.576623	-0.289074	0.174309
C135	C	1.909956	0.044260	0.507643
C136	C	1.192692	-0.598966	-0.187726
C137	C	1.526026	-0.265632	0.145607
C138	C	1.859359	0.067701	0.478941
C139	C	1.142123	-0.622440	-0.216434
C140	C	1.475456	-0.289106	0.116900
C141	C	1.808790	0.044227	0.450233
C142	C	1.040983	-0.669386	-0.273857
C143	C	1.374316	-0.336052	0.059476
C144	C	1.707650	-0.002719	0.392809
C145	C	1.040966	-0.622465	-0.273852
C146	C	1.374299	-0.289131	0.059482
C147	C	1.707632	0.044202	0.392815
C148	C	1.091538	-0.598990	-0.245141
C149	C	1.424872	-0.265657	0.088192
C150	C	1.758205	0.067676	0.421526
C151	C	1.091498	-0.552083	-0.245130
C152	C	1.424831	-0.218750	0.088203
C153	C	1.758164	0.114584	0.421537
N154	N	1.142073	-0.528606	-0.216425
N155	N	1.475406	-0.195273	0.116909
N156	N	1.808740	0.138060	0.450242
C157	C	1.192670	-0.552048	-0.187723
C158	C	1.526004	-0.218714	0.145611
C159	C	1.859337	0.114619	0.478944
C160	C	1.091722	-0.979032	-0.245171
C161	C	1.425056	-0.645699	0.088162
C162	C	1.758389	-0.312365	0.421496
C163	C	1.091744	-1.025950	-0.245174
C164	C	1.425078	-0.692617	0.088159
C165	C	1.758411	-0.359283	0.421492
C166	C	1.192920	-1.025915	-0.187764
C167	C	1.526254	-0.692581	0.145569
C168	C	1.859587	-0.359248	0.478902
C169	C	1.192894	-0.978996	-0.187759
C170	C	1.526227	-0.645663	0.145574
C171	C	1.859560	-0.312329	0.478908
C172	C	1.142297	-0.955556	-0.216466
C173	C	1.475631	-0.622222	0.116868
C174	C	1.808964	-0.288889	0.450201
C175	C	1.192607	-0.453522	-0.187712
C176	C	1.525941	-0.120189	0.145621
C177	C	1.859274	0.213145	0.478954
C178	C	1.192572	-0.406602	-0.187708
C179	C	1.525906	-0.073269	0.145626
C180	C	1.859239	0.260064	0.478959
C181	C	1.091400	-0.406642	-0.245119
C182	C	1.424733	-0.073308	0.088214
C183	C	1.758066	0.260025	0.421547
C184	C	1.091431	-0.453557	-0.245122
C185	C	1.424764	-0.120224	0.088211
C186	C	1.758098	0.213110	0.421544
C187	C	1.142041	-0.476996	-0.216417
C188	C	1.475375	-0.143663	0.116916
C189	C	1.808708	0.189671	0.450249
O190	O	1.048471	-0.527796	-0.269516
O191	O	1.381804	-0.194463	0.063817
O192	O	1.715137	0.138871	0.397151
O193	O	1.235686	-0.527765	-0.163314
O194	O	1.569019	-0.194432	0.170019
O195	O	1.902352	0.138901	0.503353
C196	C	1.192776	-0.739712	-0.187743
C197	C	1.526109	-0.406379	0.145590
C198	C	1.859443	-0.073045	0.478923
C199	C	1.142207	-0.763186	-0.216451
C200	C	1.475540	-0.429853	0.116882
C201	C	1.808873	-0.096519	0.450215
C202	C	1.091609	-0.739745	-0.245153
C203	C	1.424943	-0.406411	0.088180
C204	C	1.758276	-0.073078	0.421513
C205	C	1.142229	-0.810104	-0.216455
C206	C	1.475562	-0.476771	0.116879
C207	C	1.808895	-0.143437	0.450212
C208	C	1.192826	-0.833545	-0.187753
C209	C	1.526160	-0.500212	0.145581
C210	C	1.859493	-0.166879	0.478914
C211	C	1.243401	-0.810069	-0.159047
C212	C	1.576735	-0.476735	0.174286
C213	C	1.910068	-0.143402	0.507620
C214	C	1.243374	-0.763153	-0.159041
C215	C	1.576707	-0.429820	0.174292
C216	C	1.910040	-0.096487	0.507625
C217	C	1.041034	-0.763221	-0.273859
C218	C	1.374367	-0.429888	0.059475
C219	C	1.707701	-0.096555	0.392808
C220	C	1.041065	-0.810137	-0.273862
C221	C	1.374399	-0.476804	0.059472
C222	C	1.707732	-0.143470	0.392805
C223	C	1.091663	-0.833578	-0.245160
C224	C	1.424996	-0.500245	0.088174
C225	C	1.758330	-0.166911	0.421507
C226	C	1.348275	-0.216519	-0.216437
C227	C	1.681608	0.116814	0.116896
C228	C	2.014941	0.450147	0.450230
C229	C	1.436131	-0.216526	-0.216442
C230	C	1.769465	0.116808	0.116892
C231	C	2.102798	0.450141	0.450225
C232	C	1.142128	-0.216500	-0.333605
C233	C	1.475461	0.116833	-0.000272
C234	C	1.808795	0.450167	0.333062
C235	C	1.142137	-0.216498	-0.383539
C236	C	1.475470	0.116835	-0.050206
C237	C	1.808804	0.450168	0.283127
C238	C	1.142271	-0.099326	-0.216459
C239	C	1.475605	0.234008	0.116875
C240	C	1.808938	0.567341	0.450208
C241	C	1.142342	-0.049391	-0.216472
C242	C	1.475675	0.283942	0.116861
C243	C	1.809008	0.617275	0.450194
C244	C	1.192786	-0.187693	-0.693196
C245	C	1.526119	0.145640	-0.359863
C246	C	1.859452	0.478973	-0.026530
C247	C	1.192825	-0.187655	-0.880870
C248	C	1.526158	0.145678	-0.547536
C249	C	1.859492	0.479012	-0.214203
O250	O	1.235829	-0.163206	-0.905146
O251	O	1.569163	0.170127	-0.571812
O252	O	1.902496	0.503460	-0.238479
N253	N	1.142242	-0.216378	-0.904325
N254	N	1.475575	0.116955	-0.570991
N255	N	1.808909	0.450289	-0.237658
C256	C	1.091642	-0.245111	-0.880859
C257	C	1.424975	0.088223	-0.547525
C258	C	1.758309	0.421556	-0.214192
O259	O	1.048613	-0.269537	-0.905115
O260	O	1.381946	0.063796	-0.571782
O261	O	1.715280	0.397129	-0.238448
C262	C	1.091599	-0.245146	-0.693186
C263	C	1.424933	0.088187	-0.359853
C264	C	1.758266	0.421520	-0.026520
C265	C	1.142191	-0.216425	-0.669734
C266	C	1.475525	0.116909	-0.336400
C267	C	1.808858	0.450242	-0.003067
C268	C	1.243373	-0.158973	-0.669744
C269	C	1.576706	0.174360	-0.336410
C270	C	1.910040	0.507693	-0.003077
C271	C	1.243366	-0.158985	-0.622828
C272	C	1.576699	0.174348	-0.289495
C273	C	1.910032	0.507682	0.043839
C274	C	1.192771	-0.187716	-0.599365
C275	C	1.526104	0.145617	-0.266032
C276	C	1.859438	0.478950	0.067301
C277	C	1.142184	-0.216436	-0.622818
C278	C	1.475517	0.116897	-0.289485
C279	C	1.808851	0.450230	0.043848
C280	C	1.040996	-0.273876	-0.669721
C281	C	1.374329	0.059457	-0.336388
C282	C	1.707663	0.392790	-0.003055
C283	C	1.040988	-0.273882	-0.622800
C284	C	1.374322	0.059451	-0.289467
C285	C	1.707655	0.392785	0.043866
C286	C	1.091580	-0.245160	-0.599347
C287	C	1.424914	0.088173	-0.266014
C288	C	1.758247	0.421506	0.067319
C289	C	1.091582	-0.245179	-0.552440
C290	C	1.424916	0.088154	-0.219107
C291	C	1.758249	0.421488	0.114227
N292	N	1.142165	-0.216456	-0.528985
N293	N	1.475499	0.116877	-0.195652
N294	N	1.808832	0.450211	0.137682
C295	C	1.192760	-0.187725	-0.552448
C296	C	1.526093	0.145609	-0.219114
C297	C	1.859426	0.478942	0.114219
C298	C	1.091669	-0.245090	-0.979389
C299	C	1.425002	0.088243	-0.646056
C300	C	1.758336	0.421576	-0.312723
C301	C	1.091680	-0.245082	-1.026307
C302	C	1.425014	0.088251	-0.692974
C303	C	1.758347	0.421584	-0.359640
C304	C	1.192863	-0.187626	-1.026315
C305	C	1.526196	0.145708	-0.692981
C306	C	1.859529	0.479041	-0.359648
C307	C	1.192855	-0.187637	-0.979396
C308	C	1.526188	0.145697	-0.646063
C309	C	1.859521	0.479030	-0.312729
C310	C	1.142252	-0.216367	-0.955934
C311	C	1.475585	0.116966	-0.622601
C312	C	1.808919	0.450299	-0.289267
C313	C	1.192741	-0.187751	-0.453922
C314	C	1.526074	0.145582	-0.120588
C315	C	1.859408	0.478915	0.212745
C316	C	1.192732	-0.187767	-0.407002
C317	C	1.526065	0.145566	-0.073669
C318	C	1.859398	0.478900	0.259665
C319	C	1.091547	-0.245221	-0.406999
C320	C	1.424880	0.088112	-0.073665
C321	C	1.758213	0.421445	0.259668
C322	C	1.091559	-0.245208	-0.453914
C323	C	1.424892	0.088125	-0.120581
C324	C	1.758226	0.421459	0.212753
C325	C	1.142159	-0.216469	-0.477374
C326	C	1.475492	0.116864	-0.144041
C327	C	1.808825	0.450197	0.189292
O328	O	1.048594	-0.269611	-0.528135
O329	O	1.381927	0.063722	-0.194801
O330	O	1.715261	0.397055	0.138532
O331	O	1.235770	-0.163295	-0.528183
O332	O	1.569103	0.170039	-0.194850
O333	O	1.902436	0.503372	0.138484
C334	C	1.192793	-0.187682	-0.740112
C335	C	1.526126	0.145652	-0.406779
C336	C	1.859460	0.478985	-0.073445
C337	C	1.142206	-0.216401	-0.763565
C338	C	1.475539	0.116932	-0.430231
C339	C	1.808872	0.450265	-0.096898
C340	C	1.091611	-0.245133	-0.740102
C341	C	1.424945	0.088201	-0.406769
C342	C	1.758278	0.421534	-0.073435
C343	C	1.142217	-0.216393	-0.810482
C344	C	1.475551	0.116940	-0.477149
C345	C	1.808884	0.450274	-0.143816
C346	C	1.192812	-0.187662	-0.833945
C347	C	1.526145	0.145672	-0.500612
C348	C	1.859478	0.479005	-0.167279
C349	C	1.243395	-0.158939	-0.810490
C350	C	1.576728	0.174395	-0.477157
C351	C	1.910061	0.507728	-0.143823
C352	C	1.243387	-0.158950	-0.763575
C353	C	1.576721	0.174383	-0.430241
C354	C	1.910054	0.507716	-0.096908
C355	C	1.041028	-0.273856	-0.763557
C356	C	1.374362	0.059478	-0.430224
C357	C	1.707695	0.392811	-0.096890
C358	C	1.041040	-0.273842	-0.810473
C359	C	1.374374	0.059491	-0.477139
C360	C	1.707707	0.392824	-0.143806
C361	C	1.091635	-0.245111	-0.833935
C362	C	1.424968	0.088222	-0.500602
C363	C	1.758302	0.421556	-0.167269
C364	C	1.142131	-0.216476	-0.099704
C365	C	1.475464	0.116858	0.233629
C366	C	1.808797	0.450191	0.566963
C367	C	1.142275	-0.216351	-0.049770
C368	C	1.475608	0.116982	0.283563
C369	C	1.808942	0.450316	0.616897
H370	H	0.841236	-0.164285	-0.164391
H371	H	1.174569	0.169048	0.168942
H372	H	1.507903	0.502382	0.502275
Cl373	Cl	0.977419	-0.733760	-0.309945
Cl374	Cl	1.310752	-0.400426	0.023388
Cl375	Cl	1.644086	-0.067093	0.356722
H376	H	0.717437	-0.135524	-0.135718
H377	H	1.050770	0.197809	0.197615
H378	H	1.384104	0.531142	0.530949
H379	H	0.999772	-0.297274	-0.603700
H380	H	1.333105	0.036060	-0.270367
H381	H	1.666439	0.369393	0.062967
H382	H	0.999876	-0.829245	-0.297241
H383	H	1.333209	-0.495912	0.036092
H384	H	1.666543	-0.162579	0.369426
Cl385	Cl	0.977393	-0.309988	-0.699193
Cl386	Cl	1.310726	0.023346	-0.365860
Cl387	Cl	1.644059	0.356679	-0.032526
H388	H	0.717347	-0.297490	-0.297138
H389	H	1.050681	0.035843	0.036195
H390	H	1.384014	0.369176	0.369528
H391	H	1.284473	-0.603297	-0.135647
H392	H	1.617806	-0.269964	0.197687
H393	H	1.951139	0.063370	0.531020
H394	H	1.234075	-0.959886	-0.164381
H395	H	1.567408	-0.626553	0.168953
H396	H	1.900742	-0.293220	0.502286
H397	H	1.233932	-0.164378	-0.387909
H398	H	1.567266	0.168955	-0.054576
H399	H	1.900599	0.502289	0.278758
H400	H	0.567659	-0.135534	-0.135730
H401	H	0.900992	0.197799	0.197604
H402	H	1.234325	0.531132	0.530937
H403	H	0.443820	-0.164318	-0.164414
H404	H	0.777153	0.169015	0.168919
H405	H	1.110486	0.502348	0.502253
Cl406	Cl	1.256527	-1.055392	-0.151681
Cl407	Cl	1.589861	-0.722059	0.181652
Cl408	Cl	1.923194	-0.388726	0.514985
Cl409	Cl	1.027961	-0.281318	-0.483398
Cl410	Cl	1.361294	0.052015	-0.150065
Cl411	Cl	1.694628	0.385349	0.183268
Cl412	Cl	1.256350	-0.151621	-0.483407
Cl413	Cl	1.589683	0.181713	-0.150074
Cl414	Cl	1.923016	0.515046	0.183259
Cl415	Cl	0.549300	-0.310254	-0.309828
Cl416	Cl	0.882634	0.023079	0.023505
Cl417	Cl	1.215967	0.356413	0.356838
H418	H	0.999828	-0.297253	-0.744458
H419	H	1.333162	0.036080	-0.411125
H420	H	1.666495	0.369413	-0.077792
H421	H	1.050492	-0.268475	-1.045398
H422	H	1.383825	0.064858	-0.712065
H423	H	1.717159	0.398191	-0.378732
H424	H	1.284593	-0.135546	-0.829602
H425	H	1.617926	0.197787	-0.496268
H426	H	1.951260	0.531121	-0.162935
H427	H	1.284524	-0.688403	-0.135657
H428	H	1.617858	-0.355070	0.197676
H429	H	1.951191	-0.021737	0.531010
H430	H	1.050463	-0.268489	-0.960291
H431	H	1.383796	0.064844	-0.626958
H432	H	1.717129	0.398177	-0.293624
H433	H	0.841188	-0.268701	-0.268450
H434	H	1.174521	0.064632	0.064883
H435	H	1.507855	0.397965	0.398216
H436	H	1.050357	-0.268615	-0.387887
H437	H	1.383690	0.064718	-0.054553
H438	H	1.717023	0.398051	0.278780
H439	H	0.999844	-0.297235	-0.829564
H440	H	1.333177	0.036098	-0.496230
H441	H	1.666510	0.369431	-0.162897
Cl442	Cl	0.425492	-0.281482	-0.281162
Cl443	Cl	0.758826	0.051851	0.052171
Cl444	Cl	1.092159	0.385184	0.385505
Cl445	Cl	1.306965	-0.122872	-0.593352
Cl446	Cl	1.640298	0.210461	-0.260018
Cl447	Cl	1.973631	0.543794	0.073315
Cl448	Cl	1.256155	-0.377095	-0.151612
Cl449	Cl	1.589488	-0.043762	0.181721
Cl450	Cl	1.922822	0.289572	0.515055
Cl451	Cl	1.306996	-0.122855	-0.699231
Cl452	Cl	1.640330	0.210479	-0.365898
Cl453	Cl	1.973663	0.543812	-0.032564
H454	H	1.233821	-0.472600	-0.164339
H455	H	1.567154	-0.139267	0.168994
H456	H	1.900487	0.194066	0.502328
H457	H	1.050555	-1.045059	-0.268549
H458	H	1.383889	-0.711725	0.064784
H459	H	1.717222	-0.378392	0.398117
Cl460	Cl	1.028107	-0.949571	-0.281262
Cl461	Cl	1.361440	-0.616237	0.052071
Cl462	Cl	1.694773	-0.282904	0.385404
Cl463	Cl	0.977410	-0.698884	-0.309958
Cl464	Cl	1.310744	-0.365551	0.023375
Cl465	Cl	1.644077	-0.032218	0.356708
Cl466	Cl	0.977356	-0.593000	-0.309943
Cl467	Cl	1.310689	-0.259666	0.023390
Cl468	Cl	1.644022	0.073667	0.356724
Cl469	Cl	1.256456	-0.151527	-0.949918
Cl470	Cl	1.589790	0.181806	-0.616584
Cl471	Cl	1.923123	0.515140	-0.283251
Cl472	Cl	1.306991	-0.122840	-0.734098
Cl473	Cl	1.640324	0.210493	-0.400765
Cl474	Cl	1.973658	0.543827	-0.067431
H475	H	1.050253	-0.472671	-0.268502
H476	H	1.383586	-0.139337	0.064831
H477	H	1.716920	0.193996	0.398164
Cl478	Cl	1.027799	-0.377164	-0.281202
Cl479	Cl	1.361132	-0.043831	0.052131
Cl480	Cl	1.694466	0.289503	0.385464
Cl481	Cl	1.256465	-0.151506	-1.055819
Cl482	Cl	1.589799	0.181828	-0.722486
Cl483	Cl	1.923132	0.515161	-0.389153
H484	H	1.284555	-0.744044	-0.135663
H485	H	1.617888	-0.410711	0.197671
H486	H	1.951222	-0.077377	0.531004
H487	H	1.284597	-0.829163	-0.135676
H488	H	1.617931	-0.495829	0.197658
H489	H	1.951264	-0.162496	0.530991
