data_functionalizedCrystal
_audit_creation_method	'MofGen! by Chris Wilmer'
_symmetry_space_group_name_H-M	'P1'
_symmetry_Int_Tables_number	1
_symmetry_cell_setting	triclinic
loop_
_symmetry_equiv_pos_as_xyz
  x,y,z
_cell_length_a	16.992694
_cell_length_b	11.792241
_cell_length_c	15.455313
_cell_angle_alpha	92.683265
_cell_angle_beta	87.142206
_cell_angle_gamma	87.430819
loop_
_atom_site_label
_atom_site_type_symbol
_atom_site_fract_x
_atom_site_fract_y
_atom_site_fract_z
O1	O	1.044827	0.236106	-0.072022
O2	O	1.544827	0.736106	0.427978
O3	O	0.816531	0.233463	-0.072048
O4	O	1.316531	0.733463	0.427952
O5	O	0.936219	0.070068	-0.072029
O6	O	1.436219	0.570068	0.427971
O7	O	0.925139	0.399501	-0.072042
O8	O	1.425139	0.899501	0.427958
O9	O	0.929374	0.079370	0.072232
O10	O	1.429374	0.579370	0.572232
O11	O	0.809687	0.242766	0.072213
O12	O	1.309687	0.742766	0.572213
O13	O	1.037982	0.245409	0.072239
O14	O	1.537982	0.745409	0.572239
Cu15	Cu	0.923210	0.244937	0.085398
Cu16	Cu	1.423210	0.744937	0.585398
Cu17	Cu	0.931304	0.233935	-0.085207
Cu18	Cu	1.431304	0.733935	0.414793
O19	O	0.918295	0.408804	0.072219
O20	O	1.418295	0.908804	0.572219
C21	C	0.783882	0.234716	0.000079
C22	C	1.283882	0.734716	0.500079
C23	C	0.696795	0.224578	0.000070
C24	C	1.196795	0.724578	0.500070
C25	C	0.646971	0.322395	0.000066
C26	C	1.146971	0.822395	0.500066
C27	C	0.565143	0.312864	0.000079
C28	C	1.065143	0.812864	0.500079
C29	C	0.533142	0.205513	0.000088
C30	C	1.033142	0.705513	0.500088
C31	C	0.582973	0.107688	0.000094
C32	C	1.082973	0.607688	0.500094
C33	C	0.664799	0.117221	0.000088
C34	C	1.164799	0.617221	0.500088
C35	C	0.289375	0.166002	0.000113
C36	C	0.789375	0.666002	0.500113
C37	C	0.207543	0.156476	0.000117
C38	C	0.707543	0.656476	0.500117
C39	C	0.189719	0.361652	0.000103
C40	C	0.689719	0.861652	0.500103
C41	C	0.271548	0.371176	0.000091
C42	C	0.771548	0.871176	0.500091
C43	C	0.321371	0.273351	0.000102
C44	C	0.821371	0.773351	0.500102
N45	N	0.449501	0.195767	0.000098
N46	N	0.949501	0.695767	0.500098
N47	N	0.405010	0.283098	0.000098
N48	N	0.905010	0.783098	0.500098
C49	C	0.932101	0.032371	0.000102
C50	C	1.432101	0.532371	0.500102
C51	C	0.930017	-0.093813	0.000101
C52	C	1.430017	0.406187	0.500101
C53	C	0.926187	-0.324840	0.000086
C54	C	1.426187	0.175160	0.500086
C55	C	0.928315	-0.196280	0.000094
C56	C	1.428315	0.303720	0.500094
C57	C	1.070631	0.244155	0.000109
C58	C	1.570631	0.744155	0.500109
C59	C	1.157718	0.254293	0.000113
C60	C	1.657718	0.754293	0.500113
C61	C	0.922413	0.446501	0.000087
C62	C	1.422413	0.946501	0.500087
C63	C	0.924497	0.572684	0.000082
C64	C	1.424497	1.072684	0.500082
N65	N	0.917522	0.252674	0.205393
N66	N	1.417522	0.752674	0.705393
N67	N	0.936998	0.226189	-0.205202
N68	N	1.436998	0.726189	0.294798
C69	C	0.968388	0.183287	0.250795
C70	C	1.468388	0.683287	0.750795
C71	C	0.964094	0.189150	0.341602
C72	C	1.464094	0.689150	0.841602
C73	C	0.908938	0.264406	0.387005
C74	C	1.408938	0.764406	0.887005
C75	C	0.858067	0.333796	0.341597
C76	C	1.358067	0.833796	0.841597
C77	C	0.862358	0.327927	0.250791
C78	C	1.362358	0.827927	0.750791
C79	C	0.890417	0.289710	0.658584
C80	C	1.390417	0.789710	1.158584
C81	C	0.886132	0.295576	0.749396
C82	C	1.386132	0.795576	1.249396
C83	C	0.992158	0.150928	0.749395
C84	C	1.492158	0.650928	1.249395
C85	C	0.996447	0.145070	0.658588
C86	C	1.496447	0.645070	1.158588
C87	C	0.945574	0.214455	0.613187
C88	C	1.445574	0.714455	1.113187
N89	N	0.904549	0.270403	0.479825
N90	N	1.404549	0.770403	0.979825
N91	N	0.949959	0.208452	0.520369
N92	N	1.449959	0.708452	1.020369
H93	H	0.149144	0.441295	0.000096
H94	H	0.649144	0.941295	0.500096
H95	H	0.705366	0.037568	0.000090
H96	H	1.205366	0.537568	0.500090
N97	N	0.304227	0.480838	0.000108
N98	N	0.804227	0.980838	0.500108
N99	N	0.345017	0.512969	0.060917
N100	N	0.845017	1.012969	0.560917
H101	H	0.368096	0.590421	0.060929
H102	H	0.868096	1.090421	0.560929
N103	N	1.044104	0.080031	0.795772
N104	N	1.544104	0.580031	1.295772
N105	N	1.043059	-0.025670	0.785641
N106	N	1.543059	0.474330	1.285641
H107	H	1.079746	-0.075749	0.818395
H108	H	1.579746	0.424251	1.318395
N109	N	0.801713	0.410662	0.387961
N110	N	1.301713	0.910662	0.887961
N111	N	0.729687	0.401804	0.377828
N112	N	1.229687	0.901804	0.877828
H113	H	0.689885	0.456092	0.410571
H114	H	1.189885	0.956092	0.910571
H115	H	1.041360	0.083790	0.621622
H116	H	1.541360	0.583790	1.121622
N117	N	1.016044	0.118231	0.387956
N118	N	1.516044	0.618231	0.887956
N119	N	1.014992	0.012535	0.377795
N120	N	1.514992	0.512535	0.877795
H121	H	1.051683	-0.037568	0.410524
H122	H	1.551683	0.462432	0.910524
N123	N	0.174850	0.046816	0.000146
N124	N	0.674850	0.546816	0.500146
N125	N	0.128299	0.022543	0.060961
N126	N	0.628299	0.522543	0.560961
H127	H	0.105207	-0.054900	0.060981
H128	H	0.605207	0.445100	0.560981
H129	H	0.820937	0.384428	0.213825
H130	H	1.320937	0.884428	0.713825
H131	H	1.013305	0.122010	0.213834
H132	H	1.513305	0.622010	0.713834
H133	H	0.841215	0.356864	0.786359
H134	H	1.341215	0.856864	1.286359
N135	N	0.838464	0.360576	0.612198
N136	N	1.338464	0.860576	1.112198
N137	N	0.792018	0.316824	0.561538
N138	N	1.292018	0.816824	1.061538
H139	H	0.755325	0.366877	0.528771
H140	H	1.255325	0.866877	1.028771
N141	N	0.550288	-0.001970	0.000087
N142	N	1.050288	0.498030	0.500087
N143	N	0.568274	-0.073514	-0.060722
N144	N	1.068274	0.426486	0.439278
H145	H	0.545192	-0.150964	-0.060731
H146	H	1.045192	0.349036	0.439269
N147	N	0.679642	0.432063	0.000067
N148	N	1.179642	0.932063	0.500067
N149	N	0.661654	0.503604	0.060877
N150	N	1.161654	1.003604	0.560877
H151	H	0.684725	0.581061	0.060881
H152	H	1.184725	1.081061	0.560881
N153	N	0.514260	0.412794	0.000080
N154	N	1.014260	0.912794	0.500080
N155	N	0.542843	0.508636	0.000068
N156	N	1.042843	1.008636	0.500068
H157	H	0.506907	0.579218	0.000070
H158	H	1.006907	1.079218	0.500070
N159	N	0.340250	0.066068	0.000120
N160	N	0.840250	0.566068	0.500120
N161	N	0.311664	-0.029771	0.000123
N162	N	0.811664	0.470229	0.500123
H163	H	0.347597	-0.100356	0.000127
H164	H	0.847597	0.399644	0.500127
