data_functionalizedCrystal
_audit_creation_method	'MofGen! by Chris Wilmer'
_symmetry_space_group_name_H-M	'P1'
_symmetry_Int_Tables_number	1
_symmetry_cell_setting	triclinic
loop_
_symmetry_equiv_pos_as_xyz
  x,y,z
_cell_length_a	16.109302
_cell_length_b	15.995350
_cell_length_c	14.586319
_cell_angle_alpha	89.998440
_cell_angle_beta	89.994552
_cell_angle_gamma	83.477078
loop_
_atom_site_label
_atom_site_type_symbol
_atom_site_fract_x
_atom_site_fract_y
_atom_site_fract_z
O1	O	1.103159	0.107627	-0.076277
O2	O	1.603159	0.607627	0.423723
O3	O	0.861101	0.121020	-0.076269
O4	O	1.361101	0.621020	0.423731
O5	O	0.988747	-0.007566	-0.076272
O6	O	1.488747	0.492434	0.423728
O7	O	0.975513	0.236213	-0.076274
O8	O	1.475513	0.736213	0.423726
O9	O	0.988738	-0.007568	0.076208
O10	O	1.488738	0.492432	0.576208
O11	O	0.861092	0.121018	0.076212
O12	O	1.361092	0.621018	0.576212
O13	O	1.103151	0.107625	0.076204
O14	O	1.603151	0.607625	0.576204
Cu15	Cu	0.982121	0.114321	0.090130
Cu16	Cu	1.482121	0.614321	0.590130
Cu17	Cu	0.982131	0.114324	-0.090196
Cu18	Cu	1.482131	0.614324	0.409804
O19	O	0.975505	0.236211	0.076207
O20	O	1.475505	0.736211	0.576207
C21	C	0.830122	0.120476	-0.000028
C22	C	1.330122	0.620476	0.499972
C23	C	0.737826	0.118850	-0.000025
C24	C	1.237826	0.618850	0.499975
C25	C	0.525479	0.115087	0.083083
C26	C	1.025479	0.615087	0.583083
C27	C	0.438759	0.113549	0.083080
C28	C	0.938759	0.613549	0.583080
C29	C	0.438779	0.113556	-0.083163
C30	C	0.938779	0.613556	0.416837
C31	C	0.525499	0.115087	-0.083159
C32	C	1.025499	0.615087	0.416841
C33	C	0.568846	0.115857	-0.000033
C34	C	1.068846	0.615857	0.499967
C35	C	0.395406	0.112788	-0.000040
C36	C	0.895406	0.612788	0.499960
C37	C	0.301380	0.111121	-0.000044
C38	C	0.801380	0.611121	0.499956
C39	C	0.662878	0.117523	-0.000029
C40	C	1.162878	0.617523	0.499971
C41	C	0.988196	-0.038761	-0.000034
C42	C	1.488196	0.461239	0.499966
C43	C	0.986555	-0.131711	-0.000039
C44	C	1.486555	0.368289	0.499961
C45	C	0.980665	-0.469457	-0.000036
C46	C	1.480665	0.030543	0.499964
C47	C	0.889758	-0.421999	-0.000375
C48	C	1.389758	0.078001	0.499625
C49	C	0.891398	-0.325309	-0.000031
C50	C	1.391398	0.174691	0.499969
C51	C	0.983587	-0.301898	-0.000038
C52	C	1.483587	0.198102	0.499962
C53	C	1.028420	-0.342988	0.087033
C54	C	1.528420	0.157012	0.587033
C55	C	1.026137	-0.439623	0.087106
C56	C	1.526137	0.060377	0.587106
C57	C	1.028025	-0.439980	-0.086293
C58	C	1.528025	0.060020	0.413707
C59	C	1.028003	-0.343034	-0.087444
C60	C	1.528003	0.156966	0.412556
C61	C	0.985243	-0.207201	-0.000036
C62	C	1.485243	0.292799	0.499964
C63	C	0.979012	-0.564155	-0.000031
C64	C	1.479012	-0.064155	0.499969
C65	C	1.134130	0.108169	-0.000039
C66	C	1.634130	0.608169	0.499961
C67	C	1.226426	0.109796	-0.000048
C68	C	1.726426	0.609796	0.499952
C69	C	0.976056	0.267407	-0.000034
C70	C	1.476056	0.767407	0.499966
C71	C	0.977696	0.360357	-0.000034
C72	C	1.477696	0.860357	0.499966
N73	N	0.982119	0.114319	0.216962
N74	N	1.482119	0.614319	0.716962
N75	N	0.982139	0.114319	-0.217027
N76	N	1.482139	0.614319	0.282973
C77	C	1.038660	0.057401	0.451967
C78	C	1.538660	0.557401	0.951967
C79	C	1.038662	0.057399	0.547948
C80	C	1.538662	0.557399	1.047948
C81	C	0.925593	0.171241	0.547961
C82	C	1.425593	0.671241	1.047961
C83	C	0.925587	0.171238	0.451981
C84	C	1.425587	0.671238	0.951981
C85	C	0.982125	0.114319	0.403987
C86	C	1.482125	0.614319	0.903987
C87	C	0.982133	0.114320	0.595948
C88	C	1.482133	0.614320	1.095948
C89	C	0.982135	0.114318	0.700015
C90	C	1.482135	0.614318	1.200015
C91	C	0.982122	0.114319	0.299913
C92	C	1.482122	0.614319	0.799913
H93	H	0.856156	-0.296877	-0.062447
H94	H	1.356156	0.203123	0.437553
F95	F	0.842349	-0.447879	0.080565
F96	F	1.342349	0.052121	0.580565
F97	F	0.392608	0.112730	0.171544
F98	F	0.892608	0.612730	0.671544
H99	H	0.403475	0.112930	-0.150841
H100	H	0.903475	0.612930	0.349159
F101	F	0.571656	0.115902	-0.171627
F102	F	1.071656	0.615902	0.328373
F103	F	0.842268	-0.446205	-0.081989
F104	F	1.342268	0.053795	0.418011
H105	H	0.855912	-0.297435	0.062494
H106	H	1.355912	0.202565	0.562494
H107	H	0.879546	0.217588	0.412913
H108	H	1.379546	0.717588	0.912913
H109	H	1.096148	-0.328881	0.090267
H110	H	1.596148	0.171119	0.590267
F111	F	1.113371	-0.481800	0.092273
F112	F	1.613371	0.018200	0.592273
F113	F	0.571610	0.115903	0.171553
F114	F	1.071610	0.615903	0.671553
H115	H	0.995224	-0.315776	-0.151857
H116	H	1.495224	0.184224	0.348143
F117	F	0.983392	-0.463536	0.172183
F118	F	1.483392	0.036464	0.672183
H119	H	0.997274	-0.314599	0.151833
H120	H	1.497274	0.185401	0.651833
F121	F	0.989175	-0.466806	-0.172554
F122	F	1.489175	0.033194	0.327446
F123	F	1.115874	-0.322975	-0.094328
F124	F	1.615874	0.177025	0.405672
F125	F	1.098831	-0.003180	0.400892
F126	F	1.598831	0.496820	0.900892
F127	F	1.115631	-0.481518	-0.087066
F128	F	1.615631	0.018482	0.412934
H129	H	1.084696	0.011050	0.587011
H130	H	1.584696	0.511050	1.087011
H131	H	0.879562	0.217584	0.587047
H132	H	1.379562	0.717584	1.087047
