data_functionalizedCrystal
_audit_creation_method	'MofGen! by Chris Wilmer'
_symmetry_space_group_name_H-M	'P1'
_symmetry_Int_Tables_number	1
_symmetry_cell_setting	triclinic
loop_
_symmetry_equiv_pos_as_xyz
  x,y,z
_cell_length_a	12.811457
_cell_length_b	10.654541
_cell_length_c	11.295501
_cell_angle_alpha	94.562672
_cell_angle_beta	89.163056
_cell_angle_gamma	84.262747
loop_
_atom_site_label
_atom_site_type_symbol
_atom_site_fract_x
_atom_site_fract_y
_atom_site_fract_z
O1	O	1.390602	0.165228	-0.051151
O2	O	1.087260	0.186131	-0.018389
O3	O	1.245906	-0.007155	-0.035531
O4	O	1.231956	0.358514	-0.034009
O5	O	1.233256	-0.022213	-0.232216
O6	O	1.074610	0.171073	-0.215075
O7	O	1.377952	0.150170	-0.247836
Cu8	Cu	1.225126	0.159247	-0.249414
Cu9	Cu	1.240086	0.177055	-0.016811
O10	O	1.219306	0.343456	-0.230695
C11	C	1.042093	0.177893	-0.112537
C12	C	0.926357	0.175764	-0.100038
C13	C	0.695086	0.155322	-0.291000
C14	C	0.586341	0.153321	-0.279262
C15	C	0.600123	0.169752	-0.064824
C16	C	0.708867	0.171753	-0.076562
C17	C	0.756344	0.164540	-0.189654
C18	C	0.865090	0.166550	-0.201391
C19	C	0.878871	0.182972	0.013046
C20	C	0.770126	0.180971	0.024784
C21	C	1.238558	-0.061468	-0.133762
C22	C	1.235494	-0.200870	-0.133429
C23	C	1.425199	-0.231404	-0.153932
C24	C	1.518607	-0.312161	-0.164031
C25	C	1.515723	-0.443140	-0.163715
C26	C	1.419420	-0.493363	-0.153297
C27	C	1.326011	-0.412606	-0.143199
C28	C	1.328906	-0.281626	-0.143519
C29	C	1.136310	-0.382071	-0.122688
C30	C	1.139191	-0.251093	-0.123011
C31	C	1.040007	-0.432295	-0.112269
C32	C	0.946595	-0.351538	-0.102180
C33	C	0.949484	-0.220552	-0.102497
C34	C	1.045783	-0.170336	-0.112913
C35	C	1.423119	0.158408	-0.153685
C36	C	1.538855	0.160538	-0.166177
C37	C	1.226655	0.397769	-0.132461
C38	C	1.229718	0.537172	-0.132786
N39	N	1.214612	0.146721	-0.413015
C40	C	1.326287	0.279801	-0.674361
C41	C	1.318349	0.270324	-0.798168
C42	C	1.190804	0.118285	-0.784438
C43	C	1.198742	0.127762	-0.660631
C44	C	1.266485	0.208523	-0.605598
C45	C	1.274416	0.218006	-0.481788
C46	C	1.146877	0.065961	-0.468061
C47	C	1.138939	0.056485	-0.591868
N48	N	1.250609	0.189571	0.146789
H49	H	0.536467	0.145822	-0.361788
H50	H	0.733740	0.149465	-0.383084
F51	F	0.549586	0.177332	0.055526
F52	F	0.944073	0.192800	0.120913
F53	F	0.850064	-0.134613	-0.091740
F54	F	1.398382	0.365752	-0.615787
F55	F	0.719589	0.188613	0.145137
F56	F	1.428275	-0.092008	-0.154292
F57	F	0.915617	0.158877	-0.321752
H58	H	1.417081	-0.600013	-0.153027
H59	H	1.367048	0.328365	-0.854152
H60	H	1.083788	-0.009273	-0.636694
F61	F	1.621096	-0.258701	-0.175112
H62	H	1.135662	0.052519	-0.829270
F63	F	1.615138	-0.529089	-0.174453
F64	F	1.083222	-0.009896	-0.394868
F65	F	1.036943	-0.571690	-0.111873
H66	H	0.868194	-0.392441	-0.093690
F67	F	1.048864	-0.030939	-0.113259
H68	H	1.329571	0.283771	-0.436981
