data_functionalizedCrystal
_audit_creation_method	'MofGen! by Chris Wilmer'
_symmetry_space_group_name_H-M	'P1'
_symmetry_Int_Tables_number	1
_symmetry_cell_setting	triclinic
loop_
_symmetry_equiv_pos_as_xyz
  x,y,z
_cell_length_a	17.019383
_cell_length_b	17.038272
_cell_length_c	15.186229
_cell_angle_alpha	89.995962
_cell_angle_beta	86.120670
_cell_angle_gamma	87.246883
loop_
_atom_site_label
_atom_site_type_symbol
_atom_site_fract_x
_atom_site_fract_y
_atom_site_fract_z
O1	O	1.053352	0.099657	-0.153028
O2	O	1.553352	0.599657	0.346972
O3	O	0.824541	0.112345	-0.135696
O4	O	1.324541	0.612345	0.364304
O5	O	0.937586	-0.007813	-0.144252
O6	O	1.437586	0.492187	0.355748
O7	O	0.940306	0.219815	-0.144472
O8	O	1.440306	0.719815	0.355528
O9	O	0.937578	-0.007815	0.002206
O10	O	1.437578	0.492185	0.502206
O11	O	0.824533	0.112344	0.010762
O12	O	1.324533	0.612344	0.510762
O13	O	1.053343	0.099655	-0.006570
O14	O	1.553343	0.599655	0.493430
Zn15	Zn	0.938937	0.105999	0.025349
Zn16	Zn	1.438937	0.605999	0.525349
Zn17	Zn	0.938948	0.106001	-0.167615
Zn18	Zn	1.438948	0.606001	0.332385
O19	O	0.940298	0.219814	0.001986
O20	O	1.440298	0.719814	0.501986
C21	C	0.795116	0.111861	-0.060238
C22	C	1.295116	0.611861	0.439762
C23	C	0.707450	0.110412	-0.053597
C24	C	1.207450	0.610412	0.446403
C25	C	0.666261	0.109734	-0.130305
C26	C	1.166261	0.609734	0.369695
C27	C	0.583889	0.108385	-0.124053
C28	C	1.083889	0.608385	0.375947
C29	C	0.542706	0.107708	-0.041091
C30	C	1.042706	0.607708	0.458909
C31	C	0.583901	0.108389	0.035622
C32	C	1.083901	0.608389	0.535622
C33	C	0.666271	0.109744	0.029369
C34	C	1.166271	0.609744	0.529369
C35	C	0.294000	0.103623	-0.018216
C36	C	0.794000	0.603623	0.481784
C37	C	0.211623	0.102266	-0.011968
C38	C	0.711623	0.602266	0.488032
C39	C	0.211617	0.102264	-0.171644
C40	C	0.711617	0.602264	0.328356
C41	C	0.293990	0.103614	-0.177890
C42	C	0.793990	0.603614	0.322110
C43	C	0.335176	0.104299	-0.101176
C44	C	0.835176	0.604299	0.398824
C45	C	0.458508	0.106327	-0.034698
C46	C	0.958508	0.606327	0.465302
C47	C	0.419372	0.105686	-0.107570
C48	C	0.919372	0.605686	0.392430
C49	C	0.935109	-0.036940	-0.070836
C50	C	1.435109	0.463060	0.429164
C51	C	0.927728	-0.123727	-0.070277
C52	C	1.427728	0.376273	0.429723
C53	C	0.995488	-0.173896	-0.075408
C54	C	1.495488	0.326104	0.424592
C55	C	0.988549	-0.255441	-0.074891
C56	C	1.488549	0.244559	0.425109
C57	C	0.913849	-0.286816	-0.069236
C58	C	1.413849	0.213184	0.430764
C59	C	0.846085	-0.236640	-0.064106
C60	C	1.346085	0.263360	0.435894
C61	C	0.853025	-0.155097	-0.064630
C62	C	1.353025	0.344903	0.435370
C63	C	0.889332	-0.532554	-0.067391
C64	C	1.389332	-0.032554	0.432609
C65	C	0.882397	-0.614104	-0.066865
C66	C	1.382397	-0.114104	0.433135
C67	C	1.024861	-0.632898	-0.077651
C68	C	1.524861	-0.132898	0.422349
C69	C	1.031795	-0.551353	-0.078169
C70	C	1.531795	-0.051353	0.421831
C71	C	0.964030	-0.501185	-0.073044
C72	C	1.464030	-0.001185	0.426956
C73	C	0.906754	-0.370167	-0.068704
C74	C	1.406754	0.129833	0.431296
C75	C	0.971126	-0.417834	-0.073582
C76	C	1.471126	0.082166	0.426418
C77	C	1.082769	0.100139	-0.082029
C78	C	1.582769	0.600139	0.417971
C79	C	1.170435	0.101588	-0.088676
C80	C	1.670435	0.601588	0.411324
C81	C	0.942776	0.248941	-0.071432
C82	C	1.442776	0.748941	0.428568
C83	C	0.950156	0.335728	-0.071997
C84	C	1.450156	0.835728	0.428003
N85	N	0.938935	0.105997	0.157042
N86	N	1.438935	0.605997	0.657042
N87	N	0.938955	0.105997	-0.299308
N88	N	1.438955	0.605997	0.200692
C89	C	0.989011	0.052809	0.378975
C90	C	1.489011	0.552809	0.878975
C91	C	0.989014	0.052807	0.471165
C92	C	1.489014	0.552807	0.971165
C93	C	0.888874	0.159188	0.478753
C94	C	1.388874	0.659188	0.978753
C95	C	0.888868	0.159186	0.386565
C96	C	1.388868	0.659186	0.886565
C97	C	0.938941	0.105997	0.336678
C98	C	1.438941	0.605997	0.836678
C99	C	0.938949	0.105997	0.521055
C100	C	1.438949	0.605997	1.021055
C101	C	0.938951	0.105996	0.621011
C102	C	1.438951	0.605996	1.121011
C103	C	0.938938	0.105997	0.236716
C104	C	1.438938	0.605997	0.736716
H105	H	0.699786	0.110283	-0.197861
H106	H	1.199786	0.610283	0.302139
F107	F	0.540056	0.107665	-0.205696
F108	F	1.040056	0.607665	0.294304
H109	H	0.178094	0.101737	0.055592
H110	H	0.678094	0.601737	0.555592
F111	F	0.463203	0.106409	-0.195861
F112	F	0.963203	0.606409	0.304139
H113	H	1.092623	-0.525814	-0.082774
H114	H	1.592623	-0.025814	0.417226
H115	H	1.029784	0.009496	0.505600
H116	H	1.529784	0.509496	1.005600
H117	H	1.043726	-0.296286	-0.079068
H118	H	1.543726	0.203714	0.420932
F119	F	0.817210	-0.479172	-0.061939
F120	F	1.317210	0.020828	0.438061
H121	H	0.785263	-0.262192	-0.059507
H122	H	1.285263	0.237808	0.440493
H123	H	0.327524	0.104176	0.044250
H124	H	0.827524	0.604176	0.544250
H125	H	0.327515	0.104159	-0.245446
H126	H	0.827515	0.604159	0.254554
F127	F	0.167778	0.101528	-0.253282
F128	F	0.667778	0.601528	0.246718
F129	F	0.835587	0.215795	0.531852
F130	F	1.335587	0.715795	1.031852
F131	F	1.042302	-0.003801	0.325885
F132	F	1.542302	0.496199	0.825885
H133	H	0.550363	0.107843	0.103171
H134	H	1.050363	0.607843	0.603171
F135	F	0.835571	0.215795	0.341547
F136	F	1.335571	0.715795	0.841547
F137	F	1.050624	-0.384441	-0.079606
F138	F	1.550624	0.115559	0.420394
F139	F	0.710107	0.110468	0.111012
F140	F	1.210107	0.610468	0.611012
F141	F	1.096976	-0.686296	-0.083106
F142	F	1.596976	-0.186296	0.416894
F143	F	0.827256	-0.403566	-0.062689
F144	F	1.327256	0.096434	0.437311
H145	H	0.424969	0.105774	0.032849
H146	H	0.924969	0.605774	0.532849
F147	F	1.074994	-0.140513	-0.081419
F148	F	1.574994	0.359487	0.418581
F149	F	0.802888	-0.647492	-0.060841
F150	F	1.302888	-0.147492	0.439159
F151	F	0.780906	-0.101704	-0.059171
F152	F	1.280906	0.398296	0.440829
