data_functionalizedCrystal
_audit_creation_method	'MofGen! by Chris Wilmer'
_symmetry_space_group_name_H-M	'P1'
_symmetry_Int_Tables_number	1
_symmetry_cell_setting	triclinic
loop_
_symmetry_equiv_pos_as_xyz
  x,y,z
_cell_length_a	10.654550
_cell_length_b	10.540539
_cell_length_c	9.730223
_cell_angle_alpha	90.000775
_cell_angle_beta	89.996251
_cell_angle_gamma	84.505197
loop_
_atom_site_label
_atom_site_type_symbol
_atom_site_fract_x
_atom_site_fract_y
_atom_site_fract_z
O1	O	1.667897	0.178295	-0.114396
O2	O	1.302424	0.195282	-0.114373
O3	O	1.493499	0.002079	-0.114383
O4	O	1.476822	0.371498	-0.114386
O5	O	1.493496	0.002084	0.114197
O6	O	1.302422	0.195287	0.114207
O7	O	1.667895	0.178300	0.114184
Zn8	Zn	1.485158	0.186794	0.150487
Zn9	Zn	1.485161	0.186788	-0.150677
O10	O	1.476820	0.371503	0.114194
C11	C	1.255625	0.194038	-0.000080
C12	C	1.116180	0.190306	-0.000072
C13	C	1.036734	0.304061	-0.000093
C14	C	0.905712	0.300547	-0.000116
C15	C	0.933595	0.069513	-0.000104
C16	C	1.064614	0.073028	-0.000071
C17	C	1.020636	0.437446	-0.000106
C18	C	0.889614	0.433932	-0.000129
C19	C	1.492247	-0.045221	-0.000096
C20	C	1.488505	-0.186168	-0.000103
C21	C	1.345134	-0.369543	-0.000607
C22	C	1.348927	-0.222926	-0.000093
C23	C	1.555675	-0.247847	0.130423
C24	C	1.550912	-0.394389	0.130533
C25	C	1.553753	-0.394914	-0.129405
C26	C	1.555039	-0.247933	-0.131131
C27	C	1.714694	0.179545	-0.000112
C28	C	1.854139	0.183276	-0.000129
C29	C	1.478072	0.418803	-0.000096
C30	C	1.481813	0.559750	-0.000098
N31	N	1.485165	0.186798	0.356024
N32	N	1.485164	0.186774	-0.356213
C33	C	1.569795	0.101277	0.427945
C34	C	1.569791	0.101261	0.571828
C35	C	1.400525	0.272299	0.571855
C36	C	1.400523	0.272308	0.427975
C37	C	1.667523	0.002533	0.427931
C38	C	1.667520	0.002518	0.571814
H39	H	0.847900	0.484188	-0.095797
H40	H	1.296074	-0.180306	-0.093659
Cl41	Cl	1.065958	0.517995	0.147585
Cl42	Cl	1.483996	-0.443587	-0.282148
Cl43	Cl	1.808311	0.050284	0.359011
H44	H	1.129295	-0.019602	-0.000034
H45	H	1.331600	0.341935	0.369418
Cl46	Cl	1.816535	0.036087	0.632106
Cl47	Cl	1.479793	-0.184078	-0.280237
H48	H	1.331611	0.341918	0.630454
H49	H	1.290221	-0.399729	0.092477
Cl50	Cl	0.868759	-0.077914	-0.000103
Cl51	Cl	1.620350	-0.139831	0.640713
Cl52	Cl	1.266747	-0.158415	0.144615
H53	H	1.651295	-0.442394	0.136449
H54	H	1.056307	0.479916	-0.098793
H55	H	1.654570	-0.442176	-0.130289
Cl56	Cl	0.819110	0.496174	0.152223
Cl57	Cl	1.260000	-0.413668	-0.145123
Cl58	Cl	1.474259	-0.437902	0.281180
Cl59	Cl	1.713932	-0.213394	0.137915
H60	H	1.509014	-0.205228	0.227563
Cl61	Cl	1.712154	-0.210590	-0.143321
Cl62	Cl	1.634363	-0.148107	0.367627
