data_functionalizedCrystal
_audit_creation_method	'MofGen! by Chris Wilmer'
_symmetry_space_group_name_H-M	'P1'
_symmetry_Int_Tables_number	1
_symmetry_cell_setting	triclinic
loop_
_symmetry_equiv_pos_as_xyz
  x,y,z
_cell_length_a	25.639239
_cell_length_b	16.625548
_cell_length_c	16.625539
_cell_angle_alpha	89.979432
_cell_angle_beta	90.031255
_cell_angle_gamma	89.960246
loop_
_atom_site_label
_atom_site_type_symbol
_atom_site_fract_x
_atom_site_fract_y
_atom_site_fract_z
Zn1	Zn	-0.208135	-1.232590	0.455893
Zn2	Zn	-0.295573	-1.232455	0.321053
Zn3	Zn	-0.208155	-1.097751	0.321073
Zn4	Zn	-0.295543	-1.097684	0.455843
O5	O	-0.251851	-1.165120	0.388466
O6	O	-0.219738	-1.345404	0.438018
O7	O	-0.283998	-1.214558	0.208223
O8	O	-0.134987	-1.115723	0.338987
O9	O	-0.283978	-1.345305	0.338952
O10	O	-0.134972	-1.214788	0.438038
O11	O	-0.219772	-1.115592	0.208238
O12	O	-0.219743	-0.984910	0.338938
O13	O	-0.283927	-1.115607	0.568682
O14	O	-0.283946	-0.984860	0.437953
O15	O	-0.219709	-1.214722	0.568719
O16	O	-0.368734	-1.214492	0.338904
O17	O	-0.368712	-1.115477	0.437933
C18	C	-0.251844	-0.955629	0.388443
C19	C	-0.251853	-0.866008	0.388452
C20	C	-0.387694	-1.164984	0.388429
C21	C	-0.445808	-1.165000	0.388440
C22	C	-0.251812	-1.165172	0.598775
C23	C	-0.251796	-1.165195	0.688396
C24	C	-0.806170	-1.216812	0.336989
C25	C	-0.860774	-1.216843	0.337000
O26	O	-0.889010	-1.260755	0.293213
N27	N	-0.888090	-1.165262	0.388519
C28	C	-0.860799	-1.113651	0.440037
O29	O	-0.889048	-1.069780	0.483860
C30	C	-0.806196	-1.113625	0.440029
C31	C	-0.778883	-1.165204	0.388501
C32	C	-0.778857	-1.268387	0.285465
C33	C	-0.724256	-1.268355	0.285453
C34	C	-0.696969	-1.216747	0.336965
C35	C	-0.724282	-1.165171	0.388489
C36	C	-0.778906	-1.062019	0.491551
C37	C	-0.724299	-1.061997	0.491539
C38	C	-0.696986	-1.113576	0.440011
C39	C	-0.642395	-1.113531	0.439990
N40	N	-0.615078	-1.165112	0.388470
C41	C	-0.642366	-1.216720	0.336958
C42	C	-0.975470	-1.113712	0.440049
C43	C	-1.030072	-1.113734	0.440053
C44	C	-1.030043	-1.216927	0.337017
C45	C	-0.975440	-1.216900	0.337009
C46	C	-0.948154	-1.165293	0.388530
C47	C	-0.527700	-1.216648	0.336937
C48	C	-0.473095	-1.216608	0.336928
C49	C	-0.473129	-1.113418	0.439967
C50	C	-0.527729	-1.113454	0.439973
C51	C	-0.555014	-1.165076	0.388456
O52	O	-0.614124	-1.069644	0.483756
O53	O	-0.614110	-1.260591	0.293150
C54	C	-0.115478	-1.165278	0.388520
C55	C	-0.057364	-1.165345	0.388544
C56	C	-0.251859	-1.375429	0.388489
C57	C	-0.251863	-1.465050	0.388498
C58	C	-0.251857	-0.537832	0.388487
C59	C	-0.251854	-0.629141	0.388475
C60	C	-0.251855	-0.701917	0.388469
C61	C	-0.251852	-0.793231	0.388458
C62	C	-0.251852	-1.165114	0.178975
C63	C	-0.251722	-1.165248	0.089354
C64	C	-0.251737	-1.165232	1.016572
C65	C	-0.251755	-1.165219	0.925263
C66	C	-0.251767	-1.165214	0.852487
C67	C	-0.251784	-1.165200	0.761172
H68	H	-0.450858	-1.258610	0.294964
H69	H	-0.702021	-1.310357	0.243497
C70	C	-1.091333	-1.325488	0.326021
C71	C	-1.060021	-1.273727	0.280433
H72	H	-1.109832	-1.360572	0.291099
H73	H	-1.115428	-1.294770	0.356668
H74	H	-1.069974	-1.356234	0.361203
H75	H	-1.081381	-1.242977	0.245254
H76	H	-1.035924	-1.304448	0.249771
H77	H	-0.549969	-1.071457	0.481935
H78	H	-1.052306	-1.071725	0.482005
H79	H	-0.801135	-1.020014	0.533507
C80	C	-0.589013	-1.325182	0.325846
C81	C	-0.557680	-1.273402	0.280314
H82	H	-0.607516	-1.360223	0.290888
H83	H	-0.613103	-1.294475	0.356514
H84	H	-0.567666	-1.355973	0.361008
H85	H	-0.579027	-1.242606	0.245156
H86	H	-0.533588	-1.304112	0.249633
H87	H	-0.801068	-1.310417	0.243517
C88	C	-0.913971	-1.325340	0.325891
C89	C	-0.945419	-1.273601	0.280373
H90	H	-0.895437	-1.360343	0.290923
H91	H	-0.935239	-1.356169	0.361046
H92	H	-0.889903	-1.294597	0.356564
H93	H	-0.969490	-1.304344	0.249704
H94	H	-0.924149	-1.242770	0.245204
H95	H	-0.450903	-1.071397	0.481905
C96	C	-0.980992	-1.011704	0.541890
C97	C	-0.945480	-1.056970	0.496676
H98	H	-0.962478	-0.976672	0.576845
H99	H	-1.002251	-1.046830	0.572765
H100	H	-1.002326	-0.980900	0.506720
H101	H	-0.924148	-1.087779	0.531845
H102	H	-0.924212	-1.021840	0.465798
C103	C	-0.729817	-0.960007	0.593399
C104	C	-0.694307	-1.005268	0.548175
H105	H	-0.711301	-0.924983	0.628358
H106	H	-0.751076	-0.995137	0.624270
H107	H	-0.751151	-0.929196	0.558237
H108	H	-0.672976	-1.036084	0.583337
H109	H	-0.673039	-0.970134	0.517301
