data_functionalizedCrystal
_audit_creation_method	'MofGen! by Chris Wilmer'
_symmetry_space_group_name_H-M	'P1'
_symmetry_Int_Tables_number	1
_symmetry_cell_setting	triclinic
loop_
_symmetry_equiv_pos_as_xyz
  x,y,z
_cell_length_a	6.817900
_cell_length_b	17.253917
_cell_length_c	11.102182
_cell_angle_alpha	97.515406
_cell_angle_beta	108.603774
_cell_angle_gamma	102.659311
loop_
_atom_site_label
_atom_site_type_symbol
_atom_site_fract_x
_atom_site_fract_y
_atom_site_fract_z
V1	V	-4.088146	-0.111303	-0.408321
O2	O	-4.071668	0.005340	-0.388136
O3	O	-4.041959	-0.220686	-0.417466
O4	O	-4.065278	-0.109594	-0.580958
O5	O	-4.048186	-0.106521	-0.223513
V6	V	-4.568179	-0.097350	-0.384766
O7	O	-4.357060	-0.141908	-0.459991
O8	O	-4.749462	-0.066745	-0.333097
O9	O	-4.391160	0.012033	-0.375621
O10	O	-4.702054	-0.213993	-0.404952
O11	O	-4.725536	-0.102132	-0.569575
O12	O	-4.367840	-0.099059	-0.212130
C13	C	-3.886671	-0.247352	-0.414105
C14	C	-3.930365	-0.336774	-0.422733
C15	C	-3.893138	-0.367295	-0.309156
C16	C	-3.934213	-0.451318	-0.317268
C17	C	-4.012500	-0.504818	-0.438957
C18	C	-4.049735	-0.474292	-0.552543
C19	C	-4.008674	-0.390271	-0.544431
C20	C	-4.141509	-0.757338	-0.475833
C21	C	-4.182562	-0.841363	-0.483936
C22	C	-4.067040	-0.818383	-0.248661
C23	C	-4.025972	-0.734361	-0.240559
C24	C	-4.063221	-0.703843	-0.354145
N25	N	-4.054480	-0.590703	-0.447251
N26	N	-4.021255	-0.617960	-0.345850
C27	C	-3.916417	-0.105642	-0.622653
C28	C	-3.979018	-0.104969	-0.763863
C29	C	-4.053134	-0.178313	-0.856348
C30	C	-4.111972	-0.177670	-0.989026
C31	C	-4.022563	-0.030334	-0.936721
C32	C	-3.963740	-0.030977	-0.804046
C33	C	-4.068412	-0.252304	-0.816165
C34	C	-4.142529	-0.325654	-0.908652
C35	C	-4.201367	-0.325011	-1.041330
C36	C	-4.186089	-0.251019	-1.081522
C37	C	-4.209789	0.038694	-0.378979
C38	C	-4.145335	0.128116	-0.370359
C39	C	-4.180042	-0.103014	-0.170428
C40	C	-4.096679	-0.103683	-0.029217
H41	H	-3.962238	-0.690806	-0.141467
Cl42	Cl	-3.870651	0.061226	-0.687775
H43	H	-4.113495	-0.517859	-0.651625
H44	H	-4.020501	-0.252835	-0.708134
H45	H	-4.036722	-0.843241	-0.156186
H46	H	-3.829374	-0.323739	-0.210063
H47	H	-4.154978	-0.385896	-0.875919
Cl48	Cl	-3.887430	-0.489683	-0.174479
Cl49	Cl	-4.260088	-0.250215	-1.248322
Cl50	Cl	-4.281142	-0.908625	-0.636935
H51	H	-4.261733	-0.384737	-1.116632
Cl52	Cl	-4.055490	-0.351903	-0.687220
Cl53	Cl	-4.188319	-0.718982	-0.618628
H54	H	-4.010127	0.029907	-0.969457
