data_functionalizedCrystal
_audit_creation_method	'MofGen! by Chris Wilmer'
_symmetry_space_group_name_H-M	'P1'
_symmetry_Int_Tables_number	1
_symmetry_cell_setting	triclinic
loop_
_symmetry_equiv_pos_as_xyz
  x,y,z
_cell_length_a	14.044220
_cell_length_b	14.519709
_cell_length_c	12.503572
_cell_angle_alpha	93.528838
_cell_angle_beta	86.164750
_cell_angle_gamma	88.434511
loop_
_atom_site_label
_atom_site_type_symbol
_atom_site_fract_x
_atom_site_fract_y
_atom_site_fract_z
O1	O	-1.263535	-0.217488	0.089210
O2	O	-0.930201	0.115845	0.422544
O3	O	-0.596868	0.449179	0.755877
O4	O	-0.987553	-0.209462	0.089237
O5	O	-0.654220	0.123871	0.422571
O6	O	-0.320887	0.457204	0.755904
O7	O	-1.132861	-0.079828	0.089213
O8	O	-0.799527	0.253506	0.422547
O9	O	-0.466194	0.586839	0.755880
O10	O	-1.118227	-0.347123	0.089234
O11	O	-0.784894	-0.013790	0.422568
O12	O	-0.451561	0.319544	0.755901
O13	O	-1.121933	-0.089595	-0.089427
O14	O	-0.788599	0.243739	0.243907
O15	O	-0.455266	0.577072	0.577240
O16	O	-0.976625	-0.219229	-0.089403
O17	O	-0.643292	0.114104	0.243931
O18	O	-0.309959	0.447437	0.577264
O19	O	-1.252607	-0.227255	-0.089430
O20	O	-0.919273	0.106078	0.243904
O21	O	-0.585940	0.439412	0.577237
Cu22	Cu	-1.113618	-0.224134	-0.105728
Cu23	Cu	-0.780285	0.109199	0.227606
Cu24	Cu	-0.446952	0.442533	0.560939
Cu25	Cu	-1.126542	-0.212583	0.105535
Cu26	Cu	-0.793208	0.120750	0.438868
Cu27	Cu	-0.459875	0.454083	0.772202
O28	O	-1.107299	-0.356890	-0.089406
O29	O	-0.773966	-0.023557	0.243927
O30	O	-0.440633	0.309777	0.577261
C31	C	-0.946769	-0.210833	-0.000079
C32	C	-0.613436	0.122500	0.333254
C33	C	-0.280103	0.455833	0.666587
C34	C	-0.841526	-0.200356	-0.000069
C35	C	-0.508193	0.132978	0.333264
C36	C	-0.174860	0.466311	0.666597
C37	C	-1.293391	-0.225884	-0.000111
C38	C	-0.960058	0.107449	0.333223
C39	C	-0.626724	0.440783	0.666556
C40	C	-1.398634	-0.236361	-0.000114
C41	C	-1.065301	0.096972	0.333220
C42	C	-0.731968	0.430305	0.666553
C43	C	-1.126715	-0.050296	-0.000107
C44	C	-0.793381	0.283037	0.333227
C45	C	-0.460048	0.616370	0.666560
C46	C	-1.124671	0.052250	-0.000107
C47	C	-0.791337	0.385583	0.333226
C48	C	-0.458004	0.718916	0.666560
C49	C	-0.648831	-0.181202	-0.000092
C50	C	-0.315498	0.152131	0.333241
C51	C	0.017836	0.485464	0.666575
C52	C	-0.591324	-0.255510	-0.000091
C53	C	-0.257991	0.077823	0.333242
C54	C	0.075343	0.411156	0.666576
C55	C	-0.484102	-0.244853	-0.000104
C56	C	-0.150768	0.088480	0.333230
C57	C	0.182565	0.421813	0.666563
C58	C	-0.756063	-0.191858	-0.000079
C59	C	-0.422730	0.141475	0.333254
C60	C	-0.089397	0.474809	0.666587
C61	C	-1.113446	-0.386421	-0.000083
C62	C	-0.780112	-0.053088	0.333250
C63	C	-0.446779	0.280246	0.666583
C64	C	-1.115490	-0.488967	-0.000076
C65	C	-0.782156	-0.155633	0.333257
C66	C	-0.448823	0.177700	0.666591
N67	N	-1.104535	-0.232258	-0.254318
N68	N	-0.771202	0.101075	0.079015
N69	N	-0.437869	0.434409	0.412348
C70	C	-1.117148	0.427754	-0.000078
C71	C	-0.783815	0.761087	0.333255
C72	C	-0.450482	1.094421	0.666588
C73	C	-1.119237	0.323277	-0.000087
C74	C	-0.785904	0.656610	0.333247
C75	C	-0.452571	0.989944	0.666580
C76	C	-1.120909	0.240005	-0.000094
C77	C	-0.787576	0.573339	0.333240
C78	C	-0.454243	0.906672	0.666573
C79	C	-1.122999	0.135522	-0.000100
C80	C	-0.789666	0.468855	0.333233
C81	C	-0.456332	0.802188	0.666567
C82	C	-1.091174	-0.244217	-0.473431
C83	C	-0.757841	0.089117	-0.140098
C84	C	-0.424508	0.422450	0.193235
C85	C	-1.148990	-0.192497	-0.526768
C86	C	-0.815657	0.140836	-0.193435
C87	C	-0.482324	0.474170	0.139899
C88	C	-1.141556	-0.199151	-0.648690
C89	C	-0.808223	0.134182	-0.315357
C90	C	-0.474889	0.467516	0.017977
C91	C	-1.098607	-0.237564	-0.351498
C92	C	-0.765274	0.095770	-0.018165
C93	C	-0.431941	0.429103	0.315168
N94	N	-1.135632	-0.204453	0.254126
N95	N	-0.802299	0.128881	0.587459
N96	N	-0.468965	0.462214	0.920793
H97	H	-0.622617	-0.327131	-0.000080
H98	H	-0.289284	0.006202	0.333253
H99	H	0.044050	0.339535	0.666587
O100	O	-1.025386	-0.303020	-0.528017
O101	O	-0.692053	0.030313	-0.194684
O102	O	-0.358719	0.363647	0.138649
C103	C	-0.973103	-0.349825	-0.454421
C104	C	-0.639770	-0.016492	-0.121088
C105	C	-0.306436	0.316841	0.212246
H106	H	-0.976711	-0.307618	-0.374221
H107	H	-0.643378	0.025715	-0.040888
H108	H	-0.310045	0.359048	0.292446
H109	H	-0.895476	-0.359506	-0.487024
H110	H	-0.562143	-0.026173	-0.153691
H111	H	-0.228810	0.307161	0.179643
H112	H	-1.004842	-0.420198	-0.442506
H113	H	-0.671509	-0.086865	-0.109173
H114	H	-0.338175	0.246468	0.224161
O115	O	-0.611473	-0.095772	0.000095
O116	O	-0.278140	0.237561	0.333428
O117	O	0.055194	0.570895	0.666761
C118	C	-0.560547	-0.080157	0.092597
C119	C	-0.227214	0.253177	0.425930
C120	C	0.106120	0.586510	0.759264
H121	H	-0.588050	-0.126708	0.157262
H122	H	-0.254717	0.206625	0.490595
H123	H	0.078616	0.539958	0.823929
H124	H	-0.571062	-0.004845	0.123657
H125	H	-0.237729	0.328489	0.456990
H126	H	0.095605	0.661822	0.790323
H127	H	-0.481351	-0.096288	0.071673
H128	H	-0.148018	0.237045	0.405006
H129	H	0.185316	0.570378	0.738340
O130	O	-1.214508	-0.133608	-0.471848
O131	O	-0.881174	0.199725	-0.138515
O132	O	-0.547841	0.533059	0.194818
C133	C	-1.207301	-0.139838	-0.360578
C134	C	-0.873968	0.193496	-0.027244
C135	C	-0.540635	0.526829	0.306089
H136	H	-1.173273	-0.209563	-0.345275
H137	H	-0.839939	0.123771	-0.011942
H138	H	-0.506606	0.457104	0.321391
H139	H	-1.281584	-0.132791	-0.317635
H140	H	-0.948251	0.200542	0.015699
H141	H	-0.614918	0.533876	0.349032
H142	H	-1.161221	-0.082199	-0.328846
H143	H	-0.827888	0.251135	0.004487
H144	H	-0.494555	0.584468	0.337821
