data_functionalizedCrystal
_audit_creation_method	'MofGen! by Chris Wilmer'
_symmetry_space_group_name_H-M	'P1'
_symmetry_Int_Tables_number	1
_symmetry_cell_setting	triclinic
loop_
_symmetry_equiv_pos_as_xyz
  x,y,z
_cell_length_a	16.625546
_cell_length_b	12.759395
_cell_length_c	12.759387
_cell_angle_alpha	89.982711
_cell_angle_beta	89.964440
_cell_angle_gamma	90.027804
loop_
_atom_site_label
_atom_site_type_symbol
_atom_site_fract_x
_atom_site_fract_y
_atom_site_fract_z
Zn1	Zn	-0.320844	1.606212	-0.593880
Zn2	Zn	-0.455700	1.606079	-0.418186
Zn3	Zn	-0.320897	1.430510	-0.418227
Zn4	Zn	-0.455651	1.430479	-0.593835
O5	O	-0.388273	1.518320	-0.506032
O6	O	-0.338731	1.753215	-0.570576
O7	O	-0.437860	1.582747	-0.271170
O8	O	-0.208058	1.453886	-0.441564
O9	O	-0.437809	1.753118	-0.441494
O10	O	-0.208019	1.582974	-0.570615
O11	O	-0.338821	1.453757	-0.271200
O12	O	-0.338775	1.283485	-0.441520
O13	O	-0.437726	1.453833	-0.740862
O14	O	-0.437778	1.283462	-0.570538
O15	O	-0.338684	1.582943	-0.740895
O16	O	-0.568526	1.582716	-0.441450
O17	O	-0.568490	1.453704	-0.570499
C18	C	-0.597764	1.518220	-0.505988
C19	C	-0.687385	1.518274	-0.506004
C20	C	-0.388277	1.245352	-0.506029
C21	C	-0.388298	1.128576	-0.506053
C22	C	-0.388194	1.518399	-0.780066
C23	C	-0.388160	1.518433	-0.896842
C24	C	-1.015561	1.518457	-0.506114
C25	C	-0.924252	1.518403	-0.506086
C26	C	-0.851476	1.518365	-0.506058
C27	C	-0.760162	1.518312	-0.506032
C28	C	-0.177964	1.518448	-0.506099
C29	C	-0.088343	1.518503	-0.506128
C30	C	-0.388270	1.792353	-0.506035
C31	C	-0.388268	1.909130	-0.506037
C32	C	-0.285092	1.909252	-0.640441
C33	C	-0.233507	1.964173	-0.707643
C34	C	-0.233517	2.073895	-0.707650
C35	C	-0.285119	2.128697	-0.640450
C36	C	-0.336704	2.073776	-0.573248
C37	C	-0.336686	1.964052	-0.573246
C38	C	-0.439883	2.073654	-0.438851
C39	C	-0.439870	1.963932	-0.438837
C40	C	-0.491485	2.128457	-0.371651
C41	C	-0.543067	2.073535	-0.304442
C42	C	-0.543054	1.963807	-0.304437
C43	C	-0.491455	1.909011	-0.371635
C44	C	-0.285035	1.652885	-0.896897
C45	C	-0.233460	1.720126	-0.951785
C46	C	-0.233430	1.720151	-1.061506
C47	C	-0.284980	1.652927	-1.116343
C48	C	-0.336555	1.585686	-1.061455
C49	C	-0.336580	1.585670	-0.951730
C50	C	-0.439675	1.451231	-1.061400
C51	C	-0.439710	1.451209	-0.951679
C52	C	-0.491224	1.384006	-1.116237
C53	C	-0.542805	1.316769	-1.061348
C54	C	-0.542833	1.316747	-0.951620
C55	C	-0.491285	1.383968	-0.896791
C56	C	-0.388294	1.518301	-0.233064
C57	C	-0.388100	1.518471	-0.116288
H58	H	-0.191496	1.919541	-0.762358
O59	O	-0.183305	1.785565	-1.114668
C60	C	-0.080986	1.918881	-1.103155
C61	C	-0.137724	1.844873	-1.042820
H62	H	-0.044106	1.966835	-1.045093
H63	H	-0.117958	1.973868	-1.154486
H64	H	-0.038848	1.870666	-1.154566
H65	H	-0.179873	1.893003	-0.991353
H66	H	-0.100701	1.789882	-0.991555
O67	O	-0.593052	1.251548	-0.898347
C68	C	-0.730214	1.200415	-0.864773
C69	C	-0.673430	1.274329	-0.925148
H70	H	-0.795210	1.218792	-0.886435
H71	H	-0.721454	1.211954	-0.776920
H72	H	-0.716006	1.115717	-0.886322
H73	H	-0.687603	1.359056	-0.903686
H74	H	-0.682201	1.262699	-1.012985
H75	H	-0.284944	1.652945	-1.205684
H76	H	-0.285061	1.819911	-0.640419
H77	H	-0.585064	1.919096	-0.249717
O78	O	-0.491276	1.383864	-1.222819
C79	C	-0.547861	1.310168	-1.380244
C80	C	-0.547866	1.310203	-1.259540
H81	H	-0.593622	1.250634	-1.409970
H82	H	-0.485436	1.288362	-1.410119
H83	H	-0.564559	1.391549	-1.410004
H84	H	-0.531203	1.228847	-1.229690
H85	H	-0.610298	1.332067	-1.229736
H86	H	-0.191514	2.118612	-0.762374
O87	O	-0.183352	1.785283	-0.898399
C88	C	-0.074497	1.799484	-0.774603
C89	C	-0.131204	1.725577	-0.834974
H90	H	-0.032310	1.751240	-0.723326
H91	H	-0.111494	1.854361	-0.723158
H92	H	-0.037668	1.847571	-0.832698
H93	H	-0.168046	1.677422	-0.776954
H94	H	-0.094161	1.670769	-0.886435
H95	H	-0.584768	1.262035	-1.106005
H96	H	-0.491306	1.383961	-0.807449
H97	H	-0.285130	2.218038	-0.640472
H98	H	-0.491494	2.217798	-0.371668
H99	H	-0.585081	2.118164	-0.249738
H100	H	-0.491429	1.819670	-0.371624
H101	H	-0.285061	1.652881	-0.807556
