data_functionalizedCrystal
_audit_creation_method	'MofGen! by Chris Wilmer'
_symmetry_space_group_name_H-M	'P1'
_symmetry_Int_Tables_number	1
_symmetry_cell_setting	triclinic
loop_
_symmetry_equiv_pos_as_xyz
  x,y,z
_cell_length_a	16.120490
_cell_length_b	19.121063
_cell_length_c	16.120297
_cell_angle_alpha	84.820568
_cell_angle_beta	89.870317
_cell_angle_gamma	89.683840
loop_
_atom_site_label
_atom_site_type_symbol
_atom_site_fract_x
_atom_site_fract_y
_atom_site_fract_z
Zn1	Zn	1.228536	-0.355804	0.551560
Zn2	Zn	1.229545	-0.467588	0.417851
Zn3	Zn	1.097156	-0.343933	0.404913
Zn4	Zn	1.083536	-0.466935	0.549792
O5	O	1.159693	-0.408565	0.481029
O6	O	1.344758	-0.375875	0.539977
O7	O	1.218106	-0.446490	0.299544
O8	O	1.119862	-0.247249	0.419691
O9	O	1.345500	-0.458001	0.441742
O10	O	1.216386	-0.255971	0.527432
O11	O	1.120841	-0.355641	0.290039
O12	O	0.979261	-0.355007	0.417977
O13	O	1.096647	-0.456888	0.666617
O14	O	0.969254	-0.445376	0.524419
O15	O	1.203178	-0.375241	0.667915
O16	O	1.204899	-0.565760	0.440028
O17	O	1.097626	-0.565280	0.536965
C18	C	0.944157	-0.398833	0.469603
C19	C	0.851948	-0.394688	0.464736
C20	C	1.149916	-0.590999	0.489728
C21	C	1.145807	-0.669049	0.493481
C22	C	0.637106	-0.430063	0.506278
C23	C	0.683125	-0.387125	0.455848
C24	C	0.777067	-0.391334	0.460795
C25	C	0.543156	-0.425855	0.501333
C26	C	1.199767	-0.705948	0.444821
C27	C	1.195908	-0.779285	0.448356
C28	C	1.138084	-0.815722	0.500548
C29	C	1.084121	-0.778818	0.549213
C30	C	1.087985	-0.705483	0.545682
C31	C	1.123625	-1.037136	0.513736
C32	C	1.119763	-1.110477	0.517262
C33	C	1.231551	-1.110938	0.416406
C34	C	1.235406	-1.037601	0.412875
C35	C	1.181447	-1.000704	0.461544
C36	C	1.134136	-0.890684	0.504160
C37	C	1.185399	-0.925744	0.457935
C38	C	1.376071	-0.418335	0.492500
C39	C	1.468278	-0.422499	0.497388
C40	C	1.148281	-0.417316	0.698342
C41	C	1.143418	-0.421045	0.790948
C42	C	1.169531	-0.225420	0.472315
C43	C	1.173723	-0.147375	0.468602
C44	C	1.171112	-0.399800	0.264561
C45	C	1.176146	-0.395880	0.171955
C46	C	1.134509	-0.427836	0.960498
C47	C	1.185052	-0.389090	1.002410
C48	C	1.180095	-0.392869	1.096754
C49	C	1.139465	-0.424058	0.866146
H50	H	0.651971	-0.347205	0.408959
H51	H	0.668258	-0.469981	0.553163
H52	H	1.282491	-1.007936	0.370377
H53	H	1.087519	-0.463843	0.995467
H54	H	1.246850	-0.676285	0.402317
H55	H	1.239847	-0.809324	0.408731
H56	H	1.275482	-1.140988	0.376784
H57	H	1.232046	-0.353080	0.967439
H58	H	1.072685	-1.140143	0.559778
H59	H	1.079687	-1.007100	0.553363
H60	H	1.037043	-0.808491	0.591713
H61	H	1.044047	-0.675441	0.585307
H62	H	1.232483	-0.896075	0.415444
H63	H	1.087054	-0.920359	0.546653
