data_functionalizedCrystal
_audit_creation_method	'MofGen! by Chris Wilmer'
_symmetry_space_group_name_H-M	'P1'
_symmetry_Int_Tables_number	1
_symmetry_cell_setting	triclinic
loop_
_symmetry_equiv_pos_as_xyz
  x,y,z
_cell_length_a	16.625546
_cell_length_b	14.908780
_cell_length_c	14.908308
_cell_angle_alpha	90.212689
_cell_angle_beta	93.264070
_cell_angle_gamma	86.688495
loop_
_atom_site_label
_atom_site_type_symbol
_atom_site_fract_x
_atom_site_fract_y
_atom_site_fract_z
Zn1	Zn	-0.282053	-1.345302	-0.587852
Zn2	Zn	-0.408703	-1.353878	-0.437487
Zn3	Zn	-0.281177	-1.203616	-0.428820
Zn4	Zn	-0.424138	-1.194903	-0.579104
O5	O	-0.349018	-1.274425	-0.508316
O6	O	-0.292761	-1.472267	-0.575195
O7	O	-0.384960	-1.341180	-0.310515
O8	O	-0.168459	-1.222468	-0.449950
O9	O	-0.385810	-1.478568	-0.464722
O10	O	-0.169103	-1.326564	-0.566791
O11	O	-0.291267	-1.230783	-0.304147
O12	O	-0.306234	-1.076632	-0.441467
O13	O	-0.412117	-1.207619	-0.706087
O14	O	-0.411267	-1.070231	-0.551880
O15	O	-0.307728	-1.318116	-0.712515
O16	O	-0.523584	-1.332732	-0.456238
O17	O	-0.534925	-1.215934	-0.560284
C18	C	-0.360331	-1.040806	-0.494784
C19	C	-0.365191	-0.940861	-0.489016
C20	C	-0.277582	-0.746482	-0.593390
C21	C	-0.282146	-0.652575	-0.587973
C22	C	-0.378878	-0.659139	-0.472764
C23	C	-0.374314	-0.753046	-0.478180
C24	C	-0.323666	-0.796714	-0.538496
C25	C	-0.319106	-0.890622	-0.543916
C26	C	-0.415833	-0.897185	-0.428703
C27	C	-0.420397	-0.803278	-0.423286
C28	C	-0.558511	-1.274342	-0.508273
C29	C	-0.648130	-1.274387	-0.508290
C30	C	-0.976303	-1.274538	-0.508393
C31	C	-0.884996	-1.274493	-0.508366
C32	C	-0.812220	-1.274462	-0.508341
C33	C	-0.720907	-1.274418	-0.508315
C34	C	-0.138707	-1.274531	-0.508380
C35	C	-0.049085	-1.274577	-0.508407
C36	C	-0.361742	-1.260939	-0.742837
C37	C	-0.367164	-1.255192	-0.842777
C38	C	-0.337654	-0.508956	-0.521894
C39	C	-0.332794	-0.608900	-0.527664
C40	C	-0.268634	-1.359452	-1.037268
C41	C	-0.273725	-1.354055	-1.131169
C42	C	-0.382435	-1.238998	-1.124484
C43	C	-0.377343	-1.244394	-1.030582
C44	C	-0.320441	-1.304624	-0.986977
C45	C	-0.315354	-1.310025	-0.893074
C46	C	-0.424059	-1.194964	-0.886390
C47	C	-0.429151	-1.189567	-0.980292
C48	C	-0.336283	-1.287910	-0.274710
C49	C	-0.330625	-1.293831	-0.174781
H50	H	-0.236346	-0.782037	-0.642505
H51	H	-0.231536	-1.398698	-1.172112
N52	N	-0.253992	-1.374992	-0.846039
H53	H	-0.216286	-1.340714	-0.804966
H54	H	-0.282699	-1.418867	-0.809541
N55	N	-0.475030	-0.756182	-0.358238
H56	H	-0.458146	-0.776208	-0.294961
H57	H	-0.470910	-0.689081	-0.363209
H58	H	-0.244619	-0.611680	-0.632671
N59	N	-0.207274	-1.424419	-0.990230
H60	H	-0.175228	-1.458337	-1.036339
H61	H	-0.169619	-1.390078	-0.949159
N62	N	-0.443772	-1.174004	-1.171520
H63	H	-0.439122	-1.178895	-1.238636
H64	H	-0.499804	-1.188883	-1.155924
H65	H	-0.420104	-0.623569	-0.423648
H66	H	-0.475477	-1.140528	-1.015807
H67	H	-0.453364	-0.938093	-0.384011
N68	N	-0.479948	-1.135830	-0.832149
H69	H	-0.468092	-1.148388	-0.766045
H70	H	-0.471404	-1.070672	-0.844844
H71	H	-0.277866	-0.926175	-0.593029
