data_functionalizedCrystal
_audit_creation_method	'MofGen! by Chris Wilmer'
_symmetry_space_group_name_H-M	'P1'
_symmetry_Int_Tables_number	1
_symmetry_cell_setting	triclinic
loop_
_symmetry_equiv_pos_as_xyz
  x,y,z
_cell_length_a	21.606444
_cell_length_b	19.851628
_cell_length_c	21.606444
_cell_angle_alpha	90.002566
_cell_angle_beta	60.000398
_cell_angle_gamma	59.997133
loop_
_atom_site_label
_atom_site_type_symbol
_atom_site_fract_x
_atom_site_fract_y
_atom_site_fract_z
Zr1	Zr	0.677379	0.648970	-0.081128
O2	O	0.806512	0.541402	-0.179961
O3	O	0.548257	0.681946	-0.050833
O4	O	0.677378	0.681946	-0.179950
O5	O	0.677388	0.541402	0.051009
O6	O	0.677366	0.792807	-0.179937
O7	O	0.677390	0.541403	-0.050844
O8	O	0.446392	0.792808	0.051030
O9	O	0.908363	0.541401	-0.179958
O10	O	0.601354	0.778744	-0.037899
O11	O	0.601361	0.696008	0.038103
O12	O	0.753385	0.696008	-0.113916
O13	O	0.753392	0.613272	-0.037913
Zr14	Zr	0.677356	0.825781	0.081336
Zr15	Zr	0.677360	0.825782	-0.081108
Zr16	Zr	0.677376	0.648969	0.081316
Zr17	Zr	0.839820	0.648968	-0.081122
Zr18	Zr	0.514916	0.825782	0.081331
O19	O	0.806479	0.792804	0.051041
O20	O	0.806485	0.792806	-0.179933
O21	O	0.806506	0.541401	0.051013
O22	O	0.548224	0.933348	0.180170
O23	O	0.548230	0.933350	-0.050805
O24	O	0.548251	0.681945	0.180142
O25	O	0.677348	0.933348	-0.050800
O26	O	0.677358	0.792805	0.180158
O27	O	0.677370	0.681943	0.180146
O28	O	0.677346	0.933348	0.051053
O29	O	0.908347	0.681943	-0.179942
O30	O	0.446389	0.792808	0.180151
O31	O	0.446373	0.933349	0.180167
O32	O	0.446376	0.933350	0.051045
O33	O	0.908359	0.541400	-0.050837
O34	O	0.908344	0.681942	-0.050821
O35	O	0.601351	0.778743	0.114124
O36	O	0.601344	0.861478	0.038122
O37	O	0.753375	0.778742	-0.037895
O38	O	0.753382	0.696007	0.038108
C39	C	0.474180	0.737378	0.000098
C40	C	0.405220	0.737378	0.000095
C41	C	0.677392	0.516211	0.000080
C42	C	0.677400	0.441149	0.000071
C43	C	0.372819	0.780564	-0.039578
C44	C	0.308019	0.780566	-0.039573
C45	C	0.275625	0.737379	0.000102
C46	C	0.308029	0.694192	0.039780
C47	C	0.372824	0.694195	0.039779
C48	C	0.046720	0.694183	0.039787
C49	C	-0.018077	0.694182	0.039783
C50	C	-0.018085	0.780554	-0.039566
C51	C	0.046709	0.780557	-0.039567
C52	C	0.079104	0.737374	0.000115
C53	C	0.149367	0.737373	0.000110
C54	C	0.205369	0.737375	0.000103
C55	C	0.760274	0.214693	-0.041351
C56	C	0.718839	0.192333	-0.071386
C57	C	0.677377	0.303743	0.000093
C58	C	0.718818	0.192363	0.030114
C59	C	0.677362	0.171011	0.000114
C60	C	0.635942	0.282371	-0.029984
C61	C	0.635932	0.282399	0.071556
C62	C	0.594437	0.260091	0.041538
C63	C	0.677389	0.380205	0.000079
C64	C	0.677344	0.094554	0.000126
C65	C	0.880556	0.737373	0.000111
C66	C	0.949516	0.737372	0.000113
C67	C	0.677373	0.737377	-0.203088
C68	C	0.677374	0.737377	-0.272050
C69	C	0.677344	0.958540	0.000129
C70	C	0.677336	1.033601	0.000137
C71	C	0.677370	0.798451	-0.304442
C72	C	0.677363	0.798454	-0.369235
C73	C	0.677368	0.737378	-0.401638
C74	C	0.677371	0.676300	-0.369241
C75	C	0.677371	0.676302	-0.304446
C76	C	0.677370	0.676293	-0.630551
C77	C	0.677373	0.676295	-0.695352
C78	C	0.677363	0.798445	-0.695340
C79	C	0.677363	0.798447	-0.630545
C80	C	0.677360	0.737372	-0.598151
C81	C	0.677365	0.737371	-0.527894
C82	C	0.677370	0.737375	-0.471897
C83	C	0.677363	0.737374	0.203297
C84	C	0.677361	0.737373	0.272259
C85	C	0.474156	0.958542	0.000122
C86	C	0.405188	1.033604	0.000129
C87	C	0.474175	0.737376	0.203290
C88	C	0.405213	0.737377	0.272250
C89	C	0.474151	0.958541	0.203315
C90	C	0.405181	1.033602	0.272283
C91	C	0.880585	0.516210	-0.203106
C92	C	0.949555	0.441148	-0.272074
C93	C	0.880580	0.516208	0.000086
C94	C	0.949548	0.441146	0.000080
C95	C	0.880561	0.737374	-0.203082
C96	C	0.949523	0.737374	-0.272041
C97	C	0.372805	1.025668	-0.039558
C98	C	0.308011	1.096190	-0.039567
C99	C	0.275597	1.174647	0.000115
C100	C	0.307986	1.182582	0.039802
C101	C	0.372783	1.112061	0.039807
C102	C	0.372823	0.780563	0.344323
C103	C	0.308035	0.780560	0.409124
C104	C	0.275634	0.737375	0.401850
C105	C	0.308032	0.694183	0.329769
C106	C	0.372823	0.694182	0.264970
C107	C	0.372789	1.112046	0.264998
C108	C	0.307993	1.182582	0.329795
C109	C	0.275587	1.174671	0.401875
C110	C	0.307986	1.096218	0.409158
C111	C	0.372785	1.025685	0.344362
C112	C	0.981955	0.362704	-0.264790
C113	C	1.046771	0.292169	-0.329586
C114	C	1.079180	0.300080	-0.401666
C115	C	1.046777	0.378532	-0.408950
C116	C	0.981967	0.449065	-0.344154
C117	C	0.981938	0.449083	0.039759
C118	C	1.046749	0.378561	0.039751
C119	C	1.079166	0.300103	0.000067
C120	C	1.046774	0.292168	-0.039617
C121	C	0.981968	0.362689	-0.039613
C122	C	0.981902	0.780567	-0.264743
C123	C	1.046691	0.780583	-0.329532
C124	C	1.079103	0.737400	-0.401618
C125	C	1.046716	0.694205	-0.408914
C126	C	0.981925	0.694195	-0.344126
H127	H	0.399193	0.815728	-0.071890
H128	H	0.281642	0.659023	0.323858
H129	H	0.399151	0.961815	0.350304
H130	H	0.955568	0.659018	-0.350079
C131	C	1.082401	0.205879	-0.321558
N132	N	1.109236	0.140888	-0.315509
H133	H	0.677369	0.626573	-0.395625
C134	C	0.272358	1.268871	0.321766
N135	N	0.245517	1.333863	0.315717
C136	C	1.082308	0.828098	-0.321488
N137	N	1.109133	0.863886	-0.315428
C138	C	1.150467	0.222482	-0.472937
N139	N	1.204156	0.164033	-0.526615
C140	C	0.272323	1.087530	0.488454
N141	N	0.245454	1.080989	0.548181
H142	H	1.073178	0.228278	-0.071927
H143	H	0.399164	1.118503	0.206313
C144	C	0.499670	0.285218	0.088883
N145	N	0.428294	0.304140	0.124538
H146	H	0.222824	1.232110	0.454630
C147	C	0.408465	0.646687	0.083423
N148	N	0.435308	0.610905	0.116299
C149	C	0.946323	0.353982	-0.185507
N150	N	0.919493	0.347405	-0.125793
H151	H	1.131860	0.737415	-0.454366
H152	H	0.281665	0.815735	0.467809
H153	H	0.600925	0.321206	0.131970
C154	C	1.082429	0.387220	-0.488245
N155	N	1.109278	0.393762	-0.547973
H156	H	0.955587	0.512936	-0.350094
H157	H	0.955549	0.512961	0.072080
C158	C	1.082362	0.387308	0.083415
N159	N	1.109181	0.393899	0.116305
H160	H	0.753868	0.153561	0.055496
H161	H	1.073116	0.659047	-0.467615
H162	H	0.830367	0.196241	-0.076448
H163	H	1.131936	0.242687	0.000070
H164	H	0.281646	0.659033	0.072089
H165	H	0.955598	0.356216	-0.071922
H166	H	0.955523	0.815732	-0.206053
C167	C	0.408454	0.939370	-0.083219
N168	N	0.435305	0.874373	-0.116111
C169	C	0.272401	0.828051	-0.083238
N170	N	0.245581	0.863811	-0.116135
H171	H	0.281648	1.089713	-0.071885
H172	H	0.677359	0.848186	-0.395607
C173	C	-0.053733	0.828065	-0.083209
N174	N	-0.080581	0.863848	-0.116082
C175	C	0.082337	0.828068	-0.083211
N176	N	0.109167	0.863858	-0.116081
H177	H	-0.044450	0.659012	0.072093
H178	H	0.073085	0.659024	0.072101
C179	C	0.766182	0.139872	-0.153011
N180	N	0.801849	0.100347	-0.214489
H181	H	0.600932	0.321066	-0.055435
C182	C	0.408456	0.828068	0.352343
N183	N	0.435295	0.863847	0.358390
H184	H	0.677371	0.848184	-0.278066
H185	H	0.677363	0.848178	-0.604166
H186	H	0.677361	0.848178	-0.721720
H187	H	0.677370	0.626563	-0.604182
C188	C	0.677370	0.609108	-0.730990
N189	N	0.677367	0.558506	-0.757832
H190	H	0.677373	0.626570	-0.278072
C191	C	0.204311	1.252215	0.000108
N192	N	0.150616	1.310637	0.000103
H193	H	0.399140	1.118535	0.072128
C194	C	0.272314	1.268894	0.083455
N195	N	0.245438	1.333906	0.116339
H196	H	0.222877	0.737383	0.454620
H197	H	0.399187	0.659017	0.206287
