data_functionalizedCrystal
_audit_creation_method	'MofGen! by Chris Wilmer'
_symmetry_space_group_name_H-M	'P1'
_symmetry_Int_Tables_number	1
_symmetry_cell_setting	triclinic
loop_
_symmetry_equiv_pos_as_xyz
  x,y,z
_cell_length_a	15.538191
_cell_length_b	22.010155
_cell_length_c	15.625343
_cell_angle_alpha	71.928060
_cell_angle_beta	113.263618
_cell_angle_gamma	90.006839
loop_
_atom_site_label
_atom_site_type_symbol
_atom_site_fract_x
_atom_site_fract_y
_atom_site_fract_z
O1	O	1.249532	-0.013937	0.292677
O2	O	0.975410	0.008981	0.188632
O3	O	1.119791	-0.031916	0.374280
O4	O	1.105151	0.026960	0.107029
O5	O	1.119765	-0.132960	0.374250
O6	O	0.975384	-0.092063	0.188602
O7	O	1.249505	-0.114981	0.292648
Cu8	Cu	1.112442	-0.112748	0.240622
Cu9	Cu	1.112473	0.006748	0.240657
O10	O	1.105124	-0.074084	0.107000
C11	C	0.940316	-0.039143	0.177731
C12	C	0.835785	-0.032001	0.145306
N13	N	1.112427	-0.196796	0.240601
C14	C	0.547569	-0.102960	0.467444
C15	C	0.449343	-0.096242	0.436952
C16	C	0.427127	-0.058459	0.265446
C17	C	0.525353	-0.065176	0.295923
C18	C	0.585566	-0.087426	0.396923
C19	C	0.563350	-0.049643	0.225402
C20	C	0.661567	-0.056357	0.255877
C21	C	0.721787	-0.078604	0.356873
C22	C	0.683783	-0.094140	0.427398
C23	C	0.503135	-0.027388	0.124402
C24	C	0.541133	-0.011855	0.053882
C25	C	0.639351	-0.018573	0.084356
C26	C	0.699571	-0.040820	0.185352
C27	C	0.677355	-0.003037	0.013831
C28	C	0.775572	-0.009751	0.044306
C29	C	0.797788	-0.047534	0.215827
C30	C	1.176409	-0.634695	0.322854
C31	C	1.176413	-0.698305	0.322862
O32	O	1.230775	-0.746597	0.392773
N33	N	1.112473	-0.712020	0.240676
C34	C	1.048517	-0.662122	0.158480
O35	O	0.994131	-0.679628	0.088576
C36	C	1.048509	-0.598514	0.158477
C37	C	1.112460	-0.584803	0.240664
C38	C	1.240354	-0.620983	0.405036
C39	C	1.240351	-0.557378	0.405027
C40	C	1.176402	-0.507485	0.322837
C41	C	1.112457	-0.521198	0.240656
C42	C	0.984550	-0.548618	0.076285
C43	C	0.984547	-0.485008	0.076289
C44	C	1.048498	-0.471297	0.158476
C45	C	1.048505	-0.407700	0.158457
N46	N	1.112445	-0.393986	0.240643
C47	C	1.176394	-0.443878	0.322833
C48	C	1.048538	-0.795703	0.158495
C49	C	1.048550	-0.859308	0.158495
C50	C	1.176445	-0.895487	0.322878
C51	C	1.176437	-0.831880	0.322874
C52	C	1.112479	-0.781988	0.240682
C53	C	1.176383	-0.310301	0.322809
C54	C	1.176376	-0.246688	0.322791
C55	C	1.048478	-0.210516	0.158411
C56	C	1.048487	-0.274122	0.158426
C57	C	1.112443	-0.324015	0.240633
O58	O	0.994168	-0.359376	0.088583
O59	O	1.230763	-0.426362	0.392732
C60	C	1.284600	-0.066856	0.303548
C61	C	1.389130	-0.073994	0.335973
C62	C	1.119114	-0.089788	0.407633
C63	C	1.117124	-0.111688	0.507057
N64	N	1.112496	0.090793	0.240688
C65	C	1.110625	0.091662	0.834121
C66	C	1.108751	0.071065	0.927543
C67	C	1.108722	-0.039086	0.927498
C68	C	1.110601	-0.018499	0.834076
C69	C	1.111551	0.046876	0.787395
C70	C	1.111527	-0.063285	0.787349
C71	C	1.113401	-0.042699	0.693934
C72	C	1.114348	0.022673	0.647245
C73	C	1.113424	0.067462	0.693979
C74	C	1.110570	-0.128659	0.834029
C75	C	1.111497	-0.173445	0.787303
C76	C	1.113377	-0.152860	0.693888
C77	C	1.114324	-0.087488	0.647199
C78	C	1.114301	-0.197648	0.647154
C79	C	1.116174	-0.177062	0.553738
C80	C	1.116198	-0.066902	0.553784
C81	C	1.105803	-0.016208	1.073647
C82	C	1.107797	0.005705	0.974225
H83	H	0.846818	-0.065656	0.298071
Br84	Br	1.327152	-0.688686	0.516595
H85	H	1.111407	0.144895	0.796115
Br86	Br	0.961735	-0.727995	0.046934
H87	H	0.996485	-0.870464	0.091565
Br88	Br	0.629296	-0.133167	0.604517
Br89	Br	0.765511	-0.124347	0.564471
Br90	Br	0.897755	-0.567213	-0.035260
H91	H	0.996422	-0.285284	0.091496
H92	H	0.801761	-0.084062	0.381683
H93	H	1.113518	-0.250876	0.685172
Br94	Br	1.327140	-0.538778	0.516574
Br95	Br	0.961696	-0.142795	0.046869
H96	H	0.628315	0.015085	-0.068403
H97	H	0.806510	0.002892	-0.013119
Br98	Br	1.107484	0.131855	0.990952
Br99	Br	0.897737	-0.417302	-0.035263
H100	H	0.418411	-0.108892	0.494387
H101	H	0.378088	-0.040340	0.183211
Br102	Br	1.117506	0.021820	0.490430
H103	H	1.115863	0.039434	0.571175
Br104	Br	0.369839	-0.018274	0.083043
H105	H	1.114206	0.120695	0.655972
Br106	Br	1.107421	-0.127804	0.990853
H107	H	0.492094	0.006264	-0.028353
H108	H	1.228456	-0.235529	0.389719
H109	H	1.109035	-0.145417	0.910090
Br110	Br	1.263180	-0.378003	0.434377
H111	H	1.110720	-0.226673	0.825322
Br112	Br	1.263233	-0.963212	0.434422
Br113	Br	1.263231	-0.813279	0.434419
H114	H	1.116908	-0.213530	0.515684
