data_functionalizedCrystal
_audit_creation_method	'MofGen! by Chris Wilmer'
_symmetry_space_group_name_H-M	'P1'
_symmetry_Int_Tables_number	1
_symmetry_cell_setting	triclinic
loop_
_symmetry_equiv_pos_as_xyz
  x,y,z
_cell_length_a	17.077404
_cell_length_b	29.839131
_cell_length_c	29.839126
_cell_angle_alpha	89.978002
_cell_angle_beta	89.974084
_cell_angle_gamma	90.041645
loop_
_atom_site_label
_atom_site_type_symbol
_atom_site_fract_x
_atom_site_fract_y
_atom_site_fract_z
Zn1	Zn	1.200003	-0.178895	-0.254007
Zn2	Zn	1.199853	-0.254012	-0.178877
Zn3	Zn	1.068720	-0.178897	-0.178890
Zn4	Zn	1.068661	-0.253999	-0.253979
O5	O	1.134309	-0.216451	-0.216438
O6	O	1.309830	-0.188864	-0.244048
O7	O	1.182420	-0.244055	-0.116012
O8	O	1.086223	-0.116030	-0.188872
O9	O	1.309720	-0.244052	-0.188850
O10	O	1.182676	-0.116028	-0.244060
O11	O	1.086078	-0.188868	-0.116021
O12	O	0.958865	-0.188855	-0.188844
O13	O	1.086121	-0.244029	-0.316850
O14	O	0.958822	-0.244032	-0.244011
O15	O	1.182618	-0.188850	-0.316871
O16	O	1.182362	-0.316878	-0.188822
O17	O	1.085976	-0.316868	-0.243999
C18	C	0.930361	-0.216443	-0.216426
C19	C	0.843112	-0.216450	-0.216431
C20	C	1.134168	-0.333173	-0.216416
C21	C	1.134179	-0.383108	-0.216421
C22	C	0.802119	-0.245224	-0.245111
C23	C	0.720139	-0.245225	-0.245118
C24	C	0.679152	-0.216454	-0.216443
C25	C	0.720150	-0.187677	-0.187762
C26	C	0.802129	-0.187674	-0.187758
C27	C	0.549280	-0.187686	-0.187773
C28	C	0.467296	-0.187689	-0.187777
C29	C	0.467290	-0.245236	-0.245133
C30	C	0.549269	-0.245233	-0.245129
C31	C	0.590261	-0.216457	-0.216447
C32	C	1.184589	-0.692744	-0.187750
C33	C	1.184686	-0.880417	-0.187767
O34	O	1.227434	-0.904675	-0.163372
N35	N	1.134472	-0.903893	-0.216472
C36	C	1.084234	-0.880448	-0.245177
O37	O	1.041532	-0.904722	-0.269596
C38	C	1.084142	-0.692775	-0.245161
C39	C	1.134353	-0.669302	-0.216451
C40	C	1.234797	-0.669270	-0.159042
C41	C	1.234769	-0.622355	-0.159037
C42	C	1.184534	-0.598913	-0.187738
C43	C	1.134325	-0.622386	-0.216445
C44	C	1.033908	-0.669331	-0.273868
C45	C	1.033891	-0.622410	-0.273862
C46	C	1.084102	-0.598937	-0.245152
C47	C	1.084062	-0.552029	-0.245141
N48	N	1.134276	-0.528553	-0.216436
C49	C	1.184512	-0.551995	-0.187735
C50	C	1.084285	-0.978978	-0.245182
C51	C	1.084307	-1.025896	-0.245186
C52	C	1.184760	-1.025862	-0.187777
C53	C	1.184734	-0.978943	-0.187771
C54	C	1.134499	-0.955502	-0.216477
C55	C	1.184449	-0.453469	-0.187724
C56	C	1.184415	-0.406550	-0.187720
C57	C	1.083965	-0.406588	-0.245131
C58	C	1.083996	-0.453503	-0.245134
C59	C	1.134244	-0.476943	-0.216429
O60	O	1.041342	-0.527742	-0.269527
O61	O	1.227220	-0.527713	-0.163326
C62	C	1.184617	-0.739659	-0.187756
C63	C	1.134409	-0.763133	-0.216463
C64	C	1.084173	-0.739691	-0.245164
C65	C	1.134431	-0.810051	-0.216466
C66	C	1.184667	-0.833492	-0.187765
C67	C	1.234880	-0.810016	-0.159060
C68	C	1.234853	-0.763101	-0.159054
C69	C	1.033959	-0.763167	-0.273869
C70	C	1.033990	-0.810082	-0.273872
C71	C	1.084226	-0.833524	-0.245171
C72	C	1.339054	-0.216459	-0.216451
C73	C	1.426303	-0.216463	-0.216456
C74	C	1.134380	-0.216438	-0.333617
C75	C	1.134410	-0.216432	-0.383551
C76	C	1.134473	-0.099272	-0.216470
C77	C	1.134543	-0.049338	-0.216484
C78	C	1.184565	-0.245108	-0.740137
C79	C	1.184566	-0.245139	-0.552463
O80	O	1.227202	-0.269591	-0.528197
N81	N	1.134406	-0.216411	-0.528996
C82	C	1.084239	-0.187674	-0.552450
O83	O	1.041569	-0.163243	-0.528184
C84	C	1.084234	-0.187646	-0.740122
C85	C	1.134403	-0.216373	-0.763587
C86	C	1.234729	-0.273834	-0.763601
C87	C	1.234731	-0.273824	-0.810517
C88	C	1.184569	-0.245088	-0.833968
C89	C	1.134405	-0.216363	-0.810503
C90	C	1.034063	-0.158912	-0.763576
C91	C	1.034065	-0.158908	-0.810497
C92	C	1.084234	-0.187635	-0.833961
C93	C	1.084245	-0.187618	-0.880869
N94	N	1.134405	-0.216347	-0.904336
C95	C	1.184567	-0.245082	-0.880885
C96	C	1.084246	-0.187691	-0.453920
C97	C	1.084248	-0.187697	-0.407002
C98	C	1.184574	-0.245163	-0.407018
C99	C	1.184576	-0.245154	-0.453937
C100	C	1.134406	-0.216419	-0.477387
C101	C	1.184568	-0.245059	-0.979411
C102	C	1.184568	-0.245045	-1.026331
C103	C	1.084239	-0.187581	-1.026310
C104	C	1.084242	-0.187593	-0.979395
C105	C	1.134409	-0.216335	-0.955946
O106	O	1.041626	-0.163183	-0.905164
O107	O	1.227218	-0.269517	-0.905160
C108	C	1.184563	-0.245118	-0.693221
C109	C	1.134398	-0.216393	-0.669756
C110	C	1.084237	-0.187657	-0.693207
C111	C	1.134400	-0.216399	-0.622838
C112	C	1.184562	-0.245134	-0.599388
C113	C	1.234722	-0.273863	-0.622855
C114	C	1.234724	-0.273853	-0.669770
C115	C	1.034077	-0.158929	-0.669740
C116	C	1.034079	-0.158940	-0.622824
C117	C	1.084241	-0.187676	-0.599374
C118	C	1.134284	-0.216431	-0.099716
C119	C	1.134406	-0.216310	-0.049782
H120	H	0.835484	-0.268654	-0.268460
H121	H	0.993017	-0.688435	-0.297245
Br122	Br	0.965977	-0.119906	-0.842319
Br123	Br	0.411671	-0.148646	-0.148857
H124	H	1.275710	-0.688351	-0.135670
H125	H	0.993226	-0.135529	-0.688829
H126	H	1.225427	-0.268546	-0.473039
Br127	Br	0.411658	-0.284284	-0.284064
Br128	Br	1.252879	-0.947091	-0.148806
H129	H	1.275658	-0.603245	-0.135660
Br130	Br	0.664527	-0.148626	-0.148850
H131	H	1.043061	-0.387494	-0.268498
H132	H	0.686766	-0.268656	-0.268471
H133	H	0.582638	-0.268664	-0.268476
H134	H	1.225664	-1.044956	-0.164407
Br135	Br	0.604913	-0.148631	-0.148849
H136	H	0.835505	-0.164241	-0.164406
H137	H	1.225303	-0.387439	-0.164339
Br138	Br	0.965714	-0.590600	-0.312825
Br139	Br	1.252644	-0.485273	-0.148768
H140	H	0.993227	-0.135543	-0.603723
H141	H	1.043404	-0.164299	-0.387901
H142	H	1.043412	-1.045004	-0.268560
H143	H	1.043376	-0.959896	-0.268559
Br144	Br	1.015832	-0.485361	-0.284086
Br145	Br	1.252652	-0.284067	-0.947596
H146	H	1.275740	-0.743992	-0.135676
Br147	Br	1.303054	-0.841840	-0.120106
H148	H	0.993095	-0.829191	-0.297251
H149	H	1.275581	-0.297218	-0.829618
H150	H	0.993052	-0.744084	-0.297242
H151	H	1.225425	-0.268439	-1.045434
H152	H	1.275577	-0.297246	-0.688871
Br153	Br	1.016132	-0.148700	-0.485738
Br154	Br	1.252650	-0.284162	-0.375183
Br155	Br	1.302815	-0.312837	-0.731784
H156	H	0.993209	-0.135520	-0.744479
Br157	Br	1.302803	-0.312858	-0.591020
Br158	Br	1.016166	-0.148600	-0.947549
Br159	Br	1.016168	-0.148584	-1.058145
