data_functionalizedCrystal
_audit_creation_method	'MofGen! by Chris Wilmer'
_symmetry_space_group_name_H-M	'P1'
_symmetry_Int_Tables_number	1
_symmetry_cell_setting	triclinic
loop_
_symmetry_equiv_pos_as_xyz
  x,y,z
_cell_length_a	12.811445
_cell_length_b	14.421503
_cell_length_c	12.811415
_cell_angle_alpha	95.426546
_cell_angle_beta	83.528277
_cell_angle_gamma	95.439089
loop_
_atom_site_label
_atom_site_type_symbol
_atom_site_fract_x
_atom_site_fract_y
_atom_site_fract_z
O1	O	1.393309	0.206157	0.141371
O2	O	1.087790	0.181761	0.156740
O3	O	1.248234	0.181755	-0.003701
O4	O	1.232865	0.206162	0.301812
O5	O	1.248208	0.027532	-0.003677
O6	O	1.087764	0.027537	0.156764
O7	O	1.393283	0.051933	0.141394
Cu8	Cu	1.240521	0.025653	0.149082
Cu9	Cu	1.240552	0.208041	0.149053
O10	O	1.232838	0.051939	0.301836
C11	C	1.048669	0.101288	0.155891
C12	C	0.932139	0.091273	0.153310
C13	C	0.713191	0.240607	0.148455
C14	C	0.603701	0.231201	0.146031
C15	C	0.603665	0.063057	0.146045
C16	C	0.713155	0.072463	0.148470
C17	C	0.767915	0.161241	0.149673
C18	C	0.877408	0.170645	0.152089
C19	C	0.877369	0.002502	0.152111
C20	C	0.767879	-0.006904	0.149687
N21	N	1.240506	-0.102627	0.149101
C22	C	1.166303	-0.352283	0.223255
C23	C	1.261237	-0.404354	0.244042
C24	C	1.240532	-0.291789	0.149076
C25	C	1.145623	-0.423807	0.128313
C26	C	1.240548	-0.474511	0.149054
C27	C	1.335513	-0.342492	0.169910
C28	C	1.219836	-0.361947	0.054140
C29	C	1.314838	-0.413989	0.074887
C30	C	1.240521	-0.186527	0.149091
C31	C	1.240569	-0.579769	0.149038
C32	C	1.432404	0.132408	0.142244
C33	C	1.548934	0.142429	0.144825
C34	C	1.247359	0.101283	-0.042797
C35	C	1.244778	0.091270	-0.159324
N36	N	1.240575	0.336322	0.149026
C37	C	1.239939	0.240607	-0.378307
C38	C	1.237514	0.231203	-0.487795
C39	C	1.237496	0.063059	-0.487790
C40	C	1.239921	0.072463	-0.378302
C41	C	1.241144	0.161240	-0.323564
C42	C	1.243576	0.170643	-0.214075
C43	C	1.243551	0.002500	-0.214071
C44	C	1.241126	-0.006904	-0.323559
C45	C	1.233714	0.132413	0.340931
C46	C	1.236294	0.142432	0.457459
H47	H	0.921937	-0.062124	0.153101
H48	H	0.921991	0.242933	0.153068
H49	H	1.278756	-0.423301	0.324318
C50	C	1.443977	-0.294821	0.193757
N51	N	1.525669	-0.258913	0.211723
H52	H	1.244575	0.242930	-0.169510
H53	H	0.723278	-0.079184	0.148711
C54	C	1.239777	-0.104554	-0.383782
N55	N	1.238762	-0.178106	-0.429142
H56	H	0.757778	0.312894	0.149430
H57	H	0.559060	-0.009221	0.145075
H58	H	1.240944	0.312893	-0.333740
C59	C	1.196126	-0.336316	-0.054273
N60	N	1.178255	-0.317009	-0.135929
H61	H	1.377686	-0.440910	0.012143
H62	H	1.065354	-0.459202	0.110763
H63	H	0.559148	0.295830	0.145042
C64	C	1.081594	-0.315651	0.308070
N65	N	1.017798	-0.288056	0.371954
H66	H	1.236529	0.295832	-0.532362
H67	H	1.236492	-0.009220	-0.532375
H68	H	1.244536	-0.062127	-0.169488
