data_functionalizedCrystal
_audit_creation_method	'MofGen! by Chris Wilmer'
_symmetry_space_group_name_H-M	'P1'
_symmetry_Int_Tables_number	1
_symmetry_cell_setting	triclinic
loop_
_symmetry_equiv_pos_as_xyz
  x,y,z
_cell_length_a	9.016244
_cell_length_b	16.992694
_cell_length_c	16.992700
_cell_angle_alpha	89.332302
_cell_angle_beta	90.009188
_cell_angle_gamma	89.998176
loop_
_atom_site_label
_atom_site_type_symbol
_atom_site_fract_x
_atom_site_fract_y
_atom_site_fract_z
O1	O	0.123194	-1.050852	0.166913
O2	O	0.123237	-0.822452	0.165082
O3	O	0.123178	-0.935738	0.051798
O4	O	0.123253	-0.937567	0.280198
O5	O	-0.123503	-0.935720	0.051800
O6	O	-0.123444	-0.822435	0.165084
O7	O	-0.123487	-1.050835	0.166915
Cu8	Cu	-0.145989	-0.936633	0.166000
Cu9	Cu	0.145739	-0.936654	0.165998
O10	O	-0.123428	-0.937550	0.280200
C11	C	-0.000099	-0.793084	0.162727
C12	C	-0.000084	-0.705599	0.155699
N13	N	-0.351176	-0.936625	0.166001
C14	C	-0.000169	-0.933374	0.022439
C15	C	-0.000187	-0.926346	-0.065046
C16	C	-0.586177	-0.875816	0.226375
C17	C	-0.414285	-0.875971	0.226622
C18	C	-0.413522	-1.019887	0.189089
C19	C	-0.585467	-1.019561	0.189522
C20	C	-0.585742	-0.914976	0.082373
C21	C	-0.413788	-0.913117	0.082808
N22	N	0.350925	-0.936669	0.165991
C23	C	-0.000148	-1.080204	0.169270
C24	C	-0.000154	-1.167688	0.176299
C25	C	-0.000063	-0.659608	0.223517
C26	C	-0.000085	-0.577407	0.216908
C27	C	-0.000118	-0.541199	0.142480
C28	C	-0.000144	-0.587197	0.074657
C29	C	-0.000132	-0.669396	0.081267
C30	C	-0.000167	-0.295885	0.115086
C31	C	-0.000175	-0.213680	0.108481
C32	C	-0.000119	-0.203896	0.250732
C33	C	-0.000098	-0.286097	0.257335
C34	C	-0.000131	-0.332087	0.189512
N35	N	-0.000137	-0.457177	0.135723
N36	N	-0.000123	-0.416108	0.196270
C37	C	-0.000043	-0.879124	-0.556965
C38	C	-0.000058	-0.885734	-0.474764
C39	C	-0.000093	-0.960162	-0.438557
C40	C	-0.000096	-1.027984	-0.484555
C41	C	-0.000070	-1.021374	-0.566754
C42	C	-0.000164	-0.987558	-0.193243
C43	C	-0.000195	-0.994163	-0.111038
C44	C	-0.000154	-0.851912	-0.101253
C45	C	-0.000137	-0.845308	-0.183454
C46	C	-0.000132	-0.913131	-0.229445
N47	N	-0.000113	-0.966919	-0.354535
N48	N	-0.000101	-0.906372	-0.313465
C49	C	-0.000078	-0.939914	0.309559
C50	C	-0.000050	-0.946942	0.397043
H51	H	-0.372134	-0.814247	0.212107
H52	H	-0.000095	-0.166442	0.305950
H53	H	-0.000224	-1.054774	-0.081561
O54	O	-0.000150	-0.719007	0.008122
H55	H	-0.000162	-0.680022	-0.044744
O56	O	-0.359823	-0.831949	0.059760
H57	H	-0.294708	-0.835424	0.004482
O58	O	-0.000005	-0.798848	-0.596016
H59	H	0.000013	-0.752801	-0.550221
H60	H	-0.000156	-0.796695	-0.063798
O61	O	-0.000193	-1.060706	-0.242844
H62	H	-0.000246	-1.113568	-0.203854
O63	O	-0.356470	-1.044569	0.269200
H64	H	-0.283727	-0.997674	0.292700
H65	H	-0.000200	-0.184203	0.047870
O66	O	-0.641012	-0.793814	0.207368
H67	H	-0.544846	-0.754712	0.195341
O68	O	-0.000095	-0.765029	-0.222500
H69	H	-0.000093	-0.771827	-0.287385
O70	O	-0.000132	-1.108263	-0.445509
H71	H	-0.000165	-1.101468	-0.380624
O72	O	-0.000093	-1.094519	-0.616366
H73	H	-0.000138	-1.147384	-0.577381
O74	O	-0.000078	-0.812589	-0.425155
H75	H	-0.000079	-0.759724	-0.464142
H76	H	-0.629186	-0.855305	0.061449
O77	O	-0.000206	-0.345482	0.041935
H78	H	0.100327	-0.332056	0.006561
O79	O	-0.643345	-0.894648	0.307963
H80	H	-0.716358	-0.947162	0.305694
H81	H	-0.000192	-0.557710	0.014056
O82	O	-0.359736	-0.895028	0.308671
H83	H	-0.456170	-0.904176	0.348326
H84	H	-0.000054	-0.315571	0.317942
H85	H	-0.626418	-0.959292	0.037377
O86	O	-0.638563	-1.043842	0.270504
H87	H	-0.596008	-1.001674	0.314500
O88	O	-0.640594	-1.081700	0.133846
H89	H	-0.599377	-1.068501	0.073578
O90	O	-0.359380	-1.081587	0.132674
H91	H	-0.287280	-1.053495	0.087476
H92	H	-0.000035	-0.689081	0.284123
O93	O	-0.356920	-0.967497	0.019974
H94	H	-0.234016	-0.964393	0.017873
H95	H	-0.000066	-0.539964	0.272132
