data_functionalizedCrystal
_audit_creation_method	'MofGen! by Chris Wilmer'
_symmetry_space_group_name_H-M	'P1'
_symmetry_Int_Tables_number	1
_symmetry_cell_setting	triclinic
loop_
_symmetry_equiv_pos_as_xyz
  x,y,z
_cell_length_a	13.262390
_cell_length_b	13.262508
_cell_length_c	12.376457
_cell_angle_alpha	116.815184
_cell_angle_beta	63.168449
_cell_angle_gamma	88.760843
loop_
_atom_site_label
_atom_site_type_symbol
_atom_site_fract_x
_atom_site_fract_y
_atom_site_fract_z
O1	O	1.510826	0.023939	-0.551162
O2	O	1.181095	0.063503	-0.437620
O3	O	1.365752	-0.121128	-0.551157
O4	O	1.326169	0.208570	-0.437625
O5	O	1.319607	-0.075031	-0.334785
O6	O	1.134950	0.109601	-0.221248
O7	O	1.464681	0.070037	-0.334790
Zn8	Zn	1.292489	0.097138	-0.243665
Zn9	Zn	1.353287	0.036402	-0.528745
O10	O	1.280024	0.254668	-0.221253
C11	C	1.116029	0.088574	-0.315901
C12	C	0.990901	0.094585	-0.275582
C13	C	0.738816	0.010998	-0.633731
C14	C	0.856381	0.005344	-0.671617
C15	C	0.890017	0.027654	-0.572612
C16	C	0.806076	0.055618	-0.435714
C17	C	0.688501	0.061263	-0.397827
C18	C	0.839702	0.077920	-0.336708
C19	C	0.755761	0.105884	-0.199810
C20	C	0.638199	0.111528	-0.161930
C21	C	0.604563	0.089218	-0.260935
C22	C	0.957277	0.072274	-0.374594
C23	C	0.906963	0.122540	-0.138690
C24	C	0.789398	0.128194	-0.100804
C25	C	1.344704	-0.140070	-0.456505
C26	C	1.350724	-0.265188	-0.496829
C27	C	1.267068	-0.517372	-0.138700
C28	C	1.261404	-0.399815	-0.100810
C29	C	1.283733	-0.366152	-0.199811
C30	C	1.311729	-0.450058	-0.336710
C31	C	1.317385	-0.567624	-0.374601
C32	C	1.334050	-0.416405	-0.435712
C33	C	1.362045	-0.500310	-0.572610
C34	C	1.367701	-0.617864	-0.610495
C35	C	1.345371	-0.651527	-0.511493
C36	C	1.328394	-0.298839	-0.397821
C37	C	1.378710	-0.349091	-0.633721
C38	C	1.384375	-0.466647	-0.671612
C39	C	1.529748	0.044966	-0.456512
C40	C	1.654877	0.038953	-0.496839
C41	C	1.301072	0.273609	-0.315908
C42	C	1.295055	0.398725	-0.275593
N43	N	1.251004	0.138587	-0.049109
N44	N	1.394781	-0.005057	-0.723307
C45	C	1.491082	-0.101296	0.158313
C46	C	1.520111	-0.130306	0.022129
C47	C	1.452836	-0.063086	0.004312
C48	C	1.356529	0.033151	0.122694
C49	C	1.327502	0.062169	0.258891
C50	C	1.289257	0.100380	0.104890
C51	C	1.192949	0.196616	0.223272
C52	C	1.163927	0.225629	0.359454
C53	C	1.231202	0.158409	0.377271
C54	C	1.318283	0.071361	-0.031307
C55	C	1.154704	0.234827	0.069271
C56	C	1.125675	0.263837	0.205455
H57	H	0.985745	0.023050	-0.603467
H58	H	1.396885	-0.321683	-0.714334
C59	C	1.626071	-0.236122	-0.108080
H60	H	1.633741	-0.243758	-0.191741
H61	H	1.614072	-0.305902	-0.106468
H62	H	1.695795	-0.223965	-0.106376
H63	H	1.305589	-0.230531	-0.286353
H64	H	0.508833	0.093824	-0.230094
C65	C	1.484759	-0.095003	-0.145486
H66	H	1.551744	-0.161951	-0.213437
H67	H	1.502010	-0.030456	-0.157730
H68	H	1.420216	-0.112322	-0.157717
C69	C	1.351561	-0.780833	-0.553161
H70	H	1.371421	-0.825983	-0.648866
H71	H	1.277209	-0.785194	-0.493789
H72	H	1.409883	-0.811100	-0.542551
H73	H	1.085516	0.303998	0.455844
C74	C	1.398475	-0.710153	-0.761071
H75	H	1.410971	-0.673273	-0.814610
H76	H	1.335393	-0.744125	-0.756380
H77	H	1.468066	-0.769989	-0.805128
H78	H	0.934347	0.140705	-0.058072
C79	C	1.277516	-0.236846	-0.158138
H80	H	1.257657	-0.191699	-0.062433
H81	H	1.219204	-0.206597	-0.168767
H82	H	1.351872	-0.232468	-0.217495
C83	C	1.230624	-0.307532	0.049760
H84	H	1.218148	-0.344417	0.103291
H85	H	1.161042	-0.247697	0.093816
H86	H	1.293715	-0.273562	0.045066
C87	C	0.545868	0.142281	-0.011350
H88	H	0.582733	0.154770	0.042194
H89	H	0.511890	0.079206	-0.016029
H90	H	0.486027	0.211861	0.032695
H91	H	1.407168	-0.534979	-0.783076
C92	C	1.242511	-0.554405	-0.029817
H93	H	1.249896	-0.636437	-0.071996
H94	H	1.164917	-0.511890	0.049224
H95	H	1.297589	-0.537751	0.000480
C96	C	1.565072	-0.175225	0.177920
H97	H	1.533987	-0.144161	0.275984
H98	H	1.644332	-0.172636	0.134938
H99	H	1.562530	-0.254494	0.134947
C100	C	1.019750	0.369698	0.335678
H101	H	1.012108	0.377353	0.419335
H102	H	0.950000	0.357603	0.334028
H103	H	1.031807	0.439457	0.334022
C104	C	0.697063	0.158946	0.049774
H105	H	0.733923	0.171434	0.103322
H106	H	0.663084	0.095871	0.045092
H107	H	0.637224	0.228527	0.093816
C108	C	1.080702	0.308779	0.049688
H109	H	1.111775	0.277709	-0.048376
H110	H	1.083243	0.388042	0.092666
H111	H	1.001436	0.306188	0.092668
H112	H	1.025611	0.049508	-0.486056
H113	H	0.711418	-0.007175	-0.714331
C114	C	0.948704	-0.025406	-0.822188
H115	H	0.911834	-0.037873	-0.875722
H116	H	1.008548	-0.094977	-0.866237
H117	H	0.982675	0.037681	-0.817498
H118	H	1.396697	-0.006994	-0.127683
H119	H	1.207564	0.182025	0.488161
