data_functionalizedCrystal
_audit_creation_method	'MofGen! by Chris Wilmer'
_symmetry_space_group_name_H-M	'P1'
_symmetry_Int_Tables_number	1
_symmetry_cell_setting	triclinic
loop_
_symmetry_equiv_pos_as_xyz
  x,y,z
_cell_length_a	18.101395
_cell_length_b	12.759401
_cell_length_c	12.759393
_cell_angle_alpha	90.022497
_cell_angle_beta	89.967630
_cell_angle_gamma	89.968074
loop_
_atom_site_label
_atom_site_type_symbol
_atom_site_fract_x
_atom_site_fract_y
_atom_site_fract_z
Zn1	Zn	-0.294778	-1.606147	-0.594050
Zn2	Zn	-0.418637	-1.605987	-0.418364
Zn3	Zn	-0.294815	-1.430445	-0.418380
Zn4	Zn	-0.418584	-1.430387	-0.593997
O5	O	-0.356703	-1.518242	-0.506198
O6	O	-0.311214	-1.753147	-0.570761
O7	O	-0.402250	-1.582659	-0.271345
O8	O	-0.191177	-1.453844	-0.441712
O9	O	-0.402213	-1.753030	-0.441685
O10	O	-0.191150	-1.582931	-0.570776
O11	O	-0.311279	-1.453689	-0.271357
O12	O	-0.311227	-1.283417	-0.441661
O13	O	-0.402122	-1.453744	-0.741025
O14	O	-0.402159	-1.283374	-0.570685
O15	O	-0.311163	-1.582874	-0.741064
O16	O	-0.522263	-1.582603	-0.441633
O17	O	-0.522224	-1.453590	-0.570670
C18	C	-0.356692	-1.245274	-0.506170
C19	C	-0.356705	-1.128498	-0.506183
C20	C	-0.404125	-1.073641	-0.573258
C21	C	-0.404127	-0.963917	-0.573276
C22	C	-0.309287	-0.963916	-0.439133
C23	C	-0.309282	-1.073638	-0.439122
C24	C	-0.549114	-1.518101	-0.506167
C25	C	-0.631428	-1.518137	-0.506189
C26	C	-0.930519	-1.518368	-0.506246
C27	C	-0.899200	-1.437384	-0.587633
C28	C	-0.813582	-1.436999	-0.587379
C29	C	-0.782136	-1.518253	-0.506218
C30	C	-0.813295	-1.488271	-0.395492
C31	C	-0.898940	-1.487748	-0.395979
C32	C	-0.898860	-1.629511	-0.534610
C33	C	-0.813208	-1.628857	-0.537038
C34	C	-0.698277	-1.518190	-0.506196
C35	C	-1.014378	-1.518428	-0.506260
C36	C	-0.163541	-1.518411	-0.506252
C37	C	-0.081227	-1.518484	-0.506275
C38	C	-0.356632	-1.518320	-0.780231
C39	C	-0.356602	-1.518354	-0.897008
C40	C	-0.356713	-0.792275	-0.506220
C41	C	-0.356712	-0.909051	-0.506212
C42	C	-0.309232	-1.585597	-0.951892
C43	C	-0.309200	-1.585614	-1.061616
C44	C	-0.403915	-1.451143	-1.061563
C45	C	-0.403942	-1.451121	-0.951841
C46	C	-0.356721	-1.518224	-0.233231
C47	C	-0.356542	-1.518394	-0.116454
H48	H	-0.270678	-0.919236	-0.384533
H49	H	-0.442516	-1.396356	-0.907153
O50	O	-0.455314	-0.904814	-0.645618
H51	H	-0.422261	-0.854872	-0.699212
O52	O	-0.258133	-1.132802	-0.366760
H53	H	-0.220486	-1.182834	-0.413870
O54	O	-0.925505	-1.380135	-0.364155
H55	H	-0.904319	-1.321154	-0.420569
O56	O	-0.784853	-1.712996	-0.464220
H57	H	-0.753533	-1.772154	-0.510053
H58	H	-0.791912	-1.407886	-0.371034
O59	O	-0.258172	-1.658104	-0.892745
H60	H	-0.200043	-1.640135	-0.913809
O61	O	-0.785663	-1.461766	-0.696147
H62	H	-0.833334	-1.474131	-0.749404
H63	H	-0.442738	-1.118304	-0.627866
H64	H	-0.270625	-1.640369	-1.106298
H65	H	-0.442459	-1.396407	-1.106221
O66	O	-0.925851	-1.709493	-0.456268
H67	H	-0.961620	-1.670338	-0.397389
H68	H	-0.919742	-1.455958	-0.670002
O69	O	-0.927780	-1.328915	-0.563060
H70	H	-0.964193	-1.332431	-0.493131
O71	O	-0.786521	-1.327885	-0.562465
H72	H	-0.834607	-1.275190	-0.550543
H73	H	-0.919661	-1.544174	-0.333271
O74	O	-0.786320	-1.563942	-0.312973
H75	H	-0.809120	-1.541023	-0.235508
H76	H	-0.792840	-1.651467	-0.618527
O77	O	-0.927383	-1.665722	-0.639744
H78	H	-0.964447	-1.604899	-0.672955
