data_functionalizedCrystal
_audit_creation_method	'MofGen! by Chris Wilmer'
_symmetry_space_group_name_H-M	'P1'
_symmetry_Int_Tables_number	1
_symmetry_cell_setting	triclinic
loop_
_symmetry_equiv_pos_as_xyz
  x,y,z
_cell_length_a	6.817900
_cell_length_b	11.102288
_cell_length_c	11.102193
_cell_angle_alpha	91.949012
_cell_angle_beta	108.604059
_cell_angle_gamma	108.605689
loop_
_atom_site_label
_atom_site_type_symbol
_atom_site_fract_x
_atom_site_fract_y
_atom_site_fract_z
V1	V	-4.111515	-0.175848	-0.396258
O2	O	-4.070547	0.008441	-0.388714
O3	O	-4.088292	-0.348668	-0.393548
O4	O	-4.088289	-0.173147	-0.569079
O5	O	-4.070550	-0.168295	-0.211968
V6	V	-4.588618	-0.153805	-0.374215
O7	O	-4.386855	-0.224203	-0.444610
O8	O	-4.763476	-0.105450	-0.325863
O9	O	-4.388634	0.019016	-0.376925
O10	O	-4.746982	-0.338094	-0.381758
O11	O	-4.746979	-0.161358	-0.558505
O12	O	-4.388637	-0.156505	-0.201393
C13	C	-3.938603	-0.390798	-0.387297
C14	C	-4.001070	-0.532081	-0.386233
C15	C	-4.214425	-0.604929	-0.392074
C16	C	-4.273113	-0.737681	-0.391084
C17	C	-3.905067	-0.724722	-0.378407
C18	C	-3.846387	-0.591975	-0.379406
C19	C	-3.938598	-0.166902	-0.611203
C20	C	-4.001058	-0.165837	-0.752485
C21	C	-4.121387	-0.398616	-0.788813
C22	C	-4.210887	-0.514499	-0.873349
C23	C	-4.269573	-0.513492	-1.006095
C24	C	-4.238760	-0.396588	-1.054306
C25	C	-4.149261	-0.280704	-0.969770
C26	C	-4.090574	-0.281724	-0.837022
C27	C	-4.028948	-0.047930	-0.933443
C28	C	-3.970246	-0.048934	-0.800696
C29	C	-3.998135	0.068974	-0.981654
C30	C	-3.908620	0.184861	-0.897117
C31	C	-3.849930	0.183849	-0.764364
C32	C	-3.880746	0.066950	-0.716160
C33	C	-4.201666	0.061139	-0.383173
C34	C	-4.118438	0.202420	-0.384245
C35	C	-4.201670	-0.162755	-0.159263
C36	C	-4.118447	-0.163813	-0.017979
H37	H	-4.073576	-0.399447	-0.680725
O38	O	-4.240575	-0.627938	-0.826298
C39	C	-4.169638	-0.603989	-0.691008
H40	H	-4.046012	-0.501893	-0.655020
H41	H	-4.317792	-0.615388	-0.659893
C42	C	-4.210853	-0.825741	-0.678071
C43	C	-4.058999	-0.700348	-0.633869
H44	H	-4.142615	-0.885183	-0.642823
H45	H	-4.258653	-0.841878	-0.769218
H46	H	-4.334304	-0.835222	-0.652138
H47	H	-3.935566	-0.690864	-0.659816
H48	H	-4.011175	-0.684212	-0.542724
O49	O	-3.638994	-0.521382	-0.373666
C50	C	-3.515060	-0.602711	-0.367447
H51	H	-3.589927	-0.692935	-0.328168
H52	H	-3.517677	-0.630812	-0.467826
C53	C	-3.183059	-0.420902	-0.326363
C54	C	-3.275001	-0.531711	-0.278109
H55	H	-3.034976	-0.377105	-0.271260
H56	H	-3.266556	-0.366108	-0.330557
H57	H	-3.185260	-0.444335	-0.410011
H58	H	-3.272823	-0.508275	-0.194469
H59	H	-3.191497	-0.586499	-0.273898
H60	H	-4.340381	-0.556168	-0.397631
O61	O	-4.356404	-0.626172	-1.088037
C62	C	-4.371084	-0.729572	-1.017031
H63	H	-4.247704	-0.693977	-0.914832
H64	H	-4.545298	-0.771056	-1.014196
C65	C	-4.469986	-0.878288	-1.206876
C66	C	-4.318435	-0.834570	-1.081356
H67	H	-4.437521	-0.943059	-1.246556
H68	H	-4.460105	-0.808626	-1.254716
H69	H	-4.615152	-0.912848	-1.204496
H70	H	-4.173277	-0.799996	-1.083739
H71	H	-4.328291	-0.904229	-1.033518
O72	O	-3.878651	0.298518	-0.943738
C73	C	-3.787009	0.400590	-0.840662
H74	H	-3.826693	0.363545	-0.753599
H75	H	-3.600318	0.441868	-0.815281
C76	C	-3.836746	0.551866	-0.986895
C77	C	-3.885503	0.506370	-0.879966
H78	H	-3.897492	0.617120	-1.011140
H79	H	-3.898480	0.483101	-1.056341
H80	H	-3.681169	0.586256	-0.965730
H81	H	-4.041076	0.471967	-0.901137
H82	H	-3.823798	0.575132	-0.810525
H83	H	-4.446843	-0.796989	-0.395843
H84	H	-3.779137	-0.773504	-0.372846
H85	H	-4.045941	0.069786	-1.089745
H86	H	-4.286577	-0.395779	-1.162397
H87	H	-3.777066	0.278216	-0.695541
H88	H	-3.832952	0.066115	-0.608073
