data_functionalizedCrystal
_audit_creation_method	'MofGen! by Chris Wilmer'
_symmetry_space_group_name_H-M	'P1'
_symmetry_Int_Tables_number	1
_symmetry_cell_setting	triclinic
loop_
_symmetry_equiv_pos_as_xyz
  x,y,z
_cell_length_a	14.853566
_cell_length_b	15.944493
_cell_length_c	13.330367
_cell_angle_alpha	90.001230
_cell_angle_beta	89.995295
_cell_angle_gamma	83.554729
loop_
_atom_site_label
_atom_site_type_symbol
_atom_site_fract_x
_atom_site_fract_y
_atom_site_fract_z
O1	O	1.196204	0.109662	-0.083344
O2	O	0.933725	0.122728	-0.083359
O3	O	1.072160	-0.006075	-0.083359
O4	O	1.057770	0.238465	-0.083343
O5	O	1.072139	-0.006078	0.083488
O6	O	0.933705	0.122725	0.083488
O7	O	1.196184	0.109660	0.083503
Cu8	Cu	1.064943	0.116192	0.098730
Cu9	Cu	1.064966	0.116195	-0.098586
O10	O	1.057750	0.238462	0.083504
C11	C	0.900127	0.122134	0.000063
C12	C	0.800046	0.120361	0.000056
C13	C	0.376883	0.112861	-0.090875
C14	C	0.376883	0.112859	0.091028
C15	C	0.470914	0.114524	0.091025
C16	C	0.517935	0.115360	0.000071
C17	C	0.470923	0.114530	-0.090881
C18	C	0.517932	0.115363	0.181975
C19	C	0.611969	0.117029	0.181976
C20	C	0.658991	0.117859	0.091020
C21	C	0.611974	0.117028	0.000065
C22	C	0.658995	0.117863	-0.090889
C23	C	0.611980	0.117026	-0.181846
C24	C	0.517946	0.115359	-0.181836
C25	C	0.753026	0.119526	0.091011
C26	C	0.753035	0.119531	-0.090895
C27	C	1.071561	-0.037372	0.000060
C28	C	1.069798	-0.130623	0.000047
C29	C	1.151284	-0.366292	0.000071
C30	C	1.107352	-0.416907	-0.082195
C31	C	1.066531	-0.301347	0.000059
C32	C	1.107312	-0.416886	0.082303
C33	C	1.063381	-0.466260	0.000075
C34	C	1.022621	-0.350734	-0.082275
C35	C	1.022594	-0.350710	0.082297
C36	C	0.978600	-0.401293	0.000011
C37	C	1.068348	-0.206345	0.000049
C38	C	1.061558	-0.561260	0.000078
C39	C	1.229782	0.110253	0.000080
C40	C	1.329863	0.112026	0.000080
C41	C	1.058348	0.269759	0.000082
C42	C	1.060111	0.363010	0.000089
N43	N	1.064933	0.116189	0.237512
N44	N	1.064984	0.116192	-0.237367
C45	C	1.003665	0.173207	0.710135
C46	C	1.126292	0.059177	0.710103
C47	C	1.126282	0.059175	0.605084
C48	C	1.064963	0.116190	0.552586
C49	C	1.003655	0.173208	0.605107
C50	C	1.187596	0.002164	0.552556
C51	C	1.187589	0.002159	0.447531
C52	C	1.126265	0.059171	0.395031
C53	C	1.064953	0.116191	0.447558
C54	C	1.003634	0.173206	0.395060
C55	C	0.942317	0.230222	0.447585
C56	C	0.942331	0.230219	0.552607
C57	C	1.126251	0.059174	0.290010
C58	C	1.003624	0.173207	0.290032
H59	H	0.338593	0.112185	0.165079
Cl60	Cl	0.865802	-0.425301	-0.000061
Cl61	Cl	1.263994	-0.342033	-0.000046
H62	H	1.176179	0.012756	0.247249
Cl63	Cl	0.865240	0.301901	0.381577
Cl64	Cl	1.203381	-0.012491	0.776097
Cl65	Cl	0.458816	0.114323	0.296310
H66	H	0.986858	-0.321953	-0.151899
Cl67	Cl	0.967387	-0.306037	0.189678
Cl68	Cl	0.926581	0.244878	0.776161
H69	H	1.237524	-0.044252	0.595303
Cl70	Cl	0.812125	0.120584	0.205346
H71	H	0.892410	0.276640	0.595379
Cl72	Cl	1.264667	-0.069518	0.381506
H73	H	0.791312	0.120208	-0.164962
H74	H	0.650276	0.117712	-0.255901
Cl75	Cl	0.458842	0.114274	-0.296170
H76	H	0.338601	0.112177	-0.164929
H77	H	0.650240	0.117709	0.256038
H78	H	0.953687	0.219633	0.247295
Cl79	Cl	1.162623	-0.461538	-0.189569
H80	H	1.143114	-0.445779	0.151848
