data_functionalizedCrystal
_audit_creation_method	'MofGen! by Chris Wilmer'
_symmetry_space_group_name_H-M	'P1'
_symmetry_Int_Tables_number	1
_symmetry_cell_setting	triclinic
loop_
_symmetry_equiv_pos_as_xyz
  x,y,z
_cell_length_a	16.109301
_cell_length_b	15.944493
_cell_length_c	14.586319
_cell_angle_alpha	90.002083
_cell_angle_beta	89.998857
_cell_angle_gamma	83.468314
loop_
_atom_site_label
_atom_site_type_symbol
_atom_site_fract_x
_atom_site_fract_y
_atom_site_fract_z
O1	O	1.103143	0.107970	-0.076178
O2	O	0.861083	0.121407	-0.076189
O3	O	0.988748	-0.007592	-0.076191
O4	O	0.975478	0.236969	-0.076176
O5	O	0.988740	-0.007594	0.076290
O6	O	0.861074	0.121405	0.076292
O7	O	1.103135	0.107968	0.076303
Cu8	Cu	0.982104	0.114686	0.090220
Cu9	Cu	0.982114	0.114689	-0.090106
O10	O	0.975469	0.236967	0.076305
C11	C	0.830104	0.120861	0.000049
C12	C	0.737808	0.119229	0.000045
C13	C	0.428818	0.190440	0.000065
C14	C	0.515539	0.191981	0.000060
C15	C	0.535394	0.038929	0.000038
C16	C	0.448675	0.037389	0.000037
C17	C	0.395389	0.113147	0.000055
C18	C	0.568828	0.116228	0.000051
C19	C	0.662855	0.117899	0.000045
C20	C	0.301357	0.111477	0.000059
C21	C	0.988202	-0.038887	0.000046
C22	C	0.986576	-0.132136	0.000034
C23	C	1.061722	-0.367920	0.000055
C24	C	1.021203	-0.418474	-0.075128
C25	C	0.983562	-0.302856	0.000045
C26	C	1.021176	-0.418452	0.075206
C27	C	0.980658	-0.467764	0.000060
C28	C	0.943064	-0.352181	-0.075200
C29	C	0.943049	-0.352156	0.075202
C30	C	0.902472	-0.402677	0.000001
C31	C	0.985238	-0.207856	0.000036
C32	C	0.978976	-0.562761	0.000062
C33	C	1.134114	0.108514	0.000062
C34	C	1.226409	0.110145	0.000061
C35	C	0.976016	0.268262	0.000066
C36	C	0.977642	0.361510	0.000072
N37	N	0.982102	0.114684	0.217052
N38	N	0.982122	0.114684	-0.216938
C39	C	1.038651	0.057583	0.452057
C40	C	1.038654	0.057581	0.548039
C41	C	0.925567	0.171788	0.548050
C42	C	0.925561	0.171786	0.452070
C43	C	0.982108	0.114684	0.404076
C44	C	0.982116	0.114684	0.596037
C45	C	0.982118	0.114683	0.700104
C46	C	0.982105	0.114684	0.300003
H47	H	0.421458	-0.025557	0.000026
H48	H	1.129047	-0.352314	-0.000018
O49	O	1.060717	-0.453004	-0.150884
C50	C	1.144606	-0.435649	-0.150628
H51	H	1.164446	-0.422579	-0.077466
H52	H	1.186194	-0.492340	-0.179023
H53	H	1.151013	-0.377998	-0.195187
O54	O	0.870601	0.227339	0.405597
C55	C	0.820684	0.277730	0.468537
H56	H	0.854771	0.278695	0.536952
H57	H	0.807987	0.344807	0.440801
H58	H	0.758930	0.250437	0.478750
H59	H	0.910079	-0.323350	-0.138828
O60	O	0.548047	0.267045	-0.000098
C61	C	0.597624	0.272513	-0.079063
H62	H	0.577126	0.228620	-0.134259
H63	H	0.589818	0.340212	-0.105568
H64	H	0.666017	0.253129	-0.061217
H65	H	0.385435	0.252128	0.000079
H66	H	0.835095	-0.418120	-0.000043
H67	H	0.578790	-0.022751	0.000026
O68	O	0.903820	-0.317642	0.151122
C69	C	0.945243	-0.351590	0.230238
H70	H	1.012479	-0.376217	0.212229
H71	H	0.945000	-0.300363	0.284794
H72	H	0.911748	-0.405638	0.257667
O73	O	1.060678	-0.452892	0.151008
C74	C	1.144576	-0.435566	0.150708
H75	H	1.150624	-0.377493	0.106696
H76	H	1.165031	-0.423203	0.223824
H77	H	1.185914	-0.491990	0.121364
O78	O	1.093604	0.002030	0.405578
C79	C	1.143524	-0.048355	0.468514
H80	H	1.109441	-0.049309	0.536934
H81	H	1.156215	-0.115436	0.440782
H82	H	1.205280	-0.021065	0.478716
H83	H	1.084695	0.011083	0.587102
O84	O	0.870726	0.227228	0.594814
C85	C	0.882842	0.214975	0.689818
H86	H	0.948944	0.183598	0.702920
H87	H	0.873586	0.278588	0.726294
H88	H	0.835794	0.172834	0.717062
