data_functionalizedCrystal
_audit_creation_method	'MofGen! by Chris Wilmer'
_symmetry_space_group_name_H-M	'P1'
_symmetry_Int_Tables_number	1
_symmetry_cell_setting	triclinic
loop_
_symmetry_equiv_pos_as_xyz
  x,y,z
_cell_length_a	25.639242
_cell_length_b	16.959455
_cell_length_c	16.959447
_cell_angle_alpha	89.985678
_cell_angle_beta	90.020634
_cell_angle_gamma	89.996868
loop_
_atom_site_label
_atom_site_type_symbol
_atom_site_fract_x
_atom_site_fract_y
_atom_site_fract_z
Zn1	Zn	0.208183	1.208460	-0.446962
Zn2	Zn	0.295624	1.208415	-0.314806
Zn3	Zn	0.208199	1.076289	-0.314799
Zn4	Zn	0.295585	1.076285	-0.446944
O5	O	0.251898	1.142362	-0.380878
O6	O	0.219792	1.319065	-0.429441
O7	O	0.284050	1.190870	-0.204194
O8	O	0.135032	1.093842	-0.332336
O9	O	0.284034	1.319032	-0.332347
O10	O	0.135020	1.190948	-0.429435
O11	O	0.219820	1.093798	-0.204189
O12	O	0.219782	0.965677	-0.332319
O13	O	0.283967	1.093836	-0.557558
O14	O	0.283983	0.965675	-0.429405
O15	O	0.219754	1.190944	-0.557571
O16	O	0.368784	1.190867	-0.332329
O17	O	0.368755	1.093792	-0.429411
C18	C	0.251880	0.936996	-0.380860
C19	C	0.251886	0.849139	-0.380871
C20	C	0.115525	1.142400	-0.380887
C21	C	0.057411	1.142416	-0.380890
C22	C	0.218441	0.477640	-0.330431
C23	C	0.285398	0.477687	-0.431370
C24	C	0.285390	0.560233	-0.431366
C25	C	0.251908	0.601486	-0.380892
C26	C	0.218433	0.560194	-0.330422
C27	C	0.318868	0.601531	-0.481828
C28	C	0.318862	0.684082	-0.481825
C29	C	0.285377	0.725337	-0.431354
C30	C	0.251901	0.684040	-0.380884
C31	C	0.218418	0.725293	-0.330410
C32	C	0.184939	0.683998	-0.279943
C33	C	0.184948	0.601449	-0.279952
C34	C	0.285368	0.807886	-0.431345
C35	C	0.218411	0.807847	-0.330402
C36	C	-0.302952	1.091842	-0.330356
C37	C	-0.357556	1.091841	-0.330360
O38	O	-0.385792	1.048826	-0.287389
N39	N	-0.384872	1.142401	-0.380913
C40	C	-0.357581	1.192960	-0.431471
O41	O	-0.385829	1.235964	-0.474472
C42	C	-0.302977	1.192956	-0.431471
C43	C	-0.275664	1.142398	-0.380909
C44	C	-0.275639	1.041287	-0.279799
C45	C	-0.221038	1.041289	-0.279794
C46	C	-0.193751	1.091846	-0.330347
C47	C	-0.221064	1.142400	-0.380904
C48	C	-0.275687	1.243510	-0.482033
C49	C	-0.221080	1.243502	-0.482028
C50	C	-0.193767	1.192944	-0.431466
C51	C	-0.139176	1.192959	-0.431452
N52	N	-0.111860	1.142399	-0.380899
C53	C	-0.139147	1.091842	-0.330347
C54	C	-0.472251	1.192963	-0.431469
C55	C	-0.526853	1.192971	-0.431466
C56	C	-0.526825	1.091851	-0.330356
C57	C	-0.472222	1.091847	-0.330355
C58	C	-0.444935	1.142402	-0.380916
C59	C	-0.024482	1.091851	-0.330340
C60	C	0.030123	1.091860	-0.330338
C61	C	0.030090	1.192977	-0.431451
C62	C	-0.024510	1.192971	-0.431451
C63	C	-0.051795	1.142402	-0.380893
O64	O	-0.110905	1.235949	-0.474404
O65	O	-0.110893	1.048837	-0.287361
C66	C	0.387740	1.142346	-0.380886
C67	C	0.445854	1.142411	-0.380916
C68	C	0.251854	1.142395	-0.587046
C69	C	0.251836	1.142409	-0.674903
C70	C	0.251915	1.348530	-0.380896
C71	C	0.251923	1.436387	-0.380904
C72	C	0.285214	1.091944	-1.046374
C73	C	0.218348	1.193063	-1.046383
C74	C	0.218359	1.193042	-0.963837
C75	C	0.251798	1.142472	-0.922556
C76	C	0.285227	1.091923	-0.963821
C77	C	0.184935	1.243596	-0.922566
C78	C	0.184945	1.243578	-0.840015
C79	C	0.218382	1.193003	-0.798732
C80	C	0.251812	1.142451	-0.840002
C81	C	0.285251	1.091881	-0.798721
C82	C	0.318679	1.041324	-0.839990
C83	C	0.318664	1.041348	-0.922538
C84	C	0.218396	1.192979	-0.716184
C85	C	0.285264	1.091860	-0.716168
C86	C	0.251903	1.142375	-0.175512
C87	C	0.251774	1.142514	-0.087655
H88	H	0.191142	0.841430	-0.289304
H89	H	0.191181	0.444014	-0.289344
H90	H	0.346123	0.717698	-0.522919
H91	H	0.345881	1.000190	-0.956146
H92	H	0.312491	1.050671	-0.682562
H93	H	0.345907	1.000153	-0.806368
H94	H	0.191182	1.234144	-0.682587
H95	H	-0.297852	1.000114	-0.238633
H96	H	0.312428	1.050779	-1.079979
H97	H	0.191126	1.234240	-1.079999
F98	F	-0.053513	1.038030	-0.276530
H99	H	0.157680	0.717597	-0.238843
H100	H	0.312661	0.444093	-0.472459
F101	F	-0.555876	1.038042	-0.276554
F102	F	-0.191977	0.987473	-0.225983
F103	F	0.149352	1.297418	-0.966504
H104	H	0.157691	0.567819	-0.238863
F105	F	-0.443158	1.038036	-0.276542
H106	H	0.346131	0.567936	-0.522915
H107	H	0.312628	0.841505	-0.472432
F108	F	0.059188	1.038048	-0.276519
H109	H	0.157726	1.284744	-0.806421
F110	F	0.059141	1.246781	-0.485249
H111	H	-0.450038	1.234136	-0.472642
F112	F	-0.304744	1.297320	-0.535851
F113	F	-0.555916	1.246791	-0.485271
F114	F	-0.192043	1.297311	-0.535844
F115	F	-0.053580	1.246790	-0.485254
