data_functionalizedCrystal
_audit_creation_method	'MofGen! by Chris Wilmer'
_symmetry_space_group_name_H-M	'P1'
_symmetry_Int_Tables_number	1
_symmetry_cell_setting	triclinic
loop_
_symmetry_equiv_pos_as_xyz
  x,y,z
_cell_length_a	20.875492
_cell_length_b	15.698487
_cell_length_c	20.875625
_cell_angle_alpha	92.971181
_cell_angle_beta	60.168684
_cell_angle_gamma	58.318192
loop_
_atom_site_label
_atom_site_type_symbol
_atom_site_fract_x
_atom_site_fract_y
_atom_site_fract_z
Zr1	Zr	0.740655	0.761078	-0.122762
O2	O	0.881816	0.607762	-0.232535
O3	O	0.599493	0.815179	-0.084013
O4	O	0.740658	0.795713	-0.225186
O5	O	0.740650	0.634506	0.014198
O6	O	0.740660	0.935893	-0.225187
O7	O	0.740652	0.627229	-0.091362
O8	O	0.488143	0.970715	0.027345
O9	O	0.993167	0.599685	-0.238335
O10	O	0.657557	0.934288	-0.073647
O11	O	0.657554	0.835104	0.005133
O12	O	0.823757	0.812185	-0.161080
O13	O	0.823753	0.713001	-0.082300
Zr14	Zr	0.740656	0.996258	0.045592
Zr15	Zr	0.740659	0.984651	-0.122765
Zr16	Zr	0.740652	0.772686	0.045595
Zr17	Zr	0.918247	0.748196	-0.132011
Zr18	Zr	0.563064	1.009141	0.054841
O19	O	0.881818	0.942157	0.006842
O20	O	0.881822	0.925653	-0.232539
O21	O	0.881812	0.624266	0.006846
O22	O	0.599495	1.149574	0.155365
O23	O	0.599499	1.133070	-0.084017
O24	O	0.599489	0.831683	0.155369
O25	O	0.740661	1.122830	-0.091368
O26	O	0.740654	0.961624	0.148015
O27	O	0.740651	0.821443	0.148017
O28	O	0.740659	1.130107	0.014192
O29	O	0.993171	0.777395	-0.238337
O30	O	0.488140	0.979941	0.161167
O31	O	0.488144	1.157651	0.161164
O32	O	0.488146	1.148425	0.027343
O33	O	0.993165	0.608911	-0.104513
O34	O	0.993168	0.786621	-0.104516
O35	O	0.657554	0.945151	0.083910
O36	O	0.657558	1.044335	0.005130
O37	O	0.823757	0.922232	-0.082303
O38	O	0.823754	0.823048	-0.003523
C39	C	0.518515	0.894782	-0.027016
C40	C	0.443122	0.900251	-0.023089
C41	C	0.469068	0.817129	-0.082606
C42	C	0.398242	0.822268	-0.078945
C43	C	0.301471	0.910526	-0.015763
C44	C	0.275525	0.993657	0.043757
C45	C	0.346351	0.988521	0.040092
C46	C	0.083069	0.935079	0.001774
C47	C	0.012243	0.940207	0.005436
C48	C	0.134965	0.768819	-0.117267
C49	C	0.205786	0.763687	-0.120924
C50	C	0.179835	0.846821	-0.061407
N51	N	0.229074	0.915780	-0.012018
N52	N	0.252231	0.841570	-0.065156
C53	C	0.740650	0.599013	-0.038582
C54	C	0.740648	0.504101	-0.038580
C55	C	0.740665	0.330314	-0.038589
C56	C	0.740660	0.427019	-0.038586
C57	C	0.962796	0.862554	-0.050154
C58	C	1.038189	0.857085	-0.054081
C59	C	0.740659	0.864149	-0.249174
C60	C	0.740661	0.859222	-0.320646
C61	C	0.740661	1.158323	-0.038589
C62	C	0.740663	1.253235	-0.038590
C63	C	0.740664	0.934133	-0.354224
C64	C	0.740656	0.929506	-0.421375
C65	C	0.740653	0.849963	-0.454950
C66	C	0.740647	0.775048	-0.421365
C67	C	0.740647	0.779680	-0.354212
C68	C	0.740645	0.827832	-0.655787
C69	C	0.740648	0.823203	-0.722946
C70	C	0.740655	0.977664	-0.722950
C71	C	0.740661	0.982284	-0.655799
C72	C	0.740650	0.907374	-0.622217
N73	N	0.740649	0.845230	-0.523591
N74	N	0.740648	0.912113	-0.553574
C75	C	0.740652	0.893187	0.172004
C76	C	0.740651	0.898115	0.243475
C77	C	0.518520	1.174437	-0.027019
C78	C	0.443129	1.274818	-0.023094
C79	C	0.518511	0.909301	0.183573
C80	C	0.443117	0.919698	0.258971
C81	C	0.518516	1.188956	0.183569
C82	C	0.443124	1.294265	0.258967
C83	C	0.962795	0.568380	-0.260740
C84	C	1.038187	0.463071	-0.336137
C85	C	0.962791	0.582899	-0.050151
C86	C	1.038182	0.482518	-0.054076
C87	C	0.962800	0.848035	-0.260743
C88	C	1.038194	0.837638	-0.336142
C89	C	0.407725	1.264515	-0.062378
C90	C	0.336897	1.358823	-0.058706
C91	C	0.301470	1.463435	-0.015745
C92	C	0.336882	1.473736	0.023541
C93	C	0.407713	1.379428	0.019864
C94	C	0.407712	0.982024	0.335507
C95	C	0.336881	0.991789	0.406358
C96	C	0.301453	0.939233	0.400671
C97	C	0.336865	0.876899	0.324127
C98	C	0.407699	0.867129	0.253278
C99	C	0.407721	1.395502	0.253252
C100	C	0.336892	1.494458	0.324088
C101	C	0.301463	1.492175	0.400639
C102	C	0.336873	1.390928	0.406353
C103	C	0.407706	1.291974	0.335516
C104	C	1.073598	0.361834	-0.330422
C105	C	1.144449	0.262876	-0.401260
C106	C	1.179882	0.265158	-0.477811
C107	C	1.144468	0.366406	-0.483524
C108	C	1.073623	0.465361	-0.412688
C109	C	1.073594	0.492820	-0.014799
C110	C	1.144441	0.398509	-0.018491
C111	C	1.179870	0.293897	-0.061455
C112	C	1.144455	0.283596	-0.100737
C113	C	1.073614	0.377906	-0.097050
C114	C	1.073600	0.890208	-0.330428
C115	C	1.144431	0.880461	-0.401266
C116	C	1.179860	0.818137	-0.477817
C117	C	1.144446	0.765566	-0.483528
C118	C	1.073612	0.775320	-0.412691
H119	H	0.419377	0.754581	-0.127410
H120	H	0.308016	1.389086	0.468690
H121	H	0.740658	0.990505	-0.448714
O122	O	0.171150	1.088849	0.111902
H123	H	0.155333	1.167663	0.109861
O124	O	0.445884	1.390555	0.062249
H125	H	0.432279	1.356663	0.108411
O126	O	1.182671	0.698333	-0.566095
H127	H	1.237884	0.700377	-0.614386
H128	H	1.173257	0.923271	-0.396600
H129	H	0.740646	0.758425	-0.750280
H130	H	0.436550	1.024824	0.340153
O131	O	0.740652	1.019935	-0.317999
H132	H	0.805512	1.008443	-0.365008
H133	H	1.044792	0.732505	-0.417354
H134	H	0.243775	0.947197	0.458368
O135	O	0.573443	0.721941	-0.150757
H136	H	0.579582	0.665013	-0.191533
O137	O	1.035393	0.957446	-0.247871
H138	H	1.048994	0.903582	-0.216011
O139	O	1.182614	0.409642	0.023894
H140	H	1.237834	0.326494	0.014111
H141	H	0.284580	0.691832	-0.172384
H142	H	1.044784	0.369502	-0.129032
H143	H	0.436569	1.179342	-0.097373
O144	O	1.182616	0.153688	-0.395081
H145	H	1.214861	0.144540	-0.364130
H146	H	1.044753	0.577993	0.020192
O147	O	0.162956	0.679170	-0.181471
H148	H	0.097452	0.697572	-0.168317
O149	O	1.256271	0.807613	-0.554214
H150	H	1.229093	0.841319	-0.588264
O151	O	0.298678	1.059041	0.488911
H152	H	0.335202	1.093963	0.480956
O153	O	0.318358	1.078183	0.104288
H154	H	0.347695	1.118659	0.074800
O155	O	-0.092139	1.035408	0.073581
H156	H	-0.098287	1.092360	0.114348
H157	H	0.740664	1.047055	-0.628464
H158	H	0.308073	1.350415	-0.090698
H159	H	0.061927	1.002772	0.050237
O160	O	0.740666	1.058454	-0.759174
H161	H	0.740677	1.114537	-0.724549
H162	H	0.740639	0.766835	-0.628451
H163	H	0.436517	0.816380	0.190962
H164	H	0.308008	0.834111	0.319509
H165	H	0.740638	0.710285	-0.448702
H166	H	0.740643	0.718681	-0.326872
H167	H	0.243794	1.540218	-0.012756
H168	H	0.308027	1.558924	0.058519
O169	O	1.256304	0.158418	-0.554209
H170	H	1.229117	0.113299	-0.552746
H171	H	0.436557	1.397381	0.190926
O172	O	0.298696	1.603653	0.317919
H173	H	0.335222	1.588607	0.252786
O174	O	0.225051	1.598914	0.477038
H175	H	0.252226	1.599353	0.511089
O176	O	0.445869	1.182784	0.341685
H177	H	0.409316	1.197834	0.406819
O178	O	1.035388	0.359362	-0.247860
H179	H	1.094851	0.312233	-0.244123
O180	O	1.182681	0.368863	-0.566092
H181	H	1.237883	0.283040	-0.614382
O182	O	1.035418	0.574564	-0.418839
H183	H	1.003144	0.583723	-0.449765
O184	O	1.256251	0.192183	-0.065402
H185	H	1.274902	0.216935	-0.030854
O186	O	1.182672	0.170762	-0.147077
H187	H	1.237873	0.106924	-0.143030
