data_functionalizedCrystal
_audit_creation_method	'MofGen! by Chris Wilmer'
_symmetry_space_group_name_H-M	'P1'
_symmetry_Int_Tables_number	1
_symmetry_cell_setting	triclinic
loop_
_symmetry_equiv_pos_as_xyz
  x,y,z
_cell_length_a	13.033768
_cell_length_b	13.032987
_cell_length_c	12.759393
_cell_angle_alpha	97.195637
_cell_angle_beta	97.205615
_cell_angle_gamma	74.826917
loop_
_atom_site_label
_atom_site_type_symbol
_atom_site_fract_x
_atom_site_fract_y
_atom_site_fract_z
Zn1	Zn	0.629344	-1.677696	-0.727707
Zn2	Zn	0.806979	-1.700159	-0.532238
Zn3	Zn	0.606806	-1.500066	-0.532264
Zn4	Zn	0.784315	-1.522607	-0.688123
O5	O	0.706861	-1.600132	-0.620083
O6	O	0.671825	-1.829321	-0.718333
O7	O	0.780478	-1.673584	-0.385210
O8	O	0.461168	-1.504795	-0.574767
O9	O	0.802332	-1.845824	-0.574723
O10	O	0.477726	-1.635299	-0.718358
O11	O	0.633412	-1.526576	-0.385229
O12	O	0.611437	-1.354411	-0.536385
O13	O	0.763706	-1.543213	-0.840406
O14	O	0.741852	-1.370972	-0.650894
O15	O	0.649849	-1.657156	-0.869488
O16	O	0.952601	-1.695441	-0.536340
O17	O	0.935950	-1.564994	-0.650868
C18	C	0.671740	-1.324150	-0.589347
C19	C	0.656740	-1.206087	-0.576220
C20	C	0.699180	-1.039660	-0.613360
C21	C	0.714688	-1.161685	-0.626925
C22	C	0.982817	-1.635130	-0.589332
C23	C	1.100884	-1.650199	-0.576222
C24	C	1.267340	-1.607887	-0.613426
C25	C	1.145312	-1.592317	-0.626984
C26	C	1.429830	-1.565013	-0.650989
C27	C	1.311771	-1.550013	-0.664180
C28	C	0.706764	-1.600193	-0.894137
C29	C	0.706722	-1.600219	-1.010922
C30	C	0.742114	-0.877191	-0.650932
C31	C	0.757120	-0.995255	-0.664058
C32	C	0.647432	-1.659558	-1.080931
C33	C	0.647396	-1.659578	-1.190662
C34	C	0.765951	-1.540919	-1.160365
C35	C	0.765979	-1.540893	-1.050636
C36	C	0.578989	-1.728068	-1.098423
C37	C	0.578954	-1.728088	-1.208155
C38	C	0.706890	-1.600123	-0.347111
C39	C	0.706658	-1.600265	-0.230383
H40	H	0.638091	-0.987338	-0.559918
O41	O	1.163105	-1.723081	-0.512325
C42	C	1.098100	-1.773888	-0.467790
H43	H	1.013500	-1.720364	-0.467996
H44	H	1.096508	-1.853037	-0.516621
C45	C	1.247433	-1.860508	-0.352646
C46	C	1.143527	-1.794765	-0.352892
H47	H	1.275456	-1.873392	-0.281774
H48	H	1.291230	-1.826282	-0.382653
H49	H	1.246092	-1.926459	-0.393345
H50	H	1.144871	-1.728812	-0.312205
H51	H	1.099732	-1.828981	-0.322876
O52	O	0.823651	-1.483212	-0.982777
C53	C	0.875917	-1.430832	-1.041364
H54	H	0.885131	-1.474833	-1.124012
H55	H	0.826730	-1.345243	-1.048404
C56	C	0.975690	-1.375754	-0.882695
C57	C	0.987015	-1.429802	-0.984202
H58	H	1.044219	-1.375114	-0.847434
H59	H	0.940475	-1.411040	-0.843223
H60	H	0.934697	-1.304435	-0.888576
H61	H	1.027996	-1.501123	-0.978320
H62	H	1.022240	-1.394528	-1.023672
H63	H	0.595646	-1.153769	-0.522775
O64	O	0.823495	-1.483395	-1.199124
C65	C	0.810733	-1.496116	-1.310986
H66	H	0.786377	-1.573686	-1.338987
H67	H	0.746146	-1.425949	-1.341418
C68	C	0.946858	-1.404737	-1.319853
C69	C	0.916952	-1.500015	-1.354244
H70	H	1.012376	-1.407138	-1.346538
H71	H	0.955454	-1.396163	-1.244489
H72	H	0.893026	-1.346274	-1.345216
H73	H	0.970777	-1.558474	-1.328870
H74	H	0.908367	-1.508599	-1.429605
O75	O	0.830010	-1.057505	-0.727898
C76	C	0.880892	-0.992528	-0.772381
H77	H	0.827411	-0.907906	-0.772204
H78	H	0.960027	-0.990982	-0.723493
C79	C	0.967502	-1.141882	-0.887469
C80	C	0.901812	-1.037950	-0.887260
H81	H	0.980412	-1.169901	-0.958330
H82	H	0.933226	-1.185660	-0.857498
H83	H	1.033441	-1.140580	-0.846724
H84	H	0.835870	-1.039255	-0.927993
H85	H	0.936078	-0.994173	-0.917240
O86	O	1.249507	-1.477219	-0.728138
C87	C	1.279371	-1.503807	-0.832482
H88	H	1.365101	-1.554841	-0.830354
H89	H	1.223835	-1.550486	-0.880883
C90	C	1.165908	-1.338175	-0.886566
C91	C	1.271207	-1.400849	-0.883952
H92	H	1.160868	-1.274667	-0.918319
H93	H	1.145785	-1.320263	-0.816269
H94	H	1.119640	-1.377086	-0.926899
H95	H	1.317471	-1.361943	-0.843610
H96	H	1.291338	-1.418752	-0.954244
H97	H	0.493932	-1.695609	-1.075375
H98	H	0.618414	-1.809939	-1.069802
H99	H	0.497052	-1.688724	-1.247627
H100	H	1.319641	-1.668956	-0.559930
O101	O	0.617904	-1.829558	-1.251620
C102	C	0.723103	-1.869555	-1.206355
H103	H	0.759404	-1.800092	-1.173347
H104	H	0.721872	-1.919436	-1.139444
C105	C	0.746056	-2.025016	-1.332426
C106	C	0.790645	-1.939700	-1.291893
H107	H	0.787719	-2.068289	-1.385187
H108	H	0.675180	-1.998072	-1.362920
H109	H	0.745032	-2.066572	-1.276658
H110	H	0.791655	-1.898139	-1.347658
H111	H	0.861523	-1.966639	-1.261410
H112	H	1.093014	-1.531235	-0.680475
H113	H	0.775773	-1.214003	-0.680380
