data_functionalizedCrystal
_audit_creation_method	'MofGen! by Chris Wilmer'
_symmetry_space_group_name_H-M	'P1'
_symmetry_Int_Tables_number	1
_symmetry_cell_setting	triclinic
loop_
_symmetry_equiv_pos_as_xyz
  x,y,z
_cell_length_a	14.446369
_cell_length_b	19.377369
_cell_length_c	19.377372
_cell_angle_alpha	62.058157
_cell_angle_beta	89.998266
_cell_angle_gamma	48.635090
loop_
_atom_site_label
_atom_site_type_symbol
_atom_site_fract_x
_atom_site_fract_y
_atom_site_fract_z
Zr1	Zr	0.725196	0.759439	0.055821
O2	O	0.510477	0.943867	-0.042108
O3	O	0.808509	0.607631	0.064484
O4	O	0.728823	0.806471	-0.072903
O5	O	0.633126	0.696552	0.227947
O6	O	0.881163	0.806463	-0.072900
O7	O	0.590163	0.745028	0.095279
O8	O	1.023707	0.450776	0.172860
O9	O	0.490582	1.052240	-0.017813
O10	O	0.936600	0.657984	0.093985
O11	O	0.854973	0.621814	0.192991
O12	O	0.761153	0.855922	0.031235
O13	O	0.679526	0.819751	0.130242
Zr14	Zr	1.036682	0.682114	0.267417
Zr15	Zr	0.968161	0.759427	0.055826
Zr16	Zr	0.793717	0.682126	0.267411
Zr17	Zr	0.693466	0.932281	0.094569
Zr18	Zr	1.068412	0.509272	0.228669
O19	O	0.953369	0.833921	0.258754
O20	O	0.855941	0.943850	-0.042100
O21	O	0.607905	0.833939	0.258746
O22	O	1.251401	0.497685	0.365346
O23	O	1.153973	0.607614	0.064492
O24	O	0.905937	0.497703	0.365338
O25	O	1.128752	0.745000	0.095291
O26	O	1.033055	0.635082	0.396141
O27	O	0.880715	0.635089	0.396138
O28	O	1.171715	0.696525	0.227959
O29	O	0.683706	1.052230	-0.017809
O30	O	1.078172	0.389322	0.341047
O31	O	1.271296	0.389312	0.341051
O32	O	1.216831	0.450766	0.172865
O33	O	0.545047	0.990787	0.150373
O34	O	0.738171	0.990777	0.150377
O35	O	1.000725	0.585631	0.292002
O36	O	1.082352	0.621802	0.192996
O37	O	0.906905	0.819739	0.130247
O38	O	0.825278	0.783568	0.229253
C39	C	0.920629	0.504577	0.113151
C40	C	0.934099	0.431201	0.096702
C41	C	0.765933	0.095061	0.301283
C42	C	0.778768	0.025997	0.285896
C43	C	0.863980	0.063766	0.182542
C44	C	0.851158	0.132830	0.197922
C45	C	0.802132	0.148473	0.257293
C46	C	0.887358	0.186242	0.153933
C47	C	0.874530	0.255305	0.169309
C48	C	0.825502	0.270957	0.228675
C49	C	0.789304	0.217536	0.272670
C50	C	0.936374	0.170605	0.094558
C51	C	0.972574	0.224016	0.050568
C52	C	0.959755	0.293074	0.065949
C53	C	0.910728	0.308726	0.125315
C54	C	0.995953	0.346495	0.021955
C55	C	0.983125	0.415559	0.037331
C56	C	0.897900	0.377790	0.140691
C57	C	0.577028	0.720792	0.161612
C58	C	0.473883	0.720797	0.161609
C59	C	0.216666	0.845510	0.122346
C60	C	0.323772	0.845707	0.122012
C61	C	0.465112	0.686765	0.104701
C62	C	0.357076	0.687579	0.104390
C63	C	0.408620	0.629295	0.257683
C64	C	0.514182	0.631279	0.257945
C65	C	1.184850	0.720761	0.161626
C66	C	1.287995	0.720756	0.161628
C67	C	0.795230	0.817483	-0.103049
C68	C	0.766141	0.850304	-0.192874
C69	C	0.841249	0.936975	0.210086
C70	C	0.827779	1.010351	0.226536
C71	C	1.128339	0.441655	-0.324531
C72	C	1.100976	0.472523	-0.408945
C73	C	0.917823	0.679154	-0.474441
C74	C	0.945175	0.648304	-0.390031
C75	C	1.050434	0.529552	-0.315082
C76	C	0.867269	0.736201	-0.380582
C77	C	0.894615	0.705352	-0.296179
C78	C	0.999865	0.586607	-0.221226
C79	C	1.077779	0.498704	-0.230679
C80	C	0.762005	0.854952	-0.455532
C81	C	0.684099	0.942849	-0.446083
C82	C	0.711450	0.912001	-0.361679
C83	C	0.816701	0.793255	-0.286726
C84	C	0.633537	0.999904	-0.352226
C85	C	0.660882	0.969055	-0.267824
C86	C	0.844047	0.762407	-0.202324
C87	C	0.966648	0.624070	0.426286
C88	C	0.995737	0.591249	0.516112
C89	C	1.224540	0.504562	0.113158
C90	C	1.341155	0.431181	0.096711
C91	C	1.006338	0.407871	0.377819
C92	C	1.048897	0.301674	0.451195
C93	C	1.310249	0.407855	0.377826
C94	C	1.455953	0.301653	0.451205
C95	C	0.451629	1.033697	-0.054588
C96	C	0.305925	1.139900	-0.127967
C97	C	0.537338	0.936991	0.210079
C98	C	0.420723	1.010372	0.226526
C99	C	0.755540	1.033682	-0.054581
C100	C	0.712981	1.139879	-0.127957
C101	C	1.319835	0.415610	0.037296
C102	C	1.429390	0.346677	0.021824
C103	C	1.560267	0.293309	0.065774
C104	C	1.581584	0.308886	0.125193
C105	C	1.472028	0.377825	0.140659
C106	C	1.144967	0.232912	0.537345
C107	C	1.184953	0.133135	0.606300
C108	C	1.128874	0.102117	0.589102
C109	C	1.032792	0.170889	0.502944
C110	C	0.992801	0.270669	0.433992
C111	C	1.566996	0.270660	0.433984
C112	C	1.703905	0.170884	0.502925
C113	C	1.729770	0.102098	0.589085
C114	C	1.618714	0.133098	0.606306
C115	C	1.481807	0.232877	0.537366
C116	C	0.194880	1.170901	-0.110744
C117	C	0.057967	1.270698	-0.179680
C118	C	0.032102	1.339488	-0.265840
C119	C	0.143159	1.308483	-0.283061
C120	C	0.280068	1.208692	-0.214125
C121	C	0.442039	1.025953	0.285935
C122	C	0.332473	1.094913	0.301387
C123	C	0.201595	1.148285	0.257435
C124	C	0.180279	1.132703	0.198020
C125	C	0.289841	1.063751	0.182563
C126	C	0.769086	1.170864	-0.110733
C127	C	0.729123	1.270635	-0.179671
C128	C	0.633048	1.339425	-0.265833
C129	C	0.576944	1.308433	-0.283057
C130	C	0.616914	1.208658	-0.214120
H131	H	0.749282	-0.017489	0.321720
H132	H	0.498715	1.364456	-0.353219
Cl133	Cl	0.519959	0.669107	0.323278
H134	H	0.547827	1.096590	-0.413261
Cl135	Cl	0.682589	0.487961	0.309680
Cl136	Cl	0.785496	0.828436	-0.568668
Cl137	Cl	0.546353	1.169730	-0.235788
H138	H	1.213273	0.459068	0.001494
Cl139	Cl	0.562961	1.079556	-0.255941
H140	H	1.391401	0.258098	0.551399
H141	H	0.600513	1.420665	-0.321958
Cl142	Cl	0.962308	0.131876	0.481337
H143	H	0.914578	0.326645	0.363845
H144	H	1.263191	0.077151	0.676448
Cl145	Cl	0.551772	1.092130	-0.540310
Cl146	Cl	0.325287	0.889856	0.182940
Cl147	Cl	0.263024	1.044165	0.107880
Cl148	Cl	1.534515	0.357122	0.325676
H149	H	1.841255	0.020854	0.645212
Cl150	Cl	0.836277	0.397451	0.215336
Cl151	Cl	1.179167	-0.023327	0.675796
H152	H	-0.079385	1.420741	-0.321965
Cl153	Cl	0.341159	0.658227	0.327735
Cl154	Cl	0.799662	1.309580	-0.157997
H155	H	1.012486	0.211275	0.002226
Cl156	Cl	1.402563	0.327106	-0.052871
Cl157	Cl	1.697983	0.206643	0.046323
Cl158	Cl	1.843495	0.131930	0.481256
Cl159	Cl	-0.081622	1.309650	-0.158012
Cl160	Cl	0.015740	1.199801	0.142776
Cl161	Cl	0.419657	1.169727	-0.235793
H162	H	1.639795	0.077078	0.676466
H163	H	0.847314	1.114867	-0.040580
Cl164	Cl	0.809367	0.357787	0.248002
H165	H	1.164421	0.400938	-0.416630
Cl166	Cl	0.227361	1.084440	-0.002436
H167	H	0.122081	1.364505	-0.353220
Cl168	Cl	0.606557	0.958875	0.341196
Cl169	Cl	0.495574	0.486985	0.303502
H170	H	1.688158	0.265425	0.160972
Cl171	Cl	0.359302	1.114479	0.376087
H172	H	0.112394	1.204427	0.270028
Cl173	Cl	1.498858	0.397379	0.215364
H174	H	0.726011	0.107797	0.349629
Cl175	Cl	0.727682	0.237198	0.347314
Cl176	Cl	0.925605	0.044097	0.107904
H177	H	0.946807	0.114375	0.082036
Cl178	Cl	1.028632	0.482710	-0.017972
Cl179	Cl	1.057563	0.326835	-0.052690
H180	H	0.165202	0.874451	0.161722
H181	H	0.128784	0.914227	0.052288
H182	H	0.274448	0.752559	0.033186
Cl183	Cl	0.440606	0.548111	0.143842
Cl184	Cl	0.268917	0.952315	0.013161
Cl185	Cl	0.628767	0.546574	0.145252
Cl186	Cl	0.419167	0.785405	-0.004356
H187	H	0.929765	0.665707	-0.141294
H188	H	1.022121	0.561492	-0.152502
H189	H	1.214057	0.344956	-0.263501
Cl190	Cl	0.727626	0.893732	-0.561640
Cl191	Cl	1.210147	0.349414	-0.136450
H192	H	1.190642	0.258153	0.551365
