data_functionalizedCrystal
_audit_creation_method	'MofGen! by Chris Wilmer'
_symmetry_space_group_name_H-M	'P1'
_symmetry_Int_Tables_number	1
_symmetry_cell_setting	triclinic
loop_
_symmetry_equiv_pos_as_xyz
  x,y,z
_cell_length_a	17.639762
_cell_length_b	25.639240
_cell_length_c	17.639306
_cell_angle_alpha	101.177631
_cell_angle_beta	87.803760
_cell_angle_gamma	101.263786
loop_
_atom_site_label
_atom_site_type_symbol
_atom_site_fract_x
_atom_site_fract_y
_atom_site_fract_z
Zn1	Zn	1.247763	-0.067138	-0.195043
Zn2	Zn	1.221995	-0.141044	-0.068054
Zn3	Zn	1.095108	-0.074045	-0.093696
Zn4	Zn	1.120692	-0.174981	-0.220620
O5	O	1.171389	-0.114302	-0.144353
O6	O	1.350628	-0.059847	-0.156763
O7	O	1.183671	-0.120844	0.034808
O8	O	1.115435	0.000043	-0.107167
O9	O	1.331695	-0.114146	-0.063464
O10	O	1.227591	0.005118	-0.181626
O11	O	1.090448	-0.071621	0.015969
O12	O	0.992219	-0.104529	-0.131968
O13	O	1.159040	-0.171988	-0.323491
O14	O	1.011016	-0.178686	-0.225218
O15	O	1.252399	-0.092755	-0.304700
O16	O	1.208479	-0.218717	-0.088265
O17	O	1.134053	-0.243651	-0.200355
C18	C	0.974060	-0.146040	-0.184151
C19	C	0.889645	-0.159632	-0.201195
C20	C	0.780456	-0.217436	-0.273685
C21	C	0.859776	-0.204660	-0.257664
C22	C	0.840200	-0.127361	-0.160728
C23	C	0.760878	-0.140130	-0.176743
C24	C	0.731012	-0.185168	-0.233222
C25	C	0.711434	-0.107862	-0.136281
C26	C	0.632118	-0.120631	-0.152292
C27	C	0.602246	-0.165668	-0.208767
C28	C	0.651697	-0.197937	-0.249234
C29	C	0.741300	-0.062826	-0.079799
C30	C	0.691857	-0.030558	-0.039336
C31	C	0.612540	-0.043325	-0.055351
C32	C	0.582668	-0.088362	-0.111826
C33	C	0.563090	-0.011056	-0.014884
C34	C	0.483774	-0.023825	-0.030896
C35	C	0.503352	-0.101131	-0.127837
C36	C	1.171270	-0.250155	-0.144315
C37	C	1.171294	-0.308266	-0.144311
C38	C	1.229831	-0.665946	-0.183207
C39	C	1.229856	-0.720548	-0.183218
O40	O	1.279486	-0.746518	-0.216254
N41	N	1.171510	-0.750532	-0.144405
C42	C	1.113129	-0.725912	-0.105586
O43	O	1.063503	-0.756429	-0.072574
C44	C	1.113102	-0.671312	-0.105580
C45	C	1.171456	-0.641329	-0.144389
C46	C	1.288180	-0.635964	-0.222013
C47	C	1.288155	-0.581365	-0.222001
C48	C	1.229781	-0.556748	-0.183183
C49	C	1.171431	-0.586730	-0.144376
C50	C	1.054719	-0.646694	-0.066765
C51	C	1.054696	-0.592089	-0.066763
C52	C	1.113051	-0.562107	-0.105572
C53	C	1.113032	-0.507515	-0.105546
N54	N	1.171379	-0.477531	-0.144358
C55	C	1.229753	-0.502148	-0.183177
C56	C	1.113192	-0.840576	-0.105602
C57	C	1.113222	-0.895175	-0.105603
C58	C	1.229948	-0.889808	-0.183237
C59	C	1.229920	-0.835207	-0.183231
C60	C	1.171538	-0.810593	-0.144415
C61	C	1.229696	-0.387486	-0.183147
C62	C	1.229668	-0.332882	-0.183129
C63	C	1.112940	-0.338255	-0.105499
C64	C	1.112970	-0.392854	-0.105514
C65	C	1.171352	-0.417468	-0.144344
O66	O	1.063425	-0.481510	-0.072529
O67	O	1.279365	-0.471626	-0.216191
C68	C	1.369490	-0.082440	-0.104400
C69	C	1.453908	-0.068863	-0.087375
C70	C	1.211448	-0.135387	-0.342419
C71	C	1.228518	-0.144371	-0.426822
C72	C	1.171533	0.022084	-0.144404
C73	C	1.171595	0.080203	-0.144425
C74	C	1.042003	-0.045801	-0.753476
C75	C	1.058060	-0.054253	-0.832783
C76	C	1.155123	-0.105503	-0.813148
C77	C	1.139077	-0.097054	-0.733838
C78	C	1.082515	-0.067204	-0.704008
C79	C	1.179589	-0.118457	-0.684370
C80	C	1.163541	-0.110011	-0.605067
C81	C	1.106980	-0.080162	-0.575232
C82	C	1.066467	-0.058758	-0.624705
C83	C	1.236147	-0.148311	-0.714201
C84	C	1.276659	-0.169713	-0.664734
C85	C	1.260615	-0.161264	-0.585428
C86	C	1.204054	-0.131415	-0.555593
C87	C	1.301128	-0.182668	-0.535955
C88	C	1.285080	-0.174222	-0.456652
C89	C	1.188006	-0.122969	-0.476290
C90	C	1.131531	-0.093255	0.052951
C91	C	1.114608	-0.084099	0.137383
H92	H	0.716184	0.006111	0.006651
N93	N	1.328775	-0.197300	-0.403288
H94	H	1.291225	-0.222992	-0.376603
H95	H	1.367043	-0.217462	-0.434266
H96	H	1.249213	-0.155185	-0.778775
N97	N	1.292605	-0.300548	-0.224999
H98	H	1.283736	-0.262222	-0.219104
H99	H	1.344481	-0.300085	-0.202287
N100	N	1.014359	-0.031169	-0.886140
H101	H	0.976093	-0.010979	-0.855207
H102	H	1.051956	-0.005502	-0.912818
N103	N	0.980998	-0.013605	-0.721292
H104	H	1.005233	0.019093	-0.682172
H105	H	0.957787	-0.001363	-0.764707
N106	N	1.089676	-0.071046	-0.489697
H107	H	1.047699	-0.048887	-0.478308
H108	H	1.071847	-0.107144	-0.473442
H109	H	1.141955	-0.098655	-0.452000
H110	H	1.322709	-0.194019	-0.689032
N111	N	1.351087	-0.549036	-0.263874
H112	H	1.342221	-0.510709	-0.257986
H113	H	1.402964	-0.548572	-0.241163
H114	H	0.537662	-0.176064	-0.221802
N115	N	1.351155	-0.662497	-0.263891
H116	H	1.380163	-0.676191	-0.225966
H117	H	1.327343	-0.693847	-0.305299
H118	H	0.864527	-0.090693	-0.114741
N119	N	0.619478	-0.246516	-0.310148
H120	H	0.561729	-0.249707	-0.314148
H121	H	0.644326	-0.241979	-0.361605
H122	H	0.479036	-0.137801	-0.173835
H123	H	1.020416	-0.034443	-0.600416
H124	H	0.805885	-0.052432	-0.066763
N125	N	0.595304	0.037515	0.046037
H126	H	0.653053	0.040706	0.050043
H127	H	0.583885	0.071348	0.031320
H128	H	1.347175	-0.206977	-0.560255
N129	N	0.430438	0.010975	0.012746
H130	H	0.461393	0.041444	0.050953
H131	H	0.403815	0.026543	-0.024874
N132	N	0.913106	-0.239466	-0.301306
H133	H	0.882148	-0.269935	-0.339513
H134	H	0.953156	-0.216670	-0.329863
H135	H	1.277232	-0.407522	-0.214773
H136	H	0.756140	-0.254106	-0.319683
H137	H	1.277437	-0.810799	-0.214832
N138	N	1.292912	-0.916364	-0.225107
H139	H	1.284068	-0.955502	-0.219221
H140	H	1.292007	-0.914490	-0.281723
N141	N	1.050292	-0.927507	-0.063731
H142	H	1.013313	-0.903621	-0.039139
H143	H	1.021370	-0.959116	-0.101707
N144	N	0.991725	-0.565545	-0.024888
H145	H	1.015495	-0.534174	0.016514
H146	H	0.962746	-0.551882	-0.062867
H147	H	1.065651	-0.820537	-0.073987
N148	N	0.991780	-0.679023	-0.024905
H149	H	0.954799	-0.655135	-0.000321
H150	H	0.962861	-0.710632	-0.062884
N151	N	1.050040	-0.425193	-0.063647
H152	H	1.013059	-0.401310	-0.039051
H153	H	1.021121	-0.456800	-0.101629
H154	H	1.201173	-0.129810	-0.837447
H155	H	1.065414	-0.318203	-0.073891
