data_functionalizedCrystal
_audit_creation_method	'MofGen! by Chris Wilmer'
_symmetry_space_group_name_H-M	'P1'
_symmetry_Int_Tables_number	1
_symmetry_cell_setting	triclinic
loop_
_symmetry_equiv_pos_as_xyz
  x,y,z
_cell_length_a	16.625545
_cell_length_b	19.805407
_cell_length_c	19.805399
_cell_angle_alpha	89.980803
_cell_angle_beta	90.025578
_cell_angle_gamma	89.978292
loop_
_atom_site_label
_atom_site_type_symbol
_atom_site_fract_x
_atom_site_fract_y
_atom_site_fract_z
Zn1	Zn	-0.321103	-1.034740	0.382722
Zn2	Zn	0.178897	-0.534740	0.882722
Zn3	Zn	-0.455940	-1.034656	0.269538
Zn4	Zn	0.044060	-0.534656	0.769538
Zn5	Zn	-0.321116	-0.921554	0.269548
Zn6	Zn	0.178884	-0.421554	0.769548
Zn7	Zn	-0.455888	-0.921519	0.382685
Zn8	Zn	0.044112	-0.421519	0.882685
O9	O	-0.388512	-0.978117	0.326123
O10	O	0.111488	-0.478117	0.826123
O11	O	-0.339006	-1.129445	0.367719
O12	O	0.160994	-0.629445	0.867719
O13	O	-0.438083	-1.019633	0.174823
O14	O	0.061917	-0.519633	0.674823
O15	O	-0.208282	-0.936618	0.284580
O16	O	0.291718	-0.436618	0.784580
O17	O	-0.438070	-1.129384	0.284563
O18	O	0.061930	-0.629384	0.784563
O19	O	-0.208272	-1.019775	0.367729
O20	O	0.291728	-0.519775	0.867729
O21	O	-0.339028	-0.936537	0.174830
O22	O	0.160972	-0.436537	0.674830
O23	O	-0.338978	-0.826833	0.284544
O24	O	0.161022	-0.326833	0.784544
O25	O	-0.437982	-0.936559	0.477407
O26	O	0.062018	-0.436559	0.977407
O27	O	-0.437994	-0.826808	0.367666
O28	O	0.062006	-0.326808	0.867666
O29	O	-0.338955	-1.019741	0.477434
O30	O	0.161045	-0.519741	0.977434
O31	O	-0.568766	-1.019599	0.284528
O32	O	-0.068766	-0.519599	0.784528
O33	O	-0.568728	-0.936478	0.367657
O34	O	-0.068728	-0.436478	0.867657
C35	C	-0.388483	-0.802261	0.326103
C36	C	0.111517	-0.302261	0.826103
C37	C	-0.388489	-0.727029	0.326110
C38	C	0.111511	-0.227029	0.826110
C39	C	-0.336997	-0.691718	0.369474
C40	C	0.163003	-0.191718	0.869474
C41	C	-0.336999	-0.621029	0.369475
C42	C	0.163001	-0.121029	0.869475
C43	C	-0.388499	-0.585654	0.326114
C44	C	0.111501	-0.085654	0.826114
C45	C	-0.439994	-0.620970	0.282745
C46	C	0.060006	-0.120970	0.782745
C47	C	-0.439987	-0.691658	0.282742
C48	C	0.060013	-0.191658	0.782742
C49	C	-0.440023	-0.335897	0.282759
C50	C	0.059977	0.164103	0.782759
C51	C	-0.440028	-0.265205	0.282768
C52	C	0.059972	0.234795	0.782768
C53	C	-0.337036	-0.265269	0.369493
C54	C	0.162964	0.234731	0.869493
C55	C	-0.337029	-0.335956	0.369489
C56	C	0.162971	0.164044	0.869489
C57	C	-0.388520	-0.371266	0.326118
C58	C	0.111480	0.128734	0.826118
C59	C	-0.388516	-0.447915	0.326116
C60	C	0.111484	0.052085	0.826116
C61	C	-0.388508	-0.509007	0.326119
C62	C	0.111492	-0.009007	0.826119
C63	C	-0.598003	-0.978044	0.326102
C64	C	-0.098003	-0.478044	0.826102
C65	C	-0.687624	-0.978074	0.326116
C66	C	-0.187624	-0.478074	0.826116
C67	C	-0.760406	-0.978101	0.326129
C68	C	-0.260406	-0.478101	0.826129
C69	C	-0.851715	-0.978140	0.326144
C70	C	-0.351715	-0.478140	0.826144
C71	C	-0.924491	-0.978175	0.326153
C72	C	-0.424491	-0.478175	0.826153
C73	C	-1.015806	-0.978214	0.326166
C74	C	-0.515806	-0.478214	0.826166
C75	C	-0.178203	-0.978210	0.326160
C76	C	0.321797	-0.478210	0.826160
C77	C	-0.088582	-0.978249	0.326175
C78	C	0.411418	-0.478249	0.826175
C79	C	-0.388461	-0.978155	0.502666
C80	C	0.111539	-0.478155	1.002666
C81	C	-0.388440	-0.978172	0.577898
C82	C	0.111560	-0.478172	1.077898
C83	C	-0.388536	-0.154660	0.326138
C84	C	0.111464	0.345340	0.826138
C85	C	-0.388531	-0.229892	0.326129
C86	C	0.111469	0.270108	0.826129
C87	C	-0.388504	-0.978119	0.150267
C88	C	0.111496	-0.478119	0.650267
C89	C	-0.388299	-0.978234	0.075036
C90	C	0.111701	-0.478234	0.575036
C91	C	-0.336874	-1.021486	0.613257
C92	C	0.163126	-0.521486	1.113257
C93	C	-0.336851	-1.021493	0.683946
C94	C	0.163149	-0.521493	1.183946
C95	C	-0.388398	-0.978188	0.719274
C96	C	0.111602	-0.478188	1.219274
C97	C	-0.439965	-0.934870	0.683910
C98	C	0.060035	-0.434870	1.183910
C99	C	-0.439984	-0.934860	0.613222
C100	C	0.060016	-0.434860	1.113222
C101	C	-0.439890	-0.934908	0.968983
C102	C	0.060110	-0.434908	1.468983
C103	C	-0.439869	-0.934922	1.039675
C104	C	0.060131	-0.434922	1.539675
C105	C	-0.336757	-1.021541	1.039707
C106	C	0.163243	-0.521541	1.539707
C107	C	-0.336776	-1.021531	0.969019
C108	C	0.163224	-0.521531	1.469019
C109	C	-0.388340	-0.978210	0.933661
C110	C	0.111660	-0.478210	1.433661
C111	C	-0.388364	-0.978202	0.857013
C112	C	0.111636	-0.478202	1.357013
C113	C	-0.388379	-0.978199	0.795921
C114	C	0.111621	-0.478199	1.295921
H115	H	-0.481951	-0.364638	0.247444
H116	H	0.018049	0.135362	0.747444
H117	H	-0.481922	-0.592162	0.247437
H118	H	0.018078	-0.092162	0.747437
H119	H	-0.294768	-1.056812	1.068504
H120	H	0.205232	-0.556812	1.568504
H121	H	-0.481846	-0.899656	1.068437
H122	H	0.018154	-0.399656	1.568437
N123	N	-0.495520	-0.729747	0.235967
N124	N	0.004480	-0.229747	0.735967
H125	H	-0.528147	-0.696612	0.208499
H126	H	-0.028147	-0.196612	0.708499
H127	H	-0.532875	-0.759080	0.263459
H128	H	-0.032875	-0.259080	0.763459
H129	H	-0.295062	-0.720516	0.404785
H130	H	0.204938	-0.220516	0.904785
H131	H	-0.481889	-0.899643	0.940203
H132	H	0.018111	-0.399643	1.440203
N133	N	-0.495545	-0.888146	0.722009
N134	N	0.004455	-0.388146	1.222009
H135	H	-0.487707	-0.894722	0.772155
H136	H	0.012293	-0.394722	1.272155
H137	H	-0.553141	-0.898641	0.709650
H138	H	-0.053141	-0.398641	1.209650
N139	N	-0.495566	-0.227050	0.235988
N140	N	0.004434	0.272950	0.735988
H141	H	-0.487756	-0.176912	0.242574
H142	H	0.012244	0.323088	0.742574
H143	H	-0.553170	-0.239393	0.246428
H144	H	-0.053170	0.260607	0.746428
H145	H	-0.294901	-1.056751	0.584499
H146	H	0.205099	-0.556751	1.084499
H147	H	-0.295071	-0.592282	0.404788
H148	H	0.204929	-0.092282	0.904788
H149	H	-0.481966	-0.899582	0.584434
H150	H	0.018034	-0.399582	1.084434
H151	H	-0.294863	-1.056765	0.712732
H152	H	0.205137	-0.556765	1.212732
H153	H	-0.294804	-1.056796	0.940259
H154	H	0.205196	-0.556796	1.440259
N155	N	-0.281488	-0.374111	0.416259
N156	N	0.218512	0.125889	0.916259
H157	H	-0.248866	-0.341015	0.443731
H158	H	0.251134	0.158985	0.943731
H159	H	-0.244129	-0.403439	0.388760
H160	H	0.255871	0.096561	0.888760
N161	N	-0.281490	-0.227177	0.416262
N162	N	0.218510	0.272823	0.916262
H163	H	-0.223863	-0.239492	0.405835
H164	H	0.276137	0.260508	0.905835
H165	H	-0.294156	-0.239506	0.464586
H166	H	0.205844	0.260494	0.964586
