data_functionalizedCrystal
_audit_creation_method	'MofGen! by Chris Wilmer'
_symmetry_space_group_name_H-M	'P1'
_symmetry_Int_Tables_number	1
_symmetry_cell_setting	triclinic
loop_
_symmetry_equiv_pos_as_xyz
  x,y,z
_cell_length_a	19.077142
_cell_length_b	19.805406
_cell_length_c	19.805399
_cell_angle_alpha	89.985648
_cell_angle_beta	92.317588
_cell_angle_gamma	92.304021
loop_
_atom_site_label
_atom_site_type_symbol
_atom_site_fract_x
_atom_site_fract_y
_atom_site_fract_z
Zn1	Zn	-1.076116	-0.311139	-0.424334
Zn2	Zn	-0.576116	0.188861	0.075666
Zn3	Zn	-1.076082	-0.424326	-0.311171
Zn4	Zn	-0.576082	0.075674	0.188829
Zn5	Zn	-0.958418	-0.306601	-0.306614
Zn6	Zn	-0.458418	0.193399	0.193386
Zn7	Zn	-0.958435	-0.419735	-0.419775
Zn8	Zn	-0.458435	0.080265	0.080225
O9	O	-1.017263	-0.365450	-0.365474
O10	O	-0.517263	0.134550	0.134526
O11	O	-1.174604	-0.329974	-0.413138
O12	O	-0.674604	0.170026	0.086862
O13	O	-1.060452	-0.408732	-0.215849
O14	O	-0.560452	0.091268	0.284151
O15	O	-0.974039	-0.212487	-0.322231
O16	O	-0.474039	0.287513	0.177769
O17	O	-1.174579	-0.413132	-0.329997
O18	O	-0.674579	0.086868	0.170003
O19	O	-1.060511	-0.215821	-0.408720
O20	O	-0.560511	0.284179	0.091280
O21	O	-0.974005	-0.322240	-0.212501
O22	O	-0.474005	0.177760	0.287499
O23	O	-0.859928	-0.317788	-0.317810
O24	O	-0.359928	0.182212	0.182190
O25	O	-0.974067	-0.405308	-0.515097
O26	O	-0.474067	0.094692	-0.015097
O27	O	-0.859940	-0.400908	-0.400949
O28	O	-0.359940	0.099092	0.099051
O29	O	-1.060526	-0.325522	-0.518447
O30	O	-0.560526	0.174478	-0.018447
O31	O	-1.060468	-0.518433	-0.325576
O32	O	-0.560468	-0.018433	0.174424
O33	O	-0.974033	-0.515061	-0.405367
O34	O	-0.474033	-0.015061	0.094633
C35	C	-0.834396	-0.358358	-0.358391
C36	C	-0.334396	0.141642	0.141609
C37	C	-0.756165	-0.355340	-0.355377
C38	C	-0.256165	0.144660	0.144623
C39	C	-1.017268	-0.541307	-0.365487
C40	C	-0.517268	-0.041307	0.134513
C41	C	-1.017335	-0.616541	-0.365518
C42	C	-0.517335	-0.116541	0.134482
C43	C	-1.017302	-0.365409	-0.542018
C44	C	-0.517302	0.134591	-0.042018
C45	C	-1.017319	-0.365392	-0.617251
C46	C	-0.517319	0.134608	-0.117251
C47	C	-0.719436	-0.397263	-0.397178
C48	C	-0.219436	0.102737	0.102822
C49	C	-0.645930	-0.394419	-0.394350
C50	C	-0.145930	0.105581	0.105650
C51	C	-0.609153	-0.349654	-0.349715
C52	C	-0.109153	0.150346	0.150285
C53	C	-0.645887	-0.307726	-0.307912
C54	C	-0.145887	0.192274	0.192088
C55	C	-0.719392	-0.310568	-0.310744
C56	C	-0.219392	0.189432	0.189256
C57	C	-0.389313	-0.336505	-0.336612
C58	C	0.110687	0.163495	0.163388
C59	C	-0.315803	-0.333668	-0.333781
C60	C	0.184197	0.166332	0.166219
C61	C	-0.315851	-0.420360	-0.420220
C62	C	0.184149	0.079640	0.079780
C63	C	-0.389358	-0.423200	-0.423046
C64	C	0.110642	0.076800	0.076954
C65	C	-0.426085	-0.381270	-0.381245
C66	C	0.073915	0.118730	0.118755
N67	N	-0.534018	-0.346747	-0.346821
N68	N	-0.034018	0.153253	0.153179
N69	N	-0.501219	-0.384174	-0.384143
N70	N	-0.001219	0.115826	0.115857
C71	C	-0.200843	-0.372567	-0.372577
C72	C	0.299157	0.127433	0.127423
C73	C	-0.279075	-0.375591	-0.375583
C74	C	0.220925	0.124409	0.124417
C75	C	-1.017277	-0.188908	-0.365476
C76	C	-0.517277	0.311092	0.134524
C77	C	-1.017283	-0.113676	-0.365477
C78	C	-0.517283	0.386324	0.134523
C79	C	-0.972267	-0.076596	-0.320449
C80	C	-0.472267	0.423404	0.179551
C81	C	-0.972271	-0.005907	-0.320456
C82	C	-0.472271	0.494093	0.179544
C83	C	-1.017296	0.027699	-0.365489
C84	C	-0.517296	0.527699	0.134511
C85	C	-1.062313	-0.009387	-0.410522
C86	C	-0.562313	0.490613	0.089478
C87	C	-1.062305	-0.080074	-0.410517
C88	C	-0.562305	0.419926	0.089483
C89	C	-1.062348	0.275685	-0.410543
C90	C	-0.562348	0.775685	0.089457
C91	C	-1.062354	0.346377	-0.410543
C92	C	-0.562354	0.846377	0.089457
C93	C	-0.972314	0.349851	-0.320482
C94	C	-0.472314	0.849851	0.179518
C95	C	-0.972306	0.279165	-0.320477
C96	C	-0.472306	0.779165	0.179523
C97	C	-1.017321	0.242085	-0.365512
C98	C	-0.517321	0.742085	0.134488
C99	C	-1.017314	0.165437	-0.365504
C100	C	-0.517314	0.665437	0.134496
C101	C	-1.017306	0.104345	-0.365494
C102	C	-0.517306	0.604345	0.134506
C103	C	-1.062340	-0.323845	-0.654340
C104	C	-0.562340	0.176155	-0.154340
C105	C	-1.062347	-0.323826	-0.725029
C106	C	-0.562347	0.176174	-0.225029
C107	C	-1.017336	-0.365357	-0.758627
C108	C	-0.517336	0.134643	-0.258627
C109	C	-0.972311	-0.406905	-0.721532
C110	C	-0.472311	0.093095	-0.221532
C111	C	-0.972301	-0.406920	-0.650845
C112	C	-0.472301	0.093080	-0.150845
C113	C	-0.972350	-0.406844	-1.006607
C114	C	-0.472350	0.093156	-0.506607
C115	C	-0.972366	-0.406827	-1.077300
C116	C	-0.472366	0.093173	-0.577300
C117	C	-1.062397	-0.323749	-1.080791
C118	C	-0.562397	0.176251	-0.580791
C119	C	-1.062387	-0.323764	-1.010104
C120	C	-0.562387	0.176236	-0.510104
C121	C	-1.017359	-0.365310	-0.973015
C122	C	-0.517359	0.134690	-0.473015
C123	C	-1.017350	-0.365329	-0.896366
C124	C	-0.517350	0.134671	-0.396366
C125	C	-1.017348	-0.365342	-0.835275
C126	C	-0.517348	0.134658	-0.335275
C127	C	-1.017264	-0.365444	-0.189618
C128	C	-0.517264	0.134556	0.310382
C129	C	-1.017383	-0.365276	-0.114391
C130	C	-0.517383	0.134724	0.385609
H131	H	-0.749375	-0.433718	-0.433522
H132	H	-0.249375	0.066282	0.066478
Br133	Br	-0.769239	-0.253666	-0.254015
Br134	Br	-0.269239	0.246334	0.245985
Br135	Br	-0.595976	-0.246967	-0.247342
Br136	Br	-0.095976	0.253033	0.252658
H137	H	-1.098956	-0.110264	-0.447188
H138	H	-0.598956	0.389736	0.052812
Br139	Br	-0.911165	-0.122197	-0.259324
Br140	Br	-0.411165	0.377803	0.240676
Br141	Br	-1.123482	-0.267472	-0.775364
Br142	Br	-0.623482	0.232528	-0.275364
H143	H	-0.935616	0.024284	-0.283792
H144	H	-0.435616	0.524284	0.216208
H145	H	-1.099020	0.373737	-0.447217
H146	H	-0.599020	0.873737	0.052783
H147	H	-0.935645	0.251806	-0.283805
H148	H	-0.435645	0.751806	0.216195
H149	H	-0.419296	-0.459654	-0.459391
H150	H	0.080704	0.040346	0.040609
Br151	Br	-0.266004	-0.477265	-0.476944
Br152	Br	0.233996	0.022735	0.023056
H153	H	-1.098970	0.017979	-0.447192
H154	H	-0.598970	0.517979	0.052808
H155	H	-0.419208	-0.302367	-0.302570
H156	H	0.080792	0.197633	0.197430
H157	H	-0.935658	0.380049	-0.283814
H158	H	-0.435658	0.880049	0.216186
Br159	Br	-1.123434	-0.267484	-0.608750
Br160	Br	-0.623434	0.232516	-0.108750
Br161	Br	-1.123431	0.225372	-0.471670
Br162	Br	-0.623431	0.725372	0.028330
Br163	Br	-1.123478	-0.267403	-0.964510
Br164	Br	-0.623478	0.232597	-0.464510
Br165	Br	-0.911240	-0.463225	-0.956281
Br166	Br	-0.411240	0.036775	-0.456281
H167	H	-1.099058	-0.289919	-1.110997
H168	H	-0.599058	0.210081	-0.610997
Br169	Br	-0.911277	-0.463195	-1.122897
Br170	Br	-0.411277	0.036805	-0.622897
H171	H	-0.935633	-0.440745	-0.620647
H172	H	-0.435633	0.059255	-0.120647
Br173	Br	-0.596086	-0.451316	-0.451085
Br174	Br	-0.096086	0.048684	0.048915
Br175	Br	-0.265892	-0.272919	-0.273194
Br176	Br	0.234108	0.227081	0.226806
Br177	Br	-0.911220	-0.463265	-0.767129
Br178	Br	-0.411220	0.036735	-0.267129
