data_functionalizedCrystal
_audit_creation_method	'MofGen! by Chris Wilmer'
_symmetry_space_group_name_H-M	'P1'
_symmetry_Int_Tables_number	1
_symmetry_cell_setting	triclinic
loop_
_symmetry_equiv_pos_as_xyz
  x,y,z
_cell_length_a	10.540535
_cell_length_b	10.540539
_cell_length_c	13.101039
_cell_angle_alpha	93.398267
_cell_angle_beta	86.610860
_cell_angle_gamma	84.524567
loop_
_atom_site_label
_atom_site_type_symbol
_atom_site_fract_x
_atom_site_fract_y
_atom_site_fract_z
O1	O	1.692806	0.171935	-0.085153
O2	O	2.192806	0.671935	0.414847
O3	O	1.323393	0.188796	-0.085167
O4	O	1.823393	0.688796	0.414833
O5	O	1.516527	-0.004341	-0.085159
O6	O	2.016527	0.495659	0.414841
O7	O	1.499671	0.365072	-0.085162
O8	O	1.999671	0.865072	0.414838
O9	O	1.502670	0.009539	0.085271
O10	O	2.002670	0.509539	0.585271
O11	O	1.309536	0.202676	0.085262
O12	O	1.809536	0.702676	0.585262
O13	O	1.678949	0.185815	0.085276
O14	O	2.178949	0.685815	0.585276
Zn15	Zn	1.492042	0.196449	0.112328
Zn16	Zn	1.992042	0.696449	0.612328
Zn17	Zn	1.510299	0.178161	-0.112219
Zn18	Zn	2.010299	0.678161	0.387781
O19	O	1.485815	0.378952	0.085267
O20	O	1.985815	0.878952	0.585267
C21	C	1.269162	0.194472	0.000046
C22	C	1.769162	0.694472	0.500046
C23	C	1.128214	0.190692	0.000040
C24	C	1.628214	0.690692	0.500040
C25	C	1.091543	0.049679	0.000046
C26	C	1.591543	0.549679	0.500046
C27	C	0.944910	0.045734	0.000443
C28	C	1.444910	0.545734	0.500443
C29	C	0.910979	0.262975	0.097186
C30	C	1.410979	0.762975	0.597186
C31	C	1.057739	0.265981	0.097257
C32	C	1.557739	0.765981	0.597257
C33	C	1.073381	0.252247	-0.096559
C34	C	1.573381	0.752247	0.403441
C35	C	0.927138	0.245623	-0.097826
C36	C	1.427138	0.745623	0.402174
C37	C	1.508335	-0.044704	0.000054
C38	C	2.008335	0.455296	0.500054
C39	C	1.504553	-0.185653	0.000048
C40	C	2.004553	0.314347	0.500048
C41	C	1.359667	-0.369109	-0.000339
C42	C	1.859667	0.130891	0.499661
C43	C	1.363470	-0.222459	0.000044
C44	C	1.863470	0.277541	0.500044
C45	C	1.564536	-0.239385	0.097375
C46	C	2.064536	0.260615	0.597375
C47	C	1.559714	-0.385923	0.097456
C48	C	2.059714	0.114077	0.597456
C49	C	1.578342	-0.402226	-0.096353
C50	C	2.078342	0.097774	0.403647
C51	C	1.579746	-0.255348	-0.097640
C52	C	2.079746	0.244652	0.402360
C53	C	1.733180	0.180138	0.000061
C54	C	2.233180	0.680138	0.500061
C55	C	1.874129	0.183918	0.000060
C56	C	2.374129	0.683918	0.500060
C57	C	1.494007	0.419315	0.000053
C58	C	1.994007	0.919315	0.500053
C59	C	1.497789	0.560263	0.000051
C60	C	1.997789	1.060263	0.500051
N61	N	1.479592	0.208930	0.265576
N62	N	1.979592	0.708930	0.765576
N63	N	1.522760	0.165671	-0.265467
N64	N	2.022760	0.665671	0.234533
C65	C	1.462652	0.225922	0.474618
C66	C	1.962652	0.725922	0.974618
C67	C	1.539696	0.148683	0.525497
C68	C	2.039696	0.648683	1.025497
C69	C	1.530270	0.158138	0.641815
C70	C	2.030270	0.658138	1.141815
C71	C	1.472076	0.216469	0.358290
C72	C	1.972076	0.716469	0.858290
H73	H	0.878591	0.345994	-0.103994
H74	H	1.378591	0.845994	0.396006
H75	H	0.863351	0.365012	0.100523
H76	H	1.363351	0.865012	0.600523
H77	H	1.121828	0.202247	-0.170203
H78	H	1.621828	0.702247	0.329797
H79	H	1.389620	0.299144	0.518412
H80	H	1.889620	0.799144	1.018412
Br81	Br	1.736734	-0.201645	0.103418
Br82	Br	2.236734	0.298355	0.603418
H83	H	1.503621	-0.408196	0.170206
H84	H	2.003621	0.091804	0.670206
Br85	Br	1.264325	-0.143363	0.116511
Br86	Br	1.764325	0.356637	0.616511
H87	H	0.921232	-0.015577	-0.069167
H88	H	1.421232	0.484423	0.430833
Br89	Br	1.170928	-0.050040	-0.116030
Br90	Br	1.670928	0.449960	0.383970
H91	H	1.129346	0.002099	0.069595
H92	H	1.629346	0.502099	0.569595
H93	H	0.910763	-0.003931	0.070479
H94	H	1.410763	0.496069	0.570479
Br95	Br	1.476116	-0.158556	0.218089
Br96	Br	1.976116	0.341444	0.718089
Br97	Br	1.661972	0.027175	0.452503
Br98	Br	2.161972	0.527175	0.952503
Br99	Br	1.512221	-0.464809	-0.219305
Br100	Br	2.012221	0.035191	0.280695
Br101	Br	1.114824	0.195794	0.218734
Br102	Br	1.614824	0.695794	0.718734
H103	H	0.874177	0.220072	0.169747
H104	H	1.374177	0.720072	0.669747
Br105	Br	1.283882	-0.160913	-0.116240
Br106	Br	1.783882	0.339087	0.383760
Br107	Br	1.095573	0.438836	0.104160
Br108	Br	1.595573	0.938836	0.604160
H109	H	0.904378	0.187995	-0.169681
H110	H	1.404378	0.687995	0.330319
H111	H	1.298520	-0.393663	0.069060
H112	H	1.798520	0.106337	0.569060
H113	H	1.095642	0.355922	-0.097500
H114	H	1.595642	0.855922	0.402500
Br115	Br	1.276228	-0.426243	-0.116671
Br116	Br	1.776228	0.073757	0.383329
H117	H	1.660820	-0.433533	0.101875
H118	H	2.160820	0.066467	0.601875
H119	H	1.535921	-0.220353	-0.169639
H120	H	2.035921	0.279647	0.330361
Br121	Br	1.751984	-0.215772	-0.107440
Br122	Br	2.251984	0.284228	0.392560
Br123	Br	1.748275	-0.481028	-0.097441
Br124	Br	2.248275	0.018972	0.402559
