data_functionalizedCrystal
_audit_creation_method	'MofGen! by Chris Wilmer'
_symmetry_space_group_name_H-M	'P1'
_symmetry_Int_Tables_number	1
_symmetry_cell_setting	triclinic
loop_
_symmetry_equiv_pos_as_xyz
  x,y,z
_cell_length_a	14.560438
_cell_length_b	19.851628
_cell_length_c	14.560438
_cell_angle_alpha	89.997389
_cell_angle_beta	60.005799
_cell_angle_gamma	60.001347
loop_
_atom_site_label
_atom_site_type_symbol
_atom_site_fract_x
_atom_site_fract_y
_atom_site_fract_z
Zr1	Zr	1.005275	0.648939	-0.120453
O2	O	1.196849	0.541389	-0.267061
O3	O	0.813693	0.681904	-0.075529
O4	O	1.005282	0.681910	-0.267105
O5	O	1.005258	0.541383	0.075656
O6	O	1.005295	0.792760	-0.267118
O7	O	1.005261	0.541383	-0.075485
O8	O	0.662579	0.792750	0.075577
O9	O	1.347974	0.541393	-0.267039
O10	O	0.892507	0.778695	-0.056356
O11	O	0.892495	0.695969	0.056448
O12	O	1.118065	0.695975	-0.169108
O13	O	1.118053	0.613249	-0.056304
Zr14	Zr	1.005293	0.825732	0.120579
Zr15	Zr	1.005297	0.825732	-0.120473
Zr16	Zr	1.005271	0.648939	0.120599
Zr17	Zr	1.246303	0.648946	-0.120418
Zr18	Zr	0.764265	0.825725	0.120544
O19	O	1.196874	0.792766	0.075655
O20	O	1.196880	0.792766	-0.267090
O21	O	1.196843	0.541389	0.075684
O22	O	0.813719	0.933282	0.267187
O23	O	0.813725	0.933282	-0.075558
O24	O	0.813688	0.681905	0.267216
O25	O	1.005310	0.933287	-0.075530
O26	O	1.005286	0.792761	0.267231
O27	O	1.005272	0.681910	0.267244
O28	O	1.005307	0.933287	0.075611
O29	O	1.347992	0.681920	-0.267055
O30	O	0.662576	0.792750	0.267181
O31	O	0.662594	0.933278	0.267165
O32	O	0.662597	0.933277	0.075561
O33	O	1.347971	0.541393	-0.075435
O34	O	1.347989	0.681920	-0.075451
O35	O	0.892503	0.778695	0.169234
O36	O	0.892515	0.861421	0.056430
O37	O	1.118073	0.778702	-0.056323
O38	O	1.118061	0.695975	0.056482
C39	C	0.703795	0.737326	0.000019
C40	C	0.601473	0.737323	0.000004
C41	C	0.636593	0.676260	-0.083211
C42	C	0.540404	0.676273	-0.083155
C43	C	0.373975	0.798417	0.083341
C44	C	0.470163	0.798406	0.083279
C45	C	0.732679	0.605739	-0.179333
C46	C	0.636490	0.605752	-0.179277
C47	C	1.005256	0.516194	0.000088
C48	C	1.005247	0.441140	0.000097
C49	C	0.882291	0.259982	0.061545
C50	C	0.943747	0.282363	-0.044491
C51	C	1.005298	0.170958	0.000049
C52	C	0.943778	0.282337	0.106095
C53	C	1.005266	0.303710	0.000078
C54	C	1.066755	0.192350	-0.106050
C55	C	1.066768	0.192327	0.044612
C56	C	1.128314	0.214655	-0.061488
C57	C	1.005312	0.094484	0.000034
C58	C	1.005261	0.380179	0.000081
C59	C	1.306773	0.737344	0.000107
C60	C	1.409095	0.737347	0.000122
C61	C	1.005289	0.737335	-0.301457
C62	C	1.005291	0.737335	-0.403790
C63	C	1.005312	0.958477	0.000038
C64	C	1.005321	1.033530	0.000029
C65	C	1.123028	0.694153	-0.510721
C66	C	1.123021	0.694155	-0.606870
C67	C	0.887531	0.780523	-0.489142
C68	C	0.887539	0.780525	-0.392995
C69	C	1.258986	0.644286	-0.578692
C70	C	1.258980	0.644288	-0.674841
C71	C	1.005279	0.737335	0.301582
C72	C	1.005277	0.737336	0.403915
C73	C	0.703823	0.958468	-0.000007
C74	C	0.601510	1.033518	-0.000030
C75	C	0.703790	0.737327	0.301538
C76	C	0.601466	0.737324	0.403856
C77	C	0.703818	0.958468	0.301513
C78	C	0.601503	1.033518	0.403822
C79	C	1.306750	0.516202	-0.301387
C80	C	1.409065	0.441152	-0.403696
C81	C	1.306745	0.516203	0.000132
C82	C	1.409058	0.441152	0.000156
C83	C	1.306778	0.737344	-0.301412
C84	C	1.409102	0.737347	-0.403730
C85	C	0.553458	1.025580	-0.058924
C86	C	0.457337	1.096091	-0.058969
C87	C	0.409263	1.174539	-0.000112
C88	C	0.457325	1.182476	0.058783
C89	C	0.553450	1.111965	0.058821
C90	C	0.553461	1.111953	0.392985
C91	C	0.457339	1.182477	0.489107
C92	C	0.409253	1.174566	0.596064
C93	C	0.457305	1.096123	0.606899
C94	C	0.553432	1.025601	0.510778
C95	C	1.457118	0.362718	-0.392859
C96	C	1.553271	0.292193	-0.488981
C97	C	1.601361	0.300105	-0.595938
C98	C	1.553304	0.378547	-0.606773
C99	C	1.457160	0.449070	-0.510653
C100	C	1.457120	0.449090	0.059040
C101	C	1.553267	0.378579	0.059058
C102	C	1.601344	0.300131	0.000198
C103	C	1.553279	0.292195	-0.058693
C104	C	1.457140	0.362705	-0.058717
C105	C	0.553393	0.780506	0.510798
C106	C	0.457254	0.780497	0.606933
C107	C	0.457264	0.694122	0.489170
C108	C	0.553408	0.694127	0.393038
C109	C	0.553382	0.830377	0.578789
C110	C	0.457243	0.830367	0.674923
H111	H	0.441557	0.848137	0.151032
H112	H	0.267055	0.848148	0.151142
H113	H	0.592558	0.658954	0.305963
Cl114	Cl	0.636436	0.624769	-0.297322
H115	H	1.311168	0.578260	-0.727020
H116	H	0.795656	0.611809	-0.261466
H117	H	1.301172	0.677191	-0.725761
H118	H	1.418010	0.356230	-0.106664
Cl119	Cl	1.613769	0.388479	-0.741242
H120	H	0.643383	0.802644	0.578823
H121	H	0.367235	0.896393	0.727101
H122	H	0.592598	1.118410	0.305904
H123	H	1.118711	0.153531	0.082323
Cl124	Cl	0.739521	0.834808	-0.258566
Cl125	Cl	0.721758	0.288406	0.141677
Cl126	Cl	1.613661	0.193591	-0.475334
Cl127	Cl	1.613667	0.388575	0.133104
Cl128	Cl	0.396843	0.639820	0.475580
H129	H	0.891768	0.321128	0.195765
Cl130	Cl	0.824804	0.519151	-0.153391
H131	H	0.418139	1.089694	0.693996
Cl132	Cl	0.613879	0.926968	-0.132930
H133	H	0.647296	0.545529	-0.170961
Cl134	Cl	0.613838	1.121959	0.132876
H135	H	1.418035	0.512932	-0.519490
H136	H	0.517260	0.894220	0.570047
Cl137	Cl	0.739509	0.834815	-0.475582
Cl138	Cl	0.613807	0.927000	0.524422
Cl139	Cl	1.396681	0.352751	-0.258410
H140	H	1.679627	0.242724	0.000227
Cl141	Cl	0.863485	0.342262	-0.102677
H142	H	1.118703	0.153664	-0.195762
Cl143	Cl	0.288415	1.263174	-0.000168
Cl144	Cl	0.288404	1.263232	0.716892
Cl145	Cl	1.396707	0.547702	0.133038
H146	H	1.679647	0.242674	-0.674196
H147	H	0.418217	1.089613	-0.106928
Cl148	Cl	1.613727	0.193568	-0.132677
H149	H	1.311201	0.672023	-0.578710
Cl150	Cl	0.396869	1.281103	0.132775
Cl151	Cl	1.288987	0.185978	-0.141867
H152	H	0.493366	0.797471	0.725856
H153	H	0.418225	1.246342	0.480265
Cl154	Cl	1.324004	0.545733	-0.565133
