data_functionalizedCrystal
_audit_creation_method	'MofGen! by Chris Wilmer'
_symmetry_space_group_name_H-M	'P1'
_symmetry_Int_Tables_number	1
_symmetry_cell_setting	triclinic
loop_
_symmetry_equiv_pos_as_xyz
  x,y,z
_cell_length_a	29.839134
_cell_length_b	29.839131
_cell_length_c	19.076919
_cell_angle_alpha	87.732541
_cell_angle_beta	87.730797
_cell_angle_gamma	90.034165
loop_
_atom_site_label
_atom_site_type_symbol
_atom_site_fract_x
_atom_site_fract_y
_atom_site_fract_z
Zn1	Zn	0.676527	-0.189159	0.398157
Zn2	Zn	1.176527	0.310841	0.898157
Zn3	Zn	0.679472	-0.261269	0.280458
Zn4	Zn	1.179472	0.238731	0.780458
Zn5	Zn	0.604423	-0.186144	0.280453
Zn6	Zn	1.104423	0.313856	0.780453
Zn7	Zn	0.601359	-0.264251	0.398087
Zn8	Zn	1.101359	0.235749	0.898087
O9	O	0.640445	-0.225206	0.339289
O10	O	1.140445	0.274794	0.839289
O11	O	0.739784	-0.198738	0.382576
O12	O	1.239784	0.301262	0.882576
O13	O	0.672031	-0.248793	0.181970
O14	O	1.172031	0.251207	0.681970
O15	O	0.614037	-0.123678	0.296094
O16	O	1.114037	0.376322	0.796094
O17	O	0.741948	-0.251717	0.296103
O18	O	1.241948	0.248283	0.796103
O19	O	0.667012	-0.125893	0.382571
O20	O	1.167012	0.374107	0.882571
O21	O	0.616893	-0.193600	0.181966
O22	O	1.116893	0.306400	0.681966
O23	O	0.541150	-0.196492	0.296026
O24	O	1.041150	0.303508	0.796026
O25	O	0.608815	-0.256800	0.496585
O26	O	1.108815	0.243200	0.996585
O27	O	0.538899	-0.253877	0.382451
O28	O	1.038899	0.246123	0.882451
O29	O	0.664041	-0.201630	0.496636
O30	O	1.164041	0.298370	0.996636
O31	O	0.669061	-0.324531	0.296035
O32	O	1.169061	0.175469	0.796035
O33	O	0.611671	-0.326722	0.382457
O34	O	1.111671	0.173278	0.882457
C35	C	0.523724	-0.225181	0.339231
C36	C	1.023724	0.274819	0.839231
C37	C	0.473790	-0.225182	0.339223
C38	C	0.973790	0.274818	0.839223
C39	C	0.640365	-0.341928	0.339254
C40	C	1.140365	0.158072	0.839254
C41	C	0.640371	-0.391862	0.339263
C42	C	1.140371	0.108138	0.839263
C43	C	0.118358	-0.195285	0.294379
C44	C	0.618358	0.304715	0.794379
C45	C	0.306032	-0.195272	0.294336
C46	C	0.806032	0.304728	0.794336
O47	O	0.331281	-0.169813	0.256143
O48	O	0.831281	0.330187	0.756143
N49	N	0.328344	-0.225190	0.339258
N50	N	0.828344	0.274810	0.839258
C51	C	0.303734	-0.255112	0.384197
C52	C	0.803734	0.244888	0.884197
O53	O	0.327017	-0.280556	0.422409
O54	O	0.827017	0.219444	0.922409
C55	C	0.116060	-0.255123	0.384242
C56	C	0.616060	0.244877	0.884242
C57	C	0.093752	-0.225206	0.339313
C58	C	0.593752	0.274794	0.839313
C59	C	0.096049	-0.165370	0.249454
C60	C	0.596049	0.334630	0.749454
C61	C	0.049134	-0.165376	0.249462
C62	C	0.549134	0.334624	0.749462
C63	C	0.024527	-0.195296	0.294396
C64	C	0.524527	0.304704	0.794396
C65	C	0.046836	-0.225211	0.339321
C66	C	0.546836	0.274789	0.839321
C67	C	0.091451	-0.285042	0.429184
C68	C	0.591451	0.214958	0.929184
C69	C	0.044530	-0.285042	0.429193
C70	C	0.544530	0.214958	0.929193
C71	C	0.022221	-0.255125	0.384263
C72	C	0.522221	0.244875	0.884263
C73	C	-0.024687	-0.255137	0.384264
C74	C	0.475313	0.244863	0.884264
N75	N	-0.046998	-0.225219	0.339342
N76	N	0.453002	0.274781	0.839342
C77	C	-0.022391	-0.195298	0.294408
C78	C	0.477609	0.304702	0.794408
C79	C	0.402265	-0.255104	0.384169
C80	C	0.902265	0.244896	0.884169
C81	C	0.449183	-0.255102	0.384156
C82	C	0.949183	0.244898	0.884156
C83	C	0.451479	-0.195261	0.294297
C84	C	0.951479	0.304739	0.794297
C85	C	0.404560	-0.195266	0.294306
C86	C	0.904560	0.304734	0.794306
C87	C	0.379954	-0.225186	0.339247
C88	C	0.879954	0.274814	0.839247
C89	C	-0.120918	-0.195312	0.294429
C90	C	0.379082	0.304688	0.794429
C91	C	-0.167838	-0.195322	0.294439
C92	C	0.332162	0.304678	0.794439
C93	C	-0.170129	-0.255161	0.384301
C94	C	0.329871	0.244839	0.884301
C95	C	-0.123213	-0.255153	0.384288
C96	C	0.376787	0.244847	0.884288
C97	C	-0.098609	-0.225225	0.339350
C98	C	0.401391	0.274775	0.839350
O99	O	-0.049964	-0.280579	0.422442
O100	O	0.450036	0.219421	0.922442
O101	O	-0.045683	-0.169851	0.256212
O102	O	0.454317	0.330149	0.756212
C103	C	0.165274	-0.195280	0.294371
C104	C	0.665274	0.304720	0.794371
C105	C	0.187583	-0.225195	0.339296
C106	C	0.687583	0.274805	0.839296
C107	C	0.162976	-0.255115	0.384230
C108	C	0.662976	0.244885	0.884230
C109	C	0.234501	-0.225193	0.339284
C110	C	0.734501	0.274807	0.839284
C111	C	0.259108	-0.195272	0.294350
C112	C	0.759108	0.304728	0.794350
C113	C	0.236796	-0.165354	0.249428
C114	C	0.736796	0.334646	0.749428
C115	C	0.189881	-0.165359	0.249437
C116	C	0.689881	0.334641	0.749437
C117	C	0.185288	-0.285034	0.429151
C118	C	0.685288	0.214966	0.929151
C119	C	0.232203	-0.285026	0.429139
C120	C	0.732203	0.214974	0.929139
C121	C	0.256810	-0.255106	0.384205
C122	C	0.756810	0.244894	0.884205
C123	C	0.670378	-0.700354	0.294355
C124	C	1.170378	-0.200354	0.794355
C125	C	0.670433	-0.888028	0.294382
C126	C	1.170433	-0.388028	0.794382
O127	O	0.695883	-0.911313	0.256173
O128	O	1.195883	-0.411313	0.756173
N129	N	0.640537	-0.912649	0.339342
N130	N	1.140537	-0.412649	0.839342
C131	C	0.610627	-0.890349	0.384301
C132	C	1.110627	-0.390349	0.884301
O133	O	0.585203	-0.915598	0.422548
O134	O	1.085203	-0.415598	0.922548
C135	C	0.610575	-0.702677	0.384277
C136	C	1.110575	-0.202677	0.884277
C137	C	0.640470	-0.678058	0.339309
C138	C	1.140470	-0.178058	0.839309
C139	C	0.700271	-0.675735	0.249392
C140	C	1.200271	-0.175735	0.749392
C141	C	0.700255	-0.628820	0.249382
C142	C	1.200255	-0.128820	0.749382
C143	C	0.670347	-0.606523	0.294337
C144	C	1.170347	-0.106523	0.794337
C145	C	0.640454	-0.631142	0.339300
C146	C	1.140454	-0.131142	0.839300
C147	C	0.580667	-0.680378	0.429240
C148	C	1.080667	-0.180378	0.929240
C149	C	0.580658	-0.633456	0.429231
C150	C	1.080658	-0.133456	0.929231
C151	C	0.610553	-0.608837	0.384263
C152	C	1.110553	-0.108837	0.884263
C153	C	0.610530	-0.561929	0.384246
C154	C	1.110530	-0.061929	0.884246
N155	N	0.640426	-0.537308	0.339286
N156	N	1.140426	-0.037308	0.839286
C157	C	0.670335	-0.559605	0.294332
C158	C	1.170335	-0.059605	0.794332
C159	C	0.610656	-0.988880	0.384310
C160	C	1.110656	-0.488880	0.884310
C161	C	0.610668	-1.035798	0.384315
C162	C	1.110668	-0.535798	0.884315
C163	C	0.670475	-1.033474	0.294397
C164	C	1.170475	-0.533474	0.794397
C165	C	0.670460	-0.986555	0.294389
C166	C	1.170460	-0.486555	0.794389
C167	C	0.640552	-0.964259	0.339350
C168	C	1.140552	-0.464259	0.839350
C169	C	0.670299	-0.461079	0.294315
C170	C	1.170299	0.038921	0.794315
C171	C	0.670280	-0.414159	0.294308
C172	C	1.170280	0.085841	0.794308
C173	C	0.610475	-0.416488	0.384229
C174	C	1.110475	0.083512	0.884229
C175	C	0.610493	-0.463403	0.384234
C176	C	1.110493	0.036597	0.884234
C177	C	0.640408	-0.485698	0.339275
C178	C	1.140408	0.014302	0.839275
O179	O	0.585097	-0.538615	0.422440
O180	O	1.085097	-0.038615	0.922440
O181	O	0.695762	-0.534349	0.256102
O182	O	1.195762	-0.034349	0.756102
C183	C	0.670394	-0.747270	0.294364
C184	C	1.170394	-0.247270	0.794364
C185	C	0.640501	-0.771889	0.339328
C186	C	1.140501	-0.271889	0.839328
C187	C	0.610593	-0.749592	0.384282
C188	C	1.110593	-0.249592	0.884282
C189	C	0.640514	-0.818807	0.339333
C190	C	1.140514	-0.318807	0.839333
C191	C	0.670422	-0.841104	0.294379
C192	C	1.170422	-0.341104	0.794379
C193	C	0.700318	-0.816482	0.249419
C194	C	1.200318	-0.316482	0.749419
C195	C	0.700302	-0.769567	0.249410
C196	C	1.200302	-0.269567	0.749410
C197	C	0.580696	-0.774213	0.429242
C198	C	1.080696	-0.274213	0.929242
C199	C	0.580714	-0.821129	0.429247
C200	C	1.080714	-0.321129	0.929247
C201	C	0.610623	-0.843426	0.384292
C202	C	1.110623	-0.343426	0.884292
C203	C	0.757622	-0.225231	0.339348
C204	C	1.257622	0.274769	0.839348
C205	C	0.807556	-0.225242	0.339373
C206	C	1.307556	0.274758	0.839373
C207	C	0.635758	-0.229884	0.522861
C208	C	1.135758	0.270116	1.022861
C209	C	0.633760	-0.231878	0.601089
C210	C	1.133760	0.268122	1.101089
C211	C	0.640538	-0.108029	0.339339
C212	C	1.140538	0.391971	0.839339
C213	C	0.640577	-0.058095	0.339361
C214	C	1.140577	0.441905	0.839361
C215	C	0.645140	-0.220513	0.156431
C216	C	1.145140	0.279487	0.656431
C217	C	0.647225	-0.218393	0.078204
C218	C	1.147225	0.281607	0.578204
C219	C	0.661573	-0.204092	0.637868
C220	C	1.161573	0.295908	1.137868
C221	C	0.659691	-0.205963	0.711371
C222	C	1.159691	0.294037	1.211371
C223	C	0.629998	-0.235623	0.748094
C224	C	1.129998	0.264377	1.248094
C225	C	0.602182	-0.263411	0.711309
C226	C	1.102182	0.236589	1.211309
C227	C	0.604062	-0.261537	0.637807
C228	C	1.104062	0.238463	1.137807
C229	C	0.621289	-0.244306	0.967917
C230	C	1.121289	0.255694	1.467917
C231	C	0.619412	-0.246179	1.041424
C232	C	1.119412	0.253821	1.541424
C233	C	0.676921	-0.188731	1.041482
C234	C	1.176921	0.311269	1.541482
C235	C	0.678800	-0.186861	0.967978
C236	C	1.178800	0.313139	1.467978
C237	C	0.650983	-0.214647	0.931200
C238	C	1.150983	0.285353	1.431200
N239	N	0.628074	-0.237538	0.823226
N240	N	1.128074	0.262462	1.323226
N241	N	0.652904	-0.212730	0.856070
N242	N	1.152904	0.287270	1.356070
H243	H	-0.185999	-0.170959	0.257850
H244	H	0.314001	0.329041	0.757850
H245	H	0.030974	-0.141014	0.212876
H246	H	0.530974	0.358986	0.712876
C247	C	0.590682	-0.274860	0.927471
C248	C	1.090682	0.225140	1.427471
H249	H	0.572729	-0.292792	0.959870
H250	H	1.072729	0.207208	1.459870
H251	H	0.571857	-0.256930	0.898804
H252	H	1.071857	0.243070	1.398804
H253	H	0.608575	-0.293713	0.898790
H254	H	1.108575	0.206287	1.398790
C255	C	-0.197202	-0.288068	0.433728
C256	C	0.302798	0.211932	0.933728
H257	H	-0.228339	-0.283780	0.427300
H258	H	0.271661	0.216220	0.927300
H259	H	-0.189270	-0.317980	0.423351
H260	H	0.310730	0.182020	0.923351
H261	H	-0.190705	-0.282737	0.481034
H262	H	0.309295	0.217263	0.981034
H263	H	0.586321	-1.055839	0.420926
H264	H	1.086321	-0.555839	0.920926
H265	H	0.578003	-0.287559	0.741214
H266	H	1.078003	0.212441	1.241214
C267	C	0.165347	-0.132447	0.200019
C268	C	0.665347	0.367553	0.700019
H269	H	0.186726	-0.114627	0.173266
H270	H	0.686726	0.385373	0.673266
H271	H	0.147809	-0.148817	0.169306
H272	H	0.647809	0.351183	0.669306
H273	H	0.146375	-0.113584	0.227004
H274	H	0.646375	0.386416	0.727004
C275	C	0.380024	-0.162354	0.244890
C276	C	0.880024	0.337646	0.744890
H277	H	0.401402	-0.144534	0.218133
H278	H	0.901402	0.355466	0.718133
H279	H	0.362484	-0.178724	0.214180
H280	H	0.862484	0.321276	0.714180
H281	H	0.361054	-0.143490	0.271877
H282	H	0.861054	0.356510	0.771877
C283	C	0.577750	-0.964360	0.433763
C284	C	1.077750	-0.464360	0.933763
H285	H	0.559946	-0.985747	0.460531
H286	H	1.059946	-0.485747	0.960531
H287	H	0.594125	-0.946817	0.464463
H288	H	1.094125	-0.446817	0.964463
H289	H	0.558871	-0.945396	0.406798
H290	H	1.058871	-0.445396	0.906798
H291	H	0.682341	-0.183338	0.741314
H292	H	1.182341	0.316662	1.241314
H293	H	0.694803	-0.966513	0.257773
H294	H	1.194803	-0.466513	0.757773
C295	C	0.573479	-0.292113	0.597350
C296	C	1.073479	0.207887	1.097350
H297	H	0.555531	-0.310052	0.629746
H298	H	1.055531	0.189948	1.129746
H299	H	0.554649	-0.274201	0.568664
H300	H	1.054649	0.225799	1.068664
H301	H	0.591394	-0.310958	0.568687
H302	H	1.091394	0.189042	1.068687
H303	H	0.556303	-0.615306	0.465846
H304	H	1.056303	-0.115306	0.965846
C305	C	0.733145	-0.601745	0.199926
C306	C	1.233145	-0.101745	0.699926
H307	H	0.750961	-0.621749	0.173164
H308	H	1.250961	-0.121749	0.673164
H309	H	0.716761	-0.582680	0.169222
H310	H	1.216761	-0.082680	0.669222
H311	H	0.752015	-0.584109	0.226887
H312	H	1.252015	-0.084109	0.726887
H313	H	0.595230	-0.270333	1.071322
H314	H	1.095230	0.229667	1.571322
H315	H	0.724669	-0.834645	0.212813
H316	H	1.224669	-0.334645	0.712813
H317	H	-0.100890	-0.170940	0.257839
H318	H	0.399110	0.329060	0.757839
H319	H	0.116079	-0.141003	0.212863
H320	H	0.616079	0.358997	0.712863
C321	C	0.711459	-0.154233	0.927585
C322	C	1.211459	0.345767	1.427585
H323	H	0.708598	-0.157099	0.878543
H324	H	1.208598	0.342901	1.378543
H325	H	0.704600	-0.124354	0.939641
H326	H	1.204600	0.375646	1.439641
H327	H	0.741332	-0.161123	0.939645
H328	H	1.241332	0.338877	1.439645
C329	C	0.017465	-0.317938	0.478656
C330	C	0.517465	0.182062	0.978656
H331	H	0.037474	-0.335750	0.505414
H332	H	0.537474	0.164250	1.005414
H333	H	-0.001595	-0.301551	0.509363
H334	H	0.498405	0.198449	1.009363
H335	H	-0.000175	-0.336812	0.451707
H336	H	0.499825	0.163188	0.951707
C337	C	0.703376	-1.058004	0.244950
C338	C	1.203376	-0.558004	0.744950
H339	H	0.721181	-1.036625	0.218167
H340	H	1.221181	-0.536625	0.718167
H341	H	0.722249	-1.076971	0.271916
H342	H	1.222249	-0.576971	0.771916
H343	H	0.686994	-1.075546	0.214253
H344	H	1.186994	-0.575546	0.714253
C345	C	-0.098672	-0.288063	0.433706
C346	C	0.401328	0.211937	0.933706
H347	H	-0.120049	-0.305882	0.460469
H348	H	0.379951	0.194118	0.960469
H349	H	-0.079695	-0.306921	0.406730
H350	H	0.420305	0.193079	0.906730
H351	H	-0.081140	-0.271684	0.464421
H352	H	0.418860	0.228316	0.964421
H353	H	0.724629	-0.693884	0.212784
H354	H	1.224629	-0.193884	0.712784
H355	H	0.471521	-0.170899	0.257709
H356	H	0.971521	0.329101	0.757709
C357	C	0.263870	-0.132441	0.200005
C358	C	0.763870	0.367559	0.700005
H359	H	0.295006	-0.136723	0.206444
H360	H	0.795006	0.363277	0.706444
H361	H	0.257376	-0.137760	0.152698
H362	H	0.757376	0.362240	0.652698
H363	H	0.255935	-0.102530	0.210400
H364	H	0.755935	0.397470	0.710400
C365	C	0.256738	-0.317937	0.478566
C366	C	0.756738	0.182063	0.978566
H367	H	0.235359	-0.335752	0.505331
H368	H	0.735359	0.164248	1.005331
H369	H	0.275715	-0.336799	0.451595
H370	H	0.775715	0.163201	0.951595
H371	H	0.274270	-0.301557	0.509280
H372	H	0.774270	0.198443	1.009280
H373	H	0.467343	-0.279468	0.420735
H374	H	0.967343	0.220532	0.920735
H375	H	0.382235	-0.279471	0.420766
H376	H	0.882235	0.220529	0.920766
H377	H	0.109607	-0.309404	0.465770
H378	H	0.609607	0.190596	0.965770
C379	C	0.158227	-0.317956	0.478568
C380	C	0.658227	0.182044	0.978568
H381	H	0.178238	-0.335775	0.505310
H382	H	0.678238	0.164225	1.005310
H383	H	0.139152	-0.301596	0.509293
H384	H	0.639152	0.198404	1.009293
H385	H	0.140602	-0.336820	0.451580
H386	H	0.640602	0.163180	0.951580
H387	H	0.556322	-0.700414	0.465854
H388	H	1.056322	-0.200414	0.965854
C389	C	0.577609	-0.490485	0.433695
C390	C	1.077609	0.009515	0.933695
H391	H	0.559796	-0.470484	0.460469
H392	H	1.059796	0.029516	0.960469
H393	H	0.558742	-0.508130	0.406749
H394	H	1.058742	-0.008130	0.906749
H395	H	0.594006	-0.509542	0.464399
H396	H	1.094006	-0.009542	0.964399
H397	H	0.699568	-0.166109	1.071434
H398	H	1.199568	0.333891	1.571434
H399	H	0.694624	-0.394115	0.257688
H400	H	1.194624	0.105885	0.757688
H401	H	0.694660	-0.479225	0.257707
H402	H	1.194660	0.020775	0.757707
C403	C	0.577580	-0.391955	0.433678
C404	C	1.077580	0.108045	0.933678
H405	H	0.581859	-0.360487	0.427235
H406	H	1.081859	0.139513	0.927235
H407	H	0.547665	-0.399407	0.423335
H408	H	1.047665	0.100593	0.923335
H409	H	0.582931	-0.400832	0.480981
H410	H	1.082931	0.099168	0.980981
C411	C	0.733190	-0.742492	0.199950
C412	C	1.233190	-0.242492	0.699950
H413	H	0.751005	-0.762496	0.173187
H414	H	1.251005	-0.262496	0.673187
H415	H	0.716804	-0.723428	0.169247
H416	H	1.216804	-0.223428	0.669247
H417	H	0.752061	-0.724854	0.226908
H418	H	1.252061	-0.224854	0.726908
H419	H	0.556366	-0.841170	0.465864
H420	H	1.056366	-0.341170	0.965864
H421	H	0.556342	-0.756063	0.465850
H422	H	1.056342	-0.256063	0.965850
H423	H	0.685754	-0.179940	0.607974
H424	H	1.185754	0.320060	1.107974
