data_functionalizedCrystal
_audit_creation_method	'MofGen! by Chris Wilmer'
_symmetry_space_group_name_H-M	'P1'
_symmetry_Int_Tables_number	1
_symmetry_cell_setting	triclinic
loop_
_symmetry_equiv_pos_as_xyz
  x,y,z
_cell_length_a	27.440280
_cell_length_b	27.440280
_cell_length_c	27.440280
_cell_angle_alpha	89.999308
_cell_angle_beta	59.998992
_cell_angle_gamma	59.994730
loop_
_atom_site_label
_atom_site_type_symbol
_atom_site_fract_x
_atom_site_fract_y
_atom_site_fract_z
Zr1	Zr	0.533427	0.469476	-0.064052
O2	O	0.635104	0.391653	-0.141875
O3	O	0.431748	0.493335	-0.040184
O4	O	0.533415	0.493330	-0.141863
O5	O	0.533446	0.391659	0.039997
O6	O	0.533407	0.573532	-0.141866
O7	O	0.533437	0.391658	-0.040196
O8	O	0.351544	0.573542	0.040020
O9	O	0.715310	0.391650	-0.141888
O10	O	0.473565	0.563362	-0.030020
O11	O	0.473578	0.503509	0.029830
O12	O	0.593277	0.503503	-0.089884
O13	O	0.593290	0.443650	-0.030035
Zr14	Zr	0.533429	0.597390	0.063843
Zr15	Zr	0.533414	0.597389	-0.064056
Zr16	Zr	0.533442	0.469478	0.063847
Zr17	Zr	0.661346	0.469471	-0.064072
Zr18	Zr	0.405510	0.597395	0.063863
O19	O	0.635108	0.573531	0.039974
O20	O	0.635086	0.573528	-0.141882
O21	O	0.635125	0.391655	0.039981
O22	O	0.431752	0.675214	0.141666
O23	O	0.431731	0.675211	-0.040190
O24	O	0.431770	0.493338	0.141673
O25	O	0.533409	0.675207	-0.040206
O26	O	0.533441	0.573536	0.141653
O27	O	0.533448	0.493334	0.141656
O28	O	0.533419	0.675208	0.039987
O29	O	0.715300	0.493323	-0.141892
O30	O	0.351556	0.573543	0.141683
O31	O	0.351546	0.675217	0.141679
O32	O	0.351534	0.675215	0.040016
O33	O	0.715322	0.391651	-0.040225
O34	O	0.715312	0.493325	-0.040229
O35	O	0.473579	0.563364	0.089675
O36	O	0.473566	0.623217	0.029825
O37	O	0.593278	0.563357	-0.030039
O38	O	0.593291	0.503504	0.029811
C39	C	0.373420	0.533439	-0.000079
C40	C	0.319115	0.533441	-0.000070
C41	C	0.026616	0.489246	-0.044306
C42	C	-0.024401	0.489246	-0.044313
O43	O	-0.013209	0.451679	-0.081904
N44	N	-0.094104	0.533431	-0.000128
C45	C	-0.112791	0.577623	0.044062
O46	O	-0.176763	0.615207	0.081644
C47	C	-0.061774	0.577626	0.044066
C48	C	0.007930	0.533434	-0.000119
C49	C	0.096316	0.445058	-0.088487
C50	C	0.147329	0.445058	-0.088480
C51	C	0.128643	0.489246	-0.044292
C52	C	0.058943	0.533434	-0.000111
C53	C	-0.080461	0.621820	0.088253
C54	C	-0.029437	0.621819	0.088252
C55	C	0.040267	0.577627	0.044068
C56	C	0.091270	0.577621	0.044084
N57	N	0.160973	0.533436	-0.000101
C58	C	0.179659	0.489248	-0.044289
C59	C	-0.219926	0.577616	0.044052
C60	C	-0.270942	0.577611	0.044051
C61	C	-0.182549	0.489234	-0.044325
C62	C	-0.131532	0.489236	-0.044321
C63	C	-0.150222	0.533430	-0.000133
C64	C	0.286788	0.489251	-0.044271
C65	C	0.337802	0.489253	-0.044258
C66	C	0.249404	0.577632	0.044115
C67	C	0.198395	0.577628	0.044105
C68	C	0.217092	0.533435	-0.000093
O69	O	0.080130	0.615170	0.081654
O70	O	0.243632	0.451675	-0.081869
C71	C	0.533444	0.373434	-0.000099
C72	C	0.533449	0.319131	-0.000097
C73	C	0.533407	-0.017567	-0.044285
C74	C	0.533402	-0.068585	-0.044285
O75	O	0.533372	-0.094960	-0.081845
N76	N	0.533409	-0.094102	-0.000107
C77	C	0.533413	-0.068595	0.044079
O78	O	0.533418	-0.094984	0.081656
C79	C	0.533413	-0.017576	0.044081
C80	C	0.533414	0.007935	-0.000104
C81	C	0.533407	0.007944	-0.088466
C82	C	0.533413	0.058958	-0.088466
C83	C	0.533420	0.084460	-0.044285
C84	C	0.533420	0.058949	-0.000104
C85	C	0.533413	0.007932	0.088268
C86	C	0.533412	0.058956	0.088267
C87	C	0.533413	0.084467	0.044082
C88	C	0.533433	0.135465	0.044077
N89	N	0.533426	0.160982	-0.000102
C90	C	0.533420	0.135480	-0.044283
C91	C	0.533412	-0.175739	0.044071
C92	C	0.533417	-0.226760	0.044067
C93	C	0.533405	-0.226746	-0.044296
C94	C	0.533405	-0.175726	-0.044294
C95	C	0.533406	-0.150222	-0.000107
C96	C	0.533433	0.242612	-0.044280
C97	C	0.533442	0.293629	-0.044278
C98	C	0.533451	0.293612	0.044087
C99	C	0.533445	0.242598	0.044083
C100	C	0.533434	0.217100	-0.000103
O101	O	0.533460	0.161874	0.081619
O102	O	0.533406	0.161879	-0.081849
C103	C	0.693435	0.533427	-0.000130
C104	C	0.747741	0.533425	-0.000139
C105	C	0.533409	0.533431	-0.160087
C106	C	0.533403	0.533430	-0.214384
C107	C	0.533412	0.693433	-0.000110
C108	C	0.533407	0.747735	-0.000112
C109	C	0.595928	0.502193	-0.582366
C110	C	0.595932	0.502194	-0.633389
O111	O	0.649076	0.475639	-0.686352
N112	N	0.533444	0.533439	-0.627657
C113	C	0.470948	0.564689	-0.570899
O114	O	0.417797	0.591266	-0.570709
C115	C	0.470945	0.564690	-0.519878
C116	C	0.533437	0.533439	-0.525614
C117	C	0.658415	0.470944	-0.588100
C118	C	0.658411	0.470941	-0.537081
C119	C	0.595920	0.502188	-0.480329
C120	C	0.533433	0.533436	-0.474595
C121	C	0.408450	0.595944	-0.463121
C122	C	0.408452	0.595943	-0.412100
C123	C	0.470944	0.564691	-0.417835
C124	C	0.470938	0.564680	-0.366824
N125	N	0.533426	0.533435	-0.372555
C126	C	0.595917	0.502189	-0.429308
C127	C	0.470959	0.564685	-0.678049
C128	C	0.470962	0.564680	-0.729069
C129	C	0.595946	0.502186	-0.791555
C130	C	0.595943	0.502187	-0.740534
C131	C	0.533447	0.533440	-0.683780
C132	C	0.595904	0.502186	-0.322162
C133	C	0.595894	0.502184	-0.271136
C134	C	0.470910	0.564680	-0.208654
C135	C	0.470919	0.564680	-0.259676
C136	C	0.533422	0.533431	-0.316431
O137	O	0.417821	0.591223	-0.313842
O138	O	0.649058	0.475623	-0.429487
C139	C	0.533447	0.533435	0.159878
C140	C	0.533453	0.533436	0.214174
C141	C	0.373405	0.693439	-0.000085
C142	C	0.319094	0.747743	-0.000078
C143	C	0.373439	0.533441	0.159903
C144	C	0.319140	0.533444	0.214209
C145	C	0.373424	0.693441	0.159898
C146	C	0.319119	0.747746	0.214201
C147	C	0.693432	0.373425	-0.160107
C148	C	0.747736	0.319120	-0.214410
C149	C	0.693451	0.373428	-0.000124
C150	C	0.747761	0.319123	-0.000131
C151	C	0.693417	0.533425	-0.160112
C152	C	0.747715	0.533422	-0.214418
C153	C	0.293589	0.742002	-0.031319
C154	C	0.242566	0.793021	-0.031325
C155	C	0.217045	0.849782	-0.000086
C156	C	0.242556	0.855523	0.031156
C157	C	0.293581	0.804503	0.031158
C158	C	0.293642	0.564689	0.270955
C159	C	0.242629	0.564690	0.321985
C160	C	0.217113	0.533448	0.316268
C161	C	0.242617	0.502199	0.259516
C162	C	0.293632	0.502196	0.208487
C163	C	0.293611	0.804497	0.208461
C164	C	0.242594	0.855527	0.259480
C165	C	0.217082	0.849806	0.316238
C166	C	0.242596	0.793049	0.321976
C167	C	0.293616	0.742020	0.270958
C168	C	0.773251	0.262370	-0.208670
C169	C	0.824284	0.211339	-0.259689
C170	C	0.849798	0.217060	-0.316447
C171	C	0.824281	0.273817	-0.322185
C172	C	0.773253	0.324846	-0.271167
C173	C	0.773272	0.324865	0.031104
C174	C	0.824310	0.273845	0.031096
C175	C	0.849832	0.217084	-0.000145
C176	C	0.824319	0.211343	-0.031384
C177	C	0.773286	0.262363	-0.031379
C178	C	0.773215	0.564669	-0.208681
C179	C	0.824228	0.564678	-0.259702
C180	C	0.849743	0.533436	-0.316458
C181	C	0.824238	0.502188	-0.322194
C182	C	0.773223	0.502183	-0.271173
H183	H	0.302021	0.453265	-0.080262
H184	H	-0.044663	0.657808	0.124236
C185	C	0.745221	0.256040	-0.065731
H186	H	0.767728	0.214927	-0.084330
H187	H	0.753571	0.274641	-0.095299
H188	H	0.697048	0.274640	-0.038753
C189	C	0.214544	0.467839	0.253232
H190	H	0.237036	0.449224	0.212127
H191	H	0.166370	0.494815	0.271849
H192	H	0.222917	0.438272	0.271836
C193	C	0.214506	0.786700	-0.065685
H194	H	0.180466	0.825211	-0.061221
H195	H	0.194603	0.765503	-0.050247
H196	H	0.251140	0.765490	-0.106791
C197	C	0.321670	0.467829	0.146069
H198	H	0.299160	0.449230	0.149978
H199	H	0.369844	0.438259	0.124853
H200	H	0.313291	0.494801	0.124872
H201	H	0.314375	0.809166	0.162251
C202	C	0.321705	0.599054	0.277252
H203	H	0.355737	0.594585	0.238737
H204	H	0.341617	0.583620	0.298444
H205	H	0.285070	0.640162	0.298457
H206	H	0.221817	0.788400	0.368195
H207	H	-0.074779	0.453248	-0.080297
H208	H	0.175574	0.533456	0.357824
C209	C	0.533415	0.087009	0.136871
H210	H	0.533412	0.121050	0.130550
H211	H	0.573390	0.058652	0.135037
H212	H	0.493432	0.098641	0.175016
C213	C	0.160956	0.905941	0.372352
H214	H	0.149416	0.940557	0.360800
H215	H	0.177675	0.905953	0.395434
H216	H	0.121141	0.905951	0.395436
H217	H	0.221826	0.901736	0.254797
H218	H	0.845021	0.476751	-0.368411
H219	H	0.314378	0.695814	0.275639
H220	H	0.845051	0.165131	-0.255005
H221	H	0.891283	0.533445	-0.357997
C222	C	0.321624	0.810827	0.065533
H223	H	0.299108	0.851939	0.084141
H224	H	0.369796	0.792222	0.038572
H225	H	0.313253	0.792229	0.095105
C226	C	0.214579	0.599067	0.384406
H227	H	0.180548	0.594592	0.413983
H228	H	0.194669	0.640171	0.388879
H229	H	0.251220	0.583635	0.388868
C230	C	0.745207	0.387296	0.065469
H231	H	0.711155	0.416865	0.061006
H232	H	0.781836	0.391769	0.050031
H233	H	0.725306	0.391773	0.106574
C234	C	0.852358	0.280170	0.065467
H235	H	0.829837	0.321282	0.084081
H236	H	0.900528	0.261572	0.038502
H237	H	0.843997	0.261565	0.095034
H238	H	0.357559	0.621393	-0.365889
H239	H	0.533459	0.314382	0.080057
H240	H	0.752480	0.257700	-0.162460
H241	H	0.891349	0.175504	-0.357984
C242	C	0.905965	0.160968	-0.000144
H243	H	0.917495	0.172522	0.022939
H244	H	0.945777	0.137881	-0.039949
H245	H	0.889243	0.137887	0.016593
C246	C	0.664654	0.467808	-0.384585
H247	H	0.701864	0.449194	-0.380684
H248	H	0.667262	0.494768	-0.405791
H249	H	0.667255	0.438238	-0.405786
H250	H	0.111543	0.409074	-0.124474
C251	C	0.745187	0.467800	-0.277491
H252	H	0.767698	0.449191	-0.318601
H253	H	0.697013	0.494759	-0.258884
H254	H	0.753568	0.438227	-0.258895
C255	C	0.745156	0.599041	-0.146256
H256	H	0.767649	0.617655	-0.150156
H257	H	0.753525	0.572077	-0.125053
H258	H	0.696979	0.628610	-0.125051
C259	C	0.852346	0.280102	-0.384620
H260	H	0.886384	0.241580	-0.414178
H261	H	0.872251	0.301301	-0.389111
H262	H	0.815712	0.301295	-0.389094
H263	H	0.533411	0.079728	-0.124443
C264	C	0.852393	0.148905	-0.065741
H265	H	0.886434	0.119347	-0.061261
H266	H	0.872298	0.144416	-0.106846
H267	H	0.815764	0.144428	-0.050299
C268	C	0.745165	0.387269	-0.277485
H269	H	0.711116	0.416846	-0.238975
H270	H	0.725267	0.391718	-0.298684
H271	H	0.781784	0.391758	-0.298689
H272	H	0.646829	0.476743	-0.837773
C273	C	0.414475	0.440642	-0.092865
H274	H	0.418293	0.414331	-0.119185
H275	H	0.436216	0.418816	-0.074716
H276	H	0.436213	0.458796	-0.114688
C277	C	0.223998	0.396450	-0.137084
H278	H	0.251713	0.402770	-0.130757
H279	H	0.233791	0.398282	-0.175225
H280	H	0.233791	0.358306	-0.135250
C281	C	-0.162000	0.440630	-0.092933
H282	H	-0.202370	0.446965	-0.086607
H283	H	-0.135480	0.402485	-0.091106
H284	H	-0.135484	0.442465	-0.131076
C285	C	-0.347610	0.626219	0.092657
H286	H	-0.351425	0.652535	0.118970
H287	H	-0.369353	0.608072	0.114481
H288	H	-0.369348	0.648048	0.074504
C289	C	0.852282	0.599045	-0.253383
H290	H	0.829787	0.617640	-0.212273
H291	H	0.843913	0.628619	-0.271976
H292	H	0.900459	0.572071	-0.271993
C293	C	0.727153	0.436571	-0.543397
H294	H	0.764365	0.417970	-0.584507
H295	H	0.729761	0.407002	-0.524798
H296	H	0.729747	0.463543	-0.524793
C297	C	0.533438	0.321691	-0.092880
H298	H	0.533425	0.299197	-0.119187
H299	H	0.573415	0.321601	-0.114711
H300	H	0.493457	0.361588	-0.074722
C301	C	0.402180	0.599036	-0.253369
H302	H	0.364963	0.617641	-0.212260
H303	H	0.399598	0.572061	-0.271980
H304	H	0.399568	0.628610	-0.271965
C305	C	0.727161	0.436566	-0.650522
H306	H	0.764369	0.417955	-0.646620
H307	H	0.729770	0.463525	-0.671732
H308	H	0.729763	0.406994	-0.671722
C309	C	-0.240493	0.626225	0.092669
H310	H	-0.289312	0.652533	0.118983
H311	H	-0.222434	0.648055	0.074529
H312	H	-0.222429	0.608071	0.114496
H313	H	0.141637	0.613607	0.080089
C314	C	-0.157125	0.670432	0.136854
H315	H	-0.184842	0.664108	0.130533
H316	H	-0.166915	0.708572	0.135019
H317	H	-0.166919	0.668599	0.174998
C318	C	0.228856	0.626236	0.092720
H319	H	0.180038	0.652554	0.119038
H320	H	0.246925	0.648056	0.074568
H321	H	0.246921	0.608082	0.114546
C322	C	0.533428	0.214569	-0.092887
H323	H	0.533435	0.237072	-0.119199
H324	H	0.493451	0.214658	-0.074741
H325	H	0.573409	0.174673	-0.114718
C326	C	0.214470	0.917960	0.065528
H327	H	0.236965	0.914079	0.084137
H328	H	0.166298	0.939153	0.095089
H329	H	0.222827	0.939165	0.038561
H330	H	0.533400	-0.012814	-0.124443
H331	H	0.533398	-0.247518	-0.080270
C332	C	0.533396	-0.147664	-0.092892
H333	H	0.533387	-0.170161	-0.119200
H334	H	0.573369	-0.147748	-0.114722
H335	H	0.493411	-0.107769	-0.074733
H336	H	0.533427	-0.247533	0.080041
H337	H	0.646829	0.476739	-0.745210
C338	C	0.533428	-0.147696	0.092672
H339	H	0.533439	-0.170207	0.118976
H340	H	0.493455	-0.107802	0.114506
H341	H	0.573413	-0.147792	0.074514
H342	H	0.533455	0.221821	0.080058
C343	C	0.533409	-0.020120	0.136872
H344	H	0.533412	-0.054161	0.130549
H345	H	0.493434	0.008237	0.175014
H346	H	0.573392	-0.031751	0.135033
C347	C	0.402210	0.599055	-0.615622
H348	H	0.364999	0.617656	-0.619522
H349	H	0.399599	0.628623	-0.594413
H350	H	0.399614	0.572082	-0.594424
C351	C	0.339707	0.630333	-0.456800
H352	H	0.302496	0.648948	-0.415690
H353	H	0.337093	0.603380	-0.475401
H354	H	0.337116	0.659903	-0.475401
C355	C	0.402220	0.599050	-0.722754
H356	H	0.365006	0.617660	-0.681644
H357	H	0.399623	0.572085	-0.741360
H358	H	0.399618	0.628622	-0.741352
H359	H	0.646785	0.476732	-0.275813
C360	C	0.402174	0.599050	-0.146225
H361	H	0.364954	0.617660	-0.150112
H362	H	0.399579	0.628612	-0.125023
H363	H	0.399578	0.572078	-0.125026
C364	C	0.321657	0.679570	-0.065686
H365	H	0.355696	0.650001	-0.061211
H366	H	0.341561	0.675094	-0.106788
H367	H	0.285025	0.675097	-0.050252
H368	H	0.175496	0.891321	-0.000091
