data_functionalizedCrystal
_audit_creation_method	'MofGen! by Chris Wilmer'
_symmetry_space_group_name_H-M	'P1'
_symmetry_Int_Tables_number	1
_symmetry_cell_setting	triclinic
loop_
_symmetry_equiv_pos_as_xyz
  x,y,z
_cell_length_a	12.759400
_cell_length_b	18.215407
_cell_length_c	18.215399
_cell_angle_alpha	90.019833
_cell_angle_beta	90.024546
_cell_angle_gamma	90.015132
loop_
_atom_site_label
_atom_site_type_symbol
_atom_site_fract_x
_atom_site_fract_y
_atom_site_fract_z
Zn1	Zn	-0.418265	1.125124	0.416133
Zn2	Zn	0.081735	1.625124	0.916133
Zn3	Zn	-0.593962	1.125054	0.293074
Zn4	Zn	-0.093962	1.625054	0.793074
Zn5	Zn	-0.418299	1.002057	0.293081
Zn6	Zn	0.081701	1.502057	0.793081
Zn7	Zn	-0.593903	1.002044	0.416099
Zn8	Zn	-0.093903	1.502044	0.916099
O9	O	-0.506107	1.063570	0.354597
O10	O	-0.006107	1.563570	0.854597
O11	O	-0.441581	1.228099	0.399821
O12	O	0.058419	1.728099	0.899821
O13	O	-0.570699	1.108714	0.190091
O14	O	-0.070699	1.608714	0.690091
O15	O	-0.271273	1.018416	0.309421
O16	O	0.228727	1.518416	0.809421
O17	O	-0.570665	1.228048	0.309410
O18	O	-0.070665	1.728048	0.809410
O19	O	-0.271248	1.108833	0.399827
O20	O	0.228752	1.608833	0.899827
O21	O	-0.441640	1.018349	0.190096
O22	O	0.058360	1.518349	0.690096
O23	O	-0.441583	0.899071	0.309388
O24	O	0.058417	1.399071	0.809388
O25	O	-0.570566	1.018395	0.519088
O26	O	-0.070566	1.518395	1.019088
O27	O	-0.570599	0.899062	0.399769
O28	O	-0.070599	1.399062	0.899769
O29	O	-0.441525	1.108821	0.519113
O30	O	0.058475	1.608821	1.019113
O31	O	-0.740975	1.108703	0.309377
O32	O	-0.240975	1.608703	0.809377
O33	O	-0.740932	1.018328	0.399763
O34	O	-0.240932	1.518328	0.899763
C35	C	-0.506089	0.872364	0.354576
C36	C	-0.006089	1.372364	0.854576
C37	C	-0.506107	0.790565	0.354584
C38	C	-0.006107	1.290565	0.854584
C39	C	-0.573391	0.602385	0.401587
C40	C	-0.073391	1.102385	0.901587
C41	C	-0.573394	0.525527	0.401596
C42	C	-0.073394	1.025527	0.901596
C43	C	-0.438842	0.525506	0.307623
C44	C	0.061158	1.025506	0.807623
C45	C	-0.438835	0.602364	0.307618
C46	C	0.061165	1.102364	0.807618
C47	C	-0.506115	0.640801	0.354599
C48	C	-0.006115	1.140801	0.854599
C49	C	-0.506126	0.487085	0.354613
C50	C	-0.006126	0.987085	0.854613
C51	C	-0.506129	0.403752	0.354623
C52	C	-0.006129	0.903752	0.854623
C53	C	-0.506111	0.724140	0.354590
C54	C	-0.006111	1.224140	0.854590
C55	C	-0.779075	1.063526	0.354582
C56	C	-0.279075	1.563526	0.854582
C57	C	-0.895851	1.063575	0.354600
C58	C	-0.395851	1.563575	0.854600
C59	C	-0.950701	1.110685	0.307588
C60	C	-0.450701	1.610685	0.807588
C61	C	-1.060425	1.110731	0.307610
C62	C	-0.560425	1.610731	0.807610
C63	C	-1.060440	1.016549	0.401659
C64	C	-0.560440	1.516549	0.901659
C65	C	-0.950718	1.016508	0.401639
C66	C	-0.450718	1.516508	0.901639
C67	C	-0.895834	1.157753	0.260548
C68	C	-0.395834	1.657753	0.760548
C69	C	-0.950683	1.204866	0.213532
C70	C	-0.450683	1.704866	0.713532
C71	C	-1.060407	1.204911	0.213554
C72	C	-0.560407	1.704911	0.713554
C73	C	-1.115282	1.157843	0.260593
C74	C	-0.615282	1.657843	0.760593
C75	C	-0.232074	1.063634	0.354628
C76	C	0.267926	1.563634	0.854628
C77	C	-0.115297	1.063661	0.354642
C78	C	0.384703	1.563661	0.854642
C79	C	-0.506126	1.255523	0.354618
C80	C	-0.006126	1.755523	0.854618
C81	C	-0.506134	1.337322	0.354628
C82	C	-0.006134	1.837322	0.854628
C83	C	-0.506035	1.063615	0.546550
C84	C	-0.006035	1.563615	1.046550
C85	C	-0.506004	1.063634	0.628349
C86	C	-0.006004	1.563634	1.128349
C87	C	-0.506103	1.063568	0.163391
C88	C	-0.006103	1.563568	0.663391
C89	C	-0.505838	1.063691	0.081592
C90	C	-0.005838	1.563691	0.581592
C91	C	-0.438749	1.110736	0.816557
C92	C	0.061251	1.610736	1.316557
C93	C	-0.438719	1.110744	0.893416
C94	C	0.061281	1.610744	1.393416
C95	C	-0.573096	1.016584	0.893379
C96	C	-0.073096	1.516584	1.393379
C97	C	-0.573120	1.016572	0.816521
C98	C	-0.073120	1.516572	1.316521
C99	C	-0.505949	1.063652	0.778112
C100	C	-0.005949	1.563652	1.278112
C101	C	-0.505894	1.063673	0.931829
C102	C	-0.005894	1.563673	1.431829
C103	C	-0.505861	1.063682	1.015162
C104	C	-0.005861	1.563682	1.515162
C105	C	-0.505980	1.063642	0.694773
C106	C	-0.005980	1.563642	1.194773
H107	H	-0.628172	0.633679	0.439843
H108	H	-0.128172	1.133679	0.939843
N109	N	-0.645594	0.965771	0.775060
N110	N	-0.145594	1.465771	1.275060
H111	H	-0.720661	0.977179	0.788423
H112	H	-0.220661	1.477179	1.288423
H113	H	-0.635328	0.972921	0.720556
H114	H	-0.135328	1.472921	1.220556
H115	H	-0.628176	0.494252	0.439859
H116	H	-0.128176	0.994252	0.939859
N117	N	-0.891541	0.965699	0.452340
N118	N	-0.391541	1.465699	0.952340
H119	H	-0.910569	0.977105	0.504937
H120	H	-0.410569	1.477105	1.004937
H121	H	-0.910722	0.913149	0.440806
H122	H	-0.410722	1.413149	0.940806
H123	H	-0.384044	0.633643	0.269355
H124	H	0.115956	1.133643	0.769355
N125	N	-0.366248	1.161535	0.934879
N126	N	0.133752	1.661535	1.434879
H127	H	-0.376420	1.154400	0.989397
H128	H	0.123580	1.654400	1.489397
H129	H	-0.291217	1.150098	0.921451
H130	H	0.208783	1.650098	1.421451
N131	N	-0.366303	1.161511	0.775129
N132	N	0.133697	1.661511	1.275129
H133	H	-0.323727	1.191338	0.811149
H134	H	0.176273	1.691338	1.311149
H135	H	-0.317692	1.131560	0.743240
H136	H	0.182308	1.631560	1.243240
N137	N	-0.645526	0.965805	0.934817
N138	N	-0.145526	1.465805	1.434817
H139	H	-0.694205	0.995703	0.966708
H140	H	-0.194205	1.495703	1.466708
H141	H	-0.688030	0.935977	0.898760
H142	H	-0.188030	1.435977	1.398760
N143	N	-0.366306	0.484049	0.256934
N144	N	0.133694	0.984049	0.756934
H145	H	-0.376529	0.429530	0.264058
H146	H	0.123471	0.929530	0.764058
H147	H	-0.382590	0.497471	0.204361
H148	H	0.117410	0.997471	0.704361
N149	N	-0.777490	1.157699	0.260519
N150	N	-0.277490	1.657699	0.760519
H151	H	-0.751053	1.194662	0.223587
H152	H	-0.251053	1.694662	0.723587
H153	H	-0.751072	1.171168	0.311034
H154	H	-0.251072	1.671168	0.811034
H155	H	-0.905999	1.243192	0.175238
H156	H	-0.405999	1.743192	0.675238
N157	N	-1.119576	1.255724	0.162852
N158	N	-0.619576	1.755724	0.662852
H159	H	-1.100407	1.308293	0.174322
H160	H	-0.600407	1.808293	0.674322
H161	H	-1.100526	1.244250	0.110276
H162	H	-0.600526	1.744250	0.610276
N163	N	-1.233627	1.157897	0.260627
N164	N	-0.733627	1.657897	0.760627
H165	H	-1.260051	1.194887	0.223710
H166	H	-0.760051	1.694887	0.723710
H167	H	-1.260051	1.107406	0.247082
H168	H	-0.760051	1.607406	0.747082
H169	H	-1.105127	0.978227	0.439955
H170	H	-0.605127	1.478227	0.939955
