data_functionalizedCrystal
_audit_creation_method	'MofGen! by Chris Wilmer'
_symmetry_space_group_name_H-M	'P1'
_symmetry_Int_Tables_number	1
_symmetry_cell_setting	triclinic
loop_
_symmetry_equiv_pos_as_xyz
  x,y,z
_cell_length_a	17.077404
_cell_length_b	16.625546
_cell_length_c	17.077396
_cell_angle_alpha	89.969785
_cell_angle_beta	89.980499
_cell_angle_gamma	90.022693
loop_
_atom_site_label
_atom_site_type_symbol
_atom_site_fract_x
_atom_site_fract_y
_atom_site_fract_z
Zn1	Zn	1.200057	-0.320997	-0.443833
Zn2	Zn	1.700057	0.179003	0.056167
Zn3	Zn	1.199965	-0.455839	-0.312563
Zn4	Zn	1.699965	0.044161	0.187437
Zn5	Zn	1.068789	-0.321025	-0.312581
Zn6	Zn	1.568789	0.178975	0.187419
Zn7	Zn	1.068758	-0.455792	-0.443787
Zn8	Zn	1.568758	0.044208	0.056213
O9	O	1.134392	-0.388413	-0.378191
O10	O	1.634392	0.111587	0.121809
O11	O	1.309892	-0.338892	-0.426432
O12	O	1.809892	0.161108	0.073568
O13	O	1.182539	-0.437988	-0.202719
O14	O	1.682539	0.062012	0.297281
O15	O	1.086253	-0.208189	-0.330019
O16	O	1.586253	0.291811	0.169981
O17	O	1.309824	-0.437960	-0.329988
O18	O	1.809824	0.062040	0.170012
O19	O	1.182695	-0.208168	-0.426449
O20	O	1.682695	0.291832	0.073551
O21	O	1.086164	-0.338940	-0.202732
O22	O	1.586164	0.161060	0.297268
O23	O	0.958938	-0.338894	-0.329974
O24	O	1.458938	0.161106	0.170026
O25	O	1.086200	-0.437879	-0.553640
O26	O	1.586200	0.062121	-0.053640
O27	O	0.958915	-0.437906	-0.426370
O28	O	1.458915	0.062094	0.073630
O29	O	1.182665	-0.338846	-0.553674
O30	O	1.682665	0.161154	-0.053674
O31	O	1.182509	-0.568666	-0.329943
O32	O	1.682509	-0.068666	0.170057
O33	O	1.086111	-0.568630	-0.426353
O34	O	1.586111	-0.068630	0.073647
C35	C	0.930444	-0.388399	-0.378169
C36	C	1.430444	0.111601	0.121831
C37	C	0.843194	-0.388412	-0.378179
C38	C	1.343194	0.111588	0.121821
C39	C	0.802213	-0.440045	-0.428292
C40	C	1.302213	0.059955	0.071708
C41	C	0.720232	-0.440047	-0.428304
C42	C	1.220232	0.059953	0.071696
C43	C	0.679235	-0.388419	-0.378199
C44	C	1.179235	0.111581	0.121801
C45	C	0.720222	-0.336780	-0.328084
C46	C	1.220222	0.163220	0.171916
C47	C	0.802201	-0.336774	-0.328076
C48	C	1.302201	0.163226	0.171924
C49	C	0.549352	-0.336795	-0.328103
C50	C	1.049352	0.163205	0.171897
C51	C	0.467368	-0.336801	-0.328110
C52	C	0.967368	0.163199	0.171890
C53	C	0.467383	-0.440068	-0.428331
C54	C	0.967383	0.059932	0.071669
C55	C	0.549362	-0.440063	-0.428323
C56	C	1.049362	0.059937	0.071677
C57	C	0.590344	-0.388425	-0.378207
C58	C	1.090344	0.111575	0.121793
C59	C	1.134318	-0.597904	-0.378158
C60	C	1.634318	-0.097904	0.121842
C61	C	1.134358	-0.687525	-0.378170
C62	C	1.634358	-0.187525	0.121830
C63	C	1.134495	-1.015701	-0.378252
C64	C	1.634495	-0.515701	0.121748
C65	C	1.134454	-0.924392	-0.378232
C66	C	1.634454	-0.424392	0.121768
C67	C	1.134426	-0.851616	-0.378211
C68	C	1.634426	-0.351616	0.121789
C69	C	1.134386	-0.760302	-0.378191
C70	C	1.634386	-0.260302	0.121809
C71	C	1.339136	-0.388428	-0.378213
C72	C	1.839136	0.111572	0.121787
C73	C	1.426386	-0.388435	-0.378223
C74	C	1.926386	0.111565	0.121777
C75	C	1.134440	-0.388354	-0.582936
C76	C	1.634440	0.111646	-0.082936
C77	C	1.134460	-0.388329	-0.670185
C78	C	1.634460	0.111671	-0.170185
C79	C	1.134488	-0.178104	-0.378241
C80	C	1.634488	0.321896	0.121759
C81	C	1.134529	-0.088483	-0.378263
C82	C	1.634529	0.411517	0.121737
C83	C	1.184691	-0.336758	-0.711195
C84	C	1.684691	0.163242	-0.211195
C85	C	1.184700	-0.336731	-0.793175
C86	C	1.684700	0.163269	-0.293175
C87	C	1.134482	-0.388280	-0.834145
C88	C	1.634482	0.111720	-0.334145
C89	C	1.084245	-0.439853	-0.793130
C90	C	1.584245	0.060147	-0.293130
C91	C	1.084233	-0.439875	-0.711151
C92	C	1.584233	0.060125	-0.211151
C93	C	1.084277	-0.439804	-0.964000
C94	C	1.584277	0.060196	-0.464000
C95	C	1.084291	-0.439783	-1.045985
C96	C	1.584291	0.060217	-0.545985
C97	C	1.184745	-0.336660	-1.046024
C98	C	1.684745	0.163340	-0.546024
C99	C	1.184732	-0.336682	-0.964045
C100	C	1.684732	0.163318	-0.464045
C101	C	1.134496	-0.388257	-0.923036
C102	C	1.634496	0.111743	-0.423036
C103	C	1.134390	-0.388414	-0.174243
C104	C	1.634390	0.111586	0.325757
C105	C	1.134522	-0.388212	-0.086994
C106	C	1.634522	0.111788	0.413006
H107	H	0.686836	-0.294739	-0.287291
H108	H	1.186836	0.205261	0.212709
H109	H	1.043397	-0.481757	-1.079340
H110	H	1.543397	0.018243	-0.579340
H111	H	1.043357	-0.481789	-0.930613
H112	H	1.543357	0.018211	-0.430613
C113	C	1.029009	-0.496558	-0.838201
C114	C	1.529009	0.003442	-0.338201
C115	C	1.063014	-0.559846	-0.894545
C116	C	1.563014	-0.059846	-0.394545
C117	C	1.007782	-0.616555	-0.939617
C118	C	1.507782	-0.116555	-0.439617
C119	C	0.918544	-0.609977	-0.928344
C120	C	1.418544	-0.109977	-0.428344
C121	C	0.884535	-0.546686	-0.871997
C122	C	1.384535	-0.046686	-0.371997
C123	C	0.939767	-0.489977	-0.826925
C124	C	1.439767	0.010023	-0.326925
H125	H	1.129077	-0.564718	-0.902893
H126	H	1.629077	-0.064718	-0.402893
H127	H	1.032958	-0.663407	-0.981329
H128	H	1.532958	-0.163407	-0.481329
H129	H	0.877658	-0.651956	-0.961709
H130	H	1.377658	-0.151956	-0.461709
H131	H	0.818472	-0.541814	-0.863649
H132	H	1.318472	-0.041814	-0.363649
H133	H	0.914591	-0.443125	-0.785213
H134	H	1.414591	0.056875	-0.285213
C135	C	0.847286	-0.279977	-0.272952
C136	C	1.347286	0.220023	0.227048
C137	C	0.836044	-0.188324	-0.279524
C138	C	1.336044	0.311676	0.220476
C139	C	0.881129	-0.131521	-0.224403
C140	C	1.381129	0.368479	0.275597
C141	C	0.937455	-0.166370	-0.162710
C142	C	1.437455	0.333630	0.337290
C143	C	0.948699	-0.258027	-0.156136
C144	C	1.448699	0.241973	0.343864
C145	C	0.903614	-0.314830	-0.211257
C146	C	1.403614	0.185170	0.288743
H147	H	0.794346	-0.162523	-0.325195
H148	H	1.294346	0.337477	0.174805
H149	H	0.872805	-0.063670	-0.229270
H150	H	1.372805	0.436330	0.270730
H151	H	0.970829	-0.124320	-0.121906
H152	H	1.470829	0.375680	0.378094
H153	H	0.990397	-0.283828	-0.110465
H154	H	1.490397	0.216172	0.389535
H155	H	0.911938	-0.382681	-0.206390
H156	H	1.411938	0.117319	0.293610
C157	C	0.594437	-0.279992	-0.272979
C158	C	1.094437	0.220008	0.227021
C159	C	0.583199	-0.188339	-0.279548
C160	C	1.083199	0.311661	0.220452
C161	C	0.628286	-0.131539	-0.224425
C162	C	1.128286	0.368461	0.275575
C163	C	0.684611	-0.166392	-0.162735
C164	C	1.184611	0.333608	0.337265
C165	C	0.695852	-0.258050	-0.156163
C166	C	1.195852	0.241950	0.343837
C167	C	0.650765	-0.314849	-0.211286
C168	C	1.150765	0.185151	0.288714
H169	H	0.541501	-0.162534	-0.325217
H170	H	1.041501	0.337466	0.174783
H171	H	0.619964	-0.063688	-0.229290
H172	H	1.119964	0.436312	0.270710
H173	H	0.717987	-0.124345	-0.121930
H174	H	1.217987	0.375655	0.378070
H175	H	0.737550	-0.283854	-0.110494
H176	H	1.237550	0.216146	0.389506
H177	H	0.659087	-0.382701	-0.206421
H178	H	1.159087	0.117299	0.293579
H179	H	1.043321	-0.481861	-0.677762
H180	H	1.543321	0.018139	-0.177762
H181	H	0.434012	-0.482112	-0.469140
H182	H	0.934012	0.017888	0.030860
H183	H	0.835587	-0.482090	-0.469091
H184	H	1.335587	0.017910	0.030909
H185	H	0.686869	-0.482093	-0.469111
H186	H	1.186869	0.017907	0.030889
H187	H	0.433990	-0.294752	-0.287319
H188	H	0.933990	0.205248	0.212681
C189	C	1.239999	-0.279920	-1.091130
C190	C	1.739999	0.220080	-0.591130
C191	C	1.295241	-0.223220	-1.046066
C192	C	1.795241	0.276780	-0.546066
C193	C	1.350495	-0.166484	-1.091176
C194	C	1.850495	0.333516	-0.591176
C195	C	1.350507	-0.166448	-1.181350
C196	C	1.850507	0.333552	-0.681350
C197	C	1.295263	-0.223150	-1.226419
C198	C	1.795263	0.276850	-0.726419
C199	C	1.240009	-0.279886	-1.181309
C200	C	1.740009	0.220114	-0.681309
H201	H	1.295234	-0.223245	-0.979310
H202	H	1.795234	0.276755	-0.479310
H203	H	1.391390	-0.124510	-1.057813
H204	H	1.891390	0.375490	-0.557813
H205	H	1.391409	-0.124449	-1.214743
H206	H	1.891409	0.375551	-0.714743
H207	H	1.295270	-0.223125	-1.293175
H208	H	1.795270	0.276875	-0.793175
H209	H	1.199114	-0.321860	-1.214673
H210	H	1.699114	0.178140	-0.714673
H211	H	0.582740	-0.482108	-0.469119
H212	H	1.082740	0.017892	0.030881
H213	H	1.225587	-0.294783	-0.677843
H214	H	1.725587	0.205217	-0.177843
H215	H	1.225605	-0.294739	-0.826561
H216	H	1.725605	0.205261	-0.326561
H217	H	1.225629	-0.294711	-0.930690
H218	H	1.725629	0.205289	-0.430690
