data_functionalizedCrystal
_audit_creation_method	'MofGen! by Chris Wilmer'
_symmetry_space_group_name_H-M	'P1'
_symmetry_Int_Tables_number	1
_symmetry_cell_setting	triclinic
loop_
_symmetry_equiv_pos_as_xyz
  x,y,z
_cell_length_a	14.971490
_cell_length_b	26.809956
_cell_length_c	14.971494
_cell_angle_alpha	89.993934
_cell_angle_beta	96.383397
_cell_angle_gamma	89.988826
loop_
_atom_site_label
_atom_site_type_symbol
_atom_site_fract_x
_atom_site_fract_y
_atom_site_fract_z
O1	O	-1.186953	0.041505	0.116565
O2	O	-0.686953	0.541505	0.616565
O3	O	-0.926554	0.041499	0.130521
O4	O	-0.426554	0.541499	0.630521
O5	O	-1.063729	0.041501	-0.006656
O6	O	-0.563729	0.541501	0.493344
O7	O	-1.049778	0.041503	0.253743
O8	O	-0.549778	0.541503	0.753743
O9	O	-1.063703	-0.041458	-0.006635
O10	O	-0.563703	0.458542	0.493365
O11	O	-0.926528	-0.041460	0.130542
O12	O	-0.426528	0.458540	0.630542
O13	O	-1.186927	-0.041455	0.116586
O14	O	-0.686927	0.458545	0.616586
Zn15	Zn	-1.056724	-0.054629	0.123567
Zn16	Zn	-0.556724	0.445371	0.623567
Zn17	Zn	-1.056758	0.054674	0.123540
Zn18	Zn	-0.556758	0.554674	0.623540
O19	O	-1.049752	-0.041456	0.253763
O20	O	-0.549752	0.458544	0.753763
C21	C	-0.893216	0.000019	0.129907
C22	C	-0.393216	0.500019	0.629907
C23	C	-0.793919	0.000017	0.128034
C24	C	-0.293919	0.500017	0.628034
N25	N	-1.056707	-0.129225	0.123586
N26	N	-0.556707	0.370775	0.623586
C27	C	-0.366227	0.045248	0.119945
C28	C	0.133773	0.545248	0.619945
C29	C	-0.459528	0.045246	0.121701
C30	C	0.040472	0.545246	0.621701
C31	C	-0.506159	0.000024	0.122597
C32	C	-0.006159	0.500024	0.622597
C33	C	-0.459487	-0.045200	0.121727
C34	C	0.040513	0.454800	0.621727
C35	C	-0.366189	-0.045198	0.119964
C36	C	0.133811	0.454802	0.619964
C37	C	-0.653949	-0.045201	0.125403
C38	C	-0.153949	0.454799	0.625403
C39	C	-0.747253	-0.045203	0.127167
C40	C	-0.247253	0.454797	0.627167
C41	C	-0.747288	0.045244	0.127140
C42	C	-0.247288	0.545244	0.627140
C43	C	-0.653990	0.045246	0.125377
C44	C	-0.153990	0.545246	0.625377
C45	C	-0.607324	0.000021	0.124509
C46	C	-0.107324	0.500021	0.624509
C47	C	-1.117491	-0.473850	0.062813
C48	C	-0.617491	0.026150	0.562813
C49	C	-1.117512	-0.682728	0.062799
C50	C	-0.617512	-0.182728	0.562799
O51	O	-1.169157	-0.709731	0.011133
O52	O	-0.669157	-0.209731	0.511133
N53	N	-1.056762	-0.708852	0.123520
N54	N	-0.556762	-0.208852	0.623520
C55	C	-0.995999	-0.682753	0.184245
C56	C	-0.495999	-0.182753	0.684245
O57	O	-0.944322	-0.709766	0.235885
O58	O	-0.444322	-0.209766	0.735885
C59	C	-0.995974	-0.473877	0.184253
C60	C	-0.495974	0.026123	0.684253
C61	C	-1.056734	-0.447755	0.123535
C62	C	-0.556734	0.052245	0.623535
C63	C	-1.178245	-0.447729	0.002098
C64	C	-0.678245	0.052271	0.502098
C65	C	-1.178243	-0.395512	0.002106
C66	C	-0.678243	0.104488	0.502106
C67	C	-1.117486	-0.369417	0.062827
C68	C	-0.617486	0.130583	0.562827
C69	C	-1.056732	-0.395539	0.123542
C70	C	-0.556732	0.104461	0.623542
C71	C	-0.935208	-0.447779	0.244973
C72	C	-0.435208	0.052221	0.744973
C73	C	-0.935205	-0.395556	0.244968
C74	C	-0.435205	0.104444	0.744968
C75	C	-0.995965	-0.369435	0.184249
C76	C	-0.495965	0.130565	0.684249
C77	C	-0.995972	-0.317228	0.184271
C78	C	-0.495972	0.182772	0.684271
N79	N	-1.056722	-0.291104	0.123550
N80	N	-0.556722	0.208896	0.623550
C81	C	-1.117479	-0.317199	0.062828
C82	C	-0.617479	0.182801	0.562828
C83	C	-0.996018	-0.792417	0.184237
C84	C	-0.496018	-0.292417	0.684237
C85	C	-0.996025	-0.844635	0.184236
C86	C	-0.496025	-0.344635	0.684236
C87	C	-1.117537	-0.844606	0.062789
C88	C	-0.617537	-0.344606	0.562789
C89	C	-1.117533	-0.792386	0.062795
C90	C	-0.617533	-0.292386	0.562795
C91	C	-1.056767	-0.766292	0.123516
C92	C	-0.556767	-0.266292	0.623516
C93	C	-1.117469	-0.207541	0.062849
C94	C	-0.617469	0.292459	0.562849
C95	C	-1.117464	-0.155320	0.062864
C96	C	-0.617464	0.344680	0.562864
C97	C	-0.995949	-0.155353	0.184307
C98	C	-0.495949	0.344647	0.684307
C99	C	-0.995957	-0.207570	0.184296
C100	C	-0.495957	0.292430	0.684296
C101	C	-1.056721	-0.233662	0.123559
C102	C	-0.556721	0.266338	0.623559
O103	O	-0.944348	-0.290192	0.235903
O104	O	-0.444348	0.209808	0.735903
O105	O	-1.169135	-0.290177	0.011182
O106	O	-0.669135	0.209823	0.511182
C107	C	-1.117494	-0.526066	0.062806
C108	C	-0.617494	-0.026066	0.562806
C109	C	-1.056740	-0.552188	0.123520
C110	C	-0.556740	-0.052188	0.623520
C111	C	-0.995983	-0.526093	0.184242
C112	C	-0.495983	-0.026093	0.684242
C113	C	-1.056747	-0.604407	0.123519
C114	C	-0.556747	-0.104407	0.623519
C115	C	-1.117503	-0.630502	0.062797
C116	C	-0.617503	-0.130502	0.562797
C117	C	-1.178253	-0.604378	0.002076
C118	C	-0.678253	-0.104378	0.502076
C119	C	-1.178250	-0.552161	0.002084
C120	C	-0.678250	-0.052161	0.502084
C121	C	-0.935233	-0.552217	0.244963
C122	C	-0.435233	-0.052217	0.744963
C123	C	-0.935241	-0.604433	0.244951
C124	C	-0.435241	-0.104433	0.744951
C125	C	-0.995998	-0.630528	0.184229
C126	C	-0.495998	-0.130528	0.684229
C127	C	-0.220265	0.000026	0.117202
C128	C	0.279735	0.500026	0.617202
C129	C	-0.319561	0.000027	0.119078
C130	C	0.180439	0.500027	0.619078
C131	C	-1.063091	0.000022	-0.039970
C132	C	-0.563091	0.500022	0.460030
C133	C	-1.061217	0.000025	-0.139267
C134	C	-0.561217	0.500025	0.360733
N135	N	-1.056782	0.129270	0.123514
N136	N	-0.556782	0.629270	0.623514
C137	C	-1.060353	0.045246	-0.185923
C138	C	-0.560353	0.545246	0.314077
C139	C	-1.058587	0.045247	-0.279222
C140	C	-0.558587	0.545247	0.220778
C141	C	-1.057691	0.000025	-0.325864
C142	C	-0.557691	0.500025	0.174136
C143	C	-1.058552	-0.045200	-0.279201
C144	C	-0.558552	0.454800	0.220799
C145	C	-1.060312	-0.045200	-0.185903
C146	C	-0.560312	0.454800	0.314097
C147	C	-1.054886	-0.045197	-0.473665
C148	C	-0.554886	0.454803	0.026335
C149	C	-1.053128	-0.045197	-0.566970
C150	C	-0.553128	0.454803	-0.066970
C151	C	-1.053161	0.045250	-0.566984
C152	C	-0.553161	0.545250	-0.066984
C153	C	-1.054921	0.045250	-0.473686
C154	C	-0.554921	0.545250	0.026314
C155	C	-1.055784	0.000025	-0.427029
C156	C	-0.555784	0.500025	0.072971
C157	C	-1.050390	0.000024	0.287078
C158	C	-0.550390	0.500024	0.787078
C159	C	-1.052264	0.000025	0.386374
C160	C	-0.552264	0.500025	0.886374
H161	H	-0.328266	0.082073	0.119222
H162	H	0.171734	0.582073	0.619222
H163	H	-1.057818	-0.082020	-0.317184
H164	H	-0.557818	0.417980	0.182816
N165	N	-1.061278	0.091435	-0.138270
N166	N	-0.561278	0.591435	0.361730
N167	N	-1.125264	0.101526	-0.094387
N168	N	-0.625264	0.601526	0.405613
H169	H	-1.125917	0.134148	-0.060732
H170	H	-0.625917	0.634148	0.439268
H171	H	-0.328194	-0.082022	0.119267
H172	H	0.171806	0.417978	0.619267
N173	N	-0.933967	-0.871307	0.246278
N174	N	-0.433967	-0.371307	0.746278
N175	N	-0.879727	-0.847995	0.300486
N176	N	-0.379727	-0.347995	0.800486
H177	H	-0.835894	-0.866830	0.344304
H178	H	-0.335894	-0.366830	0.844304
H179	H	-1.052391	-0.082020	-0.604942
H180	H	-0.552391	0.417980	-0.104942
N181	N	-0.606372	0.091444	0.124456
N182	N	-0.106372	0.591444	0.624456
N183	N	-0.624983	0.121721	0.061643
N184	N	-0.124983	0.621721	0.561643
H185	H	-0.591355	0.154350	0.060990
H186	H	-0.091355	0.654350	0.560990
N187	N	-1.240299	-0.631045	-0.059957
N188	N	-0.740299	-0.131045	0.440043
N189	N	-1.211846	-0.660181	-0.115521
N190	N	-0.711846	-0.160181	0.384479
H191	H	-1.255658	-0.679017	-0.159335
H192	H	-0.755658	-0.179017	0.340665
N193	N	-0.873160	-0.631104	0.306980
N194	N	-0.373160	-0.131104	0.806980
N195	N	-0.790491	-0.625273	0.305606
N196	N	-0.290491	-0.125273	0.805606
H197	H	-0.746641	-0.644107	0.349408
H198	H	-0.246641	-0.144107	0.849408
H199	H	-1.055657	0.082073	-0.435713
H200	H	-0.555657	0.582073	0.064287
N201	N	-0.933950	-0.765757	0.246261
N202	N	-0.433950	-0.265757	0.746261
N203	N	-0.878393	-0.736624	0.217801
N204	N	-0.378393	-0.236624	0.717801
H205	H	-0.834561	-0.717797	0.261607
H206	H	-0.334561	-0.217797	0.761607
H207	H	-0.785287	0.082067	0.127848
H208	H	-0.285287	0.582067	0.627848
H209	H	-1.057887	0.082071	-0.317206
H210	H	-0.557887	0.582071	0.182794
N211	N	-0.507095	-0.091402	0.122646
N212	N	-0.007095	0.408598	0.622646
N213	N	-0.504836	-0.121689	0.059468
N214	N	-0.004836	0.378311	0.559468
H215	H	-0.538453	-0.154321	0.060124
H216	H	-0.038453	0.345679	0.560124
H217	H	-1.052456	0.082074	-0.604976
H218	H	-0.552456	0.582074	-0.104976
H219	H	-0.497520	0.082070	0.122402
H220	H	0.002480	0.582070	0.622402
N221	N	-0.794875	-0.091401	0.128064
N222	N	-0.294875	0.408599	0.628064
N223	N	-0.855108	-0.101499	0.066052
N224	N	-0.355108	0.398501	0.566052
H225	H	-0.888736	-0.134129	0.066685
H226	H	-0.388736	0.365871	0.566685
H227	H	-1.166945	-0.134053	0.013419
H228	H	-0.666945	0.365947	0.513419
H229	H	-0.885731	-0.469040	0.294415
H230	H	-0.385731	0.030960	0.794415
H231	H	-1.166947	-0.228779	0.013390
H232	H	-0.666947	0.271221	0.513390
H233	H	-1.227716	-0.374247	-0.047339
H234	H	-0.727716	0.125753	0.452661
N235	N	-0.606294	-0.091401	0.124509
N236	N	-0.106294	0.408599	0.624509
N237	N	-0.647937	-0.131775	0.125311
N238	N	-0.147937	0.368225	0.625311
H239	H	-0.614281	-0.164403	0.124683
H240	H	-0.114281	0.335597	0.624683
N241	N	-1.240314	-0.474371	-0.059943
N242	N	-0.740314	0.025629	0.440057
N243	N	-1.294547	-0.451032	-0.114144
N244	N	-0.794547	0.048968	0.385856
H245	H	-1.338391	-0.469844	-0.157962
H246	H	-0.838391	0.030156	0.342038
H247	H	-1.055570	-0.082024	-0.435677
H248	H	-0.555570	0.417976	0.064323
N249	N	-0.933887	-0.234257	0.246305
N250	N	-0.433887	0.265743	0.746305
N251	N	-0.878339	-0.263395	0.217817
N252	N	-0.378339	0.236605	0.717817
H253	H	-0.834495	-0.282241	0.261606
H254	H	-0.334495	0.217759	0.761606
N255	N	-1.179558	-0.765714	0.000721
N256	N	-0.679558	-0.265714	0.500721
N257	N	-1.233769	-0.789026	-0.053515
N258	N	-0.733769	-0.289026	0.446485
H259	H	-1.277558	-0.770191	-0.097377
H260	H	-0.777558	-0.270191	0.402623
N261	N	-0.873123	-0.368911	0.306998
N262	N	-0.373123	0.131089	0.806998
N263	N	-0.818883	-0.392244	0.361200
N264	N	-0.318883	0.107756	0.861200
H265	H	-0.775037	-0.373427	0.405011
H266	H	-0.275037	0.126573	0.905011
N267	N	-1.179580	-0.871275	0.000755
N268	N	-0.679580	-0.371275	0.500755
N269	N	-1.179557	-0.917898	0.000759
N270	N	-0.679557	-0.417898	0.500759
H271	H	-1.223363	-0.936735	-0.043060
H272	H	-0.723363	-0.436735	0.456940
H273	H	-0.946484	-0.134099	0.233749
H274	H	-0.446484	0.365901	0.733749
H275	H	-0.885756	-0.530974	0.294409
H276	H	-0.385756	-0.030974	0.794409
N277	N	-1.061185	-0.091397	-0.138255
N278	N	-0.561185	0.408603	0.361745
N279	N	-1.060381	-0.131771	-0.179907
N280	N	-0.560381	0.368229	0.320093
H281	H	-1.060992	-0.164400	-0.146256
H282	H	-0.560992	0.335600	0.353744
N283	N	-1.240322	-0.525491	-0.059946
N284	N	-0.740322	-0.025491	0.440054
N285	N	-1.294558	-0.548805	-0.114153
N286	N	-0.794558	-0.048805	0.385847
H287	H	-1.338399	-0.529972	-0.157967
H288	H	-0.838399	-0.029972	0.342033
