data_functionalizedCrystal
_audit_creation_method	'MofGen! by Chris Wilmer'
_symmetry_space_group_name_H-M	'P1'
_symmetry_Int_Tables_number	1
_symmetry_cell_setting	triclinic
loop_
_symmetry_equiv_pos_as_xyz
  x,y,z
_cell_length_a	16.974885
_cell_length_b	19.188924
_cell_length_c	16.053919
_cell_angle_alpha	92.885510
_cell_angle_beta	89.241669
_cell_angle_gamma	83.267823
loop_
_atom_site_label
_atom_site_type_symbol
_atom_site_fract_x
_atom_site_fract_y
_atom_site_fract_z
O1	O	1.048766	0.088912	-0.001364
O2	O	1.548766	0.588912	0.498636
O3	O	0.819185	0.100835	0.014136
O4	O	1.319185	0.600835	0.514136
O5	O	0.940603	-0.006789	0.005929
O6	O	1.440603	0.493211	0.505929
O7	O	0.927348	0.196535	0.006843
O8	O	1.427348	0.696535	0.506843
O9	O	0.934680	-0.011996	-0.132529
O10	O	1.434680	0.488004	0.367471
O11	O	0.813261	0.095627	-0.124321
O12	O	1.313261	0.595627	0.375679
O13	O	1.042843	0.083704	-0.139821
O14	O	1.542843	0.583704	0.360179
Zn15	Zn	0.927112	0.088839	-0.154055
Zn16	Zn	1.427112	0.588839	0.345945
Zn17	Zn	0.934916	0.095700	0.028369
Zn18	Zn	1.434916	0.595700	0.528369
O19	O	0.921424	0.191327	-0.131614
O20	O	1.421424	0.691327	0.368386
C21	C	0.786851	0.097875	-0.053110
C22	C	1.286851	0.597875	0.446890
C23	C	0.699332	0.096806	-0.047201
C24	C	1.199332	0.596806	0.452799
C25	C	0.207047	0.091073	-0.005785
C26	C	0.707047	0.591073	0.494215
C27	C	0.289280	0.092077	-0.011348
C28	C	0.789280	0.592077	0.488652
C29	C	0.327159	0.089746	-0.089603
C30	C	0.827159	0.589746	0.410397
C31	C	0.282801	0.086403	-0.162300
C32	C	0.782801	0.586403	0.337700
C33	C	0.200571	0.085394	-0.156737
C34	C	0.700571	0.585394	0.343263
C35	C	0.572745	0.092454	-0.114335
C36	C	1.072745	0.592454	0.385665
C37	C	0.654981	0.093466	-0.119893
C38	C	1.154981	0.593466	0.380107
C39	C	0.661454	0.099139	0.031060
C40	C	1.161454	0.599139	0.531060
C41	C	0.579221	0.098134	0.036617
C42	C	1.079221	0.598134	0.536617
C43	C	0.534871	0.094787	-0.036081
C44	C	1.034871	0.594787	0.463919
N45	N	0.411213	0.090774	-0.095291
N46	N	0.911213	0.590774	0.404709
N47	N	0.450819	0.093754	-0.030392
N48	N	0.950819	0.593754	0.469608
C49	C	0.937213	-0.035403	-0.063272
C50	C	1.437213	0.464597	0.436728
C51	C	0.935927	-0.112907	-0.063187
C52	C	1.435927	0.387093	0.436813
C53	C	0.938556	-0.146467	0.012327
C54	C	1.438556	0.353533	0.512327
C55	C	0.937336	-0.219288	0.012415
C56	C	1.437336	0.280712	0.512415
C57	C	0.933504	-0.258549	-0.063015
C58	C	1.433504	0.241451	0.436985
C59	C	0.930871	-0.224981	-0.138539
C60	C	1.430871	0.275019	0.361461
C61	C	0.932082	-0.152159	-0.138625
C62	C	1.432082	0.347841	0.361375
N63	N	0.974065	-0.380360	-0.122087
N64	N	1.474065	0.119640	0.377913
N65	N	0.972916	-0.449537	-0.122001
N66	N	1.472916	0.050463	0.377999
C67	C	0.929853	-0.477955	-0.062761
C68	C	1.429853	0.022045	0.437239
N69	N	0.887992	-0.434583	-0.003599
N70	N	1.387992	0.065417	0.496401
N71	N	0.889144	-0.365400	-0.003683
N72	N	1.389144	0.134600	0.496317
C73	C	0.932190	-0.337512	-0.062930
C74	C	1.432190	0.162488	0.437070
C75	C	0.931158	-0.590476	0.012854
C76	C	1.431158	-0.090476	0.512854
C77	C	0.929934	-0.663298	0.012940
C78	C	1.429934	-0.163298	0.512940
C79	C	0.923477	-0.668990	-0.138016
C80	C	1.423477	-0.168990	0.361984
C81	C	0.924693	-0.596168	-0.138100
C82	C	1.424693	-0.096168	0.361900
C83	C	0.928538	-0.556916	-0.062662
C84	C	1.428538	-0.056916	0.437338
C85	C	1.075176	0.086664	-0.072574
C86	C	1.575176	0.586664	0.427426
C87	C	1.162695	0.087733	-0.078477
C88	C	1.662695	0.587733	0.421523
C89	C	0.924815	0.219942	-0.062412
C90	C	1.424815	0.719942	0.437588
C91	C	0.926101	0.297446	-0.062491
C92	C	1.426101	0.797446	0.437509
N93	N	0.921791	0.084156	-0.278554
N94	N	1.421791	0.584156	0.221446
C95	C	0.894437	0.059826	-0.800333
C96	C	1.394437	0.559826	-0.300333
C97	C	0.898153	0.063129	-0.713178
C98	C	1.398153	0.563129	-0.213178
C99	C	0.947671	0.106988	-0.672823
C100	C	1.447671	0.606988	-0.172823
C101	C	0.993483	0.147541	-0.719629
C102	C	1.493483	0.647541	-0.219629
C103	C	0.989770	0.144234	-0.806783
C104	C	1.489770	0.644234	-0.306783
C105	C	0.963890	0.121401	-0.412513
C106	C	1.463890	0.621401	0.087487
C107	C	0.967597	0.124707	-0.325353
C108	C	1.467597	0.624707	0.174647
C109	C	0.872268	0.040294	-0.318908
C110	C	1.372268	0.540294	0.181092
C111	C	0.868556	0.036994	-0.406063
C112	C	1.368556	0.536994	0.093937
C113	C	0.914371	0.077544	-0.452861
C114	C	1.414371	0.577544	0.047139
N115	N	0.951469	0.110367	-0.583737
N116	N	1.451469	0.610367	-0.083737
N117	N	0.910576	0.074161	-0.541946
N118	N	1.410576	0.574161	-0.041946
N119	N	0.940242	0.100377	0.152868
N120	N	1.440242	0.600377	0.652868
H121	H	0.325388	0.094793	0.047846
H122	H	0.825388	0.594793	0.547846
Cl123	Cl	0.940641	-0.261487	0.107354
Cl124	Cl	1.440641	0.238513	0.607354
H125	H	0.176212	0.092977	0.057939
H126	H	0.676212	0.592977	0.557939
Cl127	Cl	0.832177	0.004689	-0.851055
Cl128	Cl	1.332177	0.504689	-0.351055
H129	H	0.697572	0.101862	0.090246
H130	H	1.197572	0.601862	0.590246
H131	H	0.548386	0.100031	0.100340
H132	H	1.048386	0.600031	0.600340
Cl133	Cl	0.806298	-0.018142	-0.456788
Cl134	Cl	1.306298	0.481858	0.043212
Cl135	Cl	0.926047	-0.274335	-0.233365
Cl136	Cl	1.426047	0.225665	0.266635
Cl137	Cl	1.021479	0.172385	-0.471334
Cl138	Cl	1.521479	0.672385	0.028666
Cl139	Cl	0.921388	-0.553976	-0.233037
Cl140	Cl	1.421388	-0.053976	0.266963
Cl141	Cl	1.055739	0.202675	-0.668898
Cl142	Cl	1.555739	0.702675	-0.168898
Cl143	Cl	0.702599	0.090533	-0.218279
Cl144	Cl	1.202599	0.590533	0.281721
H145	H	0.929938	-0.124836	-0.200119
H146	H	1.429938	0.375164	0.299881
Cl147	Cl	0.918654	-0.718339	-0.232844
Cl148	Cl	1.418654	-0.218339	0.267156
H149	H	0.934284	-0.558514	0.074281
H150	H	1.434284	-0.058514	0.574281
H151	H	0.860855	0.030105	-0.675078
H152	H	1.360855	0.530105	-0.175078
Cl153	Cl	0.144815	0.081188	-0.248125
Cl154	Cl	0.644815	0.581188	0.251875
Cl155	Cl	0.933233	-0.705487	0.107882
Cl156	Cl	1.433233	-0.205487	0.607882
H157	H	0.834970	0.007279	-0.280796
H158	H	1.334970	0.507279	0.219204
H159	H	0.536646	0.089719	-0.173531
H160	H	1.036646	0.589719	0.326469
H161	H	0.313649	0.084500	-0.226017
H162	H	0.813649	0.584500	0.273983
Cl163	Cl	1.029876	0.179829	-0.274625
Cl164	Cl	1.529876	0.679829	0.225375
H165	H	1.027070	0.177255	-0.844886
H166	H	1.527070	0.677255	-0.344886
H167	H	0.941684	-0.114511	0.073754
H168	H	1.441684	0.385489	0.573754
