data_functionalizedCrystal
_audit_creation_method	'MofGen! by Chris Wilmer'
_symmetry_space_group_name_H-M	'P1'
_symmetry_Int_Tables_number	1
_symmetry_cell_setting	triclinic
loop_
_symmetry_equiv_pos_as_xyz
  x,y,z
_cell_length_a	9.065218
_cell_length_b	13.596369
_cell_length_c	14.519709
_cell_angle_alpha	90.006934
_cell_angle_beta	95.651952
_cell_angle_gamma	89.992526
loop_
_atom_site_label
_atom_site_type_symbol
_atom_site_fract_x
_atom_site_fract_y
_atom_site_fract_z
O1	O	-1.957869	0.081844	0.135229
O2	O	-1.707869	0.331844	0.385229
O3	O	-1.457869	0.581844	0.635229
O4	O	-1.207869	0.831844	0.885229
O5	O	-1.528376	0.081835	0.146321
O6	O	-1.278376	0.331835	0.396321
O7	O	-1.028376	0.581835	0.646321
O8	O	-0.778376	0.831835	0.896321
O9	O	-1.754510	0.081831	0.006620
O10	O	-1.504510	0.331831	0.256620
O11	O	-1.254510	0.581831	0.506620
O12	O	-1.004510	0.831831	0.756620
O13	O	-1.731735	0.081848	0.274930
O14	O	-1.481735	0.331848	0.524930
O15	O	-1.231735	0.581848	0.774930
O16	O	-0.981735	0.831848	1.024930
O17	O	-1.754487	-0.081752	0.006612
O18	O	-1.504487	0.168248	0.256612
O19	O	-1.254487	0.418248	0.506612
O20	O	-1.004487	0.668248	0.756612
O21	O	-1.528353	-0.081748	0.146313
O22	O	-1.278353	0.168252	0.396313
O23	O	-1.028353	0.418252	0.646313
O24	O	-0.778353	0.668252	0.896313
O25	O	-1.957846	-0.081739	0.135221
O26	O	-1.707846	0.168261	0.385221
O27	O	-1.457846	0.418261	0.635221
O28	O	-1.207846	0.668261	0.885221
Zn29	Zn	-1.743096	-0.107715	0.140766
Zn30	Zn	-1.493096	0.142285	0.390766
Zn31	Zn	-1.243096	0.392285	0.640766
Zn32	Zn	-0.993096	0.642285	0.890766
Zn33	Zn	-1.743126	0.107812	0.140776
Zn34	Zn	-1.493126	0.357812	0.390776
Zn35	Zn	-1.243126	0.607812	0.640776
Zn36	Zn	-0.993126	0.857812	0.890776
O37	O	-1.731712	-0.081734	0.274922
O38	O	-1.481712	0.168266	0.524922
O39	O	-1.231712	0.418266	0.774922
O40	O	-0.981712	0.668266	1.024922
C41	C	-1.473398	0.000043	0.145251
C42	C	-1.223398	0.250043	0.395251
C43	C	-0.973398	0.500043	0.645251
C44	C	-0.723398	0.750043	0.895251
C45	C	-1.309615	0.000039	0.142063
C46	C	-1.059615	0.250039	0.392063
C47	C	-0.809615	0.500039	0.642063
C48	C	-0.559615	0.750039	0.892063
N49	N	-1.743087	-0.254807	0.140758
N50	N	-1.493087	-0.004807	0.390758
N51	N	-1.243087	0.245193	0.640758
N52	N	-0.993087	0.495193	0.890758
C53	C	-1.743124	-0.656098	0.140777
C54	C	-1.493124	-0.406098	0.390777
C55	C	-1.243124	-0.156098	0.640777
C56	C	-0.993124	0.093902	0.890777
C57	C	-1.743109	-0.544447	0.140775
C58	C	-1.493109	-0.294447	0.390775
C59	C	-1.243109	-0.044447	0.640775
C60	C	-0.993109	0.205553	0.890775
C61	C	-1.743106	-0.455456	0.140768
C62	C	-1.493106	-0.205456	0.390768
C63	C	-1.243106	0.044544	0.640768
C64	C	-0.993106	0.294544	0.890768
C65	C	-1.743090	-0.343798	0.140765
C66	C	-1.493090	-0.093798	0.390765
C67	C	-1.243090	0.156202	0.640765
C68	C	-0.993090	0.406202	0.890765
C69	C	-1.012824	0.000050	0.136291
C70	C	-0.762824	0.250050	0.386291
C71	C	-0.512824	0.500050	0.636291
C72	C	-0.262824	0.750050	0.886291
C73	C	-1.176607	0.000042	0.139478
C74	C	-0.926607	0.250042	0.389478
C75	C	-0.676607	0.500042	0.639478
C76	C	-0.426607	0.750042	0.889478
C77	C	-1.753437	0.000040	-0.027752
C78	C	-1.503437	0.250040	0.222248
C79	C	-1.253437	0.500040	0.472248
C80	C	-1.003437	0.750040	0.722248
C81	C	-1.750256	0.000039	-0.130156
C82	C	-1.500256	0.250039	0.119844
C83	C	-1.250256	0.500039	0.369844
C84	C	-1.000256	0.750039	0.619844
N85	N	-1.743147	0.254904	0.140776
N86	N	-1.493147	0.504904	0.390776
N87	N	-1.243147	0.754904	0.640776
N88	N	-0.993147	1.004904	0.890776
C89	C	-1.738547	0.000064	-0.505138
C90	C	-1.488547	0.250064	-0.255138
C91	C	-1.238547	0.500064	-0.005138
C92	C	-0.988547	0.750064	0.244862
C93	C	-1.741799	0.000057	-0.400806
C94	C	-1.491799	0.250057	-0.150806
C95	C	-1.241799	0.500057	0.099194
C96	C	-0.991799	0.750057	0.349194
C97	C	-1.744401	0.000051	-0.317650
C98	C	-1.494401	0.250051	-0.067650
C99	C	-1.244401	0.500051	0.182350
C100	C	-0.994401	0.750051	0.432350
C101	C	-1.747654	0.000045	-0.213312
C102	C	-1.497654	0.250045	0.036688
C103	C	-1.247654	0.500045	0.286688
C104	C	-0.997654	0.750045	0.536688
C105	C	-1.732785	0.000059	0.309294
C106	C	-1.482785	0.250059	0.559294
C107	C	-1.232785	0.500059	0.809294
C108	C	-0.982785	0.750059	1.059294
C109	C	-1.735966	0.000066	0.411698
C110	C	-1.485966	0.250066	0.661698
C111	C	-1.235966	0.500066	0.911698
C112	C	-0.985966	0.750066	1.161698
