data_functionalizedCrystal
_audit_creation_method	'MofGen! by Chris Wilmer'
_symmetry_space_group_name_H-M	'P1'
_symmetry_Int_Tables_number	1
_symmetry_cell_setting	triclinic
loop_
_symmetry_equiv_pos_as_xyz
  x,y,z
_cell_length_a	11.026607
_cell_length_b	14.044220
_cell_length_c	9.483335
_cell_angle_alpha	79.824379
_cell_angle_beta	101.374700
_cell_angle_gamma	100.887447
loop_
_atom_site_label
_atom_site_type_symbol
_atom_site_fract_x
_atom_site_fract_y
_atom_site_fract_z
O1	O	1.636260	0.416189	-0.120913
O2	O	1.277969	0.370141	-0.120912
O3	O	1.451738	0.254262	-0.120898
O4	O	1.462490	0.532069	-0.120927
O5	O	1.487072	0.230670	0.120880
O6	O	1.313302	0.346549	0.120866
O7	O	1.671593	0.392597	0.120866
Cu8	Cu	1.495674	0.367419	0.142942
Cu9	Cu	1.453888	0.395319	-0.142988
O10	O	1.497823	0.508477	0.120852
C11	C	1.249505	0.349850	-0.000022
C12	C	1.112050	0.324526	-0.000022
C13	C	1.464697	0.206348	-0.000008
C14	C	1.450653	0.098725	-0.000006
C15	C	1.045812	0.394451	-0.000030
C16	C	0.903745	0.368279	-0.000029
C17	C	1.424975	-0.098315	-0.000027
C18	C	1.524579	-0.138952	-0.000032
C19	C	1.510291	-0.248592	-0.000043
C20	C	1.439261	0.011335	-0.000015
C21	C	1.700056	0.412889	-0.000027
C22	C	1.837510	0.438214	-0.000037
N23	N	1.525072	0.347797	0.344051
C24	C	1.484864	0.556391	-0.000041
C25	C	1.498906	0.664014	-0.000053
N26	N	1.424498	0.414936	-0.344097
C27	C	1.487026	0.373204	0.583679
C28	C	1.462535	0.389535	0.416271
H29	H	1.094281	0.473691	-0.000030
H30	H	1.620568	-0.091390	-0.000129
H31	H	0.885972	0.517460	-0.000036
N32	N	1.047868	0.219556	0.000007
H33	H	0.955478	0.215738	0.000010
H34	H	1.059556	0.195102	-0.089618
N35	N	1.367599	0.452875	0.334020
H36	H	1.282486	0.424214	0.360452
H37	H	1.393252	0.521273	0.360447
N38	N	1.297813	-0.161292	-0.000029
H39	H	1.305505	-0.231821	-0.000032
H40	H	1.264542	-0.155800	0.089609
H41	H	1.558695	0.325389	0.645778
H42	H	1.596746	0.299979	0.406146
H43	H	0.855277	0.289036	-0.000058
N44	N	1.329575	0.478285	0.573661
H45	H	1.325536	0.480973	0.465728
H46	H	1.244515	0.449587	0.600207
