data_functionalizedCrystal
_audit_creation_method	'MofGen! by Chris Wilmer'
_symmetry_space_group_name_H-M	'P1'
_symmetry_Int_Tables_number	1
_symmetry_cell_setting	triclinic
loop_
_symmetry_equiv_pos_as_xyz
  x,y,z
_cell_length_a	27.732048
_cell_length_b	14.519709
_cell_length_c	12.996460
_cell_angle_alpha	90.007090
_cell_angle_beta	89.991924
_cell_angle_gamma	96.838601
loop_
_atom_site_label
_atom_site_type_symbol
_atom_site_fract_x
_atom_site_fract_y
_atom_site_fract_z
O1	O	0.641452	-0.109733	-0.085627
O2	O	0.974786	0.223600	0.247706
O3	O	1.308119	0.556934	0.581039
O4	O	0.500739	-0.126418	-0.085617
O5	O	0.834072	0.206916	0.247716
O6	O	1.167405	0.540249	0.581050
O7	O	0.574826	0.016228	-0.085613
O8	O	0.908160	0.349561	0.247720
O9	O	1.241493	0.682895	0.581054
O10	O	0.567365	-0.252379	-0.085631
O11	O	0.900698	0.080955	0.247702
O12	O	1.234031	0.414288	0.581036
O13	O	0.574818	0.016236	0.085521
O14	O	0.908152	0.349569	0.418854
O15	O	1.241485	0.682902	0.752187
O16	O	0.500731	-0.126410	0.085517
O17	O	0.834064	0.206923	0.418850
O18	O	1.167397	0.540257	0.752184
O19	O	0.641445	-0.109725	0.085507
O20	O	0.974778	0.223608	0.418840
O21	O	1.308111	0.556941	0.752173
Cu22	Cu	0.571087	-0.118067	0.101138
Cu23	Cu	0.904420	0.215266	0.434471
Cu24	Cu	1.237754	0.548600	0.767804
Cu25	Cu	0.571096	-0.118076	-0.101248
Cu26	Cu	0.904429	0.215257	0.232085
Cu27	Cu	1.237763	0.548591	0.565419
O28	O	0.567357	-0.252371	0.085503
O29	O	0.900690	0.080962	0.418836
O30	O	1.234024	0.414296	0.752169
C31	C	0.574475	0.050586	-0.000046
C32	C	0.907808	0.383919	0.333287
C33	C	1.241141	0.717252	0.666621
C34	C	0.573433	0.152949	-0.000045
C35	C	0.906766	0.486282	0.333288
C36	C	1.240099	0.819615	0.666621
C37	C	0.659457	-0.110079	-0.000064
C38	C	0.992790	0.223254	0.333269
C39	C	1.326124	0.556587	0.666603
C40	C	0.713117	-0.111134	-0.000075
C41	C	1.046450	0.222199	0.333258
C42	C	1.379784	0.555533	0.666592
C43	C	0.482726	-0.126064	-0.000049
C44	C	0.816059	0.207270	0.333285
C45	C	1.149393	0.540603	0.666618
C46	C	0.429066	-0.125009	-0.000044
C47	C	0.762400	0.208324	0.333289
C48	C	1.095733	0.541658	0.666622
C49	C	1.051561	-0.033479	-0.000035
C50	C	1.384894	0.299854	0.333299
C51	C	1.718227	0.633188	0.666632
C52	C	1.253239	-0.037392	-0.000031
C53	C	1.586572	0.295941	0.333302
C54	C	1.919906	0.629275	0.666635
O55	O	1.284155	0.033618	0.000017
O56	O	1.617489	0.366951	0.333351
O57	O	1.950822	0.700285	0.666684
N58	N	1.272767	-0.121975	-0.000040
N59	N	1.606100	0.211358	0.333293
N60	N	1.939434	0.544692	0.666627
C61	C	1.241872	-0.205586	-0.000043
C62	C	1.575205	0.127748	0.333291
C63	C	1.908539	0.461081	0.666624
O64	O	1.263110	-0.277619	-0.000040
O65	O	1.596443	0.055715	0.333294
O66	O	1.929776	0.389048	0.666627
C67	C	1.040195	-0.201672	-0.000039
C68	C	1.373528	0.131662	0.333295
C69	C	1.706861	0.464995	0.666628
C70	C	1.020670	-0.117083	-0.000040
C71	C	1.354003	0.216250	0.333293
C72	C	1.687336	0.549583	0.666626
C73	C	1.032035	0.051103	-0.000035
C74	C	1.365369	0.384436	0.333298
C75	C	1.698702	0.717769	0.666631
C76	C	0.981619	0.052080	-0.000042
C77	C	1.314952	0.385413	0.333292
C78	C	1.648285	0.718747	0.666625
C79	C	0.950728	-0.031524	-0.000047
C80	C	1.284061	0.301809	0.333286
C81	C	1.617394	0.635142	0.666619
C82	C	0.970253	-0.116106	-0.000047
C83	C	1.303586	0.217227	0.333287
C84	C	1.636920	0.550561	0.666620
C85	C	1.009301	-0.285282	-0.000034
C86	C	1.342634	0.048052	0.333299
C87	C	1.675967	0.381385	0.666633
C88	C	0.958879	-0.284296	-0.000030
C89	C	1.292212	0.049038	0.333303
C90	C	1.625545	0.382371	0.666636
C91	C	0.939354	-0.199707	-0.000032
C92	C	1.272687	0.133626	0.333301
C93	C	1.606020	0.466960	0.666635
C94	C	0.888945	-0.198733	-0.000059
C95	C	1.222279	0.134600	0.333274
C96	C	1.555612	0.467934	0.666608
N97	N	0.869417	-0.114150	-0.000050
N98	N	1.202751	0.219183	0.333283
N99	N	1.536084	0.552517	0.666617
C100	C	0.900309	-0.030546	-0.000044
C101	C	1.233642	0.302788	0.333289
C102	C	1.566975	0.636121	0.666622
C103	C	1.347756	-0.207635	-0.000047
C104	C	1.681089	0.125699	0.333286
C105	C	2.014423	0.459032	0.666620
C106	C	1.398175	-0.208613	-0.000050
C107	C	1.731508	0.124720	0.333283
C108	C	2.064842	0.458053	0.666617
C109	C	1.409539	-0.040419	-0.000037
C110	C	1.742872	0.292914	0.333297
C111	C	2.076205	0.626248	0.666630
C112	C	1.359119	-0.039441	-0.000041
C113	C	1.692452	0.293892	0.333292
C114	C	2.025785	0.627225	0.666625
C115	C	1.328228	-0.123052	-0.000038
C116	C	1.661561	0.210282	0.333295
C117	C	1.994895	0.543615	0.666628
C118	C	0.794430	-0.028500	-0.000059
C119	C	1.127763	0.304834	0.333275
C120	C	1.461096	0.638167	0.666608
C121	C	0.744008	-0.027530	-0.000069
C122	C	1.077341	0.305804	0.333264
C123	C	1.410675	0.639137	0.666597
C124	C	0.732649	-0.195723	-0.000077
C125	C	1.065982	0.137610	0.333256
C126	C	1.399316	0.470943	0.666589
C127	C	0.783066	-0.196694	-0.000072
C128	C	1.116399	0.136640	0.333261
C129	C	1.449733	0.469973	0.666595
C130	C	0.813956	-0.113074	-0.000059
C131	C	1.147289	0.220259	0.333274
C132	C	1.480622	0.553592	0.666607
O133	O	0.858001	-0.269705	-0.000096
O134	O	1.191334	0.063628	0.333237
O135	O	1.524667	0.396962	0.666570
O136	O	0.879062	0.041477	-0.000025
O137	O	1.212395	0.374810	0.333308
O138	O	1.545728	0.708143	0.666642
C139	C	1.101977	-0.034456	-0.000028
C140	C	1.435311	0.298877	0.333305
C141	C	1.768644	0.632210	0.666638
C142	C	1.121503	-0.119038	-0.000028
C143	C	1.454836	0.214295	0.333306
C144	C	1.788170	0.547629	0.666639
C145	C	1.090612	-0.202642	-0.000033
C146	C	1.423945	0.130691	0.333300
C147	C	1.757279	0.464024	0.666633
C148	C	1.171922	-0.120017	-0.000030
C149	C	1.505255	0.213317	0.333303
C150	C	1.838589	0.546650	0.666636
C151	C	1.202813	-0.036412	-0.000025
C152	C	1.536146	0.296921	0.333309
C153	C	1.869480	0.630254	0.666642
C154	C	1.183285	0.048171	-0.000016
C155	C	1.516618	0.381504	0.333317
C156	C	1.849952	0.714837	0.666651
C157	C	1.132869	0.049148	-0.000022
C158	C	1.466202	0.382481	0.333311
C159	C	1.799535	0.715815	0.666644
C160	C	1.110140	-0.287225	-0.000042
C161	C	1.443473	0.046108	0.333291
C162	C	1.776807	0.379441	0.666625
C163	C	1.160557	-0.288196	-0.000037
C164	C	1.493890	0.045138	0.333297
C165	C	1.827224	0.378471	0.666630
C166	C	1.191448	-0.204591	-0.000031
C167	C	1.524781	0.128742	0.333302
C168	C	1.858115	0.462075	0.666636
C169	C	0.567708	-0.286729	-0.000067
C170	C	0.901042	0.046605	0.333267
C171	C	1.234375	0.379938	0.666600
C172	C	0.568751	-0.389092	-0.000074
C173	C	0.902084	-0.055758	0.333259
C174	C	1.235417	0.277575	0.666593
N175	N	0.571084	-0.118060	0.243485
N176	N	0.904417	0.215273	0.576818
N177	N	1.237751	0.548607	0.910151
C178	C	0.569596	0.527778	-0.000072
C179	C	0.902930	0.861111	0.333262
C180	C	1.236263	1.194444	0.666595
C181	C	0.570662	0.423488	-0.000064
C182	C	0.903995	0.756822	0.333269
C183	C	1.237328	1.090155	0.666603
C184	C	0.571514	0.340367	-0.000058
C185	C	0.904848	0.673700	0.333276
C186	C	1.238181	1.007033	0.666609
C187	C	0.572580	0.236071	-0.000052
C188	C	0.905913	0.569404	0.333281
C189	C	1.239247	0.902737	0.666615
N190	N	0.571103	-0.118076	-0.243595
N191	N	0.904436	0.215258	0.089738
N192	N	1.237770	0.548591	0.423072
C193	C	0.571095	-0.118077	0.663299
C194	C	0.904429	0.215256	0.996632
C195	C	1.237762	0.548590	1.329966
C196	C	0.571091	-0.118075	0.546494
C197	C	0.904424	0.215258	0.879827
C198	C	1.237758	0.548591	1.213161
C199	C	0.571090	-0.118069	0.453396
C200	C	0.904423	0.215264	0.786729
C201	C	1.237757	0.548598	1.120062
C202	C	0.571085	-0.118066	0.336583
C203	C	0.904418	0.215267	0.669916
C204	C	1.237752	0.548601	1.003250
H205	H	0.728114	0.041355	-0.000073
H206	H	1.061447	0.374689	0.333260
H207	H	1.394780	0.708022	0.666593
N208	N	0.804129	-0.287925	-0.000085
N209	N	1.137462	0.045408	0.333248
N210	N	1.470796	0.378742	0.666582
H211	H	0.776907	-0.340739	-0.000093
H212	H	1.110240	-0.007405	0.333240
H213	H	1.443574	0.325928	0.666573
H214	H	0.824792	-0.291991	0.063363
H215	H	1.158126	0.041342	0.396696
H216	H	1.491459	0.374675	0.730030
H217	H	1.208446	0.116244	-0.000017
H218	H	1.541779	0.449577	0.333316
H219	H	1.875112	0.782911	0.666649
H220	H	1.434699	0.027655	-0.000036
H221	H	1.768032	0.360988	0.333297
H222	H	2.101366	0.694321	0.666631
H223	H	1.025189	-0.354162	-0.000037
H224	H	1.358522	-0.020829	0.333296
H225	H	1.691855	0.312504	0.666630
N226	N	0.699326	-0.285893	-0.000088
N227	N	1.032659	0.047440	0.333245
N228	N	1.365993	0.380773	0.666579
H229	H	0.664424	-0.272431	-0.000087
H230	H	0.997758	0.060902	0.333246
H231	H	1.331091	0.394236	0.666580
H232	H	0.705651	-0.322781	0.063355
H233	H	1.038984	0.010552	0.396688
H234	H	1.372318	0.343886	0.730022
N235	N	1.181613	-0.379436	-0.000051
N236	N	1.514946	-0.046103	0.333283
N237	N	1.848280	0.287230	0.666616
H238	H	1.154389	-0.432246	-0.000055
H239	H	1.487722	-0.098913	0.333278
H240	H	1.821055	0.234421	0.666612
H241	H	1.202278	-0.383507	0.063393
H242	H	1.535612	-0.050174	0.396727
H243	H	1.868945	0.283160	0.730060
N244	N	1.419232	-0.299847	-0.000075
N245	N	1.752565	0.033486	0.333258
N246	N	2.085898	0.366819	0.666592
H247	H	1.392007	-0.352657	-0.000078
H248	H	1.725341	-0.019323	0.333255
H249	H	2.058674	0.314010	0.666589
H250	H	1.439900	-0.303922	0.063363
H251	H	1.773233	0.029411	0.396697
H252	H	2.106567	0.362744	0.730030
H253	H	1.322609	-0.275724	-0.000046
H254	H	1.655942	0.057609	0.333287
H255	H	1.989275	0.390943	0.666620
H256	H	1.084993	-0.355308	-0.000045
H257	H	1.418326	-0.021974	0.333288
H258	H	1.751659	0.311359	0.666621
N259	N	0.925561	-0.374477	-0.000003
N260	N	1.258894	-0.041144	0.333330
N261	N	1.592228	0.292189	0.666663
H262	H	0.945584	-0.428205	0.000004
H263	H	1.278918	-0.094872	0.333338
H264	H	1.612251	0.238461	0.666671
H265	H	0.904394	-0.377757	-0.063440
H266	H	1.237728	-0.044424	0.269894
H267	H	1.571061	0.288910	0.603227
H268	H	1.057182	0.119187	-0.000027
H269	H	1.390516	0.452521	0.333306
H270	H	1.723849	0.785854	0.666640
H271	H	1.116976	0.118029	-0.000024
H272	H	1.450310	0.451362	0.333310
H273	H	1.783643	0.784695	0.666643
N274	N	0.827743	0.061685	-0.000057
N275	N	1.161077	0.395018	0.333277
N276	N	1.494410	0.728352	0.666610
H277	H	0.848911	0.065043	0.063384
H278	H	1.182244	0.398376	0.396718
H279	H	1.515578	0.731709	0.730051
H280	H	0.807684	0.115358	-0.000099
H281	H	1.141018	0.448691	0.333234
H282	H	1.474351	0.782025	0.666567
N283	N	0.960563	0.143315	-0.000034
N284	N	1.293896	0.476648	0.333300
N285	N	1.627230	0.809981	0.666633
H286	H	0.987789	0.196122	-0.000025
H287	H	1.321122	0.529455	0.333309
H288	H	1.654455	0.862788	0.666642
H289	H	0.939889	0.147387	0.063411
H290	H	1.273223	0.480721	0.396744
H291	H	1.606556	0.814054	0.730077
H292	H	1.343225	0.029438	-0.000042
H293	H	1.676558	0.362771	0.333291
H294	H	2.009892	0.696105	0.666625
