data_functionalizedCrystal
_audit_creation_method	'MofGen! by Chris Wilmer'
_symmetry_space_group_name_H-M	'P1'
_symmetry_Int_Tables_number	1
_symmetry_cell_setting	triclinic
loop_
_symmetry_equiv_pos_as_xyz
  x,y,z
_cell_length_a	12.759401
_cell_length_b	12.645330
_cell_length_c	12.759401
_cell_angle_alpha	90.008523
_cell_angle_beta	90.005677
_cell_angle_gamma	90.013072
loop_
_atom_site_label
_atom_site_type_symbol
_atom_site_fract_x
_atom_site_fract_y
_atom_site_fract_z
Zn1	Zn	1.606136	-0.422212	0.593980
Zn2	Zn	1.606076	-0.599443	0.418298
Zn3	Zn	1.430478	-0.422195	0.418319
Zn4	Zn	1.430433	-0.599435	0.593939
O5	O	1.518281	-0.510822	0.506134
O6	O	1.753149	-0.445733	0.570684
O7	O	1.582777	-0.575927	0.271280
O8	O	1.453823	-0.273850	0.441646
O9	O	1.753105	-0.575943	0.441611
O10	O	1.582878	-0.273863	0.570704
O11	O	1.453765	-0.445704	0.271295
O12	O	1.283451	-0.445696	0.441607
O13	O	1.453747	-0.575930	0.740965
O14	O	1.283418	-0.575914	0.570634
O15	O	1.582835	-0.445725	0.740995
O16	O	1.582733	-0.747789	0.441572
O17	O	1.453689	-0.747784	0.570614
C18	C	1.245314	-0.510803	0.506119
C19	C	1.128537	-0.510821	0.506138
C20	C	1.073698	-0.443143	0.573449
C21	C	0.963974	-0.443154	0.573456
C22	C	0.963937	-0.578530	0.438837
C23	C	1.073659	-0.578513	0.438826
C24	C	1.518228	-0.786251	0.506109
C25	C	1.518302	-0.904081	0.506134
C26	C	1.599353	-1.071605	0.424788
C27	C	1.599617	-0.949044	0.424987
C28	C	1.548304	-0.948499	0.616878
C29	C	1.548948	-1.071097	0.616446
C30	C	1.407216	-1.071400	0.477827
C31	C	1.407749	-0.948795	0.475343
C32	C	1.792314	-0.510841	0.506150
C33	C	1.909091	-0.510849	0.506156
C34	C	1.518293	-0.510829	0.780167
C35	C	1.518297	-0.510832	0.896944
C36	C	1.518362	-0.234316	0.506182
C37	C	1.518397	-0.116486	0.506202
C38	C	1.585505	-0.443045	0.951823
C39	C	1.585496	-0.443043	1.061547
C40	C	1.451069	-0.578624	1.061503
C41	C	1.451073	-0.578620	0.951781
C42	C	1.518268	-0.510838	1.233167
C43	C	1.518284	-0.510834	1.116390
H44	H	0.919242	-0.633643	0.384035
H45	H	1.396337	-0.633819	0.907097
C46	C	1.659429	-0.368480	1.121915
C47	C	1.613930	-0.285243	1.197350
C48	C	1.687865	-0.210676	1.257718
C49	C	1.807299	-0.219345	1.242653
C50	C	1.852804	-0.302585	1.167215
C51	C	1.778869	-0.377153	1.106846
H52	H	1.525512	-0.278823	1.208506
H53	H	1.654178	-0.149056	1.313563
H54	H	1.862030	-0.164146	1.287341
H55	H	1.941222	-0.309006	1.156059
H56	H	1.812556	-0.438772	1.051002
C57	C	1.377133	-0.653196	1.121827
C58	C	1.377128	-0.653209	1.242517
C59	C	1.303193	-0.727786	1.302838
C60	C	1.229263	-0.802349	1.242469
C61	C	1.229265	-0.802338	1.121772
C62	C	1.303200	-0.727761	1.061451
H63	H	1.431858	-0.598011	1.287212
H64	H	1.303192	-0.727793	1.392186
H65	H	1.174532	-0.857555	1.287122
H66	H	1.174535	-0.857537	1.077077
H67	H	1.303201	-0.727754	0.972103
C68	C	0.903655	-0.368712	0.647509
C69	C	0.828235	-0.414797	0.729918
C70	C	0.767918	-0.340352	0.803974
C71	C	0.783019	-0.219822	0.795622
C72	C	0.858441	-0.173731	0.713209
C73	C	0.918759	-0.248176	0.639153
H74	H	0.817054	-0.504025	0.736104
H75	H	0.712085	-0.374472	0.864982
H76	H	0.738368	-0.164713	0.850443
H77	H	0.869623	-0.084503	0.707023
H78	H	0.974592	-0.214056	0.578145
C79	C	1.134065	-0.368676	0.647482
C80	C	1.073739	-0.294226	0.721519
C81	C	1.134102	-0.219754	0.795551
C82	C	1.254792	-0.219731	0.795547
C83	C	1.315125	-0.294183	0.721507
C84	C	1.254762	-0.368656	0.647475
H85	H	0.984391	-0.294241	0.721525
H86	H	1.089439	-0.164640	0.850360
H87	H	1.299476	-0.164603	0.850350
H88	H	1.404473	-0.294169	0.721502
H89	H	1.299425	-0.423770	0.592666
H90	H	1.118310	-0.633626	0.384007
C91	C	1.574268	-0.908467	0.314056
C92	C	1.553641	-0.987619	0.224668
C93	C	1.528298	-0.947048	0.113730
C94	C	1.523582	-0.827325	0.092181
C95	C	1.544209	-0.748165	0.181572
C96	C	1.569553	-0.788736	0.292509
H97	H	1.557132	-1.076252	0.240617
H98	H	1.513028	-1.005648	0.047557
H99	H	1.504821	-0.797292	0.010058
H100	H	1.540718	-0.659533	0.165622
H101	H	1.584822	-0.730137	0.358682
H102	H	1.580820	-1.101131	0.342433
H103	H	1.681260	-1.102340	0.443346
H104	H	1.630215	-1.099617	0.640483
C105	C	1.710860	-0.909312	0.450356
C106	C	1.799731	-0.989138	0.470503
C107	C	1.910978	-0.949407	0.495880
C108	C	1.933353	-0.829849	0.501110
C109	C	1.844479	-0.750016	0.480962
C110	C	1.733232	-0.789747	0.455586
H111	H	1.783170	-1.077648	0.466632
H112	H	1.976768	-1.008505	0.510794
H113	H	2.015704	-0.800438	0.519895
H114	H	1.861040	-0.661506	0.484833
H115	H	1.667442	-0.730649	0.440671
H116	H	1.492564	-1.100785	0.679195
H117	H	1.628654	-0.917718	0.641315
C118	C	1.471082	-0.909151	0.701030
C119	C	1.379660	-0.836055	0.670093
C120	C	1.302436	-0.796704	0.754244
C121	C	1.316635	-0.830449	0.869331
C122	C	1.408061	-0.903549	0.900273
C123	C	1.485284	-0.942900	0.816122
H124	H	1.369145	-0.811072	0.584894
H125	H	1.234757	-0.742591	0.731338
H126	H	1.259469	-0.801319	0.931624
H127	H	1.418575	-0.928533	0.985472
H128	H	1.552964	-0.997014	0.839028
H129	H	1.379927	-1.102384	0.398479
C130	C	1.321895	-0.907466	0.549612
C131	C	1.328196	-0.931097	0.667837
C132	C	1.242361	-0.889769	0.742135
C133	C	1.150225	-0.824809	0.698207
C134	C	1.143920	-0.801174	0.579977
C135	C	1.229755	-0.842503	0.505679
H136	H	1.396404	-0.979187	0.700360
H137	H	1.247030	-0.907265	0.829657
H138	H	1.086685	-0.794215	0.753207
H139	H	1.075712	-0.753084	0.547454
H140	H	1.225087	-0.825007	0.418156
H141	H	1.385126	-0.919772	0.393844
H142	H	1.346897	-1.100428	0.537124
H143	H	1.640241	-0.387845	0.907178
