data_functionalizedCrystal
_audit_creation_method	'MofGen! by Chris Wilmer'
_symmetry_space_group_name_H-M	'P1'
_symmetry_Int_Tables_number	1
_symmetry_cell_setting	triclinic
loop_
_symmetry_equiv_pos_as_xyz
  x,y,z
_cell_length_a	17.640112
_cell_length_b	16.120531
_cell_length_c	17.640968
_cell_angle_alpha	82.190526
_cell_angle_beta	87.860920
_cell_angle_gamma	76.493345
loop_
_atom_site_label
_atom_site_type_symbol
_atom_site_fract_x
_atom_site_fract_y
_atom_site_fract_z
Zn1	Zn	1.246895	0.023861	0.196403
Zn2	Zn	1.746895	0.523861	0.696403
Zn3	Zn	1.214782	0.195194	0.078919
Zn4	Zn	1.714782	0.695194	0.578919
Zn5	Zn	1.092227	0.077881	0.098044
Zn6	Zn	1.592227	0.577881	0.598044
Zn7	Zn	1.113928	0.184262	0.230895
Zn8	Zn	1.613928	0.684262	0.730895
O9	O	1.166958	0.120299	0.151065
O10	O	1.666958	0.620299	0.651065
O11	O	1.349572	0.028556	0.158379
O12	O	1.849572	0.528556	0.658379
O13	O	1.176004	0.206814	-0.023310
O14	O	1.676004	0.706814	0.476690
O15	O	1.117102	-0.045510	0.104660
O16	O	1.617102	0.454490	0.604660
O17	O	1.325979	0.154433	0.072065
O18	O	1.825979	0.654433	0.572065
O19	O	1.230735	-0.085198	0.176924
O20	O	1.730735	0.414802	0.676924
O21	O	1.085963	0.120625	-0.009259
O22	O	1.585963	0.620625	0.490741
O23	O	0.988169	0.110025	0.138105
O24	O	1.488169	0.610025	0.638105
O25	O	1.154087	0.135802	0.331086
O26	O	1.654087	0.635802	0.831086
O27	O	1.004112	0.188183	0.235711
O28	O	1.504112	0.688183	0.735711
O29	O	1.251778	0.017956	0.305744
O30	O	1.751778	0.517956	0.805744
O31	O	1.197046	0.309968	0.105510
O32	O	1.697046	0.809968	0.605510
O33	O	1.122949	0.301937	0.217166
O34	O	1.622949	0.801937	0.717166
C35	C	0.968413	0.153780	0.192727
C36	C	1.468413	0.653780	0.692727
C37	C	0.883478	0.168119	0.210569
C38	C	1.383478	0.668119	0.710569
C39	C	0.562619	0.011354	0.015528
C40	C	1.062619	0.511354	0.515528
C41	C	0.482811	0.024841	0.032304
C42	C	0.982811	0.524841	0.532304
C43	C	0.499426	0.106416	0.133783
C44	C	0.999426	0.606416	0.633783
C45	C	0.579238	0.092932	0.117018
C46	C	1.079238	0.592932	0.617018
C47	C	0.610827	0.045401	0.057889
C48	C	1.110827	0.545401	0.557889
C49	C	0.627446	0.126979	0.159379
C50	C	1.127446	0.626979	0.659379
C51	C	0.707251	0.113500	0.142612
C52	C	1.207251	0.613500	0.642612
C53	C	0.738846	0.065973	0.083484
C54	C	1.238846	0.565973	0.583484
C55	C	0.690631	0.031921	0.041122
C56	C	1.190631	0.531921	0.541122
C57	C	0.595854	0.174515	0.218504
C58	C	1.095854	0.674515	0.718504
C59	C	0.644063	0.208563	0.260865
C60	C	1.144063	0.708563	0.760865
C61	C	0.723870	0.195078	0.244102
C62	C	1.223870	0.695078	0.744102
C63	C	0.755465	0.147551	0.184974
C64	C	1.255465	0.647551	0.684974
C65	C	0.772084	0.229130	0.286465
C66	C	1.272084	0.729130	0.786465
C67	C	0.851888	0.215650	0.269698
C68	C	1.351888	0.715650	0.769698
C69	C	0.835269	0.134072	0.168208
C70	C	1.335269	0.634072	0.668208
C71	C	1.158892	0.336080	0.163018
C72	C	1.658892	0.836080	0.663018
C73	C	1.155517	0.428374	0.168141
C74	C	1.655517	0.928374	0.668141
C75	C	1.149362	0.597351	0.177511
C76	C	1.649362	1.097351	0.677511
C77	C	1.184574	0.642413	0.124571
C78	C	1.684574	1.142413	0.624571
C79	C	1.181149	0.736438	0.129784
C80	C	1.681149	1.236438	0.629784
C81	C	1.152786	0.503318	0.172299
C82	C	1.652786	1.003318	0.672299
C83	C	1.366278	0.086688	0.109241
C84	C	1.866278	0.586688	0.609241
C85	C	1.451217	0.072365	0.091418
C86	C	1.951217	0.572365	0.591418
C87	C	1.208935	0.069634	0.346339
C88	C	1.708935	0.569634	0.846339
C89	C	1.226823	0.048044	0.429553
C90	C	1.726823	0.548044	0.929553
C91	C	1.175050	0.903676	0.139070
C92	C	1.675050	1.403676	0.639070
C93	C	1.178421	0.811385	0.133937
C94	C	1.678421	1.311385	0.633937
C95	C	1.125190	0.170700	-0.043462
C96	C	1.625190	0.670700	0.456538
C97	C	1.107459	0.192032	-0.126720
C98	C	1.607459	0.692032	0.373280
C99	C	1.031374	0.283819	0.769198
C100	C	1.531374	0.783819	1.269198
C101	C	1.048199	0.263518	0.847386
C102	C	1.548199	0.763518	1.347386
C103	C	1.149915	0.140815	0.820990
C104	C	1.649915	0.640815	1.320990
C105	C	1.133096	0.161103	0.742798
C106	C	1.633096	0.661103	1.242798
C107	C	1.073825	0.232606	0.716908
C108	C	1.573825	0.732606	1.216908
C109	C	1.175547	0.109891	0.690509
C110	C	1.675547	0.609891	1.190509
C111	C	1.158732	0.130180	0.612324
C112	C	1.658732	0.630180	1.112324
C113	C	1.099465	0.201682	0.586427
C114	C	1.599465	0.701682	1.086427
C115	C	1.057010	0.252896	0.638723
C116	C	1.557010	0.752896	1.138723
C117	C	1.234821	0.038391	0.716400
C118	C	1.734821	0.538391	1.216400
C119	C	1.277273	-0.012821	0.664111
C120	C	1.777273	0.487179	1.164111
C121	C	1.260454	0.007465	0.585924
C122	C	1.760454	0.507465	1.085924
C123	C	1.201187	0.078966	0.560028
C124	C	1.701187	0.578966	1.060028
C125	C	1.302910	-0.043749	0.533628
C126	C	1.802910	0.456251	1.033628
C127	C	1.286094	-0.023460	0.455443
C128	C	1.786094	0.476540	0.955443
C129	C	1.184372	0.099256	0.481842
C130	C	1.684372	0.599256	0.981842
H131	H	0.618331	0.247265	0.309006
H132	H	1.118331	0.747265	0.809006
N133	N	0.433567	-0.009957	-0.010958
N134	N	0.933567	0.490043	0.489042
N135	N	0.396691	-0.062169	0.021890
N136	N	0.896691	0.437831	0.521890
H137	H	0.361912	-0.086745	-0.008663
H138	H	0.861912	0.413255	0.491337
N139	N	0.467141	0.154969	0.194173
N140	N	0.967141	0.654969	0.694173
N141	N	0.395886	0.167002	0.209136
N142	N	0.895886	0.667002	0.709136
H143	H	0.373085	0.201292	0.251788
H144	H	0.873085	0.701292	0.751788
H145	H	1.217291	0.610376	0.075333
H146	H	1.717291	1.110376	0.575333
N147	N	1.108324	0.637546	0.239273
N148	N	1.608324	1.137546	0.739273
N149	N	1.105568	0.714978	0.243468
N150	N	1.605568	1.214978	0.743468
H151	H	1.076585	0.743376	0.287086
H152	H	1.576585	1.243376	0.787086
H153	H	0.803828	0.055001	0.069832
H154	H	1.303828	0.555001	0.569832
H155	H	1.136090	0.157464	0.460765
H156	H	1.636090	0.657464	0.960765
N157	N	1.082287	0.222393	0.506562
N158	N	1.582287	0.722393	1.006562
N159	N	1.061236	0.169353	0.471435
N160	N	1.561236	0.669353	0.971435
H161	H	1.049103	0.183978	0.415030
H162	H	1.549103	0.683978	0.915030
H163	H	0.530872	0.185489	0.232153
H164	H	1.030872	0.685489	0.732153
H165	H	0.746350	0.267836	0.334602
H166	H	1.246350	0.767836	0.834602
N167	N	0.901125	0.250440	0.312969
N168	N	1.401125	0.750440	0.812969
N169	N	0.872911	0.292876	0.365759
N170	N	1.372911	0.792876	0.865759
H171	H	0.907683	0.317452	0.396319
H172	H	1.407683	0.817452	0.896319
H173	H	1.008728	0.311104	0.617646
H174	H	1.508728	0.811104	1.117646
N175	N	0.970817	0.356852	0.742759
N176	N	1.470817	0.856852	1.242759
N177	N	0.932909	0.402567	0.789453
N178	N	1.432909	0.902567	1.289453
H179	H	0.890142	0.454144	0.770781
H180	H	1.390142	0.954144	1.270781
H181	H	1.013625	0.305226	0.889959
H182	H	1.513625	0.805226	1.389959
N183	N	1.210446	0.067776	0.847456
N184	N	1.710446	0.567776	1.347456
N185	N	1.194920	0.008070	0.893803
N186	N	1.694920	0.508070	1.393803
H187	H	1.237669	-0.043516	0.912495
H188	H	1.737669	0.456484	1.412495
H189	H	1.248512	0.021876	0.780064
H190	H	1.748512	0.521876	1.280064
H191	H	1.325533	-0.071037	0.685201
H192	H	1.825533	0.428963	1.185201
N193	N	1.363457	-0.116773	0.560091
N194	N	1.863457	0.383227	1.060091
N195	N	1.378469	-0.134873	0.629900
N196	N	1.878469	0.365127	1.129900
H197	H	1.421233	-0.186445	0.648589
H198	H	1.921233	0.313555	1.148589
N199	N	1.329453	-0.075786	0.402037
N200	N	1.829453	0.424214	0.902037
N201	N	1.329130	-0.153834	0.407590
N202	N	1.829130	0.346166	0.907590
H203	H	1.359754	-0.190790	0.369872
H204	H	1.859754	0.309210	0.869872
N205	N	0.867553	0.085495	0.107826
N206	N	1.367553	0.585495	0.607826
N207	N	0.862592	0.009054	0.110547
N208	N	1.362592	0.509054	0.610547
H209	H	0.885396	-0.025255	0.067907
H210	H	1.385396	0.474745	0.567907
N211	N	0.722916	-0.016656	-0.019260
N212	N	1.222916	0.483344	0.480740
N213	N	0.717954	-0.093096	-0.016539
N214	N	1.217954	0.406904	0.483461
H215	H	0.740758	-0.127405	-0.059179
H216	H	1.240758	0.372595	0.440821
N217	N	0.594885	-0.037221	-0.044861
N218	N	1.094885	0.462779	0.455139
N219	N	0.551838	-0.067632	-0.082671
N220	N	1.051838	0.432368	0.417329
H221	H	0.574627	-0.101940	-0.125316
H222	H	1.074627	0.398060	0.374684
