data_functionalizedCrystal
_audit_creation_method	'MofGen! by Chris Wilmer'
_symmetry_space_group_name_H-M	'P1'
_symmetry_Int_Tables_number	1
_symmetry_cell_setting	triclinic
loop_
_symmetry_equiv_pos_as_xyz
  x,y,z
_cell_length_a	17.038278
_cell_length_b	17.038272
_cell_length_c	16.776229
_cell_angle_alpha	89.993292
_cell_angle_beta	89.992923
_cell_angle_gamma	91.111028
loop_
_atom_site_label
_atom_site_type_symbol
_atom_site_fract_x
_atom_site_fract_y
_atom_site_fract_z
O1	O	1.048757	0.170529	-0.066296
O2	O	0.820945	0.167823	-0.066296
O3	O	0.933497	0.055270	-0.066290
O4	O	0.936205	0.283082	-0.066302
O5	O	0.933481	0.055262	0.066287
O6	O	0.820929	0.167815	0.066280
O7	O	1.048740	0.170521	0.066281
Zn8	Zn	0.934832	0.169166	0.087330
Zn9	Zn	0.934854	0.169178	-0.087345
O10	O	0.936189	0.283074	0.066274
C11	C	0.791645	0.165356	-0.000008
C12	C	0.704361	0.158009	-0.000008
C13	C	0.210935	0.112872	-0.000008
C14	C	0.292947	0.119781	-0.000004
C15	C	0.329347	0.194155	-0.000012
C16	C	0.283730	0.261623	-0.000016
C17	C	0.201720	0.254713	-0.000014
C18	C	0.576734	0.218567	-0.000011
C19	C	0.658751	0.225473	-0.000014
C20	C	0.667962	0.083630	-0.000001
C21	C	0.585949	0.076726	-0.000005
C22	C	0.540340	0.144194	-0.000004
C23	C	0.413176	0.201219	-0.000010
C24	C	0.456513	0.137129	-0.000001
C25	C	0.931026	0.025974	-0.000002
C26	C	0.923678	-0.061310	-0.000002
C27	C	0.991142	-0.106920	-0.000001
C28	C	0.984233	-0.188932	-0.000009
C29	C	0.909859	-0.225332	-0.000011
C30	C	0.842391	-0.179716	-0.000015
C31	C	0.849300	-0.097706	-0.000013
C32	C	0.885449	-0.472720	-0.000022
C33	C	0.878544	-0.554736	-0.000022
C34	C	1.020387	-0.563946	-0.000017
C35	C	1.027290	-0.481934	-0.000010
C36	C	0.959821	-0.436325	-0.000018
C37	C	0.902796	-0.309161	-0.000017
C38	C	0.966886	-0.352497	-0.000018
C39	C	1.078041	0.172988	-0.000010
C40	C	1.165325	0.180335	-0.000015
C41	C	0.938660	0.312370	-0.000016
C42	C	0.946008	0.399654	-0.000021
N43	N	0.934823	0.169159	0.206541
N44	N	0.934869	0.169180	-0.206557
C45	C	0.984679	0.119343	0.248261
C46	C	0.984683	0.119343	0.331713
C47	C	0.934835	0.169163	0.373444
C48	C	0.884974	0.218980	0.331718
C49	C	0.884966	0.218976	0.248267
C50	C	0.885003	0.218997	0.668265
C51	C	0.885017	0.219000	0.751722
C52	C	0.984720	0.119364	0.751711
C53	C	0.984712	0.119360	0.668260
C54	C	0.934849	0.169175	0.626542
C55	C	0.934843	0.169173	0.536054
C56	C	0.934844	0.169168	0.463931
H57	H	0.539609	0.273505	-0.000015
Br58	Br	1.052342	0.051732	0.388336
Br59	Br	0.333129	0.362560	-0.000022
Br60	Br	0.801863	-0.358569	-0.000028
H61	H	0.164585	0.309649	-0.000017
Br62	Br	0.817335	0.286602	0.611652
H63	H	0.844383	0.259541	0.365700
H64	H	0.844368	0.259540	0.214300
H65	H	0.426872	0.076575	-0.000004
H66	H	1.025306	0.078795	0.634286
Br67	Br	0.536555	-0.024213	-0.000029
Br68	Br	1.128229	-0.432539	-0.000032
Br69	Br	0.161544	0.011931	-0.000004
H70	H	1.025320	0.078800	0.785687
Br71	Br	1.052340	0.051733	0.191635
H72	H	0.442822	0.261775	-0.000018
H73	H	0.330080	0.064845	0.000005
Br74	Br	0.729863	-0.007929	0.000003
H75	H	0.794364	-0.060571	-0.000014
Br76	Br	1.092082	-0.057527	0.000014
Br77	Br	0.817362	0.286617	0.808357
H78	H	1.039169	-0.226064	-0.000006
H79	H	1.075316	-0.601089	-0.000013
H80	H	0.688384	0.286039	-0.000009
Br81	Br	0.741454	-0.229116	-0.000032
Br82	Br	0.777602	-0.604136	-0.000017
Br83	Br	1.067818	-0.303096	-0.000022
H84	H	0.830511	-0.435595	-0.000028
