data_functionalizedCrystal
_audit_creation_method	'MofGen! by Chris Wilmer'
_symmetry_space_group_name_H-M	'P1'
_symmetry_Int_Tables_number	1
_symmetry_cell_setting	triclinic
loop_
_symmetry_equiv_pos_as_xyz
  x,y,z
_cell_length_a	13.897449
_cell_length_b	16.625545
_cell_length_c	13.897441
_cell_angle_alpha	90.031157
_cell_angle_beta	90.020733
_cell_angle_gamma	90.026837
loop_
_atom_site_label
_atom_site_type_symbol
_atom_site_fract_x
_atom_site_fract_y
_atom_site_fract_z
Zn1	Zn	1.474650	-0.320948	0.545377
Zn2	Zn	1.474522	-0.455799	0.384077
Zn3	Zn	1.313339	-0.320987	0.384096
Zn4	Zn	1.313299	-0.455746	0.545330
O5	O	1.393952	-0.388370	0.464720
O6	O	1.609615	-0.338843	0.523993
O7	O	1.453104	-0.437954	0.249098
O8	O	1.334808	-0.208149	0.405518
O9	O	1.609520	-0.437917	0.405486
O10	O	1.453322	-0.208121	0.524011
O11	O	1.334684	-0.338908	0.249112
O12	O	1.178352	-0.338857	0.405472
O13	O	1.334739	-0.437826	0.680318
O14	O	1.178322	-0.437864	0.523930
O15	O	1.453283	-0.338791	0.680353
O16	O	1.453065	-0.568624	0.405440
O17	O	1.334615	-0.568585	0.523912
C18	C	1.143338	-0.388359	0.464698
C19	C	1.036124	-0.388374	0.464712
C20	C	0.839829	-0.388377	0.464737
C21	C	0.949061	-0.388373	0.464720
C22	C	1.393848	-0.597861	0.464690
C23	C	1.393891	-0.687482	0.464709
C24	C	1.393928	-0.760264	0.464728
C25	C	1.393985	-0.851573	0.464749
C26	C	1.394035	-0.924349	0.464762
C27	C	1.394090	-1.015663	0.464781
C28	C	1.645545	-0.388381	0.464743
C29	C	1.752759	-0.388386	0.464752
C30	C	1.394021	-0.388299	0.716313
C31	C	1.394050	-0.388268	0.823527
C32	C	1.394084	-0.178061	0.464772
C33	C	1.394140	-0.088440	0.464794
C34	C	1.393940	-0.388383	0.214106
C35	C	1.394097	-0.388186	0.106892
C36	C	1.394076	-0.388214	1.019822
C37	C	1.394059	-0.388246	0.910590
