data_functionalizedCrystal
_audit_creation_method	'MofGen! by Chris Wilmer'
_symmetry_space_group_name_H-M	'P1'
_symmetry_Int_Tables_number	1
_symmetry_cell_setting	triclinic
loop_
_symmetry_equiv_pos_as_xyz
  x,y,z
_cell_length_a	10.489741
_cell_length_b	19.288865
_cell_length_c	18.366186
_cell_angle_alpha	90.011479
_cell_angle_beta	90.006338
_cell_angle_gamma	83.837711
loop_
_atom_site_label
_atom_site_type_symbol
_atom_site_fract_x
_atom_site_fract_y
_atom_site_fract_z
O1	O	-1.691846	-0.097994	-0.060514
O2	O	-1.320442	-0.107192	-0.060526
O3	O	-1.516876	-0.001535	-0.060505
O4	O	-1.495412	-0.203651	-0.060535
O5	O	-1.516842	-0.001529	0.060594
O6	O	-1.320409	-0.107187	0.060573
O7	O	-1.691813	-0.097988	0.060585
Zn8	Zn	-1.506105	-0.102587	0.079806
Zn9	Zn	-1.506149	-0.102594	-0.079747
O10	O	-1.495379	-0.203646	0.060564
C11	C	-1.516169	0.024349	0.000046
C12	C	-1.514095	0.101467	0.000053
C13	C	-1.272910	-0.106495	0.000022
C14	C	-1.131327	-0.104416	0.000018
C15	C	-1.739345	-0.098686	0.000035
C16	C	-1.880928	-0.100764	0.000035
C17	C	-1.064707	-0.037189	0.000035
C18	C	-0.971879	-0.068949	-0.059677
C19	C	-0.971880	-0.068960	0.059718
C20	C	-1.040363	-0.136204	-0.059743
C21	C	-1.040374	-0.136205	0.059705
C22	C	-0.947572	-0.168014	-0.000021
C23	C	-1.496086	-0.229530	0.000011
C24	C	-1.498159	-0.306647	-0.000000
N25	N	-1.506085	-0.102581	0.188697
C26	C	-1.629354	0.145390	0.000060
C27	C	-1.627406	0.217850	0.000049
C28	C	-1.510193	0.246384	0.000044
C29	C	-1.394920	0.202451	0.000033
C30	C	-1.396871	0.129992	0.000037
C31	C	-1.418039	0.355291	0.042460
C32	C	-1.416093	0.427748	0.042460
C33	C	-1.504171	0.469870	0.000028
C34	C	-1.594217	0.439526	-0.042395
C35	C	-1.596168	0.367067	-0.042391
C36	C	-1.508065	0.324952	0.000039
C37	C	-1.617326	0.592363	0.000021
C38	C	-1.615373	0.664824	0.000005
C39	C	-1.382884	0.649423	-0.000003
C40	C	-1.384839	0.576964	0.000006
C41	C	-1.502064	0.548438	0.000021
N42	N	-1.506180	-0.102594	-0.188638
C43	C	-1.593094	-0.055820	0.226807
C44	C	-1.593102	-0.055817	0.303035
C45	C	-1.506113	-0.102587	0.341150
C46	C	-1.419088	-0.149353	0.303031
C47	C	-1.419073	-0.149350	0.226805
C48	C	-1.489039	-0.165761	0.461901
C49	C	-1.489062	-0.165765	0.538126
C50	C	-1.506149	-0.102596	0.576258
C51	C	-1.523241	-0.039421	0.538155
C52	C	-1.523226	-0.039418	0.461929
C53	C	-1.506118	-0.102595	0.423805
C54	C	-1.593172	-0.055827	0.697022
C55	C	-1.593171	-0.055823	0.773252
C56	C	-1.419163	-0.149365	0.773247
C57	C	-1.419158	-0.149363	0.697019
C58	C	-1.506169	-0.102595	0.658911
H59	H	-0.941521	-0.040507	-0.110151
N60	N	-1.132152	0.036020	-0.000024
H61	H	-1.106206	0.061689	0.044615
H62	H	-1.107421	0.061267	-0.045194
H63	H	-0.896897	-0.223337	-0.000061
H64	H	-1.346312	0.321001	0.077017
H65	H	-1.475154	-0.217205	0.569143
N66	N	-1.080349	-0.173856	-0.126689
H67	H	-1.176380	-0.175010	-0.126294
H68	H	-1.054776	-0.148633	-0.171690
N69	N	-1.689230	0.484945	-0.088163
H70	H	-1.674331	0.535452	-0.081734
H71	H	-1.677662	0.471474	-0.141082
N72	N	-1.080652	-0.173862	0.126554
H73	H	-1.036310	-0.222999	0.127015
H74	H	-1.056048	-0.148381	0.171611
N75	N	-1.743755	0.561592	0.000037
H76	H	-1.727502	0.509024	0.000048
H77	H	-1.794148	0.577637	0.044934
H78	H	-1.348330	-0.187444	0.804279
H79	H	-1.709234	0.700587	0.000007
H80	H	-1.290983	0.541200	0.000004
H81	H	-0.941531	-0.040500	0.110200
H82	H	-1.724807	0.122170	0.000070
N83	N	-1.272557	0.082608	0.000043
H84	H	-1.268196	0.052187	-0.044844
H85	H	-1.198071	0.111720	0.000066
N86	N	-1.693274	0.334340	-0.088149
H87	H	-1.681141	0.282047	-0.081705
H88	H	-1.782625	0.352949	-0.072284
H89	H	-1.299484	0.225687	0.000028
H90	H	-1.663958	-0.017736	0.334070
H91	H	-1.721266	0.253619	0.000052
H92	H	-1.287447	0.672654	-0.000010
N93	N	-1.318992	0.460475	0.088222
H94	H	-1.263483	0.422798	0.115099
H95	H	-1.263505	0.486913	0.055679
H96	H	-1.348312	-0.187444	0.665988
N97	N	-1.470611	-0.233896	0.420776
H98	H	-1.459800	-0.273916	0.456478
H99	H	-1.548066	-0.238359	0.389141
H100	H	-1.663941	-0.017737	0.195782
H101	H	-1.348258	-0.187433	0.334069
N102	N	-1.541703	0.028718	0.579266
H103	H	-1.470990	0.058065	0.566015
H104	H	-1.627414	0.054545	0.565970
H105	H	-1.537139	0.012021	0.430909
N106	N	-1.687010	-0.005386	0.655914
H107	H	-1.742126	0.024243	0.691626
H108	H	-1.638359	0.025579	0.624298
N109	N	-1.325220	-0.199785	0.185696
H110	H	-1.270107	-0.229413	0.221405
H111	H	-1.373858	-0.230752	0.154055
N112	N	-1.687043	-0.005397	0.814360
H113	H	-1.742168	0.024223	0.778649
H114	H	-1.743255	-0.032308	0.845965
