data_functionalizedCrystal
_audit_creation_method	'MofGen! by Chris Wilmer'
_symmetry_space_group_name_H-M	'P1'
_symmetry_Int_Tables_number	1
_symmetry_cell_setting	triclinic
loop_
_symmetry_equiv_pos_as_xyz
  x,y,z
_cell_length_a	10.685904
_cell_length_b	18.050590
_cell_length_c	10.686551
_cell_angle_alpha	94.409718
_cell_angle_beta	98.408451
_cell_angle_gamma	94.385190
loop_
_atom_site_label
_atom_site_type_symbol
_atom_site_fract_x
_atom_site_fract_y
_atom_site_fract_z
Zn1	Zn	1.995784	-0.166454	0.866689
Zn2	Zn	2.329118	0.166879	1.200023
Zn3	Zn	2.662451	0.500212	1.533356
Zn4	Zn	1.979346	-0.300994	0.654408
Zn5	Zn	2.312679	0.032339	0.987741
Zn6	Zn	2.646013	0.365673	1.321075
Zn7	Zn	1.767207	-0.187125	0.638150
Zn8	Zn	2.100541	0.146209	0.971484
Zn9	Zn	2.433874	0.479542	1.304817
Zn10	Zn	1.783468	-0.300922	0.850318
Zn11	Zn	2.116801	0.032411	1.183651
Zn12	Zn	2.450135	0.365744	1.516984
O13	O	1.881451	-0.238874	0.752391
O14	O	2.214785	0.094459	1.085725
O15	O	2.548118	0.427793	1.419058
O16	O	2.171240	-0.175681	0.852185
O17	O	2.504573	0.157653	1.185519
O18	O	2.837906	0.490986	1.518852
O19	O	1.937520	-0.294570	0.474618
O20	O	2.270854	0.038763	0.807952
O21	O	2.604187	0.372097	1.141285
O22	O	1.797603	-0.080453	0.668514
O23	O	2.130936	0.252881	1.001847
O24	O	2.464269	0.586214	1.335181
O25	O	2.159162	-0.274526	0.696223
O26	O	2.492496	0.058807	1.029557
O27	O	2.825829	0.392140	1.362890
O28	O	1.965538	-0.065266	0.836421
O29	O	2.298871	0.268067	1.169754
O30	O	2.632204	0.601400	1.503087
O31	O	1.781663	-0.210911	0.462674
O32	O	2.114996	0.122423	0.796007
O33	O	2.448330	0.455756	1.129340
O34	O	1.591728	-0.210841	0.652639
O35	O	1.925062	0.122492	0.985973
O36	O	2.258395	0.455826	1.319306
O37	O	1.825317	-0.274404	1.030123
O38	O	2.158650	0.058929	1.363456
O39	O	2.491984	0.392262	1.696789
O40	O	1.603675	-0.294448	0.808518
O41	O	1.937008	0.038886	1.141851
O42	O	2.270342	0.372219	1.475184
O43	O	1.981305	-0.175611	1.042151
O44	O	2.314638	0.157722	1.375484
O45	O	2.647972	0.491056	1.708818
O46	O	1.953288	-0.404915	0.680348
O47	O	2.286621	-0.071581	1.013682
O48	O	2.619955	0.261752	1.347015
O49	O	1.809377	-0.404862	0.824282
O50	O	2.142711	-0.071529	1.157616
O51	O	2.476044	0.261805	1.490949
C52	C	1.551643	-0.254880	0.727038
C53	C	1.884976	0.078453	1.060372
C54	C	2.218309	0.411787	1.393705
C55	C	1.410551	-0.261744	0.716222
C56	C	1.743885	0.071589	1.049556
C57	C	2.077218	0.404923	1.382889
C58	C	1.881350	-0.431833	0.752333
C59	C	2.214683	-0.098500	1.085667
C60	C	2.548017	0.234833	1.419000
C61	C	1.881426	-0.514374	0.752360
C62	C	2.214759	-0.181041	1.085693
C63	C	2.548093	0.152292	1.419026
C64	C	1.959870	-0.713812	0.674220
C65	C	2.293203	-0.380479	1.007554
C66	C	2.626537	-0.047146	1.340887
C67	C	1.999776	-0.755996	0.792452
C68	C	2.333109	-0.422663	1.125785
C69	C	2.666443	-0.089330	1.459119
C70	C	1.881502	-0.665499	0.752416
C71	C	2.214835	-0.332165	1.085749
C72	C	2.548169	0.001168	1.419083
C73	C	1.841729	-0.770388	0.634246
C74	C	2.175062	-0.437054	0.967580
C75	C	2.508396	-0.103721	1.300913
C76	C	1.881577	-0.811478	0.752460
C77	C	2.214910	-0.478145	1.085794
C78	C	2.548243	-0.144812	1.419127
C79	C	1.921472	-0.706589	0.870713
C80	C	2.254805	-0.373256	1.204046
C81	C	2.588139	-0.039923	1.537380
C82	C	1.763365	-0.720983	0.712425
C83	C	2.096698	-0.387650	1.045759
C84	C	2.430032	-0.054317	1.379092
C85	C	1.803233	-0.763143	0.830733
C86	C	2.136567	-0.429810	1.164067
C87	C	2.469900	-0.096476	1.497400
C88	C	1.881462	-0.581404	0.752389
C89	C	2.214795	-0.248070	1.085722
C90	C	2.548128	0.085263	1.419056
C91	C	1.881618	-0.895571	0.752500
C92	C	2.214951	-0.562238	1.085833
C93	C	2.548284	-0.228905	1.419167
C94	C	2.212548	-0.222806	0.777844
C95	C	2.545881	0.110528	1.111177
C96	C	2.879215	0.443861	1.444511
C97	C	2.353642	-0.215959	0.788690
C98	C	2.686975	0.117375	1.122024
C99	C	3.020308	0.450708	1.455357
C100	C	1.906959	-0.222694	1.083483
C101	C	2.240292	0.110639	1.416816
C102	C	2.573625	0.443973	1.750150
C103	C	1.917828	-0.215799	1.224574
C104	C	2.251162	0.117534	1.557908
C105	C	2.584495	0.450868	1.891241
C106	C	1.881590	-0.045158	0.752480
C107	C	2.214923	0.288175	1.085813
C108	C	2.548257	0.621509	1.419147
C109	C	1.881649	0.037392	0.752518
C110	C	2.214982	0.370725	1.085851
C111	C	2.548316	0.704059	1.419185
C112	C	1.856116	-0.254934	0.422593
C113	C	2.189450	0.078399	0.755927
C114	C	2.522783	0.411733	1.089260
C115	C	1.845493	-0.261608	0.281522
C116	C	2.178826	0.071726	0.614855
C117	C	2.512160	0.405059	0.948188
H118	H	1.412864	-0.171505	0.859005
H119	H	1.746197	0.161829	1.192339
H120	H	2.079530	0.495162	1.525672
H121	H	1.736999	-0.784665	0.896962
H122	H	2.070332	-0.451331	1.230296
H123	H	2.403665	-0.117998	1.563629
H124	H	1.955051	-0.678897	0.970743
H125	H	2.288385	-0.345564	1.304076
H126	H	2.621718	-0.012231	1.637409
H127	H	1.663452	-0.705351	0.678542
H128	H	1.996785	-0.372018	1.011876
H129	H	2.330118	-0.038684	1.345209
Cl130	Cl	2.026299	-0.147103	1.315953
Cl131	Cl	2.359632	0.186230	1.649286
Cl132	Cl	2.692966	0.519564	1.982619
H133	H	2.026173	-0.692142	0.608169
H134	H	2.359506	-0.358809	0.941502
H135	H	2.692840	-0.025476	1.274835
Cl136	Cl	2.154079	-0.780089	0.844738
Cl137	Cl	2.487413	-0.446756	1.178072
Cl138	Cl	2.820746	-0.113423	1.511405
Cl139	Cl	1.737041	-0.330308	1.190150
Cl140	Cl	2.070374	0.003025	1.523483
Cl141	Cl	2.403708	0.336359	1.856816
Cl142	Cl	1.319130	-0.330367	0.607649
Cl143	Cl	1.652463	0.002966	0.940983
Cl144	Cl	1.985796	0.336300	1.274316
H145	H	1.808059	-0.798172	0.534294
H146	H	2.141392	-0.464839	0.867627
H147	H	2.474726	-0.131506	1.200960
