data_functionalizedCrystal
_audit_creation_method	'MofGen! by Chris Wilmer'
_symmetry_space_group_name_H-M	'P1'
_symmetry_Int_Tables_number	1
_symmetry_cell_setting	triclinic
loop_
_symmetry_equiv_pos_as_xyz
  x,y,z
_cell_length_a	27.732064
_cell_length_b	27.732048
_cell_length_c	17.766277
_cell_angle_alpha	89.988664
_cell_angle_beta	89.998268
_cell_angle_gamma	82.646040
loop_
_atom_site_label
_atom_site_type_symbol
_atom_site_fract_x
_atom_site_fract_y
_atom_site_fract_z
O1	O	0.640925	0.057556	-0.062468
O2	O	0.500133	0.066293	-0.062500
O3	O	0.574902	-0.008472	-0.062469
O4	O	0.566156	0.132321	-0.062499
O5	O	0.574889	-0.008476	0.062720
O6	O	0.500120	0.066289	0.062688
O7	O	0.640912	0.057552	0.062721
Cu8	Cu	0.570515	0.061920	0.074135
Cu9	Cu	0.570530	0.061925	-0.073915
O10	O	0.566143	0.132317	0.062689
C11	C	0.482120	0.066106	0.000090
C12	C	0.428465	0.065551	0.000079
C13	C	0.051392	0.017583	0.000132
C14	C	0.253053	0.019630	0.000112
O15	O	0.284305	-0.017591	0.000148
N16	N	0.272180	0.063964	0.000099
C17	C	0.240889	0.107790	0.000096
O18	O	0.261785	0.145546	0.000092
C19	C	0.039230	0.105743	0.000121
C20	C	0.020105	0.061406	0.000127
C21	C	0.032267	-0.026750	0.000138
C22	C	-0.018145	-0.027261	0.000139
C23	C	-0.049432	0.016561	0.000134
C24	C	-0.030307	0.060895	0.000128
C25	C	0.007940	0.149568	0.000124
C26	C	-0.042478	0.149053	0.000132
C27	C	-0.061602	0.104716	0.000137
C28	C	-0.112006	0.104206	0.000123
N29	N	-0.131134	0.059872	0.000136
C30	C	-0.099846	0.016049	0.000142
C31	C	0.346763	0.108861	0.000081
C32	C	0.397178	0.109373	0.000073
C33	C	0.409338	0.021213	0.000091
C34	C	0.358923	0.020701	0.000093
C35	C	0.327636	0.064527	0.000094
C36	C	-0.205716	0.014979	0.000143
C37	C	-0.256133	0.014472	0.000141
C38	C	-0.268289	0.102632	0.000127
C39	C	-0.217876	0.103140	0.000125
C40	C	-0.186590	0.059309	0.000136
O41	O	-0.143287	0.141407	0.000095
O42	O	-0.120752	-0.021701	0.000162
C43	C	0.101804	0.018094	0.000131
C44	C	0.120930	0.062428	0.000125
C45	C	0.089642	0.106250	0.000120
C46	C	0.171344	0.062940	0.000117
C47	C	0.202631	0.019117	0.000123
C48	C	0.183504	-0.025217	0.000136
C49	C	0.133092	-0.025728	0.000136
C50	C	0.108770	0.150585	0.000107
C51	C	0.159183	0.151092	0.000105
C52	C	0.190470	0.107270	0.000110
C53	C	0.574712	-0.026481	0.000128
C54	C	0.574159	-0.080136	0.000134
C55	C	0.614862	-0.418948	0.000104
C56	C	0.612811	-0.620608	0.000093
O57	O	0.650032	-0.651862	0.000069
N58	N	0.568476	-0.639735	0.000084
C59	C	0.524651	-0.608442	0.000072
O60	O	0.486895	-0.629338	0.000056
C61	C	0.526703	-0.406784	0.000078
C62	C	0.571040	-0.387660	0.000095
C63	C	0.659196	-0.399824	0.000121
C64	C	0.659709	-0.349412	0.000127
C65	C	0.615887	-0.318124	0.000118
C66	C	0.571553	-0.337248	0.000102
C67	C	0.482878	-0.375493	0.000061
C68	C	0.483395	-0.325075	0.000060
C69	C	0.527733	-0.305952	0.000077
C70	C	0.528243	-0.255548	0.000099
N71	N	0.572578	-0.236422	0.000109
C72	C	0.616400	-0.267710	0.000118
C73	C	0.523577	-0.714317	0.000071
C74	C	0.523064	-0.764731	0.000071
C75	C	0.611225	-0.776893	0.000090
C76	C	0.611737	-0.726478	0.000096
C77	C	0.567912	-0.695190	0.000080
C78	C	0.617472	-0.161841	0.000133
C79	C	0.617981	-0.111424	0.000143
C80	C	0.529821	-0.099266	0.000119
C81	C	0.529312	-0.149679	0.000113
C82	C	0.573142	-0.180965	0.000118
O83	O	0.491043	-0.224267	0.000115
O84	O	0.654151	-0.246805	0.000117
C85	C	0.614350	-0.469360	0.000097
C86	C	0.570016	-0.488484	0.000081
C87	C	0.526194	-0.457196	0.000072
C88	C	0.569503	-0.538899	0.000081
C89	C	0.613325	-0.570187	0.000091
C90	C	0.657660	-0.551060	0.000100
C91	C	0.658172	-0.500648	0.000107
C92	C	0.481859	-0.476323	0.000063
C93	C	0.481351	-0.526735	0.000057
C94	C	0.525172	-0.558023	0.000066
C95	C	0.658925	0.057739	0.000129
C96	C	0.712580	0.058295	0.000135
C97	C	0.566333	0.150326	0.000091
C98	C	0.566886	0.203981	0.000080
N99	N	0.570508	0.061917	0.178266
N100	N	0.570541	0.061924	-0.178045
C101	C	0.603626	0.028827	0.217666
C102	C	0.603629	0.028825	0.296468
C103	C	0.570518	0.061921	0.335866
C104	C	0.537393	0.095013	0.296456
C105	C	0.537388	0.095011	0.217656
C106	C	0.563855	0.105992	0.460694
C107	C	0.563864	0.105994	0.539492
C108	C	0.570531	0.061927	0.578912
C109	C	0.577199	0.017854	0.539524
C110	C	0.577194	0.017852	0.460724
C111	C	0.570519	0.061926	0.421312
C112	C	0.603654	0.028831	0.703759
C113	C	0.603653	0.028829	0.782562
C114	C	0.537420	0.095021	0.782549
C115	C	0.537418	0.095020	0.703747
C116	C	0.570538	0.061926	0.664357
H117	H	-0.033711	-0.063365	0.000147
C118	C	0.481621	-0.064843	0.000105
H119	H	0.488280	-0.032081	0.000102
H120	H	0.463415	-0.070608	0.043752
H121	H	0.463434	-0.070599	-0.043566
C122	C	-0.277167	-0.034301	0.000151
H123	H	-0.251310	-0.060325	0.000162
H124	H	-0.296581	-0.036333	-0.043503
H125	H	-0.296580	-0.036334	0.043815
C126	C	0.584529	-0.030623	0.582875
H127	H	0.583571	-0.024312	0.635446
H128	H	0.615143	-0.048071	0.569965
H129	H	0.559387	-0.049390	0.569968
C130	C	0.640066	-0.007562	0.174338
H131	H	0.635328	-0.002819	0.121763
H132	H	0.635078	-0.039795	0.187254
H133	H	0.672281	-0.002512	0.187257
C134	C	0.432576	-0.547765	0.000035
H135	H	0.406553	-0.521906	0.000023
H136	H	0.430531	-0.567188	0.043685
H137	H	0.430550	-0.567168	-0.043633
H138	H	0.630620	0.001883	0.671687
C139	C	0.028966	0.198340	0.000129
H140	H	0.003105	0.224361	0.000138
H141	H	0.048380	0.200385	-0.043525
H142	H	0.048377	0.200367	0.043792
C143	C	0.112061	-0.074499	0.000150
H144	H	0.137920	-0.100521	0.000160
H145	H	0.092646	-0.076535	-0.043502
H146	H	0.092650	-0.076535	0.043815
H147	H	0.446774	-0.391054	0.000043
H148	H	0.694276	-0.485083	0.000120
H149	H	0.083300	0.186271	0.000103
C150	C	0.217924	-0.073422	0.000139
H151	H	0.199317	-0.099903	0.000139
H152	H	0.237845	-0.075054	0.043793
H153	H	0.237841	-0.075048	-0.043524
H154	H	-0.180248	-0.020712	0.000151
H155	H	-0.067950	0.184742	0.000136
H156	H	0.057737	-0.062438	0.000145
H157	H	0.630620	0.001880	0.814643
H158	H	-0.202304	0.139243	0.000120
C159	C	0.640061	-0.007575	0.339818
H160	H	0.659786	-0.027283	0.305073
H161	H	0.622828	-0.027578	0.370572
H162	H	0.660052	0.009685	0.370545
C163	C	0.500999	0.131426	0.825877
H164	H	0.505746	0.126690	0.878451
H165	H	0.468778	0.126397	0.812970
H166	H	0.506008	0.163653	0.812950
C167	C	0.705862	-0.585484	0.000105
H168	H	0.699202	-0.618246	0.000092
H169	H	0.724059	-0.579733	0.043762
H170	H	0.724059	-0.579715	-0.043555
C171	C	0.665684	-0.196249	0.000144
H172	H	0.692157	-0.177633	0.000162
H173	H	0.667328	-0.216164	-0.043512
H174	H	0.667312	-0.216173	0.043806
C175	C	0.180214	0.199866	0.000101
H176	H	0.154356	0.225890	0.000105
H177	H	0.199629	0.201908	-0.043553
H178	H	0.199624	0.201894	0.043765
C179	C	0.666753	-0.090389	0.000162
H180	H	0.660785	-0.055882	0.000173
H181	H	0.684786	-0.101143	-0.043489
H182	H	0.684773	-0.101159	0.043829
H183	H	0.582623	-0.018033	0.428657
H184	H	0.646906	-0.802377	0.000098
C185	C	0.433652	-0.441912	0.000060
H186	H	0.407178	-0.460528	0.000060
H187	H	0.432017	-0.421982	-0.043591
H188	H	0.432016	-0.422003	0.043727
H189	H	0.343355	-0.015402	0.000098
H190	H	0.321293	0.144551	0.000081
C191	C	-0.302710	0.150833	0.000127
H192	H	-0.335473	0.144175	0.000138
H193	H	-0.296953	0.169037	-0.043528
H194	H	-0.296946	0.169021	0.043789
C195	C	0.474293	-0.785761	0.000058
H196	H	0.448270	-0.759903	0.000045
H197	H	0.472251	-0.805181	0.043711
H198	H	0.472265	-0.805168	-0.043606
C199	C	0.556532	0.154471	0.582813
H200	H	0.552553	0.180716	0.548052
H201	H	0.584133	0.156967	0.613544
H202	H	0.528379	0.155640	0.613560
C203	C	0.500998	0.131427	0.660400
H204	H	0.505736	0.126685	0.607828
H205	H	0.506009	0.163651	0.673305
H206	H	0.468775	0.126399	0.673318
H207	H	0.487888	-0.688846	0.000058
H208	H	0.434821	-0.014469	0.000092
C209	C	0.556525	0.154470	0.417339
H210	H	0.552563	0.180717	0.452081
H211	H	0.528371	0.155643	0.386602
H212	H	0.584127	0.156959	0.386596
C213	C	0.500974	0.131419	0.339790
H214	H	0.505723	0.126685	0.392364
H215	H	0.468753	0.126390	0.326887
H216	H	0.505983	0.163646	0.326860
C217	C	0.418210	0.158144	0.000060
H218	H	0.392352	0.184167	0.000065
H219	H	0.437622	0.160182	-0.043598
H220	H	0.437623	0.160174	0.043720
H221	H	0.447706	-0.299603	0.000047
H222	H	0.695813	-0.333847	0.000138
H223	H	0.694883	-0.425295	0.000125
C224	C	0.480542	-0.170716	0.000093
H225	H	0.454517	-0.144859	0.000084
H226	H	0.478500	-0.190141	0.043740
H227	H	0.478518	-0.190117	-0.043578
C228	C	0.500960	0.131415	0.174313
H229	H	0.481241	0.151128	0.209060
H230	H	0.480969	0.114164	0.143579
H231	H	0.518199	0.151420	0.143567
H232	H	0.647841	-0.710911	0.000109
