data_functionalizedCrystal
_audit_creation_method	'MofGen! by Chris Wilmer'
_symmetry_space_group_name_H-M	'P1'
_symmetry_Int_Tables_number	1
_symmetry_cell_setting	triclinic
loop_
_symmetry_equiv_pos_as_xyz
  x,y,z
_cell_length_a	25.639242
_cell_length_b	25.639240
_cell_length_c	25.639233
_cell_angle_alpha	89.974071
_cell_angle_beta	89.977834
_cell_angle_gamma	90.028283
loop_
_atom_site_label
_atom_site_type_symbol
_atom_site_fract_x
_atom_site_fract_y
_atom_site_fract_z
Zn1	Zn	0.799247	-0.208277	-0.295716
Zn2	Zn	0.799179	-0.295696	-0.208270
Zn3	Zn	0.711823	-0.208269	-0.208280
Zn4	Zn	0.711777	-0.295676	-0.295659
O5	O	0.755506	-0.251979	-0.251981
O6	O	0.872403	-0.219884	-0.284135
O7	O	0.787582	-0.284103	-0.135106
O8	O	0.723467	-0.135105	-0.219907
O9	O	0.872353	-0.284111	-0.219889
O10	O	0.787697	-0.135111	-0.284146
O11	O	0.723402	-0.219871	-0.135114
O12	O	0.638652	-0.219853	-0.219852
O13	O	0.723389	-0.284078	-0.368832
O14	O	0.638618	-0.284070	-0.284049
O15	O	0.787653	-0.219866	-0.368874
O16	O	0.787538	-0.368858	-0.219834
O17	O	0.723324	-0.368844	-0.284039
C18	C	0.619664	-0.251959	-0.251946
C19	C	0.561550	-0.251963	-0.251943
C20	C	0.201178	-0.285473	-0.285377
C21	C	0.146574	-0.285477	-0.285385
O22	O	0.118330	-0.313943	-0.313782
N23	N	0.119267	-0.251994	-0.252015
C24	C	0.146568	-0.218502	-0.218639
O25	O	0.118328	-0.190022	-0.190256
C26	C	0.201171	-0.218496	-0.218634
C27	C	0.228475	-0.251985	-0.252002
C28	C	0.228482	-0.318959	-0.318743
C29	C	0.283082	-0.318956	-0.318734
C30	C	0.310379	-0.285468	-0.285359
C31	C	0.283076	-0.251983	-0.251993
C32	C	0.228471	-0.185002	-0.185260
C33	C	0.283078	-0.184999	-0.185258
C34	C	0.310382	-0.218488	-0.218626
C35	C	0.364973	-0.218492	-0.218609
N36	N	0.392279	-0.251974	-0.251979
C37	C	0.364983	-0.285463	-0.285354
C38	C	0.031897	-0.218515	-0.218653
C39	C	-0.022705	-0.218523	-0.218655
C40	C	-0.022695	-0.285497	-0.285402
C41	C	0.031908	-0.285492	-0.285397
C42	C	0.059204	-0.251998	-0.252023
C43	C	0.479648	-0.285455	-0.285332
C44	C	0.534253	-0.285451	-0.285318
C45	C	0.534239	-0.218475	-0.218573
C46	C	0.479638	-0.218481	-0.218585
C47	C	0.452344	-0.251972	-0.251968
O48	O	0.393252	-0.190038	-0.190228
O49	O	0.393229	-0.313933	-0.313736
C50	C	0.755433	-0.387822	-0.251940
C51	C	0.755449	-0.445936	-0.251940
C52	C	0.788967	-0.806264	-0.285491
C53	C	0.788983	-0.860868	-0.285501
O54	O	0.817394	-0.889074	-0.313985
N55	N	0.755579	-0.888218	-0.252032
C56	C	0.722154	-0.860962	-0.218553
O57	O	0.693742	-0.889240	-0.190086
C58	C	0.722136	-0.806359	-0.218546
C59	C	0.755546	-0.779011	-0.252014
C60	C	0.822374	-0.778916	-0.318956
C61	C	0.822359	-0.724315	-0.318945
C62	C	0.788938	-0.697062	-0.285468
C63	C	0.755531	-0.724410	-0.252002
C64	C	0.688708	-0.779103	-0.185070
C65	C	0.688693	-0.724496	-0.185066
C66	C	0.722103	-0.697148	-0.218534
C67	C	0.722095	-0.642557	-0.218514
N68	N	0.755498	-0.615206	-0.251983
C69	C	0.788920	-0.642459	-0.285460
C70	C	0.722193	-0.975633	-0.218572
C71	C	0.722213	-1.030235	-0.218577
C72	C	0.789041	-1.030137	-0.285526
C73	C	0.789024	-0.975534	-0.285518
C74	C	0.755597	-0.948282	-0.252042
C75	C	0.788887	-0.527794	-0.285433
C76	C	0.788870	-0.473189	-0.285417
C77	C	0.722040	-0.473291	-0.218471
C78	C	0.722058	-0.527892	-0.218484
C79	C	0.755483	-0.555142	-0.251970
O80	O	0.693697	-0.614316	-0.190046
O81	O	0.817322	-0.614175	-0.313927
C82	C	0.891879	-0.252000	-0.252017
C83	C	0.949993	-0.252009	-0.252032
C84	C	0.755523	-0.251970	-0.388354
C85	C	0.755530	-0.251966	-0.446468
C86	C	0.755595	-0.115606	-0.252034
C87	C	0.755632	-0.057492	-0.252056
C88	C	0.789035	-0.218432	-0.806859
C89	C	0.789041	-0.218417	-0.861463
O90	O	0.817486	-0.189967	-0.889723
N91	N	0.755588	-0.251844	-0.888751
C92	C	0.722122	-0.285283	-0.861432
O93	O	0.693668	-0.313713	-0.889656
C94	C	0.722114	-0.285294	-0.806828
C95	C	0.755573	-0.251870	-0.779543
C96	C	0.822491	-0.185009	-0.779574
C97	C	0.822485	-0.185025	-0.724973
C98	C	0.789023	-0.218462	-0.697658
C99	C	0.755567	-0.251885	-0.724943
C100	C	0.688646	-0.318731	-0.779510
C101	C	0.688640	-0.318739	-0.724903
C102	C	0.722099	-0.285314	-0.697618
C103	C	0.722099	-0.285338	-0.643027
N104	N	0.755552	-0.251912	-0.615739
C105	C	0.789014	-0.218474	-0.643055
C106	C	0.722143	-0.285256	-0.976102
C107	C	0.722154	-0.285247	-1.030705
C108	C	0.789072	-0.218381	-1.030733
C109	C	0.789063	-0.218392	-0.976129
C110	C	0.755596	-0.251829	-0.948815
C111	C	0.789000	-0.218509	-0.528389
C112	C	0.788992	-0.218529	-0.473784
C113	C	0.722072	-0.285393	-0.473761
C114	C	0.722081	-0.285375	-0.528362
C115	C	0.755547	-0.251929	-0.555674
O116	O	0.693668	-0.313773	-0.614732
O117	O	0.817459	-0.190044	-0.614823
C118	C	0.755520	-0.251951	-0.116139
C119	C	0.755614	-0.251807	-0.058025
H120	H	0.054118	-0.191241	-0.191472
C121	C	0.656142	-0.981223	-0.152391
C122	C	0.685453	-0.945680	-0.181765
H123	H	0.633463	-0.962732	-0.129666
H124	H	0.636135	-1.002520	-0.175154
H125	H	0.678952	-1.002515	-0.132425
H126	H	0.662643	-0.924390	-0.201734
H127	H	0.705461	-0.924374	-0.158999
C128	C	0.818728	-1.113802	-0.315269
C129	C	0.825775	-1.060101	-0.322331
H130	H	0.841403	-1.132300	-0.337992
H131	H	0.826411	-1.122762	-0.280154
H132	H	0.783593	-1.122764	-0.322881
H133	H	0.860910	-1.051138	-0.314714
H134	H	0.818096	-1.051137	-0.357454
H135	H	0.694841	-0.312597	-0.550578
H136	H	0.694913	-0.312471	-1.052916
C137	C	0.551078	-0.129904	-0.193272
C138	C	0.564247	-0.181666	-0.181885
H139	H	0.569602	-0.107180	-0.170620
H140	H	0.560050	-0.122309	-0.228411
H141	H	0.514650	-0.125119	-0.188499
H142	H	0.600674	-0.186452	-0.186662
H143	H	0.555278	-0.189264	-0.146738
C144	C	0.855138	-0.152428	-0.479305
C145	C	0.825771	-0.181783	-0.443793
H146	H	0.877839	-0.129742	-0.460790
H147	H	0.875124	-0.175206	-0.500601
H148	H	0.832366	-0.132423	-0.500600
H149	H	0.848543	-0.201791	-0.422500
H150	H	0.805783	-0.159002	-0.422487
H151	H	0.457406	-0.191213	-0.191412
C152	C	-0.084094	-0.148196	-0.211515
C153	C	-0.052721	-0.181727	-0.181966
H154	H	-0.102626	-0.125483	-0.188863
H155	H	-0.062775	-0.128222	-0.234321
H156	H	-0.108163	-0.168145	-0.231395
H157	H	-0.028649	-0.161778	-0.162089
H158	H	-0.074041	-0.201703	-0.159151
C159	C	0.622640	-0.773692	-0.118908
C160	C	0.651978	-0.809154	-0.148284
H161	H	0.599960	-0.792245	-0.096200
H162	H	0.645428	-0.752393	-0.098929
H163	H	0.602628	-0.752394	-0.141674
H164	H	0.671994	-0.830450	-0.125518
H165	H	0.629187	-0.830462	-0.168265
C166	C	0.622501	-0.384840	-0.730364
C167	C	0.651860	-0.355505	-0.694880
H168	H	0.599800	-0.407542	-0.711829
H169	H	0.602515	-0.362052	-0.751655
H170	H	0.645279	-0.404829	-0.751669
H171	H	0.629082	-0.335513	-0.673577
H172	H	0.671847	-0.378296	-0.673580
H173	H	0.661471	-0.702310	-0.157806
C174	C	0.859236	-0.589130	-0.292796
C175	C	0.825629	-0.557741	-0.322240
H176	H	0.881918	-0.607619	-0.315519
H177	H	0.879239	-0.567828	-0.270034
H178	H	0.839340	-0.613238	-0.272873
H179	H	0.845525	-0.533631	-0.342161
H180	H	0.805624	-0.579045	-0.345011
H181	H	0.849563	-0.702052	-0.346199
H182	H	0.849740	-0.157777	-0.801809
H183	H	0.206250	-0.157734	-0.158087
C184	C	0.888433	-0.773320	-0.385122
C185	C	0.859119	-0.808866	-0.355756
H186	H	0.911124	-0.791808	-0.407837
H187	H	0.865631	-0.752033	-0.405093
H188	H	0.908433	-0.752017	-0.362350
H189	H	0.839116	-0.830166	-0.378528
H190	H	0.881924	-0.830161	-0.335783
H191	H	0.694889	-0.312487	-0.953866
C192	C	0.681334	-0.389060	-0.840878
C193	C	0.651867	-0.355479	-0.809487
H194	H	0.658627	-0.411751	-0.859379
H195	H	0.701253	-0.369150	-0.864969
H196	H	0.704102	-0.409059	-0.819571
H197	H	0.629102	-0.335477	-0.830794
H198	H	0.631940	-0.375391	-0.785392
H199	H	0.206262	-0.346229	-0.345924
H200	H	0.816249	-0.191272	-0.550621
H201	H	0.694857	-0.550160	-0.191228
H202	H	0.305300	-0.157721	-0.158083
C203	C	0.093286	-0.355831	-0.292526
C204	C	0.061917	-0.322300	-0.322080
H205	H	0.111807	-0.378557	-0.315175
H206	H	0.117360	-0.335887	-0.272657
H207	H	0.071961	-0.375796	-0.269709
H208	H	0.083242	-0.302332	-0.344894
H209	H	0.037840	-0.342246	-0.341958
H210	H	0.694830	-0.451094	-0.191212
H211	H	0.849730	-0.157806	-0.702763
H212	H	0.816317	-0.191153	-1.052983
H213	H	0.695013	-1.052497	-0.191318
H214	H	-0.044930	-0.312763	-0.312580
C215	C	0.854928	-0.478585	-0.351599
C216	C	0.825594	-0.443129	-0.322211
H217	H	0.877595	-0.460028	-0.374316
H218	H	0.874948	-0.499880	-0.328845
H219	H	0.832132	-0.499888	-0.371575
H220	H	0.848389	-0.421828	-0.302233
H221	H	0.805572	-0.421825	-0.344968
H222	H	0.457431	-0.312726	-0.312517
C223	C	0.855208	-0.152297	-0.981654
C224	C	0.825838	-0.181647	-0.946140
H225	H	0.877908	-0.129609	-0.963141
H226	H	0.875194	-0.175078	-1.002947
H227	H	0.832437	-0.132294	-1.002954
H228	H	0.848608	-0.201653	-0.924843
H229	H	0.805849	-0.158863	-0.924839
C230	C	0.796220	-0.914083	-0.355849
C231	C	0.825744	-0.945473	-0.322310
H232	H	0.818891	-0.895525	-0.378562
H233	H	0.773438	-0.935393	-0.375823
H234	H	0.776316	-0.890036	-0.335907
H235	H	0.845645	-0.969523	-0.342252
H236	H	0.848535	-0.924161	-0.302334
C237	C	0.528769	-0.351651	-0.351300
C238	C	0.564264	-0.322261	-0.322002
H239	H	0.547297	-0.374372	-0.373949
H240	H	0.507453	-0.371617	-0.328485
H241	H	0.507492	-0.328895	-0.371343
H242	H	0.585540	-0.345018	-0.301956
H243	H	0.585590	-0.302294	-0.344821
C244	C	0.277590	-0.385150	-0.384714
C245	C	0.313090	-0.355763	-0.355420
H246	H	0.296114	-0.407871	-0.407367
H247	H	0.256276	-0.405117	-0.361897
H248	H	0.256310	-0.362392	-0.404754
H249	H	0.334367	-0.378521	-0.335377
H250	H	0.334413	-0.335795	-0.378240
C251	C	0.692350	-0.315091	-0.390040
C252	C	0.685289	-0.322144	-0.443728
H253	H	0.669637	-0.337775	-0.371500
H254	H	0.727469	-0.322755	-0.381104
H255	H	0.684725	-0.279958	-0.381107
H256	H	0.692919	-0.357275	-0.452663
H257	H	0.650163	-0.314483	-0.452669
