data_functionalizedCrystal
_audit_creation_method	'MofGen! by Chris Wilmer'
_symmetry_space_group_name_H-M	'P1'
_symmetry_Int_Tables_number	1
_symmetry_cell_setting	triclinic
loop_
_symmetry_equiv_pos_as_xyz
  x,y,z
_cell_length_a	21.295417
_cell_length_b	21.295420
_cell_length_c	12.759393
_cell_angle_alpha	90.022717
_cell_angle_beta	89.960830
_cell_angle_gamma	89.972078
loop_
_atom_site_label
_atom_site_type_symbol
_atom_site_fract_x
_atom_site_fract_y
_atom_site_fract_z
Zn1	Zn	-0.250615	-0.962338	-0.594044
Zn2	Zn	0.249385	-0.462338	-0.094044
Zn3	Zn	-0.355900	-0.962245	-0.418341
Zn4	Zn	0.144100	-0.462245	0.081659
Zn5	Zn	-0.250643	-0.857066	-0.418371
Zn6	Zn	0.249357	-0.357066	0.081629
Zn7	Zn	-0.355846	-0.857030	-0.593969
Zn8	Zn	0.144154	-0.357030	-0.093969
O9	O	-0.303251	-0.909670	-0.506181
O10	O	0.196749	-0.409670	-0.006181
O11	O	-0.264592	-1.050415	-0.570755
O12	O	0.235408	-0.550415	-0.070755
O13	O	-0.341971	-0.948269	-0.271324
O14	O	0.158029	-0.448269	0.228676
O15	O	-0.162550	-0.871084	-0.441718
O16	O	0.337450	-0.371084	0.058282
O17	O	-0.341944	-1.050347	-0.441667
O18	O	0.158056	-0.550347	0.058333
O19	O	-0.162530	-0.948427	-0.570784
O20	O	0.337470	-0.448427	-0.070784
O21	O	-0.264640	-0.870995	-0.271345
O22	O	0.235360	-0.370995	0.228655
O23	O	-0.264588	-0.768972	-0.441645
O24	O	0.235412	-0.268972	0.058355
O25	O	-0.341853	-0.871023	-0.741000
O26	O	0.158147	-0.371023	-0.241000
O27	O	-0.341880	-0.768946	-0.570657
O28	O	0.158120	-0.268946	-0.070657
O29	O	-0.264540	-0.948392	-0.741055
O30	O	0.235460	-0.448392	-0.241055
O31	O	-0.443982	-0.948235	-0.441595
O32	O	0.056018	-0.448235	0.058405
O33	O	-0.443943	-0.870934	-0.570628
O34	O	0.056057	-0.370934	-0.070628
C35	C	-0.303232	-0.746118	-0.506147
C36	C	0.196768	-0.246118	-0.006147
C37	C	-0.303239	-0.676150	-0.506157
C38	C	0.196761	-0.176150	-0.006157
C39	C	-0.343560	-0.176695	-0.573274
C40	C	0.156440	0.323305	-0.073274
C41	C	-0.343562	-0.242437	-0.573264
C42	C	0.156438	0.257563	-0.073264
C43	C	-0.303256	-0.275311	-0.506198
C44	C	0.196744	0.224689	-0.006198
C45	C	-0.262958	-0.242436	-0.439117
C46	C	0.237042	0.257564	0.060883
C47	C	-0.262962	-0.176695	-0.439121
C48	C	0.237038	0.323305	0.060879
N49	N	-0.248142	-0.378552	-0.498302
N50	N	0.251858	0.121448	0.001698
N51	N	-0.248139	-0.441003	-0.498304
N52	N	0.251861	0.058997	0.001696
C53	C	-0.303241	-0.473385	-0.506181
C54	C	0.196759	0.026615	-0.006181
N55	N	-0.358347	-0.440957	-0.514075
N56	N	0.141653	0.059043	-0.014075
N57	N	-0.358349	-0.378500	-0.514078
N58	N	0.141651	0.121500	-0.014078
C59	C	-0.303247	-0.346596	-0.506186
C60	C	0.196753	0.153404	-0.006186
C61	C	-0.343541	-0.577538	-0.573242
C62	C	0.156459	-0.077538	-0.073242
C63	C	-0.343544	-0.643281	-0.573225
C64	C	0.156456	-0.143281	-0.073225
C65	C	-0.262934	-0.643279	-0.439084
C66	C	0.237066	-0.143279	0.060916
C67	C	-0.262938	-0.577536	-0.439095
C68	C	0.237062	-0.077536	0.060905
C69	C	-0.303240	-0.544670	-0.506180
C70	C	0.196760	-0.044670	-0.006180
C71	C	-0.466803	-0.909587	-0.506123
C72	C	0.033197	-0.409587	-0.006123
C73	C	-0.536771	-0.909610	-0.506133
C74	C	-0.036771	-0.409610	-0.006133
C75	C	-0.569637	-0.949896	-0.439014
C76	C	-0.069637	-0.449896	0.060986
C77	C	-0.635380	-0.949925	-0.439038
C78	C	-0.135380	-0.449925	0.060962
C79	C	-0.668253	-0.909657	-0.506170
C80	C	-0.168253	-0.409657	-0.006170
C81	C	-0.635379	-0.869368	-0.573301
C82	C	-0.135379	-0.369368	-0.073301
C83	C	-0.569638	-0.869344	-0.573283
C84	C	-0.069638	-0.369344	-0.073283
N85	N	-0.771516	-0.854590	-0.514167
N86	N	-0.271516	-0.354590	-0.014167
N87	N	-0.833967	-0.854615	-0.514178
N88	N	-0.333967	-0.354615	-0.014178
C89	C	-0.866328	-0.909728	-0.506230
C90	C	-0.366328	-0.409728	-0.006230
N91	N	-0.833878	-0.964817	-0.498249
N92	N	-0.333878	-0.464817	0.001751
N93	N	-0.771421	-0.964792	-0.498233
N94	N	-0.271421	-0.464792	0.001767
C95	C	-0.739539	-0.909679	-0.506197
C96	C	-0.239539	-0.409679	-0.006197
C97	C	-0.970480	-0.950050	-0.439133
C98	C	-0.470480	-0.450050	0.060867
C99	C	-1.036223	-0.950080	-0.439164
C100	C	-0.536223	-0.450080	0.060836
C101	C	-1.036222	-0.869517	-0.573422
C102	C	-0.536222	-0.369517	-0.073422
C103	C	-0.970479	-0.869492	-0.573396
C104	C	-0.470479	-0.369492	-0.073396
C105	C	-0.937612	-0.909758	-0.506246
C106	C	-0.437612	-0.409758	-0.006246
C107	C	-0.139061	-0.909770	-0.506263
C108	C	0.360939	-0.409770	-0.006263
C109	C	-0.069093	-0.909812	-0.506297
C110	C	0.430907	-0.409812	-0.006297
C111	C	-0.303188	-0.909714	-0.780215
C112	C	0.196812	-0.409714	-0.280215
C113	C	-0.303161	-0.909733	-0.896991
C114	C	0.196839	-0.409733	-0.396991
C115	C	-0.303267	-0.073860	-0.506210
C116	C	0.196733	0.426140	-0.006210
C117	C	-0.303265	-0.143828	-0.506206
C118	C	0.196735	0.356172	-0.006206
C119	C	-0.262900	-0.950024	-0.951884
C120	C	0.237100	-0.450024	-0.451884
C121	C	-0.262877	-0.950039	-1.061608
C122	C	0.237123	-0.450039	-0.561608
C123	C	-0.343381	-0.869469	-1.061538
C124	C	0.156619	-0.369469	-0.561538
C125	C	-0.343400	-0.869452	-0.951816
C126	C	0.156600	-0.369452	-0.451816
C127	C	-0.216424	-0.996543	-0.951925
C128	C	0.283576	-0.496543	-0.451925
C129	C	-0.216401	-0.996558	-1.061649
C130	C	0.283599	-0.496558	-0.561649
C131	C	-0.303269	-0.909662	-0.233214
C132	C	0.196731	-0.409662	0.266786
C133	C	-0.303119	-0.909765	-0.116438
C134	C	0.196881	-0.409765	0.383562
H135	H	-0.376359	-0.550776	-0.627865
H136	H	0.123641	-0.050776	-0.127865
H137	H	-0.167673	-0.983513	-0.922178
H138	H	0.332327	-0.483513	-0.422178
H139	H	-0.233903	-1.042836	-0.917891
H140	H	0.266097	-0.542836	-0.417891
H141	H	-0.229461	-1.045308	-1.091431
H142	H	0.270539	-0.545308	-0.591431
O143	O	-0.155043	-0.973482	-1.106777
O144	O	0.344957	-0.473482	-0.606777
H145	H	-0.122528	-0.961239	-1.041969
H146	H	0.377472	-0.461239	-0.541969
O147	O	-0.219469	-0.678721	-0.366726
O148	O	0.280531	-0.178721	0.133274
H149	H	-0.170075	-0.666127	-0.384877
H150	H	0.329925	-0.166127	0.115123
O151	O	-0.387004	-0.678734	-0.645574
O152	O	0.112996	-0.178734	-0.145574
H153	H	-0.436399	-0.666086	-0.627427
H154	H	0.063601	-0.166086	-0.127427
O155	O	-0.387135	-0.141244	-0.645445
O156	O	0.112865	0.358756	-0.145445
H157	H	-0.415197	-0.175148	-0.692011
H158	H	0.084803	0.324852	-0.192011
O159	O	-0.219468	-0.542080	-0.366770
O160	O	0.280532	-0.042080	0.133230
H161	H	-0.191436	-0.575982	-0.320138
H162	H	0.308564	-0.075982	0.179862
O163	O	-0.935022	-0.993484	-0.366726
O164	O	-0.435022	-0.493484	0.133274
H165	H	-0.968924	-1.021512	-0.320070
H166	H	-0.468924	-0.521512	0.179930
H167	H	-1.062987	-0.836733	-0.628086
H168	H	-0.562987	-0.336733	-0.128086
O169	O	-0.386818	-0.825986	-0.892614
O170	O	0.113182	-0.325986	-0.392614
H171	H	-0.380068	-0.832735	-0.807106
H172	H	0.119932	-0.332735	-0.307106
O173	O	-0.219505	-0.141237	-0.366774
O174	O	0.280495	0.358763	0.133226
H175	H	-0.187514	-0.111305	-0.413890
H176	H	0.312486	0.388695	0.086110
H177	H	-0.542879	-0.982684	-0.384340
H178	H	-0.042879	-0.482684	0.115660
O179	O	-0.386779	-0.826026	-1.120676
O180	O	0.113221	-0.326026	-0.620676
H181	H	-0.414774	-0.798002	-1.064069
H182	H	0.085226	-0.298002	-0.564069
H183	H	-0.376375	-0.269203	-0.627883
H184	H	0.123625	0.230797	-0.127883
H185	H	-1.062982	-0.982890	-0.384510
H186	H	-0.562982	-0.482890	0.115490
H187	H	-0.943718	-0.836685	-0.628046
H188	H	-0.443718	-0.336685	-0.128046
H189	H	-0.230142	-0.269206	-0.384510
H190	H	0.269858	0.230794	0.115490
O191	O	-0.670841	-0.993373	-0.366634
O192	O	-0.170841	-0.493373	0.133366
H193	H	-0.636941	-1.021364	-0.319933
H194	H	-0.136941	-0.521364	0.180067
H195	H	-0.662149	-0.836583	-0.627962
H196	H	-0.162149	-0.336583	-0.127962
H197	H	-0.542878	-0.836538	-0.627941
H198	H	-0.042878	-0.336538	-0.127941
