data_functionalizedCrystal
_audit_creation_method	'MofGen! by Chris Wilmer'
_symmetry_space_group_name_H-M	'P1'
_symmetry_Int_Tables_number	1
_symmetry_cell_setting	triclinic
loop_
_symmetry_equiv_pos_as_xyz
  x,y,z
_cell_length_a	6.817900
_cell_length_b	9.109307
_cell_length_c	14.125465
_cell_angle_alpha	100.871692
_cell_angle_beta	100.398878
_cell_angle_gamma	111.764999
loop_
_atom_site_label
_atom_site_type_symbol
_atom_site_fract_x
_atom_site_fract_y
_atom_site_fract_z
V1	V	-4.044302	-0.223872	-0.318463
O2	O	-3.976621	0.012197	-0.293259
O3	O	-4.048462	-0.445285	-0.334695
O4	O	-3.979480	-0.219797	-0.448956
O5	O	-4.046081	-0.214852	-0.178206
V6	V	-4.523248	-0.195710	-0.299451
O7	O	-4.315602	-0.285648	-0.360168
O8	O	-4.702145	-0.133934	-0.257746
O9	O	-4.295881	0.025703	-0.283219
O10	O	-4.708325	-0.431779	-0.324655
O11	O	-4.638866	-0.204730	-0.439707
O12	O	-4.364863	-0.199785	-0.168957
C13	C	-3.906780	-0.499280	-0.334421
C14	C	-3.991358	-0.680284	-0.348562
C15	C	-3.818786	-0.211646	-0.480172
C16	C	-3.847417	-0.209779	-0.586972
C17	C	-3.899897	-0.206356	-0.782512
C18	C	-4.087020	-0.213223	-0.835401
C19	C	-4.116223	-0.211318	-0.944206
C20	C	-3.870687	-0.208260	-0.673697
C21	C	-4.100907	0.079690	-0.283490
C22	C	-3.995567	0.260692	-0.269356
C23	C	-4.188902	-0.207941	-0.137737
C24	C	-4.139506	-0.209800	-0.030935
H25	H	-4.052436	-0.768237	-0.427220
H26	H	-4.225298	-0.220550	-0.798967
C27	C	-3.913098	-0.620521	-0.163100
H28	H	-3.927090	-0.681820	-0.115309
H29	H	-3.763263	-0.547908	-0.150699
H30	H	-3.998103	-0.558561	-0.157735
H31	H	-3.761641	-0.199048	-0.818947
