data_functionalizedCrystal
_audit_creation_method	'MofGen! by Chris Wilmer'
_symmetry_space_group_name_H-M	'P1'
_symmetry_Int_Tables_number	1
_symmetry_cell_setting	triclinic
loop_
_symmetry_equiv_pos_as_xyz
  x,y,z
_cell_length_a	6.817900
_cell_length_b	7.190339
_cell_length_c	19.453114
_cell_angle_alpha	88.401381
_cell_angle_beta	78.290712
_cell_angle_gamma	119.388276
loop_
_atom_site_label
_atom_site_type_symbol
_atom_site_fract_x
_atom_site_fract_y
_atom_site_fract_z
V1	V	4.094688	0.297310	-0.218499
O2	O	3.991195	-0.012002	-0.214850
O3	O	4.132023	0.587319	-0.216513
O4	O	4.036547	0.293740	-0.314018
O5	O	4.087332	0.283609	-0.116671
V6	V	4.568469	0.260195	-0.206379
O7	O	4.377317	0.378727	-0.245084
O8	O	4.736037	0.178778	-0.179793
O9	O	4.307927	-0.029814	-0.208365
O10	O	4.789359	0.569507	-0.210027
O11	O	4.693222	0.273895	-0.308207
O12	O	4.403403	0.263765	-0.110860
C13	C	3.876406	0.283493	-0.337315
C14	C	3.910720	0.282493	-0.415399
C15	C	3.998213	0.657988	-0.212943
C16	C	4.112062	0.899537	-0.211939
C17	C	4.111788	0.292728	-0.455639
C18	C	4.144031	0.291789	-0.529008
C19	C	3.975215	0.280656	-0.562135
C20	C	3.774113	0.270407	-0.521885
C21	C	3.741865	0.271325	-0.448518
N22	N	3.948770	0.393290	-0.680735
N23	N	3.979419	0.392423	-0.750432
C24	C	4.072362	0.277884	-0.783188
N25	N	4.133543	0.164273	-0.743617
N26	N	4.102902	0.165150	-0.673914
C27	C	4.010161	0.279658	-0.641690
C28	C	4.308402	0.287098	-0.902983
C29	C	4.340631	0.286144	-0.976352
C30	C	3.970718	0.264784	-0.969229
C31	C	3.938484	0.265716	-0.895860
C32	C	4.107339	0.276884	-0.862742
C33	C	4.226889	0.274018	-0.087559
C34	C	4.171810	0.275008	-0.009474
H35	H	4.249282	0.301813	-0.428679
H36	H	4.445890	0.296183	-0.876016
H37	H	3.636661	0.261336	-0.548862
C38	C	3.523860	0.260657	-0.404772
C39	C	3.586191	0.445022	-0.371604
C40	C	3.385441	0.435298	-0.331299
H41	H	3.427821	0.254015	-0.434940
H42	H	3.441456	0.135645	-0.369750
H43	H	3.668558	0.570000	-0.406622
H44	H	3.682201	0.451701	-0.341424
H45	H	3.303037	0.310286	-0.296277
H46	H	3.289416	0.428650	-0.361473
H47	H	3.427705	0.560375	-0.308785
H48	H	3.774766	0.257404	-0.863097
H49	H	4.504361	0.294464	-1.009113
C50	C	3.787440	0.252361	-1.005261
C51	C	3.703615	0.066792	-1.038034
C52	C	3.534789	0.055279	-1.071244
H53	H	3.662881	0.246282	-0.970856
H54	H	3.854362	0.376505	-1.039976
H55	H	3.636690	-0.057321	-1.003322
H56	H	3.828117	0.072829	-1.072449
H57	H	3.601711	0.179424	-1.105959
H58	H	3.410246	0.049208	-1.036834
H59	H	3.477908	-0.070616	-1.093489
H60	H	4.307775	0.300135	-0.561778
