data_functionalizedCrystal
_audit_creation_method	'MofGen! by Chris Wilmer'
_symmetry_space_group_name_H-M	'P1'
_symmetry_Int_Tables_number	1
_symmetry_cell_setting	triclinic
loop_
_symmetry_equiv_pos_as_xyz
  x,y,z
_cell_length_a	21.395364
_cell_length_b	17.637651
_cell_length_c	21.395355
_cell_angle_alpha	101.232233
_cell_angle_beta	90.024516
_cell_angle_gamma	101.214606
loop_
_atom_site_label
_atom_site_type_symbol
_atom_site_fract_x
_atom_site_fract_y
_atom_site_fract_z
Zn1	Zn	0.907462	-0.314926	0.303750
Zn2	Zn	0.886210	-0.447113	0.177772
Zn3	Zn	0.802678	-0.314916	0.198989
Zn4	Zn	0.781497	-0.447083	0.282517
O5	O	0.844462	-0.381010	0.240757
O6	O	0.992318	-0.332478	0.287046
O7	O	0.875100	-0.429586	0.092907
O8	O	0.834336	-0.204284	0.230651
O9	O	0.976705	-0.429595	0.194490
O10	O	0.911320	-0.204292	0.307619
O11	O	0.813730	-0.332461	0.108495
O12	O	0.712193	-0.332432	0.210062
O13	O	0.798236	-0.429544	0.373013
O14	O	0.696631	-0.429534	0.271430
O15	O	0.890781	-0.332448	0.388613
O16	O	0.854562	-0.557743	0.173901
O17	O	0.777629	-0.557721	0.250856
C18	C	0.681679	-0.380979	0.240744
C19	C	0.612037	-0.380986	0.240751
C20	C	0.118347	-0.330560	0.289006
C21	C	0.183783	-0.330554	0.289007
C22	C	0.208391	-0.381034	0.240767
C23	C	0.167554	-0.431538	0.192532
C24	C	0.102118	-0.431548	0.192536
C25	C	0.311047	-0.387156	0.183318
C26	C	0.376483	-0.387140	0.183314
C27	C	0.410216	-0.381008	0.240754
C28	C	0.378508	-0.374874	0.298203
C29	C	0.313072	-0.374884	0.298207
C30	C	0.279344	-0.381029	0.240758
C31	C	0.521997	-0.330505	0.288989
C32	C	0.587434	-0.330504	0.288990
C33	C	0.571204	-0.431484	0.192511
C34	C	0.505768	-0.431488	0.192515
C35	C	0.481169	-0.380994	0.240754
C36	C	0.811508	-0.586418	0.207786
C37	C	0.797467	-0.674292	0.193701
C38	C	0.951533	-0.963023	0.347951
C39	C	0.938320	-1.045595	0.334706
C40	C	0.858210	-1.045695	0.254482
C41	C	0.871419	-0.963122	0.267718
C42	C	0.918080	-0.921793	0.314454
C43	C	0.837966	-0.921891	0.234221
C44	C	0.851171	-0.839325	0.247459
C45	C	0.897829	-0.797990	0.294194
C46	C	0.931286	-0.839227	0.327692
C47	C	0.791301	-0.963221	0.187489
C48	C	0.757848	-0.921991	0.153991
C49	C	0.771056	-0.839423	0.167226
C50	C	0.817715	-0.798088	0.213961
C51	C	0.737600	-0.798187	0.133728
C52	C	0.750806	-0.715621	0.146966
C53	C	0.830920	-0.715523	0.227199
C54	C	1.007880	-0.381041	0.240770
C55	C	1.077519	-0.381054	0.240775
C56	C	0.844516	-0.380994	0.404183
C57	C	0.844540	-0.380987	0.473825
C58	C	0.877561	-0.174800	0.273871
C59	C	0.891667	-0.086926	0.287982
C60	C	0.844453	-0.380969	0.077976
C61	C	0.844586	-0.380753	0.008370
C62	C	0.892727	-0.330427	0.514663
C63	C	0.892731	-0.330393	0.580104
C64	C	0.844553	-0.380933	0.604702
C65	C	0.796357	-0.431496	0.563856
C66	C	0.796351	-0.431523	0.498418
C67	C	0.828185	-0.452118	0.696951
C68	C	0.828196	-0.452093	0.762388
C69	C	0.844570	-0.380850	0.806537
C70	C	0.860947	-0.309630	0.785241
C71	C	0.860940	-0.309657	0.719802
C72	C	0.844555	-0.380909	0.675658
C73	C	0.892765	-0.330249	0.918333
C74	C	0.892766	-0.330213	0.983776
C75	C	0.796394	-0.431324	0.967526
C76	C	0.796391	-0.431352	0.902086
C77	C	0.844580	-0.380815	0.877493
H78	H	0.472525	-0.472603	0.153238
H79	H	0.931965	-0.289276	0.494644
H80	H	0.757129	-0.472644	0.583889
H81	H	0.932001	-0.289095	0.898310
C82	C	0.057203	-0.487091	0.139482
H83	H	0.014708	-0.479870	0.146395
H84	H	0.069771	-0.475449	0.099266
H85	H	0.059412	-0.540228	0.140062
C86	C	0.882251	-0.670052	0.278603
H87	H	0.885325	-0.614974	0.281684
H88	H	0.870905	-0.683566	0.318527
H89	H	0.922196	-0.683555	0.267300
C90	C	0.632345	-0.274957	0.342046
H91	H	0.608321	-0.244883	0.370770
H92	H	0.653030	-0.305240	0.364448
H93	H	0.663388	-0.240464	0.323649
C94	C	0.194620	-0.487062	0.139469
H95	H	0.239440	-0.479818	0.146370
H96	H	0.175385	-0.540200	0.140042
H97	H	0.185740	-0.475412	0.099255
C98	C	0.945739	-0.274778	0.625035
H99	H	0.938837	-0.281998	0.667531
H100	H	0.985976	-0.286363	0.612471
H101	H	0.945095	-0.221657	0.622830
H102	H	0.814865	-0.510084	0.779721
H103	H	0.932005	-0.289037	1.017026
H104	H	0.287257	-0.369891	0.344984
H105	H	0.989535	-0.929372	0.386004
H106	H	0.402295	-0.392130	0.136536
H107	H	0.098323	-0.289447	0.328288
H108	H	0.874273	-0.251667	0.702466
H109	H	0.405972	-0.369876	0.344977
C110	C	0.273948	-0.393900	0.120130
H111	H	0.302204	-0.397539	0.085918
H112	H	0.241074	-0.439731	0.113528
H113	H	0.255686	-0.348578	0.121960
H114	H	0.723564	-0.682051	0.119689
H115	H	0.908581	-0.730760	0.304971
H116	H	0.814687	-0.510118	0.661011
C117	C	0.982601	-0.793760	0.379113
H118	H	1.000629	-0.830139	0.397175
H119	H	1.015068	-0.761531	0.360351
H120	H	0.963749	-0.761567	0.411549
C121	C	0.975127	-1.090946	0.371551
H122	H	1.004811	-1.054504	0.401276
H123	H	0.945996	-1.123163	0.393663
H124	H	0.997292	-1.123143	0.342440
C125	C	0.879359	-0.231305	0.833788
H126	H	0.877133	-0.241499	0.875808
H127	H	0.921602	-0.206384	0.826925
H128	H	0.850809	-0.197730	0.828585
H129	H	0.757108	-0.472694	0.465167
H130	H	0.591237	-0.472592	0.153237
C131	C	0.743402	-0.486922	0.994576
H132	H	0.750309	-0.479670	1.039397
H133	H	0.703159	-0.475355	0.985692
H134	H	0.744053	-0.540048	0.975333
C135	C	0.743391	-0.486974	0.857159
H136	H	0.750284	-0.479748	0.814664
H137	H	0.744033	-0.540090	0.859367
H138	H	0.703151	-0.475385	0.869724
C139	C	0.228702	-0.275006	0.342060
H140	H	0.204680	-0.244933	0.370787
H141	H	0.249390	-0.305289	0.364459
H142	H	0.259742	-0.240512	0.323661
C143	C	0.494934	-0.274977	0.342056
H144	H	0.528622	-0.244913	0.370788
H145	H	0.474923	-0.240487	0.323675
H146	H	0.464565	-0.305283	0.364455
H147	H	0.820216	-1.079356	0.216431
H148	H	0.780545	-1.030452	0.176718
C149	C	0.706527	-0.967457	0.102583
H150	H	0.703456	-1.022535	0.099492
H151	H	0.666583	-0.953952	0.113872
H152	H	0.717889	-0.953939	0.062660
H153	H	0.699604	-0.831849	0.095680
