data_functionalizedCrystal
_audit_creation_method	'MofGen! by Chris Wilmer'
_symmetry_space_group_name_H-M	'P1'
_symmetry_Int_Tables_number	1
_symmetry_cell_setting	triclinic
loop_
_symmetry_equiv_pos_as_xyz
  x,y,z
_cell_length_a	14.560438
_cell_length_b	20.875652
_cell_length_c	20.875625
_cell_angle_alpha	64.259413
_cell_angle_beta	92.972716
_cell_angle_gamma	57.590039
loop_
_atom_site_label
_atom_site_type_symbol
_atom_site_fract_x
_atom_site_fract_y
_atom_site_fract_z
Zr1	Zr	0.843530	0.702112	-0.058407
O2	O	0.682600	0.835938	-0.155925
O3	O	0.897488	0.568290	-0.031916
O4	O	0.880873	0.702114	-0.160829
O5	O	0.707062	0.702112	0.078549
O6	O	1.032014	0.702112	-0.160826
O7	O	0.699215	0.702114	-0.027012
O8	O	1.061735	0.462725	0.069776
O9	O	0.677341	0.941498	-0.152053
O10	O	1.027709	0.623331	-0.016503
O11	O	0.920770	0.623331	0.062273
O12	O	0.901208	0.780891	-0.089506
O13	O	0.794269	0.780891	-0.010729
Zr14	Zr	1.097098	0.702106	0.109955
Zr15	Zr	1.084583	0.702109	-0.058401
Zr16	Zr	0.856045	0.702109	0.109950
Zr17	Zr	0.835142	0.870469	-0.052232
Zr18	Zr	1.105486	0.533749	0.103781
O19	O	1.043141	0.835928	0.083464
O20	O	1.025347	0.835933	-0.155917
O21	O	0.700395	0.835933	0.083457
O22	O	1.258028	0.568281	0.207474
O23	O	1.240234	0.568285	-0.031908
O24	O	0.915282	0.568285	0.207466
O25	O	1.233567	0.702107	-0.027000
O26	O	1.059756	0.702105	0.212378
O27	O	0.908615	0.702107	0.212374
O28	O	1.241413	0.702105	0.078561
O29	O	0.868946	0.941496	-0.152049
O30	O	1.071683	0.462723	0.203598
O31	O	1.263288	0.462720	0.203602
O32	O	1.253340	0.462723	0.069781
O33	O	0.687288	0.941496	-0.018232
O34	O	0.878893	0.941493	-0.018228
O35	O	1.039421	0.623328	0.141054
O36	O	1.146360	0.623328	0.062278
O37	O	1.019859	0.780888	-0.010724
O38	O	0.912920	0.780888	0.068052
C39	C	0.980807	0.491520	0.018051
C40	C	0.984368	0.420049	0.015429
C41	C	1.010406	0.017750	-0.003769
C42	C	1.007053	0.084907	-0.001303
C43	C	0.949562	0.118478	0.041055
C44	C	0.895410	0.084894	0.080944
C45	C	0.898756	0.017743	0.078474
C46	C	0.933562	0.319314	0.052848
C47	C	0.930223	0.386468	0.055317
C48	C	1.041864	0.386477	-0.026932
C49	C	1.045211	0.319321	-0.029394
C50	C	0.991055	0.285747	0.010491
N51	N	0.946137	0.187121	0.043578
N52	N	0.994473	0.217110	0.007964
C53	C	0.668794	0.702113	0.025768
C54	C	0.566461	0.702115	0.025765
C55	C	0.514054	0.702117	-0.032388
C56	C	0.417910	0.702109	-0.032377
C57	C	0.426584	0.702099	0.083942
C58	C	0.522731	0.702101	0.083934
C59	C	0.557784	0.702131	-0.090556
C60	C	0.505376	0.702134	-0.148714
C61	C	0.409232	0.702126	-0.148704
C62	C	0.365494	0.702114	-0.090536
C63	C	1.271835	0.702105	0.025781
C64	C	1.374168	0.702104	0.025783
C65	C	0.954660	0.702113	-0.184814
C66	C	0.949347	0.702115	-0.256286
C67	C	0.959822	0.912698	0.033498
C68	C	0.956261	0.984170	0.036119
C69	C	1.030116	0.702115	-0.289862
C70	C	1.025127	0.702108	-0.357014
C71	C	0.939365	0.702108	-0.390592
C72	C	0.858592	0.702104	-0.357010
C73	C	0.863587	0.702105	-0.289857
C74	C	0.915503	0.702101	-0.591430
C75	C	0.910513	0.702103	-0.658589
C76	C	1.077050	0.702106	-0.658588
C77	C	1.082032	0.702111	-0.591435
C78	C	1.001264	0.702103	-0.557857
N79	N	0.934261	0.702104	-0.459233
N80	N	1.006374	0.702101	-0.489214
C81	C	0.985968	0.702105	0.236363
C82	C	0.991281	0.702104	0.307835
C83	C	1.282327	0.491516	0.018057
C84	C	1.388222	0.420043	0.015438
C85	C	0.996461	0.491516	0.228639
C86	C	1.005335	0.420043	0.297490
C87	C	1.297981	0.491512	0.228646
C88	C	1.409188	0.420038	0.297499
C89	C	0.642647	0.912706	-0.177097
C90	C	0.531440	0.984181	-0.245950
C91	C	0.658301	0.912702	0.033491
C92	C	0.552407	0.984175	0.036110
C93	C	0.944168	0.912702	-0.177091
C94	C	0.935294	0.984175	-0.245941
C95	C	1.376016	0.386480	-0.026922
C96	C	1.475504	0.319333	-0.029398
C97	C	1.587197	0.285745	0.010491
C98	C	1.599401	0.319315	0.052852
C99	C	1.499913	0.386465	0.055323
C100	C	1.071437	0.386477	0.370953
C101	C	1.079771	0.319330	0.435652
C102	C	1.022008	0.285745	0.426886
C103	C	0.955897	0.319318	0.353416
C104	C	0.947558	0.386469	0.288718
C105	C	1.517244	0.386473	0.288713
C106	C	1.621743	0.319324	0.353401
C107	C	1.618184	0.285737	0.426875
C108	C	1.510117	0.319309	0.435660
C109	C	1.405621	0.386461	0.370972
C110	C	0.423385	1.017754	-0.237164
C111	C	0.318884	1.084923	-0.301851
C112	C	0.322443	1.118514	-0.375325
C113	C	0.430510	1.084938	-0.384110
C114	C	0.535007	1.017774	-0.319423
C115	C	0.564612	1.017745	0.078464
C116	C	0.465122	1.084911	0.080922
C117	C	0.353428	1.118501	0.041031
C118	C	0.341225	1.084928	-0.001327
C119	C	0.440713	1.017768	-0.003790
C120	C	0.993071	1.017739	-0.237151
C121	C	0.984756	1.084886	-0.301838
C122	C	0.918657	1.118474	-0.375313
C123	C	0.860878	1.084904	-0.384102
C124	C	0.869201	1.017753	-0.319416
H125	H	0.848594	0.112236	0.115430
H126	H	0.854663	-0.009595	0.110954
O127	O	0.813229	0.985028	-0.327912
C128	C	0.896156	0.890920	-0.294963
H129	H	0.986027	0.872498	-0.292536
H130	H	0.900596	0.852530	-0.234428
C131	C	0.748961	0.887491	-0.347001
C132	C	0.859340	0.864866	-0.344026
H133	H	0.726250	0.871417	-0.377262
H134	H	0.693090	0.950893	-0.369197
H135	H	0.752675	0.855497	-0.296552
H136	H	0.855621	0.896868	-0.394473
H137	H	0.915210	0.801469	-0.321839
H138	H	0.797818	0.702103	-0.262519
O139	O	0.547976	0.702181	-0.205174
C140	C	0.644091	0.702165	-0.192705
H141	H	0.638011	0.730730	-0.155961
H142	H	0.729292	0.629782	-0.161927
C143	C	0.649671	0.726256	-0.315428
C144	C	0.642197	0.761347	-0.270303
H145	H	0.648507	0.762758	-0.363293
H146	H	0.584919	0.726263	-0.323828
H147	H	0.720672	0.665937	-0.289770
H148	H	0.571191	0.821659	-0.295956
H149	H	0.706937	0.761351	-0.261909
O150	O	0.358431	0.702165	-0.205269
C151	C	0.417670	0.702153	-0.256596
H152	H	0.464540	0.730720	-0.252785
H153	H	0.484683	0.629771	-0.240945
C154	C	0.270973	0.726240	-0.343634
C155	C	0.328531	0.761334	-0.338958
H156	H	0.215990	0.762742	-0.394438
H157	H	0.231064	0.726245	-0.309053
H158	H	0.326829	0.665922	-0.330587
H159	H	0.272677	0.821646	-0.351995
H160	H	0.368428	0.761341	-0.373543
O161	O	0.883348	0.418935	0.217411
C162	C	0.834140	0.374901	0.223559
H163	H	0.888171	0.306842	0.280999
H164	H	0.740146	0.418944	0.219665
C165	C	0.768013	0.442831	0.087395
C166	C	0.834380	0.359237	0.157941
H167	H	0.768155	0.433172	0.046917
H168	H	0.801161	0.472502	0.083252
H169	H	0.689691	0.479526	0.084160
H170	H	0.912703	0.322548	0.161178
H171	H	0.801245	0.329560	0.162083
H172	H	0.565402	0.702097	0.131288
H173	H	1.520163	0.413809	0.228892
H174	H	1.465544	0.292008	-0.063893
O175	O	1.066262	-0.014731	-0.044979
C176	C	1.113355	0.029297	-0.079641
H177	H	1.063176	0.097362	-0.085281
H178	H	1.209803	-0.014745	-0.042718
C179	C	1.163929	-0.038659	-0.152835
C180	C	1.102290	0.044943	-0.159768
H181	H	1.157109	-0.029011	-0.202260
H182	H	1.132205	-0.068324	-0.129481
H183	H	1.244296	-0.075352	-0.122063
H184	H	1.021922	0.081630	-0.190532
H185	H	1.134001	0.074616	-0.183130
H186	H	1.151867	0.702112	-0.564098
O187	O	0.419973	0.984997	-0.165785
C188	C	0.479834	0.890895	-0.127916
H189	H	0.481946	0.872507	-0.172159
H190	H	0.573400	0.852483	-0.089471
C191	C	0.413383	0.887414	-0.024376
C192	C	0.415968	0.864831	-0.078717
H193	H	0.373992	0.871334	0.005975
H194	H	0.373057	0.950812	-0.049888
H195	H	0.491359	0.855402	0.007653
H196	H	0.337994	0.896851	-0.110750
H197	H	0.456280	0.801437	-0.053209
O198	O	0.476915	1.117649	0.121960
C199	C	0.416210	1.211751	0.072634
H200	H	0.406248	1.230147	0.011350
H201	H	0.325716	1.250165	0.075485
C202	C	0.497834	1.215210	0.172960
C203	C	0.485608	1.237803	0.097690
H204	H	0.540638	1.231282	0.188416
H205	H	0.538729	1.151812	0.206192
H206	H	0.422417	1.247223	0.175326
H207	H	0.561024	1.205781	0.095327
H208	H	0.444727	1.301196	0.064457
H209	H	1.031806	1.112212	-0.294666
H210	H	0.911889	1.173153	-0.427978
O211	O	1.059465	0.117665	-0.040139
C212	C	0.974908	0.211771	-0.094389
H213	H	0.884147	0.230157	-0.109010
H214	H	0.976807	0.250168	-0.069433
C215	C	1.114055	0.215277	-0.149652
C216	C	1.002582	0.237859	-0.167614
H217	H	1.131128	0.231372	-0.194820
H218	H	1.171025	0.151877	-0.113101
H219	H	1.115624	0.247277	-0.128853
H220	H	1.001020	0.205851	-0.188403
H221	H	0.945613	0.301255	-0.204171
H222	H	0.889468	0.291984	0.085329
H223	H	0.622988	0.990439	-0.326587
H224	H	1.099949	0.702121	-0.262530
H225	H	0.807060	1.112262	-0.443934
O226	O	0.383921	0.702256	0.140347
C227	C	0.265816	0.780388	0.107622
H228	H	0.248484	0.835004	0.049312
H229	H	0.205966	0.762721	0.100186
C230	C	0.262350	0.748739	0.232301
C231	C	0.241066	0.815823	0.160687
H232	H	0.247080	0.770596	0.265035
H233	H	0.341919	0.696099	0.254350
H234	H	0.212473	0.734024	0.226095
H235	H	0.290952	0.830530	0.166894
H236	H	0.161504	0.868468	0.138641
O237	O	1.103687	0.701955	-0.389583
C238	C	1.168516	0.623823	-0.392236
H239	H	1.166626	0.569202	-0.346694
H240	H	1.128185	0.641486	-0.451317
C241	C	1.298687	0.655488	-0.432784
C242	C	1.296374	0.588398	-0.376843
H243	H	1.377554	0.633637	-0.423293
H244	H	1.255008	0.708128	-0.430999
H245	H	1.265072	0.670201	-0.482013
H246	H	1.329975	0.573694	-0.327617
H247	H	1.340061	0.535754	-0.378619
O248	O	1.707994	0.286551	0.091585
C249	C	1.793171	0.220099	0.080301
H250	H	1.756009	0.190752	0.064069
H251	H	1.817991	0.252224	0.032248
C252	C	1.948530	0.179802	0.174751
C253	C	1.902890	0.143752	0.154821
H254	H	2.016212	0.132709	0.220716
H255	H	1.891145	0.224574	0.182351
H256	H	1.969204	0.206572	0.134700
H257	H	1.882204	0.116993	0.194866
H258	H	1.960274	0.098973	0.147229
H259	H	0.636067	0.702140	-0.090571
H260	H	1.092025	0.291990	-0.063886
H261	H	0.250270	1.112288	-0.033805
O262	O	1.030160	0.220425	0.489676
C263	C	1.080874	0.142718	0.486729
H264	H	1.067188	0.162988	0.424763
H265	H	1.178834	0.092122	0.522778
C266	C	1.039243	0.073904	0.594629
C267	C	1.022424	0.098802	0.518519
H268	H	1.003193	0.046811	0.614241
H269	H	1.005080	0.126256	0.596617
H270	H	1.120878	0.031745	0.624660
H271	H	0.940792	0.140969	0.488488
H272	H	1.056573	0.046456	0.516527
H273	H	1.133608	0.292003	0.495469
H274	H	1.285077	0.413827	-0.059414
H275	H	1.085955	0.413821	-0.059406
O276	O	0.827166	0.702049	-0.691083
C277	C	0.756935	0.702058	-0.647055
H278	H	0.807835	0.673500	-0.585952
H279	H	0.673734	0.774438	-0.673453
C280	C	0.661335	0.677946	-0.720891
C281	C	0.723855	0.642864	-0.645841
H282	H	0.640925	0.641436	-0.720144
H283	H	0.708648	0.677943	-0.750556
H284	H	0.592008	0.738262	-0.742881
H285	H	0.793187	0.582553	-0.623856
H286	H	0.676553	0.642855	-0.616172
O287	O	1.511992	0.418929	0.096546
C288	C	1.631910	0.374892	0.131205
H289	H	1.687165	0.306834	0.136832
H290	H	1.655183	0.418934	0.094286
C291	C	1.588961	0.442819	0.204422
C292	C	1.656825	0.359225	0.211339
H293	H	1.604330	0.433158	0.253851
H294	H	1.508169	0.472491	0.181070
H295	H	1.608362	0.479513	0.173653
H296	H	1.637413	0.322538	0.242099
H297	H	1.737615	0.329547	0.234699
H298	H	0.883393	0.413807	0.089805
H299	H	0.287214	0.702098	-0.090528
O300	O	0.775324	0.702143	-0.389743
C301	C	0.788249	0.702124	-0.456206
H302	H	0.836194	0.730688	-0.478613
H303	H	0.841000	0.629739	-0.441726
C304	C	0.607454	0.726212	-0.490577
C305	C	0.666333	0.761303	-0.518102
H306	H	0.532252	0.762713	-0.528756
H307	H	0.598748	0.726222	-0.445798
H308	H	0.651426	0.665893	-0.478510
H309	H	0.622368	0.821617	-0.530158
H310	H	0.675029	0.761305	-0.562884
H311	H	1.142809	0.702111	-0.685932
H312	H	1.668197	0.231066	0.008473
O313	O	1.127570	0.419032	0.379616
C314	C	1.187708	0.374986	0.458336
H315	H	1.145570	0.347307	0.493128
H316	H	1.283480	0.316666	0.475993
C317	C	1.232702	0.477041	0.430740
C318	C	1.180941	0.443052	0.473473
H319	H	1.228533	0.519025	0.440078
H320	H	1.192190	0.506713	0.377705
H321	H	1.312508	0.428433	0.445459
H322	H	1.101133	0.491658	0.458746
H323	H	1.221439	0.413389	0.526506
O324	O	1.506882	0.286546	0.507089
C325	C	1.622291	0.220092	0.562291
H326	H	1.685525	0.190745	0.535026
H327	H	1.646747	0.252215	0.584479
C328	C	1.552238	0.179796	0.662935
C329	C	1.629902	0.143746	0.629450
H330	H	1.556933	0.132704	0.704364
H331	H	1.474484	0.224570	0.625745
H332	H	1.572627	0.206565	0.681418
H333	H	1.609503	0.116988	0.610958
H334	H	1.707653	0.098966	0.666638
H335	H	0.430760	0.990437	-0.038276
H336	H	0.849737	0.702097	-0.564097
O337	O	1.300557	0.419183	0.379378
C338	C	1.209076	0.485638	0.306534
H339	H	1.241743	0.515029	0.263085
H340	H	1.179340	0.453503	0.288254
C341	C	1.065066	0.525840	0.363712
C342	C	1.105186	0.561943	0.310349
H343	H	1.000978	0.572907	0.366064
H344	H	1.126697	0.481066	0.412788
H345	H	1.040294	0.499061	0.348472
H346	H	1.129970	0.588711	0.325594
H347	H	1.043555	0.606724	0.261274
H348	H	0.908870	0.291963	0.346290
O349	O	0.213885	1.117667	-0.293342
C350	C	0.147334	1.211768	-0.326273
H351	H	0.208570	1.230155	-0.328699
H352	H	0.083742	1.250187	-0.386805
C353	C	0.002606	1.215239	-0.274215
C354	C	0.077819	1.237821	-0.277189
H355	H	-0.040278	1.231312	-0.243941
H356	H	0.047440	1.151842	-0.252031
H357	H	-0.050375	1.247257	-0.324662
H358	H	0.130808	1.205795	-0.226744
H359	H	0.032992	1.301213	-0.299363
H360	H	1.709725	0.291997	0.346234
H361	H	1.703281	0.231058	0.479541
O362	O	0.433748	1.117638	-0.455541
C363	C	0.318337	1.184128	-0.510742
H364	H	0.257114	1.173095	-0.484959
H365	H	0.288783	1.254369	-0.529174
C366	C	0.390089	1.190329	-0.612637
C367	C	0.314895	1.176773	-0.580972
H368	H	0.387964	1.185796	-0.655961
H369	H	0.467844	1.145536	-0.575448
H370	H	0.365451	1.248863	-0.627991
H371	H	0.339542	1.118237	-0.565611
H372	H	0.237144	1.221557	-0.618161
O373	O	0.673015	0.985250	0.117235
C374	C	0.662431	1.029279	0.155154
H375	H	0.570840	1.097350	0.125389
H376	H	0.677241	0.985243	0.217367
C377	C	0.867078	0.961301	0.189301
C378	C	0.754588	1.044910	0.152739
H379	H	0.923928	0.970939	0.187815
H380	H	0.874211	0.931635	0.163757
H381	H	0.879404	0.924613	0.241141
H382	H	0.742259	1.081592	0.100898
H383	H	0.747456	1.074582	0.178275
H384	H	0.237345	1.173202	-0.427991
H385	H	0.272427	1.173187	0.043043
H386	H	1.046896	0.990402	-0.177329
