data_functionalizedCrystal
_audit_creation_method	'MofGen! by Chris Wilmer'
_symmetry_space_group_name_H-M	'P1'
_symmetry_Int_Tables_number	1
_symmetry_cell_setting	triclinic
loop_
_symmetry_equiv_pos_as_xyz
  x,y,z
_cell_length_a	23.532355
_cell_length_b	23.532357
_cell_length_c	14.472310
_cell_angle_alpha	89.993352
_cell_angle_beta	89.992822
_cell_angle_gamma	82.827896
loop_
_atom_site_label
_atom_site_type_symbol
_atom_site_fract_x
_atom_site_fract_y
_atom_site_fract_z
O1	O	0.755274	0.068992	-0.076726
O2	O	0.589404	0.079026	-0.076757
O3	O	0.677356	-0.008926	-0.076722
O4	O	0.667323	0.156944	-0.076762
O5	O	0.677333	-0.008920	0.076960
O6	O	0.589382	0.079031	0.076925
O7	O	0.755251	0.068997	0.076956
Cu8	Cu	0.672315	0.074015	0.090973
Cu9	Cu	0.672341	0.074009	-0.090774
O10	O	0.667300	0.156949	0.076920
C11	C	0.568177	0.078778	0.000080
C12	C	0.504958	0.078024	0.000069
C13	C	0.677094	-0.030140	0.000122
C14	C	0.676339	-0.093358	0.000131
C15	C	0.112933	0.073289	0.083881
C16	C	0.053534	0.072571	0.083885
O17	O	0.022805	0.072183	0.155129
N18	N	0.023837	0.072212	0.000113
C19	C	0.053544	0.072566	-0.083668
O20	O	0.022831	0.072194	-0.154922
C21	C	0.112943	0.073279	-0.083671
C22	C	0.142635	0.073643	0.000107
C23	C	0.142625	0.073652	0.167651
C24	C	0.202020	0.074371	0.167647
C25	C	0.231723	0.074725	0.083873
C26	C	0.202031	0.074362	0.000102
C27	C	0.142650	0.073628	-0.167451
C28	C	0.202053	0.074341	-0.167446
C29	C	0.231745	0.074705	-0.083669
C30	C	0.291128	0.075435	-0.083676
N31	N	0.320824	0.075794	0.000096
C32	C	0.291122	0.075439	0.083870
C33	C	-0.071197	0.071066	-0.083656
C34	C	-0.130595	0.070357	-0.083654
C35	C	-0.130602	0.070362	0.083899
C36	C	-0.071203	0.071075	0.083896
C37	C	-0.041501	0.071425	0.000116
C38	C	0.415856	0.076948	0.083855
C39	C	0.475255	0.077669	0.083844
C40	C	0.475257	0.077662	-0.083709
C41	C	0.415862	0.076944	-0.083698
C42	C	0.386163	0.076585	0.000092
O43	O	0.321895	0.075821	-0.154884
O44	O	0.321843	0.075803	0.155112
C45	C	0.671614	-0.485371	-0.083692
C46	C	0.670897	-0.544771	-0.083698
O47	O	0.670517	-0.575489	-0.154943
N48	N	0.670529	-0.574479	0.000073
C49	C	0.670873	-0.544784	0.083855
O50	O	0.670493	-0.575507	0.155108
C51	C	0.671586	-0.485385	0.083859
C52	C	0.671960	-0.455681	0.000083
C53	C	0.671988	-0.455667	-0.167462
C54	C	0.672706	-0.396272	-0.167456
C55	C	0.673051	-0.366581	-0.083681
C56	C	0.672678	-0.396286	0.000089
C57	C	0.671925	-0.455691	0.167640
C58	C	0.672638	-0.396288	0.167637
C59	C	0.673012	-0.366583	0.083861
C60	C	0.673741	-0.307200	0.083870
N61	N	0.674109	-0.277492	0.000099
C62	C	0.673764	-0.307182	-0.083676
C63	C	0.669374	-0.669525	0.083839
C64	C	0.668665	-0.728923	0.083836
C65	C	0.668688	-0.728906	-0.083717
C66	C	0.669402	-0.669507	-0.083713
C67	C	0.669742	-0.639817	0.000068
C68	C	0.675273	-0.182448	-0.083658
C69	C	0.675994	-0.123048	-0.083645
C70	C	0.675967	-0.123071	0.083908
C71	C	0.675250	-0.182466	0.083895
C72	C	0.674901	-0.212153	0.000105
O73	O	0.674119	-0.276443	0.155078
O74	O	0.674136	-0.276451	-0.154918
C75	C	0.776479	0.069245	0.000116
C76	C	0.839698	0.069999	0.000121
C77	C	0.667562	0.178163	0.000074
C78	C	0.668317	0.241381	0.000060
N79	N	0.672300	0.074019	0.218803
N80	N	0.672360	0.074000	-0.218605
C81	C	0.672340	0.074006	0.592895
C82	C	0.625123	0.120912	0.553710
C83	C	0.625231	0.121081	0.446622
C84	C	0.672320	0.074012	0.407304
C85	C	0.731670	0.086645	0.446148
C86	C	0.731404	0.086978	0.553270
C87	C	0.660739	0.014327	0.553436
C88	C	0.659373	0.014734	0.446308
C89	C	0.672312	0.074015	0.302416
C90	C	0.672352	0.074005	0.697783
H91	H	0.391681	0.076661	0.152084
H92	H	0.391684	0.076656	-0.151916
H93	H	0.618419	0.002094	0.580499
H94	H	0.499428	0.077968	0.152068
O95	O	0.634750	0.179255	0.589339
H96	H	0.601190	0.212045	0.561269
H97	H	0.672907	-0.372116	0.235864
H98	H	0.741681	0.130490	0.578237
H99	H	0.632603	0.165375	0.420979
O100	O	0.674858	-0.214502	0.174259
H101	H	0.713357	-0.246869	0.178275
O102	O	0.676339	-0.091043	0.174264
H103	H	0.676894	-0.044749	0.160185
O104	O	0.234041	0.074776	0.258007
H105	H	0.203400	0.074410	0.316253
H106	H	0.581104	0.113606	0.420360
H107	H	0.580853	0.113565	0.579492
H108	H	0.767631	0.053375	0.420679
O109	O	-0.162608	0.069966	-0.174022
H110	H	-0.194975	0.108464	-0.178059
H111	H	0.118448	0.073362	0.235874
O112	O	0.779320	0.043429	0.587616
H113	H	0.802582	0.022227	0.527711
H114	H	-0.047031	0.071372	0.152115
O115	O	-0.162660	0.070102	0.174261
H116	H	-0.208956	0.069585	0.160181
H117	H	0.742201	0.129659	0.419303
H118	H	0.615717	0.005139	0.420920
H119	H	0.691557	-0.021779	0.419548
O120	O	0.671602	-0.487678	-0.257833
H121	H	0.710568	-0.481578	-0.297996
H122	H	-0.047018	0.071357	-0.151884
H123	H	0.695176	-0.020574	0.578776
H124	H	0.226233	0.074626	-0.235672
O125	O	0.110637	0.073205	-0.257811
H126	H	0.141281	0.073555	-0.316055
H127	H	0.669705	-0.645325	-0.151931
H128	H	0.499452	0.077953	-0.151916
H129	H	0.668405	-0.753090	-0.151932
H130	H	0.674986	-0.206612	-0.151888
O131	O	0.676388	-0.091011	-0.174009
H132	H	0.715075	-0.107720	-0.214181
O133	O	0.673094	-0.364234	-0.257815
H134	H	0.672724	-0.394865	-0.316062
H135	H	0.668369	-0.753105	0.152055
H136	H	0.671622	-0.479866	0.235860
O137	O	0.669757	-0.637505	0.174208
H138	H	0.669388	-0.668147	0.232451
