data_functionalizedCrystal
_audit_creation_method	'MofGen! by Chris Wilmer'
_symmetry_space_group_name_H-M	'P1'
_symmetry_Int_Tables_number	1
_symmetry_cell_setting	triclinic
loop_
_symmetry_equiv_pos_as_xyz
  x,y,z
_cell_length_a	14.853567
_cell_length_b	9.065218
_cell_length_c	8.140239
_cell_angle_alpha	90.001686
_cell_angle_beta	90.000249
_cell_angle_gamma	95.674592
loop_
_atom_site_label
_atom_site_type_symbol
_atom_site_fract_x
_atom_site_fract_y
_atom_site_fract_z
O1	O	1.197788	-0.192614	-0.136493
O2	O	0.935498	-0.215559	-0.136521
O3	O	1.072065	0.010663	-0.136503
O4	O	1.061222	-0.418836	-0.136511
O5	O	1.072057	0.010666	0.136724
O6	O	0.935491	-0.215556	0.136706
O7	O	1.197780	-0.192611	0.136734
Zn8	Zn	1.066634	-0.204083	0.180101
Zn9	Zn	1.066644	-0.204087	-0.179888
O10	O	1.061214	-0.418834	0.136716
C11	C	0.901898	-0.214518	0.000089
C12	C	0.801791	-0.211403	0.000079
C13	C	1.071019	0.065631	0.000108
C14	C	1.067903	0.229412	0.000100
N15	N	1.066634	-0.204080	0.425783
C16	C	0.388166	-0.063852	0.000118
C17	C	0.368873	-0.332609	0.000112
C18	C	0.462929	-0.335539	0.000106
C19	C	0.519607	-0.202622	0.000104
C20	C	0.482230	-0.066777	0.000108
C21	C	0.500313	-0.471382	0.000086
C22	C	0.594374	-0.474316	0.000079
C23	C	0.651054	-0.341399	0.000089
C24	C	0.613672	-0.205548	0.000094
C25	C	0.670350	-0.072632	0.000092
C26	C	0.632969	0.063221	0.000109
C27	C	0.538910	0.066141	0.000118
C28	C	0.745113	-0.344319	0.000081
C29	C	0.764414	-0.075557	0.000082
C30	C	1.231381	-0.193652	0.000120
C31	C	1.331487	-0.196768	0.000120
C32	C	1.062260	-0.473801	0.000102
C33	C	1.065376	-0.637582	0.000099
N34	N	1.066652	-0.204078	-0.425570
H35	H	0.810556	0.032681	0.000087
Cl36	Cl	0.704232	0.230308	0.000094
H37	H	0.775544	-0.454927	0.000070
H38	H	0.508466	0.176745	0.000171
Cl39	Cl	0.641359	-0.645098	0.000063
Cl40	Cl	0.297621	-0.499694	0.000092
Cl41	Cl	0.429058	-0.638464	0.000061
Cl42	Cl	0.341175	0.106925	0.000147
