data_functionalizedCrystal
_audit_creation_method	'MofGen! by Chris Wilmer'
_symmetry_space_group_name_H-M	'P1'
_symmetry_Int_Tables_number	1
_symmetry_cell_setting	triclinic
loop_
_symmetry_equiv_pos_as_xyz
  x,y,z
_cell_length_a	10.489741
_cell_length_b	19.288864
_cell_length_c	17.766277
_cell_angle_alpha	90.023209
_cell_angle_beta	89.993969
_cell_angle_gamma	96.162290
loop_
_atom_site_label
_atom_site_type_symbol
_atom_site_fract_x
_atom_site_fract_y
_atom_site_fract_z
O1	O	0.159110	-0.922420	-0.062835
O2	O	0.180573	-0.720303	-0.062784
O3	O	-0.015860	-0.825961	-0.062806
O4	O	0.355544	-0.816763	-0.062813
O5	O	-0.015870	-0.825942	0.062382
O6	O	0.180564	-0.720285	0.062405
O7	O	0.159100	-0.922401	0.062353
Cu8	Cu	0.169831	-0.821341	0.073810
Cu9	Cu	0.169843	-0.821363	-0.074240
O10	O	0.355534	-0.816744	0.062375
C11	C	0.179878	-0.694413	-0.000183
C12	C	0.177805	-0.617295	-0.000163
C13	C	-0.063381	-0.825257	-0.000212
C14	C	-0.204964	-0.823178	-0.000213
C15	C	0.159796	-0.948292	-0.000249
C16	C	0.161869	-1.025409	-0.000274
C17	C	-0.271583	-0.755951	-0.000202
C18	C	-0.364429	-0.787699	0.061515
C19	C	-0.364394	-0.787734	-0.061911
C20	C	-0.295944	-0.854954	0.061554
C21	C	-0.295900	-0.854979	-0.061927
C22	C	-0.388719	-0.886776	-0.000196
C23	C	0.403055	-0.817448	-0.000220
C24	C	0.544637	-0.819526	-0.000224
N25	N	0.169822	-0.821331	0.177940
C26	C	0.293063	-0.573372	-0.000177
C27	C	0.291115	-0.500912	-0.000186
C28	C	0.173903	-0.472378	-0.000195
C29	C	0.058629	-0.516311	-0.000177
C30	C	0.060580	-0.588770	-0.000161
C31	C	0.081764	-0.363505	-0.044078
C32	C	0.079818	-0.291047	-0.044098
C33	C	0.167880	-0.248892	-0.000240
C34	C	0.257911	-0.279202	0.043628
C35	C	0.259862	-0.351661	0.043644
C36	C	0.171774	-0.393810	-0.000212
C37	C	0.281035	-0.126399	-0.000262
C38	C	0.279082	-0.053938	-0.000266
C39	C	0.046593	-0.069339	-0.000265
C40	C	0.048549	-0.141798	-0.000254
C41	C	0.165773	-0.170324	-0.000256
N42	N	0.169842	-0.821379	-0.178371
C43	C	0.082883	-0.868131	0.217317
C44	C	0.082878	-0.868135	0.296119
C45	C	0.169832	-0.821345	0.335540
C46	C	0.256777	-0.774536	0.296154
C47	C	0.256772	-0.774528	0.217354
C48	C	0.286045	-0.812826	0.460378
C49	C	0.286051	-0.812838	0.539177
C50	C	0.169847	-0.821364	0.578587
C51	C	0.053631	-0.829892	0.539188
C52	C	0.053626	-0.829885	0.460388
C53	C	0.169847	-0.821348	0.420986
C54	C	0.082895	-0.868171	0.703410
C55	C	0.082888	-0.868171	0.782213
C56	C	0.256798	-0.774575	0.782247
C57	C	0.256795	-0.774572	0.703445
C58	C	0.169845	-0.821374	0.664031
H59	H	-0.220682	-0.700678	-0.000125
H60	H	0.388516	-0.596592	-0.000181
H61	H	0.384976	-0.465143	-0.000195
Br62	Br	0.382036	-0.392795	0.103178
Br63	Br	0.435519	0.005675	-0.000278
H64	H	0.012079	-0.906247	0.328185
H65	H	0.329619	-0.244881	0.079342
H66	H	-0.033280	-0.624533	-0.000150
H67	H	-0.394710	-0.759288	-0.114092
H68	H	0.376486	-0.149625	-0.000253
H69	H	-0.048844	-0.046108	-0.000319
H70	H	-0.045307	-0.177562	-0.000246
Br71	Br	-0.042348	-0.249919	-0.103644
Br72	Br	-0.037764	-0.420709	-0.103602
H73	H	0.327593	-0.736475	0.814343
H74	H	-0.265759	-0.883366	0.113789
H75	H	-0.041001	-0.836827	0.428313
H76	H	-0.036806	-0.493075	-0.000195
H77	H	-0.439394	-0.942099	-0.000176
Br78	Br	-0.035121	-0.931644	0.163826
Br79	Br	0.443770	-0.801272	0.592638
H80	H	-0.040993	-0.836835	0.571274
H81	H	0.012091	-0.906279	0.671318
H82	H	0.327593	-0.736465	0.671382
H83	H	0.012085	-0.906279	0.814274
H84	H	-0.394801	-0.759246	0.113706
H85	H	0.327569	-0.736417	0.185292
H86	H	0.380678	-0.805871	0.428297
H87	H	0.327575	-0.736438	0.328255
H88	H	-0.265494	-0.883408	-0.114121
