data_functionalizedCrystal
_audit_creation_method	'MofGen! by Chris Wilmer'
_symmetry_space_group_name_H-M	'P1'
_symmetry_Int_Tables_number	1
_symmetry_cell_setting	triclinic
loop_
_symmetry_equiv_pos_as_xyz
  x,y,z
_cell_length_a	8.634740
_cell_length_b	7.681481
_cell_length_c	14.971486
_cell_angle_alpha	95.749252
_cell_angle_beta	87.907782
_cell_angle_gamma	96.617607
loop_
_atom_site_label
_atom_site_type_symbol
_atom_site_fract_x
_atom_site_fract_y
_atom_site_fract_z
O1	O	-2.032026	0.146485	0.298888
O2	O	-1.583030	0.146476	0.274429
O3	O	-1.819564	0.146468	0.157488
O4	O	-1.795493	0.146493	0.415830
O5	O	-1.848677	-0.146391	0.143056
O6	O	-1.612143	-0.146382	0.259998
O7	O	-2.061140	-0.146374	0.284456
Zn8	Zn	-1.841264	-0.192876	0.269935
Zn9	Zn	-1.802906	0.192978	0.288950
O10	O	-1.824606	-0.146366	0.401398
C11	C	-1.540126	0.000046	0.261673
C12	C	-1.368913	0.000042	0.245153
N13	N	-1.867453	-0.456211	0.256959
C14	C	-1.833044	0.000039	0.116855
C15	C	-1.829818	0.000041	0.017282
C16	C	-1.104043	0.000055	0.297212
C17	C	-1.275257	0.000054	0.313732
N18	N	-1.776728	0.456313	0.301920
C19	C	-1.968775	0.000042	-0.028054
C20	C	-1.965733	0.000060	-0.121613
C21	C	-1.823734	0.000064	-0.169834
C22	C	-1.684767	0.000068	-0.124492
C23	C	-1.687809	0.000062	-0.030934
C24	C	-1.678436	0.000074	-0.319496
C25	C	-1.675394	0.000076	-0.413060
C26	C	-1.956360	0.000071	-0.410174
C27	C	-1.959402	0.000066	-0.316617
C28	C	-1.820434	0.000067	-0.271281
C29	C	-1.811125	0.000067	0.442031
C30	C	-1.814350	0.000077	0.541604
H31	H	-1.318100	0.000085	0.173798
O32	O	-1.537314	0.000185	-0.459762
C33	C	-1.415311	0.000165	-0.399689
H34	H	-1.453154	0.055590	-0.329839
H35	H	-1.307748	0.085218	-0.423536
H36	H	-1.386375	-0.140325	-0.397115
O37	O	-1.552702	0.000293	0.013021
C38	C	-1.451440	0.151993	-0.003220
H39	H	-1.484149	0.202557	-0.068248
H40	H	-1.326210	0.117886	-0.009418
H41	H	-1.462075	0.258201	0.054871
H42	H	-1.326060	0.000046	0.385084
H43	H	-1.684117	-0.468487	0.347812
H44	H	-2.069513	0.000076	-0.447091
O45	O	-1.977867	-0.545730	0.202090
C46	C	-1.947961	-0.500859	0.113568
H47	H	-1.875287	-0.366970	0.115126
H48	H	-2.063108	-0.494718	0.079742
H49	H	-1.881307	-0.604601	0.074256
O50	O	-2.106595	0.000275	0.018895
C51	C	-2.101694	0.151969	0.080563
H52	H	-1.975153	0.202529	0.095822
H53	H	-2.166682	0.117856	0.145280
H54	H	-2.159285	0.258182	0.050454
H55	H	-2.078886	0.000057	-0.158521
O56	O	-2.097464	0.000133	-0.269906
C57	C	-2.219473	0.000090	-0.329982
H58	H	-2.170622	0.055541	-0.394362
H59	H	-2.310151	0.085110	-0.297745
H60	H	-2.276308	-0.140410	-0.346417
H61	H	-1.569148	0.000082	-0.163761
O62	O	-1.543568	-0.000162	-0.275368
C63	C	-1.551986	-0.151863	-0.228837
H64	H	-1.679439	-0.202424	-0.216063
H65	H	-1.491275	-0.117759	-0.161974
H66	H	-1.492051	-0.258072	-0.270843
