data_functionalizedCrystal
_audit_creation_method	'MofGen! by Chris Wilmer'
_symmetry_space_group_name_H-M	'P1'
_symmetry_Int_Tables_number	1
_symmetry_cell_setting	triclinic
loop_
_symmetry_equiv_pos_as_xyz
  x,y,z
_cell_length_a	21.295420
_cell_length_b	21.295417
_cell_length_c	21.395355
_cell_angle_alpha	89.979596
_cell_angle_beta	89.975403
_cell_angle_gamma	90.025484
loop_
_atom_site_label
_atom_site_type_symbol
_atom_site_fract_x
_atom_site_fract_y
_atom_site_fract_z
Zn1	Zn	0.962359	-0.250753	-0.354254
Zn2	Zn	1.212359	-0.000753	-0.104254
Zn3	Zn	1.462359	0.249247	0.145746
Zn4	Zn	1.712359	0.499247	0.395746
Zn5	Zn	0.962263	-0.356004	-0.249473
Zn6	Zn	1.212263	-0.106004	0.000527
Zn7	Zn	1.462263	0.143996	0.250527
Zn8	Zn	1.712263	0.393996	0.500527
Zn9	Zn	0.857082	-0.250745	-0.249491
Zn10	Zn	1.107082	-0.000745	0.000509
Zn11	Zn	1.357082	0.249255	0.250509
Zn12	Zn	1.607082	0.499255	0.500509
Zn13	Zn	0.857053	-0.355980	-0.354213
Zn14	Zn	1.107053	-0.105980	-0.104213
Zn15	Zn	1.357053	0.144020	0.145787
Zn16	Zn	1.607053	0.394020	0.395787
O17	O	0.909689	-0.303371	-0.301858
O18	O	1.159689	-0.053371	-0.051858
O19	O	1.409689	0.196629	0.198142
O20	O	1.659689	0.446629	0.448142
O21	O	1.050435	-0.264728	-0.340364
O22	O	1.300435	-0.014728	-0.090364
O23	O	1.550435	0.235272	0.159636
O24	O	1.800435	0.485272	0.409636
O25	O	0.948282	-0.342048	-0.161797
O26	O	1.198282	-0.092048	0.088203
O27	O	1.448282	0.157952	0.338203
O28	O	1.698282	0.407952	0.588203
O29	O	0.871100	-0.162657	-0.263412
O30	O	1.121100	0.087343	-0.013412
O31	O	1.371100	0.337343	0.236588
O32	O	1.621100	0.587343	0.486588
O33	O	1.050365	-0.342056	-0.263382
O34	O	1.300365	-0.092056	-0.013382
O35	O	1.550365	0.157944	0.236618
O36	O	1.800365	0.407944	0.486618
O37	O	0.948446	-0.162663	-0.340381
O38	O	1.198446	0.087337	-0.090381
O39	O	1.448446	0.337337	0.159619
O40	O	1.698446	0.587337	0.409619
O41	O	0.871006	-0.264715	-0.161810
O42	O	1.121006	-0.014715	0.088190
O43	O	1.371006	0.235285	0.338190
O44	O	1.621006	0.485285	0.588190
O45	O	0.768989	-0.264692	-0.263372
O46	O	1.018989	-0.014692	-0.013372
O47	O	1.268989	0.235308	0.236628
O48	O	1.518989	0.485308	0.486628
O49	O	0.871050	-0.342015	-0.441896
O50	O	1.121050	-0.092015	-0.191896
O51	O	1.371050	0.157985	0.058104
O52	O	1.621050	0.407985	0.308104
O53	O	0.768967	-0.342008	-0.340312
O54	O	1.018967	-0.092008	-0.090312
O55	O	1.268967	0.157992	0.159688
O56	O	1.518967	0.407992	0.409688
O57	O	0.948418	-0.264705	-0.441926
O58	O	1.198418	-0.014705	-0.191926
O59	O	1.448418	0.235295	0.058074
O60	O	1.698418	0.485295	0.308074
O61	O	0.948254	-0.444091	-0.263343
O62	O	1.198254	-0.194091	-0.013343
O63	O	1.448254	0.055909	0.236657
O64	O	1.698254	0.305909	0.486657
O65	O	0.870957	-0.444073	-0.340295
O66	O	1.120957	-0.194073	-0.090295
O67	O	1.370957	0.055927	0.159705
O68	O	1.620957	0.305927	0.409705
C69	C	0.746138	-0.303347	-0.301840
C70	C	0.996138	-0.053347	-0.051840
C71	C	1.246138	0.196653	0.198160
C72	C	1.496138	0.446653	0.448160
C73	C	0.676169	-0.303352	-0.301847
C74	C	0.926169	-0.053352	-0.051847
C75	C	1.176169	0.196648	0.198153
C76	C	1.426169	0.446648	0.448153
C77	C	0.176748	-0.263201	-0.342017
C78	C	0.426748	-0.013201	-0.092017
C79	C	0.676748	0.236799	0.157983
C80	C	0.926748	0.486799	0.407983
C81	C	0.242490	-0.263196	-0.342017
C82	C	0.492490	-0.013196	-0.092017
C83	C	0.742490	0.236804	0.157983
C84	C	0.992490	0.486804	0.407983
C85	C	0.275330	-0.303390	-0.301872
C86	C	0.525330	-0.053390	-0.051872
C87	C	0.775330	0.196610	0.198128
C88	C	1.025330	0.446610	0.448128
C89	C	0.242422	-0.343603	-0.261736
C90	C	0.492422	-0.093603	-0.011736
C91	C	0.742422	0.156397	0.238264
C92	C	0.992422	0.406397	0.488264
C93	C	0.176681	-0.343611	-0.261742
C94	C	0.426681	-0.093611	-0.011742
C95	C	0.676681	0.156389	0.238258
C96	C	0.926681	0.406389	0.488258
N97	N	0.378520	-0.308125	-0.247010
N98	N	0.628520	-0.058125	0.002990
N99	N	0.878520	0.191875	0.252990
N100	N	1.128520	0.441875	0.502990
N101	N	0.440971	-0.308114	-0.247007
N102	N	0.690971	-0.058114	0.002993
N103	N	0.940971	0.191886	0.252993
N104	N	1.190971	0.441886	0.502993
C105	C	0.473405	-0.303369	-0.301854
C106	C	0.723405	-0.053369	-0.051854
C107	C	0.973405	0.196631	0.198146
C108	C	1.223405	0.446631	0.448146
N109	N	0.441027	-0.298624	-0.356706
N110	N	0.691027	-0.048624	-0.106706
N111	N	0.941027	0.201376	0.143294
N112	N	1.191027	0.451376	0.393294
N113	N	0.378570	-0.298632	-0.356709
N114	N	0.628570	-0.048632	-0.106709
N115	N	0.878570	0.201368	0.143291
N116	N	1.128570	0.451368	0.393291
C117	C	0.346615	-0.303386	-0.301862
C118	C	0.596615	-0.053386	-0.051862
C119	C	0.846615	0.196614	0.198138
C120	C	1.096615	0.446614	0.448138
C121	C	0.577590	-0.263157	-0.341990
C122	C	0.827590	-0.013157	-0.091990
C123	C	1.077590	0.236843	0.158010
C124	C	1.327590	0.486843	0.408010
C125	C	0.643334	-0.263157	-0.341991
C126	C	0.893334	-0.013157	-0.091991
C127	C	1.143334	0.236843	0.158009
C128	C	1.393334	0.486843	0.408009
C129	C	0.643265	-0.343560	-0.261705
C130	C	0.893265	-0.093560	-0.011705
C131	C	1.143265	0.156440	0.238295
C132	C	1.393265	0.406440	0.488295
C133	C	0.577522	-0.343563	-0.261710
C134	C	0.827522	-0.093563	-0.011710
C135	C	1.077522	0.156437	0.238290
C136	C	1.327522	0.406437	0.488290
C137	C	0.544689	-0.303359	-0.301852
C138	C	0.794689	-0.053359	-0.051852
C139	C	1.044689	0.196641	0.198148
C140	C	1.294689	0.446641	0.448148
C141	C	0.909609	-0.466922	-0.301826
C142	C	1.159609	-0.216922	-0.051826
C143	C	1.409609	0.033078	0.198174
C144	C	1.659609	0.283078	0.448174
C145	C	0.909632	-0.536891	-0.301833
C146	C	1.159632	-0.286891	-0.051833
C147	C	1.409632	-0.036891	0.198167
C148	C	1.659632	0.213109	0.448167
C149	C	0.949883	-0.569703	-0.341940
C150	C	1.199883	-0.319703	-0.091940
C151	C	1.449883	-0.069703	0.158060
C152	C	1.699883	0.180297	0.408060
C153	C	0.949906	-0.635445	-0.341955
C154	C	1.199906	-0.385445	-0.091955
C155	C	1.449906	-0.135445	0.158045
C156	C	1.699906	0.114555	0.408045
C157	C	0.909683	-0.668373	-0.301853
C158	C	1.159683	-0.418373	-0.051853
C159	C	1.409683	-0.168373	0.198147
C160	C	1.659683	0.081627	0.448147
C161	C	0.869424	-0.635553	-0.261744
C162	C	1.119424	-0.385553	-0.011744
C163	C	1.369424	-0.135553	0.238256
C164	C	1.619424	0.114447	0.488256
C165	C	0.869399	-0.569811	-0.261734
C166	C	1.119399	-0.319811	-0.011734
C167	C	1.369399	-0.069811	0.238266
C168	C	1.619399	0.180189	0.488266
N169	N	0.904924	-0.771625	-0.247019
N170	N	1.154924	-0.521625	0.002981
N171	N	1.404924	-0.271625	0.252981
N172	N	1.654924	-0.021625	0.502981
N173	N	0.904952	-0.834076	-0.247031
N174	N	1.154952	-0.584076	0.002969
N175	N	1.404952	-0.334076	0.252969
N176	N	1.654952	-0.084076	0.502969
C177	C	0.909757	-0.866448	-0.301881
C178	C	1.159757	-0.616448	-0.051881
C179	C	1.409757	-0.366448	0.198119
C180	C	1.659757	-0.116448	0.448119
N181	N	0.914545	-0.834008	-0.356722
N182	N	1.164545	-0.584008	-0.106722
N183	N	1.414545	-0.334008	0.143278
N184	N	1.664545	-0.084008	0.393278
N185	N	0.914520	-0.771551	-0.356710
N186	N	1.164520	-0.521551	-0.106710
N187	N	1.414520	-0.271551	0.143290
N188	N	1.664520	-0.021551	0.393290
C189	C	0.909706	-0.739658	-0.301860
C190	C	1.159706	-0.489658	-0.051860
C191	C	1.409706	-0.239658	0.198140
C192	C	1.659706	0.010342	0.448140
C193	C	0.950034	-0.970546	-0.342008
C194	C	1.200034	-0.720546	-0.092008
C195	C	1.450034	-0.470546	0.157992
C196	C	1.700034	-0.220546	0.407992
C197	C	0.950052	-1.036289	-0.342024
C198	C	1.200052	-0.786289	-0.092024
C199	C	1.450052	-0.536289	0.157976
C200	C	1.700052	-0.286289	0.407976
C201	C	0.869574	-1.036395	-0.261807
C202	C	1.119574	-0.786395	-0.011807
C203	C	1.369574	-0.536395	0.238193
C204	C	1.619574	-0.286395	0.488193
C205	C	0.869553	-0.970653	-0.261796
C206	C	1.119553	-0.720653	-0.011796
C207	C	1.369553	-0.470653	0.238204
C208	C	1.619553	-0.220653	0.488204
C209	C	0.909786	-0.937732	-0.301896
C210	C	1.159786	-0.687732	-0.051896
C211	C	1.409786	-0.437732	0.198104
C212	C	1.659786	-0.187732	0.448104
C213	C	1.073879	-0.303395	-0.301876
C214	C	1.323879	-0.053395	-0.051876
C215	C	1.573879	0.196605	0.198124
C216	C	1.823879	0.446605	0.448124
C217	C	1.143847	-0.303406	-0.301884
C218	C	1.393847	-0.053406	-0.051884
C219	C	1.643847	0.196594	0.198116
C220	C	1.893847	0.446594	0.448116
C221	C	0.909741	-0.303358	-0.465281
C222	C	1.159741	-0.053358	-0.215281
C223	C	1.409741	0.196642	0.034719
C224	C	1.659741	0.446642	0.284719
C225	C	0.909764	-0.303353	-0.534922
C226	C	1.159764	-0.053353	-0.284922
C227	C	1.409764	0.196647	-0.034922
C228	C	1.659764	0.446647	0.215078
C229	C	0.909787	-0.139181	-0.301903
C230	C	1.159787	0.110819	-0.051903
C231	C	1.409787	0.360819	0.198097
C232	C	1.659787	0.610819	0.448097
C233	C	0.909828	-0.069212	-0.301923
C234	C	1.159828	0.180788	-0.051923
C235	C	1.409828	0.430788	0.198077
C236	C	1.659828	0.680788	0.448077
C237	C	0.950047	-0.263096	-0.567652
C238	C	1.200047	-0.013096	-0.317652
C239	C	1.450047	0.236904	-0.067652
C240	C	1.700047	0.486904	0.182348
C241	C	0.950047	-0.263068	-0.633087
C242	C	1.200047	-0.013068	-0.383087
C243	C	1.450047	0.236932	-0.133087
C244	C	1.700047	0.486932	0.116913
C245	C	0.909769	-0.303310	-0.665791
C246	C	1.159769	-0.053310	-0.415791
C247	C	1.409769	0.196690	-0.165791
C248	C	1.659769	0.446690	0.084209
C249	C	0.869477	-0.343570	-0.633053
C250	C	1.119477	-0.093570	-0.383053
C251	C	1.369477	0.156430	-0.133053
C252	C	1.619477	0.406430	0.116947
C253	C	0.869475	-0.343591	-0.567619
C254	C	1.119475	-0.093591	-0.317619
C255	C	1.369475	0.156409	-0.067619
C256	C	1.619475	0.406409	0.182381
C257	C	0.904770	-0.359989	-0.769454
C258	C	1.154770	-0.109989	-0.519454
C259	C	1.404770	0.140011	-0.269454
C260	C	1.654770	0.390011	-0.019454
C261	C	0.904777	-0.359969	-0.834887
C262	C	1.154777	-0.109969	-0.584887
C263	C	1.404777	0.140031	-0.334887
C264	C	1.654777	0.390031	-0.084887
C265	C	0.909772	-0.303243	-0.867612
C266	C	1.159772	-0.053243	-0.617612
C267	C	1.409772	0.196757	-0.367612
C268	C	1.659772	0.446757	-0.117612
C269	C	0.914774	-0.246536	-0.834895
C270	C	1.164774	0.003464	-0.584895
C271	C	1.414774	0.253464	-0.334895
C272	C	1.664774	0.503464	-0.084895
C273	C	0.914772	-0.246557	-0.769460
C274	C	1.164772	0.003443	-0.519460
C275	C	1.414772	0.253443	-0.269460
C276	C	1.664772	0.503443	-0.019460
C277	C	0.909766	-0.303291	-0.736743
C278	C	1.159766	-0.053291	-0.486743
C279	C	1.409766	0.196709	-0.236743
C280	C	1.659766	0.446709	0.013257
C281	C	0.950057	-0.262953	-0.971294
C282	C	1.200057	-0.012953	-0.721294
C283	C	1.450057	0.237047	-0.471294
C284	C	1.700057	0.487047	-0.221294
C285	C	0.950052	-0.262925	-1.036730
C286	C	1.200052	-0.012925	-0.786730
C287	C	1.450052	0.237075	-0.536730
C288	C	1.700052	0.487075	-0.286730
C289	C	0.869486	-0.343432	-1.036695
C290	C	1.119486	-0.093432	-0.786695
C291	C	1.369486	0.156568	-0.536695
C292	C	1.619486	0.406568	-0.286695
C293	C	0.869488	-0.343455	-0.971259
C294	C	1.119488	-0.093455	-0.721259
C295	C	1.369488	0.156545	-0.471259
C296	C	1.619488	0.406545	-0.221259
C297	C	0.909777	-0.303216	-0.938563
C298	C	1.159777	-0.053216	-0.688563
C299	C	1.409777	0.196784	-0.438563
C300	C	1.659777	0.446784	-0.188563
C301	C	0.909673	-0.303338	-0.139070
C302	C	1.159673	-0.053338	0.110930
C303	C	1.409673	0.196662	0.360930
C304	C	1.659673	0.446662	0.610930
C305	C	0.909773	-0.303166	-0.069429
C306	C	1.159773	-0.053166	0.180571
C307	C	1.409773	0.196834	0.430571
C308	C	1.659773	0.446834	0.680571
H309	H	0.550856	-0.230420	-0.374676
H310	H	0.800856	0.019580	-0.124676
H311	H	1.050856	0.269580	0.125324
H312	H	1.300856	0.519580	0.375324
F313	F	0.992751	-0.670374	-0.384641
F314	F	1.242751	-0.420374	-0.134641
F315	F	1.492751	-0.170374	0.115359
F316	F	1.742751	0.079626	0.365359
F317	F	0.826614	-0.670597	-0.219067
F318	F	1.076614	-0.420597	0.030933
F319	F	1.326614	-0.170597	0.280933
F320	F	1.576614	0.079403	0.530933
F321	F	0.678349	-0.220368	-0.384714
F322	F	0.928349	0.029632	-0.134714
F323	F	1.178349	0.279632	0.115286
F324	F	1.428349	0.529632	0.365286
H325	H	0.836621	-0.543095	-0.229074
H326	H	1.086621	-0.293095	0.020926
H327	H	1.336621	-0.043095	0.270926
H328	H	1.586621	0.206905	0.520926
F329	F	0.826712	-0.935730	-0.219109
F330	F	1.076712	-0.685730	0.030891
F331	F	1.326712	-0.435730	0.280891
F332	F	1.576712	-0.185730	0.530891
H333	H	0.918843	-0.200344	-0.861537
H334	H	1.168843	0.049656	-0.611537
H335	H	1.418843	0.299656	-0.361537
H336	H	1.668843	0.549656	-0.111537
F337	F	0.920092	-0.186207	-0.734643
F338	F	1.170092	0.063793	-0.484643
F339	F	1.420092	0.313793	-0.234643
F340	F	1.670092	0.563793	0.015357
H341	H	0.982855	-0.230139	-1.063378
H342	H	1.232855	0.019861	-0.813378
H343	H	1.482855	0.269861	-0.563378
H344	H	1.732855	0.519861	-0.313378
H345	H	0.982860	-0.230185	-0.944671
H346	H	1.232860	0.019815	-0.694671
H347	H	1.482860	0.269815	-0.444671
H348	H	1.732860	0.519815	-0.194671
H349	H	0.550735	-0.376300	-0.229026
H350	H	0.800735	-0.126300	0.020974
H351	H	1.050735	0.123700	0.270974
H352	H	1.300735	0.373700	0.520974
H353	H	0.982853	-0.230329	-0.541035
H354	H	1.232853	0.019671	-0.291035
H355	H	1.482853	0.269671	-0.041035
H356	H	1.732853	0.519671	0.208965
F357	F	0.992913	-0.220209	-0.667928
F358	F	1.242913	0.029791	-0.417928
F359	F	1.492913	0.279791	-0.167928
F360	F	1.742913	0.529791	0.082072
F361	F	0.992851	-0.935507	-0.384687
F362	F	1.242851	-0.685507	-0.134687
F363	F	1.492851	-0.435507	0.115313
F364	F	1.742851	-0.185507	0.365313
H365	H	0.836685	-0.376191	-1.063321
H366	H	1.086685	-0.126191	-0.813321
H367	H	1.336685	0.123809	-0.563321
H368	H	1.586685	0.373809	-0.313321
H369	H	0.836688	-0.376240	-0.944611
H370	H	1.086688	-0.126240	-0.694611
H371	H	1.336688	0.123760	-0.444611
H372	H	1.586688	0.373760	-0.194611
F373	F	0.899459	-0.420322	-0.869701
F374	F	1.149459	-0.170322	-0.619701
F375	F	1.399459	0.079678	-0.369701
F376	F	1.649459	0.329678	-0.119701
H377	H	0.982829	-1.063004	-0.374687
H378	H	1.232829	-0.813004	-0.124687
H379	H	1.482829	-0.563004	0.125313
H380	H	1.732829	-0.313004	0.375313
H381	H	0.900534	-0.406171	-0.742816
H382	H	1.150534	-0.156171	-0.492816
H383	H	1.400534	0.093829	-0.242816
H384	H	1.650534	0.343829	0.007184
H385	H	0.836681	-0.376332	-0.659684
H386	H	1.086681	-0.126332	-0.409684
H387	H	1.336681	0.123668	-0.159684
H388	H	1.586681	0.373668	0.090316
H389	H	0.836668	-0.376372	-0.540971
H390	H	1.086668	-0.126372	-0.290971
H391	H	1.336668	0.123628	-0.040971
H392	H	1.586668	0.373628	0.209029
F393	F	0.826764	-1.071435	-0.219129
F394	F	1.076764	-0.821435	0.030871
F395	F	1.326764	-0.571435	0.280871
F396	F	1.576764	-0.321435	0.530871
H397	H	0.150019	-0.230466	-0.374706
H398	H	0.400019	0.019534	-0.124706
H399	H	0.650019	0.269534	0.125294
H400	H	0.900019	0.519534	0.375294
H401	H	0.269283	-0.230454	-0.374697
H402	H	0.519283	0.019546	-0.124697
H403	H	0.769283	0.269546	0.125303
H404	H	1.019283	0.519546	0.375303
H405	H	0.269164	-0.376330	-0.229052
H406	H	0.519164	-0.126330	0.020948
H407	H	0.769164	0.123670	0.270948
H408	H	1.019164	0.373670	0.520948
H409	H	0.149894	-0.376351	-0.229060
H410	H	0.399894	-0.126351	0.020940
H411	H	0.649894	0.123649	0.270940
H412	H	0.899894	0.373649	0.520940
F413	F	0.992701	-0.534670	-0.384621
F414	F	1.242701	-0.284670	-0.134621
F415	F	1.492701	-0.034670	0.115379
F416	F	1.742701	0.215330	0.365379
F417	F	0.678211	-0.386341	-0.218984
F418	F	0.928211	-0.136341	0.031016
F419	F	1.178211	0.113659	0.281016
F420	F	1.428211	0.363659	0.531016
