data_functionalizedCrystal
_audit_creation_method	'MofGen! by Chris Wilmer'
_symmetry_space_group_name_H-M	'P1'
_symmetry_Int_Tables_number	1
_symmetry_cell_setting	triclinic
loop_
_symmetry_equiv_pos_as_xyz
  x,y,z
_cell_length_a	16.992694
_cell_length_b	16.992695
_cell_length_c	15.455313
_cell_angle_alpha	92.847427
_cell_angle_beta	87.142206
_cell_angle_gamma	90.668223
loop_
_atom_site_label
_atom_site_type_symbol
_atom_site_fract_x
_atom_site_fract_y
_atom_site_fract_z
O1	O	1.054080	0.163694	-0.072023
O2	O	1.554080	0.663694	0.427977
O3	O	0.825681	0.161862	-0.072048
O4	O	1.325681	0.661862	0.427952
O5	O	0.938965	0.048579	-0.072029
O6	O	1.438965	0.548579	0.427971
O7	O	0.940797	0.276978	-0.072042
O8	O	1.440797	0.776978	0.427958
O9	O	0.932485	0.055028	0.072232
O10	O	1.432485	0.555028	0.572232
O11	O	0.819202	0.168312	0.072213
O12	O	1.319202	0.668312	0.572213
O13	O	1.047601	0.170144	0.072238
O14	O	1.547601	0.670144	0.572238
Cu15	Cu	0.932809	0.169817	0.085398
Cu16	Cu	1.432809	0.669817	0.585398
Cu17	Cu	0.940473	0.162189	-0.085207
Cu18	Cu	1.440473	0.662189	0.414793
O19	O	0.934317	0.283428	0.072219
O20	O	1.434317	0.783428	0.572219
C21	C	0.793081	0.162731	0.000079
C22	C	1.293081	0.662731	0.500079
C23	C	0.705597	0.155702	0.000070
C24	C	1.205597	0.655702	0.500070
C25	C	0.659607	0.223520	0.000066
C26	C	1.159607	0.723520	0.500066
C27	C	0.577405	0.216911	0.000079
C28	C	1.077405	0.716911	0.500079
C29	C	0.541197	0.142484	0.000088
C30	C	1.041197	0.642484	0.500088
C31	C	0.587193	0.074661	0.000094
C32	C	1.087193	0.574661	0.500094
C33	C	0.669393	0.081271	0.000088
C34	C	1.169393	0.581271	0.500088
C35	C	0.295881	0.115091	0.000113
C36	C	0.795881	0.615091	0.500113
C37	C	0.213676	0.108486	0.000116
C38	C	0.713676	0.608486	0.500116
C39	C	0.203893	0.250737	0.000103
C40	C	0.703893	0.750737	0.500103
C41	C	0.286095	0.257340	0.000091
C42	C	0.786095	0.757340	0.500091
C43	C	0.332084	0.189517	0.000102
C44	C	0.832084	0.689517	0.500102
N45	N	0.457174	0.135727	0.000098
N46	N	0.957174	0.635727	0.500098
N47	N	0.416105	0.196275	0.000098
N48	N	0.916105	0.696275	0.500098
C49	C	0.933369	0.022443	0.000102
C50	C	1.433369	0.522443	0.500102
C51	C	0.926341	-0.065041	0.000101
C52	C	1.426341	0.434959	0.500101
C53	C	0.994158	-0.111032	0.000109
C54	C	1.494158	0.388968	0.500109
C55	C	0.987550	-0.193233	0.000100
C56	C	1.487550	0.306767	0.500100
C57	C	0.913123	-0.229442	0.000089
C58	C	1.413123	0.270558	0.500089
C59	C	0.845300	-0.183445	0.000078
C60	C	1.345300	0.316555	0.500078
C61	C	0.851910	-0.101246	0.000081
C62	C	1.351910	0.398754	0.500081
C63	C	0.885729	-0.474757	0.000074
C64	C	1.385729	0.025243	0.500074
C65	C	0.879124	-0.556962	0.000074
C66	C	1.379124	-0.056962	0.500074
C67	C	1.021375	-0.566744	0.000094
C68	C	1.521375	-0.066744	0.500094
C69	C	1.027977	-0.484543	0.000102
C70	C	1.527977	0.015457	0.500102
C71	C	0.960155	-0.438554	0.000087
C72	C	1.460155	0.061446	0.500087
N73	N	0.906366	-0.313464	0.000082
N74	N	1.406366	0.186536	0.500082
N75	N	0.966913	-0.354533	0.000087
N76	N	1.466913	0.145467	0.500087
C77	C	1.080201	0.169275	0.000109
C78	C	1.580201	0.669275	0.500109
C79	C	1.167685	0.176304	0.000113
C80	C	1.667685	0.676304	0.500113
C81	C	0.939913	0.309563	0.000087
C82	C	1.439913	0.809563	0.500087
C83	C	0.946942	0.397047	0.000082
C84	C	1.446942	0.897047	0.500082
N85	N	0.927425	0.175181	0.205392
N86	N	1.427425	0.675181	0.705392
N87	N	0.945863	0.156819	-0.205202
N88	N	1.445863	0.656819	0.294798
C89	C	0.975571	0.127074	0.250795
C90	C	1.475571	0.627074	0.750795
C91	C	0.971507	0.131139	0.341602
C92	C	1.471507	0.631139	0.841602
C93	C	0.919301	0.183315	0.387005
C94	C	1.419301	0.683315	0.887005
C95	C	0.871149	0.231424	0.341596
C96	C	1.371149	0.731424	0.841596
C97	C	0.875210	0.227355	0.250791
C98	C	1.375210	0.727355	0.750791
C99	C	0.901772	0.200858	0.658584
C100	C	1.401772	0.700858	1.158584
C101	C	0.897717	0.204926	0.749395
C102	C	1.397717	0.704926	1.249395
C103	C	0.998074	0.104639	0.749395
C104	C	1.498074	0.604639	1.249395
C105	C	1.002133	0.100578	0.658588
C106	C	1.502133	0.600578	1.158588
C107	C	0.953979	0.148684	0.613187
C108	C	1.453979	0.648684	1.113187
N109	N	0.915147	0.187473	0.479825
N110	N	1.415147	0.687473	0.979825
N111	N	0.958129	0.144522	0.520369
N112	N	1.458129	0.644522	1.020369
H113	H	0.333316	0.059864	0.000122
H114	H	0.833316	0.559864	0.500122
H115	H	0.706838	0.026046	0.000090
H116	H	1.206838	0.526046	0.500090
H117	H	1.010711	0.091966	0.378568
H118	H	1.510711	0.591966	0.878568
F119	F	0.548655	-0.004550	0.000110
F120	F	1.048655	0.495450	0.500110
H121	H	0.830503	-0.437322	0.000061
H122	H	1.330503	0.062678	0.500061
H123	H	0.796685	-0.063801	0.000073
H124	H	1.296685	0.436199	0.500073
F125	F	0.324625	0.336555	0.000077
F126	F	0.824625	0.836555	0.500077
F127	F	0.766089	-0.221984	0.000056
F128	F	1.266089	0.278016	0.500056
F129	F	0.698135	0.302736	0.000050
F130	F	1.198135	0.802736	0.500050
H131	H	1.044644	0.058092	0.621622
H132	H	1.544644	0.558092	1.121622
F133	F	1.107194	-0.446014	0.000092
F134	F	1.607194	0.053986	0.500092
H135	H	1.037278	0.065473	0.786369
H136	H	1.537278	0.565473	1.286369
F137	F	1.031141	0.071545	0.202482
F138	F	1.531141	0.571545	0.702482
F139	F	0.154943	0.322913	0.000093
F140	F	0.654943	0.822913	0.500093
H141	H	1.054764	-0.081557	0.000124
H142	H	1.554764	0.418443	0.500124
F143	F	0.815582	0.286951	0.389918
F144	F	1.315582	0.786951	0.889918
H145	H	0.862564	0.240030	0.621625
H146	H	1.362564	0.740030	1.121625
F147	F	0.799905	-0.595496	0.000066
F148	F	1.299905	-0.095496	0.500066
F149	F	0.823964	0.278555	0.202472
F150	F	1.323964	0.778555	0.702472
H151	H	0.539963	0.272136	0.000075
H152	H	1.039963	0.772136	0.500075
F153	F	0.175141	0.029268	0.000142
F154	F	0.675141	0.529268	0.500142
F155	F	0.842149	0.260464	0.797711
F156	F	1.342149	0.760464	1.297711
H157	H	1.076591	-0.604197	0.000106
H158	H	1.576591	-0.104197	0.500106
F159	F	1.059731	-0.242176	0.000111
F160	F	1.559731	0.257824	0.500111
