data_functionalizedCrystal
_audit_creation_method	'MofGen! by Chris Wilmer'
_symmetry_space_group_name_H-M	'P1'
_symmetry_Int_Tables_number	1
_symmetry_cell_setting	triclinic
loop_
_symmetry_equiv_pos_as_xyz
  x,y,z
_cell_length_a	16.120566
_cell_length_b	21.395361
_cell_length_c	16.120297
_cell_angle_alpha	87.133067
_cell_angle_beta	89.874982
_cell_angle_gamma	87.126572
loop_
_atom_site_label
_atom_site_type_symbol
_atom_site_fract_x
_atom_site_fract_y
_atom_site_fract_z
Zn1	Zn	-1.247386	0.317418	-0.534590
Zn2	Zn	-1.254321	0.417160	-0.395520
Zn3	Zn	-1.115378	0.306832	-0.388503
Zn4	Zn	-1.108277	0.416584	-0.527482
O5	O	-1.181341	0.364498	-0.461524
O6	O	-1.364671	0.335321	-0.522054
O7	O	-1.241764	0.398335	-0.278225
O8	O	-1.132959	0.220562	-0.407920
O9	O	-1.369766	0.408601	-0.419880
O10	O	-1.229944	0.228340	-0.515250
O11	O	-1.139683	0.317277	-0.273069
O12	O	-0.998071	0.316719	-0.401027
O13	O	-1.120857	0.407619	-0.644789
O14	O	-0.992854	0.397353	-0.503134
O15	O	-1.223059	0.334762	-0.650012
O16	O	-1.234878	0.504757	-0.412987
O17	O	-1.127581	0.504334	-0.509938
C18	C	-0.965290	0.355825	-0.450548
C19	C	-0.872862	0.352130	-0.445872
C20	C	-0.703634	0.345371	-0.437342
C21	C	-0.659887	0.383680	-0.485712
C22	C	-0.565723	0.379919	-0.480966
C23	C	-0.797807	0.349131	-0.442087
C24	C	-0.398235	0.373207	-0.472529
C25	C	-0.490664	0.376922	-0.477184
C26	C	-1.181233	0.527280	-0.461472
C27	C	-1.181262	0.596923	-0.461481
C28	C	-1.170392	0.372307	-0.678416
C29	C	-1.165727	0.375635	-0.770843
C30	C	-1.181470	0.201083	-0.461595
C31	C	-1.181525	0.131445	-0.461625
C32	C	-1.237176	0.629839	-0.411055
C33	C	-1.237214	0.695277	-0.411076
C34	C	-1.181323	0.727794	-0.461513
C35	C	-1.125405	0.694870	-0.511949
C36	C	-1.125374	0.629434	-0.511933
C37	C	-1.106118	0.828743	-0.464234
C38	C	-1.106148	0.894178	-0.464244
C39	C	-1.181417	0.929621	-0.461567
C40	C	-1.256660	0.899621	-0.458863
C41	C	-1.256630	0.834185	-0.458847
C42	C	-1.181350	0.798749	-0.461536
C43	C	-1.237377	1.033492	-0.411161
C44	C	-1.237416	1.098931	-0.411187
C45	C	-1.125600	1.098523	-0.512055
C46	C	-1.125568	1.033086	-0.512033
C47	C	-1.181456	1.000574	-0.461582
C48	C	-1.157178	0.381695	-0.940066
C49	C	-1.205667	0.347121	-0.983841
C50	C	-1.200911	0.350492	-1.078003
C51	C	-1.161933	0.378324	-0.845896
C52	C	-1.192294	0.356677	-0.245477
C53	C	-1.197121	0.353179	-0.153059
H54	H	-1.282685	0.603370	-0.369977
C55	C	-1.023310	0.789761	-0.467158
N56	N	-0.960940	0.760400	-0.469354
C57	C	-0.704827	0.431810	-0.546465
N58	N	-0.738680	0.468061	-0.592219
C59	C	-1.266582	0.303716	-0.938937
N60	N	-1.312466	0.271028	-0.905111
C61	C	-0.658695	0.297252	-0.376583
N62	N	-0.624837	0.261011	-0.330818
C63	C	-1.096273	0.425101	-0.984971
N64	N	-1.050400	0.457794	-1.018803
H65	H	-1.044880	0.918598	-0.466437
C66	C	-1.339395	0.801187	-0.455872
N67	N	-1.401736	0.776334	-0.453632
C68	C	-1.339464	0.938604	-0.455925
N69	N	-1.401829	0.967969	-0.453713
C70	C	-1.298722	0.731492	-0.355597
N71	N	-1.345048	0.758767	-0.313808
H72	H	-1.282953	1.125731	-0.370126
H73	H	-1.282887	1.007020	-0.370082
C74	C	-1.064120	1.134289	-0.567538
N75	N	-1.017814	1.161231	-0.609331
C76	C	-1.063922	0.730641	-0.567427
N77	N	-1.017612	0.757583	-0.609215
H78	H	-1.079841	0.602633	-0.552997
C79	C	-1.064073	0.996877	-0.567524
N80	N	-1.017762	0.969606	-0.609333
