data_functionalizedCrystal
_audit_creation_method	'MofGen! by Chris Wilmer'
_symmetry_space_group_name_H-M	'P1'
_symmetry_Int_Tables_number	1
_symmetry_cell_setting	triclinic
loop_
_symmetry_equiv_pos_as_xyz
  x,y,z
_cell_length_a	21.295418
_cell_length_b	21.295417
_cell_length_c	21.295420
_cell_angle_alpha	90.017552
_cell_angle_beta	90.034650
_cell_angle_gamma	90.046319
loop_
_atom_site_label
_atom_site_type_symbol
_atom_site_fract_x
_atom_site_fract_y
_atom_site_fract_z
Zn1	Zn	0.962299	-0.250441	0.356233
Zn2	Zn	1.462299	0.249559	0.856233
Zn3	Zn	0.962218	-0.355685	0.250959
Zn4	Zn	1.462218	0.144315	0.750959
Zn5	Zn	0.857039	-0.250463	0.250943
Zn6	Zn	1.357039	0.249537	0.750943
Zn7	Zn	0.856992	-0.355705	0.356155
Zn8	Zn	1.356992	0.144295	0.856155
O9	O	0.909637	-0.303073	0.303573
O10	O	1.409637	0.196927	0.803573
O11	O	1.050378	-0.264384	0.342308
O12	O	1.550378	0.235616	0.842308
O13	O	0.948252	-0.341728	0.162867
O14	O	1.448252	0.158272	0.662867
O15	O	0.871056	-0.162370	0.264936
O16	O	1.371056	0.337630	0.764936
O17	O	1.050319	-0.341707	0.264963
O18	O	1.550319	0.158293	0.764963
O19	O	0.948390	-0.162354	0.342293
O20	O	1.448390	0.337646	0.842293
O21	O	0.870977	-0.264422	0.162856
O22	O	1.370977	0.235578	0.662856
O23	O	0.768943	-0.264441	0.264861
O24	O	1.268943	0.235559	0.764861
O25	O	0.870975	-0.341741	0.444255
O26	O	1.370975	0.158259	0.944255
O27	O	0.768909	-0.341762	0.342159
O28	O	1.268909	0.158238	0.842159
O29	O	0.948344	-0.264403	0.444312
O30	O	1.448344	0.235597	0.944312
O31	O	0.948206	-0.443777	0.264887
O32	O	1.448206	0.056223	0.764887
O33	O	0.870897	-0.443792	0.342175
O34	O	1.370897	0.056208	0.842175
C35	C	0.909555	-0.466625	0.303538
C36	C	1.409555	0.033375	0.803538
C37	C	0.909577	-0.536593	0.303544
C38	C	1.409577	-0.036593	0.803544
C39	C	0.746085	-0.303106	0.303500
C40	C	1.246085	0.196894	0.803500
C41	C	0.676117	-0.303136	0.303484
C42	C	1.176117	0.196864	0.803484
C43	C	0.949868	-0.569431	0.263342
C44	C	1.449868	-0.069431	0.763342
C45	C	0.949897	-0.635174	0.263356
C46	C	1.449897	-0.135174	0.763356
C47	C	0.909625	-0.668076	0.303566
C48	C	1.409625	-0.168076	0.803566
C49	C	0.869331	-0.635230	0.343776
C50	C	1.369331	-0.135230	0.843776
C51	C	0.869307	-0.569488	0.343765
C52	C	1.369307	-0.069488	0.843765
N53	N	0.854557	-0.771358	0.308340
N54	N	1.354557	-0.271358	0.808340
N55	N	0.854581	-0.833809	0.308347
N56	N	1.354581	-0.333809	0.808347
C57	C	0.909695	-0.866150	0.303602
C58	C	1.409695	-0.366150	0.803602
N59	N	0.964785	-0.833681	0.298838
N60	N	1.464785	-0.333681	0.798838
N61	N	0.964760	-0.771223	0.298828
N62	N	1.464760	-0.271223	0.798828
C63	C	0.909646	-0.739361	0.303582
C64	C	1.409646	-0.239361	0.803582
C65	C	0.950021	-0.970274	0.263413
C66	C	1.450021	-0.470274	0.763413
C67	C	0.950052	-1.036018	0.263431
C68	C	1.450052	-0.536018	0.763431
C69	C	0.869480	-1.036072	0.343848
C70	C	1.369480	-0.536072	0.843848
C71	C	0.869455	-0.970330	0.343833
C72	C	1.369455	-0.470330	0.843833
C73	C	0.909725	-0.937435	0.303612
C74	C	1.409725	-0.437435	0.803612
C75	C	0.643249	-0.343450	0.343673
C76	C	1.143249	0.156550	0.843673
C77	C	0.577507	-0.343435	0.343702
C78	C	1.077507	0.156565	0.843702
C79	C	0.544635	-0.303111	0.303529
C80	C	1.044635	0.196889	0.803529
C81	C	0.577511	-0.262789	0.263337
C82	C	1.077511	0.237211	0.763337
C83	C	0.643252	-0.262801	0.263315
C84	C	1.143252	0.237199	0.763315
N85	N	0.441368	-0.298180	0.248472
N86	N	0.941368	0.201820	0.748472
N87	N	0.378916	-0.298172	0.248495
N88	N	0.878916	0.201828	0.748495
C89	C	0.346560	-0.303071	0.303596
C90	C	0.846560	0.196929	0.803596
N91	N	0.379015	-0.307991	0.358674
N92	N	0.879015	0.192009	0.858674
N93	N	0.441472	-0.308002	0.358650
N94	N	0.941472	0.191998	0.858650
C95	C	0.473350	-0.303093	0.303550
C96	C	0.973350	0.196907	0.803550
C97	C	0.242406	-0.343371	0.343820
C98	C	0.742406	0.156629	0.843820
C99	C	0.176663	-0.343351	0.343849
C100	C	0.676663	0.156649	0.843849
C101	C	0.176669	-0.262709	0.263479
C102	C	0.676669	0.237291	0.763479
C103	C	0.242411	-0.262725	0.263455
C104	C	0.742411	0.237275	0.763455
C105	C	0.275276	-0.303060	0.303625
C106	C	0.775276	0.196940	0.803625
C107	C	1.073827	-0.303041	0.303646
C108	C	1.573827	0.196959	0.803646
C109	C	1.143796	-0.303027	0.303677
C110	C	1.643796	0.196973	0.803677
C111	C	0.909663	-0.303072	0.467763
C112	C	1.409663	0.196928	0.967763
C113	C	0.909675	-0.303071	0.537731
C114	C	1.409675	0.196929	1.037731
C115	C	0.909737	-0.138883	0.303622
C116	C	1.409737	0.361117	0.803622
C117	C	0.909780	-0.068915	0.303642
C118	C	1.409780	0.431085	0.803642
C119	C	0.869444	-0.262821	0.570582
C120	C	1.369444	0.237179	1.070582
C121	C	0.869432	-0.262824	0.636324
C122	C	1.369432	0.237176	1.136324
C123	C	0.909663	-0.303071	0.669214
C124	C	1.409663	0.196929	1.169214
C125	C	0.949896	-0.343330	0.636355
C126	C	1.449896	0.156670	1.136355
C127	C	0.949902	-0.343329	0.570614
C128	C	1.449902	0.156671	1.070614
N129	N	0.964753	-0.307887	0.772470
N130	N	1.464753	0.192113	1.272470
N131	N	0.964745	-0.307884	0.834922
N132	N	1.464745	0.192116	1.334922
C133	C	0.909647	-0.303075	0.867288
C134	C	1.409647	0.196925	1.367288
N135	N	0.854554	-0.298257	0.834844
N136	N	1.354554	0.201743	1.334844
N137	N	0.854562	-0.298258	0.772387
N138	N	1.354562	0.201742	1.272387
C139	C	0.909661	-0.303076	0.740499
C140	C	1.409661	0.196924	1.240499
C141	C	0.869400	-0.262826	0.971425
C142	C	1.369400	0.237174	1.471425
C143	C	0.869387	-0.262833	1.037168
C144	C	1.369387	0.237167	1.537168
C145	C	0.949857	-0.343336	1.037198
C146	C	1.449857	0.156664	1.537198
C147	C	0.949864	-0.343331	0.971455
C148	C	1.449864	0.156669	1.471455
C149	C	0.909636	-0.303073	0.938573
C150	C	1.409636	0.196927	1.438573
C151	C	0.909612	-0.303087	1.140021
C152	C	1.409612	0.196913	1.640021
C153	C	0.909618	-0.303082	1.070053
C154	C	1.409618	0.196918	1.570053
H155	H	0.982659	-0.542650	0.230593
H156	H	1.482659	-0.042650	0.730593
H157	H	0.836497	-0.542751	0.376503
H158	H	1.336497	-0.042751	0.876503
H159	H	0.149905	-0.229874	0.230773
H160	H	0.649905	0.270126	0.730773
H161	H	0.269173	-0.229900	0.230725
H162	H	0.769173	0.270100	0.730725
H163	H	0.550743	-0.229957	0.230630
H164	H	1.050743	0.270043	0.730630
H165	H	0.982814	-0.943490	0.230664
H166	H	1.482814	-0.443490	0.730664
H167	H	0.836542	-0.662023	0.376516
H168	H	1.336542	-0.162023	0.876516
Br169	Br	1.004491	-0.397956	0.680988
Br170	Br	1.504491	0.102044	1.180988
H171	H	0.836685	-0.230042	0.543813
H172	H	1.336685	0.269958	1.043813
H173	H	0.836672	-0.230044	0.663077
H174	H	1.336672	0.269956	1.163077
Br175	Br	1.004744	-1.080585	0.208873
Br176	Br	1.504744	-0.580585	0.708873
H177	H	0.269167	-0.376210	0.376531
H178	H	0.769167	0.123790	0.876531
H179	H	0.836692	-1.062860	0.376590
H180	H	1.336692	-0.562860	0.876590
H181	H	0.982666	-0.376106	0.543867
H182	H	1.482666	0.123894	1.043867
Br183	Br	1.004582	-0.679750	0.208792
Br184	Br	1.504582	-0.179750	0.708792
Br185	Br	0.687863	-0.208083	0.208769
Br186	Br	1.187863	0.291917	0.708769
H187	H	0.836622	-0.230059	1.063914
H188	H	1.336622	0.269941	1.563914
Br189	Br	0.814804	-0.208194	0.926794
Br190	Br	1.314804	0.291806	1.426794
Br191	Br	0.532890	-0.398150	0.398250
Br192	Br	1.032890	0.101850	0.898250
H193	H	0.670004	-0.376293	0.376384
H194	H	1.170004	0.123707	0.876384
H195	H	0.149903	-0.376179	0.376580
H196	H	0.649903	0.123821	0.876580
H197	H	0.982626	-0.376106	0.944708
H198	H	1.482626	0.123894	1.444708
Br199	Br	0.814770	-0.925760	0.398395
Br200	Br	1.314770	-0.425760	0.898395
Br201	Br	1.004451	-0.397964	1.081826
Br202	Br	1.504451	0.102036	1.581826
