data_functionalizedCrystal
_audit_creation_method	'MofGen! by Chris Wilmer'
_symmetry_space_group_name_H-M	'P1'
_symmetry_Int_Tables_number	1
_symmetry_cell_setting	triclinic
loop_
_symmetry_equiv_pos_as_xyz
  x,y,z
_cell_length_a	19.288864
_cell_length_b	19.288865
_cell_length_c	18.366186
_cell_angle_alpha	90.011479
_cell_angle_beta	90.022894
_cell_angle_gamma	83.136245
loop_
_atom_site_label
_atom_site_type_symbol
_atom_site_fract_x
_atom_site_fract_y
_atom_site_fract_z
O1	O	-0.921353	-0.086649	-0.060791
O2	O	-0.588019	0.246685	0.272542
O3	O	-0.254686	0.580018	0.605875
O4	O	-0.719092	-0.098337	-0.060743
O5	O	-0.385759	0.234996	0.272591
O6	O	-0.052425	0.568329	0.605924
O7	O	-0.826067	0.008637	-0.060754
O8	O	-0.492733	0.341971	0.272579
O9	O	-0.159400	0.675304	0.605913
O10	O	-0.814378	-0.193623	-0.060780
O11	O	-0.481045	0.139710	0.272553
O12	O	-0.147711	0.473043	0.605887
O13	O	-0.826049	0.008643	0.060345
O14	O	-0.492715	0.341976	0.393679
O15	O	-0.159382	0.675309	0.727012
O16	O	-0.719074	-0.098332	0.060357
O17	O	-0.385741	0.235001	0.393690
O18	O	-0.052407	0.568335	0.727023
O19	O	-0.921335	-0.086643	0.060308
O20	O	-0.588001	0.246690	0.393641
O21	O	-0.254668	0.580023	0.726975
Zn22	Zn	-0.820201	-0.092487	0.079559
Zn23	Zn	-0.486868	0.240846	0.412893
Zn24	Zn	-0.153535	0.574180	0.746226
Zn25	Zn	-0.820225	-0.092494	-0.079994
Zn26	Zn	-0.486892	0.240839	0.253339
Zn27	Zn	-0.153559	0.574173	0.586672
O28	O	-0.814360	-0.193618	0.060319
O29	O	-0.481027	0.139715	0.393653
O30	O	-0.147693	0.473049	0.726986
C31	C	-0.693207	-0.097959	-0.000187
C32	C	-0.359873	0.235375	0.333147
C33	C	-0.026540	0.568708	0.666480
C34	C	-0.616103	-0.096830	-0.000167
C35	C	-0.282770	0.236504	0.333166
C36	C	0.050564	0.569837	0.666499
C37	C	-0.825682	0.034516	-0.000202
C38	C	-0.492348	0.367850	0.333131
C39	C	-0.159015	0.701183	0.666465
C40	C	-0.824553	0.111620	-0.000195
C41	C	-0.491219	0.444953	0.333138
C42	C	-0.157886	0.778287	0.666471
C43	C	-0.947220	-0.087022	-0.000250
C44	C	-0.613887	0.246311	0.333084
C45	C	-0.280553	0.579645	0.666417
C46	C	-1.024324	-0.088151	-0.000274
C47	C	-0.690990	0.245182	0.333060
C48	C	-0.357657	0.578516	0.666393
C49	C	-0.571407	-0.159598	-0.000187
C50	C	-0.238073	0.173736	0.333146
C51	C	0.095260	0.507069	0.666480
C52	C	-0.498960	-0.158537	-0.000195
C53	C	-0.165626	0.174796	0.333138
C54	C	0.167707	0.508130	0.666472
C55	C	-0.471212	-0.094705	-0.000198
C56	C	-0.137879	0.238629	0.333135
C57	C	0.195455	0.571962	0.666469
C58	C	-0.515918	-0.031929	-0.000174
C59	C	-0.182585	0.301405	0.333159
C60	C	0.150748	0.634738	0.666492
C61	C	-0.588364	-0.032991	-0.000159
C62	C	-0.255030	0.300342	0.333174
C63	C	0.078303	0.633676	0.666508
C64	C	-0.362956	-0.044527	-0.042642
C65	C	-0.029623	0.288806	0.290691
C66	C	0.303710	0.622139	0.624024
C67	C	-0.290512	-0.043468	-0.042662
C68	C	0.042821	0.289866	0.290671
C69	C	0.376155	0.623199	0.624005
C70	C	-0.247767	-0.091425	-0.000241
C71	C	0.085567	0.241908	0.333092
C72	C	0.418900	0.575242	0.666425
C73	C	-0.277473	-0.140454	0.042189
C74	C	0.055860	0.192879	0.375523
C75	C	0.389194	0.526212	0.708856
C76	C	-0.349918	-0.141517	0.042205
C77	C	-0.016585	0.191817	0.375538
C78	C	0.316748	0.525150	0.708871
C79	C	-0.392658	-0.093546	-0.000214
C80	C	-0.059325	0.239788	0.333119
C81	C	0.274009	0.573121	0.666453
C82	C	-0.124514	-0.153047	-0.000269
C83	C	0.208819	0.180286	0.333065
C84	C	0.542152	0.513619	0.666398
C85	C	-0.052066	-0.151984	-0.000272
C86	C	0.281267	0.181349	0.333061
C87	C	0.614600	0.514683	0.666395
C88	C	-0.069026	-0.025374	-0.000259
C89	C	0.264307	0.307960	0.333075
C90	C	0.597640	0.641293	0.666408
C91	C	-0.141473	-0.026439	-0.000248
C92	C	0.191860	0.306894	0.333085
C93	C	0.525194	0.640228	0.666419
C94	C	-0.169212	-0.090278	-0.000256
C95	C	0.164121	0.243056	0.333077
C96	C	0.497454	0.576389	0.666410
C97	C	-0.814745	-0.219497	-0.000234
C98	C	-0.481412	0.113836	0.333099
C99	C	-0.148078	0.447169	0.666432
C100	C	-0.815874	-0.296601	-0.000246
C101	C	-0.482541	0.036733	0.333088
C102	C	-0.149207	0.370066	0.666421
N103	N	-0.820190	-0.092482	0.188451
N104	N	-0.486857	0.240852	0.521784
N105	N	-0.153524	0.574185	0.855117
C106	C	-0.887321	0.156316	-0.000207
C107	C	-0.553987	0.489650	0.333126
C108	C	-0.220654	0.822983	0.666460
C109	C	-0.886260	0.228763	-0.000218
C110	C	-0.552927	0.562097	0.333115
C111	C	-0.219593	0.895430	0.666448
C112	C	-0.822428	0.256511	-0.000203
C113	C	-0.489094	0.589844	0.333130
C114	C	-0.155761	0.923178	0.666463
C115	C	-0.759652	0.211805	-0.000196
C116	C	-0.426318	0.545138	0.333137
C117	C	-0.092985	0.878471	0.666471
C118	C	-0.760714	0.139359	-0.000192
C119	C	-0.427381	0.472693	0.333141
C120	C	-0.094047	0.806026	0.666475
C121	C	-0.772242	0.364800	0.042227
C122	C	-0.438908	0.698133	0.375561
C123	C	-0.105575	1.031467	0.708894
C124	C	-0.771182	0.437245	0.042228
C125	C	-0.437849	0.770578	0.375561
C126	C	-0.104515	1.103911	0.708894
C127	C	-0.819148	0.479956	-0.000219
C128	C	-0.485815	0.813290	0.333114
C129	C	-0.152481	1.146623	0.666448
C130	C	-0.868186	0.450216	-0.042657
C131	C	-0.534852	0.783550	0.290677
C132	C	-0.201519	1.116883	0.624010
C133	C	-0.869248	0.377771	-0.042653
C134	C	-0.535915	0.711104	0.290681
C135	C	-0.202582	1.044438	0.624014
C136	C	-0.821269	0.335065	-0.000208
C137	C	-0.487935	0.668398	0.333125
C138	C	-0.154602	1.001732	0.666459
C139	C	-0.880770	0.603209	-0.000244
C140	C	-0.547437	0.936542	0.333090
C141	C	-0.214104	1.269875	0.666423
C142	C	-0.879707	0.675657	-0.000259
C143	C	-0.546374	1.008990	0.333074
C144	C	-0.213040	1.342323	0.666407
C145	C	-0.753097	0.658697	-0.000230
C146	C	-0.419763	0.992030	0.333104
C147	C	-0.086430	1.325363	0.666437
C148	C	-0.754162	0.586250	-0.000221
C149	C	-0.420829	0.919583	0.333112
C150	C	-0.087495	1.252917	0.666445
C151	C	-0.818001	0.558511	-0.000225
C152	C	-0.484667	0.891844	0.333109
C153	C	-0.151334	1.225177	0.666442
N154	N	-0.820242	-0.092493	-0.188885
N155	N	-0.486909	0.240840	0.144448
N156	N	-0.153575	0.574173	0.477781
C157	C	-0.867574	-0.045137	0.226546
C158	C	-0.534241	0.288197	0.559879
C159	C	-0.200907	0.621530	0.893213
C160	C	-0.867578	-0.045134	0.302774
C161	C	-0.534245	0.288200	0.636107
C162	C	-0.200912	0.621533	0.969440
C163	C	-0.820206	-0.092488	0.340903
C164	C	-0.486872	0.240846	0.674237
C165	C	-0.153539	0.574179	1.007570
C166	C	-0.772813	-0.139836	0.302799
C167	C	-0.439480	0.193497	0.636132
C168	C	-0.106146	0.526830	0.969465
C169	C	-0.772805	-0.139834	0.226572
C170	C	-0.439472	0.193500	0.559906
C171	C	-0.106139	0.526833	0.893239
C172	C	-0.810907	-0.155775	0.461657
C173	C	-0.477574	0.177558	0.794990
C174	C	-0.144241	0.510891	1.128324
C175	C	-0.810920	-0.155779	0.537882
C176	C	-0.477587	0.177554	0.871215
C177	C	-0.144253	0.510888	1.204548
C178	C	-0.820225	-0.092496	0.576011
C179	C	-0.486892	0.240837	0.909344
C180	C	-0.153559	0.574170	1.242677
C181	C	-0.829533	-0.029207	0.537905
C182	C	-0.496200	0.304127	0.871239
C183	C	-0.162866	0.637460	1.204572
C184	C	-0.829525	-0.029204	0.461679
C185	C	-0.496192	0.304129	0.795012
C186	C	-0.162859	0.637463	1.128346
C187	C	-0.820208	-0.092496	0.423558
C188	C	-0.486875	0.240838	0.756891
C189	C	-0.153542	0.574171	1.090225
C190	C	-0.867617	-0.045144	0.696761
C191	C	-0.534283	0.288190	1.030094
C192	C	-0.200950	0.621523	1.363428
C193	C	-0.867616	-0.045140	0.772990
C194	C	-0.534283	0.288194	1.106324
C195	C	-0.200949	0.621527	1.439657
C196	C	-0.772854	-0.139849	0.773014
C197	C	-0.439521	0.193485	1.106347
C198	C	-0.106187	0.526818	1.439681
C199	C	-0.772851	-0.139847	0.696786
C200	C	-0.439518	0.193487	1.030119
C201	C	-0.106184	0.526820	1.363453
C202	C	-0.820236	-0.092495	0.658664
C203	C	-0.486903	0.240838	0.991998
C204	C	-0.153569	0.574172	1.325331
H205	H	-0.593987	-0.211580	-0.000195
H206	H	-0.260654	0.121753	0.333138
H207	H	0.072680	0.455087	0.666471
H208	H	-0.837102	0.022328	0.430657
H209	H	-0.503769	0.355662	0.763990
H210	H	-0.170435	0.688995	1.097324
H211	H	-0.462561	-0.209652	-0.000209
H212	H	-0.129228	0.123682	0.333125
H213	H	0.204106	0.457015	0.666458
H214	H	-0.939303	0.133736	-0.000212
H215	H	-0.605970	0.467069	0.333121
H216	H	-0.272636	0.800403	0.666454
H217	H	-0.906156	-0.006579	0.195509
H218	H	-0.572823	0.326755	0.528843
H219	H	-0.239489	0.660088	0.862176
H220	H	-0.906200	-0.006582	0.804008
H221	H	-0.572866	0.326751	1.137342
H222	H	-0.239533	0.660085	1.470675
Br223	Br	-0.798347	-0.241669	0.409918
Br224	Br	-0.465014	0.091664	0.743251
Br225	Br	-0.131681	0.424997	1.076585
Br226	Br	-0.668972	0.525587	-0.000205
Br227	Br	-0.335639	0.858920	0.333128
Br228	Br	-0.002305	1.192253	0.666462
Br229	Br	-0.031377	0.061257	-0.000251
Br230	Br	0.301956	0.394591	0.333083
Br231	Br	0.635289	0.727924	0.666416
H232	H	-0.493322	0.020044	-0.000187
H233	H	-0.159988	0.353377	0.333147
H234	H	0.173345	0.686711	0.666480
Br235	Br	-0.708515	-0.204099	0.354543
Br236	Br	-0.375182	0.129235	0.687876
Br237	Br	-0.041849	0.462568	1.021210
H238	H	-0.909175	0.353560	-0.077208
H239	H	-0.575842	0.686893	0.256125
H240	H	-0.242508	1.020226	0.589458
H241	H	-0.734219	-0.178388	0.195554
H242	H	-0.400885	0.154945	0.528888
H243	H	-0.067552	0.488278	0.862221
H244	H	-0.731250	0.461452	0.076779
H245	H	-0.397916	0.794786	0.410112
H246	H	-0.064583	1.128119	0.743446
Br247	Br	-0.933288	0.508174	-0.100266
Br248	Br	-0.599955	0.841507	0.233067
Br249	Br	-0.266622	1.174840	0.566400
Br250	Br	-0.649028	0.052201	-0.000131
Br251	Br	-0.315694	0.385534	0.333202
Br252	Br	0.017639	0.718867	0.666536
Br253	Br	-0.798296	-0.241670	0.589589
Br254	Br	-0.464963	0.091663	0.922922
Br255	Br	-0.131630	0.424996	1.256255
H256	H	-0.932751	0.580622	-0.000250
H257	H	-0.599418	0.913956	0.333083
H258	H	-0.266085	1.247289	0.666417
Br259	Br	-0.708554	-0.204108	0.824755
Br260	Br	-0.375221	0.129225	1.158088
Br261	Br	-0.041888	0.462559	1.491421
H262	H	-0.837110	0.022324	0.568948
H263	H	-0.503777	0.355658	0.902282
H264	H	-0.170443	0.688991	1.235615
Br265	Br	-0.390233	-0.208051	0.099788
Br266	Br	-0.056900	0.125283	0.433121
Br267	Br	0.276433	0.458616	0.766455
Br268	Br	-0.219470	-0.205547	0.099762
Br269	Br	0.113863	0.127787	0.433095
Br270	Br	0.447197	0.461120	0.766429
H271	H	-0.734269	-0.178402	0.665767
H272	H	-0.400936	0.154931	0.999100
H273	H	-0.067603	0.488264	1.332433
Br274	Br	-0.931922	0.019121	0.645022
Br275	Br	-0.598588	0.352454	0.978356
Br276	Br	-0.265255	0.685787	1.311689
H277	H	-0.733180	0.330029	0.076796
H278	H	-0.399847	0.663362	0.410130
H279	H	-0.066514	0.996696	0.743463
H280	H	-0.147101	-0.205028	-0.000265
H281	H	0.186233	0.128305	0.333069
H282	H	0.519566	0.461638	0.666402
H283	H	-0.177866	0.024674	-0.000236
H284	H	0.155467	0.358007	0.333097
H285	H	0.488801	0.691340	0.666431
Br286	Br	0.008596	-0.237177	-0.000292
Br287	Br	0.341929	0.096157	0.333041
Br288	Br	0.675263	0.429490	0.666375
H289	H	-0.266331	-0.003548	-0.077215
H290	H	0.067003	0.329785	0.256119
H291	H	0.400336	0.663119	0.589452
H292	H	-0.397755	-0.005473	-0.077191
H293	H	-0.064421	0.327860	0.256143
H294	H	0.268912	0.661194	0.589476
Br295	Br	-0.666466	0.696346	-0.000217
Br296	Br	-0.333132	1.029679	0.333116
Br297	Br	0.000201	1.363012	0.666450
Br298	Br	-0.673021	0.249460	-0.000185
Br299	Br	-0.339688	0.582793	0.333148
Br300	Br	-0.006355	0.916126	0.666482
Br301	Br	-0.971451	0.289434	-0.000237
Br302	Br	-0.638117	0.622768	0.333096
Br303	Br	-0.304784	0.956101	0.666430
H304	H	-0.930822	0.712049	-0.000273
H305	H	-0.597489	1.045382	0.333060
H306	H	-0.264156	1.378715	0.666394
Br307	Br	-0.931890	0.019127	0.354484
Br308	Br	-0.598556	0.352460	0.687817
Br309	Br	-0.265223	0.685794	1.021151
H310	H	-0.709599	0.102967	-0.000182
H311	H	-0.376266	0.436300	0.333151
H312	H	-0.042933	0.769633	0.666484
