data_functionalizedCrystal
_audit_creation_method	'MofGen! by Chris Wilmer'
_symmetry_space_group_name_H-M	'P1'
_symmetry_Int_Tables_number	1
_symmetry_cell_setting	triclinic
loop_
_symmetry_equiv_pos_as_xyz
  x,y,z
_cell_length_a	17.038272
_cell_length_b	23.532407
_cell_length_c	16.098538
_cell_angle_alpha	92.700973
_cell_angle_beta	87.069734
_cell_angle_gamma	86.980117
loop_
_atom_site_label
_atom_site_type_symbol
_atom_site_fract_x
_atom_site_fract_y
_atom_site_fract_z
O1	O	1.039966	0.121251	-0.069166
O2	O	0.812351	0.119288	-0.069191
O3	O	0.933021	0.037699	-0.069163
O4	O	0.919295	0.202840	-0.069195
O5	O	0.925973	0.042445	0.069349
O6	O	0.805302	0.124034	0.069321
O7	O	1.032917	0.125997	0.069345
Zn8	Zn	0.917990	0.125769	0.091324
Zn9	Zn	0.927278	0.119516	-0.091170
O10	O	0.912247	0.207586	0.069317
C11	C	0.779712	0.119875	0.000062
C12	C	0.692959	0.114548	0.000054
C13	C	0.642483	0.163453	0.000045
C14	C	0.560969	0.158445	0.000057
C15	C	0.529932	0.104532	0.000072
C16	C	0.580415	0.055624	0.000084
C17	C	0.661927	0.060632	0.000077
C18	C	0.284304	0.086837	0.000098
C19	C	0.202786	0.081832	0.000102
C20	C	0.183345	0.184654	0.000077
C21	C	0.264860	0.189657	0.000066
C22	C	0.315335	0.140750	0.000081
C23	C	0.446612	0.099411	0.000083
C24	C	0.398653	0.145871	0.000077
C25	C	0.929147	0.018838	0.000095
C26	C	0.928096	-0.044434	0.000101
C27	C	0.992917	-0.440131	0.000063
C28	C	0.991941	-0.499583	0.000056
O29	O	1.052030	-0.533169	0.000032
N30	N	0.920202	-0.525981	0.000049
C31	C	0.849435	-0.492924	0.000040
O32	O	0.788325	-0.520836	0.000033
C33	C	0.850412	-0.433473	0.000041
C34	C	0.922155	-0.407078	0.000056
C35	C	1.064654	-0.413736	0.000077
C36	C	1.065630	-0.354288	0.000085
C37	C	0.994868	-0.321236	0.000079
C38	C	0.923131	-0.347631	0.000064
C39	C	0.779646	-0.400418	0.000026
C40	C	0.780629	-0.340963	0.000025
C41	C	0.852372	-0.314569	0.000041
C42	C	0.853344	-0.255130	0.000066
N43	N	0.925083	-0.228732	0.000073
C44	C	0.995845	-0.261785	0.000079
C45	C	0.847388	-0.617774	0.000038
C46	C	0.846410	-0.677223	0.000043
C47	C	0.988917	-0.683878	0.000058
C48	C	0.989894	-0.624428	0.000058
C49	C	0.919127	-0.591376	0.000045
C50	C	0.997889	-0.136940	0.000097
C51	C	0.998858	-0.077487	0.000108
C52	C	0.856352	-0.070837	0.000089
C53	C	0.855382	-0.130285	0.000082
C54	C	0.926157	-0.163336	0.000083
O55	O	0.793287	-0.221508	0.000086
O56	O	1.056945	-0.233865	0.000076
C57	C	1.065556	0.125410	0.000090
C58	C	1.152310	0.130737	0.000093
C59	C	0.916121	0.226447	0.000057
C60	C	0.917172	0.289719	0.000045
N61	N	0.911658	0.130036	0.215872
N62	N	0.933616	0.115244	-0.215718
C63	C	0.962894	0.095421	0.259469
C64	C	0.958471	0.098412	0.346657
C65	C	0.902816	0.136022	0.390246
C66	C	0.851574	0.170639	0.346643
C67	C	0.855994	0.167644	0.259457
C68	C	0.886795	0.146867	0.653493
C69	C	0.882380	0.149860	0.740685
C70	C	0.989277	0.077632	0.740693
C71	C	0.993694	0.074644	0.653505
C72	C	0.942450	0.109258	0.609909
C73	C	0.898295	0.139081	0.479366
C74	C	0.946968	0.106195	0.520791
H75	H	0.703024	0.020809	0.000084
C76	C	0.799636	0.205729	0.211501
N77	N	0.757186	0.234416	0.175381
C78	C	0.767486	-0.706250	0.000037
N79	N	0.708039	-0.728111	0.000026
C80	C	0.776461	-0.159320	0.000070
N81	N	0.717017	-0.181186	0.000053
H82	H	0.667745	0.207354	0.000032
H83	H	0.177520	0.037928	0.000114
C84	C	0.790345	0.212004	0.394595
N85	N	0.744226	0.243161	0.430711
C86	C	0.339817	0.033036	0.000110
N87	N	0.381632	-0.007490	0.000118
H88	H	0.142240	0.224472	0.000066
C89	C	0.837071	0.180447	0.527323
N90	N	0.790953	0.211601	0.563448
C91	C	0.546272	-0.003681	0.000102
N92	N	0.520557	-0.048351	0.000113
C93	C	0.432796	0.205173	0.000060
N94	N	0.458519	0.249840	0.000044
C95	C	1.142505	-0.450085	0.000093
N96	N	1.201147	-0.477459	0.000115
H97	H	0.421332	0.055516	0.000119
C98	C	0.298992	0.248966	0.000062
N99	N	0.324701	0.293639	0.000061
C100	C	0.769533	-0.581422	0.000034
N101	N	0.710893	-0.554044	0.000030
C102	C	0.700722	-0.429439	0.000003
N103	N	0.641271	-0.451296	-0.000017
H104	H	1.030996	0.049450	0.776196
C105	C	0.821150	0.191233	0.788632
N106	N	0.775034	0.222394	0.824745
C107	C	1.075745	-0.173287	0.000105
N108	N	1.134385	-0.200663	0.000119
H109	H	0.519874	0.198268	0.000049
C110	C	1.077784	-0.048456	0.000123
N111	N	1.137230	-0.026593	0.000131
C112	C	1.008180	0.064821	0.472840
N113	N	1.054286	0.033657	0.436716
H114	H	1.124051	-0.332803	0.000094
C115	C	1.054916	0.033267	0.605563
N116	N	1.101029	0.002102	0.569453
H117	H	0.723001	-0.314056	0.000013
H118	H	1.048313	-0.602941	0.000070
H119	H	0.798739	-0.043915	0.000087
C120	C	1.024119	0.054047	0.211529
N121	N	1.070234	0.022881	0.175423
H122	H	1.046535	-0.710801	0.000060
H123	H	1.000191	0.070225	0.382153
H124	H	0.845071	0.175052	0.618004
