data_functionalizedCrystal
_audit_creation_method	'MofGen! by Chris Wilmer'
_symmetry_space_group_name_H-M	'P1'
_symmetry_Int_Tables_number	1
_symmetry_cell_setting	triclinic
loop_
_symmetry_equiv_pos_as_xyz
  x,y,z
_cell_length_a	10.654550
_cell_length_b	16.109301
_cell_length_c	9.730223
_cell_angle_alpha	89.994178
_cell_angle_beta	89.999957
_cell_angle_gamma	83.973206
loop_
_atom_site_label
_atom_site_type_symbol
_atom_site_fract_x
_atom_site_fract_y
_atom_site_fract_z
O1	O	1.666255	0.116774	-0.114192
O2	O	1.300625	0.127899	-0.114218
O3	O	1.493484	0.001365	-0.114190
O4	O	1.473396	0.243308	-0.114220
O5	O	1.493472	0.001362	0.114390
O6	O	1.300613	0.127896	0.114362
O7	O	1.666243	0.116770	0.114388
Zn8	Zn	1.483426	0.122333	0.150667
Zn9	Zn	1.483442	0.122337	-0.150497
O10	O	1.473384	0.243304	0.114360
C11	C	1.253832	0.127081	0.000069
C12	C	1.114422	0.124637	0.000060
C13	C	1.033926	0.199138	0.000054
C14	C	0.902936	0.196836	0.000079
C15	C	0.932952	0.045526	0.000107
C16	C	1.063939	0.047828	0.000093
C17	C	1.492664	-0.029616	0.000100
C18	C	1.490225	-0.121926	0.000102
C19	C	1.598991	-0.343552	0.000088
C20	C	1.596689	-0.430286	0.000076
C21	C	1.367868	-0.411772	0.000066
C22	C	1.370172	-0.325039	0.000067
C23	C	1.485737	-0.290932	0.000085
C24	C	1.481131	-0.464398	0.000072
C25	C	1.478634	-0.558439	0.000060
C26	C	1.488234	-0.196885	0.000095
C27	C	1.713036	0.117589	0.000098
C28	C	1.852446	0.120033	0.000098
C29	C	1.474203	0.274286	0.000067
C30	C	1.476643	0.366596	0.000056
N31	N	1.483424	0.122329	0.356203
N32	N	1.483454	0.122334	-0.356033
C33	C	1.568851	0.066324	0.428141
C34	C	1.568863	0.066324	0.572024
C35	C	1.398018	0.178342	0.572018
C36	C	1.398001	0.178337	0.428138
H37	H	0.837401	0.257503	0.000077
H38	H	1.693091	-0.315784	0.000100
C39	C	1.823096	-0.439868	0.000108
C40	C	1.721182	-0.488126	0.000089
H41	H	1.899954	-0.475578	0.000123
H42	H	1.819240	-0.405650	-0.079596
H43	H	1.819218	-0.405658	0.079826
H44	H	1.725055	-0.522331	-0.079636
H45	H	1.725039	-0.522358	0.079801
C46	C	1.262735	-0.536507	0.000076
C47	C	1.240844	-0.449266	0.000066
H48	H	1.184312	-0.559651	0.000088
H49	H	1.309355	-0.554515	-0.079630
H50	H	1.309369	-0.554519	0.079792
H51	H	1.194217	-0.431254	-0.079656
H52	H	1.194204	-0.431250	0.079780
C53	C	1.143751	-0.315444	0.000071
C54	C	1.245673	-0.267192	0.000070
H55	H	1.066897	-0.279729	0.000077
H56	H	1.147610	-0.349650	-0.079635
H57	H	1.147616	-0.349664	0.079788
H58	H	1.241813	-0.232976	-0.079653
H59	H	1.241812	-0.232971	0.079783
H60	H	1.328430	0.223944	0.369562
C61	C	1.737713	-0.044408	0.442604
C62	C	1.662734	0.004752	0.349069
H63	H	1.795666	-0.082425	0.393788
H64	H	1.782872	-0.009520	0.498702
H65	H	1.685446	-0.074630	0.498743
H66	H	1.715000	0.034979	0.292937
H67	H	1.617572	-0.030140	0.292949
C68	C	1.596200	-0.046660	0.733840
C69	C	1.662769	0.004761	0.651097
H70	H	1.654178	-0.084672	0.782648
H71	H	1.545347	-0.013305	0.797272
H72	H	1.543944	-0.076888	0.677708
H73	H	1.715018	0.034994	0.707230
H74	H	1.713644	-0.028598	0.587658
C75	C	1.228660	-0.037361	-0.117412
C76	C	1.152435	-0.034069	0.000095
H77	H	1.283298	-0.087916	-0.117400
H78	H	1.176931	-0.035121	-0.197103
H79	H	1.277464	0.008717	-0.117410
H80	H	1.103625	-0.080143	0.000088
H81	H	1.204170	-0.036317	0.079808
C82	C	1.229131	0.289058	0.557560
C83	C	1.304124	0.239906	0.651092
H84	H	1.171159	0.327061	0.606377
H85	H	1.281376	0.319287	0.501430
H86	H	1.183981	0.254157	0.501453
H87	H	1.349281	0.274806	0.707192
H88	H	1.251872	0.209674	0.707245
H89	H	0.891833	-0.017009	0.000143
C90	C	0.991095	0.348469	0.000045
C91	C	1.089418	0.283564	0.000036
H92	H	1.025354	0.400591	0.000046
H93	H	0.940626	0.344426	-0.079655
H94	H	0.940636	0.344414	0.079767
H95	H	1.139873	0.287615	-0.079691
H96	H	1.139908	0.287609	0.079745
