data_functionalizedCrystal
_audit_creation_method	'MofGen! by Chris Wilmer'
_symmetry_space_group_name_H-M	'P1'
_symmetry_Int_Tables_number	1
_symmetry_cell_setting	triclinic
loop_
_symmetry_equiv_pos_as_xyz
  x,y,z
_cell_length_a	21.295418
_cell_length_b	21.295417
_cell_length_c	21.395355
_cell_angle_alpha	89.979596
_cell_angle_beta	89.956257
_cell_angle_gamma	90.045515
loop_
_atom_site_label
_atom_site_type_symbol
_atom_site_fract_x
_atom_site_fract_y
_atom_site_fract_z
Zn1	Zn	0.962359	-0.250416	-0.354574
Zn2	Zn	1.295693	0.082917	-0.021241
Zn3	Zn	1.629026	0.416250	0.312093
Zn4	Zn	0.962263	-0.355668	-0.249793
Zn5	Zn	1.295597	-0.022335	0.083540
Zn6	Zn	1.628930	0.310999	0.416874
Zn7	Zn	0.857083	-0.250446	-0.249776
Zn8	Zn	1.190416	0.082888	0.083558
Zn9	Zn	1.523749	0.416221	0.416891
Zn10	Zn	0.857053	-0.355681	-0.354498
Zn11	Zn	1.190387	-0.022347	-0.021165
Zn12	Zn	1.523720	0.310986	0.312168
O13	O	0.909690	-0.303053	-0.302160
O14	O	1.243023	0.030281	0.031173
O15	O	1.576356	0.363614	0.364506
O16	O	1.050436	-0.264361	-0.340714
O17	O	1.383769	0.068973	-0.007380
O18	O	1.717103	0.402306	0.325953
O19	O	0.948283	-0.341717	-0.162113
O20	O	1.281616	-0.008383	0.171220
O21	O	1.614949	0.324950	0.504554
O22	O	0.871100	-0.162352	-0.263702
O23	O	1.204433	0.170981	0.069631
O24	O	1.537767	0.504314	0.402965
O25	O	1.050365	-0.341688	-0.263732
O26	O	1.383699	-0.008355	0.069602
O27	O	1.717032	0.324978	0.402935
O28	O	0.948447	-0.162331	-0.340697
O29	O	1.281780	0.171002	-0.007364
O30	O	1.615113	0.504336	0.325970
O31	O	0.871007	-0.264410	-0.162100
O32	O	1.204340	0.068923	0.171233
O33	O	1.537674	0.402256	0.504567
O34	O	0.768989	-0.264423	-0.263628
O35	O	1.102323	0.068910	0.069705
O36	O	1.435656	0.402244	0.403038
O37	O	0.871050	-0.341710	-0.442186
O38	O	1.204384	-0.008377	-0.108853
O39	O	1.537717	0.324956	0.224480
O40	O	0.768968	-0.341739	-0.340568
O41	O	1.102301	-0.008405	-0.007234
O42	O	1.435635	0.324928	0.326099
O43	O	0.948418	-0.264373	-0.442242
O44	O	1.281752	0.068960	-0.108909
O45	O	1.615085	0.402294	0.224425
O46	O	0.948254	-0.443759	-0.263658
O47	O	1.281588	-0.110426	0.069675
O48	O	1.614921	0.222908	0.403009
O49	O	0.870957	-0.443768	-0.340584
O50	O	1.204291	-0.110435	-0.007251
O51	O	1.537624	0.222898	0.326082
C52	C	0.909609	-0.466604	-0.302129
C53	C	1.242943	-0.133271	0.031205
C54	C	1.576276	0.200062	0.364538
C55	C	0.909633	-0.536572	-0.302136
C56	C	1.242966	-0.203239	0.031197
C57	C	1.576299	0.130094	0.364531
C58	C	0.746138	-0.303086	-0.302088
C59	C	1.079471	0.030248	0.031245
C60	C	1.412805	0.363581	0.364578
C61	C	0.676170	-0.303115	-0.302072
C62	C	1.009503	0.030218	0.031261
C63	C	1.342836	0.363552	0.364594
C64	C	0.949884	-0.569371	-0.342256
C65	C	1.283217	-0.236037	-0.008922
C66	C	1.616551	0.097296	0.324411
C67	C	0.949906	-0.635113	-0.342271
C68	C	1.283239	-0.301780	-0.008938
C69	C	1.616573	0.031553	0.324395
C70	C	0.909684	-0.668055	-0.302156
C71	C	1.243017	-0.334722	0.031178
C72	C	1.576350	-0.001388	0.364511
C73	C	0.869425	-0.635249	-0.262033
C74	C	1.202758	-0.301915	0.071300
C75	C	1.536091	0.031418	0.404634
C76	C	0.869399	-0.569507	-0.262023
C77	C	1.202732	-0.236174	0.071310
C78	C	1.536066	0.097159	0.404644
N79	N	0.904924	-0.771308	-0.247320
N80	N	1.238258	-0.437975	0.086013
N81	N	1.571591	-0.104642	0.419346
N82	N	0.904952	-0.833760	-0.247332
N83	N	1.238285	-0.500426	0.086002
N84	N	1.571619	-0.167093	0.419335
C85	C	0.909757	-0.866130	-0.302184
C86	C	1.243091	-0.532796	0.031149
C87	C	1.576424	-0.199463	0.364483
N88	N	0.914546	-0.833689	-0.357026
N89	N	1.247879	-0.500355	-0.023693
N90	N	1.581212	-0.167022	0.309641
N91	N	0.914521	-0.771231	-0.357014
N92	N	1.247854	-0.437898	-0.023681
N93	N	1.581188	-0.104565	0.309652
C94	C	0.909707	-0.739340	-0.302162
C95	C	1.243040	-0.406007	0.031171
C96	C	1.576373	-0.072674	0.364504
C97	C	0.950035	-0.970213	-0.342324
C98	C	1.283368	-0.636880	-0.008991
C99	C	1.616701	-0.303547	0.324343
C100	C	0.950053	-1.035957	-0.342341
C101	C	1.283386	-0.702624	-0.009007
C102	C	1.616719	-0.369290	0.324326
C103	C	0.869574	-1.036091	-0.262097
C104	C	1.202908	-0.702758	0.071237
C105	C	1.536241	-0.369425	0.404570
C106	C	0.869553	-0.970349	-0.262086
C107	C	1.202887	-0.637015	0.071248
C108	C	1.536220	-0.303682	0.404581
C109	C	0.909787	-0.937414	-0.302199
C110	C	1.243120	-0.604080	0.031135
C111	C	1.576453	-0.270747	0.364468
C112	C	0.643308	-0.343427	-0.342075
C113	C	0.976642	-0.010093	-0.008741
C114	C	1.309975	0.323240	0.324592
C115	C	0.577566	-0.343411	-0.342103
C116	C	0.910899	-0.010078	-0.008769
C117	C	1.244233	0.323255	0.324564
C118	C	0.544687	-0.303091	-0.302117
C119	C	0.878021	0.030243	0.031216
C120	C	1.211354	0.363576	0.364549
C121	C	0.577557	-0.262771	-0.262112
C122	C	0.910890	0.070562	0.071221
C123	C	1.244223	0.403895	0.404555
C124	C	0.643298	-0.262783	-0.262090
C125	C	0.976631	0.070550	0.071244
C126	C	1.309964	0.403883	0.404577
N127	N	0.441411	-0.298163	-0.247317
N128	N	0.774745	0.035170	0.086017
N129	N	1.108078	0.368503	0.419350
N130	N	0.378960	-0.298156	-0.247340
N131	N	0.712293	0.035178	0.085993
N132	N	1.045627	0.368511	0.419327
C133	C	0.346613	-0.303051	-0.302184
C134	C	0.679946	0.030283	0.031150
C135	C	1.013279	0.363616	0.364483
N136	N	0.379076	-0.307966	-0.357005
N137	N	0.712410	0.025367	-0.023671
N138	N	1.045743	0.358701	0.309662
N139	N	0.441533	-0.307977	-0.356981
N140	N	0.774867	0.025356	-0.023647
N141	N	1.108200	0.358689	0.309686
C142	C	0.473402	-0.303073	-0.302138
C143	C	0.806735	0.030261	0.031196
C144	C	1.140069	0.363594	0.364529
C145	C	0.242466	-0.343348	-0.342220
C146	C	0.575799	-0.010014	-0.008887
C147	C	0.909133	0.323319	0.324447
C148	C	0.176722	-0.343328	-0.342249
C149	C	0.510056	-0.009994	-0.008916
C150	C	0.843389	0.323339	0.324418
C151	C	0.176714	-0.262691	-0.262253
C152	C	0.510047	0.070642	0.071080
C153	C	0.843381	0.403976	0.404414
C154	C	0.242456	-0.262708	-0.262229
C155	C	0.575790	0.070626	0.071104
C156	C	0.909123	0.403959	0.404437
C157	C	0.275328	-0.303039	-0.302212
C158	C	0.608662	0.030294	0.031121
C159	C	0.941995	0.363627	0.364455
C160	C	1.073880	-0.303020	-0.302233
C161	C	1.407213	0.030313	0.031100
C162	C	1.740547	0.363647	0.364434
C163	C	1.143848	-0.303006	-0.302264
C164	C	1.477181	0.030327	0.031069
C165	C	1.810515	0.363661	0.364403
C166	C	0.909742	-0.303040	-0.465584
C167	C	1.243075	0.030293	-0.132250
C168	C	1.576409	0.363627	0.201083
C169	C	0.909764	-0.303034	-0.535225
C170	C	1.243097	0.030299	-0.201892
C171	C	1.576431	0.363632	0.131442
C172	C	0.909787	-0.138862	-0.302206
C173	C	1.243121	0.194471	0.031127
C174	C	1.576454	0.527804	0.364461
C175	C	0.909829	-0.068894	-0.302225
C176	C	1.243162	0.264439	0.031108
C177	C	1.576496	0.597772	0.364441
C178	C	0.950048	-0.262763	-0.567968
C179	C	1.283381	0.070570	-0.234635
C180	C	1.616715	0.403903	0.098699
C181	C	0.950047	-0.262736	-0.633404
C182	C	1.283380	0.070597	-0.300070
C183	C	1.616714	0.403930	0.033263
C184	C	0.909769	-0.302992	-0.666093
C185	C	1.243102	0.030342	-0.332760
C186	C	1.576436	0.363675	0.000573
C187	C	0.869478	-0.343266	-0.633342
C188	C	1.202811	-0.009932	-0.300009
C189	C	1.536144	0.323401	0.033324
C190	C	0.869475	-0.343287	-0.567908
C191	C	1.202808	-0.009954	-0.234575
C192	C	1.536142	0.323380	0.098759
C193	C	0.904771	-0.359673	-0.769755
C194	C	1.238104	-0.026340	-0.436422
C195	C	1.571437	0.306994	-0.103089
C196	C	0.904778	-0.359653	-0.835188
C197	C	1.238111	-0.026319	-0.501855
C198	C	1.571444	0.307014	-0.168522
C199	C	0.909773	-0.302925	-0.867914
C200	C	1.243106	0.030408	-0.534581
C201	C	1.576440	0.363742	-0.201248
C202	C	0.914775	-0.246216	-0.835199
C203	C	1.248108	0.087117	-0.501866
C204	C	1.581441	0.420451	-0.168532
C205	C	0.914772	-0.246238	-0.769765
C206	C	1.248106	0.087096	-0.436431
C207	C	1.581439	0.420429	-0.103098
C208	C	0.909767	-0.302973	-0.737046
C209	C	1.243100	0.030361	-0.403712
C210	C	1.576434	0.363694	-0.070379
C211	C	0.950058	-0.262621	-0.971610
C212	C	1.283391	0.070712	-0.638277
C213	C	1.616725	0.404046	-0.304943
C214	C	0.950053	-0.262593	-1.037047
C215	C	1.283386	0.070740	-0.703713
C216	C	1.616719	0.404074	-0.370380
C217	C	0.869486	-0.343128	-1.036984
C218	C	1.202820	-0.009795	-0.703651
C219	C	1.536153	0.323539	-0.370317
C220	C	0.869488	-0.343151	-0.971549
C221	C	1.202822	-0.009817	-0.638215
C222	C	1.536155	0.323516	-0.304882
C223	C	0.909777	-0.302898	-0.938866
C224	C	1.243111	0.030435	-0.605532
C225	C	1.576444	0.363769	-0.272199
C226	C	0.909674	-0.303020	-0.139373
C227	C	1.243007	0.030313	0.193961
C228	C	1.576340	0.363647	0.527294
C229	C	0.909774	-0.302848	-0.069732
C230	C	1.243107	0.030485	0.263601
C231	C	1.576440	0.363819	0.596935
H232	H	0.982678	-0.661823	-0.374949
H233	H	1.316012	-0.328490	-0.041616
H234	H	1.649345	0.004844	0.291718
O235	O	0.141323	-0.386849	-0.385396
O236	O	0.474656	-0.053516	-0.052063
O237	O	0.807990	0.279817	0.281271
H238	H	0.111432	-0.358764	-0.417374
H239	H	0.444765	-0.025431	-0.084040
H240	H	0.778098	0.307902	0.249293
H241	H	0.918843	-0.200063	-0.743131
H242	H	1.252176	0.133270	-0.409797
H243	H	1.585510	0.466603	-0.076464
O244	O	0.542110	-0.386916	-0.385225
O245	O	0.875443	-0.053582	-0.051892
O246	O	1.208777	0.279751	0.281442
H247	H	0.576013	-0.414973	-0.413013
H248	H	0.909346	-0.081639	-0.079679
H249	H	1.242679	0.251694	0.253654
O250	O	0.826048	-0.670773	-0.218756
O251	O	1.159381	-0.337439	0.114577
O252	O	1.492715	-0.004106	0.447911
H253	H	0.832835	-0.721998	-0.225496
H254	H	1.166168	-0.388664	0.107838
H255	H	1.499502	-0.055331	0.441171
H256	H	0.982793	-0.943397	-0.374988
H257	H	1.316127	-0.610063	-0.041655
H258	H	1.649460	-0.276730	0.291678
H259	H	0.550783	-0.229941	-0.229557
H260	H	0.884116	0.103393	0.103776
H261	H	1.217449	0.436726	0.437110
H262	H	0.269212	-0.229884	-0.229652
H263	H	0.602546	0.103449	0.103681
H264	H	0.935879	0.436782	0.437015
O265	O	0.920146	-0.185022	-0.870484
O266	O	1.253479	0.148311	-0.537151
O267	O	1.586813	0.481644	-0.203817
H268	H	0.919294	-0.194530	-0.921480
H269	H	1.252627	0.138803	-0.588147
H270	H	1.585961	0.472136	-0.254814
O271	O	0.899376	-0.420864	-0.734465
O272	O	1.232710	-0.087531	-0.401132
O273	O	1.566043	0.245802	-0.067799
H274	H	0.941537	-0.427291	-0.704679
H275	H	1.274870	-0.093958	-0.371345
H276	H	1.608203	0.239375	-0.038012
H277	H	0.982860	-0.229842	-0.944998
H278	H	1.316193	0.103492	-0.611665
H279	H	1.649527	0.436825	-0.278331
H280	H	0.836685	-0.375898	-1.063599
H281	H	1.170018	-0.042565	-0.730266
H282	H	1.503352	0.290768	-0.396933
H283	H	0.982855	-0.229796	-1.063705
H284	H	1.316189	0.103538	-0.730372
H285	H	1.649522	0.436871	-0.397038
H286	H	0.836779	-0.943643	-0.229414
H287	H	1.170113	-0.610309	0.103920
H288	H	1.503446	-0.276976	0.437253
O289	O	0.826023	-0.386569	-0.936226
O290	O	1.159356	-0.053236	-0.602893
O291	O	1.492689	0.280098	-0.269559
H292	H	0.798009	-0.414553	-0.969948
H293	H	1.131342	-0.081219	-0.636615
H294	H	1.464675	0.252114	-0.303282
O295	O	0.678748	-0.219315	-0.218931
O296	O	1.012081	0.114018	0.114402
O297	O	1.345414	0.447352	0.447736
H298	H	0.644843	-0.191278	-0.191125
H299	H	0.978177	0.142055	0.142208
H300	H	1.311510	0.475389	0.475542
H301	H	0.269232	-0.376185	-0.374779
H302	H	0.602565	-0.042851	-0.041446
H303	H	0.935898	0.290482	0.291887
H304	H	0.900709	-0.405829	-0.861820
H305	H	1.234042	-0.072495	-0.528487
H306	H	1.567375	0.260838	-0.195153
O307	O	0.826009	-0.386716	-0.532595
O308	O	1.159342	-0.053382	-0.199262
O309	O	1.492676	0.279951	0.134072
H310	H	0.836765	-0.436118	-0.545155
H311	H	1.170098	-0.102785	-0.211821
H312	H	1.503431	0.230548	0.121512
H313	H	0.149945	-0.229858	-0.229699
H314	H	0.483278	0.103475	0.103634
H315	H	0.816612	0.436809	0.436968
H316	H	0.982854	-0.229986	-0.541362
H317	H	1.316187	0.103348	-0.208028
H318	H	1.649520	0.436681	0.125305
H319	H	0.836681	-0.376040	-0.659963
H320	H	1.170014	-0.042706	-0.326629
H321	H	1.503348	0.290627	0.006704
O322	O	0.993465	-1.071338	-0.385618
O323	O	1.326798	-0.738004	-0.052285
O324	O	1.660131	-0.404671	0.281049
H325	H	1.042871	-1.058675	-0.374925
H326	H	1.376204	-0.725342	-0.041592
H327	H	1.709538	-0.392009	0.291741
O328	O	0.993287	-0.533846	-0.385507
O329	O	1.326621	-0.200513	-0.052174
O330	O	1.659954	0.132820	0.281159
H331	H	1.021283	-0.567702	-0.413406
H332	H	1.354616	-0.234369	-0.080073
H333	H	1.687949	0.098964	0.253261
H334	H	0.836820	-1.062912	-0.229438
H335	H	1.170154	-0.729578	0.103896
H336	H	1.503487	-0.396245	0.437229
O337	O	0.825992	-0.534126	-0.218741
O338	O	1.159326	-0.200792	0.114592
O339	O	1.492659	0.132541	0.447925
H340	H	0.798029	-0.568074	-0.190844
H341	H	1.131362	-0.234740	0.142489
H342	H	1.464695	0.098593	0.475823
O343	O	0.678765	-0.386916	-0.385205
O344	O	1.012098	-0.053583	-0.051872
O345	O	1.345432	0.279750	0.281462
H346	H	0.644865	-0.414940	-0.413031
H347	H	0.978198	-0.081607	-0.079698
H348	H	1.311532	0.251726	0.253635
H349	H	0.982849	-0.229939	-0.660068
H350	H	1.316183	0.103394	-0.326735
H351	H	1.649516	0.436728	0.006598
