data_functionalizedCrystal
_audit_creation_method	'MofGen! by Chris Wilmer'
_symmetry_space_group_name_H-M	'P1'
_symmetry_Int_Tables_number	1
_symmetry_cell_setting	triclinic
loop_
_symmetry_equiv_pos_as_xyz
  x,y,z
_cell_length_a	12.827893
_cell_length_b	12.759400
_cell_length_c	12.827885
_cell_angle_alpha	89.969506
_cell_angle_beta	89.980728
_cell_angle_gamma	90.014655
loop_
_atom_site_label
_atom_site_type_symbol
_atom_site_fract_x
_atom_site_fract_y
_atom_site_fract_z
Zn1	Zn	1.597675	-0.418216	-0.590844
Zn2	Zn	2.097675	0.081784	-0.090844
Zn3	Zn	1.597571	-0.593932	-0.416102
Zn4	Zn	2.097571	-0.093932	0.083898
Zn5	Zn	1.422916	-0.418267	-0.416117
Zn6	Zn	1.922916	0.081733	0.083883
Zn7	Zn	1.422904	-0.593854	-0.590802
Zn8	Zn	1.922904	-0.093854	-0.090802
O9	O	1.510266	-0.506067	-0.503466
O10	O	2.010266	-0.006067	-0.003466
O11	O	1.743897	-0.441537	-0.567675
O12	O	2.243897	0.058463	-0.067675
O13	O	1.574365	-0.570684	-0.269868
O14	O	2.074365	-0.070684	0.230132
O15	O	1.446147	-0.271240	-0.439319
O16	O	1.946147	0.228760	0.060681
O17	O	1.743821	-0.570634	-0.439293
O18	O	2.243821	-0.070634	0.060707
O19	O	1.574541	-0.271202	-0.567690
O20	O	2.074541	0.228798	-0.067690
O21	O	1.446046	-0.441624	-0.269879
O22	O	1.946046	0.058376	0.230121
O23	O	1.276678	-0.441548	-0.439278
O24	O	1.776678	0.058452	0.060722
O25	O	1.446125	-0.570501	-0.737043
O26	O	1.946125	-0.070501	-0.237043
O27	O	1.276669	-0.570550	-0.567618
O28	O	1.776669	-0.070550	-0.067618
O29	O	1.574529	-0.441461	-0.737074
O30	O	2.074529	0.058539	-0.237074
O31	O	1.574352	-0.740942	-0.439252
O32	O	2.074352	-0.240942	0.060748
O33	O	1.446025	-0.740885	-0.567603
O34	O	1.946025	-0.240885	-0.067603
C35	C	1.238756	-0.506047	-0.503446
C36	C	1.738756	-0.006047	-0.003446
C37	C	1.122603	-0.506064	-0.503462
C38	C	1.622603	-0.006064	-0.003462
C39	C	1.070842	-0.569998	-0.566871
C40	C	1.570842	-0.069998	-0.066871
C41	C	0.950791	-0.570017	-0.566889
C42	C	1.450791	-0.070017	-0.066889
C43	C	1.510204	-0.779035	-0.503444
C44	C	2.010204	-0.279035	-0.003444
C45	C	1.510273	-0.895811	-0.503470
C46	C	2.010273	-0.395811	-0.003470
C47	C	1.577168	-0.950668	-0.436711
C48	C	2.077168	-0.450668	0.063289
C49	C	1.577232	-1.060392	-0.436743
C50	C	2.077232	-0.560392	0.063257
C51	C	1.443499	-1.060393	-0.570296
C52	C	1.943499	-0.560393	-0.070296
C53	C	1.443440	-0.950671	-0.570268
C54	C	1.943440	-0.450671	-0.070268
C55	C	1.644001	-0.895809	-0.369913
C56	C	2.144001	-0.395809	0.130087
C57	C	1.710899	-0.950666	-0.303148
C58	C	2.210899	-0.450666	0.196852
C59	C	1.710964	-1.060390	-0.303180
C60	C	2.210964	-0.560390	0.196820
C61	C	1.644129	-1.115257	-0.369977
C62	C	2.144129	-0.615257	0.130023
C63	C	1.782836	-0.506088	-0.503487
C64	C	2.282836	-0.006088	-0.003487
C65	C	1.898990	-0.506097	-0.503495
C66	C	2.398990	-0.006097	-0.003495
C67	C	1.510337	-0.505966	-0.776036
C68	C	2.010337	-0.005966	-0.276036
C69	C	1.510368	-0.505923	-0.892190
C70	C	2.010368	-0.005923	-0.392190
C71	C	1.510357	-0.232034	-0.503511
C72	C	2.010357	0.267966	-0.003511
C73	C	1.510396	-0.115257	-0.503530
C74	C	2.010396	0.384743	-0.003530
C75	C	1.573913	-0.442058	-0.943989
C76	C	2.073913	0.057942	-0.443989
C77	C	1.573946	-0.442012	-1.064040
C78	C	2.073946	0.057988	-0.564040
C79	C	1.510256	-0.506092	-0.231956
C80	C	2.010256	-0.006092	0.268044
C81	C	1.510428	-0.505839	-0.115803
C82	C	2.010428	-0.005839	0.384197
H83	H	0.906277	-0.624756	-0.621173
H84	H	1.406277	-0.124756	-0.121173
C85	C	1.784554	-1.120730	-0.229740
C86	C	2.284554	-0.620730	0.270260
N87	N	1.839981	-1.166176	-0.174418
N88	N	2.339981	-0.666176	0.325582
C89	C	1.369976	-1.120751	-0.643757
C90	C	1.869976	-0.620751	-0.143757
N91	N	1.314593	-1.166212	-0.699085
N92	N	1.814593	-0.666212	-0.199085
C93	C	1.647376	-0.368231	-0.883838
C94	C	2.147376	0.131769	-0.383838
N95	N	1.702711	-0.312622	-0.838533
N96	N	2.202711	0.187378	-0.338533
C97	C	1.369838	-0.890324	-0.643691
C98	C	1.869838	-0.390324	-0.143691
N99	N	1.314395	-0.844872	-0.698991
N100	N	1.814395	-0.344872	-0.198991
C101	C	1.644207	-1.235957	-0.370012
C102	C	2.144207	-0.735957	0.129988
N103	N	1.644263	-1.326868	-0.370034
N104	N	2.144263	-0.826868	0.129966
H105	H	1.765320	-0.905988	-0.248770
H106	H	2.265320	-0.405988	0.251230
H107	H	1.078042	-0.451337	-0.449194
H108	H	1.578042	0.048663	0.050806
H109	H	1.628352	-0.387338	-1.108587
H110	H	2.128352	0.112662	-0.608587
C111	C	0.959116	-0.432142	-0.430154
C112	C	1.459116	0.067858	0.069846
N113	N	1.004411	-0.376436	-0.374915
N114	N	1.504411	0.123564	0.125085
H115	H	1.456025	-0.560523	-1.071264
H116	H	1.956025	-0.060523	-0.571264
C117	C	1.436897	-0.579744	-0.952341
C118	C	1.936897	-0.079744	-0.452341
N119	N	1.381557	-0.635347	-0.997646
N120	N	1.881557	-0.135347	-0.497646
H121	H	1.115403	-0.624717	-0.621148
H122	H	1.615403	-0.124717	-0.121148
C123	C	1.643951	-0.775111	-0.369886
C124	C	2.143951	-0.275111	0.130114
N125	N	1.643917	-0.684200	-0.369872
N126	N	2.143917	-0.184200	0.130128
