data_functionalizedCrystal
_audit_creation_method	'MofGen! by Chris Wilmer'
_symmetry_space_group_name_H-M	'P1'
_symmetry_Int_Tables_number	1
_symmetry_cell_setting	triclinic
loop_
_symmetry_equiv_pos_as_xyz
  x,y,z
_cell_length_a	16.992694
_cell_length_b	11.892095
_cell_length_c	16.992695
_cell_angle_alpha	94.154891
_cell_angle_beta	89.331777
_cell_angle_gamma	94.159293
loop_
_atom_site_label
_atom_site_type_symbol
_atom_site_fract_x
_atom_site_fract_y
_atom_site_fract_z
O1	O	1.055561	0.093862	-0.162207
O2	O	0.827163	0.093895	-0.160374
O3	O	0.940446	0.093870	-0.047091
O4	O	0.942278	0.093887	-0.275490
O5	O	0.931000	-0.094136	-0.056520
O6	O	0.817717	-0.094110	-0.169803
O7	O	1.046115	-0.094143	-0.171636
Zn8	Zn	0.930416	-0.123977	-0.172217
Zn9	Zn	0.942862	0.123729	-0.159793
O10	O	0.932832	-0.094118	-0.284920
C11	C	0.793080	-0.000103	-0.162733
C12	C	0.705596	-0.000091	-0.155703
N13	N	0.921928	-0.293029	-0.180696
C14	C	0.659605	-0.000086	-0.223521
C15	C	0.577404	-0.000102	-0.216913
C16	C	0.541195	-0.000115	-0.142486
C17	C	0.587191	-0.000123	-0.074663
C18	C	0.669391	-0.000115	-0.081272
C19	C	0.295879	-0.000147	-0.115093
C20	C	0.213673	-0.000152	-0.108489
C21	C	0.203891	-0.000134	-0.250739
C22	C	0.286093	-0.000119	-0.257341
C23	C	0.332082	-0.000133	-0.189519
N24	N	0.457172	-0.000128	-0.135729
N25	N	0.416103	-0.000128	-0.196277
C26	C	1.010419	-0.529697	-0.092262
C27	C	1.004491	-0.648037	-0.098195
C28	C	0.904143	-0.648053	-0.198490
C29	C	0.910070	-0.529712	-0.192557
C30	C	0.963210	-0.470538	-0.139442
C31	C	0.969141	-0.352195	-0.133514
C32	C	0.868789	-0.352213	-0.233805
C33	C	0.862862	-0.470554	-0.239738
C34	C	1.080198	-0.000142	-0.169277
C35	C	1.167683	-0.000147	-0.176306
C36	C	0.933367	-0.000132	-0.022445
C37	C	0.926339	-0.000131	0.065039
N38	N	0.951356	0.292781	-0.151308
C39	C	0.939911	-0.000113	-0.309565
C40	C	0.946940	-0.000107	-0.397049
C41	C	0.994156	-0.000142	0.111030
C42	C	0.987548	-0.000130	0.193231
C43	C	0.913121	-0.000116	0.229440
C44	C	0.845298	-0.000101	0.183444
C45	C	0.851908	-0.000105	0.101244
C46	C	0.885727	-0.000096	0.474755
C47	C	0.879123	-0.000096	0.556961
C48	C	1.021373	-0.000123	0.566742
C49	C	1.027975	-0.000133	0.484541
C50	C	0.960153	-0.000113	0.438552
N51	N	0.906364	-0.000107	0.313463
N52	N	0.966911	-0.000113	0.354531
H53	H	0.539961	-0.000098	-0.272137
H54	H	0.315569	-0.000096	-0.317947
H55	H	0.784699	-0.000082	0.212932
H56	H	0.166438	-0.000125	-0.305956
H57	H	0.689080	-0.000075	-0.284127
H58	H	1.088581	-0.000146	0.455065
C59	C	1.162642	-0.000147	0.568153
C60	C	1.095921	-0.000134	0.617294
H61	H	1.208666	-0.000157	0.599363
H62	H	1.165552	0.065409	0.539175
H63	H	1.158961	-0.065715	0.532603
H64	H	1.099598	0.065439	0.652842
H65	H	1.093010	-0.065696	0.646286
C66	C	0.781676	0.096557	0.007974
C67	C	0.777361	-0.000092	0.050689
H68	H	0.735650	0.096570	-0.023232
H69	H	0.826942	0.096539	-0.025350
H70	H	0.785350	0.162109	0.043540
H71	H	0.773693	-0.065645	0.015123
H72	H	0.732082	-0.000085	0.084016
C73	C	1.103885	-0.781102	-0.094550
C74	C	1.056385	-0.713067	-0.046334
H75	H	1.135919	-0.821253	-0.062529
H76	H	1.136565	-0.734929	-0.126783
H77	H	1.071384	-0.833280	-0.127027
H78	H	1.088887	-0.660883	-0.013861
H79	H	1.023702	-0.759244	-0.014087
H80	H	0.557703	-0.000149	-0.014064
C81	C	1.134099	-0.000149	0.128964
C82	C	1.075970	-0.000150	0.071233
H83	H	1.184608	-0.000143	0.104396
H84	H	1.125272	-0.065706	0.157533
H85	H	1.131846	0.065417	0.164109
H86	H	1.078219	-0.065721	0.036092
H87	H	1.084800	0.065414	0.042651
C88	C	0.805526	-0.636196	-0.297015
C89	C	0.845720	-0.713109	-0.256857
H90	H	0.769453	-0.676361	-0.333041
H91	H	0.842375	-0.590047	-0.325101
H92	H	0.777482	-0.590029	-0.260134
H93	H	0.873770	-0.759270	-0.293737
H94	H	0.808867	-0.759276	-0.228770
C95	C	0.739173	-0.000035	0.539041
C96	C	0.797307	-0.000062	0.596764
H97	H	0.688668	-0.000006	0.563617
H98	H	0.741403	-0.065595	0.503901
H99	H	0.748016	0.065529	0.510468
H100	H	0.788468	-0.065630	0.625334
H101	H	0.795074	0.065505	0.631919
H102	H	0.819593	-0.518747	-0.282981
C103	C	0.201547	0.096469	0.019650
C104	C	0.173869	-0.000168	-0.026673
H105	H	0.176975	0.096455	0.070157
H106	H	0.189354	0.162023	-0.005201
H107	H	0.257084	0.096454	0.025420
H108	H	0.118333	-0.000149	-0.032448
H109	H	0.186056	-0.065739	-0.001816
C110	C	0.815480	0.096571	0.381502
C111	C	0.811174	-0.000079	0.424216
H112	H	0.769448	0.096582	0.350304
H113	H	0.860740	0.096556	0.348171
H114	H	0.819158	0.162123	0.417068
H115	H	0.807502	-0.065632	0.388649
H116	H	0.765901	-0.000074	0.457550
H117	H	0.706836	-0.000117	-0.026048
C118	C	0.398831	0.096502	-0.035149
C119	C	0.346423	-0.000147	-0.040541
H120	H	0.430039	0.096498	0.010877
H121	H	0.369846	0.162048	-0.032242
H122	H	0.432160	0.096492	-0.080421
H123	H	0.313090	-0.000133	0.004728
H124	H	0.375410	-0.065710	-0.043442
C125	C	1.067728	-0.364071	-0.034965
C126	C	1.027548	-0.287148	-0.075128
H127	H	1.103781	-0.323913	0.001085
H128	H	1.095786	-0.410218	-0.071834
H129	H	1.030863	-0.410238	-0.006898
H130	H	1.064413	-0.240986	-0.103200
H131	H	0.999489	-0.240982	-0.038253
C132	C	0.865091	-0.219141	-0.333195
C133	C	0.816896	-0.287186	-0.285676
H134	H	0.833057	-0.178993	-0.365215
H135	H	0.897314	-0.265307	-0.365887
H136	H	0.897580	-0.166961	-0.300706
H137	H	0.784411	-0.339372	-0.318165
H138	H	0.784659	-0.241016	-0.252980
C139	C	1.040581	-0.000112	0.323582
C140	C	1.062095	-0.000134	0.243785
H141	H	1.086607	-0.000103	0.354790
H142	H	1.006988	-0.065665	0.331759
H143	H	1.013567	0.065459	0.338314
H144	H	1.089103	-0.065710	0.229051
H145	H	1.095700	0.065425	0.235603
H146	H	1.053693	-0.481516	-0.049019
