data_functionalizedCrystal
_audit_creation_method	'MofGen! by Chris Wilmer'
_symmetry_space_group_name_H-M	'P1'
_symmetry_Int_Tables_number	1
_symmetry_cell_setting	triclinic
loop_
_symmetry_equiv_pos_as_xyz
  x,y,z
_cell_length_a	10.967926
_cell_length_b	11.026607
_cell_length_c	10.065875
_cell_angle_alpha	100.732634
_cell_angle_beta	93.120479
_cell_angle_gamma	96.380568
loop_
_atom_site_label
_atom_site_type_symbol
_atom_site_fract_x
_atom_site_fract_y
_atom_site_fract_z
O1	O	1.659143	0.213710	0.276735
O2	O	1.309856	0.217209	0.194583
O3	O	1.455550	0.037496	0.228852
O4	O	1.513448	0.393423	0.242466
O5	O	1.427800	0.071909	0.449314
O6	O	1.282105	0.251622	0.415044
O7	O	1.631392	0.248123	0.497197
Zn8	Zn	1.452342	0.255336	0.491123
Zn9	Zn	1.488905	0.209996	0.200656
O10	O	1.485697	0.427836	0.462927
C11	C	1.250569	0.231561	0.294133
C12	C	1.115255	0.223040	0.262306
C13	C	1.040551	0.237068	0.362323
C14	C	0.900696	0.228261	0.329431
C15	C	1.430994	0.009008	0.336568
C16	C	1.399155	-0.127149	0.329072
C17	C	1.690679	0.233771	0.397644
C18	C	1.825994	0.242291	0.429462
N19	N	1.427398	0.286280	0.689362
C20	C	1.510254	0.456324	0.355208
C21	C	1.542094	0.592480	0.362696
C22	C	1.454178	0.662304	0.342017
C23	C	1.487084	0.803028	0.349754
N24	N	1.513857	0.179043	0.002420
C25	C	1.480217	0.220754	0.769564
C26	C	1.461031	0.244579	0.922219
H27	H	1.075672	0.204507	0.152328
H28	H	1.354548	0.617900	0.318577
C29	C	1.621684	0.862996	0.381418
H30	H	1.626143	0.949713	0.382476
H31	H	1.670654	0.826143	0.313784
H32	H	1.651285	0.850146	0.467550
H33	H	1.080133	0.255590	0.472300
H34	H	0.865569	0.260817	0.539448
H35	H	1.401596	0.318316	0.966560
H36	H	0.861120	0.209727	0.219446
C37	C	1.264554	0.812887	0.297413
H38	H	1.260090	0.726172	0.296373
H39	H	1.234943	0.825743	0.211295
H40	H	1.215591	0.849742	0.365065
C41	C	1.676688	0.652453	0.394357
H42	H	1.681146	0.739170	0.395415
H43	H	1.725658	0.615600	0.326724
H44	H	1.706289	0.639602	0.480490
C45	C	1.594139	0.079421	0.942535
H46	H	1.624781	0.041395	1.012650
H47	H	1.661100	0.117263	0.902525
H48	H	1.546050	0.018126	0.875497
H49	H	1.539637	0.147012	0.725216
C50	C	1.347121	0.385895	0.749262
H51	H	1.344764	0.388846	0.844007
H52	H	1.266020	0.365587	0.706855
H53	H	1.381072	0.464722	0.733894
