data_functionalizedCrystal
_audit_creation_method	'MofGen! by Chris Wilmer'
_symmetry_space_group_name_H-M	'P1'
_symmetry_Int_Tables_number	1
_symmetry_cell_setting	triclinic
loop_
_symmetry_equiv_pos_as_xyz
  x,y,z
_cell_length_a	14.853558
_cell_length_b	14.853567
_cell_length_c	9.130313
_cell_angle_alpha	89.999276
_cell_angle_beta	89.997003
_cell_angle_gamma	83.633032
loop_
_atom_site_label
_atom_site_type_symbol
_atom_site_fract_x
_atom_site_fract_y
_atom_site_fract_z
O1	O	1.196369	0.117664	-0.121769
O2	O	0.933908	0.131694	-0.121774
O3	O	1.072149	-0.006551	-0.121776
O4	O	1.058128	0.255909	-0.121767
O5	O	1.072140	-0.006555	0.121823
O6	O	0.933899	0.131690	0.121825
O7	O	1.196359	0.117660	0.121830
Cu8	Cu	1.065128	0.124675	0.144070
Cu9	Cu	1.065139	0.124680	-0.144014
O10	O	1.058118	0.255905	0.121832
C11	C	0.900314	0.131058	0.000024
C12	C	0.800230	0.129158	0.000022
C13	C	0.753215	0.128268	-0.132769
C14	C	0.753203	0.128253	0.132811
C15	C	0.659170	0.126463	0.132814
C16	C	0.612155	0.125574	0.000022
C17	C	0.659173	0.126475	-0.132771
C18	C	0.612145	0.125552	0.265605
C19	C	0.518106	0.123761	0.265613
C20	C	0.471088	0.122878	0.132820
C21	C	0.518113	0.123781	0.000021
C22	C	0.471098	0.122891	-0.132771
C23	C	0.518119	0.123800	-0.265571
C24	C	0.612156	0.125592	-0.265564
C25	C	0.377052	0.121086	0.132813
C26	C	0.377056	0.121098	-0.132772
C27	C	1.071509	-0.040141	0.000019
C28	C	1.069605	-0.140225	0.000007
C29	C	0.979439	-0.552756	0.000033
C30	C	1.143673	-0.574042	0.000036
C31	C	1.145463	-0.480009	0.000027
C32	C	1.064240	-0.422344	0.000024
C33	C	0.981227	-0.458713	0.000029
C34	C	1.228474	-0.443632	0.000037
C35	C	1.230268	-0.349593	0.000030
C36	C	1.149044	-0.291927	0.000016
C37	C	1.066027	-0.328301	0.000019
C38	C	0.984805	-0.270637	0.000016
C39	C	0.901787	-0.307009	0.000009
C40	C	0.900003	-0.401047	0.000014
C41	C	1.150828	-0.197890	0.000010
C42	C	0.986592	-0.176594	0.000012
C43	C	1.229953	0.118296	0.000028
C44	C	1.330037	0.120197	0.000021
C45	C	1.058758	0.289496	0.000033
C46	C	1.060662	0.389580	0.000036
N47	N	1.065127	0.124671	0.346693
N48	N	1.065148	0.124676	-0.346637
C49	C	1.126360	0.063482	0.423344
C50	C	1.126369	0.063482	0.576680
C51	C	1.003907	0.185868	0.576702
C52	C	1.003895	0.185863	0.423368
H53	H	0.650449	0.126331	-0.373683
O54	O	0.937851	0.251866	0.340676
H55	H	0.895284	0.294428	0.419750
H56	H	0.920449	-0.129649	0.000002
H57	H	0.650433	0.126268	0.373716
O58	O	0.803913	0.129215	0.276025
H59	H	0.793831	0.067468	0.339694
H60	H	0.791504	0.129012	-0.240892
O61	O	1.192386	-0.002540	0.340660
H62	H	1.154367	-0.046421	0.270826
O63	O	0.467416	0.122834	-0.408802
H64	H	0.416609	0.183415	-0.415154
O65	O	0.937883	0.251881	0.659405
H66	H	0.867587	0.240267	0.630016
H67	H	0.479829	0.123020	0.373747
O68	O	1.316071	-0.505829	0.000050
H69	H	1.374097	-0.464741	0.000071
H70	H	1.297865	-0.319987	0.000034
O71	O	1.192424	-0.002514	0.659341
H72	H	1.154436	-0.046412	0.729205
O73	O	0.326332	0.120109	0.276026
H74	H	0.374822	0.121031	0.368364
H75	H	0.338782	0.120380	-0.240909
H76	H	0.835656	-0.260047	0.000016
O77	O	0.810468	-0.440274	0.000038
H78	H	0.822873	-0.515352	0.000067
H79	H	0.911848	-0.582375	0.000021
H80	H	1.209801	-0.620998	0.000051
O81	O	1.240355	-0.158654	0.000009
H82	H	1.296534	-0.214550	0.000006
