data_functionalizedCrystal
_audit_creation_method	'MofGen! by Chris Wilmer'
_symmetry_space_group_name_H-M	'P1'
_symmetry_Int_Tables_number	1
_symmetry_cell_setting	triclinic
loop_
_symmetry_equiv_pos_as_xyz
  x,y,z
_cell_length_a	15.944545
_cell_length_b	15.944499
_cell_length_c	12.376457
_cell_angle_alpha	101.277994
_cell_angle_beta	78.709067
_cell_angle_gamma	83.486891
loop_
_atom_site_label
_atom_site_type_symbol
_atom_site_fract_x
_atom_site_fract_y
_atom_site_fract_z
O1	O	1.130604	0.092224	-0.093924
O2	O	1.630604	0.592224	0.406076
O3	O	0.886054	0.105583	-0.093941
O4	O	1.386054	0.605583	0.406059
O5	O	1.015030	-0.023375	-0.093934
O6	O	1.515030	0.476625	0.406066
O7	O	1.001628	0.221181	-0.093931
O8	O	1.501628	0.721181	0.406069
O9	O	0.982798	0.008821	0.094077
O10	O	1.482798	0.508821	0.594077
O11	O	0.853822	0.137778	0.094069
O12	O	1.353822	0.637778	0.594069
O13	O	1.098372	0.124419	0.094087
O14	O	1.598372	0.624419	0.594087
Zn15	Zn	0.970979	0.136211	0.123929
Zn16	Zn	1.470979	0.636211	0.623929
Zn17	Zn	1.013447	0.093792	-0.123783
Zn18	Zn	1.513447	0.593792	0.376217
O19	O	0.969396	0.253377	0.094079
O20	O	1.469396	0.753377	0.594079
C21	C	0.838644	0.121126	0.000062
C22	C	1.338644	0.621126	0.500062
C23	C	0.745400	0.119465	0.000055
C24	C	1.245400	0.619465	0.500055
C25	C	0.998366	-0.038572	0.000069
C26	C	1.498366	0.461428	0.500069
C27	C	0.996722	-0.131822	0.000060
C28	C	1.496722	0.368178	0.500060
C29	C	0.474781	0.034571	0.000066
C30	C	0.974781	0.534571	0.500066
C31	C	0.509462	0.091376	0.092768
C32	C	1.009462	0.591376	0.592768
C33	C	0.409754	0.113548	0.000074
C34	C	0.909754	0.613548	0.500074
C35	C	0.541221	0.059655	-0.092595
C36	C	1.041221	0.559655	0.407405
C37	C	0.574668	0.116450	0.000063
C38	C	1.074668	0.616450	0.500063
C39	C	0.443193	0.170344	0.092853
C40	C	0.943193	0.670344	0.592853
C41	C	0.474964	0.138597	-0.092594
C42	C	0.974964	0.638597	0.407406
C43	C	0.509608	0.195463	0.000131
C44	C	1.009608	0.695463	0.500131
C45	C	0.314750	0.111873	0.000082
C46	C	0.814750	0.611873	0.500082
C47	C	0.669667	0.118132	0.000063
C48	C	1.169667	0.618132	0.500063
C49	C	1.071653	-0.423358	0.000071
C50	C	1.571653	0.076642	0.500071
C51	C	1.016808	-0.346457	0.092772
C52	C	1.516808	0.153543	0.592772
C53	C	0.990744	-0.467456	0.000073
C54	C	1.490744	0.032544	0.500073
C55	C	1.048565	-0.378206	-0.092592
C56	C	1.548565	0.121794	0.407408
C57	C	0.993686	-0.302549	0.000064
C58	C	1.493686	0.197451	0.500064
C59	C	0.935864	-0.391771	0.092849
C60	C	1.435864	0.108229	0.592849
C61	C	0.967647	-0.423540	-0.092597
C62	C	1.467647	0.076460	0.407403
C63	C	0.912740	-0.346653	0.000125
C64	C	1.412740	0.153347	0.500125
C65	C	0.989051	-0.562455	0.000078
C66	C	1.489051	-0.062455	0.500078
C67	C	0.995371	-0.207550	0.000067
C68	C	1.495371	0.292450	0.500067
C69	C	1.145782	0.108875	0.000081
C70	C	1.645782	0.608875	0.500081
C71	C	1.239028	0.110535	0.000081
C72	C	1.739028	0.610535	0.500081
C73	C	0.986060	0.268574	0.000075
C74	C	1.486060	0.768574	0.500075
C75	C	0.987705	0.361823	0.000076
C76	C	1.487705	0.861823	0.500076
N77	N	0.942002	0.165160	0.292985
N78	N	1.442002	0.665160	0.792985
N79	N	1.042430	0.064836	-0.292840
N80	N	1.542430	0.564836	0.207160
C81	C	1.109695	-0.002382	0.647980
C82	C	1.609695	0.497618	1.147980
C83	C	1.129972	-0.022643	0.529641
C84	C	1.629972	0.477357	1.029641
C85	C	1.082981	0.024306	0.470471
C86	C	1.582981	0.524306	0.970471
C87	C	1.015710	0.091520	0.529652
C88	C	1.515710	0.591520	1.029652
C89	C	0.995437	0.111788	0.648002
C90	C	1.495437	0.611788	1.148002
C91	C	0.968722	0.138475	0.470494
C92	C	1.468722	0.638475	0.970494
C93	C	0.901452	0.205690	0.529674
C94	C	1.401452	0.705690	1.029674
C95	C	0.881181	0.225954	0.648013
C96	C	1.381181	0.725954	1.148013
C97	C	0.928172	0.179005	0.707183
C98	C	1.428172	0.679005	1.207183
C99	C	0.988996	0.118207	0.352143
C100	C	1.488996	0.618207	0.852143
C101	C	0.874737	0.232377	0.352166
C102	C	1.374737	0.732377	0.852166
C103	C	0.854461	0.252639	0.470505
C104	C	1.354461	0.752639	0.970505
H105	H	0.459125	-0.033427	0.000155
H106	H	0.959125	0.466573	0.500155
H107	H	0.826412	0.280691	0.696198
H108	H	1.326412	0.780691	1.196198
H109	H	1.043768	0.063481	0.303969
H110	H	1.543768	0.563481	0.803969
H111	H	1.099493	0.007805	0.374115
H112	H	1.599493	0.507805	0.874115
H113	H	1.138783	-0.456673	0.000165
H114	H	1.638783	0.043327	0.500165
H115	H	1.147953	-0.040597	0.696163
H116	H	1.647953	0.459403	1.196163
H117	H	0.799688	0.307367	0.518704
H118	H	1.299688	0.807367	1.018704
H119	H	0.524963	0.071443	0.171139
H120	H	1.024963	0.571443	0.671139
H121	H	0.459448	0.158500	-0.170968
H122	H	0.959448	0.658500	0.329032
H123	H	0.946890	-0.457073	-0.170975
H124	H	1.446890	0.042927	0.329025
H125	H	0.836474	0.270609	0.303991
H126	H	1.336474	0.770609	0.803991
H127	H	0.583580	0.012868	-0.170963
H128	H	1.083580	0.512868	0.329037
H129	H	1.037594	-0.312947	0.171145
H130	H	1.537594	0.187053	0.671145
H131	H	0.888220	-0.398317	0.171302
H132	H	1.388220	0.101683	0.671302
H133	H	1.096235	-0.371546	-0.170955
H134	H	1.596235	0.128454	0.329045
H135	H	0.400927	0.217107	0.171309
H136	H	0.900927	0.717107	0.671309
H137	H	0.845527	-0.313461	0.000175
H138	H	1.345527	0.186539	0.500175
H139	H	1.184743	-0.077368	0.481461
H140	H	1.684743	0.422632	0.981461
H141	H	0.911661	0.195500	0.803544
H142	H	1.411661	0.695500	1.303544
H143	H	0.525078	0.263539	0.000186
H144	H	1.025078	0.763539	0.500186
