data_functionalizedCrystal
_audit_creation_method	'MofGen! by Chris Wilmer'
_symmetry_space_group_name_H-M	'P1'
_symmetry_Int_Tables_number	1
_symmetry_cell_setting	triclinic
loop_
_symmetry_equiv_pos_as_xyz
  x,y,z
_cell_length_a	12.759401
_cell_length_b	25.639239
_cell_length_c	12.759393
_cell_angle_alpha	89.964022
_cell_angle_beta	89.979062
_cell_angle_gamma	90.040211
loop_
_atom_site_label
_atom_site_type_symbol
_atom_site_fract_x
_atom_site_fract_y
_atom_site_fract_z
Zn1	Zn	1.606091	-0.208104	-0.593980
Zn2	Zn	1.605909	-0.295549	-0.418283
Zn3	Zn	1.430390	-0.208132	-0.418315
Zn4	Zn	1.430308	-0.295513	-0.593921
O5	O	1.518175	-0.251825	-0.506125
O6	O	1.753088	-0.219708	-0.570685
O7	O	1.582584	-0.283980	-0.271266
O8	O	1.453808	-0.134963	-0.441656
O9	O	1.752954	-0.283953	-0.441601
O10	O	1.582895	-0.134943	-0.570716
O11	O	1.453631	-0.219755	-0.271290
O12	O	1.283358	-0.219720	-0.441598
O13	O	1.453669	-0.283891	-0.740950
O14	O	1.283298	-0.283918	-0.570615
O15	O	1.582816	-0.219672	-0.740993
O16	O	1.582505	-0.368710	-0.441544
O17	O	1.453492	-0.368683	-0.570584
C18	C	1.245207	-0.251818	-0.506104
C19	C	1.128431	-0.251828	-0.506120
C20	C	1.073565	-0.285307	-0.573193
C21	C	0.963841	-0.285309	-0.573214
C22	C	0.963858	-0.218352	-0.439079
C23	C	1.073580	-0.218347	-0.439065
C24	C	1.517998	-0.387667	-0.506077
C25	C	1.518018	-0.445781	-0.506091
C26	C	1.585527	-0.806146	-0.439048
C27	C	1.585568	-0.860750	-0.439062
O28	O	1.642783	-0.888988	-0.382007
N29	N	1.518359	-0.888064	-0.506194
C30	C	1.451113	-0.860770	-0.573324
O31	O	1.393952	-0.889017	-0.630428
C32	C	1.451079	-0.806167	-0.573315
C33	C	1.518284	-0.778856	-0.506171
C34	C	1.652728	-0.778835	-0.371910
C35	C	1.652685	-0.724234	-0.371895
C36	C	1.585442	-0.696945	-0.439018
C37	C	1.518242	-0.724255	-0.506156
C38	C	1.383839	-0.778874	-0.640449
C39	C	1.383810	-0.724267	-0.640435
C40	C	1.451016	-0.696957	-0.573291
C41	C	1.450956	-0.642365	-0.573263
N42	N	1.518165	-0.615052	-0.506131
C43	C	1.585408	-0.642341	-0.439008
C44	C	1.451192	-0.975441	-0.573341
C45	C	1.451221	-1.030043	-0.573346
C46	C	1.585677	-1.030019	-0.439085
C47	C	1.585642	-0.975416	-0.439075
C48	C	1.518401	-0.948127	-0.506208
C49	C	1.585313	-0.527676	-0.438981
C50	C	1.585261	-0.473071	-0.438969
C51	C	1.450810	-0.473100	-0.573233
C52	C	1.450857	-0.527700	-0.573242
C53	C	1.518117	-0.554987	-0.506112
O54	O	1.393774	-0.614093	-0.630292
O55	O	1.642569	-0.614088	-0.381925
C56	C	1.792208	-0.251831	-0.506146
C57	C	1.908984	-0.251834	-0.506156
C58	C	1.518253	-0.251774	-0.780158
C59	C	1.518287	-0.251753	-0.896935
C60	C	1.518381	-0.115452	-0.506196
C61	C	1.518468	-0.057337	-0.506226
C62	C	1.585539	-0.218309	-0.951821
C63	C	1.585556	-0.218286	-1.061546
C64	C	1.451068	-0.285156	-1.061487
C65	C	1.451045	-0.285176	-0.951765
C66	C	1.518157	-0.251837	-0.233157
C67	C	1.518327	-0.251711	-0.116381
H68	H	0.919185	-0.191094	-0.384484
H69	H	1.396324	-0.312369	-1.106143
H70	H	1.396428	-0.953225	-0.628006
H71	H	1.640318	-0.191052	-1.106229
O72	O	1.650499	-0.446599	-0.373598
C73	C	1.701541	-0.429915	-0.194922
C74	C	1.627614	-0.459933	-0.268831
H75	H	1.683051	-0.440675	-0.110202
H76	H	1.786272	-0.440610	-0.213366
H77	H	1.689983	-0.386203	-0.206488
H78	H	1.639078	-0.503652	-0.257306
H79	H	1.542910	-0.449194	-0.250369
H80	H	1.118253	-0.191082	-0.384446
O81	O	1.385827	-0.317741	-0.898488
C82	C	1.334640	-0.406679	-0.864894
C83	C	1.408579	-0.369863	-0.925278
H84	H	1.352994	-0.448827	-0.886548
H85	H	1.346178	-0.400995	-0.777043
H86	H	1.249949	-0.397464	-0.886445
H87	H	1.493299	-0.379056	-0.903815
H88	H	1.396950	-0.375555	-1.013114
O89	O	1.126685	-0.317841	-0.638434
C90	C	1.115082	-0.384272	-0.771443
C91	C	1.054798	-0.347446	-0.697623
H92	H	1.056988	-0.408224	-0.819301
H93	H	1.166480	-0.360322	-0.826529
H94	H	1.166422	-0.411559	-0.723088
H95	H	1.003401	-0.320151	-0.745894
H96	H	1.003467	-0.371427	-0.642534
H97	H	1.396136	-0.549938	-0.627919
O98	O	1.650797	-0.554116	-0.373820
C99	C	1.829560	-0.570743	-0.323017
C100	C	1.755520	-0.540762	-0.396865
H101	H	1.914244	-0.559966	-0.341637
H102	H	1.811227	-0.560031	-0.238270
H103	H	1.818014	-0.614461	-0.334522
H104	H	1.767024	-0.497037	-0.385455
H105	H	1.773871	-0.551517	-0.481586
O106	O	0.910498	-0.317757	-0.638479
C107	C	0.786640	-0.324884	-0.780279
C108	C	0.847003	-0.288077	-0.706445
H109	H	0.735273	-0.300903	-0.835233
H110	H	0.844647	-0.348802	-0.828277
H111	H	0.735256	-0.352205	-0.731928
H112	H	0.898388	-0.260724	-0.754715
H113	H	0.788939	-0.264196	-0.658443
O114	O	1.718079	-0.697789	-0.306649
C115	C	1.851414	-0.703549	-0.173454
C116	C	1.777417	-0.733558	-0.247308
H117	H	1.899392	-0.732454	-0.125442
H118	H	1.906380	-0.677956	-0.221686
H119	H	1.803189	-0.678014	-0.118505
H120	H	1.825557	-0.759121	-0.302272
H121	H	1.722448	-0.759117	-0.199010
O122	O	1.718224	-0.805345	-0.306884
C123	C	1.860196	-0.866886	-0.292961
C124	C	1.786066	-0.836903	-0.366715
H125	H	1.915050	-0.892416	-0.341304
H126	H	1.908287	-0.837981	-0.245046
H127	H	1.812072	-0.892485	-0.237916
H128	H	1.834109	-0.811303	-0.421823
H129	H	1.737972	-0.865835	-0.414556
O130	O	1.651027	-0.948969	-0.373822
C131	C	1.784340	-0.954723	-0.240604
C132	C	1.710358	-0.984735	-0.314469
H133	H	1.832312	-0.983627	-0.192582
H134	H	1.839311	-0.929130	-0.288828
H135	H	1.736103	-0.929189	-0.185665
H136	H	1.758511	-1.010298	-0.369423
H137	H	1.655384	-1.010296	-0.266180
H138	H	1.396486	-1.052275	-0.628011
O139	O	1.651185	-1.056538	-0.374073
C140	C	1.793148	-1.118089	-0.360229
C141	C	1.719005	-1.088090	-0.433944
H142	H	1.847984	-1.143613	-0.408604
H143	H	1.841257	-1.089195	-0.312307
H144	H	1.745033	-1.143694	-0.305190
H145	H	1.767039	-1.062483	-0.489047
H146	H	1.670893	-1.117012	-0.481792
O147	O	1.318525	-0.805315	-0.705777
C148	C	1.185135	-0.799552	-0.838916
C149	C	1.259070	-0.769545	-0.764997
H150	H	1.137031	-0.770645	-0.886799
H151	H	1.233309	-0.825054	-0.893974
H152	H	1.130276	-0.825177	-0.790637
H153	H	1.313944	-0.743891	-0.813192
H154	H	1.210830	-0.744076	-0.709936
H155	H	1.329055	-0.702052	-0.695106
H156	H	1.396058	-0.450872	-0.627881
O157	O	1.650881	-0.185791	-0.898721
C158	C	1.784315	-0.119481	-0.910365
C159	C	1.710353	-0.156276	-0.970627
H160	H	1.832433	-0.095617	-0.968475
H161	H	1.736161	-0.092116	-0.859032
H162	H	1.839160	-0.143504	-0.858963
H163	H	1.655492	-0.132295	-1.022085
H164	H	1.758572	-0.183643	-1.021894
