data_functionalizedCrystal
_audit_creation_method	'MofGen! by Chris Wilmer'
_symmetry_space_group_name_H-M	'P1'
_symmetry_Int_Tables_number	1
_symmetry_cell_setting	triclinic
loop_
_symmetry_equiv_pos_as_xyz
  x,y,z
_cell_length_a	10.489741
_cell_length_b	10.489741
_cell_length_c	9.016244
_cell_angle_alpha	90.006502
_cell_angle_beta	89.999666
_cell_angle_gamma	84.539174
loop_
_atom_site_label
_atom_site_type_symbol
_atom_site_fract_x
_atom_site_fract_y
_atom_site_fract_z
O1	O	1.694049	0.179972	0.123248
O2	O	1.322854	0.196865	0.123271
O3	O	1.516898	0.002821	0.123250
O4	O	1.500005	0.374016	0.123269
O5	O	1.516890	0.002806	-0.123431
O6	O	1.322845	0.196850	-0.123410
O7	O	1.694041	0.179958	-0.123433
Cu8	Cu	1.508442	0.188403	-0.145945
Cu9	Cu	1.508452	0.188420	0.145783
O10	O	1.499997	0.374002	-0.123412
C11	C	1.275318	0.195582	-0.000067
C12	C	1.133688	0.191765	-0.000058
C13	C	1.515618	-0.044718	-0.000090
C14	C	1.511801	-0.186348	-0.000087
C15	C	1.065548	0.068300	-0.000078
C16	C	0.973426	0.126631	0.121548
C17	C	0.973451	0.126646	-0.121660
C18	C	1.043431	0.250146	0.121669
C19	C	1.043466	0.250144	-0.121649
C20	C	0.951371	0.308564	0.000007
C21	C	1.388336	-0.254488	-0.000068
C22	C	1.446656	-0.346618	-0.121698
C23	C	1.446693	-0.346578	0.121510
C24	C	1.570171	-0.276612	-0.121817
C25	C	1.570191	-0.276563	0.121500
C26	C	1.628600	-0.368665	-0.000160
C27	C	1.741577	0.181241	-0.000092
C28	C	1.883206	0.185058	-0.000091
C29	C	1.501277	0.421541	-0.000070
C30	C	1.505094	0.563170	-0.000063
N31	N	1.508445	0.188390	-0.351132
C32	C	1.612634	0.084947	-0.586129
C33	C	1.612353	0.084552	-0.414238
C34	C	1.375095	0.158097	-0.413550
C35	C	1.375714	0.157371	-0.585495
C36	C	1.536438	0.322486	-0.585631
C37	C	1.539447	0.321610	-0.413675
N38	N	1.508460	0.188423	0.350969
H39	H	1.115238	-0.033196	0.000069
C40	C	1.765857	-0.435448	-0.000263
N41	N	1.869236	-0.485753	-0.000350
H42	H	1.622363	-0.245786	-0.224761
C43	C	1.341268	0.027443	-0.355417
N44	N	1.315798	-0.070972	-0.311638
C45	C	1.085417	0.320647	-0.260566
N46	N	1.117019	0.373740	-0.365210
H47	H	0.942415	0.074396	0.224371
C48	C	1.376096	-0.388419	0.260427
N49	N	1.322915	-0.419927	0.365055
H50	H	1.295804	0.229809	-0.627106
C51	C	1.085080	0.320663	0.260748
N52	N	1.116453	0.373770	0.365503
H53	H	1.712050	0.102893	-0.627474
H54	H	1.286824	-0.204837	-0.000184
H55	H	1.468581	0.402310	-0.370714
H56	H	1.295655	0.231402	-0.372674
H57	H	1.631665	0.351301	-0.628988
H58	H	0.942470	0.074377	-0.224486
H59	H	1.711438	0.102772	-0.372036
H60	H	1.622391	-0.245512	0.224329
H61	H	0.901947	0.410168	0.000079
H62	H	1.394411	-0.377635	-0.224521
H63	H	1.460487	0.399504	-0.626316
C64	C	1.588652	-0.048665	-0.644515
N65	N	1.570583	-0.149301	-0.688491
H66	H	1.637551	0.344568	-0.372880
C67	C	1.588015	-0.049821	-0.358687
N68	N	1.569677	-0.151036	-0.316847
C69	C	1.342655	0.025235	-0.639704
N70	N	1.317756	-0.074293	-0.680527
