data_functionalizedCrystal
_audit_creation_method	'MofGen! by Chris Wilmer'
_symmetry_space_group_name_H-M	'P1'
_symmetry_Int_Tables_number	1
_symmetry_cell_setting	triclinic
loop_
_symmetry_equiv_pos_as_xyz
  x,y,z
_cell_length_a	14.908571
_cell_length_b	19.121063
_cell_length_c	14.908308
_cell_angle_alpha	84.445373
_cell_angle_beta	89.824947
_cell_angle_gamma	89.303906
loop_
_atom_site_label
_atom_site_type_symbol
_atom_site_fract_x
_atom_site_fract_y
_atom_site_fract_z
Zn1	Zn	1.324072	-0.366417	0.606393
Zn2	Zn	1.326220	-0.477475	0.461735
Zn3	Zn	1.183168	-0.352931	0.446699
Zn4	Zn	1.167296	-0.476641	0.603344
O5	O	1.250189	-0.418366	0.529543
O6	O	1.449836	-0.387142	0.594773
O7	O	1.314785	-0.455659	0.333644
O8	O	1.207604	-0.256469	0.462866
O9	O	1.451414	-0.468736	0.488493
O10	O	1.311125	-0.266377	0.580193
O11	O	1.209686	-0.364157	0.322597
O12	O	1.055584	-0.363348	0.459909
O13	O	1.180551	-0.467315	0.729845
O14	O	1.043922	-0.454238	0.574995
O15	O	1.295734	-0.386334	0.732085
O16	O	1.299394	-0.575616	0.485536
O17	O	1.182633	-0.575003	0.589576
C18	C	1.017218	-0.407239	0.515490
C19	C	0.917550	-0.402497	0.509501
C20	C	0.718169	-0.488362	0.617938
C21	C	0.624521	-0.483909	0.612314
C22	C	0.636605	-0.389134	0.492633
C23	C	0.730253	-0.393588	0.498257
C24	C	0.771031	-0.443204	0.560911
C25	C	0.864680	-0.447660	0.566530
C26	C	0.876762	-0.352883	0.446854
C27	C	0.783115	-0.348429	0.441230
C28	C	1.239548	-0.600787	0.538878
C29	C	1.235075	-0.678833	0.542906
C30	C	1.293807	-0.715799	0.490682
C31	C	1.289606	-0.789131	0.494476
C32	C	1.226668	-0.825496	0.550491
C33	C	1.167934	-0.788525	0.602722
C34	C	1.172140	-0.715194	0.598932
C35	C	1.210929	-1.046893	0.564648
C36	C	1.206726	-1.120229	0.568432
C37	C	1.328400	-1.120830	0.460187
C38	C	1.332596	-1.047498	0.456398
C39	C	1.273865	-1.010533	0.508632
C40	C	1.222371	-0.900454	0.554369
C41	C	1.278168	-0.935578	0.504758
C42	C	1.484070	-0.429537	0.543650
C43	C	1.583736	-0.434297	0.549662
C44	C	1.236132	-0.428235	0.764574
C45	C	1.230142	-0.432441	0.864731
C46	C	1.260895	-0.235235	0.520192
C47	C	1.265458	-0.157195	0.516207
C48	C	1.264246	-0.408487	0.295425
C49	C	1.270421	-0.404092	0.195270
C50	C	1.338824	-0.356002	1.055270
C51	C	1.333199	-0.359951	1.149376
C52	C	1.213262	-0.444285	1.147051
C53	C	1.218888	-0.440335	1.052945
C54	C	1.281672	-0.396193	1.007057
C55	C	1.287301	-0.392248	0.912950
C56	C	1.167360	-0.476578	0.910626
C57	C	1.161735	-0.480527	1.004732
H58	H	0.749900	-0.308032	0.390222
H59	H	1.171125	-0.930070	0.599975
H60	H	1.337431	-0.819226	0.451949
C61	C	1.377824	-0.328554	1.294663
C62	C	1.396020	-0.315770	1.202372
H63	H	1.416604	-0.301271	1.327379
H64	H	1.387277	-0.376995	1.313284
H65	H	1.317251	-0.316052	1.305918
H66	H	1.456591	-0.328277	1.191117
H67	H	1.386573	-0.267318	1.183745
H68	H	1.383845	-1.017891	0.410786
H69	H	0.751371	-0.528765	0.668948
C70	C	1.051449	-0.721961	0.706306
C71	C	1.107582	-0.674559	0.656340
H72	H	1.011593	-0.696873	0.741748
H73	H	1.086789	-0.753838	0.744630
H74	H	1.017886	-0.747312	0.666423
H75	H	1.141150	-0.649211	0.696224
H76	H	1.072237	-0.642670	0.618013
H77	H	1.162146	-0.480223	1.184428
C78	C	1.015253	-0.502316	0.874244
C79	C	1.104528	-0.520756	0.857627
H80	H	0.976467	-0.529593	0.841527
H81	H	1.005816	-0.453874	0.855617
H82	H	1.002927	-0.510988	0.936860
H83	H	1.116857	-0.512078	0.795012
H84	H	1.113969	-0.569209	0.876250
H85	H	1.116692	-0.818140	0.648335
C86	C	0.915113	-0.233474	0.398837
C87	C	0.934871	-0.303239	0.384165
H88	H	0.950984	-0.202830	0.360130
H89	H	0.927454	-0.226548	0.459793
H90	H	0.853501	-0.223729	0.386520
H91	H	0.996481	-0.312986	0.396488
H92	H	0.922537	-0.310169	0.323194
C93	C	1.400710	-0.312513	0.912043
C94	C	1.407840	-0.307490	1.004824
H95	H	1.443324	-0.282567	0.880903
H96	H	1.341994	-0.298709	0.892468
H97	H	1.411993	-0.359671	0.899834
H98	H	1.396551	-0.260333	1.017033
H99	H	1.466570	-0.321290	1.024406
H100	H	1.110617	-0.516465	1.042106
H101	H	0.897880	-0.488061	0.617545
H102	H	1.329415	-0.905967	0.459154
C103	C	1.413656	-0.723766	0.384073
C104	C	1.362991	-0.675830	0.429107
H105	H	1.456372	-0.699092	0.346064
H106	H	1.375036	-0.749093	0.348701
H107	H	1.443932	-0.755618	0.426915
H108	H	1.332709	-0.643981	0.386264
H109	H	1.401616	-0.650492	0.464481
C110	C	0.621987	-0.578036	0.731175
C111	C	0.566414	-0.533549	0.674998
H112	H	0.586112	-0.608684	0.769873
H113	H	0.658232	-0.550671	0.766332
H114	H	0.659298	-0.604932	0.695418
H115	H	0.529108	-0.506648	0.710756
H116	H	0.530154	-0.560916	0.639839
H117	H	0.603387	-0.348735	0.441629
H118	H	1.376216	-1.150935	0.417663
H119	H	1.155484	-1.149837	0.614063
H120	H	1.163106	-1.016803	0.607177
H121	H	1.338424	-0.356306	0.875590
