data_functionalizedCrystal
_audit_creation_method	'MofGen! by Chris Wilmer'
_symmetry_space_group_name_H-M	'P1'
_symmetry_Int_Tables_number	1
_symmetry_cell_setting	triclinic
loop_
_symmetry_equiv_pos_as_xyz
  x,y,z
_cell_length_a	16.109301
_cell_length_b	10.654545
_cell_length_c	14.586319
_cell_angle_alpha	89.998553
_cell_angle_beta	89.999213
_cell_angle_gamma	83.973454
loop_
_atom_site_label
_atom_site_type_symbol
_atom_site_fract_x
_atom_site_fract_y
_atom_site_fract_z
O1	O	1.104091	0.161419	-0.076178
O2	O	0.862149	0.181507	-0.076192
O3	O	0.988682	-0.011352	-0.076184
O4	O	0.977558	0.354278	-0.076186
O5	O	0.988673	-0.011354	0.076297
O6	O	0.862140	0.181504	0.076289
O7	O	1.104082	0.161416	0.076303
Cu8	Cu	0.983110	0.171460	0.090219
Cu9	Cu	0.983121	0.171463	-0.090107
O10	O	0.977549	0.354275	0.076295
C11	C	0.831164	0.180692	0.000047
C12	C	0.738855	0.178253	0.000042
C13	C	0.517229	0.287019	0.000052
C14	C	0.430495	0.284717	0.000057
C15	C	0.449008	0.055896	0.000055
C16	C	0.535741	0.058199	0.000056
C17	C	0.569849	0.173764	0.000049
C18	C	0.396382	0.169159	0.000054
C19	C	0.302341	0.166662	0.000061
C20	C	0.663895	0.176262	0.000045
C21	C	0.987860	-0.058140	0.000055
C22	C	0.985416	-0.197550	0.000050
C23	C	0.985436	-0.197556	-0.166190
C24	C	0.984300	-0.263053	-0.249309
C25	C	0.982004	-0.394040	-0.249310
C26	C	0.980840	-0.459533	-0.166183
C27	C	0.981976	-0.394036	-0.083064
C28	C	0.984275	-0.263046	-0.083072
C29	C	0.981950	-0.394029	0.083173
C30	C	0.984252	-0.263043	0.083177
C31	C	0.980786	-0.459522	0.166300
C32	C	0.981928	-0.394026	0.249422
C33	C	0.984225	-0.263031	0.249419
C34	C	0.985388	-0.197546	0.166296
C35	C	1.135066	0.162231	0.000063
C36	C	1.227376	0.164671	0.000062
C37	C	0.978370	0.401063	0.000055
C38	C	0.980815	0.540473	0.000054
N39	N	0.983109	0.171457	0.217051
N40	N	0.983128	0.171457	-0.216939
C41	C	1.039157	0.086088	0.452061
C42	C	1.039159	0.086084	0.548042
C43	C	0.927075	0.256830	0.548044
C44	C	0.927069	0.256826	0.452065
C45	C	0.983115	0.171456	0.404075
C46	C	0.983123	0.171457	0.596036
C47	C	0.983125	0.171455	0.700103
C48	C	0.983112	0.171457	0.300002
H49	H	0.387655	0.376940	0.000061
H50	H	0.421227	-0.038193	0.000066
C51	C	1.100803	-0.007838	0.600821
N52	N	1.147233	-0.078589	0.640574
C53	C	0.593626	-0.066396	0.000053
N54	N	0.637225	-0.160237	0.000054
H55	H	0.881429	0.326344	0.412993
H56	H	0.980975	-0.447360	0.317097
H57	H	0.987315	-0.090900	-0.166197
H58	H	0.544997	0.381119	0.000053
C59	C	0.985588	-0.191003	-0.340745
N60	N	0.986559	-0.136738	-0.409614
C61	C	0.978245	-0.603610	0.166297
N62	N	0.976330	-0.712137	0.166296
C63	C	0.980757	-0.466090	-0.340745
N64	N	0.979821	-0.520357	-0.409614
H65	H	0.978960	-0.566188	-0.166192
H66	H	0.985137	-0.209709	0.317106
H67	H	0.987263	-0.090890	0.166286
H68	H	1.084791	0.016573	0.412990
C69	C	0.865426	0.350729	0.600842
N70	N	0.818991	0.421456	0.640608
