data_functionalizedCrystal
_audit_creation_method	'MofGen! by Chris Wilmer'
_symmetry_space_group_name_H-M	'P1'
_symmetry_Int_Tables_number	1
_symmetry_cell_setting	triclinic
loop_
_symmetry_equiv_pos_as_xyz
  x,y,z
_cell_length_a	23.532355
_cell_length_b	23.532407
_cell_length_c	22.610064
_cell_angle_alpha	89.999397
_cell_angle_beta	89.997644
_cell_angle_gamma	82.838088
loop_
_atom_site_label
_atom_site_type_symbol
_atom_site_fract_x
_atom_site_fract_y
_atom_site_fract_z
O1	O	0.755283	0.068986	-0.049110
O2	O	1.255283	0.568986	0.450890
O3	O	0.589415	0.079020	-0.049130
O4	O	1.089415	0.579020	0.450870
O5	O	0.677351	-0.008929	-0.049108
O6	O	1.177351	0.491071	0.450892
O7	O	0.667347	0.156936	-0.049131
O8	O	1.167347	0.656936	0.450869
O9	O	0.677335	-0.008916	0.049261
O10	O	1.177335	0.491084	0.549261
O11	O	0.589400	0.079033	0.049239
O12	O	1.089400	0.579033	0.549239
O13	O	0.755267	0.068999	0.049259
O14	O	1.255267	0.568999	0.549259
Zn15	Zn	0.672331	0.074018	0.064868
Zn16	Zn	1.172331	0.574018	0.564868
Zn17	Zn	0.672351	0.074001	-0.064738
Zn18	Zn	1.172351	0.574001	0.435262
O19	O	0.667332	0.156949	0.049238
O20	O	1.167332	0.656949	0.549238
C21	C	0.568191	0.078776	0.000052
C22	C	1.068191	0.578776	0.500052
C23	C	0.504972	0.078022	0.000045
C24	C	1.004972	0.578022	0.500045
C25	C	0.112950	0.073291	0.053692
C26	C	0.612950	0.573291	0.553692
C27	C	0.053550	0.072573	0.053694
C28	C	0.553550	0.572573	0.553694
O29	O	0.022825	0.072189	0.099296
O30	O	0.522825	0.572189	0.599296
N31	N	0.023850	0.072211	0.000074
N32	N	0.523850	0.572211	0.500074
C33	C	0.053554	0.072560	-0.053553
C34	C	0.553554	0.572560	0.446447
O35	O	0.022837	0.072185	-0.099162
O36	O	0.522837	0.572185	0.400838
C37	C	0.112953	0.073273	-0.053555
C38	C	0.612953	0.573273	0.446445
C39	C	0.142649	0.073641	0.000069
C40	C	0.642649	0.573641	0.500069
C41	C	0.142646	0.073659	0.107312
C42	C	0.642646	0.573659	0.607312
C43	C	0.202041	0.074377	0.107309
C44	C	0.702041	0.574377	0.607309
C45	C	0.231740	0.074728	0.053687
C46	C	0.731740	0.574728	0.553687
C47	C	0.202044	0.074360	0.000067
C48	C	0.702044	0.574360	0.500067
C49	C	0.142655	0.073618	-0.107181
C50	C	0.642655	0.573618	0.392819
C51	C	0.202058	0.074331	-0.107178
C52	C	0.702058	0.574331	0.392822
C53	C	0.231754	0.074699	-0.053554
C54	C	0.731754	0.574699	0.446446
C55	C	0.291138	0.075429	-0.053558
C56	C	0.791138	0.575429	0.446442
N57	N	0.320838	0.075792	0.000062
N58	N	0.820838	0.575792	0.500062
C59	C	0.291139	0.075441	0.053685
C60	C	0.791139	0.575441	0.553685
C61	C	-0.071188	0.071061	-0.053545
C62	C	0.428812	0.571061	0.446455
C63	C	-0.130586	0.070351	-0.053544
C64	C	0.369414	0.570351	0.446456
C65	C	-0.130585	0.070364	0.053703
C66	C	0.369415	0.570364	0.553703
C67	C	-0.071186	0.071077	0.053702
C68	C	0.428814	0.571077	0.553702
C69	C	-0.041488	0.071423	0.000075
C70	C	0.458512	0.571423	0.500075
C71	C	0.415873	0.076951	0.053675
C72	C	0.915873	0.576951	0.553675
C73	C	0.475273	0.077671	0.053668
C74	C	0.975273	0.577671	0.553668
C75	C	0.475267	0.077656	-0.053579
C76	C	0.975267	0.577656	0.446421
C77	C	0.415872	0.076938	-0.053572
C78	C	0.915872	0.576938	0.446428
C79	C	0.386177	0.076583	0.000060
C80	C	0.886177	0.576583	0.500060
O81	O	0.321902	0.075812	-0.099137
O82	O	0.821902	0.575812	0.400863
O83	O	0.321864	0.075809	0.099286
O84	O	0.821864	0.575809	0.599286
C85	C	0.677088	-0.030139	0.000078
C86	C	1.177088	0.469861	0.500078
C87	C	0.676322	-0.093356	0.000082
C88	C	1.176322	0.406644	0.500082
C89	C	0.723557	-0.492468	0.000055
C90	C	1.223557	0.007532	0.500055
C91	C	0.722845	-0.551868	0.000051
C92	C	1.222845	-0.051868	0.500051
O93	O	0.766632	-0.588620	0.000034
O94	O	1.266632	-0.088620	0.500034
N95	N	0.670568	-0.574484	0.000045
N96	N	1.170568	-0.074484	0.500045
C97	C	0.618998	-0.537697	0.000038
C98	C	1.118998	-0.037697	0.500038
O99	O	0.574467	-0.562388	0.000032
O100	O	1.074467	-0.062388	0.500032
C101	C	0.619710	-0.478298	0.000038
C102	C	1.119710	0.021702	0.500038
C103	C	0.671991	-0.455685	0.000050
C104	C	1.171991	0.044315	0.500050
C105	C	0.775834	-0.469854	0.000066
C106	C	1.275834	0.030146	0.500066
C107	C	0.776545	-0.410458	0.000072
C108	C	1.276545	0.089542	0.500072
C109	C	0.724979	-0.373676	0.000067
C110	C	1.224979	0.126324	0.500067
C111	C	0.672703	-0.396289	0.000055
C112	C	1.172703	0.103711	0.500055
C113	C	0.568141	-0.441512	0.000027
C114	C	1.068141	0.058488	0.500027
C115	C	0.568858	-0.382110	0.000026
C116	C	1.068858	0.117890	0.500026
C117	C	0.621139	-0.359497	0.000038
C118	C	1.121139	0.140503	0.500038
C119	C	0.621848	-0.300110	0.000056
C120	C	1.121848	0.199890	0.500056
N121	N	0.674126	-0.277494	0.000061
N122	N	1.174126	0.222506	0.500061
C123	C	0.725691	-0.314277	0.000067
C124	C	1.225691	0.185723	0.500067
C125	C	0.617507	-0.662439	0.000036
C126	C	1.117507	-0.162439	0.500036
C127	C	0.616794	-0.721837	0.000040
C128	C	1.116794	-0.221837	0.500040
C129	C	0.720642	-0.736004	0.000052
C130	C	1.220642	-0.236004	0.500052
C131	C	0.721354	-0.676605	0.000052
C132	C	1.221354	-0.176605	0.500052
C133	C	0.669784	-0.639823	0.000042
C134	C	1.169784	-0.139823	0.500042
C135	C	0.727181	-0.189540	0.000079
C136	C	1.227181	0.310460	0.500079
C137	C	0.727888	-0.130138	0.000087
C138	C	1.227888	0.369862	0.500087
C139	C	0.624041	-0.115977	0.000072
C140	C	1.124041	0.384023	0.500072
C141	C	0.623334	-0.175373	0.000067
C142	C	1.123334	0.324627	0.500067
C143	C	0.674909	-0.212154	0.000069
C144	C	1.174909	0.287846	0.500069
O145	O	0.578084	-0.263323	0.000070
O146	O	1.078084	0.236677	0.500070
O147	O	0.770216	-0.289577	0.000065
O148	O	1.270216	0.210423	0.500065
C149	C	0.776491	0.069244	0.000076
C150	C	1.276491	0.569244	0.500076
C151	C	0.839710	0.069998	0.000079
C152	C	1.339710	0.569998	0.500079
C153	C	0.667594	0.178158	0.000050
C154	C	1.167594	0.678158	0.500050
C155	C	0.668360	0.241375	0.000042
C156	C	1.168360	0.741375	0.500042
N157	N	0.672321	0.074029	0.153320
N158	N	1.172321	0.574029	0.653320
N159	N	0.672366	0.073986	-0.153191
N160	N	1.172366	0.573986	0.346809
C161	C	0.711291	0.035063	0.561971
C162	C	1.211291	0.535063	1.061971
C163	C	0.711294	0.035059	0.623891
C164	C	1.211294	0.535059	1.123891
O165	O	0.744403	0.001937	0.655917
O166	O	1.244403	0.501937	1.155917
N167	N	0.672351	0.073990	0.654857
N168	N	1.172351	0.573990	1.154857
C169	C	0.633399	0.112923	0.623900
C170	C	1.133399	0.612923	1.123900
O171	O	0.600275	0.146036	0.655926
O172	O	1.100275	0.646036	1.155926
C173	C	0.633394	0.112924	0.561982
C174	C	1.133394	0.612924	1.061982
C175	C	0.672343	0.073995	0.531018
C176	C	1.172343	0.573995	1.031018
C177	C	0.750237	-0.003863	0.531007
C178	C	1.250237	0.496137	1.031007
C179	C	0.750234	-0.003858	0.469092
C180	C	1.250234	0.496142	0.969092
C181	C	0.711286	0.035073	0.438139
C182	C	1.211286	0.535073	0.938139
C183	C	0.672340	0.074000	0.469103
C184	C	1.172340	0.574000	0.969103
C185	C	0.594439	0.151854	0.531026
C186	C	1.094439	0.651854	1.031026
C187	C	0.594437	0.151851	0.469103
C188	C	1.094437	0.651851	0.969103
C189	C	0.633386	0.112922	0.438140
C190	C	1.133386	0.612922	0.938140
C191	C	0.633390	0.112936	0.376235
C192	C	1.133390	0.612936	0.876235
N193	N	0.672333	0.074006	0.345268
N194	N	1.172333	0.574006	0.845268
C195	C	0.711281	0.035074	0.376221
C196	C	1.211281	0.535074	0.876221
C197	C	0.633412	0.112917	0.753934
C198	C	1.133412	0.612917	1.253934
C199	C	0.633419	0.112919	0.815852
C200	C	1.133419	0.612919	1.315852
C201	C	0.711314	0.035055	0.815838
C202	C	1.211314	0.535055	1.315838
C203	C	0.711309	0.035056	0.753919
C204	C	1.211309	0.535056	1.253919
C205	C	0.672355	0.073987	0.722968
C206	C	1.172355	0.573987	1.222968
C207	C	0.711273	0.035088	0.246193
C208	C	1.211273	0.535088	0.746193
C209	C	0.711269	0.035098	0.184272
C210	C	1.211269	0.535098	0.684272
C211	C	0.633373	0.112960	0.184292
C212	C	1.133373	0.612960	0.684292
C213	C	0.633379	0.112953	0.246207
C214	C	1.133379	0.612953	0.746207
C215	C	0.672331	0.074012	0.277157
C216	C	1.172331	0.574012	0.777157
O217	O	0.600296	0.146040	0.344169
O218	O	1.100296	0.646040	0.844169
O219	O	0.744395	0.001962	0.344188
O220	O	1.244395	0.501962	0.844188
H221	H	0.499449	0.077973	0.097337
H222	H	0.999449	0.577973	0.597337
C223	C	0.559281	-0.746704	0.000034
C224	C	1.059281	-0.246704	0.500034
N225	N	0.515960	-0.765431	0.000026
N226	N	1.015960	-0.265431	0.500026
C227	C	0.234700	0.074774	0.166301
C228	C	0.734700	0.574774	0.666301
N229	N	0.259296	0.075070	0.210736
N230	N	0.759296	0.575070	0.710736
C231	C	-0.038526	0.071448	-0.112542
C232	C	0.461474	0.571448	0.387458
N233	N	-0.013928	0.071739	-0.156979
N234	N	0.486072	0.571739	0.343021
H235	H	0.391701	0.076667	0.097348
H236	H	0.891701	0.576667	0.597348
H237	H	0.118472	0.073372	0.150980
H238	H	0.618472	0.573372	0.650980
H239	H	-0.154777	0.070078	0.097366
H240	H	0.345223	0.570078	0.597366
C241	C	0.793076	-0.046690	0.435040
C242	C	1.293076	0.453310	0.935040
N243	N	0.825344	-0.078956	0.409397
N244	N	1.325344	0.421044	0.909397
H245	H	0.562714	0.183553	0.443906
H246	H	1.062714	0.683553	0.943906
C247	C	0.590576	0.155749	0.849904
C248	C	1.090576	0.655749	1.349904
N249	N	0.558302	0.188006	0.875551
N250	N	1.058302	0.688006	1.375551
C251	C	0.590530	0.155781	0.150232
C252	C	1.090530	0.655781	0.650232
N253	N	0.558257	0.188031	0.124577
N254	N	1.058257	0.688031	0.624577
H255	H	0.762629	-0.765963	0.000054
H256	H	1.262629	-0.265963	0.500054
C257	C	0.560773	-0.621983	0.000032
C258	C	1.060773	-0.121983	0.500032
N259	N	0.518041	-0.591515	0.000029
N260	N	1.018041	-0.091515	0.500029
C261	C	0.793082	-0.046699	0.565045
C262	C	1.293082	0.453301	1.065045
N263	N	0.825357	-0.078965	0.590679
N264	N	1.325357	0.421035	1.090679
H265	H	0.391691	0.076647	-0.097238
H266	H	0.891691	0.576647	0.402762
C267	C	-0.038525	0.071477	0.112692
C268	C	0.461475	0.571477	0.612692
N269	N	-0.013928	0.071776	0.157126
N270	N	0.486072	0.571776	0.657126
H271	H	0.525569	-0.459912	0.000013
H272	H	1.025569	0.040088	0.500013
H273	H	0.601668	0.144658	0.271418
H274	H	1.101668	0.644658	0.771418
H275	H	-0.154761	0.070060	-0.097211
H276	H	0.345239	0.570060	0.402789
C277	C	0.512126	-0.341652	0.000017
C278	C	1.012126	0.158348	0.500017
N279	N	0.469396	-0.311181	0.000012
N280	N	0.969396	0.188819	0.500012
H281	H	0.819117	-0.392053	0.000079
H282	H	1.319117	0.107947	0.500079
C283	C	0.754154	-0.007775	0.849897
C284	C	1.254154	0.492225	1.349897
N285	N	0.786419	-0.040033	0.875553
N286	N	1.286419	0.459967	1.375553
H287	H	0.580762	-0.193785	0.000074
H288	H	1.080762	0.306215	0.500074
H289	H	0.118487	0.073317	-0.150848
H290	H	0.618487	0.573317	0.349152
H291	H	0.226236	0.074613	-0.150848
H292	H	0.726236	0.574613	0.349152
H293	H	0.743024	0.003356	0.728712
H294	H	1.243024	0.503356	1.228712
C295	C	0.832565	-0.510307	0.000079
C296	C	1.332565	-0.010307	0.500079
N297	N	0.875299	-0.540772	0.000094
N298	N	1.375299	-0.040772	0.500094
H299	H	0.582057	-0.086018	0.000070
H300	H	1.082057	0.413982	0.500070
H301	H	0.742988	0.003397	0.159064
H302	H	1.242988	0.503397	0.659064
C303	C	0.507948	0.078037	-0.112561
C304	C	1.007948	0.578037	0.387439
N305	N	0.532566	0.078320	-0.156987
N306	N	1.032566	0.578320	0.343013
C307	C	0.754125	-0.007748	0.280229
C308	C	1.254125	0.492252	0.780229
N309	N	0.786403	-0.040009	0.305864
N310	N	1.286403	0.459991	0.805864
C311	C	0.783916	-0.229991	0.000086
C312	C	1.283916	0.270009	0.500086
N313	N	0.826649	-0.260458	0.000097
N314	N	1.326649	0.239542	0.500097
H315	H	0.770463	-0.111731	0.000099
H316	H	1.270463	0.388269	0.500099
C317	C	0.778866	-0.651737	0.000060
C318	C	1.278866	-0.151737	0.500060
N319	N	0.822187	-0.633009	0.000063
N320	N	1.322187	-0.133009	0.500063
H321	H	0.601692	0.144624	0.728736
H322	H	1.101692	0.644624	1.228736
C323	C	0.551587	0.194676	0.565072
C324	C	1.051587	0.694676	1.065072
N325	N	0.519306	0.226930	0.590714
N326	N	1.019306	0.726930	1.090714
