data_functionalizedCrystal
_audit_creation_method	'MofGen! by Chris Wilmer'
_symmetry_space_group_name_H-M	'P1'
_symmetry_Int_Tables_number	1
_symmetry_cell_setting	triclinic
loop_
_symmetry_equiv_pos_as_xyz
  x,y,z
_cell_length_a	23.096457
_cell_length_b	14.560438
_cell_length_c	14.560438
_cell_angle_alpha	59.997945
_cell_angle_beta	89.997951
_cell_angle_gamma	60.005440
loop_
_atom_site_label
_atom_site_type_symbol
_atom_site_fract_x
_atom_site_fract_y
_atom_site_fract_z
Zr1	Zr	0.557842	1.005233	-0.120543
O2	O	0.465408	1.196822	-0.267183
O3	O	0.586168	0.813643	-0.075592
O4	O	0.586183	1.005236	-0.267193
O5	O	0.465394	1.005227	0.075559
O6	O	0.681463	1.005238	-0.267198
O7	O	0.465394	1.005229	-0.075582
O8	O	0.681437	0.662514	0.075541
O9	O	0.465420	1.347951	-0.267180
O10	O	0.669367	0.892449	-0.056422
O11	O	0.598261	0.892445	0.056377
O12	O	0.598278	1.118021	-0.169209
O13	O	0.527172	1.118017	-0.056410
Zr14	Zr	0.709804	1.005233	0.120501
Zr15	Zr	0.709803	1.005237	-0.120551
Zr16	Zr	0.557842	1.005229	0.120510
Zr17	Zr	0.557861	1.246266	-0.120539
Zr18	Zr	0.709785	0.764199	0.120497
O19	O	0.681478	1.196822	0.075550
O20	O	0.681478	1.196828	-0.267195
O21	O	0.465409	1.196816	0.075562
O22	O	0.802237	0.813643	0.267141
O23	O	0.802237	0.813649	-0.075604
O24	O	0.586168	0.813637	0.267154
O25	O	0.802252	1.005238	-0.075601
O26	O	0.681463	1.005229	0.267151
O27	O	0.586183	1.005227	0.267157
O28	O	0.802252	1.005236	0.075540
O29	O	0.586209	1.347954	-0.267187
O30	O	0.681437	0.662511	0.267146
O31	O	0.802226	0.662514	0.267139
O32	O	0.802226	0.662517	0.075534
O33	O	0.465420	1.347948	-0.075576
O34	O	0.586209	1.347951	-0.075583
O35	O	0.669368	0.892445	0.169167
O36	O	0.740474	0.892449	0.056368
O37	O	0.669385	1.118020	-0.056419
O38	O	0.598278	1.118017	0.056380
C39	C	0.633800	0.703737	-0.000026
C40	C	0.633792	0.601412	-0.000027
C41	C	0.443743	1.005228	-0.000010
C42	C	0.379231	1.005226	-0.000006
C43	C	0.686295	0.470095	0.083235
C44	C	0.686325	0.373915	0.083244
C45	C	0.581346	0.540383	-0.083281
C46	C	0.581313	0.636561	-0.083285
C47	C	0.746905	0.373985	0.179375
C48	C	0.746935	0.277805	0.179384
C49	C	0.386033	0.887483	0.058857
C50	C	0.325418	0.887481	0.058862
C51	C	0.258000	1.005229	-0.000018
C52	C	0.251201	1.122987	-0.058884
C53	C	0.311816	1.122986	-0.058878
N54	N	0.135211	1.092876	-0.095844
N55	N	0.077632	1.092869	-0.095848
C56	C	0.075368	1.005240	-0.000038
N57	N	0.132864	0.917599	0.095774
N58	N	0.190450	0.917602	0.095775
C59	C	0.192269	1.005244	-0.000031
C60	C	0.016446	0.887488	0.058835
C61	C	-0.044172	0.887491	0.058843
C62	C	-0.118389	1.123000	-0.058913
C63	C	-0.057771	1.122993	-0.058910
C64	C	0.009644	1.005234	-0.000039
C65	C	0.823903	1.005238	-0.000032
C66	C	0.888415	1.005239	-0.000036
C67	C	0.633823	1.005238	-0.301540
C68	C	0.633823	1.005240	-0.403873
C69	C	0.633846	1.306729	-0.000016
C70	C	0.633854	1.409054	-0.000015
C71	C	0.596712	1.122984	-0.510823
C72	C	0.596714	1.122977	-0.606972
C73	C	0.670938	0.887473	-0.489207
C74	C	0.670940	0.887480	-0.393061
C75	C	0.553856	1.258951	-0.578815
C76	C	0.553858	1.258944	-0.674964
C77	C	0.633823	1.005227	0.301499
C78	C	0.633823	1.005226	0.403832
C79	C	0.823880	0.703742	-0.000037
C80	C	0.888384	0.601418	-0.000042
C81	C	0.633800	0.703731	0.301494
C82	C	0.633792	0.601405	0.403825
C83	C	0.823880	0.703736	0.301483
C84	C	0.888384	0.601411	0.403810
C85	C	0.443766	1.306729	-0.301525
C86	C	0.379262	1.409054	-0.403852
C87	C	0.443766	1.306724	-0.000005
C88	C	0.379262	1.409047	0.000000
C89	C	0.633846	1.306734	-0.301536
C90	C	0.633854	1.409061	-0.403867
C91	C	0.881558	0.553366	-0.058930
C92	C	0.942160	0.457236	-0.058958
C93	C	1.009587	0.409153	-0.000090
C94	C	1.016411	0.457215	0.058800
C95	C	0.955810	0.553350	0.058820
C96	C	0.955799	0.553361	0.392985
C97	C	1.016413	0.457229	0.489123
C98	C	1.009610	0.409143	0.596086
C99	C	0.942188	0.457203	0.606910
C100	C	0.881576	0.553340	0.510772
C101	C	0.311847	1.457116	-0.393026
C102	C	0.251233	1.553278	-0.489165
C103	C	0.258036	1.601369	-0.596128
C104	C	0.325458	1.553302	-0.606951
C105	C	0.386070	1.457149	-0.510814
C106	C	0.386088	1.457109	0.058878
C107	C	0.325485	1.553266	0.058879
C108	C	0.258059	1.601352	0.000008
C109	C	0.251234	1.553286	-0.058877
C110	C	0.311836	1.457138	-0.058884
C111	C	0.670906	0.553326	0.510776
C112	C	0.670893	0.457185	0.606923
C113	C	0.596651	0.457204	0.489155
C114	C	0.596660	0.553351	0.393010
C115	C	0.713772	0.553311	0.578770
C116	C	0.713759	0.457169	0.674917
H117	H	0.538559	0.743483	-0.151082
H118	H	0.826686	0.592451	0.519603
H119	H	0.701158	0.791597	-0.480418
C120	C	0.191401	1.707113	0.000033
N121	N	0.141198	1.786768	0.000060
H122	H	0.330957	0.791598	0.106796
H123	H	0.208676	1.679663	-0.674400
H124	H	0.331056	1.592385	0.106835
C125	C	0.304347	1.404243	-0.275376
N126	N	0.298692	1.364432	-0.186763
H127	H	0.701168	0.791602	-0.305980
H128	H	0.689940	0.643316	0.578790
H129	H	0.768647	0.517180	0.570037
H130	H	0.961377	0.592461	0.106781
C131	C	0.177076	1.606131	-0.477234
N132	N	0.121222	1.645938	-0.468244
C133	C	1.076293	0.303380	0.701830
N134	N	1.126521	0.223714	0.781472
H135	H	0.497107	1.311141	-0.727154
H136	H	0.330988	1.592470	-0.694052
C137	C	1.090588	0.404300	0.123559
N138	N	1.146459	0.364434	0.172343
H139	H	0.936590	0.418116	-0.106913
C140	C	0.963299	0.606244	0.275334
N141	N	0.968954	0.646077	0.186722
H142	H	1.071305	0.418108	0.480290
C143	C	0.460225	1.404275	-0.522742
N144	N	0.516078	1.364453	-0.531734
C145	C	0.586073	1.329476	-0.578836
N146	N	0.610340	1.382592	-0.578849
C147	C	0.460252	1.404238	0.123640
N148	N	0.516111	1.364428	0.172415
H149	H	-0.063313	1.218872	-0.106851
H150	H	0.306269	1.418008	-0.106827
H151	H	0.498982	1.301142	-0.570083
H152	H	0.196327	1.592453	-0.106808
H153	H	0.566418	0.418067	0.480363
C154	C	0.732658	0.197147	0.282717
N155	N	0.721908	0.136391	0.360548
H156	H	0.936660	0.418038	0.694012
C157	C	0.592093	1.315889	-0.743738
N158	N	0.620905	1.358753	-0.795527
H159	H	0.538620	0.568987	-0.151067
C160	C	0.739835	0.359360	0.290309
N161	N	0.734508	0.348347	0.373862
C162	C	0.555826	0.606242	0.275363
N163	N	0.525068	0.646079	0.186749
H164	H	0.826661	0.592514	-0.106881
H165	H	0.685485	0.493296	0.725843
C166	C	1.076244	0.303392	-0.000115
N167	N	1.126448	0.223728	-0.000133
H168	H	0.770507	0.367152	0.727111
H169	H	0.795099	0.374029	0.162563
H170	H	0.798709	0.214831	0.171094
H171	H	0.196305	1.218858	-0.106824
C172	C	-0.192545	1.252524	-0.123680
N173	N	-0.248404	1.350086	-0.172462
C174	C	0.090605	0.757951	0.123608
N175	N	0.146460	0.660383	0.172399
H176	H	0.440922	0.791594	0.106788
H177	H	-0.038627	0.791607	0.106785
H178	H	0.306272	1.218869	-0.106808
