data_functionalizedCrystal
_audit_creation_method	'MofGen! by Chris Wilmer'
_symmetry_space_group_name_H-M	'P1'
_symmetry_Int_Tables_number	1
_symmetry_cell_setting	triclinic
loop_
_symmetry_equiv_pos_as_xyz
  x,y,z
_cell_length_a	14.044220
_cell_length_b	16.109302
_cell_length_c	12.503572
_cell_angle_alpha	86.480786
_cell_angle_beta	86.154684
_cell_angle_gamma	91.674671
loop_
_atom_site_label
_atom_site_type_symbol
_atom_site_fract_x
_atom_site_fract_y
_atom_site_fract_z
O1	O	-0.116351	1.116586	-0.089367
O2	O	0.133649	1.366586	0.160633
O3	O	0.383649	1.616586	0.410633
O4	O	0.633649	1.866586	0.660633
O5	O	-0.131513	0.875652	-0.089359
O6	O	0.118487	1.125652	0.160641
O7	O	0.368487	1.375652	0.410641
O8	O	0.618487	1.625652	0.660641
O9	O	0.014051	0.992502	-0.089358
O10	O	0.264051	1.242502	0.160642
O11	O	0.514051	1.492502	0.410642
O12	O	0.764051	1.742502	0.660642
O13	O	-0.261915	0.999736	-0.089368
O14	O	-0.011915	1.249736	0.160632
O15	O	0.238085	1.499736	0.410632
O16	O	0.488085	1.749736	0.660632
O17	O	0.003086	0.983716	0.089284
O18	O	0.253086	1.233716	0.339284
O19	O	0.503086	1.483716	0.589284
O20	O	0.753086	1.733716	0.839284
O21	O	-0.142479	0.866865	0.089283
O22	O	0.107521	1.116865	0.339283
O23	O	0.357521	1.366865	0.589283
O24	O	0.607521	1.616865	0.839283
O25	O	-0.127317	1.107800	0.089275
O26	O	0.122683	1.357800	0.339275
O27	O	0.372683	1.607800	0.589275
O28	O	0.622683	1.857800	0.839275
Cu29	Cu	-0.135899	0.986530	0.105590
Cu30	Cu	0.114101	1.236530	0.355590
Cu31	Cu	0.364101	1.486530	0.605590
Cu32	Cu	0.614101	1.736530	0.855590
Cu33	Cu	-0.122931	0.996921	-0.105674
Cu34	Cu	0.127069	1.246921	0.144326
Cu35	Cu	0.377069	1.496921	0.394326
Cu36	Cu	0.627069	1.746921	0.644326
O37	O	-0.272881	0.990949	0.089274
O38	O	-0.022881	1.240949	0.339274
O39	O	0.227119	1.490949	0.589274
O40	O	0.477119	1.740949	0.839274
C41	C	-0.136382	0.840238	-0.000037
C42	C	0.113618	1.090238	0.249963
C43	C	0.363618	1.340238	0.499963
C44	C	0.613618	1.590238	0.749963
C45	C	-0.134540	0.747806	-0.000033
C46	C	0.115460	0.997806	0.249967
C47	C	0.365460	1.247806	0.499967
C48	C	0.615460	1.497806	0.749967
C49	C	-0.136259	0.530359	0.097334
C50	C	0.113741	0.780359	0.347334
C51	C	0.363741	1.030359	0.597334
C52	C	0.613741	1.280359	0.847334
C53	C	-0.134518	0.443510	0.097330
C54	C	0.115482	0.693510	0.347330
C55	C	0.365482	0.943510	0.597330
C56	C	0.615482	1.193510	0.847330
C57	C	-0.122568	0.453100	-0.097435
C58	C	0.127432	0.703100	0.152565
C59	C	0.377432	0.953100	0.402565
C60	C	0.627432	1.203100	0.652565
C61	C	-0.124302	0.539948	-0.097430
C62	C	0.125698	0.789948	0.152570
C63	C	0.375698	1.039948	0.402570
C64	C	0.625698	1.289948	0.652570
C65	C	-0.131152	0.578575	-0.000043
C66	C	0.118848	0.828575	0.249957
C67	C	0.368848	1.078575	0.499957
C68	C	0.618848	1.328575	0.749957
C69	C	-0.127677	0.404877	-0.000051
C70	C	0.122323	0.654877	0.249949
C71	C	0.372323	0.904877	0.499949
C72	C	0.622323	1.154877	0.749949
C73	C	-0.125790	0.310711	-0.000056
C74	C	0.124210	0.560711	0.249944
C75	C	0.374210	0.810711	0.499944
C76	C	0.624210	1.060711	0.749944
C77	C	-0.133038	0.672747	-0.000037
C78	C	0.116962	0.922747	0.249963
C79	C	0.366962	1.172747	0.499963
C80	C	0.616962	1.422747	0.749963
C81	C	-0.302712	0.998509	-0.000048
C82	C	-0.052712	1.248509	0.249952
C83	C	0.197288	1.498509	0.499952
C84	C	0.447288	1.748509	0.749952
C85	C	-0.407934	1.007953	-0.000053
C86	C	-0.157934	1.257953	0.249947
C87	C	0.092066	1.507953	0.499947
C88	C	0.342066	1.757953	0.749947
C89	C	-0.600590	1.025218	-0.000048
C90	C	-0.350590	1.275218	0.249952
C91	C	-0.100590	1.525218	0.499952
C92	C	0.149410	1.775218	0.749952
C93	C	-0.658244	0.958238	-0.000045
C94	C	-0.408244	1.208238	0.249955
C95	C	-0.158244	1.458238	0.499955
C96	C	0.091756	1.708238	0.749955
C97	C	-0.765445	0.967845	-0.000043
C98	C	-0.515445	1.217845	0.249957
C99	C	-0.265445	1.467845	0.499957
C100	C	-0.015445	1.717845	0.749957
C101	C	-0.493380	1.015612	-0.000051
C102	C	-0.243380	1.265612	0.249949
C103	C	0.006620	1.515612	0.499949
C104	C	0.256620	1.765612	0.749949
C105	C	0.043882	0.984943	-0.000038
C106	C	0.293882	1.234943	0.249962
C107	C	0.543882	1.484943	0.499962
C108	C	0.793882	1.734943	0.749962
C109	C	0.149105	0.975500	-0.000041
C110	C	0.399105	1.225500	0.249959
C111	C	0.649105	1.475500	0.499959
C112	C	0.899105	1.725500	0.749959
C113	C	-0.122448	1.143214	-0.000050
C114	C	0.127552	1.393214	0.249950
C115	C	0.377552	1.643214	0.499950
C116	C	0.627552	1.893214	0.749950
C117	C	-0.124289	1.235647	-0.000060
C118	C	0.125711	1.485647	0.249940
C119	C	0.375711	1.735647	0.499940
C120	C	0.625711	1.985647	0.749940
N121	N	-0.145019	0.979228	0.254182
N122	N	0.104981	1.229228	0.504182
N123	N	0.354981	1.479228	0.754182
N124	N	0.604981	1.729228	1.004182
N125	N	-0.113803	1.004230	-0.254267
N126	N	0.136197	1.254230	-0.004267
N127	N	0.386197	1.504230	0.245733
N128	N	0.636197	1.754230	0.495733
C129	C	-0.158444	0.968486	0.473298
C130	C	0.091556	1.218486	0.723298
C131	C	0.341556	1.468486	0.973298
C132	C	0.591556	1.718486	1.223298
C133	C	-0.100382	1.014969	0.526625
C134	C	0.149618	1.264969	0.776625
C135	C	0.399618	1.514969	1.026625
C136	C	0.649618	1.764969	1.276625
C137	C	-0.107851	1.008992	0.648548
C138	C	0.142149	1.258992	0.898548
C139	C	0.392149	1.508992	1.148548
C140	C	0.642149	1.758992	1.398548
C141	C	-0.150975	0.974462	0.351363
C142	C	0.099025	1.224462	0.601363
C143	C	0.349025	1.474462	0.851363
C144	C	0.599025	1.724462	1.101363
H145	H	-0.138676	0.404255	0.176624
H146	H	0.111324	0.654255	0.426624
H147	H	0.361324	0.904255	0.676624
H148	H	0.611324	1.154255	0.926624
H149	H	-0.631740	1.089770	-0.000047
H150	H	-0.381740	1.339770	0.249953
H151	H	-0.131740	1.589770	0.499953
H152	H	0.118260	1.839770	0.749953
C153	C	-0.025660	1.074806	0.464602
C154	C	0.224340	1.324806	0.714602
C155	C	0.474340	1.574806	0.964602
C156	C	0.724340	1.824806	1.214602
N157	N	0.030613	1.119878	0.417881
N158	N	0.280613	1.369878	0.667881
N159	N	0.530613	1.619878	0.917881
N160	N	0.780613	1.869878	1.167881
C161	C	-0.233169	0.908663	0.535320
C162	C	0.016831	1.158663	0.785320
C163	C	0.266831	1.408663	1.035320
C164	C	0.516831	1.658663	1.285320
N165	N	-0.289453	0.863605	0.582048
N166	N	-0.039453	1.113605	0.832048
N167	N	0.210547	1.363605	1.082048
N168	N	0.460547	1.613605	1.332048
C169	C	-0.143783	0.572846	0.204463
C170	C	0.106217	0.822846	0.454463
C171	C	0.356217	1.072846	0.704463
C172	C	0.606217	1.322846	0.954463
N173	N	-0.149446	0.604844	0.285156
N174	N	0.100554	0.854844	0.535156
N175	N	0.350554	1.104844	0.785156
N176	N	0.600554	1.354844	1.035156
C177	C	-0.115040	0.410602	-0.204556
C178	C	0.134960	0.660602	0.045444
C179	C	0.384960	0.910602	0.295444
C180	C	0.634960	1.160602	0.545444
N181	N	-0.109374	0.378593	-0.285241
N182	N	0.140626	0.628593	-0.035241
N183	N	0.390626	0.878593	0.214759
N184	N	0.640626	1.128593	0.464759
H185	H	-0.120140	0.579207	-0.176731
H186	H	0.129860	0.829207	0.073269
H187	H	0.379860	1.079207	0.323269
H188	H	0.629860	1.329207	0.573269
C189	C	-0.616163	0.871022	-0.000034
C190	C	-0.366163	1.121022	0.249966
C191	C	-0.116163	1.371022	0.499966
C192	C	0.133837	1.621022	0.749966
N193	N	-0.584463	0.805334	-0.000020
N194	N	-0.334463	1.055334	0.249980
N195	N	-0.084463	1.305334	0.499980
N196	N	0.165537	1.555334	0.749980
