data_functionalizedCrystal
_audit_creation_method	'MofGen! by Chris Wilmer'
_symmetry_space_group_name_H-M	'P1'
_symmetry_Int_Tables_number	1
_symmetry_cell_setting	triclinic
loop_
_symmetry_equiv_pos_as_xyz
  x,y,z
_cell_length_a	6.817900
_cell_length_b	11.102183
_cell_length_c	14.125465
_cell_angle_alpha	94.634773
_cell_angle_beta	100.398878
_cell_angle_gamma	108.603876
loop_
_atom_site_label
_atom_site_type_symbol
_atom_site_fract_x
_atom_site_fract_y
_atom_site_fract_z
V1	V	-4.017257	-0.174747	-0.299975
O2	O	-3.978095	0.009521	-0.294266
O3	O	-3.994669	-0.347574	-0.297921
O4	O	-3.952927	-0.171566	-0.430805
O5	O	-4.020125	-0.167706	-0.160463
V6	V	-4.499605	-0.152765	-0.283288
O7	O	-4.281094	-0.222967	-0.336578
O8	O	-4.685965	-0.104545	-0.246685
O9	O	-4.298987	0.020063	-0.285341
O10	O	-4.656164	-0.337032	-0.288997
O11	O	-4.614133	-0.159806	-0.422800
O12	O	-4.340728	-0.155945	-0.152458
C13	C	-3.846464	-0.389721	-0.293189
C14	C	-3.909176	-0.531006	-0.292382
C15	C	-3.793217	-0.165204	-0.462693
C16	C	-3.822075	-0.163746	-0.569648
C17	C	-3.844194	-0.495370	-0.116162
C18	C	-3.841162	-0.543927	-0.027677
C19	C	-3.900091	-0.676678	-0.026924
C20	C	-3.962065	-0.760877	-0.114666
C21	C	-3.965098	-0.712320	-0.203152
C22	C	-3.906157	-0.579564	-0.203895
C23	C	-4.030093	-0.747956	-0.379370
C24	C	-3.971149	-0.615205	-0.380124
C25	C	-4.092066	-0.832154	-0.467112
C26	C	-4.095085	-0.783597	-0.555599
C27	C	-4.036148	-0.650837	-0.556348
C28	C	-3.974182	-0.566648	-0.468610
C29	C	-3.874968	-0.161074	-0.765471
C30	C	-4.061262	-0.166435	-0.817792
C31	C	-4.090694	-0.164948	-0.926755
C32	C	-3.845528	-0.162561	-0.656498
C33	C	-4.110534	0.062203	-0.290071
C34	C	-4.027060	0.203487	-0.290884
C35	C	-4.163781	-0.162312	-0.120564
C36	C	-4.114161	-0.163763	-0.013609
H37	H	-3.790703	-0.475359	0.043761
O38	O	-4.225227	-0.173483	-0.773598
C39	C	-4.273277	-0.285170	-0.728792
H40	H	-4.215074	-0.358411	-0.765502
H41	H	-4.191481	-0.259515	-0.648390
C42	C	-4.586368	-0.252937	-0.693779
C43	C	-4.514898	-0.342897	-0.738873
H44	H	-4.735408	-0.288543	-0.699993
H45	H	-4.553993	-0.177688	-0.723963
H46	H	-4.518185	-0.231565	-0.626782
H47	H	-4.583060	-0.364255	-0.805871
H48	H	-4.547290	-0.418151	-0.708701
O49	O	-4.149075	-0.961122	-0.466496
C50	C	-4.013149	-1.009103	-0.510003
H51	H	-3.940374	-0.940962	-0.560369
H52	H	-3.881631	-1.017089	-0.450985
C53	C	-4.230023	-1.226467	-0.507356
C54	C	-4.140653	-1.142780	-0.569223
H55	H	-4.308668	-1.308928	-0.543882
H56	H	-4.321595	-1.194143	-0.478041
H57	H	-4.120407	-1.233107	-0.458178
H58	H	-4.250269	-1.136129	-0.618392
H59	H	-4.049102	-1.175107	-0.598547
H60	H	-3.737594	-0.155370	-0.802509
O61	O	-4.155324	-0.865208	-0.640913
C62	C	-4.145300	-0.793887	-0.719174
H63	H	-4.157127	-0.696266	-0.695546
H64	H	-3.988410	-0.779587	-0.742129
C65	C	-4.315782	-0.987069	-0.834593
C66	C	-4.330326	-0.867173	-0.805575
H67	H	-4.429907	-1.032277	-0.887891
H68	H	-4.322528	-1.035121	-0.781867
H69	H	-4.185032	-0.975136	-0.853715
H70	H	-4.461062	-0.879109	-0.786441
H71	H	-4.323606	-0.819125	-0.858299
H72	H	-3.796148	-0.387274	-0.116765
H73	H	-4.038649	-0.611313	-0.628405
H74	H	-4.010071	-0.868969	-0.114046
H75	H	-3.897627	-0.716212	0.045128
H76	H	-3.926159	-0.458551	-0.469210
