data_functionalizedCrystal
_audit_creation_method	'MofGen! by Chris Wilmer'
_symmetry_space_group_name_H-M	'P1'
_symmetry_Int_Tables_number	1
_symmetry_cell_setting	triclinic
loop_
_symmetry_equiv_pos_as_xyz
  x,y,z
_cell_length_a	12.811445
_cell_length_b	14.044190
_cell_length_c	11.295483
_cell_angle_alpha	94.464886
_cell_angle_beta	80.460739
_cell_angle_gamma	88.597571
loop_
_atom_site_label
_atom_site_type_symbol
_atom_site_fract_x
_atom_site_fract_y
_atom_site_fract_z
O1	O	1.421147	0.111538	-0.252496
O2	O	1.921147	0.611538	0.247504
O3	O	1.114700	0.127544	-0.219410
O4	O	1.614700	0.627544	0.280590
O5	O	1.263318	-0.018428	-0.235432
O6	O	1.763318	0.481572	0.264568
O7	O	1.272529	0.257511	-0.236474
O8	O	1.772529	0.757511	0.263526
O9	O	1.250263	-0.005627	-0.035974
O10	O	1.750263	0.494373	0.464026
O11	O	1.101644	0.140345	-0.019951
O12	O	1.601644	0.640345	0.480049
O13	O	1.408092	0.124340	-0.053038
O14	O	1.908092	0.624340	0.446962
Cu15	Cu	1.253676	0.133511	-0.018283
Cu16	Cu	1.753676	0.633511	0.481717
Cu17	Cu	1.269115	0.118372	-0.254165
Cu18	Cu	1.769115	0.618372	0.245835
O19	O	1.259473	0.270312	-0.037015
O20	O	1.759473	0.770312	0.462985
C21	C	1.068716	0.133439	-0.115420
C22	C	1.568716	0.633439	0.384580
C23	C	0.951150	0.131921	-0.102726
C24	C	1.451150	0.631921	0.397274
C25	C	0.744462	0.115129	-0.296343
C26	C	1.244462	0.615129	0.203657
C27	C	0.633998	0.113703	-0.284421
C28	C	1.133998	0.613703	0.215579
C29	C	0.619757	0.127650	-0.066959
C30	C	1.119757	0.627650	0.433041
C31	C	0.730221	0.129076	-0.078882
C32	C	1.230221	0.629076	0.421118
C33	C	0.792569	0.122814	-0.193577
C34	C	1.292569	0.622814	0.306423
C35	C	0.903035	0.124233	-0.205499
C36	C	1.403035	0.624233	0.294501
C37	C	0.888792	0.138186	0.011961
C38	C	1.388792	0.638186	0.511961
C39	C	0.778328	0.136760	0.023884
C40	C	1.278328	0.636760	0.523884
C41	C	1.252762	-0.047330	-0.135265
C42	C	1.752762	0.452670	0.364735
C43	C	1.240747	-0.152519	-0.133957
C44	C	1.740747	0.347481	0.366043
C45	C	1.303996	-0.402998	-0.140833
C46	C	1.803996	0.097002	0.359167
C47	C	1.218801	-0.345114	-0.131626
C48	C	1.718801	0.154886	0.368374
C49	C	1.231015	-0.237944	-0.132923
C50	C	1.731015	0.262056	0.367077
C51	C	1.291784	-0.510177	-0.139535
C52	C	1.791784	-0.010177	0.360465
C53	C	1.454075	0.118444	-0.157030
C54	C	1.954075	0.618444	0.342970
C55	C	1.571642	0.119962	-0.169732
C56	C	2.071642	0.619962	0.330268
C57	C	1.270029	0.299213	-0.137185
C58	C	1.770029	0.799213	0.362815
C59	C	1.282045	0.404402	-0.138501
C60	C	1.782045	0.904402	0.361499
N61	N	1.242824	0.144159	0.147624
N62	N	1.742824	0.644159	0.647624
N63	N	1.279975	0.107717	-0.420072
N64	N	1.779975	0.607717	0.079928
C65	C	1.358086	0.031018	0.384487
C66	C	1.858086	0.531018	0.884487
C67	C	1.349893	0.039071	0.510034
C68	C	1.849893	0.539071	1.010034
C69	C	1.218242	0.168313	0.524267
C70	C	1.718242	0.668313	1.024267
C71	C	1.226435	0.160260	0.398720
C72	C	1.726435	0.660260	0.898720
C73	C	1.296360	0.091611	0.328834
C74	C	1.796360	0.591611	0.828834
C75	C	1.304557	0.083563	0.203284
C76	C	1.804557	0.583563	0.703284
C77	C	1.172901	0.212800	0.217521
C78	C	1.672901	0.712800	0.717521
C79	C	1.164709	0.220853	0.343068
C80	C	1.664709	0.720853	0.843068
H81	H	0.568973	0.132756	0.026420
H82	H	1.068973	0.632756	0.526420
H83	H	1.386099	-0.372070	-0.149685
H84	H	1.886099	0.127930	0.350315
H85	H	0.727549	0.141861	0.117266
H86	H	1.227549	0.641861	0.617266
H87	H	1.361497	0.027669	0.146383
H88	H	1.861497	0.527669	0.646383
F89	F	0.969391	0.117565	-0.327566
F90	F	1.469391	0.617565	0.172434
F91	F	1.143816	0.241361	0.598659
F92	F	1.643816	0.741361	1.098659
H93	H	0.927972	0.144442	0.095641
H94	H	1.427972	0.644442	0.595641
F95	F	0.810821	0.108454	-0.418408
F96	F	1.310821	0.608454	0.081592
H97	H	1.136691	-0.376043	-0.122767
H98	H	1.636691	0.123957	0.377233
H99	H	1.415029	-0.024872	0.327583
H100	H	1.915029	0.475128	0.827583
H101	H	1.400155	-0.010271	0.555342
H102	H	1.900155	0.489729	1.055342
F103	F	1.090289	0.293908	0.417456
F104	F	1.590289	0.793908	0.917456
F105	F	1.107211	0.277294	0.158279
F106	F	1.607211	0.777294	0.658279
H107	H	0.594834	0.107448	-0.368103
H108	H	1.094834	0.607448	0.131897
