data_functionalizedCrystal
_audit_creation_method	'MofGen! by Chris Wilmer'
_symmetry_space_group_name_H-M	'P1'
_symmetry_Int_Tables_number	1
_symmetry_cell_setting	triclinic
loop_
_symmetry_equiv_pos_as_xyz
  x,y,z
_cell_length_a	17.038272
_cell_length_b	10.654550
_cell_length_c	9.130313
_cell_angle_alpha	90.000110
_cell_angle_beta	90.001558
_cell_angle_gamma	92.201771
loop_
_atom_site_label
_atom_site_type_symbol
_atom_site_fract_x
_atom_site_fract_y
_atom_site_fract_z
O1	O	1.038886	-0.272859	-0.121735
O2	O	0.811231	-0.268526	-0.121751
O3	O	0.930293	-0.088439	-0.121737
O4	O	0.919825	-0.452946	-0.121749
O5	O	0.930292	-0.088444	0.121862
O6	O	0.811230	-0.268531	0.121848
O7	O	1.038885	-0.272864	0.121864
Cu8	Cu	0.925057	-0.270698	0.144099
Cu9	Cu	0.925059	-0.270692	-0.143985
O10	O	0.919823	-0.452951	0.121850
C11	C	0.782081	-0.264588	0.000047
C12	C	0.695222	-0.252831	0.000041
C13	C	0.929524	-0.041572	0.000061
C14	C	0.927224	0.098084	0.000055
C15	C	1.068036	-0.276802	0.000063
C16	C	1.154895	-0.288559	0.000060
C17	C	1.204406	-0.180615	0.000058
C18	C	1.286018	-0.191669	0.000063
C19	C	1.318118	-0.310669	0.000059
C20	C	1.268600	-0.418622	0.000065
C21	C	1.186989	-0.407566	0.000071
C22	C	1.564094	-0.349727	0.000052
C23	C	1.645711	-0.360775	0.000042
C24	C	1.663123	-0.133822	0.000043
C25	C	1.581510	-0.122776	0.000040
C26	C	1.532000	-0.230729	0.000053
C27	C	1.401538	-0.321972	0.000060
C28	C	1.448581	-0.219425	0.000063
C29	C	0.920593	-0.499817	0.000049
C30	C	0.922892	-0.639474	0.000045
N31	N	0.925062	-0.270702	0.346721
C32	C	0.997326	0.171061	0.000065
C33	C	0.995160	0.302283	0.000054
C34	C	0.852785	0.287540	0.000031
C35	C	0.854952	0.156320	0.000031
C36	C	1.069598	0.112825	0.000089
C37	C	1.139706	0.185802	0.000100
C38	C	1.137540	0.317024	0.000089
C39	C	1.065267	0.375269	0.000068
N40	N	0.925061	-0.270679	-0.346608
C41	C	0.977796	-0.190990	0.423379
C42	C	0.977794	-0.190974	0.576716
C43	C	0.872321	-0.350394	0.576723
C44	C	0.872320	-0.350402	0.423389
C45	C	1.030538	-0.111289	0.346711
C46	C	1.083277	-0.031572	0.423369
C47	C	1.083275	-0.031556	0.576706
C48	C	1.030534	-0.111259	0.653385
H49	H	1.178277	-0.083713	0.000052
F50	F	1.435708	-0.448617	0.000042
F51	F	0.780342	0.078649	0.000021
H52	H	0.793944	0.334973	0.000016
F53	F	1.715821	-0.018940	0.000036
H54	H	1.422442	-0.122536	0.000050
F55	F	1.216619	0.123812	0.000105
H56	H	1.146677	-0.495466	0.000077
F57	F	0.816196	-0.435216	0.658334
F58	F	1.511411	-0.464621	0.000051
F59	F	1.030546	-0.111304	0.183517
H60	H	1.071370	0.005979	0.000102
F61	F	1.139399	0.053259	0.341762
F62	F	1.139397	0.053294	0.658289
H63	H	1.030531	-0.111231	0.778242
H64	H	1.294742	-0.515514	0.000071
H65	H	1.194625	0.376439	0.000083
F66	F	0.816191	-0.435239	0.341803
F67	F	1.062966	0.514929	0.000105
F68	F	1.338709	-0.076779	0.000069
H69	H	1.555381	-0.025874	0.000043
F70	F	1.679871	-0.487436	0.000039
