data_functionalizedCrystal
_audit_creation_method	'MofGen! by Chris Wilmer'
_symmetry_space_group_name_H-M	'P1'
_symmetry_Int_Tables_number	1
_symmetry_cell_setting	triclinic
loop_
_symmetry_equiv_pos_as_xyz
  x,y,z
_cell_length_a	19.288856
_cell_length_b	18.366186
_cell_length_c	19.288865
_cell_angle_alpha	90.011397
_cell_angle_beta	83.134504
_cell_angle_gamma	90.011357
loop_
_atom_site_label
_atom_site_type_symbol
_atom_site_fract_x
_atom_site_fract_y
_atom_site_fract_z
O1	O	-0.921357	-0.060591	-0.086620
O2	O	-0.421357	0.439409	0.413380
O3	O	-0.719095	-0.060586	-0.098315
O4	O	-0.219095	0.439414	0.401685
O5	O	-0.826070	-0.060575	0.008663
O6	O	-0.326070	0.439425	0.508663
O7	O	-0.814382	-0.060603	-0.193598
O8	O	-0.314382	0.439397	0.306402
O9	O	-0.826052	0.060525	0.008668
O10	O	-0.326052	0.560525	0.508668
O11	O	-0.719077	0.060513	-0.098310
O12	O	-0.219077	0.560513	0.401690
O13	O	-0.921338	0.060508	-0.086615
O14	O	-0.421338	0.560508	0.413385
Zn15	Zn	-0.820204	0.079738	-0.092462
Zn16	Zn	-0.320204	0.579738	0.407538
Zn17	Zn	-0.820229	-0.079816	-0.092469
Zn18	Zn	-0.320229	0.420184	0.407531
O19	O	-0.814363	0.060496	-0.193593
O20	O	-0.314363	0.560496	0.306407
C21	C	-0.693209	-0.000036	-0.097937
C22	C	-0.193209	0.499964	0.402063
C23	C	-0.616106	-0.000034	-0.096811
C24	C	-0.116106	0.499966	0.403189
N25	N	-0.820192	0.188629	-0.092457
N26	N	-0.320192	0.688629	0.407543
C27	C	-0.867576	0.226734	-0.045111
C28	C	-0.367576	0.726734	0.454889
C29	C	-0.867580	0.302962	-0.045108
C30	C	-0.367580	0.802962	0.454892
C31	C	-0.820207	0.341082	-0.092463
C32	C	-0.320207	0.841082	0.407537
C33	C	-0.772814	0.302967	-0.139813
C34	C	-0.272814	0.802967	0.360187
C35	C	-0.772807	0.226740	-0.139810
C36	C	-0.272807	0.726740	0.360190
C37	C	-0.810908	0.461833	-0.155752
C38	C	-0.310908	0.961833	0.344248
C39	C	-0.810920	0.538058	-0.155755
C40	C	-0.310920	1.038058	0.344245
C41	C	-0.820225	0.576189	-0.092472
C42	C	-0.320225	1.076189	0.407528
C43	C	-0.829533	0.538086	-0.029182
C44	C	-0.329533	1.038086	0.470818
C45	C	-0.829526	0.461859	-0.029179
C46	C	-0.329526	0.961859	0.470821
C47	C	-0.820209	0.423736	-0.092471
C48	C	-0.320209	0.923736	0.407529
C49	C	-0.867616	0.696950	-0.045119
C50	C	-0.367616	1.196950	0.454881
C51	C	-0.867615	0.773179	-0.045115
C52	C	-0.367615	1.273179	0.454885
C53	C	-0.772853	0.773182	-0.139826
C54	C	-0.272853	1.273182	0.360174
C55	C	-0.772850	0.696954	-0.139824
C56	C	-0.272850	1.196954	0.360176
C57	C	-0.820236	0.658843	-0.092471
C58	C	-0.320236	1.158843	0.407529
C59	C	-0.052064	-0.000031	-0.151959
C60	C	0.447936	0.499969	0.348041
C61	C	-0.124511	-0.000036	-0.153024
C62	C	0.375489	0.499964	0.346976
C63	C	-0.169218	-0.000027	-0.090254
C64	C	0.330782	0.499973	0.409746
C65	C	-0.141472	-0.000031	-0.026415
C66	C	0.358528	0.499969	0.473585
C67	C	-0.069027	-0.000033	-0.025352
C68	C	0.430973	0.499967	0.474648
C69	C	-0.290481	0.042406	-0.043438
C70	C	0.209519	0.542406	0.456562
C71	C	-0.362925	0.042413	-0.044504
C72	C	0.137075	0.542413	0.455496
C73	C	-0.392664	-0.000025	-0.093530
C74	C	0.107336	0.499975	0.406470
C75	C	-0.349948	-0.042459	-0.141502
C76	C	0.150052	0.457541	0.358498
C77	C	-0.277503	-0.042461	-0.140439
C78	C	0.222497	0.457539	0.359561
C79	C	-0.247773	-0.000025	-0.091399
C80	C	0.252227	0.499975	0.408601
C81	C	-0.498955	-0.000032	-0.158519
C82	C	0.001045	0.499968	0.341481
C83	C	-0.571404	-0.000042	-0.159581
C84	C	-0.071404	0.499958	0.340419
C85	C	-0.588364	-0.000029	-0.032971
C86	C	-0.088364	0.499971	0.467029
C87	C	-0.515917	-0.000026	-0.031910
C88	C	-0.015917	0.499974	0.468090
C89	C	-0.471217	-0.000024	-0.094687
C90	C	0.028783	0.499976	0.405313
C91	C	0.052776	-0.000039	-0.086995
C92	C	0.552776	0.499961	0.413005
C93	C	-0.024327	-0.000031	-0.088128
C94	C	0.475673	0.499969	0.411872
C95	C	-0.825685	-0.000023	0.034542
C96	C	-0.325685	0.499977	0.534542
C97	C	-0.824556	-0.000016	0.111645
C98	C	-0.324556	0.499984	0.611645
N99	N	-0.820241	0.811293	-0.092470
N100	N	-0.320241	1.311293	0.407530
C101	C	-0.814748	-0.000057	-0.219472
C102	C	-0.314748	0.499943	0.280528
C103	C	-0.815877	-0.000068	-0.296576
C104	C	-0.315877	0.499932	0.203424
C105	C	-0.887324	-0.000014	0.156343
C106	C	-0.387324	0.499986	0.656343
C107	C	-0.886263	-0.000026	0.228790
C108	C	-0.386263	0.499974	0.728790
C109	C	-0.822431	-0.000025	0.256536
C110	C	-0.322431	0.499975	0.756536
C111	C	-0.759655	-0.000031	0.211828
C112	C	-0.259655	0.499969	0.711828
C113	C	-0.760717	-0.000027	0.139383
C114	C	-0.260717	0.499973	0.639383
C115	C	-0.772245	0.042395	0.364824
C116	C	-0.272245	0.542395	0.864824
C117	C	-0.771185	0.042395	0.437268
C118	C	-0.271185	0.542395	0.937268
C119	C	-0.819151	-0.000041	0.479982
C120	C	-0.319151	0.499959	0.979982
C121	C	-0.868190	-0.042468	0.450243
C122	C	-0.368190	0.457532	0.950243
C123	C	-0.869252	-0.042464	0.377798
C124	C	-0.369252	0.457536	0.877798
C125	C	-0.821272	-0.000030	0.335090
C126	C	-0.321272	0.499970	0.835090
C127	C	-0.880774	-0.000052	0.603236
C128	C	-0.380774	0.499948	1.103236
C129	C	-0.879710	-0.000068	0.675684
C130	C	-0.379710	0.499932	1.175684
C131	C	-0.753100	-0.000066	0.658720
C132	C	-0.253100	0.499934	1.158720
C133	C	-0.754165	-0.000057	0.586273
C134	C	-0.254165	0.499943	1.086273
C135	C	-0.818004	-0.000047	0.558536
C136	C	-0.318004	0.499953	1.058536
H137	H	-0.906159	0.195706	-0.006551
H138	H	-0.406159	0.695706	0.493449
C139	C	-0.682885	-0.000067	0.689231
C140	C	-0.182885	0.499933	1.189231
H141	H	-0.691241	-0.000066	0.738779
H142	H	-0.191241	0.499934	1.238779
H143	H	-0.657056	-0.042296	0.673863
H144	H	-0.157056	0.457704	1.173863
H145	H	-0.657043	0.042170	0.673885
H146	H	-0.157043	0.542170	1.173885
H147	H	-0.462558	-0.000031	-0.209635
H148	H	0.037442	0.499969	0.290365
C149	C	-0.919726	0.655021	0.006974
C150	C	-0.419726	1.155021	0.506974
H151	H	-0.912941	0.604165	0.000190
H152	H	-0.412941	1.104165	0.500190
H153	H	-0.912329	0.667527	0.053311
H154	H	-0.412329	1.167527	0.553311
H155	H	-0.966061	0.667497	-0.000451
H156	H	-0.466061	1.167497	0.499549
C157	C	-0.409908	0.089086	0.008261
C158	C	0.090092	0.589086	0.508261
H159	H	-0.457312	0.083017	0.000602
H160	H	0.042688	0.583017	0.500602
H161	H	-0.404197	0.074169	0.054388
H162	H	0.095803	0.574169	0.554388
H163	H	-0.397206	0.138874	0.002336
H164	H	0.102794	0.638874	0.502336
H165	H	-0.703052	-0.000055	0.549879
H166	H	-0.203052	0.499945	1.049879
C167	C	-0.720691	0.184819	-0.191900
C168	C	-0.220691	0.684819	0.308100
H169	H	-0.727472	0.133963	-0.185115
H170	H	-0.227472	0.633963	0.314885
H171	H	-0.728089	0.197301	-0.238237
H172	H	-0.228089	0.697301	0.261763
H173	H	-0.674358	0.197322	-0.184474
H174	H	-0.174358	0.697322	0.315526
H175	H	-0.177877	-0.000025	0.024693
H176	H	0.322123	0.499975	0.524693
C177	C	-0.230516	-0.089139	-0.193196
C178	C	0.269484	0.410861	0.306804
H179	H	-0.183112	-0.083056	-0.185542
H180	H	0.316888	0.416944	0.314458
H181	H	-0.243216	-0.138923	-0.187270
H182	H	0.256784	0.361077	0.312730
H183	H	-0.236225	-0.074223	-0.239328
H184	H	0.263775	0.425777	0.260672
C185	C	-0.382653	-0.089171	-0.195410
C186	C	0.117347	0.410829	0.304590
H187	H	-0.431918	-0.083110	-0.189162
H188	H	0.068082	0.416890	0.310838
H189	H	-0.364634	-0.074283	-0.241200
H190	H	0.135366	0.425717	0.258800
H191	H	-0.371596	-0.138952	-0.189106
H192	H	0.128404	0.361048	0.310894
H193	H	-0.015673	-0.000033	-0.203076
H194	H	0.484327	0.499967	0.296924
H195	H	-0.147099	-0.000030	-0.205004
H196	H	0.352901	0.499970	0.294996
H197	H	-0.046445	-0.000033	0.026628
H198	H	0.453555	0.499967	0.526628
C199	C	-0.637530	-0.000021	0.036077
C200	C	-0.137530	0.499979	0.536077
H201	H	-0.610631	-0.000024	0.074246
H202	H	-0.110631	0.499976	0.574246
H203	H	-0.666138	0.042208	0.038300
H204	H	-0.166138	0.542208	0.538300
H205	H	-0.666148	-0.042258	0.038289
H206	H	-0.166148	0.457742	0.538289
H207	H	-0.909179	-0.077011	0.353588
H208	H	-0.409179	0.422989	0.853588
H209	H	-0.493334	-0.000022	0.020068
H210	H	0.006666	0.499978	0.520068
H211	H	-0.266276	0.076965	-0.003512
H212	H	0.233724	0.576965	0.496488
H213	H	-0.939307	-0.000008	0.133765
H214	H	-0.439307	0.499992	0.633765
H215	H	-0.593985	-0.000048	-0.211562
H216	H	-0.093985	0.499952	0.288438
H217	H	-0.734278	0.804218	-0.178382
H218	H	-0.234278	1.304218	0.321618
C219	C	-0.955311	-0.000018	0.277967
C220	C	-0.455311	0.499982	0.777967
H221	H	-0.993482	-0.000007	0.251072
H222	H	-0.493482	0.499993	0.751072
H223	H	-0.957539	-0.042247	0.306575
H224	H	-0.457539	0.457753	0.806575
H225	H	-0.957513	0.042218	0.306586
H226	H	-0.457513	0.542218	0.806586
H227	H	-0.907248	-0.077024	0.485019
H228	H	-0.407248	0.422976	0.985019
H229	H	-0.733183	0.076956	0.330051
H230	H	-0.233183	0.576956	0.830051
H231	H	-0.932755	-0.000047	0.580651
H232	H	-0.432755	0.499953	1.080651
H233	H	-0.930826	-0.000071	0.712077
H234	H	-0.430826	0.499929	1.212077
C235	C	-0.717247	0.089063	0.469974
C236	C	-0.217247	0.589063	0.969974
H237	H	-0.688824	0.114326	0.434160
H238	H	-0.188824	0.614326	0.934160
H239	H	-0.740837	0.123179	0.501459
H240	H	-0.240837	0.623179	1.001459
H241	H	-0.688792	0.058467	0.494471
H242	H	-0.188792	0.558467	0.994471
H243	H	-0.734241	0.334007	-0.178370
H244	H	-0.234241	0.834007	0.321630
H245	H	-0.707682	-0.000032	0.234423
H246	H	-0.207682	0.499968	0.734423
C247	C	-0.691671	-0.000027	0.090210
C248	C	-0.191671	0.499973	0.590210
H249	H	-0.701447	-0.000028	0.043091
H250	H	-0.201447	0.499972	0.543091
H251	H	-0.665476	0.042199	0.098607
H252	H	-0.165476	0.542199	0.598607
H253	H	-0.665498	-0.042266	0.098587
H254	H	-0.165498	0.457734	0.598587
H255	H	-0.906167	0.333994	-0.006551
H256	H	-0.406167	0.833994	0.493449
C257	C	-0.720735	0.655036	-0.191914
C258	C	-0.220735	1.155036	0.308086
H259	H	-0.692525	0.688653	-0.220121
H260	H	-0.192525	1.188653	0.279879
H261	H	-0.691899	0.625313	-0.167003
H262	H	-0.191899	1.125313	0.332997
H263	H	-0.745632	0.625287	-0.220765
H264	H	-0.245632	1.125287	0.279235
H265	H	-0.837110	0.569130	0.022349
H266	H	-0.337110	1.069130	0.522349
C267	C	-0.839753	0.419946	0.040432
C268	C	-0.339753	0.919946	0.540432
H269	H	-0.845391	0.453566	0.078122
H270	H	-0.345391	0.953566	0.578122
H271	H	-0.880139	0.390115	0.041901
H272	H	-0.380139	0.890115	0.541901
H273	H	-0.800025	0.390306	0.044222
H274	H	-0.300025	0.890306	0.544222
H275	H	-0.803346	0.569076	-0.207290
H276	H	-0.303346	1.069076	0.292710
H277	H	-0.906199	0.804205	-0.006556
H278	H	-0.406199	1.304205	0.493444
H279	H	-0.803319	0.430793	-0.207288
H280	H	-0.303319	0.930793	0.292712
