data_functionalizedCrystal
_audit_creation_method	'MofGen! by Chris Wilmer'
_symmetry_space_group_name_H-M	'P1'
_symmetry_Int_Tables_number	1
_symmetry_cell_setting	triclinic
loop_
_symmetry_equiv_pos_as_xyz
  x,y,z
_cell_length_a	17.038278
_cell_length_b	17.000371
_cell_length_c	8.140239
_cell_angle_alpha	89.996115
_cell_angle_beta	89.997156
_cell_angle_gamma	83.354874
loop_
_atom_site_label
_atom_site_type_symbol
_atom_site_fract_x
_atom_site_fract_y
_atom_site_fract_z
O1	O	1.025583	0.172030	-0.136627
O2	O	0.798139	0.169300	-0.136628
O3	O	0.925983	0.055755	-0.136616
O4	O	0.897738	0.285575	-0.136639
O5	O	0.925977	0.055753	0.136611
O6	O	0.798132	0.169298	0.136599
O7	O	1.025576	0.172028	0.136600
Zn8	Zn	0.911853	0.170663	0.179980
Zn9	Zn	0.911862	0.170665	-0.180008
O10	O	0.897732	0.285573	0.136588
C11	C	0.769178	0.166815	-0.000014
C12	C	0.682892	0.159403	-0.000014
C13	C	0.927497	0.026203	-0.000003
C14	C	0.932008	-0.061851	-0.000005
C15	C	0.195599	0.113867	-0.000016
C16	C	0.276672	0.120837	-0.000007
C17	C	0.302967	0.195867	-0.000022
C18	C	0.248184	0.263930	-0.000029
C19	C	0.167112	0.256959	-0.000027
C20	C	0.547038	0.220495	-0.000019
C21	C	0.628116	0.227461	-0.000027
C22	C	0.656599	0.084367	-0.000001
C23	C	0.575525	0.077403	-0.000008
C24	C	0.520748	0.145466	-0.000007
C25	C	0.385836	0.202994	-0.000017
C26	C	0.437881	0.138339	0.000000
C27	C	0.862586	-0.098576	-0.000012
C28	C	0.866830	-0.181312	-0.000007
C29	C	0.940496	-0.227320	-0.000007
C30	C	1.009923	-0.190589	0.000005
C31	C	1.005679	-0.107855	0.000012
C32	C	0.956890	-0.477356	-0.000019
C33	C	0.961129	-0.560096	-0.000031
C34	C	0.818035	-0.550813	-0.000040
C35	C	0.813797	-0.468078	-0.000043
C36	C	0.883224	-0.431354	-0.000022
C37	C	0.944835	-0.311890	-0.000008
C38	C	0.878884	-0.346786	-0.000009
C39	C	1.054538	0.174513	-0.000018
C40	C	1.140823	0.181925	-0.000028
C41	C	0.896218	0.315125	-0.000029
C42	C	0.891707	0.403178	-0.000038
N43	N	0.911853	0.170661	0.425663
N44	N	0.911869	0.170661	-0.425691
H45	H	0.174198	0.052770	-0.000014
C46	C	0.781553	-0.047974	-0.000011
H47	H	0.740817	-0.081699	0.000000
H48	H	0.776922	-0.015501	-0.095287
H49	H	0.776922	-0.015513	0.095285
H50	H	0.554123	0.016306	0.000004
C51	C	0.486794	0.295362	-0.000033
H52	H	0.514069	0.341042	-0.000060
H53	H	0.454574	0.295622	0.095249
H54	H	0.454579	0.295615	-0.095324
C55	C	0.716852	0.009505	0.000019
H56	H	0.768902	0.024399	0.000030
H57	H	0.709422	-0.021040	-0.095250
H58	H	0.709413	-0.021027	0.095323
C59	C	0.408962	0.055809	0.000014
H60	H	0.453195	0.016270	0.000027
H61	H	0.377928	0.050121	-0.095263
H62	H	0.377928	0.050119	0.095310
C63	C	1.042165	-0.610705	-0.000026
H64	H	1.082906	-0.576984	0.000002
H65	H	1.046797	-0.643165	-0.095312
H66	H	1.046786	-0.643178	0.095261
H67	H	0.810299	-0.211210	-0.000026
C68	C	0.732765	-0.417474	-0.000022
H69	H	0.692026	-0.451196	-0.000009
H70	H	0.728134	-0.384998	-0.095295
H71	H	0.728138	-0.385015	0.095278
C72	C	1.082042	-0.067457	0.000017
H73	H	1.126524	-0.106706	0.000001
H74	H	1.083358	-0.035380	0.095300
H75	H	1.083364	-0.035371	-0.095272
H76	H	0.269599	0.325021	-0.000031
H77	H	0.649520	0.288562	-0.000015
C78	C	0.797855	-0.296183	-0.000012
H79	H	0.757113	-0.329902	-0.000012
H80	H	0.793234	-0.263710	-0.095288
H81	H	0.793224	-0.263722	0.095284
H82	H	1.069903	-0.228056	0.000016
C83	C	0.741673	-0.591211	-0.000042
H84	H	0.754748	-0.647074	-0.000032
H85	H	0.711579	-0.575741	-0.095317
H86	H	0.711584	-0.575749	0.095256
H87	H	0.122513	0.312379	-0.000031
H88	H	0.407255	0.264083	-0.000034
H89	H	0.321269	0.065417	0.000010
C90	C	1.033256	-0.436970	-0.000025
H91	H	1.077734	-0.476223	-0.000049
H92	H	1.034581	-0.404892	0.095255
H93	H	1.034574	-0.404886	-0.095318
H94	H	1.004814	-0.349359	-0.000011
