data_functionalizedCrystal
_audit_creation_method	'MofGen! by Chris Wilmer'
_symmetry_space_group_name_H-M	'P1'
_symmetry_Int_Tables_number	1
_symmetry_cell_setting	triclinic
loop_
_symmetry_equiv_pos_as_xyz
  x,y,z
_cell_length_a	17.699083
_cell_length_b	17.699083
_cell_length_c	16.776229
_cell_angle_alpha	90.007545
_cell_angle_beta	90.001114
_cell_angle_gamma	83.283015
loop_
_atom_site_label
_atom_site_type_symbol
_atom_site_fract_x
_atom_site_fract_y
_atom_site_fract_z
O1	O	-1.004078	-0.095713	-0.066178
O2	O	-0.504078	0.404287	0.433822
O3	O	-0.783700	-0.108165	-0.066204
O4	O	-0.283700	0.391835	0.433796
O5	O	-0.900116	0.008250	-0.066183
O6	O	-0.400116	0.508250	0.433817
O7	O	-0.887663	-0.212128	-0.066199
O8	O	-0.387663	0.287872	0.433801
O9	O	-0.900100	0.008257	0.066393
O10	O	-0.400100	0.508257	0.566393
O11	O	-0.783685	-0.108158	0.066372
O12	O	-0.283685	0.391842	0.566372
O13	O	-1.004063	-0.095706	0.066398
O14	O	-0.504063	0.404294	0.566398
Zn15	Zn	-0.893871	-0.101931	0.087435
Zn16	Zn	-0.393871	0.398069	0.587435
Zn17	Zn	-0.893892	-0.101940	-0.087241
Zn18	Zn	-0.393892	0.398060	0.412759
O19	O	-0.887648	-0.212121	0.066378
O20	O	-0.387648	0.287879	0.566378
C21	C	-0.755495	-0.107716	0.000081
C22	C	-0.255495	0.392284	0.500081
C23	C	-0.671477	-0.106377	0.000071
C24	C	-0.171477	0.393623	0.500071
C25	C	-0.899662	0.036451	0.000105
C26	C	-0.399662	0.536451	0.500105
C27	C	-0.898323	0.120469	0.000105
C28	C	-0.398323	0.620469	0.500105
C29	C	-1.032268	-0.096156	0.000112
C30	C	-0.532268	0.403844	0.500112
C31	C	-1.116286	-0.097494	0.000116
C32	C	-0.616286	0.402506	0.500116
C33	C	-0.622856	-0.174710	0.000066
C34	C	-0.122856	0.325290	0.500066
C35	C	-0.543913	-0.173448	0.000077
C36	C	-0.043913	0.326552	0.500077
C37	C	-0.513592	-0.103852	0.000086
C38	C	-0.013592	0.396148	0.500086
C39	C	-0.562219	-0.035513	0.000093
C40	C	-0.062219	0.464487	0.500093
C41	C	-0.641161	-0.036776	0.000088
C42	C	-0.141161	0.463224	0.500088
C43	C	-0.243856	-0.030418	0.000113
C44	C	0.256144	0.469582	0.500113
C45	C	-0.164908	-0.029160	0.000115
C46	C	0.335092	0.470840	0.500115
C47	C	-0.146608	-0.167090	0.000101
C48	C	0.353392	0.332910	0.500101
C49	C	-0.225550	-0.168353	0.000097
C50	C	0.274450	0.331647	0.500097
C51	C	-0.274170	-0.100015	0.000108
C52	C	0.225830	0.399985	0.500108
C53	C	-0.359769	-0.101384	0.000098
C54	C	0.140231	0.398616	0.500098
C55	C	-0.427995	-0.102481	0.000090
C56	C	0.072005	0.397519	0.500090
C57	C	-0.888102	-0.240322	0.000087
C58	C	-0.388102	0.259678	0.500087
C59	C	-0.889440	-0.324340	0.000082
C60	C	-0.389440	0.175660	0.500082
N61	N	-0.893863	-0.101924	0.206646
N62	N	-0.393863	0.398076	0.706646
C63	C	-0.966656	0.169090	0.000114
C64	C	-0.466656	0.669090	0.500114
C65	C	-0.965394	0.248033	0.000107
C66	C	-0.465394	0.748033	0.500107
C67	C	-0.895798	0.278354	0.000096
C68	C	-0.395798	0.778354	0.500096
C69	C	-0.827459	0.229727	0.000085
C70	C	-0.327459	0.729727	0.500085
C71	C	-0.828722	0.150785	0.000086
C72	C	-0.328722	0.650785	0.500086
C73	C	-0.822364	0.548090	0.000078
C74	C	-0.322364	1.048090	0.500078
C75	C	-0.821106	0.627038	0.000078
C76	C	-0.321106	1.127038	0.500078
C77	C	-0.959036	0.645338	0.000099
C78	C	-0.459036	1.145338	0.500099
C79	C	-0.960299	0.566396	0.000100
C80	C	-0.460299	1.066396	0.500100
C81	C	-0.891961	0.517776	0.000084
C82	C	-0.391961	1.017776	0.500084
C83	C	-0.893330	0.432177	0.000090
C84	C	-0.393330	0.932177	0.500090
C85	C	-0.894427	0.363951	0.000096
C86	C	-0.394427	0.863951	0.500096
N87	N	-0.893906	-0.101941	-0.206452
N88	N	-0.393906	0.398059	0.293548
C89	C	-0.945428	-0.050396	0.248372
C90	C	-0.445428	0.449604	0.748372
C91	C	-0.945432	-0.050396	0.331824
C92	C	-0.445432	0.449604	0.831824
C93	C	-0.893875	-0.101927	0.373549
C94	C	-0.393875	0.398073	0.873549
C95	C	-0.842305	-0.153457	0.331817
C96	C	-0.342305	0.346543	0.831817
C97	C	-0.842297	-0.153454	0.248366
C98	C	-0.342297	0.346546	0.748366
C99	C	-0.842332	-0.153472	0.668364
C100	C	-0.342332	0.346528	1.168364
C101	C	-0.842345	-0.153473	0.751820
C102	C	-0.342345	0.346527	1.251820
C103	C	-0.945466	-0.050414	0.751822
C104	C	-0.445466	0.449586	1.251822
C105	C	-0.945459	-0.050411	0.668372
C106	C	-0.445459	0.449589	1.168372
C107	C	-0.893887	-0.101938	0.626647
C108	C	-0.393887	0.398062	1.126647
C109	C	-0.893882	-0.101937	0.536158
C110	C	-0.393882	0.398063	1.036158
C111	C	-0.893882	-0.101932	0.464036
C112	C	-0.393882	0.398068	0.964036
H113	H	-0.647537	-0.231384	0.000058
H114	H	-0.147537	0.268616	0.500058
H115	H	-1.021038	0.287618	0.000116
H116	H	-0.521038	0.787618	0.500116
H117	H	-0.140225	0.027517	0.000124
H118	H	0.359775	0.527517	0.500124
H119	H	-0.283434	0.025228	0.000123
H120	H	0.216566	0.525228	0.500123
H121	H	-0.987414	-0.008437	0.214406
H122	H	-0.487414	0.491563	0.714406
C123	C	-0.750902	0.263074	0.000067
C124	C	-0.250902	0.763074	0.500067
H125	H	-0.710386	0.222808	0.000052
H126	H	-0.210386	0.722808	0.500052
H127	H	-0.747532	0.293495	0.046297
H128	H	-0.247532	0.793495	0.546297
H129	H	-0.747553	0.293481	-0.046174
H130	H	-0.247553	0.793481	0.453826
H131	H	-0.987419	-0.008438	0.365798
H132	H	-0.487419	0.491562	0.865798
C133	C	-1.034208	0.698822	0.000103
C134	C	-0.534208	1.198822	0.500103
H135	H	-1.023492	0.750180	0.000091
H136	H	-0.523492	1.250180	0.500091
H137	H	-1.062747	0.689653	0.046339
H138	H	-0.562747	1.189653	0.546339
H139	H	-1.062755	0.689635	-0.046131
H140	H	-0.562755	1.189635	0.453869
H141	H	-0.764429	0.651721	0.000071
H142	H	-0.264429	1.151721	0.500071
H143	H	-1.023330	0.144409	0.000128
H144	H	-0.523330	0.644409	0.500128
C145	C	-1.002188	0.006273	0.797722
C146	C	-0.502188	0.506273	1.297722
H147	H	-0.994805	-0.001100	0.853398
H148	H	-0.494805	0.498900	1.353398
H149	H	-1.052681	-0.001883	0.784039
H150	H	-0.552681	0.498117	1.284039
H151	H	-0.994059	0.056779	0.784052
H152	H	-0.494059	0.556779	1.284052
C153	C	-0.747195	0.494618	0.000074
C154	C	-0.247195	0.994618	0.500074
H155	H	-0.705567	0.523984	0.000079
H156	H	-0.205567	1.023984	0.500079
H157	H	-0.744818	0.463433	-0.046156
H158	H	-0.244818	0.963433	0.453844
H159	H	-0.744818	0.463451	0.046314
H160	H	-0.244818	0.963451	0.546314
C161	C	-0.694644	0.038390	0.000085
C162	C	-0.194644	0.538390	0.500085
H163	H	-0.665282	0.080021	0.000083
H164	H	-0.165282	0.580021	0.500083
H165	H	-0.725824	0.040770	0.046314
H166	H	-0.225824	0.540770	0.546314
H167	H	-0.725815	0.040759	-0.046156
H168	H	-0.225815	0.540759	0.453844
C169	C	-0.785616	-0.210146	0.797716
C170	C	-0.285616	0.289854	1.297716
H171	H	-0.754892	-0.240826	0.760915
H172	H	-0.254892	0.259174	1.260915
H173	H	-0.812772	-0.241626	0.830266
H174	H	-0.312772	0.258374	1.330266
H175	H	-0.754173	-0.182940	0.830274
H176	H	-0.254173	0.317060	1.330274
H177	H	-0.987444	-0.008452	0.634402
H178	H	-0.487444	0.491548	1.134402
C179	C	-0.258899	-0.244909	0.000090
C180	C	0.241101	0.255091	0.500090
H181	H	-0.218635	-0.285426	0.000097
H182	H	0.281365	0.214574	0.500097
H183	H	-0.289314	-0.248273	-0.046143
H184	H	0.210686	0.251727	0.453857
H185	H	-0.289313	-0.248261	0.046328
H186	H	0.210687	0.251739	0.546328
C187	C	-0.785612	-0.210156	0.622477
C188	C	-0.285612	0.289844	1.122477
H189	H	-0.754915	-0.240851	0.659280
H190	H	-0.254915	0.259149	1.159280
H191	H	-0.754153	-0.182971	0.589932
H192	H	-0.254153	0.317029	1.089932
H193	H	-0.812778	-0.241630	0.589914
H194	H	-0.312778	0.258370	1.089914
H195	H	-0.800308	-0.195412	0.214393
H196	H	-0.300308	0.304588	0.714393
C197	C	-0.490433	-0.248615	0.000069
C198	C	0.009567	0.251385	0.500069
H199	H	-0.519797	-0.290244	0.000053
H200	H	-0.019797	0.209756	0.500053
H201	H	-0.459260	-0.250991	0.046304
H202	H	0.040740	0.249009	0.546304
H203	H	-0.459255	-0.250989	-0.046167
H204	H	0.040745	0.249011	0.453833
C205	C	-1.036852	0.533043	0.000115
C206	C	-0.536852	1.033043	0.500115
H207	H	-1.027817	0.479065	0.000122
H208	H	-0.527817	0.979065	0.500122
H209	H	-1.064991	0.549734	-0.046113
H210	H	-0.564991	1.049734	0.453887
H211	H	-1.064974	0.549747	0.046358
H212	H	-0.564974	1.049747	0.546358
C213	C	-0.753558	0.097298	0.000076
C214	C	-0.253558	0.597298	0.500076
H215	H	-0.764277	0.045941	0.000070
H216	H	-0.264277	0.545941	0.500070
H217	H	-0.725004	0.106478	0.046302
H218	H	-0.225004	0.606478	0.546302
H219	H	-0.725024	0.106472	-0.046168
H220	H	-0.225024	0.606472	0.453832
H221	H	-0.800322	-0.195412	0.365793
H222	H	-0.300322	0.304588	0.865793
H223	H	-0.107012	-0.222734	0.000097
H224	H	0.392988	0.277266	0.500097
C225	C	-0.528869	0.041041	0.000102
C226	C	-0.028869	0.541041	0.500102
H227	H	-0.474890	0.032008	0.000095
H228	H	0.025110	0.532008	0.500095
H229	H	-0.545567	0.069176	0.046335
H230	H	-0.045567	0.569176	0.546335
H231	H	-0.545567	0.069166	-0.046136
H232	H	-0.045567	0.569166	0.453864
