data_functionalizedCrystal
_audit_creation_method	'MofGen! by Chris Wilmer'
_symmetry_space_group_name_H-M	'P1'
_symmetry_Int_Tables_number	1
_symmetry_cell_setting	triclinic
loop_
_symmetry_equiv_pos_as_xyz
  x,y,z
_cell_length_a	9.065215
_cell_length_b	7.540329
_cell_length_c	9.065215
_cell_angle_alpha	89.997358
_cell_angle_beta	85.014697
_cell_angle_gamma	89.997574
loop_
_atom_site_label
_atom_site_type_symbol
_atom_site_fract_x
_atom_site_fract_y
_atom_site_fract_z
O1	O	1.960399	-0.147458	0.216335
O2	O	2.460399	0.352542	0.716335
O3	O	1.531113	-0.147466	0.234085
O4	O	2.031113	0.352534	0.734085
O5	O	1.754631	-0.147454	0.010567
O6	O	2.254631	0.352546	0.510567
O7	O	1.736880	-0.147469	0.439853
O8	O	2.236880	0.352531	0.939853
O9	O	1.754618	0.147511	0.010564
O10	O	2.254618	0.647511	0.510564
O11	O	1.531100	0.147499	0.234083
O12	O	2.031100	0.647499	0.734083
O13	O	1.960385	0.147507	0.216332
O14	O	2.460385	0.647507	0.716332
Cu15	Cu	1.745741	0.174436	0.225207
Cu16	Cu	2.245741	0.674436	0.725207
Cu17	Cu	1.745757	-0.174394	0.225210
Cu18	Cu	2.245757	0.325606	0.725210
O19	O	1.736867	0.147496	0.439850
O20	O	2.236867	0.647496	0.939850
C21	C	1.476120	0.000016	0.232379
C22	C	1.976120	0.500016	0.732379
C23	C	1.312277	0.000013	0.227281
C24	C	1.812277	0.500013	0.727281
C25	C	1.752920	0.000027	-0.044421
C26	C	2.252920	0.500027	0.455579
C27	C	1.747822	0.000021	-0.208264
C28	C	2.247822	0.500021	0.291736
C29	C	2.015379	0.000022	0.218038
C30	C	2.515379	0.500022	0.718038
C31	C	2.179222	0.000013	0.223136
C32	C	2.679222	0.500013	0.723136
N33	N	1.745741	0.419784	0.225204
N34	N	2.245741	0.919784	0.725204
N35	N	1.745769	-0.419743	0.225202
N36	N	2.245769	0.080257	0.725202
C37	C	1.738579	0.000011	0.494838
C38	C	2.238579	0.500011	0.994838
C39	C	1.743677	0.000005	0.658681
C40	C	2.243677	0.500005	1.158681
