data_functionalizedCrystal
_audit_creation_method	'MofGen! by Chris Wilmer'
_symmetry_space_group_name_H-M	'P1'
_symmetry_Int_Tables_number	1
_symmetry_cell_setting	triclinic
loop_
_symmetry_equiv_pos_as_xyz
  x,y,z
_cell_length_a	6.817900
_cell_length_b	9.582860
_cell_length_c	11.102228
_cell_angle_alpha	90.975045
_cell_angle_beta	108.604565
_cell_angle_gamma	111.206767
loop_
_atom_site_label
_atom_site_type_symbol
_atom_site_fract_x
_atom_site_fract_y
_atom_site_fract_z
V1	V	-4.125313	-0.207059	-0.396024
O2	O	-4.069887	0.009947	-0.388724
O3	O	-4.115650	-0.410560	-0.393084
O4	O	-4.101876	-0.203875	-0.568848
O5	O	-4.083756	-0.198168	-0.211744
V6	V	-4.600687	-0.181102	-0.374010
O7	O	-4.404447	-0.263997	-0.444311
O8	O	-4.771750	-0.124164	-0.325722
O9	O	-4.387144	0.022399	-0.376949
O10	O	-4.773511	-0.398108	-0.381309
O11	O	-4.759642	-0.189993	-0.558290
O12	O	-4.400918	-0.184286	-0.201186
C13	C	-3.969267	-0.460169	-0.386778
C14	C	-4.042819	-0.626533	-0.385527
C15	C	-3.951695	-0.196520	-0.610980
C16	C	-4.014073	-0.195264	-0.752264
C17	C	-4.112674	-0.331720	-0.836635
C18	C	-4.171296	-0.330537	-0.969385
C19	C	-4.032696	-0.056428	-0.933381
C20	C	-3.974090	-0.057614	-0.800633
C21	C	-4.196870	0.072000	-0.383253
C22	C	-4.102558	0.238363	-0.384512
C23	C	-4.214441	-0.191646	-0.159047
C24	C	-4.131300	-0.192894	-0.017762
H25	H	-4.145235	-0.443804	-0.797257
H26	H	-3.893803	0.053512	-0.731934
H27	H	-4.251584	-0.441653	-1.038076
C28	C	-3.988695	0.094976	-0.986592
H29	H	-4.037697	0.076142	-1.077735
H30	H	-4.068650	0.146321	-0.961578
H31	H	-3.832560	0.155867	-0.953301
