data_functionalizedCrystal
_audit_creation_method	'MofGen! by Chris Wilmer'
_symmetry_space_group_name_H-M	'P1'
_symmetry_Int_Tables_number	1
_symmetry_cell_setting	triclinic
loop_
_symmetry_equiv_pos_as_xyz
  x,y,z
_cell_length_a	12.594517
_cell_length_b	25.639240
_cell_length_c	12.594509
_cell_angle_alpha	89.958690
_cell_angle_beta	89.988522
_cell_angle_gamma	90.028646
loop_
_atom_site_label
_atom_site_type_symbol
_atom_site_fract_x
_atom_site_fract_y
_atom_site_fract_z
Zn1	Zn	1.627143	-0.208192	-0.601484
Zn2	Zn	2.127143	0.291808	-0.101484
Zn3	Zn	1.626982	-0.295635	-0.423464
Zn4	Zn	2.126982	0.204365	0.076536
Zn5	Zn	1.449147	-0.208209	-0.423543
Zn6	Zn	1.949147	0.291791	0.076457
Zn7	Zn	1.449077	-0.295592	-0.601425
Zn8	Zn	1.949077	0.204408	-0.101425
O9	O	1.538088	-0.251907	-0.512479
O10	O	2.038088	0.248093	-0.012479
O11	O	1.776068	-0.219803	-0.577860
O12	O	2.276068	0.280197	-0.077860
O13	O	1.603354	-0.284062	-0.274529
O14	O	2.103354	0.215938	0.225471
O15	O	1.472855	-0.135041	-0.447205
O16	O	1.972855	0.364959	0.052795
O17	O	1.775949	-0.284046	-0.447071
O18	O	2.275949	0.215954	0.052929
O19	O	1.603628	-0.135029	-0.577937
O20	O	2.103628	0.364971	-0.077937
O21	O	1.472699	-0.219831	-0.274587
O22	O	1.972699	0.280169	0.225413
O23	O	1.300192	-0.219790	-0.447148
O24	O	1.800192	0.280210	0.052852
O25	O	1.472737	-0.283974	-0.750379
O26	O	1.972737	0.216026	-0.250379
O27	O	1.300141	-0.283990	-0.577837
O28	O	1.800141	0.216010	-0.077837
O29	O	1.603561	-0.219762	-0.750422
O30	O	2.103561	0.280238	-0.250422
O31	O	1.603286	-0.368794	-0.447014
O32	O	2.103286	0.131206	0.052986
O33	O	1.472580	-0.368763	-0.577761
O34	O	1.972580	0.131237	-0.077761
C35	C	1.261547	-0.251887	-0.512495
C36	C	1.761547	0.248113	-0.012495
C37	C	1.143241	-0.251892	-0.512527
C38	C	1.643241	0.248108	-0.012527
C39	C	1.073991	-0.286878	-0.583472
C40	C	1.573991	0.213122	-0.083472
C41	C	1.003211	-0.239208	-0.609672
C42	C	1.503211	0.260792	-0.109672
C43	C	1.003222	-0.299602	-0.486303
C44	C	1.503222	0.200398	0.013697
C45	C	1.074019	-0.204195	-0.538778
C46	C	1.574019	0.295805	-0.038778
C47	C	1.074037	-0.264622	-0.415365
C48	C	1.574037	0.235378	0.084635
C49	C	1.003289	-0.216918	-0.441528
C50	C	1.503289	0.283082	0.058472
C51	C	1.537937	-0.387750	-0.512396
C52	C	2.037937	0.112250	-0.012396
C53	C	1.537970	-0.445864	-0.512395
C54	C	2.037970	0.054136	-0.012395
C55	C	1.606215	-0.806182	-0.580674
C56	C	2.106215	-0.306182	-0.080674
C57	C	1.606246	-0.860786	-0.580696
C58	C	2.106246	-0.360786	-0.080696
O59	O	1.664091	-0.888985	-0.638663
O60	O	2.164091	-0.388985	-0.138663
N61	N	1.538235	-0.888146	-0.512582
N62	N	2.038235	-0.388146	-0.012582
C63	C	1.470181	-0.860899	-0.444449
C64	C	1.970181	-0.360899	0.055551
O65	O	1.412334	-0.889185	-0.386516
O66	O	1.912334	-0.389185	0.113484
C67	C	1.470145	-0.806296	-0.444434
C68	C	1.970145	-0.306296	0.055566
C69	C	1.538168	-0.778939	-0.512545
C70	C	2.038168	-0.278939	-0.012545
C71	C	1.674232	-0.778825	-0.648780
C72	C	2.174232	-0.278825	-0.148780
C73	C	1.674201	-0.724224	-0.648757
C74	C	2.174201	-0.224224	-0.148757
C75	C	1.606154	-0.696981	-0.580627
C76	C	2.106154	-0.196981	-0.080627
C77	C	1.538138	-0.724338	-0.512521
C78	C	2.038138	-0.224338	-0.012521
C79	C	1.402086	-0.779049	-0.376308
C80	C	1.902086	-0.279049	0.123692
C81	C	1.402055	-0.724442	-0.376299
C82	C	1.902055	-0.224442	0.123701
C83	C	1.470078	-0.697085	-0.444410
C84	C	1.970078	-0.197085	0.055590
C85	C	1.470060	-0.642494	-0.444369
C86	C	1.970060	-0.142494	0.055631
N87	N	1.538071	-0.615134	-0.512483
N88	N	2.038071	-0.115134	-0.012483
C89	C	1.606118	-0.642378	-0.580612
C90	C	2.106118	-0.142378	-0.080612
C91	C	1.470260	-0.975569	-0.444489
C92	C	1.970260	-0.475569	0.055511
C93	C	1.470301	-1.030172	-0.444498
C94	C	1.970301	-0.530172	0.055502
C95	C	1.606365	-1.030055	-0.580746
C96	C	2.106365	-0.530055	-0.080746
C97	C	1.606329	-0.975452	-0.580730
C98	C	2.106329	-0.475452	-0.080730
C99	C	1.538271	-0.948210	-0.512602
C100	C	2.038271	-0.448210	-0.012602
C101	C	1.606050	-0.527713	-0.580557
C102	C	2.106050	-0.027713	-0.080557
C103	C	1.606017	-0.473107	-0.580525
C104	C	2.106017	0.026893	-0.080525
C105	C	1.469949	-0.473228	-0.444281
C106	C	1.969949	0.026772	0.055719
C107	C	1.469986	-0.527829	-0.444309
C108	C	1.969986	-0.027829	0.055691
C109	C	1.538040	-0.555070	-0.512456
C110	C	2.038040	-0.055070	-0.012456
O111	O	1.412242	-0.614261	-0.386434
O112	O	1.912242	-0.114261	0.113566
O113	O	1.663945	-0.614085	-0.638545
O114	O	2.163945	-0.114085	-0.138545
C115	C	1.815708	-0.251927	-0.512463
C116	C	2.315708	0.248073	-0.012463
C117	C	1.934014	-0.251936	-0.512457
C118	C	2.434014	0.248064	-0.012457
C119	C	1.538159	-0.251861	-0.790100
C120	C	2.038159	0.248139	-0.290100
C121	C	1.538189	-0.251842	-0.908406
C122	C	2.038189	0.248158	-0.408406
C123	C	1.538268	-0.115534	-0.512586
C124	C	2.038268	0.384466	-0.012586
C125	C	1.538344	-0.057420	-0.512632
C126	C	2.038344	0.442580	-0.012632
C127	C	1.467056	-0.286747	-0.977635
C128	C	1.967056	0.213253	-0.477635
C129	C	1.564169	-0.299525	-1.048403
C130	C	2.064169	0.200475	-0.548403
C131	C	1.441152	-0.239032	-1.048437
C132	C	1.941152	0.260968	-0.548437
C133	C	1.635353	-0.264645	-0.977615
C134	C	2.135353	0.235355	-0.477615
C135	C	1.512270	-0.204130	-0.977643
C136	C	2.012270	0.295870	-0.477643
C137	C	1.609450	-0.216890	-1.048378
C138	C	2.109450	0.283110	-0.548378
C139	C	1.538078	-0.251915	-0.235938
C140	C	2.038078	0.248085	0.264062
C141	C	1.538254	-0.251787	-0.117633
C142	C	2.038254	0.248213	0.382367
H143	H	0.972100	-0.228456	-0.691810
H144	H	1.472100	0.271544	-0.191810
H145	H	1.105039	-0.316409	-0.643544
H146	H	1.605039	0.183591	-0.143544
O147	O	1.396558	-0.443840	-0.370798
O148	O	1.896558	0.056160	0.129202
H149	H	1.342366	-0.418967	-0.418397
H150	H	1.842366	0.081033	0.081603
O151	O	1.679457	-0.557085	-0.654057
O152	O	2.179457	-0.057085	-0.154057
H153	H	1.631810	-0.581952	-0.708199
H154	H	2.131810	-0.081952	-0.208199
O155	O	1.115033	-0.150758	-0.568240
O156	O	1.615033	0.349242	-0.068240
H157	H	1.046961	-0.124224	-0.582809
H158	H	1.546961	0.375776	-0.082809
H159	H	0.972440	-0.187315	-0.381503
H160	H	1.472440	0.312685	0.118497
O161	O	0.962055	-0.353023	-0.456930
O162	O	1.462055	0.146977	0.043070
H163	H	0.990393	-0.381972	-0.515959
H164	H	1.490393	0.118028	-0.015959
O165	O	1.387446	-0.325904	-0.936460
O166	O	1.887446	0.174096	-0.436460
H167	H	1.409251	-0.365458	-0.964795
H168	H	1.909251	0.134542	-0.464795
O169	O	1.744080	-0.278951	-0.936362
O170	O	2.244080	0.221049	-0.436362
H171	H	1.765906	-0.318408	-0.965234
H172	H	2.265906	0.181592	-0.465234
H173	H	1.414921	-1.052441	-0.389024
H174	H	1.914921	-0.552441	0.110976
O175	O	1.593258	-0.352937	-1.089593
O176	O	2.093258	0.147063	-0.589593
H177	H	1.534071	-0.381866	-1.061271
H178	H	2.034071	0.118134	-0.561271
H179	H	1.661771	-1.052247	-0.636222
H180	H	2.161771	-0.552247	-0.136222
H181	H	1.669702	-0.187348	-1.079244
H182	H	2.169702	0.312652	-0.579244
O183	O	1.679399	-0.443599	-0.653977
O184	O	2.179399	0.056401	-0.153977
H185	H	1.726717	-0.471721	-0.701356
H186	H	2.226717	0.028279	-0.201356
O187	O	1.115308	-0.278882	-0.306605
O188	O	1.615308	0.221118	0.193395
H189	H	1.087012	-0.318505	-0.285046
H190	H	1.587012	0.181495	0.214954
O191	O	1.747585	-0.694720	-0.722203
O192	O	2.247585	-0.194720	-0.222203
H193	H	1.794902	-0.722845	-0.769573
H194	H	2.294902	-0.222845	-0.269573
O195	O	1.747635	-0.808205	-0.722264
O196	O	2.247635	-0.308205	-0.222264
H197	H	1.794922	-0.780000	-0.769607
H198	H	2.294922	-0.280000	-0.269607
O199	O	1.679699	-0.945946	-0.654187
O200	O	2.179699	-0.445946	-0.154187
H201	H	1.727018	-0.974069	-0.701559
H202	H	2.227018	-0.474069	-0.201559
O203	O	1.396629	-0.557332	-0.370828
O204	O	1.896629	-0.057332	0.129172
H205	H	1.444314	-0.582212	-0.316716
H206	H	1.944314	-0.082212	0.183284
O207	O	1.483142	-0.150737	-0.936397
O208	O	1.983142	0.349263	-0.436397
H209	H	1.402487	-0.140216	-0.964700
H210	H	1.902487	0.359784	-0.464700
O211	O	1.396872	-0.946187	-0.370983
O212	O	1.896872	-0.446187	0.129017
H213	H	1.349601	-0.974389	-0.323617
H214	H	1.849601	-0.474389	0.176383
O215	O	1.328710	-0.808548	-0.302853
O216	O	1.828710	-0.308548	0.197147
H217	H	1.281383	-0.780422	-0.255495
H218	H	1.781383	-0.280422	0.244505
H219	H	1.346631	-0.702264	-0.320822
H220	H	1.846631	-0.202264	0.179178
H221	H	1.359062	-0.228220	-1.079546
H222	H	1.859062	0.271780	-0.579546
