data_functionalizedCrystal
_audit_creation_method	'MofGen! by Chris Wilmer'
_symmetry_space_group_name_H-M	'P1'
_symmetry_Int_Tables_number	1
_symmetry_cell_setting	triclinic
loop_
_symmetry_equiv_pos_as_xyz
  x,y,z
_cell_length_a	10.654541
_cell_length_b	17.699083
_cell_length_c	16.176319
_cell_angle_alpha	89.992304
_cell_angle_beta	89.993951
_cell_angle_gamma	83.883471
loop_
_atom_site_label
_atom_site_type_symbol
_atom_site_fract_x
_atom_site_fract_y
_atom_site_fract_z
O1	O	1.665988	0.106296	-0.068723
O2	O	2.165988	0.606296	0.431277
O3	O	1.300332	0.116426	-0.068730
O4	O	1.800332	0.616426	0.431270
O5	O	1.493491	0.001237	-0.068719
O6	O	1.993491	0.501237	0.431281
O7	O	1.472829	0.221484	-0.068734
O8	O	1.972829	0.721484	0.431266
O9	O	1.493464	0.001230	0.068774
O10	O	1.993464	0.501230	0.568774
O11	O	1.300305	0.116418	0.068763
O12	O	1.800305	0.616418	0.568763
O13	O	1.665962	0.106288	0.068770
O14	O	2.165962	0.606288	0.568770
Cu15	Cu	1.483131	0.111352	0.081321
Cu16	Cu	1.983131	0.611352	0.581321
Cu17	Cu	1.483162	0.111361	-0.081281
Cu18	Cu	1.983162	0.611361	0.418719
O19	O	1.472803	0.221477	0.068759
O20	O	1.972803	0.721477	0.568759
C21	C	1.492737	-0.026968	0.000027
C22	C	1.992737	0.473032	0.500027
C23	C	1.490516	-0.111001	0.000028
C24	C	1.990516	0.388999	0.500028
C25	C	1.253534	0.115678	0.000015
C26	C	1.753534	0.615678	0.500015
C27	C	1.114129	0.113454	0.000013
C28	C	1.614129	0.613454	0.500013
C29	C	1.603896	-0.158901	0.000031
C30	C	2.103896	0.341099	0.500031
C31	C	1.601802	-0.237858	0.000024
C32	C	2.101802	0.262142	0.500024
C33	C	1.486326	-0.268912	0.000019
C34	C	1.986326	0.231088	0.500019
C35	C	1.372937	-0.221005	0.000013
C36	C	1.872937	0.278995	0.500013
C37	C	1.375033	-0.142050	0.000014
C38	C	1.875033	0.357950	0.500014
C39	C	1.364483	-0.539422	0.000006
C40	C	1.864483	-0.039422	0.500006
C41	C	1.362396	-0.618383	0.000007
C42	C	1.862396	-0.118383	0.500007
C43	C	1.591252	-0.635230	0.000016
C44	C	2.091252	-0.135230	0.500016
C45	C	1.593348	-0.556275	0.000017
C46	C	2.093348	-0.056275	0.500017
C47	C	1.479960	-0.508375	0.000007
C48	C	1.979960	-0.008375	0.500007
C49	C	1.482232	-0.422761	0.000013
C50	C	1.982232	0.077239	0.500013
C51	C	1.484052	-0.354524	0.000018
C52	C	1.984052	0.145476	0.500018
C53	C	1.083747	0.251193	-0.000007
C54	C	1.583747	0.751193	0.499993
C55	C	1.003066	0.319015	-0.000020
C56	C	1.503066	0.819015	0.499980
C57	C	0.872084	0.316920	-0.000021
C58	C	1.372084	0.816920	0.499979
C59	C	0.821783	0.246997	-0.000006
C60	C	1.321783	0.746997	0.499994
C61	C	0.902464	0.179175	0.000007
C62	C	1.402464	0.679175	0.500007
C63	C	1.033447	0.181277	0.000005
C64	C	1.533447	0.681277	0.500005
C65	C	0.932846	0.041438	0.000033
C66	C	1.432846	0.541438	0.500033
C67	C	1.063828	0.043531	0.000028
C68	C	1.563828	0.543531	0.500028
C69	C	0.882545	-0.028485	0.000048
C70	C	1.382545	0.471515	0.500048
C71	C	0.963227	-0.096308	0.000055
C72	C	1.463227	0.403692	0.500055
C73	C	1.094215	-0.094211	0.000055
C74	C	1.594215	0.405789	0.500055
C75	C	1.144509	-0.024291	0.000041
C76	C	1.644509	0.475709	0.500041
C77	C	1.712760	0.107035	0.000023
C78	C	2.212760	0.607035	0.500023
C79	C	1.852165	0.109260	0.000020
C80	C	2.352165	0.609260	0.500020
C81	C	1.473556	0.249682	0.000010
C82	C	1.973556	0.749682	0.500010
C83	C	1.475777	0.333714	0.000005
C84	C	1.975777	0.833714	0.500005
N85	N	1.483118	0.111346	0.195686
N86	N	1.983118	0.611346	0.695686
N87	N	1.483185	0.111362	-0.195646
N88	N	1.983185	0.611362	0.304354
C89	C	1.568675	0.060362	0.238955
C90	C	2.068675	0.560362	0.738955
C91	C	1.568681	0.060361	0.325502
C92	C	2.068681	0.560361	0.825502
C93	C	1.483136	0.111348	0.368778
C94	C	1.983136	0.611348	0.868778
C95	C	1.397570	0.162335	0.325503
C96	C	1.897570	0.662335	0.825503
C97	C	1.397559	0.162332	0.238958
C98	C	1.897559	0.662332	0.738958
C99	C	1.397613	0.162350	0.674532
C100	C	1.897613	0.662350	1.174532
C101	C	1.397634	0.162351	0.761083
C102	C	1.897634	0.662351	1.261083
C103	C	1.568735	0.060379	0.761076
C104	C	2.068735	0.560379	1.261076
C105	C	1.568724	0.060375	0.674530
C106	C	2.068724	0.560375	1.174530
C107	C	1.483155	0.111359	0.631263
C108	C	1.983155	0.611359	1.131263
C109	C	1.483147	0.111358	0.537419
C110	C	1.983147	0.611358	1.037419
C111	C	1.483148	0.111353	0.462621
C112	C	1.983148	0.611353	0.962621
H113	H	1.697930	-0.133623	0.000040
H114	H	2.197930	0.366377	0.500040
Cl115	Cl	1.744344	-0.298073	0.000031
Cl116	Cl	2.244344	0.201927	0.500031
Cl117	Cl	1.248409	0.253832	-0.000022
Cl118	Cl	1.748409	0.753832	0.499978
Cl119	Cl	1.290049	0.226444	0.620144
Cl120	Cl	1.790049	0.726444	1.120144
H121	H	1.638340	0.018845	0.203725
H122	H	2.138340	0.518845	0.703725
Cl123	Cl	1.676273	-0.003723	0.620129
Cl124	Cl	2.176273	0.496277	1.120129
H125	H	1.327889	0.203847	0.203729
H126	H	1.827889	0.703847	0.703729
H127	H	1.638347	0.018845	0.360731
H128	H	2.138347	0.518845	0.860731
H129	H	1.638407	0.018863	0.796314
H130	H	2.138407	0.518863	1.296314
H131	H	1.278915	-0.246296	0.000004
H132	H	1.778915	0.253704	0.500004
H133	H	1.327968	0.203872	0.796317
H134	H	1.827968	0.703872	1.296317
H135	H	1.272155	-0.500431	-0.000002
H136	H	1.772155	-0.000431	0.499998
Cl137	Cl	0.657119	0.244366	0.000008
Cl138	Cl	1.157119	0.744366	0.500008
Cl139	Cl	1.232491	-0.081831	0.000007
Cl140	Cl	1.732491	0.418169	0.500007
H141	H	1.687380	-0.530995	0.000025
H142	H	2.187380	-0.030995	0.500025
Cl143	Cl	1.733800	-0.695452	0.000025
Cl144	Cl	2.233800	-0.195452	0.500025
Cl145	Cl	0.770652	0.402182	-0.000030
Cl146	Cl	1.270652	0.902182	0.499970
Cl147	Cl	1.217215	-0.657421	-0.000001
Cl148	Cl	1.717215	-0.157421	0.499999
H149	H	1.327912	0.203848	0.360744
H150	H	1.827912	0.703848	0.860744
Cl151	Cl	1.066308	0.406914	-0.000040
Cl152	Cl	1.566308	0.906914	0.499960
H153	H	0.775892	-0.030186	0.000052
H154	H	1.275892	0.469814	0.500052
Cl155	Cl	1.195633	-0.179478	0.000078
Cl156	Cl	1.695633	0.320522	0.500078
Cl157	Cl	0.899984	-0.184202	0.000081
Cl158	Cl	1.399984	0.315798	0.500081
H159	H	1.251159	-0.022576	0.000031
H160	H	1.751159	0.477424	0.500031
