data_functionalizedCrystal
_audit_creation_method	'MofGen! by Chris Wilmer'
_symmetry_space_group_name_H-M	'P1'
_symmetry_Int_Tables_number	1
_symmetry_cell_setting	triclinic
loop_
_symmetry_equiv_pos_as_xyz
  x,y,z
_cell_length_a	14.971486
_cell_length_b	14.044220
_cell_length_c	13.448316
_cell_angle_alpha	89.992660
_cell_angle_beta	89.998199
_cell_angle_gamma	88.401503
loop_
_atom_site_label
_atom_site_type_symbol
_atom_site_fract_x
_atom_site_fract_y
_atom_site_fract_z
O1	O	1.196679	0.123538	-0.082579
O2	O	0.937445	0.138332	-0.082607
O3	O	1.063171	-0.007054	-0.082584
O4	O	1.070953	0.268924	-0.082602
O5	O	1.063153	-0.007063	0.082800
O6	O	0.937427	0.138323	0.082777
O7	O	1.196661	0.123529	0.082804
Cu8	Cu	1.067042	0.130925	0.097892
Cu9	Cu	1.067064	0.130936	-0.097694
O10	O	1.070935	0.268915	0.082781
C11	C	0.904059	0.137666	0.000082
C12	C	0.804606	0.135683	0.000072
C13	C	0.754109	0.221093	0.000067
C14	C	0.660662	0.219225	0.000082
C15	C	0.617714	0.131945	0.000094
C16	C	0.668218	0.046528	0.000102
C17	C	0.761663	0.048398	0.000094
C18	C	0.473449	0.042638	0.000116
C19	C	0.379997	0.040767	0.000122
C20	C	0.372448	0.213465	0.000104
C21	C	0.465893	0.215334	0.000096
C22	C	0.516390	0.129917	0.000102
C23	C	1.059755	-0.042377	0.000108
C24	C	1.049594	-0.147614	0.000108
C25	C	1.031018	-0.340297	0.000092
C26	C	1.103085	-0.397848	0.000097
C27	C	1.092748	-0.505063	0.000088
C28	C	1.041353	-0.233071	0.000101
C29	C	1.230047	0.124195	0.000114
C30	C	1.329501	0.126178	0.000117
C31	C	1.074351	0.304238	0.000087
C32	C	1.084512	0.409475	0.000080
N33	N	1.067034	0.130917	0.235456
N34	N	1.067079	0.130936	-0.235258
C35	C	1.122727	0.066567	0.287506
C36	C	1.122732	0.066566	0.391610
C37	C	1.067049	0.130921	0.443660
C38	C	1.011350	0.195274	0.391603
C39	C	1.011341	0.195270	0.287501
C40	C	1.011376	0.195281	0.608583
C41	C	1.011386	0.195287	0.712691
C42	C	1.122767	0.066577	0.712691
C43	C	1.122757	0.066572	0.608590
C44	C	1.067060	0.130927	0.556539
H45	H	0.633242	-0.024537	0.000126
H46	H	0.619551	0.288775	0.000077
C47	C	0.513134	0.311344	0.000084
C48	C	0.497175	0.382316	0.085961
C49	C	0.544414	0.478327	0.085952
C50	C	0.607613	0.503367	0.000067
C51	C	0.623576	0.432393	-0.085817
C52	C	0.576336	0.336381	-0.085809
H53	H	0.450388	0.363781	0.149544
H54	H	0.532597	0.530866	0.149529
H55	H	0.642583	0.574440	0.000060
H56	H	0.670362	0.450927	-0.149401
H57	H	0.588153	0.283842	-0.149386
C58	C	1.196926	-0.355642	0.000118
C59	C	1.262113	-0.378397	0.086009
C60	C	1.355951	-0.336187	0.086034
C61	C	1.384602	-0.271223	0.000169
C62	C	1.319414	-0.248466	-0.085729
C63	C	1.225576	-0.290675	-0.085754
H64	H	1.240905	-0.426490	0.149578
H65	H	1.404207	-0.353034	0.149622
H66	H	1.454066	-0.239977	0.000187
H67	H	1.340622	-0.200373	-0.149297
H68	H	1.177320	-0.273828	-0.149341
C69	C	0.937185	-0.382508	0.000082
C70	C	0.908555	-0.447473	0.085957
C71	C	0.814724	-0.489699	0.085950
C72	C	0.749523	-0.466962	0.000068
C73	C	0.778152	-0.401994	-0.085813
C74	C	0.871983	-0.359767	-0.085806
H75	H	0.956822	-0.464307	0.149538
H76	H	0.793532	-0.537793	0.149525
H77	H	0.680064	-0.498220	0.000062
H78	H	0.729885	-0.385159	-0.149394
H79	H	0.893175	-0.311674	-0.149381
C80	C	1.183980	-0.004227	0.230256
C81	C	1.245236	-0.075014	0.287517
C82	C	1.306489	-0.145812	0.230270
C83	C	1.306486	-0.145822	0.115762
C84	C	1.245228	-0.075032	0.058495
C85	C	1.183975	-0.004234	0.115742
H86	H	1.245240	-0.075009	0.372288
H87	H	1.351837	-0.198216	0.272663
H88	H	1.351829	-0.198231	0.073385
H89	H	1.245224	-0.075037	-0.026276
H90	H	1.138627	0.048170	0.073349
H91	H	0.345032	-0.030303	0.000133
C92	C	1.184008	-0.004215	0.551329
C93	C	1.255362	0.032949	0.479742
C94	C	1.316611	-0.037841	0.422479
C95	C	1.306506	-0.145795	0.436803
C96	C	1.235149	-0.182965	0.508393
C97	C	1.173900	-0.112175	0.565656
H98	H	1.262845	0.112869	0.469135
H99	H	1.369434	-0.010324	0.369483
H100	H	1.351846	-0.198198	0.394414
H101	H	1.227666	-0.262885	0.518999
H102	H	1.121077	-0.139692	0.618651
H103	H	0.966017	0.247682	0.566206
H104	H	0.789070	0.292167	0.000056
C105	C	0.950127	0.266073	0.769944
C106	C	0.888855	0.336848	0.712688
C107	C	0.827594	0.407635	0.769938
C108	C	0.827605	0.407647	0.884446
C109	C	0.888879	0.336868	0.941709
C110	C	0.950140	0.266081	0.884458
H111	H	0.888846	0.336842	0.627917
H112	H	0.782235	0.460030	0.727548
H113	H	0.782255	0.460047	0.926826
H114	H	0.888888	0.336874	1.026480
H115	H	0.995499	0.213687	0.926849
H116	H	1.168080	0.014166	0.433989
H117	H	0.514561	-0.026919	0.000122
H118	H	1.168118	0.014177	0.755077
H119	H	0.966007	0.247670	0.433988
H120	H	0.802776	-0.021152	0.000097
H121	H	0.965989	0.247669	0.245123
H122	H	0.331329	0.283015	0.000104
