data_functionalizedCrystal
_audit_creation_method	'MofGen! by Chris Wilmer'
_symmetry_space_group_name_H-M	'P1'
_symmetry_Int_Tables_number	1
_symmetry_cell_setting	triclinic
loop_
_symmetry_equiv_pos_as_xyz
  x,y,z
_cell_length_a	18.101398
_cell_length_b	12.594516
_cell_length_c	18.101389
_cell_angle_alpha	89.987481
_cell_angle_beta	89.975673
_cell_angle_gamma	90.011320
loop_
_atom_site_label
_atom_site_type_symbol
_atom_site_fract_x
_atom_site_fract_y
_atom_site_fract_z
Zn1	Zn	1.132198	-0.423988	-0.418869
Zn2	Zn	1.132127	-0.601956	-0.295040
Zn3	Zn	1.008357	-0.423977	-0.295030
Zn4	Zn	1.008341	-0.601910	-0.418829
O5	O	1.070256	-0.512958	-0.356942
O6	O	1.235822	-0.447620	-0.402464
O7	O	1.115686	-0.578361	-0.191406
O8	O	1.024822	-0.275033	-0.311470
O9	O	1.235769	-0.578372	-0.311488
O10	O	1.115808	-0.275041	-0.402454
O11	O	1.024753	-0.447601	-0.191399
O12	O	0.904722	-0.447557	-0.311431
O13	O	1.024794	-0.578294	-0.522467
O14	O	0.904710	-0.578283	-0.402386
O15	O	1.115791	-0.447575	-0.522497
O16	O	1.115669	-0.750896	-0.311449
O17	O	1.024724	-0.750862	-0.402395
C18	C	0.877845	-0.512915	-0.356904
C19	C	0.795531	-0.512922	-0.356905
C20	C	0.496440	-0.512988	-0.356967
C21	C	0.527748	-0.430327	-0.300020
C22	C	0.613367	-0.430549	-0.299777
C23	C	0.644823	-0.512954	-0.356936
C24	C	0.613725	-0.625071	-0.335619
C25	C	0.528080	-0.624611	-0.335223
C26	C	0.528050	-0.484507	-0.435364
C27	C	0.613700	-0.482010	-0.434936
C28	C	0.728682	-0.512942	-0.356920
C29	C	0.412581	-0.513008	-0.356981
C30	C	1.070207	-0.789499	-0.356935
C31	C	1.070254	-0.907804	-0.356957
C32	C	1.020784	-0.977078	-0.406388
C33	C	1.002743	-1.047918	-0.338810
C34	C	1.088363	-1.047763	-0.424546
C35	C	1.052177	-0.977086	-0.289343
C36	C	1.137829	-0.976925	-0.375124
C37	C	1.119813	-1.047733	-0.307500
C38	C	1.263418	-0.513002	-0.356981
C39	C	1.345732	-0.513021	-0.356998
C40	C	1.070299	-0.512931	-0.550104
C41	C	1.070317	-0.512919	-0.632418
C42	C	1.070325	-0.235337	-0.356966
C43	C	1.070354	-0.117032	-0.356976
C44	C	1.070360	-0.512720	-0.931509
C45	C	1.012909	-0.594703	-0.900166
C46	C	1.013065	-0.595083	-0.814547
C47	C	1.070338	-0.512819	-0.783127
C48	C	1.148369	-0.543275	-0.814235
C49	C	1.148049	-0.543813	-0.899880
C50	C	1.050458	-0.400099	-0.899926
C51	C	1.048722	-0.400749	-0.814275
C52	C	1.070330	-0.512873	-0.699267
C53	C	1.070373	-0.512668	-1.015369
C54	C	1.070256	-0.512908	-0.164532
C55	C	1.070381	-0.512619	-0.082218
H56	H	0.633824	-0.449376	-0.241685
C57	C	0.501045	-0.657236	-0.257799
C58	C	0.557385	-0.683526	-0.196760
C59	C	0.530354	-0.716148	-0.119334
C60	C	0.446983	-0.722481	-0.102946
C61	C	0.390638	-0.696191	-0.163986
C62	C	0.417669	-0.663568	-0.241413
H63	H	0.619105	-0.678838	-0.208890
H64	H	0.572065	-0.735610	-0.074148
H65	H	0.426973	-0.746631	-0.045630
H66	H	0.328917	-0.700878	-0.151856
H67	H	0.375958	-0.644106	-0.286599
H68	H	1.103640	-1.078808	-0.481697
H69	H	1.025920	-0.677672	-0.921697
H70	H	1.026206	-0.678562	-0.794071
C71	C	1.106982	-0.317576	-0.927311
C72	C	1.170883	-0.352140	-0.978077
C73	C	1.227410	-0.269628	-1.005466
C74	C	1.220034	-0.152551	-0.982089
C75	C	1.156129	-0.117982	-0.931320
C76	C	1.099603	-0.200494	-0.903931
H77	H	1.176346	-0.438812	-0.995384
H78	H	1.274716	-0.295219	-1.043048
H79	H	1.261878	-0.091471	-1.002364
H80	H	1.150667	-0.031310	-0.914013
H81	H	1.052297	-0.174902	-0.866349
H82	H	1.165530	-0.624728	-0.792798
C83	C	1.176380	-1.089400	-0.250973
C84	C	1.221958	-1.010693	-0.204507
C85	C	1.278516	-1.052367	-0.147976
C86	C	1.289497	-1.172747	-0.137912
C87	C	1.243917	-1.251462	-0.184380
C88	C	1.187359	-1.209788	-0.240911
H89	H	1.213830	-0.921574	-0.211956
H90	H	1.312257	-0.994097	-0.113578
H91	H	1.331365	-1.203597	-0.096065
H92	H	1.252045	-1.340582	-0.176931
H93	H	1.153618	-1.268059	-0.275309
H94	H	0.634029	-0.399505	-0.451010
C95	C	1.031449	-0.935325	-0.212114
C96	C	0.956231	-0.964308	-0.177821
C97	C	0.935502	-0.922542	-0.100594
C98	C	0.989990	-0.851793	-0.057660
C99	C	1.065214	-0.822806	-0.091953
C100	C	1.085943	-0.864572	-0.169179
H101	H	0.915891	-1.016683	-0.209603
H102	H	0.879816	-0.944000	-0.075209
H103	H	0.974645	-0.820875	-0.000493
H104	H	1.105554	-0.770431	-0.060170
H105	H	1.141628	-0.843114	-0.194565
C106	C	0.641255	-0.710511	-0.389890
C107	C	0.617628	-0.827066	-0.379700
C108	C	0.645161	-0.912505	-0.433971
C109	C	0.696322	-0.881389	-0.498431
C110	C	0.719952	-0.764828	-0.508623
C111	C	0.692419	-0.679389	-0.454353
H112	H	0.579753	-0.850105	-0.331981
H113	H	0.627668	-0.998791	-0.426425
H114	H	0.716703	-0.944636	-0.538605
H115	H	0.757826	-0.741789	-0.556342
H116	H	0.709912	-0.593104	-0.461898
H117	H	1.194916	-0.945721	-0.390507
C118	C	0.498890	-0.375986	-0.461553
C119	C	0.445993	-0.311840	-0.412080
C120	C	0.416832	-0.203315	-0.438259
C121	C	0.440568	-0.158937	-0.513912
C122	C	0.493468	-0.223084	-0.563391
C123	C	0.522629	-0.331609	-0.537211
H124	H	0.428420	-0.344690	-0.356073
H125	H	0.377672	-0.155829	-0.401632
H126	H	0.418981	-0.078600	-0.533292
H127	H	0.511041	-0.190233	-0.619398
H128	H	0.561789	-0.379094	-0.573838
C129	C	0.641777	-0.318224	-0.317792
C130	C	0.725426	-0.296418	-0.321081
C131	C	0.753831	-0.184083	-0.339082
C132	C	0.698589	-0.093554	-0.353793
C133	C	0.614935	-0.115357	-0.350505
C134	C	0.586529	-0.227692	-0.332504
H135	H	0.766324	-0.363436	-0.310191
H136	H	0.815758	-0.167943	-0.341516
H137	H	0.719617	-0.010397	-0.367118
H138	H	0.574036	-0.048340	-0.361395
H139	H	0.524603	-0.243832	-0.330070
H140	H	0.994546	-0.372353	-0.921510
C141	C	1.170858	-0.655021	-0.926891
C142	C	1.189237	-0.742721	-0.870531
C143	C	1.212058	-0.853926	-0.897538
C144	C	1.216500	-0.877432	-0.980904
C145	C	1.198121	-0.789729	-1.037268
C146	C	1.175300	-0.678523	-1.010261
H147	H	1.185949	-0.725323	-0.808815
H148	H	1.225663	-0.918849	-0.855813
H149	H	1.233394	-0.959752	-1.000895
H150	H	1.201409	-0.807127	-1.098985
H151	H	1.161695	-0.613600	-1.051987
H152	H	0.507370	-0.688284	-0.374893
H153	H	0.978875	-0.946053	-0.448129
C154	C	0.934897	-0.569340	-0.786125
C155	C	0.871896	-0.548290	-0.841359
C156	C	0.793724	-0.522554	-0.812941
C157	C	0.778553	-0.517868	-0.729290
C158	C	0.841556	-0.538919	-0.674052
C159	C	0.919728	-0.564655	-0.702469
H160	H	0.883125	-0.551759	-0.903287
H161	H	0.747085	-0.506971	-0.853833
H162	H	0.720685	-0.498817	-0.708254
H163	H	0.830327	-0.535450	-0.612123
H164	H	0.966367	-0.580238	-0.661577
C165	C	0.642639	-0.557415	-0.495327
C166	C	0.626110	-0.677180	-0.490744
C167	C	0.655056	-0.752592	-0.551131
C168	C	0.700531	-0.708239	-0.616100
C169	C	0.717062	-0.588467	-0.620685
C170	C	0.688116	-0.513055	-0.560298
H171	H	0.592445	-0.710019	-0.442648
H172	H	0.642818	-0.841256	-0.547736
H173	H	0.721958	-0.764064	-0.660801
H174	H	0.750728	-0.555629	-0.668781
H175	H	0.700354	-0.424392	-0.563693
H176	H	1.192324	-0.485439	-0.793885
H177	H	0.991298	-0.377782	-0.793941
C178	C	0.934501	-0.569223	-0.927967
C179	C	0.921676	-0.473663	-0.979472
C180	C	0.843266	-0.448182	-1.007280
C181	C	0.777681	-0.518261	-0.983583
C182	C	0.790504	-0.613827	-0.932075
C183	C	0.868914	-0.639307	-0.904267
H184	H	0.970228	-0.421781	-0.997017
H185	H	0.833774	-0.377438	-1.045410
H186	H	0.719636	-0.499398	-1.004168
H187	H	0.741952	-0.665708	-0.914531
H188	H	0.878406	-0.710052	-0.866137
H189	H	0.507804	-0.544714	-0.477795
C190	C	0.642652	-0.658275	-0.259028
C191	C	0.694448	-0.583861	-0.215762
C192	C	0.723373	-0.617058	-0.139170
C193	C	0.700501	-0.724668	-0.105843
C194	C	0.648702	-0.799089	-0.149109
C195	C	0.619777	-0.765892	-0.225702
H196	H	0.711382	-0.504195	-0.240433
H197	H	0.761719	-0.561966	-0.107141
H198	H	0.721913	-0.749243	-0.049144
H199	H	0.631768	-0.878755	-0.124439
H200	H	0.581431	-0.820983	-0.257730
C201	C	0.925602	-1.090049	-0.318056
C202	C	0.862358	-1.011710	-0.301755
C203	C	0.785215	-1.053836	-0.281007
C204	C	0.771317	-1.174299	-0.276560
C205	C	0.834564	-1.252645	-0.292860
C206	C	0.911706	-1.210520	-0.313608
H207	H	0.872644	-0.922529	-0.305047
H208	H	0.738396	-0.995838	-0.268940
H209	H	0.714212	-1.205483	-0.261201
H210	H	0.824277	-1.341826	-0.289568
H211	H	0.958525	-1.268517	-0.325675
H212	H	0.506202	-0.448941	-0.242266
H213	H	1.192306	-0.486693	-0.920616
C214	C	1.101128	-0.313848	-0.785387
C215	C	1.107626	-0.293403	-0.701770
C216	C	1.160041	-0.206507	-0.672883
C217	C	1.205957	-0.140055	-0.727613
C218	C	1.199460	-0.160499	-0.811236
C219	C	1.147045	-0.247395	-0.840122
H220	H	1.073635	-0.342596	-0.661251
H221	H	1.164850	-0.191374	-0.610980
H222	H	1.244757	-0.075730	-0.706230
H223	H	1.233451	-0.111306	-0.851755
H224	H	1.142236	-0.262528	-0.902025
H225	H	0.507163	-0.346934	-0.313233
