data_functionalizedCrystal
_audit_creation_method	'MofGen! by Chris Wilmer'
_symmetry_space_group_name_H-M	'P1'
_symmetry_Int_Tables_number	1
_symmetry_cell_setting	triclinic
loop_
_symmetry_equiv_pos_as_xyz
  x,y,z
_cell_length_a	19.805407
_cell_length_b	15.297327
_cell_length_c	15.296720
_cell_angle_alpha	107.319222
_cell_angle_beta	99.660346
_cell_angle_gamma	99.707092
loop_
_atom_site_label
_atom_site_type_symbol
_atom_site_fract_x
_atom_site_fract_y
_atom_site_fract_z
Zn1	Zn	0.898214	-0.461228	-0.589855
Zn2	Zn	0.898137	-0.589850	-0.461249
Zn3	Zn	0.808718	-0.434356	-0.434370
Zn4	Zn	0.761320	-0.616692	-0.616690
O5	O	0.841597	-0.525531	-0.525541
O6	O	0.992916	-0.478303	-0.572813
O7	O	0.906080	-0.546744	-0.327560
O8	O	0.840459	-0.307784	-0.432516
O9	O	0.992859	-0.572801	-0.478327
O10	O	0.906211	-0.327527	-0.546750
O11	O	0.840384	-0.432503	-0.307812
O12	O	0.707718	-0.458530	-0.458537
O13	O	0.759675	-0.618549	-0.743254
O14	O	0.672895	-0.592492	-0.592487
O15	O	0.860250	-0.504330	-0.723538
O16	O	0.860119	-0.723547	-0.504348
O17	O	0.759600	-0.743268	-0.618550
C18	C	0.665748	-0.525508	-0.525508
C19	C	0.590513	-0.525525	-0.525520
C20	C	0.537055	-0.595351	-0.595186
C21	C	0.466364	-0.595355	-0.595200
C22	C	0.449133	-0.525536	-0.525542
C23	C	0.502597	-0.455702	-0.455871
C24	C	0.573286	-0.455695	-0.455862
C25	C	0.217516	-0.455728	-0.455905
C26	C	0.146821	-0.455742	-0.455918
C27	C	0.110594	-0.595388	-0.595243
C28	C	0.181283	-0.595381	-0.595234
C29	C	0.234741	-0.525545	-0.525567
C30	C	0.311392	-0.525541	-0.525554
C31	C	0.372484	-0.525543	-0.525550
C32	C	0.804723	-0.767154	-0.567298
C33	C	0.789005	-0.870527	-0.585193
C34	C	0.954165	-1.120749	-0.397961
C35	C	0.968933	-1.023625	-0.381143
C36	C	0.923952	-0.985345	-0.432154
C37	C	0.864201	-1.044200	-0.499986
C38	C	0.849429	-1.141333	-0.516800
C39	C	0.819216	-1.005929	-0.550993
C40	C	0.759465	-1.064784	-0.618825
C41	C	0.744696	-1.161908	-0.635637
C42	C	0.789676	-1.200187	-0.584625
C43	C	0.833989	-0.908796	-0.534179
C44	C	0.729253	-0.929380	-0.653018
C45	C	0.714485	-1.026505	-0.669836
C46	C	1.018132	-0.525555	-0.525575
C47	C	1.093361	-0.525565	-0.525589
C48	C	0.804684	-0.567431	-0.768079
C49	C	0.788953	-0.585286	-0.871434
C50	C	0.878631	-0.282969	-0.483641
C51	C	0.894412	-0.179603	-0.465786
C52	C	0.954074	-0.397755	-1.121717
C53	C	0.968857	-0.380980	-1.024610
C54	C	0.923883	-0.432055	-0.986311
C55	C	0.864122	-0.499908	-1.045129
C56	C	0.849340	-0.516689	-1.142246
C57	C	0.819149	-0.550989	-1.006840
C58	C	0.759388	-0.618842	-1.065658
C59	C	0.744609	-0.635619	-1.162766
C60	C	0.789583	-0.584544	-1.201065
C61	C	0.833931	-0.534208	-0.909723
C62	C	0.729197	-0.653142	-0.930252
C63	C	0.714413	-0.669916	-1.027360
C64	C	0.878416	-0.483727	-0.283935
C65	C	0.894317	-0.465610	-0.180535
H66	H	0.551077	-0.652209	-0.651908
C67	C	0.680295	-0.708732	-0.888868
C68	C	0.624810	-0.771769	-0.961165
C69	C	0.579760	-0.823000	-0.923073
H70	H	0.661928	-0.666711	-0.844848
H71	H	0.705742	-0.742761	-0.858016
H72	H	0.599367	-0.737741	-0.992002
H73	H	0.643157	-0.813808	-1.005190
H74	H	0.605207	-0.857030	-0.892222
H75	H	0.561398	-0.780972	-0.879054
H76	H	0.542112	-0.865782	-0.972122
C77	C	0.128005	-0.379913	-0.380425
C78	C	0.088459	-0.329530	-0.422893
C79	C	0.071102	-0.259688	-0.353383
H80	H	0.169902	-0.338224	-0.338890
H81	H	0.101144	-0.408408	-0.346009
H82	H	0.115319	-0.301035	-0.457294
H83	H	0.046554	-0.371193	-0.464422
H84	H	0.044241	-0.288184	-0.318966
H85	H	0.113002	-0.218006	-0.311852
H86	H	0.044263	-0.225501	-0.382187
H87	H	0.935979	-0.906262	-0.418456
H88	H	0.422840	-0.652216	-0.651929
H89	H	0.067059	-0.652249	-0.651972
C90	C	0.773394	-0.602864	-1.306518
C91	C	0.711428	-0.673207	-1.349833
C92	C	0.696490	-0.690098	-1.446974
H93	H	0.811209	-0.622800	-1.331395
H94	H	0.767468	-0.546667	-1.318154
H95	H	0.717359	-0.729393	-1.338204
H96	H	0.673601	-0.653291	-1.324984
H97	H	0.690564	-0.633901	-1.458610
H98	H	0.734309	-0.710030	-1.471842
H99	H	0.654442	-0.737821	-1.476374
H100	H	0.261034	-0.398869	-0.399172
C101	C	0.200090	-0.671043	-0.670895
C102	C	0.239633	-0.628778	-0.721472
C103	C	0.256976	-0.698444	-0.791175
H104	H	0.158187	-0.712665	-0.712483
H105	H	0.226948	-0.705340	-0.642274
H106	H	0.212775	-0.594496	-0.750092
H107	H	0.281544	-0.587161	-0.679911
H108	H	0.283834	-0.732742	-0.762554
H109	H	0.215070	-0.740063	-0.832755
H110	H	0.283813	-0.669777	-0.825494
H111	H	0.882638	-0.860885	-0.478950
H112	H	0.990778	-1.151925	-0.356429
C113	C	1.033701	-0.307356	-0.960598
C114	C	1.037023	-0.303596	-0.867356
C115	C	1.096747	-0.235775	-0.808359
H116	H	1.030955	-0.247576	-0.965617
H117	H	1.074711	-0.323692	-0.978801
H118	H	0.996023	-0.287254	-0.849158
H119	H	1.039780	-0.363359	-0.862306
H120	H	1.137757	-0.252111	-0.826562
H121	H	1.093996	-0.176000	-0.813387
H122	H	1.099012	-0.233221	-0.745090
C123	C	0.483749	-0.379999	-0.380298
C124	C	0.410401	-0.394962	-0.395200
C125	C	0.393014	-0.325250	-0.325592
H126	H	0.502713	-0.319857	-0.383152
H127	H	0.502738	-0.382715	-0.320111
H128	H	0.391420	-0.392238	-0.455372
H129	H	0.391419	-0.455091	-0.392337
H130	H	0.412003	-0.327965	-0.265406
H131	H	0.411982	-0.265112	-0.328452
H132	H	0.343246	-0.335398	-0.335689
H133	H	0.616813	-0.398831	-0.399137
H134	H	0.935923	-0.418393	-0.907241
H135	H	0.777656	-1.279273	-0.598317
H136	H	0.665834	-1.074438	-0.725065
H137	H	1.017581	-0.975709	-0.325914
H138	H	0.692625	-0.898214	-0.694554
C139	C	0.898788	-0.460605	-0.845719
C140	C	0.902119	-0.456849	-0.752476
C141	C	0.961862	-0.389057	-0.693490
H142	H	0.896060	-0.400816	-0.850728
H143	H	0.939786	-0.476967	-0.863939
H144	H	0.861131	-0.440481	-0.734261
H145	H	0.904857	-0.516621	-0.747436
H146	H	1.002860	-0.405420	-0.711710
H147	H	0.959129	-0.329274	-0.698508
H148	H	0.964133	-0.386506	-0.630220
H149	H	0.696036	-1.209823	-0.690859
H150	H	0.695952	-0.690877	-1.210655
C151	C	1.002901	-0.342141	-1.163157
C152	C	1.005825	-0.246041	-1.123631
C153	C	1.050808	-0.194778	-1.161775
H154	H	0.985597	-0.361734	-1.229409
H155	H	1.048742	-0.352951	-1.149573
H156	H	0.959992	-0.235237	-1.137222
H157	H	1.023136	-0.226421	-1.057383
H158	H	1.096650	-0.205588	-1.148191
H159	H	1.033500	-0.214378	-1.228026
H160	H	1.052803	-0.129569	-1.134956
C161	C	0.649589	-0.743582	-1.091387
C162	C	0.646284	-0.747357	-1.184630
C163	C	0.586583	-0.815215	-1.243639
H164	H	0.608559	-0.727296	-1.073237
H165	H	0.652371	-0.803349	-1.086326
H166	H	0.643496	-0.687604	-1.189687
H167	H	0.687299	-0.763655	-1.202809
H168	H	0.589365	-0.874981	-1.238578
H169	H	0.545558	-0.798922	-1.225481
H170	H	0.584336	-0.817792	-1.306912
