data_functionalizedCrystal
_audit_creation_method	'MofGen! by Chris Wilmer'
_symmetry_space_group_name_H-M	'P1'
_symmetry_Int_Tables_number	1
_symmetry_cell_setting	triclinic
loop_
_symmetry_equiv_pos_as_xyz
  x,y,z
_cell_length_a	19.288840
_cell_length_b	19.288865
_cell_length_c	18.366186
_cell_angle_alpha	89.988521
_cell_angle_beta	89.983729
_cell_angle_gamma	83.131131
loop_
_atom_site_label
_atom_site_type_symbol
_atom_site_fract_x
_atom_site_fract_y
_atom_site_fract_z
O1	O	0.921364	0.086566	-0.060680
O2	O	1.254697	0.419899	0.272654
O3	O	1.588030	0.753232	0.605987
O4	O	0.719101	0.098273	-0.060655
O5	O	1.052434	0.431606	0.272678
O6	O	1.385767	0.764939	0.606011
O7	O	0.826077	-0.008712	-0.060654
O8	O	1.159410	0.324622	0.272680
O9	O	1.492743	0.657955	0.606013
O10	O	0.814388	0.193550	-0.060681
O11	O	1.147721	0.526883	0.272652
O12	O	1.481055	0.860217	0.605985
O13	O	0.826059	-0.008717	0.060446
O14	O	1.159392	0.324617	0.393779
O15	O	1.492725	0.657950	0.727112
O16	O	0.719083	0.098268	0.060444
O17	O	1.052416	0.431601	0.393777
O18	O	1.385749	0.764934	0.727111
O19	O	0.921346	0.086561	0.060420
O20	O	1.254679	0.419894	0.393753
O21	O	1.588012	0.753227	0.727086
Zn22	Zn	0.820211	0.092413	0.079659
Zn23	Zn	1.153545	0.425747	0.412992
Zn24	Zn	1.486878	0.759080	0.746326
Zn25	Zn	0.820235	0.092420	-0.079895
Zn26	Zn	1.153568	0.425753	0.253439
Zn27	Zn	1.486902	0.759087	0.586772
O28	O	0.814370	0.193545	0.060418
O29	O	1.147703	0.526878	0.393751
O30	O	1.481036	0.860212	0.727085
C31	C	0.825692	-0.034591	-0.000102
C32	C	1.159025	0.298743	0.333231
C33	C	1.492358	0.632076	0.666565
C34	C	0.824563	-0.111694	-0.000095
C35	C	1.157896	0.221639	0.333238
C36	C	1.491229	0.554973	0.666571
C37	C	0.693215	0.097896	-0.000102
C38	C	1.026548	0.431230	0.333231
C39	C	1.359882	0.764563	0.666564
C40	C	0.616110	0.096774	-0.000093
C41	C	0.949444	0.430108	0.333241
C42	C	1.282777	0.763441	0.666574
C43	C	0.887331	-0.156396	-0.000099
C44	C	1.220665	0.176937	0.333234
C45	C	1.553998	0.510271	0.666567
C46	C	0.886270	-0.228843	-0.000111
C47	C	1.219604	0.104490	0.333223
C48	C	1.552937	0.437824	0.666556
C49	C	0.822438	-0.256585	-0.000103
C50	C	1.155771	0.076749	0.333230
C51	C	1.489104	0.410082	0.666563
C52	C	0.759661	-0.211873	-0.000104
C53	C	1.092994	0.121460	0.333230
C54	C	1.426327	0.454794	0.666563
C55	C	0.760723	-0.139428	-0.000100
C56	C	1.094056	0.193906	0.333234
C57	C	1.427390	0.527239	0.666567
C58	C	0.772251	-0.364870	0.042321
C59	C	1.105584	-0.031536	0.375654
C60	C	1.438918	0.301797	0.708988
C61	C	0.771191	-0.437314	0.042321
C62	C	1.104525	-0.103981	0.375655
C63	C	1.437858	0.229353	0.708988
C64	C	0.819158	-0.480030	-0.000119
C65	C	1.152491	-0.146697	0.333214
C66	C	1.485825	0.186637	0.666547
C67	C	0.868196	-0.450295	-0.042551
C68	C	1.201530	-0.116961	0.290782
C69	C	1.534863	0.216372	0.624115
C70	C	0.869259	-0.377849	-0.042547
C71	C	1.202592	-0.044516	0.290786
C72	C	1.535925	0.288817	0.624120
C73	C	0.821278	-0.335139	-0.000108
C74	C	1.154612	-0.001805	0.333225
C75	C	1.487945	0.331528	0.666558
C76	C	0.880781	-0.603288	-0.000137
C77	C	1.214114	-0.269955	0.333197
C78	C	1.547447	0.063379	0.666530
C79	C	0.879717	-0.675736	-0.000153
C80	C	1.213051	-0.342403	0.333181
C81	C	1.546384	-0.009069	0.666514
C82	C	0.753106	-0.658764	-0.000138
C83	C	1.086439	-0.325431	0.333195
C84	C	1.419772	0.007902	0.666528
C85	C	0.754171	-0.586318	-0.000130
C86	C	1.087504	-0.252985	0.333204
C87	C	1.420838	0.080349	0.666537
C88	C	0.818010	-0.558584	-0.000125
C89	C	1.151344	-0.225251	0.333208
C90	C	1.484677	0.108082	0.666541
C91	C	0.579917	0.096238	-0.066106
C92	C	0.913250	0.429571	0.267228
C93	C	1.246583	0.762905	0.600561
C94	C	0.507470	0.095176	-0.066114
C95	C	0.840803	0.428509	0.267219
C96	C	1.174137	0.761843	0.600552
C97	C	0.471221	0.094636	-0.000106
C98	C	0.804555	0.427970	0.333227
C99	C	1.137888	0.761303	0.666560
C100	C	0.507423	0.095176	0.065915
C101	C	0.840756	0.428510	0.399249
C102	C	1.174090	0.761843	0.732582
C103	C	0.579868	0.096245	0.065922
C104	C	0.913201	0.429579	0.399256
C105	C	1.246534	0.762912	0.732589
C106	C	0.361886	0.052256	0.050461
C107	C	0.695219	0.385590	0.383794
C108	C	1.028553	0.718923	0.717127
C109	C	0.289443	0.051183	0.050451
C110	C	0.622777	0.384516	0.383784
C111	C	0.956110	0.717850	0.717118
C112	C	0.247778	0.091342	-0.000125
C113	C	0.581111	0.424675	0.333208
C114	C	0.914444	0.758009	0.666542
C115	C	0.278565	0.132566	-0.050703
C116	C	0.611898	0.465899	0.282630
C117	C	0.945231	0.799232	0.615963
C118	C	0.351009	0.133635	-0.050697
C119	C	0.684343	0.466968	0.282637
C120	C	1.017676	0.800301	0.615970
C121	C	0.392667	0.093477	-0.000107
C122	C	0.726001	0.426811	0.333227
C123	C	1.059334	0.760144	0.666560
C124	C	0.133029	0.089655	-0.066152
C125	C	0.466362	0.422989	0.267181
C126	C	0.799695	0.756322	0.600515
C127	C	0.060580	0.088598	-0.066158
C128	C	0.393913	0.421931	0.267175
C129	C	0.727246	0.755264	0.600509
C130	C	0.060535	0.088591	0.065874
C131	C	0.393869	0.421924	0.399207
C132	C	0.727202	0.755258	0.732540
C133	C	0.132982	0.089656	0.065878
C134	C	0.466315	0.422989	0.399211
C135	C	0.799649	0.756322	0.732544
C136	C	0.169225	0.090185	-0.000137
C137	C	0.502558	0.423518	0.333196
C138	C	0.835891	0.756851	0.666530
C139	C	0.947232	0.086937	-0.000135
C140	C	1.280565	0.420270	0.333199
C141	C	1.613898	0.753604	0.666532
C142	C	1.024336	0.088059	-0.000149
C143	C	1.357669	0.421392	0.333184
C144	C	1.691003	0.754726	0.666517
C145	C	0.814755	0.219424	-0.000135
C146	C	1.148088	0.552757	0.333198
C147	C	1.481422	0.886091	0.666531
C148	C	0.815884	0.296527	-0.000147
C149	C	1.149217	0.629861	0.333187
C150	C	1.482551	0.963194	0.666520
N151	N	0.820200	0.092408	0.188550
N152	N	1.153533	0.425741	0.521883
N153	N	1.486867	0.759075	0.855217
N154	N	0.820252	0.092420	-0.188786
N155	N	1.153585	0.425753	0.144548
N156	N	1.486919	0.759086	0.477881
C157	C	0.867584	0.045059	0.226651
C158	C	1.200918	0.378392	0.559985
C159	C	1.534251	0.711725	0.893318
C160	C	0.867589	0.045055	0.302879
C161	C	1.200922	0.378389	0.636212
C162	C	1.534256	0.711722	0.969546
C163	C	0.820215	0.092414	0.341003
C164	C	1.153549	0.425747	0.674336
C165	C	1.486882	0.759080	1.007670
C166	C	0.772822	0.139767	0.302893
C167	C	1.106156	0.473100	0.636226
C168	C	1.439489	0.806434	0.969559
C169	C	0.772814	0.139764	0.226666
C170	C	1.106148	0.473097	0.560000
C171	C	1.439481	0.806431	0.893333
C172	C	0.810917	0.155702	0.461755
C173	C	1.144251	0.489036	0.795089
C174	C	1.477584	0.822369	1.128422
C175	C	0.810930	0.155706	0.537980
C176	C	1.144263	0.489040	0.871314
C177	C	1.477596	0.822373	1.204647
C178	C	0.820235	0.092422	0.576110
C179	C	1.153569	0.425756	0.909444
C180	C	1.486902	0.759089	1.242777
C181	C	0.829543	0.029132	0.538006
C182	C	1.162876	0.362466	0.871340
C183	C	1.496210	0.695799	1.204673
C184	C	0.829535	0.029129	0.461780
C185	C	1.162869	0.362463	0.795113
C186	C	1.496202	0.695796	1.128447
C187	C	0.820218	0.092422	0.423658
C188	C	1.153552	0.425755	0.756991
C189	C	1.486885	0.759089	1.090324
C190	C	0.867627	0.045066	0.696866
C191	C	1.200960	0.378399	1.030200
C192	C	1.534294	0.711732	1.363533
C193	C	0.867627	0.045062	0.773096
C194	C	1.200960	0.378395	1.106429
C195	C	1.534293	0.711728	1.439762
C196	C	0.772863	0.139779	0.773108
C197	C	1.106197	0.473112	1.106441
C198	C	1.439530	0.806446	1.439774
C199	C	0.772860	0.139777	0.696880
C200	C	1.106194	0.473110	1.030213
C201	C	1.439527	0.806444	1.363547
C202	C	0.820246	0.092421	0.658764
C203	C	1.153579	0.425755	0.992097
C204	C	1.486913	0.759088	1.325431
H205	H	0.939314	-0.133820	-0.000098
H206	H	1.272647	0.199513	0.333235
H207	H	1.605981	0.532846	0.666568
H208	H	0.906209	0.006503	0.665831
H209	H	1.239543	0.339837	0.999164
H210	H	1.572876	0.673170	1.332498
H211	H	0.031112	0.088165	-0.119916
H212	H	0.364445	0.421499	0.213417
H213	H	0.697778	0.754832	0.546751
H214	H	0.703058	-0.549920	-0.000122
H215	H	1.036391	-0.216587	0.333211
H216	H	1.369724	0.116746	0.666544
H217	H	0.477995	0.094741	-0.119872
H218	H	0.811328	0.428074	0.213461
H219	H	1.144662	0.761407	0.546795
Br220	Br	0.182106	0.090382	0.155472
Br221	Br	0.515439	0.423715	0.488805
Br222	Br	0.848772	0.757048	0.822139
Br223	Br	0.798306	0.241599	0.589685
Br224	Br	1.131639	0.574932	0.923019
Br225	Br	1.464973	0.908265	1.256352
H226	H	0.731258	-0.461518	0.076868
H227	H	1.064592	-0.128185	0.410201
H228	H	1.397925	0.205148	0.743534
Br229	Br	0.707148	-0.306904	0.099925
Br230	Br	1.040481	0.026429	0.433258
Br231	Br	1.373814	0.359762	0.766592
H232	H	0.906176	0.006496	0.333907
H233	H	1.239509	0.339830	0.667240
H234	H	1.572843	0.673163	1.000573
Br235	Br	0.842181	-0.056759	0.589744
Br236	Br	1.175515	0.276574	0.923077
Br237	Br	1.508848	0.609907	1.256411
Br238	Br	0.673029	-0.249520	-0.000103
Br239	Br	1.006363	0.083813	0.333230
Br240	Br	1.339696	0.417146	0.666563
Br241	Br	0.222027	0.187073	-0.119346
Br242	Br	0.555361	0.520407	0.213987
Br243	Br	0.888694	0.853740	0.547320
H244	H	0.937386	-0.265246	-0.000117
H245	H	1.270719	0.068087	0.333217
H246	H	1.604053	0.401420	0.666550
H247	H	0.701132	-0.681351	-0.000136
H248	H	1.034465	-0.348017	0.333197
H249	H	1.367798	-0.014684	0.666531
Br250	Br	0.629100	0.096957	-0.155697
Br251	Br	0.962433	0.430291	0.177637
Br252	Br	1.295767	0.763624	0.510970
H253	H	0.909186	-0.353642	-0.077098
H254	H	1.242519	-0.020308	0.256235
H255	H	1.575853	0.313025	0.589569
Br256	Br	0.842160	-0.056760	0.410069
Br257	Br	1.175493	0.276574	0.743402
Br258	Br	1.508826	0.609907	1.076735
Br259	Br	0.798357	0.241597	0.410015
Br260	Br	1.131690	0.574931	0.743348
Br261	Br	1.465024	0.908264	1.076682
Br262	Br	0.931889	-0.019210	0.174922
Br263	Br	1.265222	0.314123	0.508255
Br264	Br	1.598556	0.647456	0.841588
H265	H	0.734288	0.178336	0.804147
H266	H	1.067622	0.511670	1.137481
H267	H	1.400955	0.845003	1.470814
H268	H	0.906211	0.006500	0.804118
H269	H	1.239544	0.339834	1.137452
H270	H	1.572877	0.673167	1.470785
H271	H	0.031022	0.088156	0.119619
H272	H	0.364355	0.421489	0.452952
H273	H	0.697689	0.754822	0.786285
H274	H	0.930833	-0.712132	-0.000160
H275	H	1.264167	-0.378799	0.333174
H276	H	1.597500	-0.045466	0.666507
H277	H	0.609336	0.096683	0.119680
H278	H	0.942669	0.430016	0.453013
H279	H	1.276003	0.763349	0.786346
Br280	Br	0.933300	-0.508258	-0.100153
Br281	Br	1.266633	-0.174924	0.233180
Br282	Br	1.599966	0.158409	0.566514
Br283	Br	0.675530	-0.078756	-0.000096
Br284	Br	1.008864	0.254577	0.333237
Br285	Br	1.342197	0.587910	0.666570
Br286	Br	0.392790	0.189580	-0.119333
Br287	Br	0.726124	0.522913	0.214000
Br288	Br	1.059457	0.856247	0.547334
H289	H	0.932763	-0.580706	-0.000137
H290	H	1.266096	-0.247373	0.333197
H291	H	1.599429	0.085961	0.666530
Br292	Br	0.182219	0.090378	-0.155741
Br293	Br	0.515552	0.423711	0.177592
Br294	Br	0.848885	0.757045	0.510926
H295	H	0.264383	0.017613	0.091632
H296	H	0.597716	0.350946	0.424965
H297	H	0.931050	0.684279	0.758298
H298	H	0.734228	0.178322	0.195644
H299	H	1.067561	0.511656	0.528977
H300	H	1.400894	0.844989	0.862310
H301	H	0.395805	0.019552	0.091649
H302	H	0.729138	0.352885	0.424982
H303	H	1.062472	0.686219	0.758316
H304	H	0.477905	0.094739	0.119660
H305	H	0.811238	0.428072	0.452993
H306	H	1.144571	0.761405	0.786326
Br307	Br	0.708552	0.204042	0.645165
Br308	Br	1.041886	0.537375	0.978499
Br309	Br	1.375219	0.870709	1.311832
Br310	Br	0.708524	0.204035	0.354629
Br311	Br	1.041857	0.537368	0.687962
Br312	Br	1.375191	0.870702	1.021296
