data_functionalizedCrystal
_audit_creation_method	'MofGen! by Chris Wilmer'
_symmetry_space_group_name_H-M	'P1'
_symmetry_Int_Tables_number	1
_symmetry_cell_setting	triclinic
loop_
_symmetry_equiv_pos_as_xyz
  x,y,z
_cell_length_a	25.639242
_cell_length_b	29.839131
_cell_length_c	25.639233
_cell_angle_alpha	89.980415
_cell_angle_beta	89.977834
_cell_angle_gamma	90.036947
loop_
_atom_site_label
_atom_site_type_symbol
_atom_site_fract_x
_atom_site_fract_y
_atom_site_fract_z
Zn1	Zn	0.799215	-0.178962	-0.295739
Zn2	Zn	1.299215	0.321038	0.204261
Zn3	Zn	0.799134	-0.254076	-0.208302
Zn4	Zn	1.299134	0.245924	0.291698
Zn5	Zn	0.711791	-0.178955	-0.208303
Zn6	Zn	1.211791	0.321045	0.291697
Zn7	Zn	0.711732	-0.254059	-0.295692
Zn8	Zn	1.211732	0.245941	0.204308
O9	O	0.755468	-0.216513	-0.252009
O10	O	1.255468	0.283487	0.247991
O11	O	0.872370	-0.188935	-0.284160
O12	O	1.372370	0.311065	0.215840
O13	O	0.787539	-0.244115	-0.135137
O14	O	1.287539	0.255885	0.364863
O15	O	0.723447	-0.116089	-0.219922
O16	O	1.223447	0.383911	0.280078
O17	O	0.872310	-0.244122	-0.219920
O18	O	1.372310	0.255878	0.280080
O19	O	0.787677	-0.116094	-0.284161
O20	O	1.287677	0.383906	0.215839
O21	O	0.723369	-0.188924	-0.135138
O22	O	1.223369	0.311076	0.364862
O23	O	0.638618	-0.188908	-0.219876
O24	O	1.138618	0.311092	0.280124
O25	O	0.723346	-0.244093	-0.368864
O26	O	1.223346	0.255907	0.131136
O27	O	0.638575	-0.244087	-0.284081
O28	O	1.138575	0.255913	0.215919
O29	O	0.787619	-0.188919	-0.368898
O30	O	1.287619	0.311081	0.131102
O31	O	0.787482	-0.316941	-0.219875
O32	O	1.287482	0.183059	0.280125
O33	O	0.723268	-0.316929	-0.284080
O34	O	1.223268	0.183071	0.215920
C35	C	0.619626	-0.216495	-0.251974
C36	C	1.119626	0.283505	0.248026
C37	C	0.561512	-0.216499	-0.251971
C38	C	1.061512	0.283501	0.248029
C39	C	0.755374	-0.333236	-0.251983
C40	C	1.255374	0.166764	0.248017
C41	C	0.755381	-0.383170	-0.251990
C42	C	1.255381	0.116830	0.248010
C43	C	0.201135	-0.245293	-0.285409
C44	C	0.701135	0.254707	0.214591
C45	C	0.146531	-0.245295	-0.285417
C46	C	0.646531	0.254705	0.214583
O47	O	0.118282	-0.269755	-0.313817
O48	O	0.618282	0.230245	0.186183
N49	N	0.119229	-0.216525	-0.252043
N50	N	0.619229	0.283475	0.247957
C51	C	0.146535	-0.187748	-0.218663
C52	C	0.646535	0.312252	0.281337
O53	O	0.118299	-0.163276	-0.190277
O54	O	0.618299	0.336724	0.309723
C55	C	0.201138	-0.187743	-0.218658
C56	C	0.701138	0.312257	0.281342
C57	C	0.228437	-0.216518	-0.252030
C58	C	0.728437	0.283482	0.247970
C59	C	0.228434	-0.274065	-0.318778
C60	C	0.728434	0.225935	0.181222
C61	C	0.283034	-0.274063	-0.318769
C62	C	0.783034	0.225937	0.181231
C63	C	0.310336	-0.245288	-0.285390
C64	C	0.810336	0.254712	0.214610
C65	C	0.283037	-0.216516	-0.252021
C66	C	0.783037	0.283484	0.247979
C67	C	0.228443	-0.158963	-0.185281
C68	C	0.728443	0.341037	0.314719
C69	C	0.283050	-0.158961	-0.185279
C70	C	0.783050	0.341039	0.314721
C71	C	0.310349	-0.187736	-0.218651
C72	C	0.810349	0.312264	0.281349
C73	C	0.364940	-0.187739	-0.218633
C74	C	0.864940	0.312261	0.281367
N75	N	0.392241	-0.216509	-0.252006
N76	N	0.892241	0.283491	0.247994
C77	C	0.364939	-0.245283	-0.285385
C78	C	0.864939	0.254717	0.214615
C79	C	0.031864	-0.187759	-0.218677
C80	C	0.531864	0.312241	0.281323
C81	C	-0.022738	-0.187766	-0.218679
C82	C	0.477262	0.312234	0.281321
C83	C	-0.022739	-0.245313	-0.285434
C84	C	0.477261	0.254687	0.214566
C85	C	0.031865	-0.245308	-0.285429
C86	C	0.531865	0.254692	0.214571
C87	C	0.059166	-0.216529	-0.252051
C88	C	0.559166	0.283471	0.247949
C89	C	0.479604	-0.245277	-0.285363
C90	C	0.979604	0.254723	0.214637
C91	C	0.534210	-0.245273	-0.285350
C92	C	1.034210	0.254727	0.214650
C93	C	0.534206	-0.187724	-0.218597
C94	C	1.034206	0.312276	0.281403
C95	C	0.479605	-0.187729	-0.218609
C96	C	0.979605	0.312271	0.281391
C97	C	0.452306	-0.216507	-0.251996
C98	C	0.952306	0.283493	0.248004
O99	O	0.393223	-0.163290	-0.190249
O100	O	0.893223	0.336710	0.309751
O101	O	0.393182	-0.269746	-0.313771
O102	O	0.893182	0.230254	0.186229
C103	C	0.788965	-0.692807	-0.218627
C104	C	1.288965	-0.192807	0.281373
C105	C	0.789030	-0.880480	-0.218647
C106	C	1.289030	-0.380480	0.281353
O107	O	0.817509	-0.904740	-0.190260
O108	O	1.317509	-0.404740	0.309740
N109	N	0.755577	-0.903955	-0.252049
N110	N	1.255577	-0.403955	0.247951
C111	C	0.722108	-0.880509	-0.285450
C112	C	1.222108	-0.380509	0.214550
O113	O	0.693659	-0.904782	-0.313865
O114	O	1.193659	-0.404782	0.186135
C115	C	0.722046	-0.692837	-0.285432
C116	C	1.222046	-0.192837	0.214568
C117	C	0.755498	-0.669364	-0.252024
C118	C	1.255498	-0.169364	0.247976
C119	C	0.822415	-0.669335	-0.185222
C120	C	1.322415	-0.169335	0.314778
C121	C	0.822396	-0.622419	-0.185215
C122	C	1.322396	-0.122419	0.314785
C123	C	0.788928	-0.598976	-0.218613
C124	C	1.288928	-0.098976	0.281387
C125	C	0.755479	-0.622449	-0.252018
C126	C	1.255479	-0.122449	0.247982
C127	C	0.688580	-0.669391	-0.318836
C128	C	1.188580	-0.169391	0.181164
C129	C	0.688568	-0.622470	-0.318829
C130	C	1.188568	-0.122470	0.181171
C131	C	0.722020	-0.598998	-0.285422
C132	C	1.222020	-0.098998	0.214578
C133	C	0.721993	-0.552090	-0.285409
C134	C	1.221993	-0.052090	0.214591
N135	N	0.755446	-0.528615	-0.252007
N136	N	1.255446	-0.028615	0.247993
C137	C	0.788914	-0.552058	-0.218609
C138	C	1.288914	-0.052058	0.281391
C139	C	0.722141	-0.979039	-0.285457
C140	C	1.222141	-0.479039	0.214543
C141	C	0.722156	-1.025957	-0.285461
C142	C	1.222156	-0.525957	0.214539
C143	C	0.789079	-1.025925	-0.218658
C144	C	1.289079	-0.525925	0.281342
C145	C	0.789062	-0.979007	-0.218652
C146	C	1.289062	-0.479007	0.281348
C147	C	0.755595	-0.955565	-0.252055
C148	C	1.255595	-0.455565	0.247945
C149	C	0.788872	-0.453533	-0.218597
C150	C	1.288872	0.046467	0.281403
C151	C	0.788849	-0.406613	-0.218592
C152	C	1.288849	0.093387	0.281408
C153	C	0.721928	-0.406649	-0.285396
C154	C	1.221928	0.093351	0.214604
C155	C	0.721949	-0.453564	-0.285400
C156	C	1.221949	0.046436	0.214600
C157	C	0.755425	-0.477005	-0.251999
C158	C	1.255425	0.022995	0.248001
O159	O	0.693533	-0.527802	-0.313784
O160	O	1.193533	-0.027802	0.186216
O161	O	0.817366	-0.527777	-0.190207
O162	O	1.317366	-0.027777	0.309793
C163	C	0.788984	-0.739723	-0.218633
C164	C	1.288984	-0.239723	0.281367
C165	C	0.755535	-0.763195	-0.252038
C166	C	1.255535	-0.263195	0.247962
C167	C	0.722067	-0.739752	-0.285436
C168	C	1.222067	-0.239752	0.214564
C169	C	0.755549	-0.810113	-0.252042
C170	C	1.255549	-0.310113	0.247958
C171	C	0.789017	-0.833556	-0.218644
C172	C	1.289017	-0.333556	0.281356
C173	C	0.822470	-0.810081	-0.185242
C174	C	1.322470	-0.310081	0.314758
C175	C	0.822451	-0.763166	-0.185235
C176	C	1.322451	-0.263166	0.314765
C177	C	0.688614	-0.763227	-0.318838
C178	C	1.188614	-0.263227	0.181162
C179	C	0.688635	-0.810143	-0.318841
C180	C	1.188635	-0.310143	0.181159
C181	C	0.722102	-0.833585	-0.285443
C182	C	1.222102	-0.333585	0.214557
C183	C	0.891841	-0.216531	-0.252045
C184	C	1.391841	0.283469	0.247955
C185	C	0.949955	-0.216539	-0.252060
C186	C	1.449955	0.283461	0.247940
C187	C	0.755485	-0.216505	-0.388382
C188	C	1.255485	0.283495	0.111618
C189	C	0.755492	-0.216502	-0.446496
C190	C	1.255492	0.283498	0.053504
C191	C	0.755577	-0.099335	-0.252047
C192	C	1.255577	0.400665	0.247953
C193	C	0.755624	-0.049400	-0.252063
C194	C	1.255624	0.450600	0.247937
C195	C	0.789002	-0.187687	-0.806883
C196	C	1.289002	0.312313	-0.306883
C197	C	0.789008	-0.187675	-0.861488
C198	C	1.289008	0.312325	-0.361488
O199	O	0.817457	-0.163229	-0.889744
O200	O	1.317457	0.336771	-0.389744
N201	N	0.755550	-0.216396	-0.888779
N202	N	1.255550	0.283604	-0.388779
C203	C	0.722079	-0.245129	-0.861463
C204	C	1.222079	0.254871	-0.361463
O205	O	0.693621	-0.269558	-0.889691
O206	O	1.193621	0.230442	-0.389691
C207	C	0.722071	-0.245139	-0.806860
C208	C	1.222071	0.254861	-0.306860
C209	C	0.755535	-0.216419	-0.779571
C210	C	1.255535	0.283581	-0.279571
C211	C	0.822463	-0.158969	-0.779594
C212	C	1.322463	0.341031	-0.279594
C213	C	0.822457	-0.158982	-0.724994
C214	C	1.322457	0.341018	-0.224994
C215	C	0.788990	-0.187714	-0.697682
C216	C	1.288990	0.312286	-0.197682
C217	C	0.755529	-0.216432	-0.724971
C218	C	1.255529	0.283568	-0.224971
C219	C	0.688598	-0.273869	-0.779545
C220	C	1.188598	0.226131	-0.279545
C221	C	0.688592	-0.273876	-0.724938
C222	C	1.188592	0.226124	-0.224938
C223	C	0.722056	-0.245156	-0.697650
C224	C	1.222056	0.254844	-0.197650
C225	C	0.722056	-0.245176	-0.643058
C226	C	1.222056	0.254824	-0.143058
N227	N	0.755514	-0.216455	-0.615767
N228	N	1.255514	0.283545	-0.115767
C229	C	0.788981	-0.187723	-0.643079
C230	C	1.288981	0.312277	-0.143079
C231	C	0.722100	-0.245106	-0.976134
C232	C	1.222100	0.254894	-0.476134
C233	C	0.722110	-0.245099	-1.030736
C234	C	1.222110	0.254901	-0.530736
C235	C	0.789039	-0.187644	-1.030757
C236	C	1.289039	0.312356	-0.530757
C237	C	0.789030	-0.187653	-0.976153
C238	C	1.289030	0.312347	-0.476153
C239	C	0.755558	-0.216384	-0.948843
C240	C	1.255558	0.283616	-0.448843
C241	C	0.788967	-0.187753	-0.528414
C242	C	1.288967	0.312247	-0.028414
C243	C	0.788959	-0.187770	-0.473808
C244	C	1.288959	0.312230	0.026192
C245	C	0.722029	-0.245223	-0.473793
C246	C	1.222029	0.254777	0.026207
C247	C	0.722038	-0.245208	-0.528393
C248	C	1.222038	0.254792	-0.028393
C249	C	0.755509	-0.216470	-0.555702
C250	C	1.255509	0.283530	-0.055702
O251	O	0.693620	-0.269609	-0.614767
O252	O	1.193620	0.230391	-0.114767
O253	O	0.817430	-0.163295	-0.614845
O254	O	1.317430	0.336705	-0.114845
C255	C	0.755482	-0.216488	-0.116167
C256	C	1.255482	0.283512	0.383833
C257	C	0.755576	-0.216365	-0.058053
C258	C	1.255576	0.283635	0.441947
H259	H	0.556434	-0.268707	-0.312526
H260	H	1.056434	0.231293	0.187474
H261	H	0.694866	-0.268490	-1.052950
H262	H	1.194866	0.231510	-0.552950
H263	H	0.816220	-0.164350	-0.550642
H264	H	1.316220	0.335650	-0.050642
H265	H	0.305276	-0.135522	-0.158101
H266	H	0.805276	0.364478	0.341899
N267	N	0.199016	-0.127922	-0.149285
N268	N	0.699016	0.372078	0.350715
H269	H	0.208552	-0.095837	-0.157482
H270	H	0.708552	0.404163	0.342518
H271	H	0.160288	-0.132320	-0.154361
H272	H	0.660288	0.367680	0.345639
H273	H	0.849671	-0.688417	-0.158025
H274	H	1.349671	-0.188417	0.341975
N275	N	0.061309	-0.156716	-0.182675
N276	N	0.561309	0.343284	0.317325
H277	H	0.035724	-0.138493	-0.161537
H278	H	0.535724	0.361507	0.338463
H279	H	0.083942	-0.174967	-0.158435
H280	H	0.583942	0.325033	0.341565
N281	N	0.563662	-0.156689	-0.182601
N282	N	1.063662	0.343311	0.317399
H283	H	0.554187	-0.124602	-0.190794
H284	H	1.054187	0.375398	0.309206
H285	H	0.554129	-0.163653	-0.145243
H286	H	1.054129	0.336347	0.354757
N287	N	0.825056	-0.156792	-0.444378
N288	N	1.325056	0.343208	0.055622
H289	H	0.803828	-0.135975	-0.421717
H290	H	1.303828	0.364025	0.078283
H291	H	0.849260	-0.175091	-0.421761
H292	H	1.349260	0.324909	0.078239
N293	N	-0.052191	-0.276348	-0.321439
N294	N	0.447809	0.223652	0.178561
H295	H	-0.042718	-0.308436	-0.313250
H296	H	0.457282	0.191564	0.186750
H297	H	-0.090914	-0.271942	-0.316360
H298	H	0.409086	0.228058	0.183640
N299	N	0.686067	-1.051268	-0.321487
N300	N	1.186067	-0.551268	0.178513
H301	H	0.694159	-1.043080	-0.358851
H302	H	1.194159	-0.543080	0.141149
H303	H	0.691165	-1.084540	-0.316382
H304	H	1.191165	-0.584540	0.183618
H305	H	0.661361	-0.744143	-0.346035
H306	H	1.161361	-0.244143	0.153965
N307	N	0.824933	-0.381295	-0.182562
N308	N	1.324933	0.118705	0.317438
H309	H	0.816844	-0.389483	-0.145197
H310	H	1.316844	0.110517	0.354803
H311	H	0.862271	-0.389437	-0.190771
H312	H	1.362271	0.110563	0.309229
N313	N	0.824974	-0.478806	-0.182564
N314	N	1.324974	0.021194	0.317436
H315	H	0.803749	-0.498297	-0.158314
H316	H	1.303749	0.001703	0.341686
H317	H	0.849196	-0.498219	-0.203869
H318	H	1.349196	0.001781	0.296131
H319	H	0.694842	-0.268504	-0.953901
H320	H	1.194842	0.231496	-0.453901
N321	N	0.858484	-0.597106	-0.149190
N322	N	1.358484	-0.097106	0.350810
H323	H	0.879688	-0.619082	-0.128040
H324	H	1.379688	-0.119082	0.371960
H325	H	0.882658	-0.577616	-0.170502
H326	H	1.382658	-0.077616	0.329498
H327	H	0.816301	-0.959898	-0.191448
H328	H	1.316301	-0.459898	0.308552
H329	H	0.457377	-0.164299	-0.191433
H330	H	0.957377	0.335701	0.308567
N331	N	-0.052179	-0.156736	-0.182678
N332	N	0.447821	0.343264	0.317322
H333	H	-0.026592	-0.138510	-0.161533
H334	H	0.473408	0.361490	0.338467
H335	H	-0.074808	-0.135972	-0.204005
H336	H	0.425192	0.364028	0.295995
H337	H	0.816330	-1.045021	-0.191464
H338	H	1.316330	-0.545021	0.308536
N339	N	0.686040	-0.953759	-0.321484
N340	N	1.186040	-0.453759	0.178516
H341	H	0.664851	-0.975753	-0.342640
H342	H	1.164851	-0.475753	0.157360
H343	H	0.661852	-0.934320	-0.300173
H344	H	1.161852	-0.434320	0.199827
N345	N	0.685934	-0.276208	-0.444325
N346	N	1.185934	0.223792	0.055675
H347	H	0.648585	-0.269221	-0.453817
H348	H	1.148585	0.230779	0.046183
H349	H	0.694065	-0.308296	-0.453833
H350	H	1.194065	0.191704	0.046167
H351	H	0.694712	-0.472677	-0.312605
H352	H	1.194712	0.027323	0.187395
N353	N	0.858549	-0.128004	-0.695565
N354	N	1.358549	0.371996	-0.195565
H355	H	0.879747	-0.109802	-0.721159
H356	H	1.379747	0.390198	-0.221159
H357	H	0.837284	-0.107214	-0.672908
H358	H	1.337284	0.392786	-0.172908
H359	H	0.661347	-0.297256	-0.801754
H360	H	1.161347	0.202744	-0.301754
H361	H	0.661337	-0.688495	-0.346038
H362	H	1.161337	-0.188495	0.153962
H363	H	0.661316	-0.603386	-0.346032
H364	H	1.161316	-0.103386	0.153968
H365	H	0.816288	-0.164248	-1.053004
H366	H	1.316288	0.335752	-0.553004
N367	N	0.652484	-0.304861	-0.695482
N368	N	1.152484	0.195139	-0.195482
H369	H	0.631287	-0.323050	-0.721058
H370	H	1.131287	0.176950	-0.221058
H371	H	0.673738	-0.325662	-0.672828
H372	H	1.173738	0.174338	-0.172828
H373	H	0.694677	-0.387554	-0.312587
H374	H	1.194677	0.112446	0.187413
H375	H	0.849716	-0.135570	-0.801826
H376	H	1.349716	0.364430	-0.301826
N377	N	0.858535	-0.737852	-0.149206
N378	N	1.358535	-0.237852	0.350794
H379	H	0.879737	-0.759828	-0.128054
H380	H	1.379737	-0.259828	0.371946
H381	H	0.882711	-0.718360	-0.170513
H382	H	1.382711	-0.218360	0.329487
N383	N	0.858563	-0.835370	-0.149215
N384	N	1.358563	-0.335370	0.350785
H385	H	0.853494	-0.868653	-0.154291
H386	H	1.353494	-0.368653	0.345709
H387	H	0.895897	-0.827139	-0.157390
H388	H	1.395897	-0.327139	0.342610
N389	N	0.685953	-0.276190	-0.557830
N390	N	1.185953	0.223810	-0.057830
H391	H	0.664753	-0.294394	-0.532240
H392	H	1.164753	0.205606	-0.032240
H393	H	0.661774	-0.257894	-0.580478
H394	H	1.161774	0.242106	-0.080478
N395	N	0.652547	-0.835453	-0.354875
N396	N	1.152547	-0.335453	0.145125
H397	H	0.660642	-0.827262	-0.392237
H398	H	1.160642	-0.327262	0.107763
H399	H	0.657648	-0.868725	-0.349773
H400	H	1.157648	-0.368725	0.150227
N401	N	0.450165	-0.276316	-0.321372
N402	N	0.950165	0.223684	0.178628
H403	H	0.475751	-0.294541	-0.342506
H404	H	0.975751	0.205459	0.157494
H405	H	0.427486	-0.297081	-0.300048
H406	H	0.927486	0.202919	0.199952
H407	H	0.206210	-0.297497	-0.345962
H408	H	0.706210	0.202503	0.154038
N409	N	0.312474	-0.305098	-0.354764
N410	N	0.812474	0.194902	0.145236
H411	H	0.286886	-0.323324	-0.375909
H412	H	0.786886	0.176676	0.124091
H413	H	0.335153	-0.286842	-0.378999
H414	H	0.835153	0.213158	0.121001
H415	H	0.054088	-0.268739	-0.312604
H416	H	0.554088	0.231261	0.187396
N417	N	0.825123	-0.156677	-0.946723
N418	N	1.325123	0.343323	-0.446723
H419	H	0.846325	-0.138477	-0.972315
H420	H	1.346325	0.361523	-0.472315
H421	H	0.803858	-0.135886	-0.924067
H422	H	1.303858	0.364114	-0.424067
