data_functionalizedCrystal
_audit_creation_method	'MofGen! by Chris Wilmer'
_symmetry_space_group_name_H-M	'P1'
_symmetry_Int_Tables_number	1
_symmetry_cell_setting	triclinic
loop_
_symmetry_equiv_pos_as_xyz
  x,y,z
_cell_length_a	16.120530
_cell_length_b	16.120444
_cell_length_c	16.120297
_cell_angle_alpha	84.384883
_cell_angle_beta	89.871860
_cell_angle_gamma	90.168401
loop_
_atom_site_label
_atom_site_type_symbol
_atom_site_fract_x
_atom_site_fract_y
_atom_site_fract_z
Zn1	Zn	1.224979	-0.422266	0.554818
Zn2	Zn	1.558313	-0.088933	0.888152
Zn3	Zn	1.891646	0.244401	1.221485
Zn4	Zn	1.224872	-0.554951	0.422125
Zn5	Zn	1.558206	-0.221617	0.755458
Zn6	Zn	1.891539	0.111716	1.088792
Zn7	Zn	1.093719	-0.408182	0.408061
Zn8	Zn	1.427052	-0.074848	0.741394
Zn9	Zn	1.760385	0.258485	1.074728
Zn10	Zn	1.078869	-0.554183	0.554057
Zn11	Zn	1.412203	-0.220850	0.887391
Zn12	Zn	1.745536	0.112484	1.220724
O13	O	1.155610	-0.484895	0.484765
O14	O	1.488943	-0.151562	0.818099
O15	O	1.822277	0.181771	1.151432
O16	O	1.341001	-0.446082	0.543421
O17	O	1.674334	-0.112749	0.876754
O18	O	2.007667	0.220584	1.210087
O19	O	1.213644	-0.529908	0.303627
O20	O	1.546977	-0.196575	0.636960
O21	O	1.880311	0.136758	0.970293
O22	O	1.117390	-0.293419	0.421961
O23	O	1.450723	0.039914	0.755295
O24	O	1.784057	0.373248	1.088628
O25	O	1.340922	-0.543565	0.445931
O26	O	1.674255	-0.210232	0.779265
O27	O	2.007589	0.123101	1.112598
O28	O	1.213826	-0.303767	0.529783
O29	O	1.547160	0.029567	0.863117
O30	O	1.880493	0.362900	1.196450
O31	O	1.117286	-0.422078	0.293294
O32	O	1.450620	-0.088744	0.626627
O33	O	1.783953	0.244589	0.959960
O34	O	0.975713	-0.421333	0.421223
O35	O	1.309047	-0.088000	0.754557
O36	O	1.642380	0.245333	1.087890
O37	O	1.092082	-0.542257	0.670791
O38	O	1.425415	-0.208924	1.004124
O39	O	1.758748	0.124410	1.337458
O40	O	0.964804	-0.528600	0.528486
O41	O	1.298137	-0.195267	0.861820
O42	O	1.631470	0.138067	1.195153
O43	O	1.199428	-0.445338	0.671350
O44	O	1.532761	-0.112005	1.004684
O45	O	1.866094	0.221329	1.338017
O46	O	1.199245	-0.671480	0.445193
O47	O	1.532579	-0.338146	0.778527
O48	O	1.865912	-0.004813	1.111860
O49	O	1.091978	-0.670916	0.542124
O50	O	1.425311	-0.337582	0.875457
O51	O	1.758644	-0.004249	1.208790
C52	C	0.940172	-0.473356	0.473247
C53	C	1.273505	-0.140022	0.806580
C54	C	1.606838	0.193311	1.139913
C55	C	0.848004	-0.468440	0.468340
C56	C	1.181337	-0.135107	0.801673
C57	C	1.514671	0.198227	1.135006
C58	C	0.679253	-0.459446	0.459387
C59	C	1.012586	-0.126113	0.792720
C60	C	1.345920	0.207220	1.126053
C61	C	0.632801	-0.510409	0.510208
C62	C	0.966134	-0.177075	0.843541
C63	C	1.299468	0.156258	1.176874
C64	C	0.538902	-0.505404	0.505226
C65	C	0.872235	-0.172071	0.838560
C66	C	1.205569	0.161262	1.171893
C67	C	0.773160	-0.464449	0.464367
C68	C	1.106494	-0.131116	0.797700
C69	C	1.439827	0.202217	1.131034
C70	C	1.144010	-0.701441	0.495121
C71	C	1.477344	-0.368108	0.828455
C72	C	1.810677	-0.034774	1.161788
C73	C	1.139122	-0.794086	0.499584
C74	C	1.472455	-0.460752	0.832917
C75	C	1.805789	-0.127419	1.166250
C76	C	1.181160	-1.005244	0.461807
C77	C	1.514494	-0.671910	0.795141
C78	C	1.847827	-0.338577	1.128474
C79	C	1.130213	-0.963704	0.507740
C80	C	1.463546	-0.630371	0.841074
C81	C	1.796879	-0.297037	1.174407
C82	C	1.135171	-0.869320	0.503201
C83	C	1.468505	-0.535986	0.836534
C84	C	1.801838	-0.202653	1.169867
C85	C	1.176203	-1.099637	0.466346
C86	C	1.509536	-0.766304	0.799679
C87	C	1.842869	-0.432970	1.133013
C88	C	1.371889	-0.496481	0.496330
C89	C	1.705223	-0.163147	0.829663
C90	C	2.038556	0.170186	1.162996
C91	C	1.464055	-0.501417	0.501258
C92	C	1.797388	-0.168084	0.834591
C93	C	2.130721	0.165249	1.167924
C94	C	1.144110	-0.495283	0.702158
C95	C	1.477444	-0.161950	1.035491
C96	C	1.810777	0.171384	1.368824
C97	C	1.139210	-0.499710	0.794797
C98	C	1.472543	-0.166376	1.128131
C99	C	1.805876	0.166957	1.461464
C100	C	1.167277	-0.267506	0.474388
C101	C	1.500610	0.065827	0.807722
C102	C	1.833943	0.399161	1.141055
C103	C	1.172248	-0.174868	0.469966
C104	C	1.505581	0.158466	0.803300
C105	C	1.838915	0.491799	1.136633
C106	C	1.167116	-0.474490	0.268218
C107	C	1.500449	-0.141157	0.601552
C108	C	1.833782	0.192176	0.934885
C109	C	1.172189	-0.469838	0.175577
C110	C	1.505523	-0.136504	0.508910
C111	C	1.838856	0.196829	0.842243
C112	C	1.130233	-0.507771	0.964409
C113	C	1.463567	-0.174438	1.297742
C114	C	1.796900	0.158895	1.631075
C115	C	1.181163	-0.461778	1.005971
C116	C	1.514497	-0.128445	1.339304
C117	C	1.847830	0.204889	1.672637
C118	C	1.176169	-0.466264	1.100348
C119	C	1.509502	-0.132930	1.433681
C120	C	1.842835	0.200403	1.767015
C121	C	1.135227	-0.503287	0.870023
C122	C	1.468560	-0.169954	1.203356
C123	C	1.801893	0.163380	1.536689
H124	H	0.648503	-0.412062	0.412140
H125	H	0.981836	-0.078729	0.745473
H126	H	1.315170	0.254605	1.078806
H127	H	1.228516	-0.419032	0.970673
H128	H	1.561850	-0.085699	1.304006
H129	H	1.895183	0.247634	1.637339
F130	F	0.672993	-0.572345	0.571973
F131	F	1.006326	-0.239011	0.905306
F132	F	1.339660	0.094322	1.238640
F133	F	1.068331	-1.009870	0.563595
F134	F	1.401664	-0.676536	0.896929
F135	F	1.734998	-0.343203	1.230262
H136	H	1.228498	-0.969926	0.419075
H137	H	1.561832	-0.636593	0.752409
H138	H	1.895165	-0.303259	1.085742
F139	F	1.068344	-0.563641	1.010543
F140	F	1.401678	-0.230308	1.343876
F141	F	1.735011	0.103026	1.677209
