data_functionalizedCrystal
_audit_creation_method	'MofGen! by Chris Wilmer'
_symmetry_space_group_name_H-M	'P1'
_symmetry_Int_Tables_number	1
_symmetry_cell_setting	triclinic
loop_
_symmetry_equiv_pos_as_xyz
  x,y,z
_cell_length_a	6.817900
_cell_length_b	14.125369
_cell_length_c	14.125465
_cell_angle_alpha	96.221150
_cell_angle_beta	100.398878
_cell_angle_gamma	100.397648
loop_
_atom_site_label
_atom_site_type_symbol
_atom_site_fract_x
_atom_site_fract_y
_atom_site_fract_z
V1	V	-3.975802	-0.132288	-0.299601
O2	O	-3.980353	0.007207	-0.294287
O3	O	-3.912214	-0.263123	-0.297177
O4	O	-3.912227	-0.129880	-0.430437
O5	O	-3.980341	-0.126958	-0.160104
V6	V	-4.463364	-0.115647	-0.282961
O7	O	-4.228200	-0.168792	-0.336101
O8	O	-4.661164	-0.079143	-0.246461
O9	O	-4.303746	0.015188	-0.285384
O10	O	-4.576210	-0.255142	-0.288275
O11	O	-4.576223	-0.120977	-0.422458
O12	O	-4.303733	-0.118055	-0.152124
C13	C	-3.754011	-0.295029	-0.292354
C14	C	-3.783206	-0.401986	-0.291245
C15	C	-4.021785	-0.650121	-0.293315
C16	C	-3.836760	-0.597814	-0.289250
C17	C	-3.806963	-0.488845	-0.290360
C18	C	-4.051590	-0.759100	-0.292205
C19	C	-3.754026	-0.125063	-0.462340
C20	C	-3.783229	-0.123960	-0.569297
C21	C	-3.836757	-0.121937	-0.765126
C22	C	-4.021778	-0.125995	-0.817436
C23	C	-4.051564	-0.124870	-0.926402
C24	C	-3.806964	-0.123063	-0.656150
C25	C	-4.125291	0.047089	-0.290205
C26	C	-4.075333	0.154045	-0.291320
C27	C	-4.125276	-0.122874	-0.120217
C28	C	-4.075312	-0.123973	-0.013258
H29	H	-3.700733	-0.634871	-0.284937
H30	H	-4.157814	-0.130325	-0.780385
F31	F	-3.658966	-0.116299	-0.813554
F32	F	-4.199570	-0.601687	-0.298949
