data_functionalizedCrystal
_audit_creation_method	'MofGen! by Chris Wilmer'
_symmetry_space_group_name_H-M	'P1'
_symmetry_Int_Tables_number	1
_symmetry_cell_setting	triclinic
loop_
_symmetry_equiv_pos_as_xyz
  x,y,z
_cell_length_a	20.875492
_cell_length_b	14.446369
_cell_length_c	20.875625
_cell_angle_alpha	92.971911
_cell_angle_beta	60.168684
_cell_angle_gamma	58.316128
loop_
_atom_site_label
_atom_site_type_symbol
_atom_site_fract_x
_atom_site_fract_y
_atom_site_fract_z
Zr1	Zr	0.740607	0.827082	-0.122730
O2	O	0.881778	0.660470	-0.232509
O3	O	0.599442	0.885875	-0.083978
O4	O	0.740608	0.864720	-0.225152
O5	O	0.740610	0.689534	0.014225
O6	O	0.740602	1.017058	-0.225148
O7	O	0.740612	0.681625	-0.091336
O8	O	0.488082	1.054899	0.027387
O9	O	0.993130	0.651692	-0.238309
O10	O	0.657499	1.015314	-0.073607
O11	O	0.657501	0.907528	0.005168
O12	O	0.823706	0.882621	-0.161046
O13	O	0.823709	0.774836	-0.082270
Zr14	Zr	0.740594	1.082658	0.045634
Zr15	Zr	0.740597	1.070044	-0.122723
Zr16	Zr	0.740604	0.839696	0.045628
Zr17	Zr	0.918200	0.813082	-0.131979
Zr18	Zr	0.563001	1.096658	0.054884
O19	O	0.881759	1.023865	0.006882
O20	O	0.881764	1.005930	-0.232500
O21	O	0.881773	0.678405	0.006873
O22	O	0.599423	1.249270	0.155414
O23	O	0.599428	1.231334	-0.083968
O24	O	0.599437	0.903810	0.155404
O25	O	0.740591	1.220206	-0.091321
O26	O	0.740593	1.045020	0.148056
O27	O	0.740599	0.892682	0.148052
O28	O	0.740589	1.228115	0.014240
O29	O	0.993122	0.844814	-0.238304
O30	O	0.488079	1.064926	0.161208
O31	O	0.488071	1.258048	0.161214
O32	O	0.488074	1.248021	0.027392
O33	O	0.993127	0.661718	-0.104488
O34	O	0.993119	0.854840	-0.104482
O35	O	0.657495	1.027118	0.083950
O36	O	0.657492	1.134904	0.005175
O37	O	0.823700	1.002212	-0.082264
O38	O	0.823702	0.894426	-0.003488
C39	C	0.518459	0.972382	-0.026978
C40	C	0.443066	0.978325	-0.023051
C41	C	0.469017	0.887994	-0.082571
C42	C	0.398191	0.893579	-0.078910
C43	C	0.301414	0.989491	-0.015724
C44	C	0.275463	1.079831	0.043799
C45	C	0.346289	1.074249	0.040134
C46	C	0.083010	1.016173	0.001814
C47	C	0.012184	1.021746	0.005476
C48	C	0.134917	0.835494	-0.117235
C49	C	0.205738	0.829918	-0.120892
C50	C	0.179782	0.920260	-0.061371
N51	N	0.229016	0.995200	-0.011979
N52	N	0.252179	0.914555	-0.065120
C53	C	0.740613	0.650962	-0.038556
C54	C	0.740617	0.547819	-0.038559
C55	C	0.845433	0.317483	-0.093455
C56	C	0.845503	0.424689	-0.093737
C57	C	0.688550	0.545884	-0.072089
C58	C	0.689215	0.438036	-0.072486
C59	C	0.687054	0.448736	0.049973
C60	C	0.689029	0.554540	0.049735
C61	C	0.962742	0.937358	-0.050118
C62	C	1.038135	0.931415	-0.054045
C63	C	0.740605	0.939092	-0.249137
C64	C	0.740607	0.933737	-0.320609
C65	C	0.740588	1.258778	-0.038539
C66	C	0.740584	1.361921	-0.038536
C67	C	0.740605	1.015145	-0.354184
C68	C	0.740598	1.010117	-0.421336
C69	C	0.740600	0.923675	-0.454914
C70	C	0.740598	0.842264	-0.421332
C71	C	0.740599	0.847298	-0.354179
C72	C	0.740593	0.899625	-0.655751
C73	C	0.740596	0.894595	-0.722911
C74	C	0.740594	1.062451	-0.722909
C75	C	0.740600	1.067472	-0.655757
C76	C	0.740593	0.986065	-0.622179
N77	N	0.740596	0.918532	-0.523555
N78	N	0.740591	0.991215	-0.553535
C79	C	0.740596	0.970648	0.172042
C80	C	0.740594	0.976003	0.243514
C81	C	0.518447	1.276289	-0.026969
C82	C	0.443050	1.385376	-0.023040
C83	C	0.518454	0.988160	0.183612
C84	C	0.443060	0.999458	0.259010
C85	C	0.518442	1.292067	0.183620
C86	C	0.443043	1.406509	0.259022
C87	C	0.962759	0.617672	-0.260715
C88	C	1.038158	0.503231	-0.336117
C89	C	0.962754	0.633450	-0.050126
C90	C	1.038151	0.524364	-0.054056
C91	C	0.962747	0.921580	-0.260707
C92	C	1.038141	0.910282	-0.336106
C93	C	0.407646	1.374179	-0.062325
C94	C	0.336812	1.476666	-0.058649
C95	C	0.301379	1.590351	-0.015682
C96	C	0.336790	1.601545	0.023604
C97	C	0.407627	1.499058	0.019922
C98	C	0.407650	1.067189	0.335549
C99	C	0.336819	1.077801	0.406400
C100	C	0.301394	1.020687	0.400711
C101	C	0.336810	0.952947	0.324164
C102	C	0.407645	0.942330	0.253315
C103	C	0.407634	1.516525	0.253311
C104	C	0.336799	1.624064	0.324152
C105	C	0.301370	1.621583	0.400703
C106	C	0.336786	1.511555	0.406412
C107	C	0.407625	1.404019	0.335571
C108	C	1.073576	0.393214	-0.330407
C109	C	1.144433	0.285674	-0.401249
C110	C	1.179866	0.288154	-0.477800
C111	C	1.144445	0.398182	-0.483509
C112	C	1.073594	0.505719	-0.412668
C113	C	1.073563	0.535560	-0.014778
C114	C	1.144416	0.433069	-0.018474
C115	C	1.179852	0.319385	-0.061443
C116	C	1.144438	0.308191	-0.100725
C117	C	1.073590	0.410679	-0.097034
C118	C	1.073544	0.967411	-0.330391
C119	C	1.144376	0.956818	-0.401229
C120	C	1.179808	0.889089	-0.477782
C121	C	1.144398	0.831959	-0.483495
C122	C	1.073563	0.842559	-0.412658
H123	H	0.419329	0.820021	-0.127377
H124	H	0.307929	1.694120	0.058586
C125	C	0.740603	0.757750	-0.317244
H126	H	0.740594	0.773134	-0.272437
H127	H	0.796106	0.678127	-0.357447
H128	H	0.685093	0.766762	-0.299047
H129	H	0.740597	1.128730	-0.750254
C130	C	0.223441	1.739879	0.478621
H131	H	0.207424	1.805752	0.464249
H132	H	0.246648	1.740349	0.507799
H133	H	0.168161	1.746528	0.511877
H134	H	0.307956	0.906448	0.319545
C135	C	1.257779	0.206659	-0.065494
H136	H	1.273783	0.229620	-0.035939
H137	H	1.313058	0.154528	-0.120763
H138	H	1.234560	0.166297	-0.042259
H139	H	1.044716	0.628119	0.020217
C140	C	0.446557	1.283009	0.341864
H141	H	0.415299	1.296946	0.397603
H142	H	0.513439	1.235608	0.313896
H143	H	0.434930	1.241829	0.317990
C144	C	1.034633	0.398351	-0.140231
H145	H	1.065882	0.315965	-0.166340
H146	H	1.046232	0.429853	-0.179752
H147	H	0.967750	0.441609	-0.101243
H148	H	0.740591	0.833338	-0.628418
H149	H	1.173258	0.776814	-0.545834
C150	C	0.163467	0.736128	-0.182706
H151	H	0.231247	0.678204	-0.220858
H152	H	0.138398	0.770422	-0.210135
H153	H	0.138382	0.698435	-0.157517
C154	C	1.034613	0.390468	-0.246208
H155	H	0.987337	0.470264	-0.204828
H156	H	1.085470	0.346640	-0.242968
H157	H	1.006981	0.352813	-0.238881
C158	C	1.034575	1.041919	-0.246190
H159	H	0.987321	1.040052	-0.204812
H160	H	1.006933	1.122614	-0.238859
H161	H	1.085436	1.009044	-0.242950
H162	H	1.237487	0.880467	-0.535456
C163	C	1.034639	0.779695	-0.418955
H164	H	1.065898	0.737833	-0.474695
H165	H	0.967756	0.838004	-0.390987
H166	H	1.046270	0.724440	-0.395083
C167	C	0.737393	0.538605	-0.159035
H168	H	0.705363	0.537490	-0.178796
H169	H	0.802357	0.467350	-0.193764
H170	H	0.734576	0.606505	-0.158180
H171	H	1.173199	1.003341	-0.396561
H172	H	-0.066620	1.099852	0.056933
H173	H	1.173261	0.196096	-0.396585
C174	C	0.575466	0.782489	-0.152076
H175	H	0.580775	0.729498	-0.187003
H176	H	0.605640	0.740445	-0.129752
H177	H	0.605653	0.812440	-0.182366
H178	H	0.284536	0.751831	-0.172355
H179	H	0.061864	1.089737	0.050280
H180	H	1.237557	0.200582	-0.535477
C181	C	0.297799	1.508843	0.490621
H182	H	0.250531	1.588650	0.531987
H183	H	0.348640	1.465012	0.493879
H184	H	0.270148	1.471211	0.497953
C185	C	0.297866	1.152327	0.490591
H186	H	0.329100	1.184835	0.483826
H187	H	0.309482	1.102292	0.517898
H188	H	0.230979	1.215853	0.521983
C189	C	0.169012	1.185331	0.113303
H190	H	0.130546	1.175712	0.106967
H191	H	0.155411	1.258674	0.111608
H192	H	0.155402	1.186676	0.164220
C193	C	0.446581	0.867832	0.169127
H194	H	0.415327	0.835351	0.175894
H195	H	0.513464	0.804305	0.137724
H196	H	0.434954	0.917889	0.141831
C197	C	0.223471	1.032383	0.478650
H198	H	0.207454	1.080914	0.525046
H199	H	0.246683	0.954952	0.477454
H200	H	0.168190	1.068529	0.481542
H201	H	0.325152	1.147806	0.088602
H202	H	1.173304	0.400187	-0.545845
H203	H	0.726993	0.553057	0.074832
C204	C	1.183350	0.445405	0.024749
H205	H	1.152082	0.527794	0.050878
H206	H	1.250229	0.402154	-0.014221
H207	H	1.171736	0.413897	0.064270
C208	C	0.901032	0.242640	-0.063689
H209	H	0.860805	0.237813	-0.017505
H210	H	0.921114	0.279827	-0.049169
H211	H	0.955474	0.164086	-0.106032
C212	C	0.740662	1.162505	-0.618856
H213	H	0.740691	1.153820	-0.574069
H214	H	0.685179	1.240505	-0.600655
H215	H	0.796192	1.151784	-0.659093
C216	C	0.297863	1.464333	-0.101855
H217	H	0.329102	1.381949	-0.127956
H218	H	0.309476	1.495821	-0.141384
H219	H	0.230977	1.507605	-0.062871
C220	C	1.183414	0.183139	-0.147982
H221	H	1.152185	0.191136	-0.170853
H222	H	1.171804	0.146453	-0.111874
H223	H	1.250300	0.134681	-0.190382
C224	C	0.739212	0.359689	-0.160302
H225	H	0.758930	0.393940	-0.195400
H226	H	0.696000	0.355744	-0.161927
H227	H	0.793569	0.281048	-0.177764
H228	H	0.612508	0.642724	0.093671
H229	H	0.886383	0.254561	-0.158440
C230	C	0.585301	0.485635	-0.021562
H231	H	0.542867	0.570737	-0.000729
H232	H	0.571498	0.462870	0.022436
H233	H	0.577429	0.452676	-0.054990
C234	C	0.446596	1.519278	0.169114
H235	H	0.415362	1.600208	0.175870
H236	H	0.434986	1.482771	0.141808
H237	H	0.513482	1.476572	0.137725
H238	H	0.886563	0.421499	-0.071755
C239	C	0.740603	0.747178	-0.458268
H240	H	0.740613	0.755829	-0.503076
H241	H	0.685102	0.757826	-0.418065
H242	H	0.796115	0.669205	-0.476464
H243	H	0.740598	0.824199	-0.750248
C244	C	0.223451	1.703077	-0.011631
H245	H	0.207438	1.680117	-0.041176
H246	H	0.246656	1.743451	-0.034854
H247	H	0.168169	1.755198	0.043644
H248	H	0.609817	0.485038	0.091020
H249	H	0.886607	0.414264	-0.159111
C250	C	0.446566	1.511383	0.063138
H251	H	0.493836	1.434070	0.054792
H252	H	0.395702	1.559724	0.119887
H253	H	0.474203	1.547950	0.041382
C254	C	0.446615	1.249137	-0.109592
H255	H	0.493871	1.189692	-0.106159
H256	H	0.474256	1.234405	-0.165133
H257	H	0.395756	1.246168	-0.086635
C258	C	0.297844	1.745078	0.317858
H259	H	0.329081	1.731146	0.262121
H260	H	0.309456	1.786280	0.341729
H261	H	0.230958	1.792458	0.345831
H262	H	0.436486	1.113701	0.340196
C263	C	0.740601	1.110233	-0.317253
H264	H	0.740590	1.158003	-0.346864
H265	H	0.796103	1.071381	-0.320254
H266	H	0.685090	1.160001	-0.261854
H267	H	0.611430	0.632801	-0.033784
H268	H	1.044757	0.595297	-0.417327
C269	C	0.732383	0.380662	0.088507
H270	H	0.784385	0.298649	0.050971
H271	H	0.685827	0.386194	0.136791
H272	H	0.754929	0.415134	0.101512
C273	C	0.740610	1.099655	-0.458273
H274	H	0.740624	1.151845	-0.428665
H275	H	0.685109	1.145501	-0.455273
H276	H	0.796122	1.056852	-0.513672
