data_functionalizedCrystal
_audit_creation_method	'MofGen! by Chris Wilmer'
_symmetry_space_group_name_H-M	'P1'
_symmetry_Int_Tables_number	1
_symmetry_cell_setting	triclinic
loop_
_symmetry_equiv_pos_as_xyz
  x,y,z
_cell_length_a	19.851628
_cell_length_b	14.560432
_cell_length_c	19.851628
_cell_angle_alpha	59.999092
_cell_angle_beta	89.998786
_cell_angle_gamma	59.988602
loop_
_atom_site_label
_atom_site_type_symbol
_atom_site_fract_x
_atom_site_fract_y
_atom_site_fract_z
Zr1	Zr	-0.088401	1.005254	0.648968
O2	O	-0.195995	1.196902	0.541402
O3	O	-0.055408	0.813630	0.681944
O4	O	-0.195964	1.005266	0.681946
O5	O	0.055423	1.005248	0.541398
O6	O	-0.195950	1.005248	0.792807
O7	O	-0.055439	1.005266	0.541400
O8	O	0.055478	0.662446	0.792805
O9	O	-0.196006	1.348051	0.541400
O10	O	-0.041339	0.892426	0.778741
O11	O	0.041386	0.892426	0.696004
O12	O	-0.124100	1.118053	0.696006
O13	O	-0.041375	1.118053	0.613269
Zr14	Zr	0.088432	1.005198	0.825775
Zr15	Zr	-0.088380	1.005226	0.825780
Zr16	Zr	0.088411	1.005226	0.648964
Zr17	Zr	-0.088419	1.246318	0.648965
Zr18	Zr	0.088450	0.764133	0.825778
O19	O	0.055439	1.196822	0.792799
O20	O	-0.195965	1.196862	0.792805
O21	O	0.055408	1.196862	0.541395
O22	O	0.196026	0.813549	0.933341
O23	O	-0.055377	0.813589	0.933348
O24	O	0.195996	0.813589	0.681938
O25	O	-0.055392	1.005203	0.933346
O26	O	0.195995	1.005186	0.792798
O27	O	0.195981	1.005203	0.681936
O28	O	0.055470	1.005186	0.933343
O29	O	-0.195989	1.348028	0.681942
O30	O	0.196020	0.662423	0.792801
O31	O	0.196037	0.662401	0.933343
O32	O	0.055495	0.662423	0.933347
O33	O	-0.055464	1.348028	0.541396
O34	O	-0.055447	1.348006	0.681938
O35	O	0.124131	0.892399	0.778737
O36	O	0.041406	0.892399	0.861474
O37	O	-0.041355	1.118026	0.778739
O38	O	0.041370	1.118026	0.696002
C39	C	0.000038	0.703691	0.737375
C40	C	0.000045	0.601353	0.737376
C41	C	-0.122190	0.575734	0.615208
C42	C	-0.183266	0.707115	0.554133
C43	C	-0.183241	0.803245	0.554138
C44	C	-0.122132	0.767986	0.615222
C45	C	-0.061056	0.636605	0.676297
C46	C	-0.061089	0.540482	0.676287
C47	C	0.061122	0.469972	0.798451
C48	C	0.061095	0.373840	0.798451
C49	C	0.122231	0.434713	0.859535
C50	C	0.183305	0.303330	0.920615
C51	C	0.183277	0.207197	0.920609
C52	C	0.122171	0.242458	0.859526
C53	C	-0.221149	1.005261	0.737377
C54	C	-0.296210	1.005273	0.737379
C55	C	-0.522680	1.128266	0.692256
C56	C	-0.545031	1.066762	0.770047
C57	C	-0.433617	1.005240	0.737376
C58	C	-0.545007	1.066751	0.659590
C59	C	-0.566349	1.005216	0.737367
C60	C	-0.454978	0.943735	0.815212
C61	C	-0.454958	0.943742	0.704700
C62	C	-0.477255	0.882149	0.782537
C63	C	-0.357155	1.005257	0.737381
C64	C	-0.642806	1.005190	0.737370
C65	C	0.221180	1.005190	0.737366
C66	C	0.296241	1.005178	0.737364
C67	C	-0.000011	1.005261	0.516207
C68	C	-0.000021	1.005273	0.441146
C69	C	-0.000007	1.306760	0.737368
C70	C	-0.000014	1.409098	0.737367
C71	C	-0.045118	1.128266	0.214690
C72	C	-0.077804	1.066780	0.192330
C73	C	0.000003	1.005240	0.303739
C74	C	0.032674	1.066733	0.192358
C75	C	0.000026	1.005216	0.171007
C76	C	-0.032728	0.943753	0.282368
C77	C	0.077793	0.943724	0.282394
C78	C	0.045126	0.882149	0.260087
C79	C	-0.000012	1.005257	0.380201
C80	C	0.000039	1.005190	0.094550
C81	C	0.000042	1.005190	0.958536
C82	C	0.000052	1.005178	1.033597
C83	C	0.000065	0.703656	0.958540
C84	C	0.000081	0.601306	1.033602
C85	C	0.221202	0.703656	0.737369
C86	C	0.296271	0.601306	0.737369
C87	C	0.221229	0.703620	0.958534
C88	C	0.296307	0.601258	1.033594
C89	C	-0.221198	1.306831	0.516209
C90	C	-0.296276	1.409193	0.441149
C91	C	-0.000034	1.306796	0.516204
C92	C	-0.000050	1.409146	0.441141
C93	C	-0.221171	1.306796	0.737374
C94	C	-0.296240	1.409146	0.737375
C95	C	-0.043110	0.553255	1.025666
C96	C	-0.043111	0.457099	1.096189
C97	C	0.000085	0.408990	1.174646
C98	C	0.043278	0.457050	1.182580
C99	C	0.043273	0.553211	1.112058
C100	C	0.374724	0.553227	0.780554
C101	C	0.445265	0.457072	0.780550
C102	C	0.437353	0.408990	0.737365
C103	C	0.358892	0.457078	0.694175
C104	C	0.288352	0.553238	0.694174
C105	C	0.288383	0.553188	1.112039
C106	C	0.358920	0.457021	1.182573
C107	C	0.437380	0.408920	1.174661
C108	C	0.445303	0.457000	1.096208
C109	C	0.374767	0.553171	1.025676
C110	C	-0.288352	1.457275	0.362704
C111	C	-0.358889	1.553472	0.292170
C112	C	-0.437349	1.601578	0.300082
C113	C	-0.445272	1.553492	0.378535
C114	C	-0.374736	1.457304	0.449067
C115	C	0.043134	1.457207	0.449077
C116	C	0.043115	1.553389	0.378555
C117	C	-0.000083	1.601502	0.300097
C118	C	-0.043273	1.553437	0.292163
C119	C	-0.043258	1.457263	0.362685
C120	C	-0.288301	1.457197	0.780568
C121	C	-0.358829	1.553353	0.780585
C122	C	-0.437296	1.601463	0.737403
C123	C	-0.445233	1.553402	0.694208
C124	C	-0.374706	1.457241	0.694197
H125	H	-0.232966	0.910223	0.504396
H126	H	-0.494717	1.679763	0.737419
H127	H	0.060295	1.118746	0.153556
O128	O	-0.000074	1.705217	0.224047
H129	H	-0.064387	1.792875	0.186799
H130	H	0.233059	0.274636	0.970342
H131	H	0.224503	0.592338	1.118497
O132	O	-0.089836	1.405430	0.354114
H133	H	-0.082580	1.330476	0.416327
H134	H	-0.224416	1.418041	0.815731
O135	O	-0.529859	1.605276	0.647632
H136	H	-0.564070	1.711359	0.599896
H137	H	-0.381181	1.418129	0.659020
H138	H	0.224475	0.592371	0.659010
O139	O	-0.350254	1.605174	0.827176
H140	H	-0.380339	1.711261	0.783583
H141	H	0.122249	0.512993	0.859532
O142	O	0.089718	1.405350	0.533691
H143	H	0.156098	1.361553	0.540865
O144	O	-0.089692	0.405263	1.087623
H145	H	-0.119713	0.454859	1.021218
O146	O	-0.203735	1.405412	0.354151
H147	H	-0.169528	1.299335	0.384201
H148	H	0.083284	0.778039	0.278694
O149	O	-0.089712	0.605147	0.941049
H150	H	-0.119752	0.555581	0.947392
O151	O	0.000091	0.305270	1.250708
H152	H	0.027123	0.217654	1.250655
O153	O	-0.122217	0.472042	0.615217
H154	H	-0.116303	0.482626	0.556562
O155	O	-0.249185	0.745147	0.488259
H156	H	-0.238952	0.656234	0.498520
O157	O	-0.122108	0.871664	0.615238
H158	H	-0.174849	0.968944	0.562512
O159	O	0.089716	1.605195	0.387126
H160	H	0.046116	1.711273	0.357083
H161	H	0.509194	0.417822	1.089778
O162	O	0.249158	0.065495	0.986485
H163	H	0.238880	0.004567	0.976221
O164	O	0.089875	0.405146	1.267203
H165	H	0.082625	0.330196	1.314901
O166	O	-0.452599	0.744248	0.833142
H167	H	-0.477245	0.727578	0.793374
H168	H	0.122136	0.164195	0.859522
H169	H	-0.078444	1.592625	0.228274
H170	H	-0.541143	1.232290	0.654168
O171	O	0.089878	0.605009	1.120624
H172	H	0.064933	0.648802	1.154880
O173	O	-0.596453	1.135625	0.806652
H174	H	-0.566228	1.170766	0.824341
O175	O	-0.403754	0.874993	0.902382
H176	H	-0.348075	0.875621	0.901696
O177	O	0.513452	0.305177	1.250743
H178	H	0.569347	0.279798	1.232069
O179	O	-0.403537	0.874933	0.668072
H180	H	-0.440300	0.926220	0.603474
H181	H	-0.583818	1.118778	0.593812
H182	H	-0.143581	1.118783	0.153521
O183	O	-0.095724	1.266051	0.190259
H184	H	-0.160275	1.316828	0.153639
O185	O	0.513438	0.305269	0.737372
H186	H	0.513403	0.217646	0.764395
O187	O	-0.069429	0.874953	0.333610
H188	H	-0.069183	0.875552	0.389300
H189	H	0.143555	0.891766	0.321200
O190	O	0.383268	0.605082	0.827131
H191	H	0.449677	0.555494	0.857148
H192	H	0.509145	0.417930	0.815724
O193	O	0.350362	0.405178	0.647625
H194	H	0.412598	0.330214	0.654903
O195	O	0.350366	0.405159	1.267184
H196	H	0.283957	0.454750	1.260829
H197	H	0.381230	0.592298	0.961805
O198	O	-0.350335	1.605303	0.207559
H199	H	-0.283926	1.555663	0.213914
O200	O	-0.513426	1.705339	0.224005
H201	H	-0.494726	1.730681	0.168131
H202	H	-0.509162	1.592673	0.384968
H203	H	-0.381197	1.418156	0.512939
