data_functionalizedCrystal
_audit_creation_method	'MofGen! by Chris Wilmer'
_symmetry_space_group_name_H-M	'P1'
_symmetry_Int_Tables_number	1
_symmetry_cell_setting	triclinic
loop_
_symmetry_equiv_pos_as_xyz
  x,y,z
_cell_length_a	8.559649
_cell_length_b	14.853567
_cell_length_c	7.088929
_cell_angle_alpha	83.771294
_cell_angle_beta	95.325015
_cell_angle_gamma	76.706797
loop_
_atom_site_label
_atom_site_type_symbol
_atom_site_fract_x
_atom_site_fract_y
_atom_site_fract_z
O1	O	2.103683	-0.020180	-0.158959
O2	O	1.638582	0.026373	-0.158964
O3	O	1.883556	-0.129002	-0.158967
O4	O	1.858710	0.135195	-0.158956
O5	O	1.916294	-0.149808	0.159008
O6	O	1.671320	0.005566	0.159011
O7	O	2.136422	-0.040986	0.159016
Cu8	Cu	1.906860	-0.019609	0.188047
Cu9	Cu	1.868144	0.004996	-0.187995
O10	O	1.891448	0.114389	0.159019
C11	C	1.595429	0.019497	0.000023
C12	C	1.418072	0.029999	0.000021
C13	C	1.898798	-0.172915	0.000015
C14	C	1.895423	-0.272761	-0.000002
C15	C	1.735645	-0.674122	0.000033
C16	C	2.026680	-0.715759	0.000036
C17	C	2.029851	-0.621946	0.000024
C18	C	1.885917	-0.554217	0.000020
C19	C	1.738813	-0.580300	0.000028
C20	C	2.176955	-0.595857	0.000037
C21	C	2.180133	-0.502039	0.000027
C22	C	2.036196	-0.434307	0.000010
C23	C	1.889085	-0.460395	0.000015
C24	C	1.745151	-0.392666	0.000011
C25	C	1.598037	-0.418751	0.000002
C26	C	1.594876	-0.512568	0.000010
C27	C	2.039357	-0.340490	0.000002
C28	C	1.748318	-0.298844	0.000005
C29	C	2.179574	-0.034110	0.000025
C30	C	2.356930	-0.044611	0.000015
C31	C	1.876205	0.158302	0.000033
C32	C	1.879579	0.258149	0.000037
N33	N	1.934103	-0.036917	0.452535
N34	N	1.840913	0.022296	-0.452483
H35	H	1.440266	-0.116520	0.000002
C36	C	2.335279	-0.670353	0.000050
C37	C	2.438777	-0.663828	-0.165053
C38	C	2.597109	-0.738329	-0.165042
C39	C	2.651944	-0.819355	0.000073
C40	C	2.548444	-0.825884	0.165188
C41	C	2.390112	-0.751383	0.165177
H42	H	2.398187	-0.603845	-0.287292
H43	H	2.673726	-0.733495	-0.287272
H44	H	2.769151	-0.874505	0.000082
H45	H	2.589034	-0.885867	0.287427
H46	H	2.313495	-0.756216	0.287407
C47	C	2.064597	-0.119817	0.562828
C48	C	2.058646	-0.220470	0.535490
C49	C	2.189137	-0.303368	0.645783
C50	C	2.325579	-0.285614	0.783413
C51	C	2.331535	-0.184957	0.810757
C52	C	2.201044	-0.102058	0.700464
H53	H	1.957639	-0.233617	0.433602
H54	H	2.184727	-0.377881	0.625540
H55	H	2.422176	-0.346980	0.865059
H56	H	2.432542	-0.171810	0.912645
H57	H	2.205454	-0.027545	0.720707
H58	H	1.631107	-0.243703	-0.000006
H59	H	1.334725	0.101914	0.000013
H60	H	1.744333	0.083658	0.465873
H61	H	1.480848	-0.363595	0.000012
H62	H	1.475103	-0.533816	0.000005
H63	H	1.615868	-0.695364	0.000018
H64	H	2.143866	-0.770910	0.000054
H65	H	2.299921	-0.480810	0.000032
H66	H	2.159136	-0.319257	0.000022
