data_functionalizedCrystal
_audit_creation_method	'MofGen! by Chris Wilmer'
_symmetry_space_group_name_H-M	'P1'
_symmetry_Int_Tables_number	1
_symmetry_cell_setting	triclinic
loop_
_symmetry_equiv_pos_as_xyz
  x,y,z
_cell_length_a	16.120530
_cell_length_b	16.120484
_cell_length_c	12.759393
_cell_angle_alpha	92.864008
_cell_angle_beta	87.079999
_cell_angle_gamma	90.167327
loop_
_atom_site_label
_atom_site_type_symbol
_atom_site_fract_x
_atom_site_fract_y
_atom_site_fract_z
Zn1	Zn	1.254505	-0.395558	-0.699367
Zn2	Zn	1.754505	0.104442	-0.199367
Zn3	Zn	1.247340	-0.534629	-0.532099
Zn4	Zn	1.747340	-0.034629	-0.032099
Zn5	Zn	1.115436	-0.388538	-0.514373
Zn6	Zn	1.615436	0.111462	-0.014373
Zn7	Zn	1.108357	-0.527511	-0.698406
Zn8	Zn	1.608357	-0.027511	-0.198406
O9	O	1.181409	-0.461559	-0.611061
O10	O	1.681409	0.038441	-0.111061
O11	O	1.369920	-0.419923	-0.685000
O12	O	1.869920	0.080077	-0.185000
O13	O	1.229807	-0.515291	-0.382727
O14	O	1.729807	-0.015291	0.117273
O15	O	1.139845	-0.273106	-0.531897
O16	O	1.639845	0.226894	-0.031897
O17	O	1.364657	-0.522098	-0.562108
O18	O	1.864657	-0.022098	-0.062108
O19	O	1.242018	-0.278264	-0.667811
O20	O	1.742018	0.221736	-0.167811
O21	O	1.132898	-0.407958	-0.369704
O22	O	1.632898	0.092042	0.130296
O23	O	0.998131	-0.401056	-0.530965
O24	O	1.498131	0.098944	-0.030965
O25	O	1.127779	-0.509966	-0.845554
O26	O	1.627779	-0.009966	-0.345554
O27	O	0.992930	-0.503159	-0.666173
O28	O	1.492930	-0.003159	-0.166173
O29	O	1.235153	-0.413021	-0.846261
O30	O	1.735153	0.086979	-0.346261
O31	O	1.222943	-0.650048	-0.561176
O32	O	1.722943	-0.150048	-0.061176
O33	O	1.120832	-0.644818	-0.683361
O34	O	1.620832	-0.144818	-0.183361
C35	C	0.965358	-0.450574	-0.596542
C36	C	1.465358	0.049426	-0.096542
C37	C	0.872929	-0.445895	-0.590356
C38	C	1.372929	0.054105	-0.090356
C39	C	1.170365	-0.677606	-0.624112
C40	C	1.670365	-0.177606	-0.124112
C41	C	1.165716	-0.770035	-0.629736
C42	C	1.665716	-0.270035	-0.129736
C43	C	0.703702	-0.437332	-0.579071
C44	C	1.203702	0.062668	-0.079071
C45	C	0.659954	-0.485848	-0.643132
C46	C	1.159954	0.014152	-0.143132
C47	C	0.565790	-0.481083	-0.636853
C48	C	1.065790	0.018917	-0.136853
C49	C	0.797874	-0.442095	-0.585349
C50	C	1.297874	0.057905	-0.085349
C51	C	1.157233	-0.939265	-0.640025
C52	C	1.657233	-0.439265	-0.140025
C53	C	1.205735	-0.983020	-0.582125
C54	C	1.705735	-0.483020	-0.082125
C55	C	1.201015	-1.077185	-0.587850
C56	C	1.701015	-0.577185	-0.087850
C57	C	1.161952	-0.845091	-0.634301
C58	C	1.661952	-0.345091	-0.134301
C59	C	1.398304	-0.472588	-0.625638
C60	C	1.898304	0.027412	-0.125638
C61	C	1.490732	-0.477287	-0.631850
C62	C	1.990732	0.022713	-0.131850
C63	C	1.181476	-0.461482	-0.885094
C64	C	1.681476	0.038518	-0.385094
C65	C	1.181504	-0.461450	-1.001871
C66	C	1.681504	0.038550	-0.501871
C67	C	1.192520	-0.244670	-0.597984
C68	C	1.692520	0.255330	-0.097984
C69	C	1.197255	-0.152245	-0.592411
C70	C	1.697255	0.347755	-0.092411
C71	C	1.237418	-0.410962	-1.057102
C72	C	1.737418	0.089038	-0.557102
C73	C	1.237434	-0.410927	-1.166825
C74	C	1.737434	0.089073	-0.666825
C75	C	1.125619	-0.511874	-1.166076
C76	C	1.625619	-0.011874	-0.666076
C77	C	1.125600	-0.511904	-1.056354
C78	C	1.625600	-0.011904	-0.556354
C79	C	1.181394	-0.461578	-0.338094
C80	C	1.681394	0.038422	0.161906
C81	C	1.181539	-0.461384	-0.221315
C82	C	1.681539	0.038616	0.278685
H83	H	0.693221	-0.530960	-0.702694
H84	H	1.193221	-0.030960	-0.202694
H85	H	0.670437	-0.392222	-0.519514
H86	H	1.170437	0.107778	-0.019514
O87	O	1.259381	-0.943305	-0.517727
O88	O	1.759381	-0.443305	-0.017727
C89	C	1.214523	-0.890732	-0.443673
C90	C	1.714523	-0.390732	0.056327
H91	H	1.147740	-0.913713	-0.434296
H92	H	1.647740	-0.413713	0.065704
H93	H	1.244676	-0.891198	-0.364805
H94	H	1.744676	-0.391198	0.135195
H95	H	1.214880	-0.824776	-0.472035
H96	H	1.714880	-0.324776	0.027965
O97	O	1.071243	-0.560913	-1.218838
O98	O	1.571243	-0.060913	-0.718838
C99	C	1.021901	-0.605497	-1.146559
C100	C	1.521901	-0.105497	-0.646559
H101	H	1.020750	-0.571310	-1.066100
H102	H	1.520750	-0.071310	-0.566100
H103	H	0.955935	-0.611029	-1.174388
H104	H	1.455935	-0.111029	-0.674388
H105	H	1.049116	-0.670201	-1.140743
H106	H	1.549116	-0.170201	-0.640743
H107	H	1.080062	-0.553017	-1.011384
H108	H	1.580062	-0.053017	-0.511384
H109	H	1.112167	-0.972524	-0.693889
H110	H	1.612167	-0.472524	-0.193889
O111	O	1.291746	-0.361870	-1.004334
O112	O	1.791746	0.138130	-0.504334
C113	C	1.341113	-0.317315	-1.076618
C114	C	1.841113	0.182685	-0.576618
H115	H	1.307213	-0.312684	-1.152365
H116	H	1.807213	0.187316	-0.652365
H117	H	1.353334	-0.252258	-1.041566
H118	H	1.853334	0.247742	-0.541566
H119	H	1.402711	-0.350973	-1.094375
H120	H	1.902711	0.149027	-0.594375
H121	H	1.282964	-0.369813	-1.211789
H122	H	1.782964	0.130187	-0.711789
