data_functionalizedCrystal
_audit_creation_method	'MofGen! by Chris Wilmer'
_symmetry_space_group_name_H-M	'P1'
_symmetry_Int_Tables_number	1
_symmetry_cell_setting	triclinic
loop_
_symmetry_equiv_pos_as_xyz
  x,y,z
_cell_length_a	16.109302
_cell_length_b	15.995292
_cell_length_c	14.586319
_cell_angle_alpha	89.999401
_cell_angle_beta	89.994552
_cell_angle_gamma	83.465199
loop_
_atom_site_label
_atom_site_type_symbol
_atom_site_fract_x
_atom_site_fract_y
_atom_site_fract_z
O1	O	1.103137	0.107630	-0.076275
O2	O	1.603137	0.607630	0.423725
O3	O	0.861076	0.121023	-0.076267
O4	O	1.361076	0.621023	0.423733
O5	O	0.988749	-0.007566	-0.076273
O6	O	1.488749	0.492434	0.423727
O7	O	0.975465	0.236219	-0.076269
O8	O	1.475465	0.736219	0.423731
O9	O	0.988740	-0.007568	0.076208
O10	O	1.488740	0.492432	0.576208
O11	O	0.861067	0.121021	0.076214
O12	O	1.361067	0.621021	0.576214
O13	O	1.103128	0.107628	0.076206
O14	O	1.603128	0.607628	0.576206
Cu15	Cu	0.982097	0.114325	0.090133
Cu16	Cu	1.482097	0.614325	0.590133
Cu17	Cu	0.982107	0.114327	-0.090194
Cu18	Cu	1.482107	0.614327	0.409806
O19	O	0.975456	0.236218	0.076211
O20	O	1.475456	0.736218	0.576211
C21	C	0.830097	0.120480	-0.000026
C22	C	1.330097	0.620480	0.499974
C23	C	0.737801	0.118853	-0.000023
C24	C	1.237801	0.618853	0.499977
C25	C	0.525455	0.115090	0.083085
C26	C	1.025455	0.615090	0.583085
C27	C	0.438735	0.113552	0.083082
C28	C	0.938735	0.613552	0.583082
C29	C	0.438755	0.113559	-0.083161
C30	C	0.938755	0.613559	0.416839
C31	C	0.525475	0.115090	-0.083157
C32	C	1.025475	0.615090	0.416843
C33	C	0.568822	0.115860	-0.000031
C34	C	1.068822	0.615860	0.499969
C35	C	0.395382	0.112791	-0.000038
C36	C	0.895382	0.612791	0.499962
C37	C	0.301357	0.111124	-0.000042
C38	C	0.801357	0.611124	0.499958
C39	C	0.662854	0.117526	-0.000026
C40	C	1.162854	0.617526	0.499974
C41	C	0.988204	-0.038763	-0.000034
C42	C	1.488204	0.461237	0.499966
C43	C	0.986583	-0.131715	-0.000041
C44	C	1.486583	0.368285	0.499959
C45	C	0.980624	-0.469452	-0.000033
C46	C	1.480624	0.030548	0.499967
C47	C	1.072774	-0.446164	0.000305
C48	C	1.572774	0.053836	0.500305
C49	C	1.074526	-0.349489	-0.000042
C50	C	1.574526	0.150511	0.499958
C51	C	0.983581	-0.301897	-0.000036
C52	C	1.483581	0.198103	0.499964
C53	C	0.937515	-0.330984	-0.087106
C54	C	1.437515	0.169016	0.412894
C55	C	0.936405	-0.427774	-0.087176
C56	C	1.436405	0.072226	0.412824
C57	C	0.934513	-0.427633	0.086224
C58	C	1.434513	0.072367	0.586224
C59	C	0.937928	-0.331142	0.087371
C60	C	1.437928	0.168858	0.587371
C61	C	0.985247	-0.207201	-0.000042
C62	C	1.485247	0.292799	0.499958
C63	C	0.978955	-0.564147	-0.000034
C64	C	1.478955	-0.064147	0.499966
C65	C	1.134108	0.108172	-0.000037
C66	C	1.634108	0.608172	0.499963
C67	C	1.226403	0.109799	-0.000046
C68	C	1.726403	0.609799	0.499954
C69	C	0.976001	0.267414	-0.000029
C70	C	1.476001	0.767414	0.499971
C71	C	0.977622	0.360366	-0.000028
C72	C	1.477622	0.860366	0.499972
N73	N	0.982096	0.114322	0.216964
N74	N	1.482096	0.614322	0.716964
N75	N	0.982115	0.114322	-0.217025
N76	N	1.482115	0.614322	0.282975
C77	C	1.038648	0.057402	0.451968
C78	C	1.538648	0.557402	0.951968
C79	C	1.038650	0.057400	0.547950
C80	C	1.538650	0.557400	1.047950
C81	C	0.925557	0.171245	0.547964
C82	C	1.425557	0.671245	1.047964
C83	C	0.925551	0.171243	0.451984
C84	C	1.425551	0.671243	0.951984
C85	C	0.982101	0.114322	0.403989
C86	C	1.482101	0.614322	0.903989
C87	C	0.982110	0.114323	0.595950
C88	C	1.482110	0.614323	1.095950
C89	C	0.982112	0.114321	0.700017
C90	C	1.482112	0.614321	1.200017
C91	C	0.982098	0.114323	0.299915
C92	C	1.482098	0.614323	0.799915
H93	H	0.403430	0.112926	0.150764
H94	H	0.903430	0.612926	0.650764
H95	H	0.560785	0.115715	-0.150844
H96	H	1.060785	0.615715	0.349156
C97	C	1.100854	-0.005209	0.600723
C98	C	1.600854	0.494791	1.100723
H99	H	1.134534	-0.039102	0.558389
H100	H	1.634534	0.460898	1.058389
H101	H	1.070961	-0.040075	0.638171
H102	H	1.570961	0.459925	1.138171
H103	H	1.135458	0.024930	0.638156
H104	H	1.635458	0.524930	1.138156
C105	C	0.847110	-0.287906	-0.091485
C106	C	1.347110	0.212094	0.408515
H107	H	0.836633	-0.251708	-0.040131
H108	H	1.336633	0.248292	0.459869
H109	H	0.809430	-0.329467	-0.090675
H110	H	1.309430	0.170533	0.409325
H111	H	0.839500	-0.255949	-0.146350
H112	H	1.339500	0.244051	0.353650
H113	H	0.403451	0.112933	-0.150839
H114	H	0.903451	0.612933	0.349161
C115	C	0.848250	-0.286589	0.094486
C116	C	1.348250	0.213411	0.594486
H117	H	0.822193	-0.305449	0.147882
H118	H	1.322193	0.194551	0.647882
H119	H	0.817343	-0.299326	0.041834
H120	H	1.317343	0.200674	0.541834
H121	H	0.849888	-0.227500	0.098143
H122	H	1.349888	0.272500	0.598143
C123	C	0.842883	-0.446506	0.087026
C124	C	1.342883	0.053494	0.587026
H125	H	0.832743	-0.479707	0.035081
H126	H	1.332743	0.020293	0.535081
H127	H	0.806959	-0.395146	0.085115
H128	H	1.306959	0.104854	0.585115
H129	H	0.832425	-0.476328	0.141369
H130	H	1.332425	0.023672	0.641369
C131	C	0.863349	0.233860	0.399204
C132	C	1.363349	0.733860	0.899204
H133	H	0.829679	0.267768	0.441533
H134	H	1.329679	0.767768	0.941533
H135	H	0.828748	0.203727	0.361769
H136	H	1.328748	0.703727	0.861769
H137	H	0.893253	0.268724	0.361756
H138	H	1.393253	0.768724	0.861756
C139	C	0.573138	0.115912	0.174519
C140	C	1.073138	0.615912	0.674519
H141	H	0.534889	0.115221	0.224019
H142	H	1.034889	0.615221	0.724019
H143	H	0.600622	0.165304	0.177994
H144	H	1.100622	0.665304	0.677994
H145	H	0.613312	0.067699	0.177960
H146	H	1.113312	0.567699	0.677960
C147	C	1.123273	-0.323799	0.084263
C148	C	1.623273	0.176201	0.584263
H149	H	1.142185	-0.372489	0.119031
H150	H	1.642185	0.127511	0.619031
H151	H	1.087797	-0.285995	0.121108
H152	H	1.587797	0.214005	0.621108
H153	H	1.169931	-0.297078	0.064655
H154	H	1.669931	0.202922	0.564655
H155	H	1.110824	-0.331094	-0.062568
H156	H	1.610824	0.168906	0.437432
C157	C	0.863365	0.233860	0.600762
C158	C	1.363365	0.733860	1.100762
H159	H	0.871472	0.225717	0.664796
H160	H	1.371472	0.725717	1.164796
H161	H	0.807880	0.224754	0.585045
H162	H	1.307880	0.724754	1.085045
H163	H	0.872389	0.289748	0.585025
H164	H	1.372389	0.789748	1.085025
H165	H	1.108290	-0.474172	0.062746
H166	H	1.608290	0.025828	0.562746
H167	H	1.084693	0.011053	0.412893
H168	H	1.584693	0.511053	0.912893
H169	H	1.108100	-0.475191	-0.061788
H170	H	1.608100	0.024809	0.438212
H171	H	0.968316	-0.454599	-0.152266
H172	H	1.468316	0.045401	0.347734
H173	H	0.868840	-0.442306	-0.091116
H174	H	1.368840	0.057694	0.408884
H175	H	0.969511	-0.310932	-0.151907
H176	H	1.469511	0.189068	0.348093
C177	C	0.973504	-0.465813	0.175379
C178	C	1.473504	0.034187	0.675379
H179	H	1.018275	-0.507619	0.160827
H180	H	1.518275	-0.007619	0.660827
H181	H	0.932330	-0.490565	0.209380
H182	H	1.432330	0.009435	0.709380
H183	H	0.993983	-0.422808	0.210922
H184	H	1.493983	0.077192	0.710922
H185	H	0.971471	-0.312586	0.151784
H186	H	1.471471	0.187414	0.651784
