data_functionalizedCrystal
_audit_creation_method	'MofGen! by Chris Wilmer'
_symmetry_space_group_name_H-M	'P1'
_symmetry_Int_Tables_number	1
_symmetry_cell_setting	triclinic
loop_
_symmetry_equiv_pos_as_xyz
  x,y,z
_cell_length_a	15.072220
_cell_length_b	15.995350
_cell_length_c	15.995350
_cell_angle_alpha	83.492375
_cell_angle_beta	89.998899
_cell_angle_gamma	90.008851
loop_
_atom_site_label
_atom_site_type_symbol
_atom_site_fract_x
_atom_site_fract_y
_atom_site_fract_z
O1	O	-0.073703	-1.110996	-0.107921
O2	O	-0.073721	-0.867221	-0.121249
O3	O	-0.073710	-0.995772	0.007303
O4	O	-0.073713	-0.982444	-0.236472
O5	O	0.073855	-0.995740	0.007296
O6	O	0.073844	-0.867189	-0.121256
O7	O	0.073862	-1.110964	-0.107928
Zn8	Zn	0.097283	-0.989071	-0.114593
Zn9	Zn	-0.097141	-0.989113	-0.114584
O10	O	0.073852	-0.982413	-0.236480
C11	C	0.000060	-0.836010	-0.120701
C12	C	0.000053	-0.743060	-0.119049
N13	N	0.229971	-0.989049	-0.114599
N14	N	-0.229830	-0.989142	-0.114571
C15	C	0.589173	-0.989112	-0.114580
C16	C	0.551560	-0.920095	-0.183135
C17	C	0.448735	-0.920254	-0.183385
C18	C	0.410969	-0.989080	-0.114590
C19	C	0.448266	-1.076445	-0.133671
C20	C	0.551124	-1.076058	-0.134159
C21	C	0.551272	-0.971542	-0.026741
C22	C	0.448409	-0.969537	-0.027327
C23	C	0.310255	-0.989067	-0.114593
C24	C	0.689886	-0.989130	-0.114579
C25	C	0.000070	-0.995205	0.038494
C26	C	0.000065	-0.993553	0.131444
C27	C	0.000080	-1.142175	-0.108476
C28	C	0.000081	-1.235125	-0.110127
C29	C	0.000071	-0.405312	-0.113117
C30	C	0.000401	-0.452746	-0.021565
C31	C	0.000063	-0.549436	-0.023217
C32	C	0.000063	-0.572873	-0.116060
C33	C	-0.084201	-0.531804	-0.161212
C34	C	-0.084266	-0.435168	-0.158912
C35	C	0.083543	-0.434793	-0.160812
C36	C	0.084651	-0.531738	-0.160790
C37	C	0.000055	-0.667570	-0.117727
C38	C	0.000073	-0.310614	-0.111452
C39	C	0.000069	-0.982980	-0.267671
C40	C	0.000069	-0.984631	-0.360621
C41	C	0.000068	-0.987621	0.469192
C42	C	-0.000270	-0.896069	0.421758
C43	C	0.000063	-0.897721	0.325068
C44	C	0.000066	-0.990564	0.301631
C45	C	0.084335	-1.035702	0.342705
C46	C	0.084405	-1.033402	0.439341
C47	C	-0.083404	-1.035330	0.439707
C48	C	-0.084518	-1.035308	0.342761
C49	C	0.000068	-0.992231	0.206934
C50	C	0.000072	-0.985956	0.563890
H51	H	0.423519	-0.855314	-0.172016
H52	H	0.424032	-0.905271	-0.012846
H53	H	0.088231	-1.100617	0.471588
H54	H	0.060568	-0.861974	0.297200
F55	F	0.416559	-0.934890	-0.268594
H56	H	-0.059694	-0.433165	0.014865
F57	F	0.414821	-1.030979	0.042479
H58	H	0.575595	-1.021872	0.024275
H59	H	0.577399	-0.931160	-0.247952
H60	H	0.422498	-1.092297	-0.197002
F61	F	0.166131	-0.567342	-0.117640
H62	H	0.423801	-1.129029	-0.085068
F63	F	0.583902	-0.834935	-0.168510
F64	F	-0.166012	-0.992504	0.306761
H65	H	0.147395	-1.000460	0.457639
H66	H	-0.147255	-0.416873	-0.125979
H67	H	0.575106	-1.091540	-0.198219
H68	H	0.576003	-1.129019	-0.086195
F69	F	0.079014	-0.586581	0.023175
F70	F	-0.084143	-1.123557	0.481221
F71	F	0.079387	-0.428516	0.026264
F72	F	-0.089265	-0.393015	-0.246766
H73	H	0.087471	-1.103910	0.328579
H74	H	0.147042	-1.004325	0.314320
F75	F	0.585212	-0.890067	-0.002771
H76	H	0.089741	-0.547102	-0.228494
F77	F	-0.079152	-0.585844	0.023306
H78	H	-0.089603	-1.103014	0.327400
F79	F	-0.088314	-0.550286	-0.250359
H80	H	-0.146912	-0.560191	-0.129845
F81	F	0.167027	-0.407938	-0.121693
F82	F	0.078055	-0.848312	0.447646
F83	F	0.084289	-0.393280	-0.249040
H84	H	-0.060344	-0.862238	0.296649
H85	H	-0.060701	-0.859490	0.440293
H86	H	-0.147274	-1.005411	0.460250
