data_functionalizedCrystal
_audit_creation_method	'MofGen! by Chris Wilmer'
_symmetry_space_group_name_H-M	'P1'
_symmetry_Int_Tables_number	1
_symmetry_cell_setting	triclinic
loop_
_symmetry_equiv_pos_as_xyz
  x,y,z
_cell_length_a	19.805407
_cell_length_b	29.839125
_cell_length_c	19.805405
_cell_angle_alpha	90.017444
_cell_angle_beta	89.976273
_cell_angle_gamma	89.988572
loop_
_atom_site_label
_atom_site_type_symbol
_atom_site_fract_x
_atom_site_fract_y
_atom_site_fract_z
Zn1	Zn	1.034693	-0.253999	0.269607
Zn2	Zn	1.034620	-0.178870	0.382771
Zn3	Zn	0.921520	-0.178883	0.269596
Zn4	Zn	0.921471	-0.253972	0.382754
O5	O	0.978076	-0.216431	0.326182
O6	O	1.129400	-0.244039	0.284630
O7	O	1.019608	-0.116004	0.367762
O8	O	0.936584	-0.188864	0.174881
O9	O	1.129347	-0.188842	0.367772
O10	O	1.019731	-0.244052	0.174889
O11	O	0.936513	-0.116014	0.284613
O12	O	0.826797	-0.188838	0.284595
O13	O	0.936500	-0.316843	0.367741
O14	O	0.826761	-0.244005	0.367731
O15	O	1.019684	-0.316863	0.284612
O16	O	1.019560	-0.188815	0.477486
O17	O	0.936430	-0.243992	0.477473
C18	C	0.802220	-0.216420	0.326161
C19	C	0.726988	-0.216426	0.326168
C20	C	0.691672	-0.245211	0.282953
C21	C	0.620984	-0.245213	0.282956
C22	C	0.585613	-0.216431	0.326179
C23	C	0.620933	-0.187643	0.369396
C24	C	0.691621	-0.187640	0.369389
C25	C	0.335860	-0.187657	0.369427
C26	C	0.265168	-0.187664	0.369432
C27	C	0.265224	-0.245230	0.282994
C28	C	0.335911	-0.245227	0.282987
C29	C	0.371225	-0.216437	0.326201
C30	C	0.447874	-0.216435	0.326196
C31	C	0.508966	-0.216436	0.326188
C32	C	0.978095	-0.333609	0.326176
C33	C	0.978102	-0.383544	0.326173
C34	C	1.021462	-0.693201	0.282775
C35	C	1.021495	-0.880874	0.282717
O36	O	1.058310	-0.905150	0.245882
N37	N	0.978192	-0.904329	0.325992
C38	C	0.934874	-0.880863	0.369281
O39	O	0.898038	-0.905119	0.406083
C40	C	0.934838	-0.693191	0.369335
C41	C	0.978149	-0.669738	0.326062
C42	C	1.064768	-0.669748	0.239505
C43	C	1.064762	-0.622833	0.239522
C44	C	1.021449	-0.599370	0.282810
C45	C	0.978142	-0.622823	0.326080
C46	C	0.891517	-0.669726	0.412621
C47	C	0.891511	-0.622805	0.412629
C48	C	0.934822	-0.599352	0.369356
C49	C	0.934823	-0.552444	0.369385
N50	N	0.978126	-0.528989	0.326110
C51	C	1.021439	-0.552452	0.282822
C52	C	0.934898	-0.979394	0.369251
C53	C	0.934907	-1.026312	0.369239
C54	C	1.021527	-1.026319	0.282673
C55	C	1.021521	-0.979400	0.282690
C56	C	0.978201	-0.955939	0.325976
C57	C	1.021423	-0.453926	0.282863
C58	C	1.021415	-0.407006	0.282886
C59	C	0.934793	-0.407003	0.369448
C60	C	0.934803	-0.453918	0.369428
C61	C	0.978121	-0.477379	0.326130
O62	O	0.898022	-0.528139	0.406195
O63	O	1.058259	-0.528188	0.246016
C64	C	1.021468	-0.740116	0.282757
C65	C	0.978161	-0.763569	0.326027
C66	C	0.934848	-0.740106	0.369315
C67	C	0.978171	-0.810487	0.326015
C68	C	1.021484	-0.833950	0.282728
C69	C	1.064787	-0.810494	0.239453
C70	C	1.064781	-0.763579	0.239470
C71	C	0.891545	-0.763561	0.412590
C72	C	0.891555	-0.810477	0.412569
C73	C	0.934868	-0.833940	0.369282
C74	C	1.154619	-0.216442	0.326204
C75	C	1.229851	-0.216447	0.326213
C76	C	0.978000	-0.216409	0.502038
C77	C	0.978029	-0.216415	0.577270
C78	C	0.978097	-0.099708	0.326139
C79	C	0.978220	-0.049774	0.325951
C80	C	0.978171	-0.216463	0.149639
C81	C	0.978212	-0.216476	0.074407
C82	C	1.021357	-0.187714	0.612599
C83	C	1.021386	-0.187724	0.683287
C84	C	0.978083	-0.216433	0.718646
C85	C	0.934753	-0.245137	0.683312
C86	C	0.934728	-0.245129	0.612625
C87	C	0.934853	-0.245170	0.968385
C88	C	0.934880	-0.245175	1.039077
C89	C	1.021511	-0.187765	1.039047
C90	C	1.021486	-0.187757	0.968360
C91	C	0.978159	-0.216463	0.933033
C92	C	0.978129	-0.216452	0.856385
C93	C	0.978109	-0.216441	0.795293
H94	H	0.236371	-0.164225	0.404631
H95	H	1.056668	-0.164353	0.712048
H96	H	0.592233	-0.268653	0.247767
H97	H	1.056792	-0.164394	1.067819
H98	H	0.899447	-0.268500	0.583861
H99	H	0.856226	-0.603704	0.447872
H100	H	1.100049	-0.744488	0.204232
H101	H	1.056694	-0.473022	0.247603
H102	H	0.364605	-0.164215	0.404615
H103	H	0.720467	-0.268649	0.247757
H104	H	0.899618	-0.268556	1.067865
H105	H	1.100056	-0.829606	0.204209
H106	H	0.899573	-0.268542	0.939627
H107	H	1.056617	-0.164334	0.583814
H108	H	0.364707	-0.268665	0.247793
H109	H	0.236462	-0.268671	0.247805
H110	H	0.899498	-0.268514	0.712107
H111	H	0.592128	-0.164207	0.404586
H112	H	1.056795	-1.045431	0.247427
H113	H	0.899647	-1.045403	0.404483
H114	H	0.899543	-0.473015	0.404671
H115	H	1.056745	-0.164379	0.939573
H116	H	0.720374	-0.164200	0.404579
H117	H	1.056687	-0.387913	0.247647
H118	H	0.899531	-0.387891	0.404694
H119	H	1.100029	-0.603742	0.204284
H120	H	1.100039	-0.688846	0.204251
H121	H	1.056787	-0.960308	0.247452
H122	H	0.899622	-0.960295	0.404504
H123	H	0.856249	-0.688813	0.447858
H124	H	0.856288	-0.829568	0.447814
H125	H	0.856275	-0.744463	0.447841
