data_functionalizedCrystal
_audit_creation_method	'MofGen! by Chris Wilmer'
_symmetry_space_group_name_H-M	'P1'
_symmetry_Int_Tables_number	1
_symmetry_cell_setting	triclinic
loop_
_symmetry_equiv_pos_as_xyz
  x,y,z
_cell_length_a	10.540539
_cell_length_b	13.339070
_cell_length_c	12.376897
_cell_angle_alpha	98.995044
_cell_angle_beta	77.434509
_cell_angle_gamma	79.922607
loop_
_atom_site_label
_atom_site_type_symbol
_atom_site_fract_x
_atom_site_fract_y
_atom_site_fract_z
O1	O	0.610090	-1.329388	0.094019
O2	O	0.526351	-1.034257	0.094015
O3	O	0.385809	-1.188556	0.094016
O4	O	0.750631	-1.175089	0.094018
O5	O	0.441584	-1.223543	-0.093982
O6	O	0.582126	-1.069243	-0.093983
O7	O	0.665864	-1.364375	-0.093979
Zn8	Zn	0.632850	-1.222364	-0.123829
Zn9	Zn	0.559365	-1.176268	0.123866
O10	O	0.806406	-1.210075	-0.093979
C11	C	0.540093	-1.013959	0.000016
C12	C	0.497930	-0.901353	0.000014
C13	C	0.366049	-1.205039	0.000019
C14	C	0.224069	-1.202016	0.000025
N15	N	0.683004	-1.253831	-0.292875
C16	C	0.001055	-1.086161	0.000445
C17	C	0.148842	-1.089302	0.000022
C18	C	0.212750	-1.276239	-0.107330
C19	C	0.064921	-1.272409	-0.107421
C20	C	0.001758	-1.234915	0.106368
C21	C	0.148673	-1.235689	0.107787
C22	C	0.826166	-1.193592	0.000020
C23	C	0.968143	-1.196613	0.000021
C24	C	0.652121	-1.384672	0.000023
C25	C	0.694282	-1.497277	0.000032
C26	C	0.825767	-0.538924	0.000035
C27	C	0.865384	-0.644722	0.000040
C28	C	0.773524	-0.708885	0.000033
C29	C	0.642040	-0.667239	0.000022
C30	C	0.602415	-0.561429	0.000026
C31	C	0.550173	-0.731390	0.000024
C32	C	0.418688	-0.689744	0.000014
C33	C	0.379071	-0.583945	0.000017
C34	C	0.470931	-0.519782	0.000024
C35	C	0.589797	-0.837200	0.000020
C36	C	0.366446	-0.859705	0.000012
C37	C	0.326828	-0.753907	0.000007
C38	C	0.392758	-1.071726	-0.647935
C39	C	0.357646	-1.049686	-0.529604
C40	C	0.438983	-1.100720	-0.470416
C41	C	0.555437	-1.173799	-0.529570
C42	C	0.590546	-1.195847	-0.647912
C43	C	0.636771	-1.224841	-0.470393
C44	C	0.753225	-1.297919	-0.529548
C45	C	0.788329	-1.319963	-0.647878
C46	C	0.706992	-1.268929	-0.707067
C47	C	0.601662	-1.202793	-0.352051
C48	C	0.799450	-1.326913	-0.352029
C49	C	0.834561	-1.348953	-0.470359
N50	N	0.509204	-1.144809	0.292911
H51	H	0.154067	-1.032299	0.076979
F52	F	0.428773	-0.407178	0.000015
F53	F	0.886018	-1.381235	-0.289043
H54	H	0.883145	-1.379477	-0.696039
F55	F	0.729728	-0.881511	0.000031
H56	H	0.900542	-0.486673	0.000050
F57	F	0.958499	-1.426726	-0.533330
F58	F	0.815693	-0.821485	0.000036
F59	F	0.233733	-0.971894	-0.466656
F60	F	0.214169	-1.051871	-0.100732
H61	H	-0.065562	-1.027309	0.077431
F62	F	0.214432	-1.341521	0.116270
H63	H	-0.021555	-1.056064	-0.076111
H64	H	0.046866	-1.247255	-0.187672
H65	H	0.972436	-0.678621	0.000057
F66	F	0.239124	-0.539619	0.000037
H67	H	0.735579	-1.286866	-0.803421
F68	F	0.040224	-1.379547	-0.113797
F69	F	0.306204	-1.017426	-0.710933
H70	H	0.264501	-1.359756	-0.111321
F71	F	0.186895	-0.709572	-0.000004
F72	F	0.282620	-1.246423	-0.211756
F73	F	0.477727	-1.125021	-0.289108
H74	H	-0.066369	-1.183292	0.187736
F75	F	0.154327	-1.164897	0.211609
F76	F	0.268671	-0.927985	0.000012
F77	F	-0.023981	-1.341150	0.107316
F78	F	0.401612	-1.077261	-0.344477
