data_functionalizedCrystal
_audit_creation_method	'MofGen! by Chris Wilmer'
_symmetry_space_group_name_H-M	'P1'
_symmetry_Int_Tables_number	1
_symmetry_cell_setting	triclinic
loop_
_symmetry_equiv_pos_as_xyz
  x,y,z
_cell_length_a	16.974755
_cell_length_b	15.944499
_cell_length_c	15.455313
_cell_angle_alpha	87.316496
_cell_angle_beta	89.009783
_cell_angle_gamma	83.432130
loop_
_atom_site_label
_atom_site_type_symbol
_atom_site_fract_x
_atom_site_fract_y
_atom_site_fract_z
O1	O	0.097993	1.118460	-0.079064
O2	O	0.110567	0.873933	-0.079938
O3	O	-0.010439	1.002611	-0.071440
O4	O	0.219000	0.989782	-0.087563
O5	O	-0.003548	0.995253	0.072339
O6	O	0.117458	0.866575	0.063840
O7	O	0.104885	1.111102	0.064714
Cu8	Cu	0.111801	0.988166	0.077405
Cu9	Cu	0.103651	0.996869	-0.092629
O10	O	0.225891	0.982424	0.056215
C11	C	0.113498	0.838958	-0.008011
C12	C	0.111955	0.745706	-0.007899
C13	C	0.182256	0.454332	-0.012852
C14	C	0.142314	0.518905	-0.081176
C15	C	0.106347	0.410057	-0.007525
C16	C	0.149087	0.511636	0.060580
C17	C	0.109107	0.574972	-0.007708
C18	C	0.066381	0.473406	-0.075906
C19	C	0.073169	0.466127	0.065913
C20	C	0.033170	0.530684	-0.002425
C21	C	0.104760	0.315054	-0.007421
C22	C	0.110688	0.669974	-0.007818
C23	C	-0.036353	0.998310	0.002511
C24	C	-0.123837	0.996447	0.008653
C25	C	-0.615866	0.985456	0.051606
C26	C	-0.533667	0.987214	0.045839
C27	C	-0.496316	0.992111	-0.035420
C28	C	-0.541167	0.995241	-0.110917
C29	C	-0.623364	0.993477	-0.105149
C30	C	-0.250885	0.997813	-0.061075
C31	C	-0.168683	0.999580	-0.066838
C32	C	-0.161188	0.991551	0.089919
C33	C	-0.243387	0.989792	0.095680
C34	C	-0.288231	0.992918	0.020183
N35	N	-0.412296	0.993911	-0.041317
N36	N	-0.372249	0.991112	0.026081
C37	C	0.251805	0.986725	-0.017737
C38	C	0.339288	0.988588	-0.023885
C39	C	0.101954	1.146077	-0.007215
C40	C	0.103496	1.239329	-0.007333
N41	N	0.117532	0.982052	0.196998
N42	N	0.097913	1.002990	-0.212222
C43	C	0.066143	1.036738	0.246001
C44	C	0.070485	1.032122	0.336504
C45	C	0.126220	0.972822	0.378002
C46	C	0.177611	0.918130	0.328992
C47	C	0.173265	0.922743	0.238491
C48	C	0.144958	0.952911	0.648268
C49	C	0.149302	0.948304	0.738775
C50	C	0.042175	1.062294	0.746281
C51	C	0.037837	1.066905	0.655777
C52	C	0.089225	1.012211	0.606776
N53	N	0.130661	0.968104	0.470510
N54	N	0.084780	1.016925	0.514269
H55	H	-0.029884	0.563718	0.001969
N56	N	-0.019028	1.127481	0.613291
N57	N	0.003683	1.182180	0.561005
H58	H	-0.036452	1.224966	0.530965
N59	N	0.192985	0.533050	0.132935
N60	N	0.223609	0.476150	0.184299
H61	H	0.254617	0.491269	0.235397
N62	N	-0.654003	0.980460	0.134618
N63	N	-0.613949	0.977661	0.202014
H64	H	-0.640880	0.974130	0.260645
H65	H	-0.497158	0.984676	0.107312
H66	H	-0.287388	1.000365	-0.122550
H67	H	0.031429	0.456424	-0.133653
H68	H	0.194691	0.900013	0.772558
N69	N	-0.130512	1.004584	-0.149838
N70	N	-0.092761	1.065621	-0.170027
H71	H	-0.065801	1.069157	-0.228641
N72	N	-0.010308	1.118154	0.796348
N73	N	-0.006423	1.114031	0.877151
H74	H	-0.043492	1.153482	0.912513
N75	N	0.036532	0.436956	0.143934
N76	N	0.065928	0.447517	0.215671
H77	H	0.040059	0.426913	0.270781
N78	N	-0.281527	0.984804	0.178691
N79	N	-0.241476	0.982016	0.246090
H80	H	-0.268413	0.978500	0.304719
N81	N	-0.503003	1.000232	-0.193915
N82	N	-0.429614	1.001807	-0.199056
H83	H	-0.402660	1.005333	-0.257675
H84	H	0.020761	1.085029	0.212220
H85	H	0.245249	0.421150	-0.017348
H86	H	-0.124667	0.989005	0.151384
H87	H	0.186802	0.908378	0.608377
N88	N	0.234533	0.857556	0.371393
N89	N	0.238407	0.853444	0.452197
H90	H	0.278610	0.810663	0.482142
N91	N	-0.669163	0.996670	-0.182270
N92	N	-0.635807	1.001040	-0.254818
H93	H	-0.668151	1.003292	-0.309288
H94	H	0.028640	1.076651	0.376402
N95	N	0.225760	0.866873	0.188446
N96	N	0.275520	0.813930	0.225506
H97	H	0.312595	0.774467	0.190163
H98	H	0.171550	0.542144	-0.143362
