data_functionalizedCrystal
_audit_creation_method	'MofGen! by Chris Wilmer'
_symmetry_space_group_name_H-M	'P1'
_symmetry_Int_Tables_number	1
_symmetry_cell_setting	triclinic
loop_
_symmetry_equiv_pos_as_xyz
  x,y,z
_cell_length_a	12.759401
_cell_length_b	16.625545
_cell_length_c	12.759393
_cell_angle_alpha	89.968435
_cell_angle_beta	90.018567
_cell_angle_gamma	89.974006
loop_
_atom_site_label
_atom_site_type_symbol
_atom_site_fract_x
_atom_site_fract_y
_atom_site_fract_z
Zn1	Zn	1.606166	0.320975	0.593983
Zn2	Zn	2.106166	0.820975	1.093983
Zn3	Zn	1.606023	0.455831	0.418303
Zn4	Zn	2.106023	0.955831	0.918303
Zn5	Zn	1.430468	0.321014	0.418322
Zn6	Zn	1.930468	0.821014	0.918322
Zn7	Zn	1.430419	0.455767	0.593945
Zn8	Zn	1.930419	0.955767	1.093945
O9	O	1.518269	0.388397	0.506138
O10	O	2.018269	0.888397	1.006138
O11	O	1.753168	0.338874	0.570687
O12	O	2.253168	0.838874	1.070687
O13	O	1.582696	0.437991	0.271285
O14	O	2.082696	0.937991	0.771285
O15	O	1.453855	0.208177	0.441648
O16	O	1.953855	0.708177	0.941648
O17	O	1.753063	0.437953	0.441616
O18	O	2.253063	0.937953	0.941616
O19	O	1.582940	0.208147	0.570706
O20	O	2.082940	0.708147	1.070706
O21	O	1.453716	0.338942	0.271299
O22	O	1.953716	0.838942	0.771299
O23	O	1.283440	0.338879	0.441611
O24	O	1.783440	0.838879	0.941611
O25	O	1.453772	0.437843	0.740971
O26	O	1.953772	0.937843	1.240971
O27	O	1.283404	0.437881	0.570640
O28	O	1.783404	0.937881	1.070640
O29	O	1.582892	0.338811	0.740999
O30	O	2.082892	0.838811	1.240999
O31	O	1.582648	0.568655	0.441578
O32	O	2.082648	1.068655	0.941578
O33	O	1.453633	0.568608	0.570621
O34	O	1.953633	1.068608	1.070621
C35	C	1.245302	0.388378	0.506124
C36	C	1.745302	0.888378	1.006124
C37	C	1.128525	0.388389	0.506143
C38	C	1.628525	0.888389	1.006143
C39	C	1.073711	0.336896	0.573454
C40	C	1.573711	0.836896	1.073454
C41	C	0.963987	0.336912	0.573461
C42	C	1.463987	0.836912	1.073461
C43	C	0.963901	0.439920	0.438841
C44	C	1.463901	0.939920	0.938841
C45	C	1.073623	0.439900	0.438830
C46	C	1.573623	0.939900	0.938830
C47	C	1.128613	0.285386	0.640766
C48	C	1.628613	0.785386	1.140766
C49	C	1.073799	0.233889	0.708084
C50	C	1.573799	0.733889	1.208084
C51	C	0.964075	0.233905	0.708091
C52	C	1.464075	0.733905	1.208091
C53	C	0.909165	0.285416	0.640780
C54	C	1.409165	0.785416	1.140780
C55	C	1.518148	0.597888	0.506117
C56	C	2.018148	1.097888	1.006117
C57	C	1.518193	0.687509	0.506142
C58	C	2.018193	1.187509	1.006142
C59	C	1.518231	0.760291	0.506167
C60	C	2.018231	1.260291	1.006167
C61	C	1.518289	0.851600	0.506195
C62	C	2.018289	1.351600	1.006195
C63	C	1.518342	0.924376	0.506212
C64	C	2.018342	1.424376	1.006212
C65	C	1.518399	1.015690	0.506239
C66	C	2.018399	1.515690	1.006239
C67	C	1.792302	0.388416	0.506154
C68	C	2.292302	0.888416	1.006154
C69	C	1.909079	0.388425	0.506160
C70	C	2.409079	0.888425	1.006160
C71	C	1.518342	0.388315	0.780172
C72	C	2.018342	0.888315	1.280172
C73	C	1.518374	0.388281	0.896949
C74	C	2.018374	0.888281	1.396949
C75	C	1.518411	1.178088	0.506197
C76	C	2.018411	1.678088	1.006197
C77	C	1.518451	1.088467	0.506256
C78	C	2.018451	1.588467	1.006256
C79	C	1.518256	0.388420	0.233171
C80	C	2.018256	0.888420	0.733171
C81	C	1.518428	0.388227	0.116395
C82	C	2.018428	0.888227	0.616395
C83	C	1.585616	0.336710	0.951827
C84	C	2.085616	0.836710	1.451827
C85	C	1.585641	0.336681	1.061551
C86	C	2.085641	0.836681	1.561551
C87	C	1.451179	0.439800	1.061509
C88	C	1.951179	0.939800	1.561509
C89	C	1.451149	0.439824	0.951787
C90	C	1.951149	0.939824	1.451787
C91	C	1.652841	0.285167	0.896989
C92	C	2.152841	0.785167	1.396989
C93	C	1.720090	0.233593	0.951868
C94	C	2.220090	0.733593	1.451868
C95	C	1.720115	0.233564	1.061592
C96	C	2.220115	0.733564	1.561592
C97	C	1.652891	0.285108	1.116438
C98	C	2.152891	0.785108	1.616438
H99	H	1.118254	0.481830	0.384019
H100	H	1.618254	0.981830	0.884019
C101	C	1.652921	0.285077	1.237132
C102	C	2.152921	0.785077	1.737132
H103	H	1.702600	0.246983	1.261963
H104	H	2.202600	0.746983	1.761963
H105	H	1.585140	0.271125	1.261957
H106	H	2.085140	0.771125	1.761957
H107	H	1.671066	0.337108	1.261934
H108	H	2.171066	0.837108	1.761934
C109	C	1.794082	0.176835	1.121956
C110	C	2.294082	0.676835	1.621956
H111	H	1.834116	0.146148	1.073579
H112	H	2.334116	0.646148	1.573579
H113	H	1.753935	0.141687	1.164768
H114	H	2.253935	0.641687	1.664768
H115	H	1.839848	0.207681	1.164750
H116	H	2.339848	0.707681	1.664750
H117	H	0.919184	0.481860	0.384042
H118	H	1.419184	0.981860	0.884042
H119	H	1.396448	0.481765	1.106173
H120	H	1.896448	0.981765	1.606173
C121	C	0.788471	0.285435	0.640790
C122	C	1.288471	0.785435	1.140790
H123	H	0.763687	0.247392	0.690523
H124	H	1.263687	0.747392	1.190523
H125	H	0.763620	0.271437	0.573027
H126	H	1.263620	0.771437	1.073027
H127	H	0.763646	0.337492	0.658853
H128	H	1.263646	0.837492	1.158853
C129	C	1.377225	0.496582	0.891416
C130	C	1.877225	0.996582	1.391416
H131	H	1.337215	0.527293	0.939788
H132	H	1.837215	1.027293	1.439788
H133	H	1.331449	0.465770	0.848601
H134	H	1.831449	0.965770	1.348601
H135	H	1.417421	0.531719	0.848625
H136	H	1.917421	1.031719	1.348625
H137	H	1.217956	0.285367	0.640768
H138	H	1.717956	0.785367	1.140768
C139	C	1.134194	0.177231	0.782119
C140	C	1.634194	0.677231	1.282119
H141	H	1.207392	0.184600	0.772484
H142	H	1.707392	0.684600	1.272484
H143	H	1.116226	0.123043	0.766872
H144	H	1.616226	0.623043	1.266872
H145	H	1.116233	0.189106	0.852687
H146	H	1.616233	0.689106	1.352687
H147	H	0.919448	0.191968	0.762897
H148	H	1.419448	0.691968	1.262897
C149	C	1.652813	0.285194	0.776297
C150	C	2.152813	0.785194	1.276297
H151	H	1.702472	0.247107	0.751495
H152	H	2.202472	0.747107	1.251495
H153	H	1.670928	0.337235	0.751460
H154	H	2.170928	0.837235	1.251460
H155	H	1.585015	0.271241	0.751477
H156	H	2.085015	0.771241	1.251477
H157	H	1.774814	0.191622	0.907205
H158	H	2.274814	0.691622	1.407205
