data_functionalizedCrystal
_audit_creation_method	'MofGen! by Chris Wilmer'
_symmetry_space_group_name_H-M	'P1'
_symmetry_Int_Tables_number	1
_symmetry_cell_setting	triclinic
loop_
_symmetry_equiv_pos_as_xyz
  x,y,z
_cell_length_a	14.971506
_cell_length_b	17.019294
_cell_length_c	13.448316
_cell_angle_alpha	86.114424
_cell_angle_beta	89.992937
_cell_angle_gamma	83.508029
loop_
_atom_site_label
_atom_site_type_symbol
_atom_site_fract_x
_atom_site_fract_y
_atom_site_fract_z
O1	O	1.186681	0.102877	-0.091506
O2	O	1.520014	0.436210	0.241827
O3	O	1.853347	0.769544	0.575160
O4	O	0.926252	0.115171	-0.092559
O5	O	1.259586	0.448504	0.240774
O6	O	1.592919	0.781837	0.574107
O7	O	1.063731	-0.005802	-0.082196
O8	O	1.397064	0.327531	0.251138
O9	O	1.730398	0.660865	0.584471
O10	O	1.049202	0.223849	-0.101870
O11	O	1.382535	0.557183	0.231463
O12	O	1.715868	0.890516	0.564797
O13	O	1.063714	-0.005809	0.083189
O14	O	1.397047	0.327524	0.416522
O15	O	1.730381	0.660857	0.749855
O16	O	0.926235	0.115163	0.072825
O17	O	1.259568	0.448497	0.406158
O18	O	1.592902	0.781830	0.739492
O19	O	1.186663	0.102869	0.073878
O20	O	1.519997	0.436203	0.407211
O21	O	1.853330	0.769536	0.740545
Cu22	Cu	1.056448	0.109016	0.088453
Cu23	Cu	1.389781	0.442349	0.421786
Cu24	Cu	1.723114	0.775682	0.755119
Cu25	Cu	1.056468	0.109024	-0.107134
Cu26	Cu	1.389801	0.442358	0.226200
Cu27	Cu	1.723135	0.775691	0.559533
O28	O	1.049184	0.223842	0.063515
O29	O	1.382518	0.557175	0.396848
O30	O	1.715851	0.890509	0.730181
C31	C	0.892921	0.114614	-0.009820
C32	C	1.226254	0.447948	0.323514
C33	C	1.559587	0.781281	0.656847
C34	C	0.793629	0.112958	-0.009678
C35	C	1.126962	0.446291	0.323655
C36	C	1.460295	0.779625	0.656989
C37	C	1.063171	-0.035195	0.003012
C38	C	1.396505	0.298138	0.336345
C39	C	1.729838	0.631471	0.669679
C40	C	1.061518	-0.122768	0.010508
C41	C	1.394852	0.210566	0.343841
C42	C	1.728185	0.543899	0.677175
C43	C	0.355185	0.177707	-0.015235
C44	C	0.688519	0.511040	0.318098
C45	C	1.021852	0.844374	0.651431
C46	C	0.448482	0.179257	-0.015372
C47	C	0.781815	0.512590	0.317961
C48	C	1.115148	0.845924	0.651294
C49	C	0.505878	0.108181	-0.009279
C50	C	0.839211	0.441514	0.324055
C51	C	1.172545	0.774848	0.657388
C52	C	0.469974	0.035550	-0.003058
C53	C	0.803307	0.368884	0.330275
C54	C	1.136641	0.702217	0.663609
C55	C	0.376679	0.034001	-0.002928
C56	C	0.710013	0.367334	0.330405
C57	C	1.043346	0.700668	0.663739
C58	C	0.664429	0.038784	-0.003327
C59	C	0.997762	0.372117	0.330007
C60	C	1.331096	0.705451	0.663340
C61	C	0.757730	0.040333	-0.003455
C62	C	1.091064	0.373666	0.329879
C63	C	1.424397	0.707000	0.663212
C64	C	0.736231	0.184040	-0.015771
C65	C	1.069565	0.517373	0.317562
C66	C	1.402898	0.850707	0.650896
C67	C	0.642937	0.182491	-0.015641
C68	C	0.976270	0.515824	0.317692
C69	C	1.309603	0.849158	0.651026
C70	C	0.607039	0.109860	-0.009418
C71	C	0.940372	0.443193	0.323915
C72	C	1.273706	0.776527	0.657248
C73	C	1.060753	-0.163901	-0.076121
C74	C	1.394086	0.169432	0.257213
C75	C	1.727420	0.502766	0.590546
C76	C	1.059194	-0.246184	-0.069074
C77	C	1.392527	0.087150	0.264259
C78	C	1.725861	0.420483	0.597592
C79	C	1.058407	-0.287333	0.024602
C80	C	1.391740	0.046001	0.357935
C81	C	1.725073	0.379334	0.691268
C82	C	1.059169	-0.246193	0.111237
C83	C	1.392503	0.087140	0.444570
C84	C	1.725836	0.420473	0.777904
C85	C	1.060722	-0.163911	0.104190
C86	C	1.394055	0.169422	0.437523
C87	C	1.727388	0.502755	0.770856
C88	C	1.053713	-0.535771	0.050390
C89	C	1.387046	-0.202438	0.383723
C90	C	1.720379	0.130896	0.717057
C91	C	1.052163	-0.618059	0.057431
C92	C	1.385496	-0.284726	0.390764
C93	C	1.718829	0.048608	0.724097
C94	C	1.052186	-0.618043	-0.122881
C95	C	1.385519	-0.284710	0.210452
C96	C	1.718852	0.048623	0.543785
C97	C	1.053744	-0.535760	-0.129920
C98	C	1.387077	-0.202427	0.203413
C99	C	1.720410	0.130906	0.536746
C100	C	1.054501	-0.494628	-0.043285
C101	C	1.387835	-0.161295	0.290048
C102	C	1.721168	0.172039	0.623381
C103	C	1.056816	-0.371439	0.031806
C104	C	1.390149	-0.038106	0.365140
C105	C	1.723483	0.295227	0.698473
C106	C	1.056086	-0.410522	-0.050491
C107	C	1.389419	-0.077189	0.282842
C108	C	1.722752	0.256145	0.616176
C109	C	1.219995	0.103426	-0.008864
C110	C	1.553328	0.436759	0.324470
C111	C	1.886662	0.770092	0.657803
C112	C	1.319287	0.105082	-0.009012
C113	C	1.652620	0.438415	0.324321
C114	C	1.985954	0.771749	0.657655
C115	C	1.049744	0.253236	-0.021696
C116	C	1.383078	0.586569	0.311638
C117	C	1.716411	0.919902	0.644971
C118	C	1.051397	0.340808	-0.029198
C119	C	1.384731	0.674141	0.304135
C120	C	1.718064	1.007475	0.637469
N121	N	1.056440	0.109009	0.226017
N122	N	1.389773	0.442342	0.559351
N123	N	1.723106	0.775676	0.892684
N124	N	1.056483	0.109025	-0.244698
N125	N	1.389816	0.442358	0.088635
N126	N	1.723150	0.775692	0.421969
C127	C	1.117334	0.055464	0.282645
C128	C	1.450668	0.388798	0.615978
C129	C	1.784001	0.722131	0.949312
C130	C	1.117340	0.055464	0.386748
C131	C	1.450673	0.388797	0.720081
C132	C	1.784006	0.722130	1.053415
C133	C	1.056455	0.109012	0.434222
C134	C	1.389788	0.442345	0.767555
C135	C	1.723121	0.775679	1.100888
C136	C	0.995554	0.162559	0.377587
C137	C	1.328887	0.495893	0.710920
C138	C	1.662220	0.829226	1.044253
C139	C	0.995544	0.162555	0.273486
C140	C	1.328878	0.495889	0.606819
C141	C	1.662211	0.829222	0.940152
C142	C	0.995578	0.162565	0.594566
C143	C	1.328912	0.495898	0.927900
C144	C	1.662245	0.829231	1.261233
C145	C	0.995588	0.162570	0.698674
C146	C	1.328922	0.495903	1.032008
C147	C	1.662255	0.829236	1.365341
C148	C	1.117374	0.055473	0.707829
C149	C	1.450707	0.388806	1.041162
C150	C	1.784040	0.722139	1.374495
C151	C	1.117365	0.055469	0.603728
C152	C	1.450698	0.388802	0.937061
C153	C	1.784031	0.722136	1.270394
C154	C	1.056465	0.109017	0.547100
C155	C	1.389798	0.442351	0.880433
C156	C	1.723131	0.775684	1.213767
H157	H	0.308458	0.235586	-0.020190
H158	H	0.641792	0.568919	0.313144
H159	H	0.975125	0.902252	0.646477
H160	H	1.054347	-0.502293	0.120935
H161	H	1.387681	-0.168959	0.454268
H162	H	1.721014	0.164374	0.787602
H163	H	1.166918	0.011862	0.243999
H164	H	1.500251	0.345196	0.577332
H165	H	1.833584	0.678529	0.910666
H166	H	1.166924	0.011863	0.432854
H167	H	1.500257	0.345196	0.766187
H168	H	1.833591	0.678530	1.099521
H169	H	1.051567	-0.651542	-0.193415
H170	H	1.384900	-0.318209	0.139919
H171	H	1.718234	0.015124	0.473252
H172	H	0.477705	0.238396	-0.020449
H173	H	0.811038	0.571729	0.312884
H174	H	1.144371	0.905062	0.646217
H175	H	1.166946	0.011870	0.565075
H176	H	1.500279	0.345203	0.898408
H177	H	1.833613	0.678536	1.231742
H178	H	0.596206	0.240367	-0.020596
H179	H	0.929539	0.573701	0.312737
H180	H	1.262873	0.907034	0.646070
H181	H	0.765463	0.243179	-0.020837
H182	H	1.098796	0.576512	0.312496
H183	H	1.432130	0.909846	0.645830
H184	H	0.347453	-0.025138	0.002138
H185	H	0.680787	0.308196	0.335471
H186	H	1.014120	0.641529	0.668804
H187	H	1.058575	-0.279671	-0.139617
H188	H	1.391908	0.053662	0.193716
H189	H	1.725241	0.386996	0.527050
H190	H	0.635205	-0.020360	0.001736
H191	H	0.968539	0.312974	0.335069
H192	H	1.301872	0.646307	0.668402
H193	H	1.061399	-0.130404	-0.152402
H194	H	1.394732	0.202929	0.180931
H195	H	1.728066	0.536263	0.514265
H196	H	1.054386	-0.502263	-0.206201
H197	H	1.387719	-0.168929	0.127132
H198	H	1.721053	0.164404	0.460465
H199	H	1.061332	-0.130420	0.174732
H200	H	1.394666	0.202913	0.508065
H201	H	1.727999	0.536246	0.841399
H202	H	1.056178	-0.404952	0.108078
H203	H	1.389511	-0.071619	0.441411
H204	H	1.722844	0.261715	0.774744
H205	H	0.516714	-0.022321	0.001897
H206	H	0.850047	0.311012	0.335231
H207	H	1.183381	0.644346	0.668564
H208	H	1.058523	-0.279703	0.187510
H209	H	1.391856	0.053631	0.520843
H210	H	1.725189	0.386964	0.854177
H211	H	1.051517	-0.651560	0.133717
H212	H	1.384850	-0.318226	0.467050
H213	H	1.718183	0.015107	0.800384
H214	H	1.166960	0.011872	0.753941
H215	H	1.500294	0.345205	1.087275
H216	H	1.833627	0.678539	1.420608
H217	H	1.056721	-0.377014	-0.126762
H218	H	1.390054	-0.043681	0.206572
H219	H	1.723387	0.289652	0.539905
H220	H	0.946008	0.206173	0.737322
H221	H	1.279342	0.539507	1.070655
H222	H	1.612675	0.872840	1.403989
H223	H	0.945984	0.206167	0.548463
H224	H	1.279317	0.539500	0.881796
H225	H	1.612651	0.872834	1.215130
H226	H	0.945975	0.206157	0.416246
H227	H	1.279308	0.539490	0.749579
H228	H	1.612642	0.872823	1.082913
H229	H	0.804461	-0.017543	0.001499
H230	H	1.137794	0.315790	0.334832
H231	H	1.471128	0.649123	0.668166
H232	H	0.945957	0.206156	0.227380
H233	H	1.279290	0.539489	0.560714
H234	H	1.612624	0.872823	0.894047
