data_functionalizedCrystal
_audit_creation_method	'MofGen! by Chris Wilmer'
_symmetry_space_group_name_H-M	'P1'
_symmetry_Int_Tables_number	1
_symmetry_cell_setting	triclinic
loop_
_symmetry_equiv_pos_as_xyz
  x,y,z
_cell_length_a	18.215407
_cell_length_b	18.215405
_cell_length_c	11.169409
_cell_angle_alpha	89.960202
_cell_angle_beta	89.979148
_cell_angle_gamma	90.022329
loop_
_atom_site_label
_atom_site_type_symbol
_atom_site_fract_x
_atom_site_fract_y
_atom_site_fract_z
Zn1	Zn	1.125097	-0.292975	-0.678513
Zn2	Zn	1.458431	0.040358	-0.345180
Zn3	Zn	1.791764	0.373692	-0.011847
Zn4	Zn	1.124998	-0.416066	-0.477804
Zn5	Zn	1.458331	-0.082733	-0.144471
Zn6	Zn	1.791665	0.250601	0.188863
Zn7	Zn	1.002022	-0.293012	-0.477844
Zn8	Zn	1.335356	0.040321	-0.144511
Zn9	Zn	1.668689	0.373654	0.188823
Zn10	Zn	1.001996	-0.415999	-0.678445
Zn11	Zn	1.335329	-0.082665	-0.345112
Zn12	Zn	1.668662	0.250668	-0.011779
O13	O	1.063528	-0.354513	-0.578152
O14	O	1.396862	-0.021180	-0.244818
O15	O	1.730195	0.312154	0.088515
O16	O	1.228068	-0.309316	-0.651901
O17	O	1.561402	0.024018	-0.318567
O18	O	1.894735	0.357351	0.014766
O19	O	1.108655	-0.399787	-0.309860
O20	O	1.441988	-0.066453	0.023474
O21	O	1.775321	0.266880	0.356807
O22	O	1.018401	-0.190023	-0.504508
O23	O	1.351734	0.143310	-0.171175
O24	O	1.685068	0.476644	0.162158
O25	O	1.227996	-0.399750	-0.504440
O26	O	1.561329	-0.066417	-0.171107
O27	O	1.894662	0.266916	0.162226
O28	O	1.108824	-0.189996	-0.651939
O29	O	1.442157	0.143338	-0.318606
O30	O	1.775490	0.476671	0.014727
O31	O	1.018305	-0.309380	-0.309889
O32	O	1.351638	0.023954	0.023444
O33	O	1.684972	0.357287	0.356778
O34	O	0.899035	-0.309314	-0.504443
O35	O	1.232368	0.024019	-0.171109
O36	O	1.565701	0.357352	0.162224
O37	O	1.018356	-0.399636	-0.846404
O38	O	1.351689	-0.066302	-0.513071
O39	O	1.685022	0.267031	-0.179738
O40	O	0.899015	-0.399672	-0.651823
O41	O	1.232348	-0.066339	-0.318490
O42	O	1.565682	0.266995	0.014843
O43	O	1.108798	-0.309250	-0.846454
O44	O	1.442131	0.024083	-0.513121
O45	O	1.775465	0.357416	-0.179787
O46	O	1.108629	-0.519041	-0.504374
O47	O	1.441962	-0.185708	-0.171041
O48	O	1.775296	0.147625	0.162292
O49	O	1.018260	-0.518992	-0.651785
O50	O	1.351593	-0.185659	-0.318451
O51	O	1.684926	0.147675	0.014882
C52	C	0.872322	-0.354490	-0.578131
C53	C	1.205655	-0.021157	-0.244797
C54	C	1.538989	0.312176	0.088536
C55	C	0.790523	-0.354498	-0.578150
C56	C	1.123857	-0.021165	-0.244817
C57	C	1.457190	0.312168	0.088516
C58	C	0.602366	-0.307506	-0.655054
C59	C	0.935699	0.025827	-0.321721
C60	C	1.269033	0.359161	0.011613
C61	C	0.525507	-0.307512	-0.655058
C62	C	0.858841	0.025821	-0.321725
C63	C	1.192174	0.359154	0.011609
C64	C	0.525443	-0.401541	-0.501271
C65	C	0.858776	-0.068207	-0.167937
C66	C	1.192109	0.265126	0.165396
C67	C	0.602300	-0.401530	-0.501261
C68	C	0.935633	-0.068197	-0.167928
C69	C	1.268967	0.265137	0.165405
C70	C	0.640760	-0.354514	-0.578160
C71	C	0.974093	-0.021181	-0.244827
C72	C	1.307426	0.312153	0.088507
C73	C	0.487044	-0.354531	-0.578173
C74	C	0.820377	-0.021197	-0.244840
C75	C	1.153710	0.312136	0.088494
C76	C	0.403710	-0.354538	-0.578177
C77	C	0.737043	-0.021205	-0.244844
C78	C	1.070377	0.312129	0.088490
C79	C	0.724099	-0.354506	-0.578155
C80	C	1.057432	-0.021172	-0.244822
C81	C	1.390765	0.312161	0.088512
C82	C	1.063451	-0.545719	-0.578094
C83	C	1.396784	-0.212386	-0.244761
C84	C	1.730117	0.120947	0.088573
C85	C	1.063485	-0.627518	-0.578109
C86	C	1.396818	-0.294185	-0.244776
C87	C	1.730151	0.039148	0.088557
C88	C	1.110651	-0.815713	-0.501494
C89	C	1.443984	-0.482380	-0.168161
C90	C	1.777317	-0.149047	0.165173
C91	C	1.110683	-0.892572	-0.501523
C92	C	1.444017	-0.559239	-0.168190
C93	C	1.777350	-0.225905	0.165143
C94	C	1.016500	-0.892561	-0.654896
C95	C	1.349834	-0.559227	-0.321562
C96	C	1.683167	-0.225894	0.011771
C97	C	1.016472	-0.815703	-0.654872
C98	C	1.349805	-0.482370	-0.321538
C99	C	1.683138	-0.149037	0.011795
C100	C	1.063546	-0.777282	-0.578164
C101	C	1.396879	-0.443948	-0.244831
C102	C	1.730212	-0.110615	0.088503
C103	C	1.063607	-0.930998	-0.578217
C104	C	1.396941	-0.597664	-0.244884
C105	C	1.730274	-0.264331	0.088450
C106	C	1.063643	-1.014331	-0.578249
C107	C	1.396976	-0.680998	-0.244916
C108	C	1.730309	-0.347665	0.088417
C109	C	1.063512	-0.693943	-0.578133
C110	C	1.396845	-0.360609	-0.244800
C111	C	1.730178	-0.027276	0.088533
C112	C	1.255481	-0.354536	-0.578174
C113	C	1.588815	-0.021203	-0.244840
C114	C	1.922148	0.312130	0.088493
C115	C	1.337280	-0.354546	-0.578183
C116	C	1.670613	-0.021213	-0.244849
C117	C	2.003947	0.312121	0.088484
C118	C	1.063585	-0.354431	-0.891194
C119	C	1.396918	-0.021098	-0.557861
C120	C	1.730252	0.312235	-0.224528
C121	C	1.063609	-0.354396	-1.024594
C122	C	1.396942	-0.021063	-0.691261
C123	C	1.730276	0.312270	-0.357928
C124	C	1.063626	-0.162560	-0.578236
C125	C	1.396960	0.170773	-0.244903
C126	C	1.730293	0.504107	0.088431
C127	C	1.063668	-0.080761	-0.578272
C128	C	1.397002	0.252572	-0.244939
C129	C	1.730335	0.585906	0.088395
C130	C	1.063514	-0.354541	-0.266327
C131	C	1.396848	-0.021208	0.067006
C132	C	1.730181	0.312125	0.400340
C133	C	1.063633	-0.354369	-0.132928
C134	C	1.396966	-0.021035	0.200406
C135	C	1.730300	0.312298	0.533739
H136	H	0.633678	-0.269220	-0.717666
H137	H	0.967011	0.064113	-0.384333
H138	H	1.300345	0.397447	-0.050999
H139	H	0.494251	-0.269233	-0.717671
H140	H	0.827584	0.064101	-0.384338
H141	H	1.160917	0.397434	-0.051004
Br142	Br	1.174618	-0.944727	-0.397473
Br143	Br	1.507952	-0.611394	-0.064140
Br144	Br	1.841285	-0.278060	0.269194
Br145	Br	0.473243	-0.465346	-0.396915
Br146	Br	0.806576	-0.132013	-0.063582
Br147	Br	1.139909	0.201320	0.269751
H148	H	0.978113	-0.784410	-0.717311
H149	H	1.311446	-0.451077	-0.383978
H150	H	1.644780	-0.117743	-0.050645
Br151	Br	0.654410	-0.465321	-0.396880
Br152	Br	0.987744	-0.131987	-0.063547
Br153	Br	1.321077	0.201346	0.269786
Br154	Br	0.952616	-0.944709	-0.758992
Br155	Br	1.285950	-0.611375	-0.425659
Br156	Br	1.619283	-0.278042	-0.092325
Br157	Br	1.174537	-0.763572	-0.397392
Br158	Br	1.507870	-0.430238	-0.064059
Br159	Br	1.841203	-0.096905	0.269274
