data_functionalizedCrystal
_audit_creation_method	'MofGen! by Chris Wilmer'
_symmetry_space_group_name_H-M	'P1'
_symmetry_Int_Tables_number	1
_symmetry_cell_setting	triclinic
loop_
_symmetry_equiv_pos_as_xyz
  x,y,z
_cell_length_a	17.038272
_cell_length_b	17.019234
_cell_length_c	12.996460
_cell_angle_alpha	86.112554
_cell_angle_beta	90.000198
_cell_angle_gamma	87.240293
loop_
_atom_site_label
_atom_site_type_symbol
_atom_site_fract_x
_atom_site_fract_y
_atom_site_fract_z
O1	O	1.037209	0.171290	-0.100622
O2	O	0.809581	0.168570	-0.100411
O3	O	0.929753	0.055522	-0.090368
O4	O	0.917037	0.284338	-0.110665
O5	O	0.929741	0.055515	0.080767
O6	O	0.809569	0.168563	0.070723
O7	O	1.037197	0.171283	0.070513
Cu8	Cu	0.923382	0.169922	0.086244
Cu9	Cu	0.923396	0.169931	-0.116142
O10	O	0.917025	0.284331	0.060469
C11	C	0.780449	0.166093	-0.014628
C12	C	0.693663	0.158712	-0.013986
C13	C	0.929268	0.026097	-0.002193
C14	C	0.927829	-0.061572	0.005577
C15	C	0.919622	-0.557403	0.054155
C16	C	0.920981	-0.475030	0.046860
C17	C	0.921673	-0.433831	-0.050076
C18	C	0.920998	-0.475009	-0.139722
C19	C	0.919634	-0.557380	-0.132425
C20	C	0.925789	-0.185121	-0.076773
C21	C	0.927157	-0.102744	-0.084063
C22	C	0.927137	-0.102771	0.102520
C23	C	0.925777	-0.185144	0.109807
C24	C	0.925099	-0.226315	0.020162
C25	C	0.923065	-0.349632	-0.057535
C26	C	0.923701	-0.310511	0.027622
C27	C	0.643486	0.226473	-0.019996
C28	C	0.561942	0.219534	-0.019366
C29	C	0.530576	0.144833	-0.012733
C30	C	0.580760	0.077067	-0.006720
C31	C	0.662302	0.084007	-0.007342
C32	C	0.284841	0.120315	-0.010531
C33	C	0.203292	0.113380	-0.009912
C34	C	0.184480	0.255848	-0.022556
C35	C	0.266025	0.262781	-0.023184
C36	C	0.316201	0.195015	-0.017165
C37	C	0.447225	0.137738	-0.012093
C38	C	0.399551	0.202111	-0.017799
C39	C	1.066329	0.173760	-0.015272
C40	C	1.153115	0.181141	-0.015922
C41	C	0.917511	0.313756	-0.027708
C42	C	0.918949	0.401425	-0.035484
N43	N	0.923377	0.169916	0.228592
N44	N	0.923407	0.169931	-0.258490
C45	C	0.923395	0.169932	0.648404
C46	C	0.923388	0.169930	0.531600
C47	C	0.923387	0.169924	0.438502
C48	C	0.923378	0.169921	0.321689
H49	H	0.919061	-0.590941	0.133090
F50	F	0.923833	-0.305780	-0.160698
F51	F	0.338232	0.048191	-0.004125
H52	H	0.669017	0.287303	-0.025397
H53	H	0.521091	0.274713	-0.024261
F54	F	0.299400	0.342288	-0.030249
H55	H	0.425092	0.262932	-0.023193
H56	H	0.143618	0.311019	-0.027455
F57	F	0.169913	0.033869	-0.002834
H58	H	0.421678	0.076916	-0.006663
F59	F	0.547376	-0.002436	0.000346
H60	H	0.703156	0.028828	-0.002449
H61	H	0.925217	-0.218683	0.188743
F62	F	0.922959	-0.354359	0.130784
F63	F	0.927857	-0.058948	0.197920
F64	F	0.927895	-0.058899	-0.187239
F65	F	0.921683	-0.431214	0.142267
H66	H	0.921558	-0.441458	-0.218649
F67	F	0.918914	-0.601198	-0.227832
F68	F	0.925073	-0.228928	-0.172183
