data_functionalizedCrystal
_audit_creation_method	'MofGen! by Chris Wilmer'
_symmetry_space_group_name_H-M	'P1'
_symmetry_Int_Tables_number	1
_symmetry_cell_setting	triclinic
loop_
_symmetry_equiv_pos_as_xyz
  x,y,z
_cell_length_a	10.654551
_cell_length_b	10.654550
_cell_length_c	10.066323
_cell_angle_alpha	98.858134
_cell_angle_beta	81.152569
_cell_angle_gamma	84.485087
loop_
_atom_site_label
_atom_site_type_symbol
_atom_site_fract_x
_atom_site_fract_y
_atom_site_fract_z
O1	O	1.649591	0.194659	0.113466
O2	O	1.284112	0.211465	0.113473
O3	O	1.475255	0.020322	0.113464
O4	O	1.458447	0.385802	0.113475
O5	O	1.511745	-0.016201	-0.113511
O6	O	1.320601	0.174942	-0.113503
O7	O	1.686080	0.158136	-0.113509
Zn8	Zn	1.509134	0.160740	-0.149543
Zn9	Zn	1.461058	0.208861	0.149507
O10	O	1.494937	0.349279	-0.113501
C11	C	1.255558	0.191970	-0.000014
C12	C	1.116115	0.188278	-0.000012
C13	C	0.939473	0.163151	-0.123738
C14	C	1.070494	0.166631	-0.123738
C15	C	1.030705	0.206458	0.123723
C16	C	0.899686	0.202986	0.123722
C17	C	0.893862	0.141490	-0.247472
C18	C	0.979262	0.123312	-0.371207
C19	C	1.110283	0.126793	-0.371208
C20	C	1.155903	0.148451	-0.247473
C21	C	1.492266	-0.044737	-0.000022
C22	C	1.488573	-0.184180	-0.000017
C23	C	1.601115	-0.263666	-0.000023
C24	C	1.597637	-0.394685	-0.000013
C25	C	1.369065	-0.366720	0.000003
C26	C	1.372543	-0.235702	0.000003
C27	C	1.717145	-0.212144	-0.000043
C28	C	1.829697	-0.291632	-0.000050
C29	C	1.826219	-0.422651	-0.000041
C30	C	1.710189	-0.474183	-0.000023
C31	C	1.714633	0.177632	-0.000019
C32	C	1.854075	0.181325	-0.000013
C33	C	1.477926	0.414339	-0.000012
C34	C	1.481617	0.553783	-0.000008
N35	N	1.541954	0.127898	-0.353636
C36	C	1.497742	0.172156	-0.578595
C37	C	1.472450	0.197445	-0.421437
N38	N	1.428248	0.241693	0.353600
H39	H	1.262589	0.151298	-0.247483
Cl40	Cl	1.705831	-0.638905	-0.000072
H41	H	1.274599	-0.408688	0.000014
Cl42	Cl	1.231059	-0.135769	0.000011
Cl43	Cl	0.729153	0.137116	-0.247480
H44	H	1.394229	0.275711	-0.363145
H45	H	1.067861	0.224090	0.224462
H46	H	1.575967	0.093904	-0.636891
H47	H	0.942108	0.105689	-0.471947
Cl48	Cl	0.792321	0.225841	0.279265
H49	H	1.620185	0.049641	-0.411929
Cl50	Cl	1.307484	0.362525	-0.556403
Cl51	Cl	1.721526	-0.047436	-0.000059
Cl52	Cl	1.975552	-0.226848	-0.000054
Cl53	Cl	1.217637	0.103957	-0.526757
H54	H	1.917862	-0.487365	-0.000033
