data_functionalizedCrystal
_audit_creation_method	'MofGen! by Chris Wilmer'
_symmetry_space_group_name_H-M	'P1'
_symmetry_Int_Tables_number	1
_symmetry_cell_setting	triclinic
loop_
_symmetry_equiv_pos_as_xyz
  x,y,z
_cell_length_a	19.805407
_cell_length_b	13.897448
_cell_length_c	19.805399
_cell_angle_alpha	89.974981
_cell_angle_beta	89.980427
_cell_angle_gamma	90.017692
loop_
_atom_site_label
_atom_site_type_symbol
_atom_site_fract_x
_atom_site_fract_y
_atom_site_fract_z
Zn1	Zn	1.034777	-0.384037	-0.382732
Zn2	Zn	1.534777	0.115963	0.117268
Zn3	Zn	1.034709	-0.545343	-0.269549
Zn4	Zn	1.534709	-0.045343	0.230451
Zn5	Zn	0.921591	-0.384064	-0.269556
Zn6	Zn	1.421591	0.115936	0.230444
Zn7	Zn	0.921572	-0.545292	-0.382695
Zn8	Zn	1.421572	-0.045292	0.117305
O9	O	0.978162	-0.464684	-0.326133
O10	O	1.478162	0.035316	0.173867
O11	O	1.129484	-0.405445	-0.367730
O12	O	1.629484	0.094555	0.132270
O13	O	1.019683	-0.523982	-0.174833
O14	O	1.519683	-0.023982	0.325167
O15	O	0.936642	-0.249079	-0.284588
O16	O	1.436642	0.250921	0.215412
O17	O	1.129434	-0.523956	-0.284575
O18	O	1.629434	-0.023956	0.215425
O19	O	1.019799	-0.249059	-0.367737
O20	O	1.519799	0.250941	0.132263
O21	O	0.936576	-0.405490	-0.174839
O22	O	1.436576	0.094510	0.325161
O23	O	0.826872	-0.405441	-0.284552
O24	O	1.326872	0.094559	0.215448
O25	O	0.936609	-0.523869	-0.477417
O26	O	1.436609	-0.023869	0.022583
O27	O	0.826858	-0.523894	-0.367675
O28	O	1.326858	-0.023894	0.132325
O29	O	1.019780	-0.405395	-0.477443
O30	O	1.519780	0.094605	0.022557
O31	O	1.019664	-0.680318	-0.284539
O32	O	1.519664	-0.180318	0.215461
O33	O	0.936543	-0.680280	-0.367668
O34	O	1.436543	-0.180280	0.132332
C35	C	0.802306	-0.464666	-0.326111
C36	C	1.302306	0.035334	0.173889
C37	C	0.727074	-0.464681	-0.326118
C38	C	1.227074	0.035319	0.173882
C39	C	0.691740	-0.526453	-0.369330
C40	C	1.191740	-0.026453	0.130670
C41	C	0.621052	-0.526454	-0.369339
C42	C	1.121052	-0.026454	0.130661
C43	C	0.585699	-0.464688	-0.326133
C44	C	1.085699	0.035312	0.173867
C45	C	0.621037	-0.402910	-0.282919
C46	C	1.121037	0.097090	0.217081
C47	C	0.691725	-0.402904	-0.282913
C48	C	1.191725	0.097096	0.217087
C49	C	0.335964	-0.402931	-0.282941
C50	C	0.835964	0.097069	0.217059
C51	C	0.265272	-0.402944	-0.282949
C52	C	0.765272	0.097056	0.217051
C53	C	0.265292	-0.526481	-0.369367
C54	C	0.765292	-0.026481	0.130633
C55	C	0.335979	-0.526476	-0.369362
C56	C	0.835979	-0.026476	0.130638
C57	C	0.371311	-0.464694	-0.326151
C58	C	0.871311	0.035306	0.173849
C59	C	0.447960	-0.464692	-0.326142
C60	C	0.947960	0.035308	0.173858
C61	C	0.509051	-0.464695	-0.326138
C62	C	1.009051	0.035305	0.173862
C63	C	0.978113	-0.715298	-0.326113
C64	C	1.478113	-0.215298	0.173887
C65	C	0.978154	-0.822512	-0.326128
C66	C	1.478154	-0.322512	0.173872
C67	C	0.978225	-1.018807	-0.326170
C68	C	1.478225	-0.518807	0.173830
C69	C	0.978183	-0.909575	-0.326149
C70	C	1.478183	-0.409575	0.173851
C71	C	1.154705	-0.464703	-0.326155
C72	C	1.654705	0.035297	0.173845
C73	C	1.229937	-0.464711	-0.326165
C74	C	1.729937	0.035289	0.173835
C75	C	0.978200	-0.464623	-0.502676
C76	C	1.478200	0.035377	-0.002676
C77	C	0.978216	-0.464597	-0.577908
C78	C	1.478216	0.035403	-0.077908
C79	C	0.978230	-0.213091	-0.326167
C80	C	1.478230	0.286909	0.173833
C81	C	0.978259	-0.105877	-0.326182
C82	C	1.478259	0.394123	0.173818
C83	C	1.021524	-0.402905	-0.613267
C84	C	1.521524	0.097095	-0.113267
C85	C	1.021531	-0.402877	-0.683955
C86	C	1.521531	0.097123	-0.183955
C87	C	0.978233	-0.464547	-0.719283
C88	C	1.478233	0.035453	-0.219283
C89	C	0.934920	-0.526242	-0.683919
C90	C	1.434920	-0.026242	-0.183919
C91	C	0.934910	-0.526264	-0.613232
C92	C	1.434910	-0.026264	-0.113232
C93	C	0.934958	-0.526152	-0.968993
C94	C	1.434958	-0.026152	-0.468993
C95	C	0.934973	-0.526127	-1.039685
C96	C	1.434973	-0.026127	-0.539685
C97	C	1.021579	-0.402765	-1.039716
C98	C	1.521579	0.097235	-0.539716
C99	C	1.021570	-0.402787	-0.969029
C100	C	1.521570	0.097213	-0.469029
C101	C	0.978255	-0.464478	-0.933671
C102	C	1.478255	0.035522	-0.433671
C103	C	0.978247	-0.464507	-0.857022
C104	C	1.478247	0.035493	-0.357022
C105	C	0.978244	-0.464524	-0.795931
C106	C	1.478244	0.035476	-0.295931
C107	C	0.978163	-0.464675	-0.150277
C108	C	1.478163	0.035325	0.349723
C109	C	0.978278	-0.464429	-0.075045
C110	C	1.478278	0.035571	0.424955
H111	H	0.236515	-0.576783	-0.404554
H112	H	0.736515	-0.076783	0.095446
H113	H	0.899664	-0.576451	-0.712689
H114	H	1.399664	-0.076451	-0.212689
H115	H	1.056799	-0.352644	-0.712742
H116	H	1.556799	0.147356	-0.212742
H117	H	0.899699	-0.576398	-0.940213
H118	H	1.399699	-0.076398	-0.440213
C119	C	0.901911	-0.689608	-0.591428
C120	C	1.401911	-0.189608	-0.091428
C121	C	0.887317	-0.594087	-0.574356
C122	C	1.387317	-0.094087	-0.074356
H123	H	0.872531	-0.731478	-0.567423
H124	H	1.372531	-0.231478	-0.067423
H125	H	0.895713	-0.698418	-0.638575
H126	H	1.395713	-0.198418	-0.138575
H127	H	0.947387	-0.703711	-0.579852
H128	H	1.447387	-0.203711	-0.079852
H129	H	0.841842	-0.579982	-0.585936
H130	H	1.341842	-0.079982	-0.085936
H131	H	0.893510	-0.585273	-0.527198
H132	H	1.393510	-0.085273	-0.027198
C133	C	0.599234	-0.355702	-0.168369
C134	C	1.099234	0.144298	0.331631
C135	C	0.582178	-0.335013	-0.235426
C136	C	1.082178	0.164987	0.264574
H137	H	0.575247	-0.313781	-0.139049
H138	H	1.075247	0.186219	0.360951
H139	H	0.587632	-0.420486	-0.158388
H140	H	1.087632	0.079514	0.341612
H141	H	0.646391	-0.346853	-0.162190
H142	H	1.146391	0.153147	0.337810
H143	H	0.535022	-0.343869	-0.241607
H144	H	1.035022	0.156131	0.258393
H145	H	0.593776	-0.270214	-0.245410
H146	H	1.093776	0.229786	0.254590
H147	H	1.056830	-0.352573	-0.940268
H148	H	1.556830	0.147427	-0.440268
C149	C	0.771189	-0.389330	-0.191883
C150	C	1.271189	0.110670	0.308117
C151	C	0.730570	-0.335008	-0.235413
C152	C	1.230570	0.164992	0.264587
H153	H	0.795173	-0.347409	-0.162562
H154	H	1.295173	0.152591	0.337438
H155	H	0.743595	-0.431299	-0.165943
H156	H	1.243595	0.068701	0.334057
H157	H	0.802354	-0.426112	-0.217624
H158	H	1.302354	0.073888	0.282376
H159	H	0.699401	-0.298231	-0.209672
H160	H	1.199401	0.201769	0.290328
H161	H	0.758167	-0.293022	-0.261356
H162	H	1.258167	0.206978	0.238644
H163	H	0.720520	-0.576753	-0.404511
H164	H	1.220520	-0.076753	0.095489
H165	H	0.592286	-0.576756	-0.404526
H166	H	1.092286	-0.076756	0.095474
H167	H	0.236489	-0.352641	-0.247765
H168	H	0.736489	0.147359	0.252235
C169	C	0.444307	-0.348058	-0.244556
C170	C	0.944307	0.151942	0.255444
C171	C	0.374797	-0.335031	-0.235439
C172	C	0.874797	0.164969	0.264561
H173	H	0.468281	-0.306133	-0.215230
H174	H	0.968281	0.193867	0.284770
H175	H	0.455875	-0.412840	-0.234570
H176	H	0.955875	0.087160	0.265430
H177	H	0.455908	-0.334019	-0.290051
H178	H	0.955908	0.165981	0.209949
H179	H	0.363195	-0.349077	-0.189946
H180	H	0.863195	0.150923	0.310054
H181	H	0.363225	-0.270233	-0.245420
H182	H	0.863225	0.229767	0.254580
C183	C	0.843943	-0.539486	-1.119173
C184	C	1.343943	-0.039486	-0.619173
C185	C	0.887376	-0.593915	-1.078523
C186	C	1.387376	-0.093915	-0.578523
H187	H	0.814565	-0.581337	-1.143153
H188	H	1.314565	-0.081337	-0.643153
H189	H	0.818059	-0.497476	-1.091600
H190	H	1.318059	0.002524	-0.591600
H191	H	0.869750	-0.502745	-1.150341
H192	H	1.369750	-0.002745	-0.650341
H193	H	0.861569	-0.630652	-1.047351
H194	H	1.361569	-0.130652	-0.547351
H195	H	0.913263	-0.635943	-1.106098
H196	H	1.413263	-0.135943	-0.606098
C197	C	1.107129	-0.280954	-0.620405
C198	C	1.607129	0.219046	-0.120405
C199	C	1.069119	-0.335113	-0.574438
C200	C	1.569119	0.164887	-0.074438
H201	H	1.136508	-0.239095	-0.596434
H202	H	1.636508	0.260905	-0.096434
H203	H	1.133012	-0.322974	-0.647973
H204	H	1.633012	0.177026	-0.147973
H205	H	1.077644	-0.244051	-0.647977
H206	H	1.577644	0.255949	-0.147977
H207	H	1.098603	-0.372022	-0.546869
H208	H	1.598603	0.127978	-0.046869
H209	H	1.043234	-0.293087	-0.546859
H210	H	1.543234	0.206913	-0.046859
C211	C	1.031034	-0.272973	-1.119222
C212	C	1.531034	0.227027	-0.619222
C213	C	1.069187	-0.334939	-1.078582
C214	C	1.569187	0.165061	-0.578582
H215	H	1.060426	-0.231099	-1.143210
H216	H	1.560426	0.268901	-0.643210
H217	H	1.005256	-0.309694	-1.150377
H218	H	1.505256	0.190306	-0.650377
H219	H	1.001552	-0.236088	-1.091636
H220	H	1.501552	0.263912	-0.591636
H221	H	1.098665	-0.371829	-1.106168
H222	H	1.598665	0.128171	-0.606168
H223	H	1.094976	-0.298214	-1.047423
H224	H	1.594976	0.201786	-0.547423
C225	C	0.328896	-0.648584	-0.454792
C226	C	0.828896	-0.148584	0.045208
C227	C	0.374838	-0.594367	-0.416858
C228	C	0.874838	-0.094367	0.083142
H229	H	0.352887	-0.690491	-0.484119
H230	H	0.852887	-0.190491	0.015881
H231	H	0.301309	-0.685430	-0.425261
H232	H	0.801309	-0.185430	0.074739
H233	H	0.301341	-0.606597	-0.480733
H234	H	0.801341	-0.106597	0.019267
H235	H	0.402390	-0.636354	-0.390913
H236	H	0.902390	-0.136354	0.109087
H237	H	0.402436	-0.557518	-0.446393
H238	H	0.902436	-0.057518	0.053607
