data_functionalizedCrystal
_audit_creation_method	'MofGen! by Chris Wilmer'
_symmetry_space_group_name_H-M	'P1'
_symmetry_Int_Tables_number	1
_symmetry_cell_setting	triclinic
loop_
_symmetry_equiv_pos_as_xyz
  x,y,z
_cell_length_a	10.654556
_cell_length_b	16.109301
_cell_length_c	15.186229
_cell_angle_alpha	89.986381
_cell_angle_beta	89.991087
_cell_angle_gamma	83.974445
loop_
_atom_site_label
_atom_site_type_symbol
_atom_site_fract_x
_atom_site_fract_y
_atom_site_fract_z
O1	O	1.666258	0.116807	-0.073241
O2	O	2.166258	0.616807	0.426759
O3	O	1.300630	0.127927	-0.073241
O4	O	1.800630	0.627927	0.426759
O5	O	1.493488	0.001396	-0.073232
O6	O	1.993488	0.501396	0.426768
O7	O	1.473400	0.243338	-0.073250
O8	O	1.973400	0.743338	0.426750
O9	O	1.493460	0.001374	0.073226
O10	O	1.993460	0.501374	0.573226
O11	O	1.300601	0.127906	0.073217
O12	O	1.800601	0.627906	0.573217
O13	O	1.666230	0.116786	0.073217
O14	O	2.166230	0.616786	0.573217
Zn15	Zn	1.483411	0.122342	0.096470
Zn16	Zn	1.983411	0.622342	0.596470
Zn17	Zn	1.483449	0.122370	-0.096494
Zn18	Zn	1.983449	0.622370	0.403506
O19	O	1.473371	0.243317	0.073208
O20	O	1.973371	0.743317	0.573208
C21	C	1.253829	0.127099	-0.000012
C22	C	1.753829	0.627099	0.499988
C23	C	1.114419	0.124653	-0.000012
C24	C	1.614419	0.624653	0.499988
C25	C	0.917951	0.121222	-0.079853
C26	C	1.417951	0.621222	0.420147
C27	C	1.048942	0.123516	-0.079849
C28	C	1.548942	0.623516	0.420151
C29	C	1.048900	0.123488	0.079827
C30	C	1.548900	0.623488	0.579827
C31	C	0.917912	0.121188	0.079822
C32	C	1.417912	0.621188	0.579822
C33	C	0.917976	0.121242	-0.172040
C34	C	1.417976	0.621242	0.327960
C35	C	1.048967	0.123535	-0.172037
C36	C	1.548967	0.623535	0.327963
C37	C	1.492660	-0.029595	-0.000003
C38	C	1.992660	0.470405	0.499997
C39	C	1.490221	-0.121905	-0.000001
C40	C	1.990221	0.378095	0.499999
C41	C	1.598986	-0.343529	-0.000015
C42	C	2.098986	0.156471	0.499985
C43	C	1.596684	-0.430263	-0.000023
C44	C	2.096684	0.069737	0.499977
C45	C	1.367864	-0.411752	-0.000019
C46	C	1.867864	0.088248	0.499981
C47	C	1.370168	-0.325020	-0.000018
C48	C	1.870168	0.174980	0.499982
C49	C	1.485732	-0.290911	-0.000012
C50	C	1.985732	0.209089	0.499988
C51	C	1.481127	-0.464377	-0.000020
C52	C	1.981127	0.035623	0.499980
C53	C	1.478630	-0.558418	-0.000028
C54	C	1.978630	-0.058418	0.499972
C55	C	1.488230	-0.196864	-0.000006
C56	C	1.988230	0.303136	0.499994
C57	C	1.713031	0.117614	-0.000014
C58	C	2.213031	0.617614	0.499986
C59	C	1.852440	0.120060	-0.000020
C60	C	2.352440	0.620060	0.499980
C61	C	1.474199	0.274307	-0.000023
C62	C	1.974199	0.774307	0.499977
C63	C	1.476639	0.366617	-0.000030
C64	C	1.976639	0.866617	0.499970
N65	N	1.483394	0.122323	0.228163
N66	N	1.983394	0.622323	0.728163
C67	C	1.407290	0.071465	0.546119
C68	C	1.907290	0.571465	1.046119
C69	C	1.407281	0.071454	0.453929
C70	C	1.907281	0.571454	0.953929
C71	C	1.559572	0.173240	0.453864
C72	C	2.059572	0.673240	0.953864
C73	C	1.559587	0.173247	0.546052
C74	C	2.059587	0.673247	1.046052
C75	C	1.483439	0.122361	0.592177
C76	C	1.983439	0.622361	1.092177
C77	C	1.483415	0.122342	0.407799
C78	C	1.983415	0.622342	0.907799
C79	C	1.483405	0.122330	0.307843
C80	C	1.983405	0.622330	0.807843
C81	C	1.483450	0.122372	0.692139
C82	C	1.983450	0.622372	1.192139
N83	N	1.483459	0.122381	0.771813
N84	N	1.983459	0.622381	1.271813
H85	H	1.101483	0.064327	-0.200638
H86	H	1.601483	0.564327	0.299362
Cl87	Cl	0.835560	0.119721	0.180187
Cl88	Cl	1.335560	0.619721	0.680187
H89	H	1.621567	0.214670	0.416298
H90	H	2.121567	0.714670	0.916298
H91	H	1.273776	-0.439535	-0.000023
H92	H	1.773776	0.060465	0.499977
Cl93	Cl	0.880879	0.030622	-0.226685
Cl94	Cl	1.380879	0.530622	0.273315
Cl95	Cl	1.311568	0.007491	0.604101
Cl96	Cl	1.811568	0.507491	1.104101
Cl97	Cl	1.311540	0.007472	0.396031
Cl98	Cl	1.811540	0.507472	0.896031
H99	H	1.693086	-0.315760	-0.000012
H100	H	2.193086	0.184240	0.499988
Cl101	Cl	1.655331	0.237231	0.603958
Cl102	Cl	2.155331	0.737231	1.103958
Cl103	Cl	1.227779	-0.258866	-0.000022
Cl104	Cl	1.727779	0.241134	0.499978
Cl105	Cl	1.131215	0.124908	0.180194
Cl106	Cl	1.631215	0.624908	0.680194
Cl107	Cl	0.836906	0.212662	-0.216211
Cl108	Cl	1.336906	0.712662	0.283789
H109	H	1.688907	-0.473102	-0.000027
H110	H	2.188907	0.026898	0.499973
Cl111	Cl	1.086100	0.214176	-0.226681
Cl112	Cl	1.586100	0.714176	0.273319
