data_functionalizedCrystal
_audit_creation_method	'MofGen! by Chris Wilmer'
_symmetry_space_group_name_H-M	'P1'
_symmetry_Int_Tables_number	1
_symmetry_cell_setting	triclinic
loop_
_symmetry_equiv_pos_as_xyz
  x,y,z
_cell_length_a	19.188925
_cell_length_b	19.188930
_cell_length_c	12.996460
_cell_angle_alpha	90.005414
_cell_angle_beta	90.007144
_cell_angle_gamma	83.143665
loop_
_atom_site_label
_atom_site_type_symbol
_atom_site_fract_x
_atom_site_fract_y
_atom_site_fract_z
O1	O	0.926149	0.087145	0.085600
O2	O	1.426149	0.587145	0.585600
O3	O	0.722838	0.098883	0.085599
O4	O	1.222838	0.598883	0.585599
O5	O	0.830361	-0.008642	0.085580
O6	O	1.330361	0.491358	0.585580
O7	O	0.818626	0.194670	0.085620
O8	O	1.318626	0.694670	0.585620
O9	O	0.830347	-0.008636	-0.085554
O10	O	1.330347	0.491364	0.414446
O11	O	0.722824	0.098889	-0.085535
O12	O	1.222824	0.598889	0.414465
O13	O	0.926136	0.087151	-0.085533
O14	O	1.426136	0.587151	0.414467
Cu15	Cu	0.824478	0.093021	-0.101160
Cu16	Cu	1.324478	0.593021	0.398840
Cu17	Cu	0.824495	0.093013	0.101226
Cu18	Cu	1.324495	0.593013	0.601226
O19	O	0.818613	0.194676	-0.085514
O20	O	1.318613	0.694676	0.414486
C21	C	0.696820	0.098507	0.000032
C22	C	1.196820	0.598507	0.500032
C23	C	0.619315	0.097367	0.000031
C24	C	1.119315	0.597367	0.500031
C25	C	0.057545	0.152831	0.000044
C26	C	0.557545	0.652831	0.500044
C27	C	0.130368	0.153908	0.000050
C28	C	0.630368	0.653908	0.500050
C29	C	0.175302	0.090816	0.000035
C30	C	0.675302	0.590816	0.500035
C31	C	0.147408	0.026642	0.000042
C32	C	0.647408	0.526642	0.500042
C33	C	0.074586	0.025568	0.000046
C34	C	0.574586	0.525568	0.500046
N35	N	0.295975	0.045142	-0.058229
N36	N	0.795975	0.545142	0.441771
N37	N	0.365152	0.046167	-0.058235
N38	N	0.865152	0.546167	0.441765
C39	C	0.394712	0.094050	0.000024
C40	C	0.894712	0.594050	0.500024
N41	N	0.352479	0.140879	0.058277
N42	N	0.852479	0.640879	0.558277
N43	N	0.283295	0.139856	0.058279
N44	N	0.783295	0.639856	0.558279
C45	C	0.254267	0.091974	0.000031
C46	C	0.754267	0.591974	0.500031
C47	C	0.501561	0.159386	0.000031
C48	C	1.001561	0.659386	0.500031
C49	C	0.574385	0.160460	0.000043
C50	C	1.074385	0.660460	0.500043
C51	C	0.591425	0.033193	0.000025
C52	C	1.091425	0.533193	0.500025
C53	C	0.518601	0.032121	0.000023
C54	C	1.018601	0.532121	0.500023
C55	C	0.473673	0.095220	0.000021
C56	C	0.973673	0.595220	0.500021
C57	C	0.829974	-0.034650	0.000010
C58	C	1.329974	0.465350	0.500010
C59	C	0.828833	-0.112154	0.000001
C60	C	1.328833	0.387846	0.500001
C61	C	0.891924	-0.157079	-0.000003
C62	C	1.391924	0.342921	0.499997
C63	C	0.890852	-0.229903	0.000013
C64	C	1.390852	0.270097	0.500013
C65	C	0.826686	-0.257799	0.000013
C66	C	1.326686	0.242201	0.500013
C67	C	0.763587	-0.212864	0.000024
C68	C	1.263587	0.287136	0.500024
C69	C	0.764660	-0.140041	0.000018
C70	C	1.264660	0.359959	0.500018
N71	N	0.777634	-0.365801	-0.058227
N72	N	1.277634	0.134199	0.441773
N73	N	0.776619	-0.434979	-0.058223
N74	N	1.276619	0.065021	0.441777
C75	C	0.823448	-0.477207	0.000034
C76	C	1.323448	0.022793	0.500034
N77	N	0.871342	-0.447645	0.058275
N78	N	1.371342	0.052355	0.558275
N79	N	0.872359	-0.378460	0.058267
N80	N	1.372359	0.121540	0.558267
C81	C	0.825515	-0.336761	0.000021
C82	C	1.325515	0.163239	0.500021
C83	C	0.885381	-0.601097	0.000049
C84	C	1.385381	-0.101097	0.500049
C85	C	0.884307	-0.673922	0.000072
C86	C	1.384307	-0.173922	0.500072
C87	C	0.757040	-0.656880	0.000072
C88	C	1.257040	-0.156880	0.500072
C89	C	0.758116	-0.584057	0.000060
C90	C	1.258116	-0.084057	0.500060
C91	C	0.822289	-0.556170	0.000043
C92	C	1.322289	-0.056170	0.500043
C93	C	0.952154	0.087527	0.000036
C94	C	1.452154	0.587527	0.500036
C95	C	1.029658	0.088666	0.000044
C96	C	1.529658	0.588666	0.500044
C97	C	0.819000	0.220684	0.000058
C98	C	1.319000	0.720684	0.500058
C99	C	0.820140	0.298188	0.000074
C100	C	1.320140	0.798188	0.500074
N101	N	0.824472	0.093025	-0.243507
N102	N	1.324472	0.593025	0.256493
C103	C	0.824475	0.093027	-0.336613
C104	C	1.324475	0.593027	0.163387
C105	C	0.824482	0.093022	-0.453418
C106	C	1.324482	0.593022	0.046582
C107	C	0.824490	0.093015	-0.546516
C108	C	1.324490	0.593015	-0.046516
C109	C	0.824498	0.093011	-0.663329
C110	C	1.324498	0.593011	-0.163329
N111	N	0.824507	0.093003	0.243573
N112	N	1.324507	0.593003	0.743573
H113	H	0.944179	-0.134379	-0.000013
H114	H	1.444179	0.365621	0.499987
O115	O	0.952187	-0.273484	0.000141
O116	O	1.452187	0.226516	0.500141
C117	C	0.991169	-0.260884	0.088777
C118	C	1.491169	0.239116	0.588777
H119	H	0.973865	-0.205585	0.118329
H120	H	1.473865	0.294415	0.618329
H121	H	0.981750	-0.300683	0.150843
H122	H	1.481750	0.199317	0.650843
C123	C	1.091100	-0.335975	0.025543
C124	C	1.591100	0.164025	0.525543
C125	C	1.069851	-0.268054	0.061833
C126	C	1.569851	0.231946	0.561833
H127	H	1.139635	-0.340400	0.008925
H128	H	1.639635	0.159600	0.508925
H129	H	1.064837	-0.344466	-0.034172
H130	H	1.564837	0.155534	0.465828
H131	H	1.083245	-0.369133	0.077271
H132	H	1.583245	0.130867	0.577271
H133	H	1.077698	-0.234897	0.010101
H134	H	1.577698	0.265103	0.510101
H135	H	1.096118	-0.259556	0.121539
H136	H	1.596118	0.240444	0.621539
O137	O	0.157350	0.216302	-0.000002
O138	O	0.657350	0.716302	0.499998
C139	C	0.102080	0.271763	0.000027
C140	C	0.602080	0.771763	0.500027
H141	H	0.052662	0.252343	-0.032365
H142	H	0.552662	0.752343	0.467635
H143	H	0.091728	0.291220	0.082129
H144	H	0.591728	0.791220	0.582129
C145	C	0.183143	0.356143	-0.027308
C146	C	0.683143	0.856143	0.472692
C147	C	0.122448	0.332294	-0.067100
C148	C	0.622448	0.832294	0.432900
H149	H	0.195707	0.393484	-0.068711
H150	H	0.695707	0.893484	0.431289
H151	H	0.220380	0.318779	-0.027323
H152	H	0.720380	0.818779	0.472677
H153	H	0.174508	0.372353	0.041109
H154	H	0.674508	0.872353	0.541109
H155	H	0.131086	0.316076	-0.135511
H156	H	0.631086	0.816076	0.364489
H157	H	0.085213	0.369657	-0.067098
H158	H	0.585213	0.869657	0.432902
H159	H	0.937635	-0.578390	0.000040
H160	H	1.437635	-0.078390	0.500040
H161	H	0.704794	-0.679592	0.000078
H162	H	1.204794	-0.179592	0.500078
O163	O	0.191125	-0.034599	0.000163
O164	O	0.691125	0.465401	0.500163
C165	C	0.233758	-0.037792	0.088803
C166	C	0.733758	0.462208	0.588803
H167	H	0.237273	0.017617	0.118356
H168	H	0.737273	0.517617	0.618356
H169	H	0.209907	-0.069607	0.150866
H170	H	0.709907	0.430393	0.650866
C171	C	0.303483	-0.141203	0.025570
C172	C	0.803483	0.358797	0.525570
C173	C	0.307805	-0.073149	0.061863
C174	C	0.807805	0.426851	0.561863
H175	H	0.349158	-0.163016	0.008956
H176	H	0.849158	0.336984	0.508956
H177	H	0.274759	-0.139054	-0.034146
H178	H	0.774759	0.360946	0.465854
H179	H	0.283604	-0.167707	0.077296
H180	H	0.783604	0.332293	0.577296
H181	H	0.327675	-0.046644	0.010133
H182	H	0.827675	0.453356	0.510133
H183	H	0.336534	-0.075294	0.121571
H184	H	0.836534	0.424706	0.621571
O185	O	0.696764	-0.540512	0.000005
O186	O	1.196764	-0.040512	0.500005
C187	C	0.639898	-0.580746	0.000035
C188	C	1.139898	-0.080746	0.500035
H189	H	0.657784	-0.635157	-0.032358
H190	H	1.157784	-0.135157	0.467642
H191	H	0.620224	-0.585862	0.082137
H192	H	1.120224	-0.085862	0.582137
C193	C	0.558226	-0.477454	-0.027297
C194	C	1.058226	0.022546	0.472703
C195	C	0.580193	-0.544281	-0.067091
C196	C	1.080193	-0.044281	0.432909
H197	H	0.521396	-0.454960	-0.068699
H198	H	1.021396	0.045040	0.431301
H199	H	0.596538	-0.450347	-0.027314
H200	H	1.096538	0.049653	0.472686
H201	H	0.541836	-0.481726	0.041120
H202	H	1.041836	0.018274	0.541120
H203	H	0.596591	-0.540007	-0.135502
H204	H	1.096591	-0.040007	0.364498
H205	H	0.541883	-0.571386	-0.067088
H206	H	1.041883	-0.071386	0.432912
H207	H	0.711342	-0.235581	0.000026
H208	H	1.211342	0.264419	0.500026
H209	H	0.713282	-0.103462	0.000021
H210	H	1.213282	0.396538	0.500021
O211	O	0.491592	-0.030254	0.000148
O212	O	0.991592	0.469746	0.500148
C213	C	0.514566	-0.068696	0.088785
C214	C	1.014566	0.431304	0.588785
H215	H	0.565020	-0.049822	0.118336
H216	H	1.065020	0.450178	0.618336
H217	H	0.472406	-0.060482	0.150852
H218	H	0.972406	0.439518	0.650852
C219	C	0.466491	-0.170460	0.025555
C220	C	0.966491	0.329540	0.525555
C221	C	0.528462	-0.147283	0.061844
C222	C	1.028462	0.352717	0.561844
H223	H	0.475060	-0.218937	0.008939
H224	H	0.975060	0.281063	0.508939
H225	H	0.451011	-0.144561	-0.034160
H226	H	0.951011	0.355439	0.465840
H227	H	0.431364	-0.163609	0.077283
H228	H	0.931364	0.336391	0.577283
H229	H	0.563585	-0.154126	0.010112
H230	H	1.063585	0.345874	0.510112
H231	H	0.543949	-0.173186	0.121550
H232	H	1.043949	0.326814	0.621550
O233	O	0.458012	0.220741	0.000090
O234	O	0.958012	0.720741	0.500090
C235	C	0.498245	0.277608	0.000078
C236	C	0.998245	0.777608	0.500078
H237	H	0.552657	0.259718	0.032472
H238	H	1.052657	0.759718	0.532472
H239	H	0.503362	0.297293	-0.082019
H240	H	1.003362	0.797293	0.417981
C241	C	0.394953	0.359275	0.027419
C242	C	0.894953	0.859275	0.527419
C243	C	0.461780	0.337304	0.067214
C244	C	0.961780	0.837304	0.567214
H245	H	0.372458	0.396100	0.068827
H246	H	0.872458	0.896100	0.568827
H247	H	0.367846	0.320963	0.027423
H248	H	0.867846	0.820963	0.527423
H249	H	0.399226	0.375674	-0.040995
H250	H	0.899226	0.875674	0.459005
H251	H	0.457505	0.320897	0.135620
H252	H	0.957505	0.820897	0.635620
H253	H	0.488885	0.375614	0.067222
H254	H	0.988885	0.875614	0.567222
H255	H	0.597088	0.212713	0.000051
H256	H	1.097088	0.712713	0.500051
H257	H	0.935686	-0.710500	0.000074
H258	H	1.435686	-0.210500	0.500074
H259	H	0.020968	0.204211	0.000047
H260	H	0.520968	0.704211	0.500047
H261	H	0.051883	-0.026685	0.000047
H262	H	0.551883	0.473315	0.500047
H263	H	0.628010	-0.018178	0.000021
H264	H	1.128010	0.481822	0.500021
