data_functionalizedCrystal
_audit_creation_method	'MofGen! by Chris Wilmer'
_symmetry_space_group_name_H-M	'P1'
_symmetry_Int_Tables_number	1
_symmetry_cell_setting	triclinic
loop_
_symmetry_equiv_pos_as_xyz
  x,y,z
_cell_length_a	12.594517
_cell_length_b	18.050589
_cell_length_c	18.050582
_cell_angle_alpha	89.981795
_cell_angle_beta	89.984776
_cell_angle_gamma	90.028021
loop_
_atom_site_label
_atom_site_type_symbol
_atom_site_fract_x
_atom_site_fract_y
_atom_site_fract_z
Zn1	Zn	1.627113	-0.295711	-0.419941
Zn2	Zn	1.626985	-0.419894	-0.295761
Zn3	Zn	1.449136	-0.295722	-0.295765
Zn4	Zn	1.449061	-0.419863	-0.419908
O5	O	1.538074	-0.357797	-0.357844
O6	O	1.776042	-0.312192	-0.403480
O7	O	1.603370	-0.403440	-0.191836
O8	O	1.472829	-0.191796	-0.312252
O9	O	1.775948	-0.403429	-0.312245
O10	O	1.603589	-0.191787	-0.403484
O11	O	1.472705	-0.312211	-0.191839
O12	O	1.300180	-0.312181	-0.312220
O13	O	1.472702	-0.403376	-0.523837
O14	O	1.300125	-0.403387	-0.403428
O15	O	1.603516	-0.312162	-0.523861
O16	O	1.603298	-0.523814	-0.312214
O17	O	1.472578	-0.523792	-0.403425
C18	C	1.261533	-0.357782	-0.357822
C19	C	1.143227	-0.357794	-0.357830
C20	C	1.073973	-0.308119	-0.308317
C21	C	1.003144	-0.375858	-0.290051
C22	C	1.003257	-0.290088	-0.376109
C23	C	1.073957	-0.425569	-0.339529
C24	C	1.074076	-0.339752	-0.425618
C25	C	1.003279	-0.407538	-0.407378
C26	C	1.537945	-0.550749	-0.357831
C27	C	1.537988	-0.633295	-0.357851
C28	C	1.466972	-0.832760	-0.407434
C29	C	1.441034	-0.882194	-0.339667
C30	C	1.538092	-0.784426	-0.357861
C31	C	1.564082	-0.882073	-0.425636
C32	C	1.538191	-0.930411	-0.357876
C33	C	1.512103	-0.832772	-0.290057
C34	C	1.635197	-0.832647	-0.376072
C35	C	1.609295	-0.882058	-0.308258
C36	C	1.538032	-0.700327	-0.357853
C37	C	1.538251	-1.014507	-0.357876
C38	C	1.815694	-0.357813	-0.357866
C39	C	1.934000	-0.357819	-0.357876
C40	C	1.538115	-0.357764	-0.551549
C41	C	1.538133	-0.357750	-0.634095
C42	C	1.538232	-0.164092	-0.357872
C43	C	1.538299	-0.081546	-0.357884
C44	C	1.467051	-0.407285	-0.833533
C45	C	1.564158	-0.425439	-0.882926
C46	C	1.538186	-0.357694	-0.785226
C47	C	1.441131	-0.339519	-0.882914
C48	C	1.538228	-0.357640	-0.931211
C49	C	1.635344	-0.375883	-0.833531
C50	C	1.512251	-0.289932	-0.833515
C51	C	1.609426	-0.308060	-0.882886
C52	C	1.538160	-0.357726	-0.701127
C53	C	1.538264	-0.357608	-1.015307
C54	C	1.538093	-0.357777	-0.164892
C55	C	1.538282	-0.357581	-0.082346
H56	H	0.972434	-0.449606	-0.449269
Br57	Br	1.125712	-0.238169	-0.238446
H58	H	1.717463	-0.391297	-0.811930
Br59	Br	1.125494	-0.521049	-0.313683
H60	H	1.586119	-0.482720	-0.904629
Br61	Br	0.951482	-0.194639	-0.401843
H62	H	0.971989	-0.391134	-0.232743
H63	H	1.669482	-0.903568	-0.266293
Br64	Br	1.366588	-0.796679	-0.477212
H65	H	1.358962	-0.903974	-0.324277
Br66	Br	1.475376	-0.796833	-0.194507
Br67	Br	1.771960	-0.796346	-0.401775
H68	H	1.669670	-0.266100	-0.904419
Br69	Br	1.475603	-0.194484	-0.797312
H70	H	1.105256	-0.324456	-0.482909
Br71	Br	1.600654	-0.918174	-0.521154
H72	H	1.406951	-0.449277	-0.811863
Br73	Br	1.304304	-0.313935	-0.919073
