data_functionalizedCrystal
_audit_creation_method	'MofGen! by Chris Wilmer'
_symmetry_space_group_name_H-M	'P1'
_symmetry_Int_Tables_number	1
_symmetry_cell_setting	triclinic
loop_
_symmetry_equiv_pos_as_xyz
  x,y,z
_cell_length_a	14.853558
_cell_length_b	14.519731
_cell_length_c	13.330367
_cell_angle_alpha	89.994378
_cell_angle_beta	89.992972
_cell_angle_gamma	83.659993
loop_
_atom_site_label
_atom_site_type_symbol
_atom_site_fract_x
_atom_site_fract_y
_atom_site_fract_z
O1	O	1.196430	0.120363	-0.083414
O2	O	1.696430	0.620363	0.416586
O3	O	0.933976	0.134715	-0.083418
O4	O	1.433976	0.634715	0.416582
O5	O	1.072151	-0.006701	-0.083407
O6	O	1.572151	0.493299	0.416593
O7	O	1.058254	0.261779	-0.083425
O8	O	1.558254	0.761779	0.416575
O9	O	1.072131	-0.006705	0.083440
O10	O	1.572131	0.493295	0.583440
O11	O	0.933956	0.134712	0.083429
O12	O	1.433956	0.634712	0.583429
O13	O	1.196410	0.120360	0.083434
O14	O	1.696410	0.620360	0.583434
Cu15	Cu	1.065181	0.127535	0.098666
Cu16	Cu	1.565181	0.627535	0.598666
Cu17	Cu	1.065205	0.127539	-0.098650
Cu18	Cu	1.565205	0.627539	0.401350
O19	O	1.058234	0.261776	0.083422
O20	O	1.558234	0.761776	0.583422
C21	C	0.900377	0.134064	0.000005
C22	C	1.400377	0.634064	0.500005
C23	C	0.800291	0.132120	0.000003
C24	C	1.300291	0.632120	0.500003
C25	C	0.753282	0.131210	-0.090949
C26	C	1.253282	0.631210	0.409051
C27	C	0.753258	0.131196	0.090954
C28	C	1.253258	0.631196	0.590954
C29	C	0.659224	0.129364	0.090956
C30	C	1.159224	0.629364	0.590956
C31	C	0.612214	0.128454	0.000004
C32	C	1.112214	0.628454	0.500004
C33	C	0.659239	0.129376	-0.090950
C34	C	1.159239	0.629376	0.409050
C35	C	0.612193	0.128433	0.181908
C36	C	1.112193	0.628433	0.681908
C37	C	0.518153	0.126601	0.181913
C38	C	1.018153	0.626601	0.681913
C39	C	0.471141	0.125697	0.090960
C40	C	0.971141	0.625697	0.590960
C41	C	0.518171	0.126620	0.000003
C42	C	1.018171	0.626620	0.500003
C43	C	0.471162	0.125710	-0.090949
C44	C	0.971162	0.625710	0.409051
C45	C	0.518190	0.126639	-0.181908
C46	C	1.018190	0.626639	0.318092
C47	C	0.612227	0.128472	-0.181903
C48	C	1.112227	0.628472	0.318097
C49	C	0.377104	0.123864	0.090956
C50	C	0.877104	0.623864	0.590956
C51	C	0.377119	0.123875	-0.090950
C52	C	0.877119	0.623875	0.409050
C53	C	1.071490	-0.041062	0.000017
C54	C	1.571490	0.458938	0.500017
C55	C	1.069539	-0.143442	0.000018
C56	C	1.569539	0.356558	0.500018
C57	C	1.067953	-0.226585	0.000015
C58	C	1.567953	0.273415	0.500015
C59	C	1.065972	-0.330893	0.000008
C60	C	1.565972	0.169107	0.500008
C61	C	1.064400	-0.414031	0.000001
C62	C	1.564400	0.085969	0.500001
C63	C	1.062419	-0.518346	-0.000005
C64	C	1.562419	-0.018346	0.499995
C65	C	1.230009	0.121010	0.000008
C66	C	1.730009	0.621010	0.500008
C67	C	1.330094	0.122954	0.000003
C68	C	1.830094	0.622954	0.500003
C69	C	1.058895	0.296136	-0.000004
C70	C	1.558895	0.796136	0.499996
C71	C	1.060847	0.398516	-0.000011
C72	C	1.560847	0.898516	0.499989
N73	N	1.065171	0.127532	0.237447
N74	N	1.565171	0.627532	0.737447
N75	N	1.065222	0.127535	-0.237432
N76	N	1.565222	0.627535	0.262568
C77	C	1.004018	0.190133	0.710065
C78	C	1.504018	0.690133	1.210065
C79	C	1.126416	0.064937	0.710043
C80	C	1.626416	0.564937	1.210043
C81	C	1.126405	0.064934	0.605025
C82	C	1.626405	0.564934	1.105025
C83	C	1.065201	0.127533	0.552522
C84	C	1.565201	0.627533	1.052522
C85	C	1.004007	0.190134	0.605037
C86	C	1.504007	0.690134	1.105037
C87	C	1.187604	0.002341	0.552502
C88	C	1.687604	0.502341	1.052502
C89	C	1.187597	0.002336	0.447477
C90	C	1.687597	0.502336	0.947477
C91	C	1.126388	0.064931	0.394972
C92	C	1.626388	0.564931	0.894972
C93	C	1.065191	0.127534	0.447494
C94	C	1.565191	0.627534	0.947494
C95	C	1.003987	0.190132	0.394990
C96	C	1.503987	0.690132	0.894990
C97	C	0.942785	0.252732	0.447510
C98	C	1.442785	0.752732	0.947510
C99	C	0.942798	0.252729	0.552532
C100	C	1.442798	0.752729	1.052532
C101	C	1.126375	0.064934	0.289950
C102	C	1.626375	0.564934	0.789950
C103	C	1.003977	0.190133	0.289962
C104	C	1.503977	0.690133	0.789962
H105	H	0.650476	0.129166	0.255956
H106	H	1.150476	0.629166	0.755956
H107	H	0.338849	0.123140	-0.165016
H108	H	0.838849	0.623140	0.334984
H109	H	1.176209	0.013970	0.247194
H110	H	1.676209	0.513970	0.747194
C111	C	0.527585	0.126780	0.361721
C112	C	1.027585	0.626780	0.861721
C113	C	0.466463	0.125592	0.281892
C114	C	0.966463	0.625592	0.781892
H115	H	0.495669	0.126166	0.423442
H116	H	0.995669	0.626166	0.923442
H117	H	0.571044	0.073759	0.357942
H118	H	1.071044	0.573759	0.857942
H119	H	0.557482	0.181233	0.357926
H120	H	1.057482	0.681233	0.857926
H121	H	0.436570	0.071136	0.285683
H122	H	0.936570	0.571136	0.785683
H123	H	0.422987	0.178619	0.285673
H124	H	0.922987	0.678619	0.785673
C125	C	1.240155	-0.157259	0.415429
C126	C	1.740155	0.342741	0.915429
C127	C	1.254858	-0.066580	0.389876
C128	C	1.754858	0.433420	0.889876
H129	H	1.281674	-0.199835	0.379900
H130	H	1.781674	0.300165	0.879900
H131	H	1.248854	-0.166103	0.485506
H132	H	1.748854	0.333897	0.985506
H133	H	1.179968	-0.167341	0.398195
H134	H	1.679968	0.332659	0.898195
H135	H	1.315044	-0.056496	0.407118
H136	H	1.815044	0.443504	0.907118
H137	H	1.246167	-0.057733	0.319784
H138	H	1.746167	0.442267	0.819784
H139	H	0.892956	0.303704	0.404750
H140	H	1.392956	0.803704	0.904750
H141	H	0.892971	0.303696	0.595300
H142	H	1.392971	0.803696	1.095300
C143	C	0.374041	0.123830	-0.262665
C144	C	0.874041	0.623830	0.237335
C145	C	0.466510	0.125640	-0.281881
C146	C	0.966510	0.625640	0.218119
H147	H	0.342135	0.123219	-0.324383
H148	H	0.842135	0.623219	0.175617
H149	H	0.365427	0.069791	-0.225302
H150	H	0.865427	0.569791	0.274698
H151	H	0.351848	0.177264	-0.225288
H152	H	0.851848	0.677264	0.274712
H153	H	0.488705	0.072202	-0.319251
H154	H	0.988705	0.572202	0.180749
H155	H	0.475129	0.179685	-0.319260
H156	H	0.975129	0.679685	0.180740
C157	C	0.848041	0.243990	0.742426
C158	C	1.348041	0.743990	1.242426
C159	C	0.936744	0.258936	0.767792
C160	C	1.436744	0.758936	1.267792
H161	H	0.806511	0.286462	0.778072
H162	H	1.306511	0.786462	1.278072
H163	H	0.839286	0.252955	0.672374
H164	H	1.339286	0.752955	1.172374
H165	H	0.838167	0.182417	0.759648
H166	H	1.338167	0.682417	1.259648
H167	H	0.946621	0.320507	0.750563
H168	H	1.446621	0.820507	1.250563
H169	H	0.945504	0.249978	0.837860
H170	H	1.445504	0.749978	1.337860
C171	C	1.206951	-0.123126	0.670616
C172	C	1.706951	0.376874	1.170616
C173	C	1.254869	-0.066465	0.610222
C174	C	1.754869	0.433535	1.110222
H175	H	1.248478	-0.165609	0.706250
H176	H	1.748478	0.334391	1.206250
H177	H	1.170509	-0.085841	0.716909
H178	H	1.670509	0.414159	1.216909
H179	H	1.169377	-0.156368	0.629641
H180	H	1.669377	0.343632	1.129641
H181	H	1.292438	-0.033218	0.651198
H182	H	1.792438	0.466782	1.151198
H183	H	1.291327	-0.103754	0.563923
H184	H	1.791327	0.396246	1.063923
H185	H	0.338816	0.123116	0.165013
H186	H	0.838816	0.623116	0.665013
H187	H	0.954133	0.241106	0.247220
H188	H	1.454133	0.741106	0.747220
H189	H	0.791576	0.131971	-0.165005
H190	H	1.291576	0.631971	0.334995
C191	C	0.756391	0.131272	-0.262667
C192	C	1.256391	0.631272	0.237333
C193	C	0.663923	0.129481	-0.281878
C194	C	1.163923	0.629481	0.218122
H195	H	0.788307	0.131886	-0.324387
H196	H	1.288307	0.631886	0.175613
H197	H	0.765007	0.185304	-0.225307
H198	H	1.265007	0.685304	0.274693
H199	H	0.778570	0.077831	-0.225290
H200	H	1.278570	0.577831	0.274710
H201	H	0.641742	0.182926	-0.319249
H202	H	1.141742	0.682926	0.180751
H203	H	0.655301	0.075443	-0.319253
H204	H	1.155301	0.575443	0.180747
H205	H	0.791540	0.131929	0.165003
H206	H	1.291540	0.631929	0.665003
H207	H	1.176251	0.013976	0.752795
H208	H	1.676251	0.513976	1.252795
