data_functionalizedCrystal
_audit_creation_method	'MofGen! by Chris Wilmer'
_symmetry_space_group_name_H-M	'P1'
_symmetry_Int_Tables_number	1
_symmetry_cell_setting	triclinic
loop_
_symmetry_equiv_pos_as_xyz
  x,y,z
_cell_length_a	12.811445
_cell_length_b	16.776229
_cell_length_c	17.699083
_cell_angle_alpha	90.005210
_cell_angle_beta	83.665952
_cell_angle_gamma	84.564939
loop_
_atom_site_label
_atom_site_type_symbol
_atom_site_fract_x
_atom_site_fract_y
_atom_site_fract_z
O1	O	1.392415	-0.166940	0.101936
O2	O	1.892415	0.333060	0.601936
O3	O	1.086803	-0.144851	0.113020
O4	O	1.586803	0.355149	0.613020
O5	O	1.248244	-0.156512	-0.002672
O6	O	1.748244	0.343488	0.497328
O7	O	1.230975	-0.155278	0.217629
O8	O	1.730975	0.344722	0.717629
O9	O	1.248229	-0.023935	-0.002652
O10	O	1.748229	0.476065	0.497348
O11	O	1.086788	-0.012273	0.113040
O12	O	1.586788	0.487727	0.613040
O13	O	1.392401	-0.034362	0.101957
O14	O	1.892401	0.465638	0.601957
Zn15	Zn	1.239592	-0.002268	0.107502
Zn16	Zn	1.739592	0.497732	0.607502
Zn17	Zn	1.239612	-0.176945	0.107475
Zn18	Zn	1.739612	0.323055	0.607475
O19	O	1.230960	-0.022701	0.217649
O20	O	1.730960	0.477299	0.717649
C21	C	1.047693	-0.075735	0.112409
C22	C	1.547693	0.424265	0.612409
C23	C	0.931180	-0.067314	0.110548
C24	C	1.431180	0.432686	0.610548
C25	C	1.247617	-0.090179	-0.030862
C26	C	1.747617	0.409821	0.469138
C27	C	1.245761	-0.090044	-0.114888
C28	C	1.745761	0.409956	0.385112
C29	C	0.712251	-0.196039	0.107044
C30	C	1.212251	0.303961	0.607044
C31	C	0.602776	-0.188130	0.105297
C32	C	1.102776	0.311870	0.605297
C33	C	0.602753	-0.043586	0.105310
C34	C	1.102753	0.456414	0.605310
C35	C	0.712228	-0.051496	0.107058
C36	C	1.212228	0.448504	0.607058
C37	C	0.766973	-0.127725	0.107924
C38	C	1.266973	0.372275	0.607924
C39	C	0.876450	-0.135634	0.109666
C40	C	1.376450	0.364366	0.609666
C41	C	0.876424	0.008910	0.109685
C42	C	1.376424	0.508910	0.609685
C43	C	0.766950	0.016819	0.107937
C44	C	1.266950	0.516819	0.607937
C45	C	1.431511	-0.103479	0.102568
C46	C	1.931511	0.396521	0.602568
C47	C	1.548024	-0.111906	0.104428
C48	C	2.048024	0.388094	0.604428
N49	N	1.239586	0.116944	0.107519
N50	N	1.739586	0.616944	0.607519
N51	N	1.239626	-0.296157	0.107451
N52	N	1.739626	0.203843	0.607451
C53	C	1.176087	0.666708	0.061326
C54	C	1.676087	1.166708	0.561326
C55	C	1.176085	0.583256	0.061332
C56	C	1.676085	1.083256	0.561332
C57	C	1.239616	0.536941	0.107468
C58	C	1.739616	1.036941	0.607468
C59	C	1.303162	0.574081	0.153596
C60	C	1.803162	1.074081	0.653596
C61	C	1.303169	0.657531	0.153585
C62	C	1.803169	1.157531	0.653585
C63	C	1.303134	0.237536	0.153640
C64	C	1.803134	0.737536	0.653640
C65	C	1.303120	0.154080	0.153649
C66	C	1.803120	0.654080	0.653649
C67	C	1.176050	0.163261	0.061388
C68	C	1.676050	0.663261	0.561388
C69	C	1.176057	0.246711	0.061377
C70	C	1.676057	0.746711	0.561377
C71	C	1.239607	0.283844	0.107501
C72	C	1.739607	0.783844	0.607501
C73	C	1.239610	0.374332	0.107492
C74	C	1.739610	0.874332	0.607492
C75	C	1.239608	0.446455	0.107482
C76	C	1.739608	0.946455	0.607482
C77	C	1.340523	-0.096892	-0.163085
C78	C	1.840523	0.403108	0.336915
C79	C	1.338773	-0.096773	-0.242036
C80	C	1.838773	0.403227	0.257964
C81	C	1.242259	-0.089799	-0.272789
C82	C	1.742259	0.410201	0.227211
C83	C	1.147489	-0.082953	-0.224587
C84	C	1.647489	0.417047	0.275413
C85	C	1.149241	-0.083078	-0.145637
C86	C	1.649241	0.416922	0.354363
C87	C	1.140423	-0.082449	-0.542981
C88	C	1.640423	0.417551	-0.042981
C89	C	1.138679	-0.082322	-0.621937
C90	C	1.638679	0.417678	-0.121937
C91	C	1.329955	-0.096143	-0.639380
C92	C	1.829955	0.403857	-0.139380
C93	C	1.331707	-0.096269	-0.560431
C94	C	1.831707	0.403731	-0.060431
C95	C	1.236938	-0.089427	-0.512235
C96	C	1.736938	0.410573	-0.012235
C97	C	1.238837	-0.089558	-0.426627
C98	C	1.738837	0.410442	0.073373
C99	C	1.240359	-0.089662	-0.358395
C100	C	1.740359	0.410338	0.141605
C101	C	1.231586	-0.089036	0.245838
C102	C	1.731586	0.410964	0.745838
C103	C	1.233442	-0.089176	0.329865
C104	C	1.733442	0.410824	0.829865
H105	H	0.921022	-0.197703	0.110371
H106	H	1.421022	0.302297	0.610371
H107	H	0.722361	0.078883	0.107235
H108	H	1.222361	0.578883	0.607235
C109	C	1.034938	0.770764	0.056077
C110	C	1.534938	1.270764	0.556077
C111	C	1.106249	0.717612	0.010610
C112	C	1.606249	1.217612	0.510610
H113	H	0.991821	0.802184	0.024763
H114	H	1.491821	1.302184	0.524763
H115	H	1.072778	0.804824	0.083538
H116	H	1.572778	1.304824	0.583538
H117	H	0.991841	0.741328	0.090756
H118	H	1.491841	1.241328	0.590756
H119	H	1.149352	0.747049	-0.024066
H120	H	1.649352	1.247049	0.475934
H121	H	1.068406	0.683548	-0.016864
H122	H	1.568406	1.183548	0.483136
C123	C	1.044230	0.060972	0.112364
C124	C	1.544230	0.560972	0.612364
C125	C	0.936578	0.084008	0.110650
C126	C	1.436578	0.584008	0.610650
H127	H	1.081364	0.107334	0.112961
H128	H	1.581364	0.607334	0.612961
H129	H	1.070280	0.029398	0.068568
H130	H	1.570280	0.529398	0.568568
H131	H	1.054054	0.030571	0.156734
H132	H	1.554054	0.530571	0.656734
H133	H	0.926753	0.114404	0.066276
H134	H	1.426753	0.614404	0.566276
H135	H	0.910520	0.115596	0.154450
H136	H	1.410520	0.615596	0.654450
H137	H	1.419116	-0.102566	-0.138052
H138	H	1.919116	0.397434	0.361948
C139	C	1.528021	-0.110428	-0.251349
C140	C	2.028021	0.389572	0.248651
C141	C	1.442939	-0.104291	-0.295014
C142	C	1.942939	0.395709	0.204986
H143	H	1.592330	-0.115065	-0.284056
H144	H	2.092330	0.384935	0.215944
H145	H	1.524739	-0.156420	-0.220199
H146	H	2.024739	0.343580	0.279801
H147	H	1.524703	-0.063952	-0.220186
H148	H	2.024703	0.436048	0.279814
H149	H	1.446253	-0.150770	-0.326173
H150	H	1.946253	0.349230	0.173827
H151	H	1.446223	-0.058295	-0.326177
H152	H	1.946223	0.441705	0.173823
C153	C	1.031415	-0.142730	-0.444099
C154	C	1.531415	0.357270	0.055901
C155	C	1.036251	-0.074924	-0.490015
C156	C	1.536251	0.425076	0.009985
H157	H	0.967095	-0.138085	-0.411403
H158	H	1.467095	0.361915	0.088597
H159	H	1.089131	-0.146896	-0.414481
H160	H	1.589131	0.353104	0.085519
H161	H	1.034722	-0.189194	-0.475276
H162	H	1.534722	0.310806	0.024724
H163	H	1.032952	-0.028460	-0.458839
H164	H	1.532952	0.471540	0.041161
H165	H	0.978520	-0.070750	-0.519636
H166	H	1.478520	0.429250	-0.019636
C167	C	0.959991	-0.069398	-0.136319
C168	C	1.459991	0.430602	0.363681
C169	C	1.045075	-0.075548	-0.092656
C170	C	1.545075	0.424452	0.407344
H171	H	0.895683	-0.064748	-0.103610
H172	H	1.395683	0.435252	0.396390
H173	H	0.963293	-0.115866	-0.167479
H174	H	1.463293	0.384134	0.332521
H175	H	0.963286	-0.023400	-0.167472
H176	H	1.463286	0.476600	0.332528
H177	H	1.041785	-0.121550	-0.061507
H178	H	1.541785	0.378450	0.438493
H179	H	1.041771	-0.029076	-0.061483
H180	H	1.541771	0.470924	0.438517
C181	C	1.428754	0.153381	0.244839
C182	C	1.928754	0.653381	0.744839
C183	C	1.372967	0.103168	0.204360
C184	C	1.872967	0.603168	0.704360
H185	H	1.471875	0.121948	0.276140
H186	H	1.971875	0.621948	0.776140
H187	H	1.380384	0.189437	0.275680
H188	H	1.880384	0.689437	0.775680
H189	H	1.471851	0.182804	0.210147
H190	H	1.971851	0.682804	0.710147
H191	H	1.329863	0.073749	0.239053
H192	H	1.829863	0.573749	0.739053
H193	H	1.421343	0.067097	0.173517
H194	H	1.921343	0.567097	0.673517
H195	H	0.558159	0.018476	0.104612
H196	H	1.058159	0.518476	0.604612
H197	H	1.060081	-0.076641	-0.646973
H198	H	1.560081	0.423359	-0.146973
C199	C	1.050433	0.180720	-0.029811
C200	C	1.550433	0.680720	0.470189
C201	C	1.106200	0.122443	0.010680
C202	C	1.606200	0.622443	0.510680
H203	H	1.007305	0.155521	-0.061109
H204	H	1.507305	0.655521	0.438891
H205	H	1.098815	0.209759	-0.060656
H206	H	1.598815	0.709759	0.439344
H207	H	1.007343	0.216396	0.004874
H208	H	1.507343	0.716396	0.504874
H209	H	1.149296	0.086770	-0.024005
H210	H	1.649296	0.586770	0.475995
H211	H	1.057811	0.093391	0.041527
H212	H	1.557811	0.593391	0.541527
H213	H	0.756826	-0.258108	0.107746
H214	H	1.256826	0.241892	0.607746
H215	H	1.410298	-0.101943	-0.535396
H216	H	1.910298	0.398057	-0.035396
C217	C	0.613800	-0.331798	0.105455
C218	C	1.113800	0.168202	0.605455
C219	C	0.542625	-0.263224	0.104327
C220	C	1.042625	0.236776	0.604327
H221	H	0.576664	-0.378159	0.104853
H222	H	1.076664	0.121841	0.604853
H223	H	0.648381	-0.331290	0.150217
H224	H	1.148381	0.168710	0.650217
H225	H	0.664618	-0.332458	0.062051
H226	H	1.164618	0.167542	0.562051
H227	H	0.491812	-0.262561	0.147733
H228	H	0.991812	0.237439	0.647733
H229	H	0.508028	-0.263732	0.059560
H230	H	1.008028	0.236268	0.559560
C231	C	1.050465	0.600714	-0.029857
C232	C	1.550465	1.100714	0.470143
C233	C	1.106235	0.542438	0.010634
C234	C	1.606235	1.042438	0.510634
H235	H	1.007337	0.575513	-0.061154
H236	H	1.507337	1.075513	0.438846
H237	H	1.098846	0.629753	-0.060703
H238	H	1.598846	1.129753	0.439297
H239	H	1.007375	0.636390	0.004829
H240	H	1.507375	1.136390	0.504829
H241	H	1.149331	0.506766	-0.024052
H242	H	1.649331	1.006766	0.475948
H243	H	1.057849	0.513386	0.041482
H244	H	1.557849	1.013386	0.541482
H245	H	1.124320	0.284417	0.023810
H246	H	1.624320	0.784417	0.523810
H247	H	1.407121	-0.101718	-0.678631
H248	H	1.907121	0.398282	-0.178631
H249	H	1.354879	0.267759	0.191198
H250	H	1.854879	0.767759	0.691198
C251	C	1.359568	0.442084	0.194585
C252	C	1.859568	0.942084	0.694585
C253	C	1.372996	0.523173	0.204311
C254	C	1.872996	1.023173	0.704311
H255	H	1.402677	0.410658	0.225901
H256	H	1.902677	0.910658	0.725901
H257	H	1.379205	0.426977	0.142877
H258	H	1.879205	0.926977	0.642877
H259	H	1.287716	0.433621	0.208395
H260	H	1.787716	0.933621	0.708395
H261	H	1.444848	0.531637	0.190496
H262	H	1.944848	1.031637	0.690496
H263	H	1.353366	0.538284	0.256030
H264	H	1.853366	1.038284	0.756030
C265	C	1.059870	-0.076615	-0.337863
C266	C	1.559870	0.423385	0.162137
C267	C	1.041398	-0.075285	-0.258389
C268	C	1.541398	0.424715	0.241611
H269	H	0.994370	-0.071873	-0.358728
H270	H	1.494370	0.428127	0.141272
H271	H	1.098875	-0.125664	-0.354387
H272	H	1.598875	0.374336	0.145613
H273	H	1.098877	-0.033199	-0.354373
H274	H	1.598877	0.466801	0.145627
H275	H	1.002398	-0.118705	-0.241878
H276	H	1.502398	0.381295	0.258122
H277	H	1.002376	-0.026230	-0.241858
H278	H	1.502376	0.473770	0.258142
H279	H	1.354909	0.687765	0.191144
H280	H	1.854909	1.187765	0.691144
