data_functionalizedCrystal
_audit_creation_method	'MofGen! by Chris Wilmer'
_symmetry_space_group_name_H-M	'P1'
_symmetry_Int_Tables_number	1
_symmetry_cell_setting	triclinic
loop_
_symmetry_equiv_pos_as_xyz
  x,y,z
_cell_length_a	6.817900
_cell_length_b	9.582860
_cell_length_c	17.110486
_cell_angle_alpha	94.597236
_cell_angle_beta	99.060439
_cell_angle_gamma	111.206767
loop_
_atom_site_label
_atom_site_type_symbol
_atom_site_fract_x
_atom_site_fract_y
_atom_site_fract_z
V1	V	-4.016794	-0.206610	-0.246575
O2	O	-3.963368	0.010387	-0.242031
O3	O	-4.007936	-0.410114	-0.244746
O4	O	-3.945999	-0.203231	-0.354181
O5	O	-4.025733	-0.197929	-0.131838
V6	V	-4.498200	-0.180679	-0.232869
O7	O	-4.282696	-0.263493	-0.276641
O8	O	-4.682495	-0.123796	-0.202804
O9	O	-4.283852	0.022826	-0.234699
O10	O	-4.669024	-0.397676	-0.237414
O11	O	-4.606658	-0.189360	-0.347607
O12	O	-4.345788	-0.184058	-0.125264
C13	C	-3.863281	-0.459731	-0.240819
C14	C	-3.937176	-0.626097	-0.240040
C15	C	-3.784273	-0.195828	-0.380413
C16	C	-3.807936	-0.194412	-0.468381
C17	C	-4.001791	-0.201215	-0.513734
C18	C	-4.024012	-0.199884	-0.596388
C19	C	-3.852381	-0.191759	-0.633688
C20	C	-3.658509	-0.184950	-0.588329
C21	C	-3.636285	-0.186271	-0.505675
C22	C	-3.910336	-0.187387	-0.883046
C23	C	-3.932578	-0.186071	-0.965706
C24	C	-4.298080	-0.201001	-0.973759
C25	C	-4.275842	-0.202331	-0.891105
C26	C	-4.081969	-0.195514	-0.845752
C27	C	-3.875093	-0.190402	-0.718174
C28	C	-4.059255	-0.196860	-0.761266
C29	C	-4.091851	0.072434	-0.238624
C30	C	-3.997193	0.238798	-0.239408
C31	C	-4.170858	-0.191465	-0.099027
C32	C	-4.126433	-0.192874	-0.011059
H33	H	-4.141561	-0.207841	-0.483371
C34	C	-4.237258	-0.207351	-0.646271
N35	N	-4.397881	-0.212968	-0.683843
H36	H	-4.415606	-0.208945	-0.860741
H37	H	-4.455924	-0.206549	-1.010694
C38	C	-3.423033	-0.178793	-0.455787
N39	N	-3.262404	-0.173156	-0.418213
H40	H	-3.792802	-0.179450	-0.996073
H41	H	-3.752501	-0.181889	-0.846134
C42	C	-3.686212	-0.181263	-0.759197
N43	N	-3.543911	-0.174300	-0.790091
H44	H	-3.518761	-0.178326	-0.618705
H45	H	-4.198992	-0.203471	-0.730892
