data_functionalizedCrystal
_audit_creation_method	'MofGen! by Chris Wilmer'
_symmetry_space_group_name_H-M	'P1'
_symmetry_Int_Tables_number	1
_symmetry_cell_setting	triclinic
loop_
_symmetry_equiv_pos_as_xyz
  x,y,z
_cell_length_a	6.817900
_cell_length_b	14.125369
_cell_length_c	10.943624
_cell_angle_alpha	94.575607
_cell_angle_beta	108.838799
_cell_angle_gamma	100.397648
loop_
_atom_site_label
_atom_site_type_symbol
_atom_site_fract_x
_atom_site_fract_y
_atom_site_fract_z
V1	V	-4.072444	-0.133088	-0.402044
O2	O	-4.075281	0.006421	-0.394913
O3	O	-4.008074	-0.263917	-0.398792
O4	O	-4.051072	-0.131030	-0.577618
O5	O	-4.031985	-0.127385	-0.214848
V6	V	-4.554639	-0.116403	-0.379715
O7	O	-4.336615	-0.169689	-0.451024
O8	O	-4.740665	-0.079801	-0.330734
O9	O	-4.395802	0.014426	-0.382967
O10	O	-4.669198	-0.255912	-0.386846
O11	O	-4.712494	-0.122105	-0.566910
O12	O	-4.352804	-0.118461	-0.204140
C13	C	-3.848315	-0.295810	-0.392320
C14	C	-3.877152	-0.402764	-0.390831
C15	C	-4.116399	-0.650904	-0.393609
C16	C	-3.930063	-0.598587	-0.388155
C17	C	-3.900624	-0.489621	-0.389644
C18	C	-4.145846	-0.759880	-0.392119
C19	C	-3.903163	-0.126298	-0.620429
C20	C	-3.966867	-0.125481	-0.763958
C21	C	-3.813478	-0.119976	-0.841127
C22	C	-3.976406	-0.201682	-0.946805
C23	C	-3.917472	-0.042328	-0.914026
C24	C	-4.128981	-0.207263	-0.867760
C25	C	-4.069991	-0.047837	-0.834958
C26	C	-4.233048	-0.129566	-0.940606
C27	C	-4.218902	0.046314	-0.389435
C28	C	-4.169304	0.153267	-0.390932
C29	C	-4.164054	-0.123196	-0.161323
C30	C	-4.079589	-0.124008	-0.017792
H31	H	-3.635553	-0.116031	-0.797693
C32	C	-3.923868	-0.289544	-1.012613
C33	C	-3.692509	-0.301388	-0.974376
C34	C	-3.639954	-0.389245	-1.040176
C35	C	-3.818759	-0.465258	-1.144212
C36	C	-4.050134	-0.453417	-1.182454
C37	C	-4.102688	-0.365559	-1.116654
H38	H	-3.560133	-0.245116	-0.897358
H39	H	-3.468674	-0.398011	-1.011867
H40	H	-3.779855	-0.530296	-1.192921
H41	H	-4.182509	-0.509689	-1.259473
H42	H	-4.273968	-0.356794	-1.144964
H43	H	-4.217791	-0.277046	-0.846949
C44	C	-3.797514	0.051848	-0.942372
C45	C	-3.653374	0.046365	-1.024690
C46	C	-3.533401	0.140535	-1.053033
C47	C	-3.557569	0.240187	-0.999058
C48	C	-3.701715	0.245674	-0.916734
C49	C	-3.821688	0.151504	-0.888392
H50	H	-3.635478	-0.027407	-1.064650
H51	H	-3.426694	0.136473	-1.113974
H52	H	-3.468758	0.309897	-1.020039
H53	H	-3.719611	0.319446	-0.876774
H54	H	-3.928395	0.155566	-0.827450
C55	C	-4.122423	0.040030	-0.769104
C56	C	-4.353195	0.052895	-0.809008
C57	C	-4.405602	0.140772	-0.743149
C58	C	-4.227237	0.215783	-0.637386
C59	C	-3.996450	0.202920	-0.597477
C60	C	-3.944043	0.115043	-0.663336
H61	H	-4.485245	-0.002635	-0.887305
H62	H	-4.576446	0.150294	-0.772693
H63	H	-4.266032	0.280835	-0.588633
H64	H	-3.864400	0.258450	-0.519180
H65	H	-3.773198	0.105521	-0.633792
H66	H	-4.411045	-0.133640	-0.983835
H67	H	-4.253806	-0.613861	-0.399395
H68	H	-3.792644	-0.635632	-0.382366
