data_functionalizedCrystal
_audit_creation_method	'MofGen! by Chris Wilmer'
_symmetry_space_group_name_H-M	'P1'
_symmetry_Int_Tables_number	1
_symmetry_cell_setting	triclinic
loop_
_symmetry_equiv_pos_as_xyz
  x,y,z
_cell_length_a	25.639242
_cell_length_b	25.639239
_cell_length_c	25.639243
_cell_angle_alpha	90.014050
_cell_angle_beta	90.011922
_cell_angle_gamma	90.030990
loop_
_atom_site_label
_atom_site_type_symbol
_atom_site_fract_x
_atom_site_fract_y
_atom_site_fract_z
Zn1	Zn	0.799212	-0.208346	0.295633
Zn2	Zn	1.299212	0.291654	0.795633
Zn3	Zn	0.799140	-0.295758	0.208197
Zn4	Zn	1.299140	0.204242	0.708197
Zn5	Zn	0.711792	-0.208326	0.208209
Zn6	Zn	1.211792	0.291674	0.708209
Zn7	Zn	0.711734	-0.295740	0.295599
Zn8	Zn	1.211734	0.204260	0.795599
O9	O	0.755470	-0.252043	0.251910
O10	O	1.255470	0.247957	0.751910
O11	O	0.872368	-0.219957	0.284044
O12	O	1.372368	0.280043	0.784044
O13	O	0.787547	-0.284159	0.135034
O14	O	1.287547	0.215841	0.635034
O15	O	0.723444	-0.135164	0.219825
O16	O	1.223444	0.364836	0.719825
O17	O	0.872314	-0.284178	0.219805
O18	O	1.372314	0.215822	0.719805
O19	O	0.787671	-0.135178	0.284055
O20	O	1.287671	0.364822	0.784055
O21	O	0.723373	-0.219923	0.135042
O22	O	1.223373	0.280077	0.635042
O23	O	0.638620	-0.219907	0.219792
O24	O	1.138620	0.280093	0.719792
O25	O	0.723344	-0.284149	0.368769
O26	O	1.223344	0.215851	0.868769
O27	O	0.638576	-0.284129	0.283997
O28	O	1.138576	0.215871	0.783997
O29	O	0.787614	-0.219940	0.368794
O30	O	1.287614	0.280060	0.868794
O31	O	0.787490	-0.368921	0.219772
O32	O	1.287490	0.131079	0.719772
O33	O	0.723273	-0.368908	0.283986
O34	O	1.223273	0.131092	0.783986
C35	C	0.619627	-0.252014	0.251893
C36	C	1.119627	0.247986	0.751893
C37	C	0.561513	-0.252015	0.251898
C38	C	1.061513	0.247985	0.751898
C39	C	0.310355	-0.218662	0.285420
C40	C	0.810355	0.281338	0.785420
C41	C	0.364960	-0.218657	0.285417
C42	C	0.864960	0.281343	0.785417
O43	O	0.393227	-0.190277	0.313914
O44	O	0.893227	0.309723	0.813914
N45	N	0.392239	-0.252037	0.251916
N46	N	0.892239	0.247963	0.751916
C47	C	0.364911	-0.285427	0.218419
C48	C	0.864911	0.214573	0.718419
O49	O	0.393129	-0.313819	0.189924
O50	O	0.893129	0.186181	0.689924
C51	C	0.310308	-0.285435	0.218425
C52	C	0.810308	0.214565	0.718425
C53	C	0.283031	-0.252049	0.251925
C54	C	0.783031	0.247951	0.751925
C55	C	0.283079	-0.185280	0.318917
C56	C	0.783079	0.314720	0.818917
C57	C	0.228478	-0.185284	0.318919
C58	C	0.728478	0.314716	0.818919
C59	C	0.201154	-0.218671	0.285424
C60	C	0.701154	0.281329	0.785424
C61	C	0.228431	-0.252054	0.251927
C62	C	0.728431	0.247946	0.751927
C63	C	0.282981	-0.318827	0.184932
C64	C	0.782981	0.181173	0.684932
C65	C	0.228374	-0.318832	0.184941
C66	C	0.728374	0.181168	0.684941
C67	C	0.201098	-0.285447	0.218440
C68	C	0.701098	0.214553	0.718440
C69	C	0.146506	-0.285445	0.218434
C70	C	0.646506	0.214555	0.718434
N71	N	0.119227	-0.252066	0.251935
N72	N	0.619227	0.247934	0.751935
C73	C	0.146551	-0.218679	0.285430
C74	C	0.646551	0.281321	0.785430
C75	C	0.479582	-0.285410	0.218410
C76	C	0.979582	0.214590	0.718410
C77	C	0.534184	-0.285400	0.218401
C78	C	1.034184	0.214600	0.718401
C79	C	0.534229	-0.218630	0.285399
C80	C	1.034229	0.281370	0.785399
C81	C	0.479626	-0.218638	0.285405
C82	C	0.979626	0.281362	0.785405
C83	C	0.452303	-0.252030	0.251911
C84	C	0.952303	0.247970	0.751911
C85	C	0.031886	-0.218691	0.285432
C86	C	0.531886	0.281309	0.785432
C87	C	-0.022719	-0.218697	0.285429
C88	C	0.477281	0.281303	0.785429
C89	C	-0.022759	-0.285468	0.218433
C90	C	0.477241	0.214532	0.718433
C91	C	0.031841	-0.285460	0.218433
C92	C	0.531841	0.214540	0.718433
C93	C	0.059163	-0.252070	0.251937
C94	C	0.559163	0.247930	0.751937
O95	O	0.118205	-0.313813	0.189952
O96	O	0.618205	0.186187	0.689952
O97	O	0.118327	-0.190297	0.313925
O98	O	0.618327	0.309703	0.813925
C99	C	0.755382	-0.387885	0.251886
C100	C	1.255382	0.112115	0.751886
C101	C	0.755392	-0.445999	0.251893
C102	C	1.255392	0.054001	0.751893
C103	C	0.788994	-0.806356	0.218531
C104	C	1.288994	-0.306356	0.718531
C105	C	0.789015	-0.860961	0.218538
C106	C	1.289015	-0.360961	0.718538
O107	O	0.817494	-0.889192	0.190145
O108	O	1.317494	-0.389192	0.690145
N109	N	0.755561	-0.888282	0.251944
N110	N	1.255561	-0.388282	0.751944
C111	C	0.722090	-0.860996	0.285350
C112	C	1.222090	-0.360996	0.785350
O113	O	0.693637	-0.889248	0.313766
O114	O	1.193637	-0.389248	0.813766
C115	C	0.722072	-0.806392	0.285345
C116	C	1.222072	-0.306392	0.785345
C117	C	0.755524	-0.779074	0.251933
C118	C	1.255524	-0.279074	0.751933
C119	C	0.822444	-0.779038	0.185121
C120	C	1.322444	-0.279038	0.685121
C121	C	0.822423	-0.724437	0.185113
C122	C	1.322423	-0.224437	0.685113
C123	C	0.788952	-0.697155	0.218516
C124	C	1.288952	-0.197155	0.718516
C125	C	0.755503	-0.724473	0.251925
C126	C	1.255503	-0.224473	0.751925
C127	C	0.688603	-0.779107	0.318753
C128	C	1.188603	-0.279107	0.818753
C129	C	0.688589	-0.724500	0.318746
C130	C	1.188589	-0.224500	0.818746
C131	C	0.722041	-0.697182	0.285333
C132	C	1.222041	-0.197182	0.785333
C133	C	0.722011	-0.642591	0.285320
C134	C	1.222011	-0.142591	0.785320
N135	N	0.755465	-0.615270	0.251913
N136	N	1.255465	-0.115270	0.751913
C137	C	0.788935	-0.642552	0.218511
C138	C	1.288935	-0.142552	0.718511
C139	C	0.722129	-0.975666	0.285358
C140	C	1.222129	-0.475666	0.785358
C141	C	0.722143	-1.030269	0.285361
C142	C	1.222143	-0.530269	0.785361
C143	C	0.789069	-1.030230	0.218549
C144	C	1.289069	-0.530230	0.718549
C145	C	0.789052	-0.975626	0.218544
C146	C	1.289052	-0.475626	0.718544
C147	C	0.755582	-0.948345	0.251951
C148	C	1.255582	-0.448345	0.751951
C149	C	0.788888	-0.527887	0.218497
C150	C	1.288888	-0.027887	0.718497
C151	C	0.788862	-0.473281	0.218491
C152	C	1.288862	0.026719	0.718491
C153	C	0.721939	-0.473325	0.285305
C154	C	1.221939	0.026675	0.785305
C155	C	0.721962	-0.527926	0.285309
C156	C	1.221962	-0.027926	0.785309
C157	C	0.755441	-0.555205	0.251904
C158	C	1.255441	-0.055205	0.751904
O159	O	0.693549	-0.614324	0.313699
O160	O	1.193549	-0.114324	0.813699
O161	O	0.817387	-0.614293	0.190104
O162	O	1.317387	-0.114293	0.690104
C163	C	0.891843	-0.252071	0.251927
C164	C	1.391843	0.247929	0.751927
C165	C	0.949957	-0.252084	0.251934
C166	C	1.449957	0.247916	0.751934
C167	C	0.755481	-0.252045	0.388283
C168	C	1.255481	0.247955	0.888283
C169	C	0.755485	-0.252045	0.446397
C170	C	1.255485	0.247955	0.946397
C171	C	0.755572	-0.115670	0.251945
C172	C	1.255572	0.384330	0.751945
C173	C	0.755616	-0.057556	0.251960
C174	C	1.255616	0.442444	0.751960
C175	C	0.788883	-0.285496	0.697578
C176	C	1.288883	0.214504	1.197578
C177	C	0.788884	-0.285497	0.642974
C178	C	1.288884	0.214503	1.142974
O179	O	0.817286	-0.313951	0.614727
O180	O	1.317286	0.186049	1.114727
N181	N	0.755475	-0.252051	0.615671
N182	N	1.255475	0.247949	1.115671
C183	C	0.722059	-0.218606	0.642975
C184	C	1.222059	0.281394	1.142975
O185	O	0.693642	-0.190158	0.614737
O186	O	1.193642	0.309842	1.114737
C187	C	0.722056	-0.218608	0.697578
C188	C	1.222056	0.281392	1.197578
C189	C	0.755470	-0.252053	0.724878
C190	C	1.255470	0.247947	1.224878
C191	C	0.822294	-0.318938	0.724879
C192	C	1.322294	0.181062	1.224879
C193	C	0.822293	-0.318936	0.779479
C194	C	1.322293	0.181064	1.279479
C195	C	0.788881	-0.285493	0.806779
C196	C	1.288881	0.214507	1.306779
C197	C	0.755469	-0.252051	0.779479
C198	C	1.255469	0.247949	1.279479
C199	C	0.688637	-0.185166	0.724881
C200	C	1.188637	0.314834	1.224881
C201	C	0.688636	-0.185172	0.779488
C202	C	1.188636	0.314828	1.279488
C203	C	0.722051	-0.218616	0.806788
C204	C	1.222051	0.281384	1.306788
C205	C	0.722056	-0.218606	0.861379
C206	C	1.222056	0.281394	1.361379
N207	N	0.755465	-0.252051	0.888683
N208	N	1.255465	0.247949	1.388683
C209	C	0.788877	-0.285495	0.861383
C210	C	1.288877	0.214505	1.361383
C211	C	0.722069	-0.218605	0.528304
C212	C	1.222069	0.281395	1.028304
C213	C	0.722075	-0.218600	0.473702
C214	C	1.222075	0.281400	0.973702
C215	C	0.788899	-0.285491	0.473705
C216	C	1.288899	0.214509	0.973705
C217	C	0.788895	-0.285493	0.528308
C218	C	1.288895	0.214507	1.028308
C219	C	0.755478	-0.252051	0.555607
C220	C	1.255478	0.247949	1.055607
C221	C	0.788873	-0.285488	0.976048
C222	C	1.288873	0.214512	1.476048
C223	C	0.788871	-0.285482	1.030653
C224	C	1.288871	0.214518	1.530653
C225	C	0.722045	-0.218593	1.030645
C226	C	1.222045	0.281407	1.530645
C227	C	0.722049	-0.218597	0.976045
C228	C	1.222049	0.281403	1.476045
C229	C	0.755465	-0.252049	0.948747
C230	C	1.255465	0.247951	1.448747
O231	O	0.693668	-0.190167	0.889661
O232	O	1.193668	0.309833	1.389661
O233	O	0.817284	-0.313943	0.889627
O234	O	1.317284	0.186057	1.389627
C235	C	0.755457	-0.252049	1.116067
C236	C	1.255457	0.247951	1.616067
C237	C	0.755459	-0.252039	1.057953
C238	C	1.255459	0.247961	1.557953
H239	H	0.457339	-0.312601	0.191130
H240	H	0.957339	0.187399	0.691130
F241	F	-0.051849	-0.320998	0.182786
F242	F	0.448151	0.179002	0.682786
H243	H	0.694858	-0.191367	0.550528
H244	H	1.194858	0.308633	1.050528
F245	F	0.824437	-0.321079	1.059705
F246	F	1.324437	0.178921	1.559705
F247	F	0.563319	-0.183097	0.321048
F248	F	1.063319	0.316903	0.821048
H249	H	0.661427	-0.157933	0.702662
H250	H	1.161427	0.342067	1.202662
F251	F	0.686350	-0.557001	0.320861
F252	F	1.186350	-0.057001	0.820861
F253	F	0.686320	-0.444280	0.320853
F254	F	1.186320	0.055720	0.820853
H255	H	0.816291	-0.953387	0.191337
H256	H	1.316291	-0.453387	0.691337
F257	F	0.857859	-0.354537	0.695832
F258	F	1.357859	0.145463	1.195832
H259	H	0.694871	-0.191360	0.451478
H260	H	1.194871	0.308640	0.951478
H261	H	0.816103	-0.451041	0.191281
H262	H	1.316103	0.048959	0.691281
H263	H	0.816104	-0.312727	0.550532
H264	H	1.316104	0.187273	1.050532
H265	H	0.054125	-0.191501	0.312713
H266	H	0.554125	0.308499	0.812713
H267	H	0.694843	-0.191362	1.052883
H268	H	1.194843	0.308638	1.552883
H269	H	0.206131	-0.346026	0.157666
H270	H	0.706131	0.153974	0.657666
H271	H	0.816151	-0.550091	0.191296
H272	H	1.316151	-0.050091	0.691296
H273	H	0.816324	-1.052453	0.191353
H274	H	1.316324	-0.552453	0.691353
H275	H	0.457421	-0.191452	0.312683
H276	H	0.957421	0.308548	0.812683
H277	H	0.849702	-0.801245	0.157921
H278	H	1.349702	-0.301245	0.657921
H279	H	0.661423	-0.157938	0.801712
H280	H	1.161423	0.342062	1.301712
H281	H	0.054051	-0.312641	0.191151
H282	H	0.554051	0.187359	0.691151
F283	F	0.858033	-0.695370	0.149557
F284	F	1.358033	-0.195370	0.649557
H285	H	0.694899	-1.052506	0.312564
H286	H	1.194899	-0.552506	0.812564
F287	F	0.311999	-0.354355	0.149270
F288	F	0.811999	0.145645	0.649270
H289	H	0.694870	-0.953456	0.312561
H290	H	1.194870	-0.453456	0.812561
F291	F	0.824438	-0.321092	0.947003
F292	F	1.324438	0.178908	1.447003
H293	H	0.661361	-0.801340	0.345959
H294	H	1.161361	-0.301340	0.845959
F295	F	0.857853	-0.354537	0.808527
F296	F	1.357853	0.145463	1.308527
F297	F	0.824458	-0.321087	0.444640
F298	F	1.324458	0.178913	0.944640
F299	F	0.686491	-0.182996	0.946989
F300	F	1.186491	0.317004	1.446989
H301	H	0.661335	-0.702290	0.345952
H302	H	1.161335	-0.202290	0.845952
H303	H	-0.044926	-0.191508	0.312709
H304	H	0.455074	0.308492	0.812709
H305	H	0.206275	-0.158101	0.346200
H306	H	0.706275	0.341899	0.846200
H307	H	0.305320	-0.158092	0.346195
H308	H	0.805320	0.341908	0.846195
H309	H	0.556388	-0.312580	0.191116
H310	H	1.056388	0.187420	0.691116
