data_functionalizedCrystal
_audit_creation_method	'MofGen! by Chris Wilmer'
_symmetry_space_group_name_H-M	'P1'
_symmetry_Int_Tables_number	1
_symmetry_cell_setting	triclinic
loop_
_symmetry_equiv_pos_as_xyz
  x,y,z
_cell_length_a	14.971486
_cell_length_b	10.723024
_cell_length_c	14.048226
_cell_angle_alpha	89.994758
_cell_angle_beta	89.998499
_cell_angle_gamma	84.040999
loop_
_atom_site_label
_atom_site_type_symbol
_atom_site_fract_x
_atom_site_fract_y
_atom_site_fract_z
O1	O	1.187820	0.162616	-0.079049
O2	O	0.927525	0.182090	-0.079074
O3	O	1.063676	-0.009286	-0.079057
O4	O	1.051668	0.353992	-0.079066
O5	O	1.063660	-0.009297	0.079264
O6	O	0.927508	0.182079	0.079247
O7	O	1.187804	0.162605	0.079273
Zn8	Zn	1.057653	0.172340	0.104397
Zn9	Zn	1.057675	0.172355	-0.104198
O10	O	1.051652	0.353981	0.079256
C11	C	0.894187	0.181213	0.000083
C12	C	0.794876	0.178604	0.000073
C13	C	0.738254	0.291032	0.000072
C14	C	0.644941	0.288572	0.000086
C15	C	0.608252	0.173683	0.000095
C16	C	0.664881	0.061246	0.000099
C17	C	0.758192	0.063707	0.000092
C18	C	0.470391	0.056125	0.000112
C19	C	0.377074	0.053663	0.000118
C20	C	0.357141	0.280990	0.000107
C21	C	0.450452	0.283451	0.000100
C22	C	0.507074	0.171013	0.000102
C23	C	1.062794	-0.055782	0.000102
C24	C	1.060180	-0.194309	0.000099
C25	C	1.136363	-0.270088	0.000105
C26	C	1.133663	-0.413263	0.000101
C27	C	1.221141	0.163482	0.000113
C28	C	1.320452	0.166091	0.000117
C29	C	1.052534	0.400477	0.000094
C30	C	1.055148	0.539004	0.000092
N31	N	1.057645	0.172329	0.246758
N32	N	1.057690	0.172356	-0.246559
C33	C	1.117952	0.087623	0.296583
C34	C	1.117958	0.087622	0.396241
C35	C	1.057660	0.172335	0.446071
C36	C	0.997347	0.257045	0.396238
C37	C	0.997337	0.257039	0.296583
C38	C	0.997373	0.257054	0.603953
C39	C	0.997383	0.257062	0.703615
C40	C	1.117994	0.087638	0.703611
C41	C	1.117984	0.087631	0.603955
C42	C	1.057671	0.172344	0.554129
H43	H	0.804293	-0.027843	0.000092
C44	C	0.969360	-0.249844	0.000088
C45	C	0.945360	-0.335335	0.082295
C46	C	0.854537	-0.390865	0.082284
C47	C	0.787715	-0.360905	0.000066
C48	C	0.811714	-0.275410	-0.082148
C49	C	0.902537	-0.219879	-0.082137
H50	H	0.994827	-0.357517	0.143163
H51	H	0.836772	-0.454155	0.143144
H52	H	0.720483	-0.402012	0.000058
H53	H	0.762247	-0.253228	-0.143016
H54	H	0.920302	-0.156590	-0.142997
C55	C	0.582661	0.412249	0.000079
C56	C	0.515765	0.441821	-0.082127
C57	C	0.453487	0.565506	-0.082134
C58	C	0.458105	0.659618	0.000067
C59	C	0.525004	0.630048	0.082279
C60	C	0.587283	0.506363	0.082286
H61	H	0.512343	0.372152	-0.142982
H62	H	0.403963	0.587395	-0.142993
H63	H	0.412003	0.751177	0.000062
H64	H	0.528426	0.699717	0.143134
H65	H	0.636806	0.484474	0.143146
C66	C	1.184282	-0.005564	0.241775
C67	C	1.250615	-0.098744	0.296588
C68	C	1.316944	-0.191938	0.241783
C69	C	1.316941	-0.191951	0.132166
C70	C	1.250606	-0.098768	0.077347
C71	C	1.184277	-0.005574	0.132151
H72	H	1.250619	-0.098737	0.377739
H73	H	1.366050	-0.260918	0.282364
H74	H	1.366043	-0.260939	0.091596
H75	H	1.250602	-0.098775	-0.003804
H76	H	1.135171	0.063406	0.091570
H77	H	0.948256	0.326032	0.563388
H78	H	0.768119	0.384588	0.000064
C79	C	0.624524	-0.065133	0.000111
C80	C	0.645578	-0.158566	0.082329
C81	C	0.605222	-0.284948	0.082338
C82	C	0.543814	-0.317897	0.000131
C83	C	0.522757	-0.224463	-0.082092
C84	C	0.563113	-0.098081	-0.082102
H85	H	0.691039	-0.134176	0.143189
H86	H	0.620810	-0.354114	0.143206
H87	H	0.513940	-0.411453	0.000138
H88	H	0.477296	-0.248852	-0.142953
H89	H	0.547525	-0.028914	-0.142970
H90	H	1.203586	-0.228968	0.000117
H91	H	1.167064	0.018648	0.436808
C92	C	1.184311	-0.005549	0.549136
C93	C	1.181947	-0.147652	0.562845
C94	C	1.248272	-0.240835	0.508025
C95	C	1.316961	-0.191915	0.439496
C96	C	1.319327	-0.049804	0.425785
C97	C	1.253002	0.043379	0.480605
H98	H	1.131097	-0.183873	0.613576
H99	H	1.246520	-0.346035	0.518175
H100	H	1.366058	-0.260894	0.398915
H101	H	1.370177	-0.013583	0.375053
H102	H	1.254754	0.148579	0.470454
H103	H	0.480320	0.377003	0.000084
H104	H	1.167102	0.018662	0.744185
H105	H	1.198882	-0.478377	0.000111
C106	C	0.931048	0.350240	0.758426
C107	C	0.864701	0.443404	0.703617
C108	C	0.798364	0.536583	0.758425
C109	C	0.798374	0.536598	0.868043
C110	C	0.864724	0.443431	0.922858
C111	C	0.931061	0.350252	0.868050
H112	H	0.864691	0.443395	0.622466
H113	H	0.749248	0.605551	0.717847
H114	H	0.749267	0.605575	0.908615
H115	H	0.864733	0.443439	1.004009
H116	H	0.980177	0.281283	0.908628
H117	H	0.311034	0.372540	0.000109
H118	H	0.347205	-0.039889	0.000126
H119	H	0.516492	-0.035434	0.000116
H120	H	0.989926	-0.395889	0.000093
H121	H	0.948247	0.326015	0.436816
H122	H	0.948228	0.326013	0.256016
