data_functionalizedCrystal
_audit_creation_method	'MofGen! by Chris Wilmer'
_symmetry_space_group_name_H-M	'P1'
_symmetry_Int_Tables_number	1
_symmetry_cell_setting	triclinic
loop_
_symmetry_equiv_pos_as_xyz
  x,y,z
_cell_length_a	14.044220
_cell_length_b	17.038272
_cell_length_c	12.503572
_cell_angle_alpha	93.777379
_cell_angle_beta	86.164750
_cell_angle_gamma	92.150217
loop_
_atom_site_label
_atom_site_type_symbol
_atom_site_fract_x
_atom_site_fract_y
_atom_site_fract_z
O1	O	1.278116	0.185401	-0.089207
O2	O	1.778116	0.685401	0.410793
O3	O	1.001597	0.178559	-0.089234
O4	O	1.501597	0.678559	0.410766
O5	O	1.138213	0.068050	-0.089212
O6	O	1.638213	0.568050	0.410788
O7	O	1.141501	0.295910	-0.089229
O8	O	1.641501	0.795910	0.410771
O9	O	1.127940	0.076376	0.089428
O10	O	1.627940	0.576376	0.589428
O11	O	0.991324	0.186885	0.089406
O12	O	1.491324	0.686885	0.589406
O13	O	1.267843	0.193727	0.089433
O14	O	1.767843	0.693727	0.589433
Cu15	Cu	1.128646	0.191066	0.105731
Cu16	Cu	1.628646	0.691066	0.605731
Cu17	Cu	1.140795	0.181220	-0.105532
Cu18	Cu	1.640795	0.681220	0.394468
O19	O	1.131228	0.304236	0.089411
O20	O	1.631228	0.804236	0.589411
C21	C	0.960905	0.179728	0.000083
C22	C	1.460905	0.679728	0.500083
C23	C	0.854959	0.170796	0.000072
C24	C	1.354959	0.670796	0.500072
C25	C	0.660980	0.154469	0.000095
C26	C	1.160980	0.654469	0.500095
C27	C	0.608455	0.217814	0.000095
C28	C	1.108455	0.717814	0.500095
C29	C	0.500518	0.208729	0.000107
C30	C	1.000518	0.708729	0.500107
C31	C	0.768927	0.163552	0.000082
C32	C	1.268927	0.663552	0.500082
C33	C	1.130087	0.042876	0.000108
C34	C	1.630087	0.542876	0.500108
C35	C	1.121168	-0.044541	0.000106
C36	C	1.621168	0.455459	0.500106
C37	C	1.203055	-0.088926	0.000115
C38	C	1.703055	0.411074	0.500115
C39	C	1.194670	-0.171064	0.000104
C40	C	1.694670	0.328936	0.500104
C41	C	1.104395	-0.208815	0.000092
C42	C	1.604395	0.291185	0.500092
C43	C	1.022502	-0.164424	0.000080
C44	C	1.522502	0.335576	0.500080
C45	C	1.030888	-0.082288	0.000083
C46	C	1.530888	0.417712	0.500083
C47	C	1.074766	-0.456646	0.000074
C48	C	1.574766	0.043354	0.500074
C49	C	1.066385	-0.538788	0.000074
C50	C	1.566385	-0.038788	0.500074
C51	C	1.238555	-0.545422	0.000097
C52	C	1.738555	-0.045422	0.500097
C53	C	1.246933	-0.463284	0.000107
C54	C	1.746933	0.036716	0.500107
C55	C	1.165040	-0.418901	0.000089
C56	C	1.665040	0.081099	0.500089
C57	C	1.095822	-0.292772	0.000084
C58	C	1.595822	0.207228	0.500084
C59	C	1.173615	-0.334945	0.000089
C60	C	1.673615	0.165055	0.500089
C61	C	1.308536	0.192558	0.000114
C62	C	1.808536	0.692558	0.500114
C63	C	1.414481	0.201490	0.000117
C64	C	1.914481	0.701490	0.500117
C65	C	1.139354	0.329410	0.000089
C66	C	1.639354	0.829410	0.500089
C67	C	1.148273	0.416827	0.000083
C68	C	1.648273	0.916827	0.500083
N69	N	1.120107	0.197992	0.254322
N70	N	1.620107	0.697992	0.754322
N71	N	1.149340	0.174289	-0.254123
N72	N	1.649340	0.674289	0.245877
C73	C	1.107548	0.208186	0.473435
C74	C	1.607548	0.708186	0.973435
C75	C	1.161896	0.164097	0.526771
C76	C	1.661896	0.664097	1.026771
C77	C	1.154908	0.169769	0.648693
C78	C	1.654908	0.669769	1.148693
C79	C	1.114535	0.202515	0.351502
C80	C	1.614535	0.702515	0.851502
H81	H	0.644550	0.278868	0.000085
H82	H	1.144550	0.778868	0.500085
H83	H	1.213675	0.122092	0.480866
H84	H	1.713675	0.622092	0.980866
H85	H	0.964206	-0.046150	0.000075
H86	H	1.464206	0.453850	0.500075
O87	O	1.261261	-0.298195	-0.000042
O88	O	1.761261	0.201805	0.499958
C89	C	1.276593	-0.255206	-0.092573
C90	C	1.776593	0.244794	0.407427
H91	H	1.204883	-0.241464	-0.123433
H92	H	1.704883	0.258536	0.376567
H93	H	1.319578	-0.291511	-0.157351
H94	H	1.819578	0.208489	0.342649
C95	C	1.420220	-0.194647	-0.026555
C96	C	1.920220	0.305353	0.473445
C97	C	1.332144	-0.177763	-0.064452
C98	C	1.832144	0.322237	0.435548
H99	H	1.454489	-0.146877	-0.009212
H100	H	1.954489	0.353123	0.490788
H101	H	1.409893	-0.223611	0.035783
H102	H	1.909893	0.276389	0.535783
H103	H	1.456029	-0.224902	-0.080543
H104	H	1.956029	0.275098	0.419457
H105	H	1.296332	-0.147516	-0.010460
H106	H	1.796332	0.352484	0.489540
H107	H	1.342466	-0.148791	-0.126781
H108	H	1.842466	0.351209	0.373219
H109	H	0.948998	-0.195167	0.000063
H110	H	1.448998	0.304833	0.500063
H111	H	1.055775	0.250190	0.519334
H112	H	1.555775	0.750190	1.019334
O113	O	0.617778	0.081690	0.000051
O114	O	1.117778	0.581690	0.500051
C115	C	0.518064	0.088709	0.000085
C116	C	1.018064	0.588709	0.500085
H117	H	0.501729	0.146896	-0.033729
H118	H	1.001729	0.646896	0.466271
H119	H	0.485153	0.086996	0.085790
H120	H	0.985153	0.586996	0.585790
C121	C	0.495730	-0.051377	-0.028440
C122	C	0.995730	0.448623	0.471560
C123	C	0.475666	0.020087	-0.069980
C124	C	0.975666	0.520087	0.430020
H125	H	0.469575	-0.093708	-0.071655
H126	H	0.969575	0.406292	0.428345
H127	H	0.562909	-0.056107	-0.028459
H128	H	1.062909	0.443893	0.471541
H129	H	0.468303	-0.052794	0.042980
H130	H	0.968303	0.447206	0.542980
H131	H	0.503103	0.021506	-0.141393
H132	H	1.003103	0.521506	0.358607
H133	H	0.408491	0.024815	-0.069974
H134	H	0.908491	0.524815	0.430026
H135	H	1.276566	-0.058195	0.000132
H136	H	1.776566	0.441805	0.500132
H137	H	1.022319	-0.323518	0.000076
H138	H	1.522319	0.176482	0.500076
H139	H	1.261352	-0.207199	0.000114
H140	H	1.761352	0.292801	0.500114
O141	O	1.334702	-0.426743	0.000075
O142	O	1.834702	0.073257	0.500075
C143	C	1.405181	-0.483531	0.000112
C144	C	1.905181	0.016469	0.500112
H145	H	1.375918	-0.542681	-0.033722
H146	H	1.875918	-0.042681	0.466278
H147	H	1.425819	-0.489301	0.085820
H148	H	1.925819	0.010699	0.585820
C149	C	1.529760	-0.385218	-0.028364
C150	C	2.029760	0.114782	0.471636
C151	C	1.493821	-0.457866	-0.069929
C152	C	1.993821	0.042134	0.430071
H153	H	1.584440	-0.369386	-0.071564
H154	H	2.084440	0.130614	0.428436
H155	H	1.482278	-0.346958	-0.028385
H156	H	1.982278	0.153042	0.471615
H157	H	1.546951	-0.390036	0.043059
H158	H	2.046951	0.109964	0.543059
H159	H	1.476620	-0.453044	-0.141344
H160	H	1.976620	0.046956	0.358656
H161	H	1.541303	-0.496124	-0.069921
H162	H	2.041303	0.003876	0.430079
H163	H	1.305227	-0.581568	0.000110
H164	H	1.805227	-0.081568	0.500110
O165	O	0.978680	-0.575436	-0.000138
O166	O	1.478680	-0.075436	0.499862
C167	C	0.933678	-0.557646	-0.092656
C168	C	1.433678	-0.057646	0.407344
H169	H	0.990074	-0.540015	-0.157310
H170	H	1.490074	-0.040015	0.342690
H171	H	0.883657	-0.506932	-0.071752
H172	H	1.383657	-0.006932	0.428248
C173	C	0.806643	-0.652192	-0.055212
C174	C	1.306643	-0.152192	0.444788
C175	C	0.875910	-0.630543	-0.134624
C176	C	1.375910	-0.130543	0.365376
H177	H	0.771005	-0.697156	-0.081099
H178	H	1.271005	-0.197156	0.418901
H179	H	0.836959	-0.664176	0.007122
H180	H	1.336959	-0.164176	0.507122
H181	H	0.764968	-0.609924	-0.037799
H182	H	1.264968	-0.109924	0.462201
H183	H	0.917590	-0.672807	-0.152026
H184	H	1.417590	-0.172807	0.347974
H185	H	0.845600	-0.618568	-0.196962
H186	H	1.345600	-0.118568	0.303038
O187	O	0.995281	-0.413445	0.000206
O188	O	1.495281	0.086555	0.500206
C189	C	0.989645	-0.361439	0.092737
C190	C	1.489645	0.138561	0.592737
H191	H	1.063867	-0.350579	0.123591
H192	H	1.563867	0.149421	0.623591
H193	H	0.940206	-0.388438	0.157518
H194	H	1.440206	0.111562	0.657518
C195	C	0.858852	-0.296169	0.026729
C196	C	1.358852	0.203831	0.526729
C197	C	0.950014	-0.282825	0.064619
C198	C	1.450014	0.217175	0.564619
H199	H	0.834401	-0.247677	0.009387
H200	H	1.334401	0.252323	0.509387
H201	H	0.862646	-0.331208	-0.035609
H202	H	1.362646	0.168792	0.464391
H203	H	0.817664	-0.318670	0.080720
H204	H	1.317664	0.181330	0.580720
H205	H	0.991203	-0.260335	0.010624
H206	H	1.491203	0.239665	0.510624
H207	H	0.946226	-0.247781	0.126948
H208	H	1.446226	0.252219	0.626948
