data_functionalizedCrystal
_audit_creation_method	'MofGen! by Chris Wilmer'
_symmetry_space_group_name_H-M	'P1'
_symmetry_Int_Tables_number	1
_symmetry_cell_setting	triclinic
loop_
_symmetry_equiv_pos_as_xyz
  x,y,z
_cell_length_a	10.654550
_cell_length_b	10.654551
_cell_length_c	9.730223
_cell_angle_alpha	89.997942
_cell_angle_beta	90.000649
_cell_angle_gamma	84.485180
loop_
_atom_site_label
_atom_site_type_symbol
_atom_site_fract_x
_atom_site_fract_y
_atom_site_fract_z
O1	O	-1.667839	-0.176398	0.114181
O2	O	-1.302360	-0.193204	0.114206
O3	O	-1.493502	-0.002061	0.114190
O4	O	-1.476697	-0.367540	0.114197
O5	O	-1.493492	-0.002058	-0.114390
O6	O	-1.302350	-0.193200	-0.114374
O7	O	-1.667829	-0.176394	-0.114398
Zn8	Zn	-1.485088	-0.184797	-0.150678
Zn9	Zn	-1.485101	-0.184801	0.150486
O10	O	-1.476687	-0.367536	-0.114383
C11	C	-1.255557	-0.191968	-0.000081
C12	C	-1.116114	-0.188276	-0.000071
C13	C	-1.714632	-0.177630	-0.000109
C14	C	-1.854075	-0.181322	-0.000109
C15	C	-1.477926	-0.414336	-0.000092
C16	C	-1.481619	-0.553779	-0.000089
C17	C	-1.492262	0.044738	-0.000097
C18	C	-1.488570	0.184181	-0.000091
C19	C	-1.036629	-0.300818	-0.000073
C20	C	-0.905608	-0.297341	-0.000097
C21	C	-0.933570	-0.068772	-0.000112
C22	C	-1.064589	-0.072249	-0.000097
N23	N	-1.485088	-0.184793	-0.356214
C24	C	-1.486842	0.249683	0.124510
C25	C	-1.483362	0.380704	0.124511
C26	C	-1.483343	0.380709	-0.124699
C27	C	-1.486814	0.249690	-0.124699
C28	C	-1.569761	-0.100187	-0.572040
C29	C	-1.569753	-0.100189	-0.428157
C30	C	-1.400434	-0.269410	-0.428163
C31	C	-1.400449	-0.269413	-0.572043
N32	N	-1.485111	-0.184795	0.356022
H33	H	-0.840896	-0.388984	-0.000101
O34	O	-1.481747	0.444145	0.245671
C35	C	-1.484006	0.358220	0.355645
H36	H	-1.526174	0.269683	0.319109
H37	H	-1.383800	0.331979	0.393968
C38	C	-1.513083	0.528149	0.518234
C39	C	-1.564884	0.419411	0.473363
H40	H	-1.562966	0.565894	0.590852
H41	H	-1.511556	0.586039	0.444144
H42	H	-1.429579	0.506266	0.550161
H43	H	-1.648379	0.441297	0.441422
H44	H	-1.566426	0.361526	0.547451
H45	H	-1.078576	-0.395294	-0.000062
O46	O	-0.883453	0.043899	0.000119
C47	C	-0.808470	0.052734	0.118480
H48	H	-0.840015	-0.013166	0.201228
H49	H	-0.705420	0.024665	0.091708
C50	C	-0.784409	0.270262	0.070521
C51	C	-0.823161	0.189331	0.172159
H52	H	-0.793466	0.354522	0.103631
H53	H	-0.834923	0.264309	-0.009224
H54	H	-0.698537	0.246856	0.048221
H55	H	-0.909036	0.212728	0.194444
H56	H	-0.772662	0.195291	0.251909
O57	O	-1.141629	0.037198	-0.000033
C58	C	-1.068060	0.140352	-0.000082
H59	H	-0.970562	0.109335	0.043188
H60	H	-1.058436	0.175859	-0.109747
C61	C	-1.252151	0.285061	0.036411
C62	C	-1.132405	0.246968	0.089566
H63	H	-1.291843	0.350831	0.091704
H64	H	-1.301717	0.215566	0.036438
H65	H	-1.244114	0.314642	-0.054976
H66	H	-1.140445	0.217374	0.180944
H67	H	-1.082842	0.316462	0.089556
O68	O	-1.488542	0.186254	-0.245867
C69	C	-1.486226	0.272163	-0.355850
H70	H	-1.523450	0.370412	-0.319333
H71	H	-1.385275	0.273800	-0.394149
C72	C	-1.524064	0.110403	-0.518431
C73	C	-1.569793	0.231073	-0.473583
H74	H	-1.575606	0.085056	-0.591058
H75	H	-1.525620	0.052523	-0.444335
H76	H	-1.439938	0.111783	-0.550337
H77	H	-1.653911	0.229688	-0.441662
H78	H	-1.568253	0.288952	-0.547677
O79	O	-1.651719	-0.017776	-0.358229
C80	C	-1.583628	0.060335	-0.275186
H81	H	-1.485875	0.011071	-0.253534
H82	H	-1.574091	0.153107	-0.330823
C83	C	-1.774243	0.147392	-0.165160
C84	C	-1.654184	0.086880	-0.138556
H85	H	-1.817767	0.163773	-0.080883
H86	H	-1.820119	0.094771	-0.221110
H87	H	-1.766279	0.224696	-0.211527
H88	H	-1.662150	0.009572	-0.092206
H89	H	-1.608311	0.139489	-0.082594
H90	H	-1.331503	-0.338303	-0.369579
H91	H	-1.488269	0.196350	0.225974
O92	O	-1.318093	-0.351651	-0.641720
C93	C	-1.243379	-0.426351	-0.547379
H94	H	-1.241498	-0.374846	-0.444819
H95	H	-1.284963	-0.520029	-0.532065
C96	C	-1.110444	-0.514238	-0.729521
C97	C	-1.108125	-0.450974	-0.603558
H98	H	-1.027014	-0.529432	-0.764176
H99	H	-1.160782	-0.463916	-0.793082
H100	H	-1.145103	-0.592296	-0.716742
H101	H	-1.073481	-0.372911	-0.616342
H102	H	-1.057777	-0.501284	-0.540001
H103	H	-1.481916	0.434063	-0.226151
H104	H	-1.638699	-0.031288	-0.630606
