data_functionalizedCrystal
_audit_creation_method	'MofGen! by Chris Wilmer'
_symmetry_space_group_name_H-M	'P1'
_symmetry_Int_Tables_number	1
_symmetry_cell_setting	triclinic
loop_
_symmetry_equiv_pos_as_xyz
  x,y,z
_cell_length_a	11.792241
_cell_length_b	14.472310
_cell_length_c	11.792241
_cell_angle_alpha	89.998842
_cell_angle_beta	95.806584
_cell_angle_gamma	90.008847
loop_
_atom_site_label
_atom_site_type_symbol
_atom_site_fract_x
_atom_site_fract_y
_atom_site_fract_z
O1	O	1.506924	0.076752	-0.155560
O2	O	1.176583	0.076773	-0.171593
O3	O	1.349770	0.076755	0.001594
O4	O	1.333737	0.076769	-0.328747
O5	O	1.349725	-0.076927	0.001584
O6	O	1.176538	-0.076909	-0.171603
O7	O	1.506879	-0.076930	-0.155570
Cu8	Cu	1.341704	-0.090952	-0.163587
Cu9	Cu	1.341757	0.090795	-0.163576
O10	O	1.333692	-0.076913	-0.328757
C11	C	1.134269	-0.000065	-0.170591
C12	C	1.008255	-0.000057	-0.167576
N13	N	1.341675	-0.218783	-0.163595
C14	C	0.777543	-0.000084	-0.162034
C15	C	0.905928	-0.000069	-0.165113
C16	C	1.341756	-0.592874	-0.163571
C17	C	1.248772	-0.553699	-0.255925
C18	C	1.248990	-0.446611	-0.256266
C19	C	1.341715	-0.407283	-0.163583
C20	C	1.460302	-0.446127	-0.190178
C21	C	1.459780	-0.553248	-0.190836
C22	C	1.317207	-0.553407	-0.044353
C23	C	1.314496	-0.446279	-0.045130
C24	C	1.341699	-0.302395	-0.163587
C25	C	1.341779	-0.697762	-0.163569
C26	C	1.549192	-0.000090	-0.156572
C27	C	1.675206	-0.000092	-0.159587
C28	C	1.348740	-0.000085	0.043880
C29	C	1.345726	-0.000084	0.169894
N30	N	1.341795	0.218626	-0.163559
C31	C	1.334721	-0.000070	-0.371043
C32	C	1.337736	-0.000065	-0.497057
C33	C	1.340183	-0.000068	0.400606
C34	C	1.343262	-0.000077	0.272221
H35	H	1.160865	-0.420350	-0.240313
H36	H	1.264311	-0.580606	-0.343881
Cl37	Cl	1.273265	-0.407023	-0.392846
H38	H	1.481302	-0.578222	-0.277803
H39	H	1.377765	-0.419512	0.026872
Cl40	Cl	1.569733	-0.406799	-0.089135
Cl41	Cl	1.421882	-0.592520	0.061771
Cl42	Cl	1.112267	-0.593483	-0.231670
Cl43	Cl	1.494299	-0.404693	-0.322926
Cl44	Cl	1.569770	-0.593261	-0.090880
Cl45	Cl	1.186512	-0.595157	-0.005170
H46	H	1.227258	-0.420892	-0.024964
