data_functionalizedCrystal
_audit_creation_method	'MofGen! by Chris Wilmer'
_symmetry_space_group_name_H-M	'P1'
_symmetry_Int_Tables_number	1
_symmetry_cell_setting	triclinic
loop_
_symmetry_equiv_pos_as_xyz
  x,y,z
_cell_length_a	16.109302
_cell_length_b	16.109301
_cell_length_c	14.586319
_cell_angle_alpha	90.007381
_cell_angle_beta	90.002485
_cell_angle_gamma	83.461631
loop_
_atom_site_label
_atom_site_type_symbol
_atom_site_fract_x
_atom_site_fract_y
_atom_site_fract_z
O1	O	-1.103126	-0.106872	-0.076284
O2	O	-0.861065	-0.120171	-0.076278
O3	O	-0.988745	0.007510	-0.076272
O4	O	-0.975446	-0.234552	-0.076290
O5	O	-0.988744	0.007518	0.076209
O6	O	-0.861064	-0.120163	0.076203
O7	O	-1.103125	-0.106864	0.076196
Cu8	Cu	-0.982094	-0.113513	0.090122
Cu9	Cu	-0.982096	-0.113522	-0.090204
O10	O	-0.975445	-0.234544	0.076191
C11	C	-0.830089	-0.119628	-0.000036
C12	C	-0.737794	-0.118013	-0.000033
C13	C	-0.988206	0.038488	-0.000031
C14	C	-0.986591	0.130784	-0.000030
C15	C	-1.134101	-0.107407	-0.000047
C16	C	-1.226396	-0.109022	-0.000056
C17	C	-0.525452	-0.114273	0.083075
C18	C	-0.438732	-0.112746	0.083072
C19	C	-0.438744	-0.112759	-0.083171
C20	C	-0.525463	-0.114280	-0.083167
C21	C	-0.568815	-0.115041	-0.000041
C22	C	-0.395375	-0.111994	-0.000048
C23	C	-0.301350	-0.110338	-0.000052
C24	C	-0.662847	-0.116695	-0.000037
N25	N	-0.982097	-0.113523	-0.217035
C26	C	-0.975984	-0.265523	-0.000052
C27	C	-0.977599	-0.357819	-0.000060
C28	C	-1.058599	0.353056	-0.000046
C29	C	-1.057074	0.439776	-0.000054
C30	C	-0.905586	0.419902	-0.000046
C31	C	-0.907111	0.333184	-0.000045
C32	C	-0.983620	0.299763	-0.000040
C33	C	-0.980571	0.473202	-0.000049
C34	C	-0.978918	0.567228	-0.000057
C35	C	-0.985273	0.205731	-0.000034
C36	C	-1.038743	-0.057096	-0.452039
C37	C	-1.038746	-0.057094	-0.548021
C38	C	-0.925451	-0.169939	-0.548035
C39	C	-0.925453	-0.169944	-0.452056
C40	C	-0.982098	-0.113518	-0.404060
C41	C	-0.982098	-0.113510	-0.596021
C42	C	-0.982101	-0.113509	-0.700088
C43	C	-0.982097	-0.113520	-0.299986
N44	N	-0.982100	-0.113506	0.216954
H45	H	-0.560747	-0.114893	0.150762
Br46	Br	-0.805346	0.260851	-0.000049
Br47	Br	-0.379887	-0.111703	0.195878
Br48	Br	-0.379908	-0.111701	-0.195979
Br49	Br	-0.801757	0.465265	-0.000055
Br50	Br	-1.115620	0.019481	-0.386906
H51	H	-1.084872	-0.011151	-0.587083
Br52	Br	-0.584319	-0.115312	-0.195976
H53	H	-0.879330	-0.215879	-0.587123
H54	H	-1.118130	0.483165	-0.000060
H55	H	-1.120897	0.325848	-0.000044
Br56	Br	-0.848579	-0.246529	-0.386933
