data_functionalizedCrystal
_audit_creation_method	'MofGen! by Chris Wilmer'
_symmetry_space_group_name_H-M	'P1'
_symmetry_Int_Tables_number	1
_symmetry_cell_setting	triclinic
loop_
_symmetry_equiv_pos_as_xyz
  x,y,z
_cell_length_a	11.792241
_cell_length_b	22.610064
_cell_length_c	11.792254
_cell_angle_alpha	90.004336
_cell_angle_beta	84.196007
_cell_angle_gamma	89.995899
loop_
_atom_site_label
_atom_site_type_symbol
_atom_site_fract_x
_atom_site_fract_y
_atom_site_fract_z
O1	O	1.506924	-0.049127	0.155551
O2	O	2.006924	0.450873	0.655551
O3	O	1.176583	-0.049141	0.171584
O4	O	1.676583	0.450859	0.671584
O5	O	1.349762	-0.049130	-0.001602
O6	O	1.849762	0.450870	0.498398
O7	O	1.333745	-0.049139	0.328737
O8	O	1.833745	0.450861	0.828737
O9	O	1.349732	0.049239	-0.001576
O10	O	1.849732	0.549239	0.498424
O11	O	1.176553	0.049228	0.171610
O12	O	1.676553	0.549228	0.671610
O13	O	1.506893	0.049242	0.155578
O14	O	2.006893	0.549242	0.655578
Zn15	Zn	1.341718	0.064853	0.163598
Zn16	Zn	1.841718	0.564853	0.663598
Zn17	Zn	1.341758	-0.064753	0.163563
Zn18	Zn	1.841758	0.435247	0.663563
O19	O	1.333714	0.049230	0.328764
O20	O	1.833714	0.549230	0.828764
C21	C	1.134277	0.000042	0.170590
C22	C	1.634277	0.500042	0.670590
C23	C	1.008263	0.000036	0.167576
C24	C	1.508263	0.500036	0.667576
N25	N	1.341698	0.153306	0.163621
N26	N	1.841698	0.653306	0.663621
C27	C	0.777551	0.000054	0.162033
C28	C	1.277551	0.500054	0.662033
C29	C	0.905936	0.000044	0.165112
C30	C	1.405936	0.500044	0.665112
C31	C	1.418444	0.561952	0.086897
C32	C	1.918444	1.061952	0.586897
C33	C	1.418450	0.623872	0.086890
C34	C	1.918450	1.123872	0.586890
O35	O	1.483655	0.655895	0.021668
O36	O	1.983655	1.155895	0.521668
N37	N	1.341756	0.654843	0.163550
N38	N	1.841756	1.154843	0.663550
C39	C	1.265043	0.623890	0.240214
C40	C	1.765043	1.123890	0.740214
O41	O	1.199809	0.655919	0.305418
O42	O	1.699809	1.155919	0.805418
C43	C	1.265033	0.561972	0.240215
C44	C	1.765033	1.061972	0.740215
C45	C	1.341740	0.531004	0.163558
C46	C	1.841740	1.031004	0.663558
C47	C	1.495144	0.530984	0.010245
C48	C	1.995144	1.030984	0.510245
C49	C	1.495140	0.469069	0.010254
C50	C	1.995140	0.969069	0.510254
C51	C	1.418435	0.438121	0.086915
C52	C	1.918435	0.938121	0.586915
C53	C	1.341736	0.469088	0.163567
C54	C	1.841736	0.969088	0.663567
C55	C	1.188316	0.531020	0.316873
C56	C	1.688316	1.031020	0.816873
C57	C	1.188312	0.469097	0.316867
C58	C	1.688312	0.969097	0.816867
C59	C	1.265019	0.438130	0.240210
C60	C	1.765019	0.938130	0.740210
C61	C	1.265027	0.376225	0.240237
C62	C	1.765027	0.876225	0.740237
N63	N	1.341721	0.345254	0.163577
N64	N	1.841721	0.845254	0.663577
C65	C	1.418425	0.376202	0.086916
C66	C	1.918425	0.876202	0.586916
C67	C	1.265069	0.753924	0.240205
C68	C	1.765069	1.253924	0.740205
C69	C	1.265084	0.815842	0.240210
C70	C	1.765084	1.315842	0.740210
C71	C	1.418489	0.815819	0.086884
C72	C	1.918489	1.315819	0.586884
C73	C	1.418479	0.753900	0.086885
C74	C	1.918479	1.253900	0.586885
C75	C	1.341763	0.722953	0.163545
C76	C	1.841763	1.222953	0.663545
C77	C	1.418411	0.246175	0.086941
C78	C	1.918411	0.746175	0.586941
C79	C	1.418403	0.184254	0.086960
C80	C	1.918403	0.684254	0.586960
C81	C	1.264994	0.184282	0.240282
C82	C	1.764994	0.684282	0.740282
C83	C	1.265005	0.246197	0.240268
C84	C	1.765005	0.746197	0.740268
C85	C	1.341718	0.277142	0.163588
C86	C	1.841718	0.777142	0.663588
O87	O	1.199852	0.344162	0.305422
O88	O	1.699852	0.844162	0.805422
O89	O	1.483639	0.344166	0.021713
O90	O	1.983639	0.844166	0.521713
C91	C	1.549199	0.000058	0.156571
C92	C	2.049199	0.500058	0.656571
C93	C	1.675213	0.000059	0.159586
C94	C	2.175213	0.500059	0.659586
N95	N	1.341785	0.846795	0.163545
N96	N	1.841785	1.346795	0.663545
C97	C	1.348738	0.000055	-0.043880
C98	C	1.848738	0.500055	0.456120
C99	C	1.345718	0.000054	-0.169893
C100	C	1.845718	0.500054	0.330107
C101	C	1.343264	0.000052	-0.272229
C102	C	1.843264	0.500052	0.227771
C103	C	1.340196	0.000046	-0.400616
C104	C	1.840196	0.500046	0.099384
C105	C	1.334738	0.000045	0.371041
C106	C	1.834738	0.500045	0.871041
C107	C	1.337758	0.000041	0.497054
C108	C	1.837758	0.500041	0.997054
H109	H	1.480871	0.159042	0.024537
H110	H	1.980871	0.659042	0.524537
F111	F	1.500057	0.279100	0.005330
F112	F	2.000057	0.779100	0.505330
H113	H	1.125854	0.556226	0.379294
H114	H	1.625854	1.056226	0.879294
F115	F	1.183420	0.720993	0.321810
F116	F	1.683420	1.220993	0.821810
F117	F	1.106655	0.436166	0.398459
F118	F	1.606655	0.936166	0.898459
H119	H	1.202545	0.159074	0.302702
H120	H	1.702545	0.659074	0.802702
F121	F	1.183376	0.279154	0.321868
F122	F	1.683376	0.779154	0.821868
H123	H	1.480945	0.841028	0.024461
H124	H	1.980945	1.341028	0.524461
F125	F	1.576789	0.563913	-0.071356
F126	F	2.076789	1.063913	0.428644
F127	F	1.576776	0.436116	-0.071340
F128	F	2.076776	0.936116	0.428660
F129	F	1.183457	0.848794	0.321813
F130	F	1.683457	1.348794	0.821813
H131	H	1.480940	0.728690	0.024464
H132	H	1.980940	1.228690	0.524464
