data_functionalizedCrystal
_audit_creation_method	'MofGen! by Chris Wilmer'
_symmetry_space_group_name_H-M	'P1'
_symmetry_Int_Tables_number	1
_symmetry_cell_setting	triclinic
loop_
_symmetry_equiv_pos_as_xyz
  x,y,z
_cell_length_a	29.839134
_cell_length_b	18.050589
_cell_length_c	18.050582
_cell_angle_alpha	89.981088
_cell_angle_beta	90.025534
_cell_angle_gamma	89.976917
loop_
_atom_site_label
_atom_site_type_symbol
_atom_site_fract_x
_atom_site_fract_y
_atom_site_fract_z
Zn1	Zn	0.686777	0.295803	0.420128
Zn2	Zn	0.686721	0.419988	0.295947
Zn3	Zn	0.611655	0.295805	0.295931
Zn4	Zn	0.611624	0.419945	0.420074
O5	O	0.649194	0.357885	0.358020
O6	O	0.749636	0.312294	0.403684
O7	O	0.676753	0.403534	0.192020
O8	O	0.621656	0.191880	0.312421
O9	O	0.749596	0.403532	0.312449
O10	O	0.676847	0.191879	0.403668
O11	O	0.621602	0.312297	0.192008
O12	O	0.548784	0.312255	0.312369
O13	O	0.621604	0.403458	0.524006
O14	O	0.548761	0.403460	0.403577
O15	O	0.676818	0.312252	0.524045
O16	O	0.676724	0.523907	0.312397
O17	O	0.621550	0.523875	0.403593
C18	C	0.532472	0.357854	0.357966
C19	C	0.482537	0.357858	0.357961
C20	C	0.649140	0.550837	0.358008
C21	C	0.649158	0.633383	0.358027
C22	C	0.649214	0.357850	0.551726
C23	C	0.649222	0.357835	0.634271
C24	C	0.172892	0.405446	0.405454
C25	C	-0.014781	0.405467	0.405487
O26	O	-0.039048	0.445893	0.445835
N27	N	-0.038248	0.357913	0.358076
C28	C	-0.014793	0.310346	0.310657
O29	O	-0.039059	0.269894	0.270337
C30	C	0.172879	0.310322	0.310628
C31	C	0.196343	0.357885	0.358037
C32	C	0.196356	0.453004	0.452859
C33	C	0.243271	0.453001	0.452848
C34	C	0.266723	0.405440	0.405431
C35	C	0.243259	0.357882	0.358025
C36	C	0.196333	0.262753	0.263213
C37	C	0.243254	0.262749	0.263212
C38	C	0.266718	0.310312	0.310620
C39	C	0.313625	0.310318	0.310597
N40	N	0.337092	0.357872	0.358007
C41	C	0.313641	0.405433	0.405424
C42	C	-0.113324	0.310363	0.310674
C43	C	-0.160242	0.310370	0.310680
C44	C	-0.160226	0.405490	0.405511
C45	C	-0.113308	0.405486	0.405501
C46	C	-0.089857	0.357918	0.358085
C47	C	0.412166	0.405424	0.405396
C48	C	0.459086	0.405419	0.405378
C49	C	0.459067	0.310297	0.310550
C50	C	0.412151	0.310304	0.310565
C51	C	0.388702	0.357870	0.357994
O52	O	0.337921	0.269908	0.270275
O53	O	0.337915	0.445868	0.445750
C54	C	0.125976	0.405449	0.405465
C55	C	0.102512	0.357891	0.358060
C56	C	0.125964	0.310329	0.310643
C57	C	0.055594	0.357897	0.358066
C58	C	0.032143	0.405458	0.405483
C59	C	0.055610	0.453013	0.452894
C60	C	0.102525	0.453010	0.452882
C61	C	0.102497	0.262775	0.263232
C62	C	0.055582	0.262783	0.263247
C63	C	0.032130	0.310344	0.310664
C64	C	0.766373	0.357917	0.358074
C65	C	0.816307	0.357931	0.358097
C66	C	0.649261	0.164180	0.358049
C67	C	0.649289	0.081634	0.358061
C68	C	0.619184	0.832844	0.407602
C69	C	0.608236	0.882277	0.339832
C70	C	0.649202	0.784514	0.358037
C71	C	0.660173	0.882162	0.425815
C72	C	0.649244	0.930499	0.358052
C73	C	0.638232	0.832860	0.290231
C74	C	0.690188	0.832741	0.376260
C75	C	0.679255	0.882151	0.308442
C76	C	0.649177	0.700415	0.358029
C77	C	0.649269	1.014595	0.358052
C78	C	0.649201	0.357867	0.165068
C79	C	0.649280	0.357673	0.082522
C80	C	0.619225	0.407352	0.883076
C81	C	0.608251	0.339613	0.833680
C82	C	0.649260	0.357726	0.931392
C83	C	0.660194	0.425515	0.833706
C84	C	0.649240	0.357783	0.785407
C85	C	0.638265	0.289951	0.883083
C86	C	0.690227	0.375898	0.883114
C87	C	0.679269	0.308112	0.833740
C88	C	0.649270	0.357694	1.015490
C89	C	0.649230	0.357807	0.701310
H90	H	0.393080	0.444155	0.444019
C91	C	0.672689	0.911421	0.503239
C92	C	0.643291	0.891949	0.570577
C93	C	0.655802	0.921205	0.648002
C94	C	0.697712	0.969932	0.658088
C95	C	0.727112	0.989406	0.590747
C96	C	0.714601	0.960150	0.513322
H97	H	0.612265	0.855876	0.563113
H98	H	0.634038	0.906789	0.697852
H99	H	0.706973	0.991589	0.715402
H100	H	0.758138	1.025479	0.598211
H101	H	0.736365	0.974567	0.463472
C102	C	0.269048	0.210423	0.211049
C103	C	0.301275	0.242513	0.152677
C104	C	0.327067	0.190188	0.100515
C105	C	0.320633	0.105772	0.106724
C106	C	0.288404	0.073677	0.165098
C107	C	0.262612	0.126003	0.217261
H108	H	0.306039	0.305007	0.148079
H109	H	0.350925	0.213947	0.057302
H110	H	0.339726	0.067038	0.068110
H111	H	0.283639	0.011184	0.169697
H112	H	0.238754	0.102243	0.260474
H113	H	0.593814	0.449242	0.904739
H114	H	0.393046	0.271577	0.271959
C115	C	0.561439	0.318873	0.804340
C116	C	0.520649	0.367387	0.823801
C117	C	0.473836	0.346652	0.794464
C118	C	0.467813	0.277404	0.745666
C119	C	0.508604	0.228886	0.726202
C120	C	0.555417	0.249620	0.755538
H121	H	0.525107	0.418653	0.859927
H122	H	0.443640	0.382569	0.808873
H123	H	0.433160	0.262055	0.723949
H124	H	0.504147	0.177620	0.690076
H125	H	0.585613	0.213703	0.741130
C126	C	0.128331	0.505327	0.505038
C127	C	0.160561	0.563594	0.472761
C128	C	0.186363	0.615912	0.524921
C129	C	0.179935	0.609964	0.609356
C130	C	0.147704	0.551695	0.641637
C131	C	0.121902	0.499376	0.589477
H132	H	0.165320	0.567999	0.410253
H133	H	0.210222	0.659047	0.501024
H134	H	0.199036	0.648694	0.647968
H135	H	0.142945	0.547290	0.704145
H136	H	0.098043	0.456241	0.613374
H137	H	0.593762	0.811192	0.449459
C138	C	0.736974	0.803317	0.397104
C139	C	0.757565	0.822705	0.472897
C140	C	0.804351	0.793279	0.493751
C141	C	0.830547	0.744467	0.438814
C142	C	0.809956	0.725077	0.363017
C143	C	0.763170	0.754502	0.342162
H144	H	0.738174	0.858841	0.513569
H145	H	0.819594	0.807633	0.549862
H146	H	0.865181	0.722685	0.454252
H147	H	0.829348	0.688941	0.322344
H148	H	0.747928	0.740149	0.286051
C149	C	0.625703	0.212514	0.912254
C150	C	0.623372	0.198182	0.996268
C151	C	0.610807	0.120749	1.025440
C152	C	0.600573	0.057646	0.970598
C153	C	0.602903	0.071975	0.886579
C154	C	0.615468	0.149409	0.857407
H155	H	0.630948	0.244897	1.036870
H156	H	0.609083	0.110141	1.087637
H157	H	0.591272	0.000325	0.992193
H158	H	0.595327	0.025261	0.845977
H159	H	0.617193	0.160016	0.795210
C160	C	0.170534	0.210432	0.211056
C161	C	0.177013	0.126016	0.217262
C162	C	0.151217	0.073693	0.165098
C163	C	0.118942	0.105786	0.106729
C164	C	0.112462	0.190207	0.100521
C165	C	0.138258	0.242530	0.152684
H166	H	0.200907	0.102255	0.260473
H167	H	0.156015	0.011200	0.169694
H168	H	0.099847	0.067054	0.068114
H169	H	0.088569	0.213967	0.057310
H170	H	0.133460	0.305023	0.148088
H171	H	0.478188	0.444153	0.443984
H172	H	0.177267	0.491734	0.491476
C173	C	0.484871	0.257979	0.258399
C174	C	0.517149	0.199725	0.290691
C175	C	0.542956	0.147402	0.238546
C176	C	0.536485	0.153333	0.154108
C177	C	0.504206	0.211590	0.121811
C178	C	0.478399	0.263913	0.173957
H179	H	0.521940	0.195332	0.353201
H180	H	0.566851	0.104276	0.262455
H181	H	0.555589	0.114601	0.115507
H182	H	0.499415	0.215984	0.059302
H183	H	0.454504	0.307039	0.150048
C184	C	0.737027	0.396662	0.912478
C185	C	0.777967	0.348956	0.891919
C186	C	0.824767	0.369730	0.921285
C187	C	0.830626	0.438210	0.971210
C188	C	0.789684	0.485920	0.991772
C189	C	0.742884	0.465146	0.962406
H190	H	0.773631	0.298260	0.854959
H191	H	0.855075	0.334412	0.906064
H192	H	0.865270	0.453588	0.992949
H193	H	0.794020	0.536616	1.028732
H194	H	0.712576	0.500464	0.977627
C195	C	0.713572	0.251390	0.804653
C196	C	0.708541	0.168794	0.824329
C197	C	0.742841	0.112070	0.795241
C198	C	0.782173	0.137943	0.746476
C199	C	0.787206	0.220543	0.726797
C200	C	0.752905	0.277267	0.755886
H201	H	0.679424	0.149637	0.860430
H202	H	0.739116	0.050923	0.809809
H203	H	0.807565	0.095952	0.724943
H204	H	0.816323	0.239700	0.690697
H205	H	0.756631	0.338414	0.741318
C206	C	0.713573	0.911224	0.251765
C207	C	0.752923	0.959938	0.277686
C208	C	0.787239	0.989013	0.221007
C209	C	0.782204	0.969374	0.138408
C210	C	0.742852	0.920658	0.112484
C211	C	0.708537	0.891583	0.169162
H212	H	0.756652	0.974478	0.338834
H213	H	0.816369	1.025076	0.240199
H214	H	0.807606	0.990897	0.096451
H215	H	0.739124	0.906118	0.051335
H216	H	0.679406	0.855520	0.149971
C217	C	0.029807	0.505329	0.505055
C218	C	-0.002475	0.563587	0.472781
C219	C	-0.028280	0.615897	0.524943
C220	C	-0.021803	0.609949	0.609378
C221	C	0.010481	0.551688	0.641656
C222	C	0.036286	0.499379	0.589495
H223	H	-0.007271	0.567992	0.410273
H224	H	-0.052179	0.659025	0.501048
H225	H	-0.040905	0.648671	0.647991
H226	H	0.015277	0.547283	0.704164
H227	H	0.060185	0.456251	0.613389
H228	H	0.573595	0.904052	0.324433
C229	C	0.672703	0.502927	0.804407
C230	C	0.714592	0.512961	0.755632
C231	C	0.727097	0.590375	0.726336
C232	C	0.697712	0.657755	0.745815
C233	C	0.655820	0.647723	0.794593
C234	C	0.643315	0.570309	0.823889
H235	H	0.736347	0.463081	0.741210
H236	H	0.758109	0.597801	0.690227
H237	H	0.706969	0.715061	0.724128
H238	H	0.634065	0.697603	0.809015
H239	H	0.612303	0.562883	0.859997
C240	C	0.625668	0.803731	0.212780
C241	C	0.623307	0.719725	0.198467
C242	C	0.610744	0.690596	0.121017
C243	C	0.600541	0.745472	0.057881
C244	C	0.602902	0.829484	0.072192
C245	C	0.615465	0.858613	0.149641
H246	H	0.630860	0.679098	0.245206
H247	H	0.608997	0.628405	0.110424
H248	H	0.591241	0.723909	0.000548
H249	H	0.595349	0.870111	0.025453
H250	H	0.617212	0.920804	0.160235
H251	H	0.036481	0.224052	0.224634
H252	H	-0.094206	0.444215	0.444106
C253	C	0.269077	0.505314	0.505008
C254	C	0.262600	0.589732	0.498814
C255	C	0.288401	0.642045	0.550981
C256	C	0.320678	0.609941	0.609342
C257	C	0.327156	0.525519	0.615538
C258	C	0.301355	0.473206	0.563371
H259	H	0.238706	0.613501	0.455610
H260	H	0.283606	0.704540	0.546394
H261	H	0.339777	0.648666	0.647959
H262	H	0.351050	0.501750	0.658742
H263	H	0.306150	0.410711	0.567958
C264	C	-0.186028	0.457805	0.457674
C265	C	-0.237636	0.457803	0.457678
C266	C	-0.263440	0.510111	0.509842
C267	C	-0.237637	0.562421	0.562003
C268	C	-0.186026	0.562425	0.562001
C269	C	-0.160222	0.510117	0.509837
H270	H	-0.256740	0.419078	0.419064
H271	H	-0.301646	0.510108	0.509844
H272	H	-0.256739	0.601142	0.600618
H273	H	-0.166922	0.601150	0.600615
H274	H	-0.122016	0.510121	0.509835
H275	H	-0.094235	0.271626	0.272059
C276	C	-0.186049	0.258059	0.258521
C277	C	-0.160247	0.205745	0.206367
C278	C	-0.186052	0.153429	0.154209
C279	C	-0.237660	0.153428	0.154204
C280	C	-0.263465	0.205745	0.206360
C281	C	-0.237660	0.258060	0.258518
H282	H	-0.122041	0.205743	0.206369
H283	H	-0.166949	0.114701	0.115599
H284	H	-0.256763	0.114702	0.115593
H285	H	-0.301671	0.205746	0.206358
H286	H	-0.256763	0.296788	0.297128
H287	H	0.121586	0.224044	0.224619
