data_functionalizedCrystal
_audit_creation_method	'MofGen! by Chris Wilmer'
_symmetry_space_group_name_H-M	'P1'
_symmetry_Int_Tables_number	1
_symmetry_cell_setting	triclinic
loop_
_symmetry_equiv_pos_as_xyz
  x,y,z
_cell_length_a	11.792241
_cell_length_b	10.868271
_cell_length_c	16.109301
_cell_angle_alpha	89.994353
_cell_angle_beta	83.827448
_cell_angle_gamma	90.008606
loop_
_atom_site_label
_atom_site_type_symbol
_atom_site_fract_x
_atom_site_fract_y
_atom_site_fract_z
O1	O	1.505895	-0.102207	0.113955
O2	O	1.175451	-0.102236	0.125699
O3	O	1.349750	-0.102208	-0.001161
O4	O	1.331595	-0.102235	0.240815
O5	O	1.349765	0.102436	-0.001166
O6	O	1.175465	0.102409	0.125694
O7	O	1.505909	0.102438	0.113950
Zn8	Zn	1.340689	0.134915	0.119821
Zn9	Zn	1.340670	-0.134713	0.119828
O10	O	1.331609	0.102410	0.240810
C11	C	1.133173	0.000083	0.124959
C12	C	1.007179	0.000072	0.122751
N13	N	1.340658	-0.318727	0.119826
C14	C	1.349022	0.000115	-0.032142
C15	C	1.346817	0.000116	-0.124448
C16	C	0.776502	0.000108	0.118690
C17	C	0.904868	0.000088	0.120946
C18	C	1.548186	0.000116	0.114690
C19	C	1.674181	0.000119	0.116898
C20	C	1.340666	-0.430065	0.119826
C21	C	1.340687	-0.569743	0.119823
N22	N	1.340710	0.318929	0.119816
C23	C	1.445116	0.000105	-0.346258
C24	C	1.443036	0.000095	-0.432988
C25	C	1.236235	0.000082	-0.414087
C26	C	1.238317	0.000083	-0.327358
C27	C	1.342761	0.000101	-0.293446
C28	C	1.338599	0.000089	-0.466905
C29	C	1.336342	0.000078	-0.560942
C30	C	1.345018	0.000110	-0.199404
C31	C	1.332338	0.000084	0.271791
C32	C	1.334542	0.000074	0.364097
H33	H	1.530161	0.000117	-0.318650
H34	H	1.526384	0.000096	-0.475984
H35	H	1.154962	0.000076	-0.284357
H36	H	1.151201	0.000069	-0.441709
