data_functionalizedCrystal
_audit_creation_method	'MofGen! by Chris Wilmer'
_symmetry_space_group_name_H-M	'P1'
_symmetry_Int_Tables_number	1
_symmetry_cell_setting	triclinic
loop_
_symmetry_equiv_pos_as_xyz
  x,y,z
_cell_length_a	18.426585
_cell_length_b	20.875641
_cell_length_c	20.875641
_cell_angle_alpha	60.089808
_cell_angle_beta	90.001073
_cell_angle_gamma	62.441129
loop_
_atom_site_label
_atom_site_type_symbol
_atom_site_fract_x
_atom_site_fract_y
_atom_site_fract_z
Zr1	Zr	0.732332	0.694373	-0.105787
O2	O	0.625982	0.820610	-0.209049
O3	O	0.760955	0.563119	-0.070856
O4	O	0.771643	0.687143	-0.204329
O5	O	0.611391	0.704039	0.025983
O6	O	0.891069	0.687147	-0.204332
O7	O	0.615295	0.696586	-0.075577
O8	O	0.871951	0.465291	0.034426
O9	O	0.630508	0.925895	-0.212775
O10	O	0.867097	0.618967	-0.059918
O11	O	0.775057	0.624526	0.015876
O12	O	0.787640	0.770548	-0.141270
O13	O	0.695600	0.776107	-0.065476
Zr14	Zr	0.916577	0.706267	0.056184
Zr15	Zr	0.922803	0.694380	-0.105792
Zr16	Zr	0.726106	0.706260	0.056188
Zr17	Zr	0.739552	0.862291	-0.111730
Zr18	Zr	0.909358	0.538349	0.062126
O19	O	0.887954	0.837521	0.021253
O20	O	0.896807	0.820619	-0.209055
O21	O	0.617129	0.837512	0.021259
O22	O	1.022927	0.580031	0.159445
O23	O	1.031781	0.563129	-0.070863
O24	O	0.752102	0.580021	0.159451
O25	O	1.037519	0.696601	-0.075586
O26	O	0.877267	0.713498	0.154725
O27	O	0.757841	0.713493	0.154728
O28	O	1.033615	0.704054	0.025973
O29	O	0.781907	0.925900	-0.212779
O30	O	0.867002	0.474740	0.163175
O31	O	1.018401	0.474745	0.163171
O32	O	1.023350	0.465297	0.034423
O33	O	0.625559	0.935344	-0.084026
O34	O	0.776958	0.935349	-0.084030
O35	O	0.861270	0.630092	0.091667
O36	O	0.953310	0.624533	0.015872
O37	O	0.873853	0.776114	-0.065480
O38	O	0.781813	0.781673	0.010315
C39	C	0.815425	0.490280	-0.017368
C40	C	0.812360	0.418995	-0.014846
C41	C	0.858962	0.382603	-0.053224
C42	C	0.856084	0.315618	-0.050847
C43	C	0.806599	0.285031	-0.010094
C44	C	0.759996	0.321426	0.028289
C45	C	0.762879	0.388405	0.025916
C46	C	0.792829	0.085020	0.001252
C47	C	0.789948	0.018037	0.003621
C48	C	0.886037	0.012233	-0.075515
C49	C	0.888912	0.079217	-0.077888
C50	C	0.842312	0.115603	-0.039502
N51	N	0.803654	0.216564	-0.007665
N52	N	0.845263	0.184065	-0.041927
C53	C	0.586205	0.700312	-0.024796
C54	C	0.505345	0.700309	-0.024795
C55	C	0.209232	0.700335	-0.024809
C56	C	0.291617	0.700331	-0.024807
C57	C	0.357285	0.700322	-0.024802
C58	C	0.439677	0.700318	-0.024799
C59	C	1.062705	0.700329	-0.024807
C60	C	1.143565	0.700332	-0.024809
C61	C	0.832243	0.685451	-0.227408
C62	C	0.834886	0.680405	-0.296171
C63	C	0.833485	0.910360	-0.032235
C64	C	0.836549	0.981645	-0.034758
C65	C	0.794654	0.757156	-0.370941
C66	C	0.797149	0.752409	-0.435548
C67	C	0.839871	0.670910	-0.425384
C68	C	0.880109	0.594154	-0.350606
C69	C	0.877619	0.598901	-0.286001
C70	C	0.851771	0.648227	-0.614050
C71	C	0.854256	0.643485	-0.678663
C72	C	0.771296	0.801740	-0.763601
C73	C	0.768806	0.806481	-0.698990
C74	C	0.809047	0.729724	-0.624218
N75	N	0.842420	0.666056	-0.491421
N76	N	0.806503	0.734579	-0.558182
C77	C	0.816666	0.715189	0.177804
C78	C	0.814023	0.720236	0.246567
C79	C	1.053675	0.490289	-0.017374
C80	C	1.131470	0.419006	-0.014853
C81	C	0.807636	0.505149	0.185238
C82	C	0.801928	0.438910	0.256523
C83	C	1.045887	0.505158	0.185232
C84	C	1.121039	0.438922	0.256516
C85	C	0.603023	0.895482	-0.234836
C86	C	0.527871	0.961719	-0.306120
C87	C	0.595235	0.910351	-0.032230
C88	C	0.517439	0.981634	-0.034751
C89	C	0.841273	0.895491	-0.234842
C90	C	0.846981	0.961730	-0.306127
C91	C	1.123002	0.382626	-0.053238
C92	C	1.196092	0.315656	-0.050884
C93	C	1.277650	0.285064	-0.010141
C94	C	1.286117	0.321452	0.028244
C95	C	1.213028	0.388424	0.025886
C96	C	0.844250	0.410709	0.329569
C97	C	0.838883	0.348480	0.396555
C98	C	0.791200	0.314449	0.390494
C99	C	0.748874	0.342656	0.317441
C100	C	0.754235	0.404888	0.250457
C101	C	1.204383	0.404915	0.250428
C102	C	1.275004	0.342687	0.317400
C103	C	1.262279	0.314464	0.390460
C104	C	1.178926	0.348478	0.396546
C105	C	1.108307	0.410708	0.329575
C106	C	0.444527	0.995734	-0.300032
C107	C	0.373907	1.057982	-0.367005
C108	C	0.386632	1.086209	-0.440065
C109	C	0.469985	1.052191	-0.446151
C110	C	0.540603	0.989949	-0.379179
C111	C	0.525908	1.018021	0.003627
C112	C	0.452819	1.085008	0.001255
C113	C	0.371262	1.115602	-0.039490
C114	C	0.362794	1.079211	-0.077873
C115	C	0.435883	1.012230	-0.075505
C116	C	0.894672	0.995742	-0.300042
C117	C	0.900052	1.057972	-0.367016
C118	C	0.857735	1.086194	-0.440074
C119	C	0.810043	1.052176	-0.446158
C120	C	0.804669	0.989942	-0.379185
H121	H	0.923978	-0.017399	-0.106766
H122	H	0.710050	0.314938	0.312519
N123	N	0.461465	1.122181	0.040460
N124	N	0.434328	1.201877	0.003119
H125	H	0.440434	1.228131	0.030807
H126	H	0.765830	0.962256	-0.384150
H127	H	0.883079	0.438411	0.334518
H128	H	0.862118	1.136869	-0.494602
N129	N	0.710998	0.433680	0.175850
N130	N	0.668431	0.403281	0.170459
H131	H	0.637890	0.423613	0.117769
H132	H	0.899253	0.407506	-0.086413
H133	H	0.296380	1.104131	-0.111047
H134	H	0.873355	0.325522	0.456031
H135	H	1.214760	0.427885	0.190945
H136	H	1.337157	0.230530	-0.008227
N137	N	1.360133	0.307961	0.311158
N138	N	1.371475	0.333164	0.245919
H139	H	1.431596	0.308640	0.241507
H140	H	0.734019	0.872846	-0.707275
H141	H	1.352531	0.296534	0.061416
H142	H	1.189181	0.286037	-0.082143
H143	H	0.311755	1.170143	-0.041412
N144	N	0.751025	0.840399	-0.381313
N145	N	0.748808	0.844630	-0.323627
H146	H	0.717997	0.903423	-0.330954
H147	H	1.168578	0.325489	0.456041
N148	N	1.023180	0.445432	0.335814
N149	N	1.011840	0.420217	0.401055
H150	H	0.951720	0.444739	0.405468
N151	N	0.745180	0.122209	0.040424
N152	N	0.688770	0.201907	0.003054
H153	H	0.655101	0.228180	0.030712
H154	H	0.428975	0.982606	-0.106755
N155	N	0.937906	0.966932	-0.225426
N156	N	0.980487	0.997312	-0.220018
H157	H	1.011029	0.976965	-0.167322
H158	H	0.894031	0.285988	-0.082097
H159	H	0.775591	1.075164	-0.505651
H160	H	0.329122	1.136891	-0.494591
N161	N	0.948778	1.092704	-0.360789
N162	N	1.027259	1.042836	-0.325216
H163	H	1.061673	1.067363	-0.320816
N164	N	0.939461	0.110455	-0.119519
N165	N	0.924030	0.142703	-0.190598
H166	H	0.959732	0.164763	-0.220001
N167	N	0.739389	-0.013194	0.045251
N168	N	0.697785	0.019301	0.079520
H169	H	0.662078	-0.002755	0.108918
H170	H	0.889045	0.577115	-0.670378
H171	H	1.319789	0.263791	0.444986
H172	H	0.724929	0.418037	0.057166
H173	H	0.434150	0.972755	-0.240549
N174	N	0.785734	0.250865	0.458914
N175	N	0.743167	0.220475	0.453501
H176	H	0.739312	0.175566	0.501825
N177	N	0.709457	0.290170	0.069919
N178	N	0.706887	0.230369	0.072031
H179	H	0.671191	0.208296	0.101431
H180	H	0.764389	0.814908	-0.496427
N181	N	0.609219	0.986779	0.045236
N182	N	0.674479	0.926979	0.047348
H183	H	0.733317	0.904921	0.076732
N184	N	0.892866	0.569817	-0.537685
N185	N	0.971791	0.516291	-0.516457
H186	H	1.000811	0.460908	-0.462521
N187	N	0.923755	0.510911	-0.340235
N188	N	0.925974	0.506681	-0.397922
H189	H	0.956799	0.447890	-0.390597
N190	N	1.221701	0.425572	0.065103
N191	N	1.294529	0.398242	0.101477
H192	H	1.300661	0.424475	0.129176
H193	H	0.910380	0.536403	-0.225120
N194	N	1.039704	0.413848	-0.094855
N195	N	1.032171	0.381348	-0.129121
H196	H	0.973344	0.403395	-0.158517
H197	H	0.480336	1.075182	-0.505645
N198	N	0.288778	1.092714	-0.360763
N199	N	0.277435	1.067491	-0.295523
H200	H	0.217315	1.092018	-0.291112
N201	N	0.625730	0.955214	-0.385418
N202	N	0.637070	0.980429	-0.450659
H203	H	0.697190	0.955901	-0.455071
H204	H	0.738535	0.864231	-0.824484
