data_functionalizedCrystal
_audit_creation_method	'MofGen! by Chris Wilmer'
_symmetry_space_group_name_H-M	'P1'
_symmetry_Int_Tables_number	1
_symmetry_cell_setting	triclinic
loop_
_symmetry_equiv_pos_as_xyz
  x,y,z
_cell_length_a	21.295419
_cell_length_b	21.295417
_cell_length_c	12.759393
_cell_angle_alpha	90.039170
_cell_angle_beta	90.021680
_cell_angle_gamma	90.045308
loop_
_atom_site_label
_atom_site_type_symbol
_atom_site_fract_x
_atom_site_fract_y
_atom_site_fract_z
Zn1	Zn	0.962338	-0.250323	0.594015
Zn2	Zn	0.962245	-0.355608	0.418312
Zn3	Zn	0.857066	-0.250383	0.418345
Zn4	Zn	0.857030	-0.355586	0.593944
O5	O	0.909670	-0.302975	0.506154
O6	O	1.050415	-0.264274	0.570724
O7	O	0.948270	-0.341683	0.271295
O8	O	0.871084	-0.162286	0.441692
O9	O	1.050347	-0.341625	0.441636
O10	O	0.948427	-0.162242	0.570756
O11	O	0.870995	-0.264376	0.271319
O12	O	0.768972	-0.264355	0.441622
O13	O	0.871023	-0.341589	0.740974
O14	O	0.768946	-0.341647	0.570634
O15	O	0.948392	-0.264253	0.741027
O16	O	0.948235	-0.443694	0.441566
O17	O	0.870934	-0.443678	0.570602
C18	C	0.746118	-0.303005	0.506125
C19	C	0.676150	-0.303033	0.506137
C20	C	0.643341	-0.262822	0.573457
C21	C	0.577599	-0.262805	0.573461
C22	C	0.544668	-0.303011	0.506156
C23	C	0.577485	-0.343225	0.438823
C24	C	0.643226	-0.343236	0.438813
N25	N	0.441393	-0.358090	0.497945
N26	N	0.378941	-0.358077	0.497960
C27	C	0.346593	-0.302978	0.506179
N28	N	0.379056	-0.247891	0.514403
N29	N	0.441513	-0.247904	0.514393
C30	C	0.473382	-0.303003	0.506158
C31	C	0.242499	-0.262745	0.573507
C32	C	0.176755	-0.262727	0.573504
C33	C	0.176642	-0.343153	0.438871
C34	C	0.242384	-0.343165	0.438869
C35	C	0.275309	-0.302962	0.506193
C36	C	0.909587	-0.466527	0.506096
C37	C	0.909610	-0.536495	0.506106
C38	C	0.949896	-0.569349	0.438986
C39	C	0.949926	-0.635091	0.439010
C40	C	0.909658	-0.667977	0.506142
C41	C	0.869368	-0.635115	0.573276
C42	C	0.869344	-0.569374	0.573257
N43	N	0.854590	-0.771257	0.514142
N44	N	0.854615	-0.833708	0.514153
C45	C	0.909728	-0.866052	0.506203
N46	N	0.964817	-0.833585	0.498220
N47	N	0.964792	-0.771128	0.498204
C48	C	0.909679	-0.739263	0.506170
C49	C	0.950050	-0.970191	0.439104
C50	C	0.950080	-1.035935	0.439136
C51	C	0.869517	-1.035958	0.573396
C52	C	0.869492	-0.970216	0.573370
C53	C	0.909758	-0.937336	0.506219
C54	C	1.073860	-0.302945	0.506184
C55	C	1.143828	-0.302932	0.506197
C56	C	0.909714	-0.302912	0.780188
C57	C	0.909733	-0.302884	0.896964
C58	C	0.909770	-0.138785	0.506235
C59	C	0.909813	-0.068817	0.506270
C60	C	0.909662	-0.302993	0.233187
C61	C	0.909766	-0.302843	0.116411
C62	C	0.950024	-0.262612	0.951855
C63	C	0.950039	-0.262589	1.061580
C64	C	0.869470	-0.343117	1.061512
C65	C	0.869452	-0.343136	0.951790
C66	C	0.996543	-0.216122	0.951895
C67	C	0.996558	-0.216099	1.061620
H68	H	0.550881	-0.230057	0.628280
Cl69	Cl	0.684729	-0.212280	0.658090
H70	H	0.982734	-0.661846	0.384353
H71	H	0.269307	-0.230006	0.628320
Cl72	Cl	0.135509	-0.212168	0.658139
H73	H	1.045308	-0.229143	1.091400
Cl74	Cl	0.283632	-0.393716	0.354228
Cl75	Cl	0.969556	-0.144627	1.114209
Cl76	Cl	0.818748	-0.676457	0.657676
H77	H	0.149830	-0.375889	0.384070
Cl78	Cl	0.976426	-0.140863	0.905961
Cl79	Cl	0.684473	-0.393790	0.354172
Cl80	Cl	0.818694	-0.528070	0.657643
H81	H	0.836733	-1.062733	0.628061
Cl82	Cl	1.000668	-0.928854	0.354687
Cl83	Cl	0.818787	-0.393756	0.882787
Cl84	Cl	1.068016	-0.243082	0.899338
H85	H	0.550668	-0.375960	0.384022
Cl86	Cl	1.000736	-1.077238	0.354755
Cl87	Cl	1.000525	-0.528018	0.354583
H88	H	0.836685	-0.943464	0.628022
Cl89	Cl	0.818834	-0.393716	1.130442
