data_functionalizedCrystal
_audit_creation_method	'MofGen! by Chris Wilmer'
_symmetry_space_group_name_H-M	'P1'
_symmetry_Int_Tables_number	1
_symmetry_cell_setting	triclinic
loop_
_symmetry_equiv_pos_as_xyz
  x,y,z
_cell_length_a	16.959454
_cell_length_b	12.759401
_cell_length_c	12.759393
_cell_angle_alpha	90.018496
_cell_angle_beta	89.969286
_cell_angle_gamma	89.979764
loop_
_atom_site_label
_atom_site_type_symbol
_atom_site_fract_x
_atom_site_fract_y
_atom_site_fract_z
Zn1	Zn	-0.314632	-1.606216	-0.593988
Zn2	Zn	-0.446833	-1.606094	-0.418310
Zn3	Zn	-0.314673	-1.430518	-0.418327
Zn4	Zn	-0.446772	-1.430490	-0.593952
O5	O	-0.380727	-1.518330	-0.506144
O6	O	-0.332177	-1.753221	-0.570692
O7	O	-0.429345	-1.582764	-0.271291
O8	O	-0.204057	-1.453888	-0.441651
O9	O	-0.429304	-1.753131	-0.441622
O10	O	-0.204026	-1.582972	-0.570708
O11	O	-0.332247	-1.453769	-0.271304
O12	O	-0.332188	-1.283493	-0.441616
O13	O	-0.429201	-1.453840	-0.740978
O14	O	-0.429241	-1.283473	-0.570647
O15	O	-0.332118	-1.582945	-0.741004
O16	O	-0.557436	-1.582737	-0.441588
O17	O	-0.557391	-1.453722	-0.570631
C18	C	-0.380713	-1.245362	-0.506130
C19	C	-0.380726	-1.128586	-0.506149
C20	C	-0.586094	-1.518242	-0.506126
C21	C	-0.673950	-1.518300	-0.506154
C22	C	-0.380648	-1.518403	-0.780178
C23	C	-0.380614	-1.518435	-0.896954
C24	C	-1.045433	-1.451249	-0.573330
C25	C	-1.045419	-1.585703	-0.439066
C26	C	-0.962873	-1.585666	-0.439056
C27	C	-0.921603	-1.518419	-0.506183
C28	C	-0.962879	-1.451208	-0.573320
C29	C	-0.921591	-1.652869	-0.371913
C30	C	-0.839040	-1.652834	-0.371900
C31	C	-0.797769	-1.585591	-0.439033
C32	C	-0.839050	-1.518378	-0.506173
C33	C	-0.797780	-1.451130	-0.573300
C34	C	-0.839059	-1.383922	-0.640447
C35	C	-0.921607	-1.383965	-0.640453
C36	C	-0.715220	-1.585548	-0.439027
C37	C	-0.715226	-1.451089	-0.573291
C38	C	-0.174559	-1.518447	-0.506185
C39	C	-0.086703	-1.518496	-0.506203
C40	C	-0.380743	-1.792363	-0.506159
C41	C	-0.380749	-1.909140	-0.506165
C42	C	-0.431342	-1.073740	-0.573224
C43	C	-0.431352	-0.964016	-0.573235
C44	C	-0.330127	-0.963992	-0.439087
C45	C	-0.330114	-1.073714	-0.439082
C46	C	-0.481954	-1.128612	-0.640291
C47	C	-0.532575	-1.073766	-0.707370
C48	C	-0.532585	-0.964042	-0.707382
C49	C	-0.481974	-0.909164	-0.640313
C50	C	-0.330058	-1.585669	-0.951832
C51	C	-0.330029	-1.585694	-1.061556
C52	C	-0.431119	-1.451247	-1.061516
C53	C	-0.431143	-1.451218	-0.951793
C54	C	-0.279528	-1.652886	-0.896993
C55	C	-0.228968	-1.720126	-0.951870
C56	C	-0.228940	-1.720151	-1.061594
C57	C	-0.279471	-1.652935	-1.116441
C58	C	-0.380750	-1.518317	-0.233177
C59	C	-0.380561	-1.518489	-0.116401
H60	H	-0.805447	-1.329164	-0.695097
O61	O	-0.280898	-0.910849	-0.373901
C62	C	-0.236233	-0.982786	-0.314676
H63	H	-0.233521	-1.061017	-0.357711
H64	H	-0.173951	-0.951092	-0.303609
H65	H	-0.265108	-0.994420	-0.234818
H66	H	-0.573776	-1.118456	-0.761982
H67	H	-0.805436	-1.707559	-0.317227
H68	H	-0.955225	-1.329246	-0.695119
O69	O	-0.481988	-0.802577	-0.640154
C70	C	-0.502223	-0.765842	-0.539438
H71	H	-0.488656	-0.829031	-0.478927
H72	H	-0.466565	-0.692431	-0.520873
H73	H	-0.567809	-0.746359	-0.537070
H74	H	-0.481953	-1.217954	-0.640287
H75	H	-0.681629	-1.396332	-0.627958
H76	H	-0.573797	-0.919390	-0.762009
H77	H	-0.288892	-1.118370	-0.384471
O78	O	-0.279429	-1.652961	-0.790408
C79	C	-0.224007	-1.726723	-0.753770
H80	H	-0.177810	-1.741483	-0.817013
H81	H	-0.194029	-1.695024	-0.680369
H82	H	-0.255364	-1.803304	-0.734302
H83	H	-0.187823	-1.774844	-0.907207
O84	O	-0.179802	-1.785560	-1.114742
C85	C	-0.135196	-1.844856	-1.042806
H86	H	-0.167593	-1.848452	-0.964584
H87	H	-0.126765	-1.927647	-1.074516
H88	H	-0.075163	-1.806419	-1.031150
H89	H	-0.681615	-1.640263	-0.384352
H90	H	-0.279434	-1.652949	-1.205786
H91	H	-0.472259	-1.396523	-1.106180
H92	H	-0.472299	-1.396454	-0.907111
H93	H	-1.079046	-1.396533	-0.628001
O94	O	-1.085628	-1.650950	-0.373921
C95	C	-1.167339	-1.636530	-0.388282
H96	H	-1.178604	-1.602132	-0.469352
H97	H	-1.198691	-1.715226	-0.381163
H98	H	-1.190796	-1.580574	-0.325947
H99	H	-0.955199	-1.707610	-0.317254
