data_functionalizedCrystal
_audit_creation_method	'MofGen! by Chris Wilmer'
_symmetry_space_group_name_H-M	'P1'
_symmetry_Int_Tables_number	1
_symmetry_cell_setting	triclinic
loop_
_symmetry_equiv_pos_as_xyz
  x,y,z
_cell_length_a	12.759401
_cell_length_b	17.637651
_cell_length_c	12.759393
_cell_angle_alpha	101.248903
_cell_angle_beta	90.020938
_cell_angle_gamma	101.220604
loop_
_atom_site_label
_atom_site_type_symbol
_atom_site_fract_x
_atom_site_fract_y
_atom_site_fract_z
Zn1	Zn	1.521705	-0.314700	0.509352
Zn2	Zn	1.486064	-0.446936	0.298095
Zn3	Zn	1.345992	-0.314742	0.333676
Zn4	Zn	1.310478	-0.446881	0.473747
O5	O	1.416060	-0.380814	0.403718
O6	O	1.663997	-0.332247	0.481339
O7	O	1.467430	-0.429441	0.155783
O8	O	1.399080	-0.204094	0.386772
O9	O	1.637811	-0.429400	0.326129
O10	O	1.528175	-0.204063	0.515840
O11	O	1.364520	-0.332318	0.181924
O12	O	1.194262	-0.332265	0.352247
O13	O	1.338551	-0.429306	0.625502
O14	O	1.168170	-0.429347	0.455156
O15	O	1.493738	-0.332193	0.651661
O16	O	1.432993	-0.557571	0.291604
O17	O	1.303991	-0.557530	0.420655
C18	C	1.143095	-0.380805	0.403699
C19	C	1.026314	-0.380820	0.403711
C20	C	0.957873	-0.431447	0.457170
C21	C	0.848148	-0.431450	0.457190
C22	C	0.875316	-0.330196	0.350284
C23	C	0.985040	-0.330190	0.350271
C24	C	0.690629	-0.459820	0.573418
C25	C	0.622180	-0.510460	0.626864
C26	C	0.637045	-0.587621	0.622052
C27	C	0.720352	-0.614157	0.563775
C28	C	0.788793	-0.563522	0.510320
C29	C	0.773933	-0.486350	0.515154
C30	C	1.142559	-0.301827	0.234040
C31	C	1.211002	-0.251195	0.180578
C32	C	1.196140	-0.174033	0.185379
C33	C	1.112829	-0.147500	0.243637
C34	C	1.044386	-0.198132	0.297099
C35	C	1.059256	-0.275293	0.292300
C36	C	1.360799	-0.586238	0.348428
C37	C	1.337254	-0.674120	0.324810
C38	C	1.595609	-0.962775	0.583473
C39	C	1.573452	-1.045353	0.561262
C40	C	1.439114	-1.045493	0.426733
C41	C	1.461264	-0.962913	0.448929
C42	C	1.539512	-0.921561	0.527301
C43	C	1.405166	-0.921699	0.392757
C44	C	1.427311	-0.839126	0.414956
C45	C	1.505553	-0.797768	0.493327
C46	C	1.561656	-0.838989	0.549500
C47	C	1.326914	-0.963052	0.314391
C48	C	1.270816	-0.921838	0.258219
C49	C	1.292966	-0.839264	0.280412
C50	C	1.371207	-0.797906	0.358783
C51	C	1.236862	-0.798044	0.224239
C52	C	1.259007	-0.715472	0.246438
C53	C	1.393352	-0.715334	0.380981
C54	C	1.690090	-0.380825	0.403736
C55	C	1.806866	-0.380829	0.403744
C56	C	1.416159	-0.380739	0.677772
C57	C	1.416201	-0.380706	0.794557
C58	C	1.471565	-0.174588	0.459246
C59	C	1.495218	-0.086707	0.482910
C60	C	1.416037	-0.380833	0.130745
C61	C	1.416258	-0.380643	0.014020
C62	C	1.497014	-0.330131	0.863044
C63	C	1.497041	-0.330097	0.972777
C64	C	1.335437	-0.431220	0.945525
C65	C	1.335407	-0.431249	0.835795
C66	C	1.559719	-0.236813	1.147853
C67	C	1.640547	-0.186245	1.216341
C68	C	1.746318	-0.174121	1.184012
C69	C	1.771278	-0.212576	1.083192
C70	C	1.690454	-0.263150	1.014708
C71	C	1.584673	-0.275259	1.047040
C72	C	1.272739	-0.524535	0.660717
C73	C	1.191918	-0.575113	0.592229
C74	C	1.086144	-0.587245	0.624555
C75	C	1.061183	-0.548804	0.725374
C76	C	1.142004	-0.498226	0.793862
C77	C	1.247778	-0.486092	0.761529
H78	H	0.976557	-0.176520	0.344545
O79	O	1.885367	-0.199512	1.048327
H80	H	1.937374	-0.157882	1.112884
H81	H	1.251870	-0.132812	0.141835
O82	O	1.529446	-0.708707	0.517264
H83	H	1.514012	-0.686902	0.602347
O84	O	0.674601	-0.376591	0.578626
H85	H	0.736197	-0.345832	0.531682
O86	O	1.198509	-0.671016	0.185844
H87	H	1.155110	-0.633404	0.242929
H88	H	1.625381	-0.805318	0.613311
H89	H	0.581307	-0.628852	0.665570
O90	O	1.096791	-0.064273	0.248830
H91	H	1.158386	-0.033520	0.201878
O92	O	1.303042	-1.052113	0.290439
H93	H	1.275952	-1.073861	0.363818
O94	O	1.300863	-0.279808	0.117740
H95	H	1.299713	-0.341967	0.123394
H96	H	0.554354	-0.488847	0.674316
H97	H	1.375403	-1.079173	0.362925
O98	O	1.680017	-0.918169	0.667995
H99	H	1.685992	-0.853828	0.673984
O100	O	0.830794	-0.275615	0.292605
H101	H	0.742994	-0.284137	0.301573
O102	O	1.613631	-0.144765	1.325077
H103	H	1.636073	-0.079991	1.330972
O104	O	1.158583	-0.385058	0.228861
H105	H	1.228000	-0.395006	0.179352
H106	H	0.975054	-0.558685	0.751696
O107	O	1.477755	-0.670720	0.465503
H108	H	1.455456	-0.686526	0.543698
O109	O	1.717356	-0.304621	0.905968
H110	H	1.804487	-0.287693	0.894988
O111	O	1.002392	-0.486035	0.514840
H112	H	1.090189	-0.477527	0.505852
H113	H	1.812129	-0.132947	1.239784
O114	O	0.736378	-0.697387	0.558567
H115	H	0.751643	-0.706179	0.640582
O116	O	1.633967	-1.089810	0.621844
H117	H	1.692101	-1.047180	0.680062
H118	H	1.207105	-0.955518	0.194411
O119	O	1.152478	-0.842647	0.139703
H120	H	1.146510	-0.906989	0.133699
O121	O	1.445630	-0.249882	1.182714
H122	H	1.441861	-0.214654	1.264328
H123	H	0.856619	-0.585127	0.462871
H124	H	1.562800	-0.288974	0.829472
H125	H	1.269659	-0.472372	0.979115
O126	O	1.115089	-0.456751	0.902600
H127	H	1.027956	-0.473677	0.913573
O128	O	0.998966	-0.641797	0.550688
H129	H	1.034087	-0.666492	0.475149
O130	O	1.218832	-0.616577	0.483484
H131	H	1.305959	-0.599635	0.472501
H132	H	1.358868	-0.514655	0.634384
