data_functionalizedCrystal
_audit_creation_method	'MofGen! by Chris Wilmer'
_symmetry_space_group_name_H-M	'P1'
_symmetry_Int_Tables_number	1
_symmetry_cell_setting	triclinic
loop_
_symmetry_equiv_pos_as_xyz
  x,y,z
_cell_length_a	11.169417
_cell_length_b	12.594516
_cell_length_c	11.169417
_cell_angle_alpha	90.006626
_cell_angle_beta	90.000863
_cell_angle_gamma	90.016931
loop_
_atom_site_label
_atom_site_type_symbol
_atom_site_fract_x
_atom_site_fract_y
_atom_site_fract_z
Zn1	Zn	1.834690	-0.423891	0.678550
Zn2	Zn	2.334690	0.076109	1.178550
Zn3	Zn	1.834626	-0.601840	0.477871
Zn4	Zn	2.334626	-0.101840	0.977871
Zn5	Zn	1.634042	-0.423879	0.477885
Zn6	Zn	2.134042	0.076121	0.977885
Zn7	Zn	1.633963	-0.601830	0.678516
Zn8	Zn	2.133963	-0.101830	1.178516
O9	O	1.734330	-0.512860	0.578205
O10	O	2.234330	-0.012860	1.078205
O11	O	2.002631	-0.447505	0.651938
O12	O	2.502631	0.052495	1.151938
O13	O	1.808024	-0.578232	0.309923
O14	O	2.308024	-0.078232	0.809923
O15	O	1.660719	-0.274935	0.504524
O16	O	2.160719	0.225065	1.004524
O17	O	2.002584	-0.578244	0.504500
O18	O	2.502584	-0.078244	1.004500
O19	O	1.808134	-0.274943	0.651952
O20	O	2.308134	0.225057	1.151952
O21	O	1.660656	-0.447485	0.309933
O22	O	2.160656	0.052515	0.809933
O23	O	1.466082	-0.447475	0.504490
O24	O	1.966082	0.052525	1.004490
O25	O	1.660584	-0.578227	0.846470
O26	O	2.160584	-0.078227	1.346470
O27	O	1.466024	-0.578216	0.651893
O28	O	1.966024	-0.078216	1.151893
O29	O	1.808057	-0.447496	0.846495
O30	O	2.308057	0.052504	1.346495
O31	O	1.807948	-0.750785	0.504466
O32	O	2.307948	-0.250785	1.004466
O33	O	1.660522	-0.750777	0.651879
O34	O	2.160522	-0.250777	1.151879
C35	C	1.422506	-0.512844	0.578190
C36	C	1.922506	-0.012844	1.078190
C37	C	1.289106	-0.512863	0.578212
C38	C	1.789106	-0.012863	1.078212
C39	C	1.734252	-0.789401	0.578194
C40	C	2.234252	-0.289401	1.078194
C41	C	1.734328	-0.907706	0.578229
C42	C	2.234328	-0.407706	1.078229
C43	C	1.654135	-0.976994	0.658350
C44	C	2.154135	-0.476994	1.158350
C45	C	1.624925	-1.047827	0.548837
C46	C	2.124925	-0.547827	1.048837
C47	C	1.763647	-1.047673	0.687761
C48	C	2.263647	-0.547673	1.187761
C49	C	1.705060	-0.976981	0.468658
C50	C	2.205060	-0.476981	0.968658
C51	C	1.843833	-0.976821	0.607655
C52	C	2.343833	-0.476821	1.107655
C53	C	1.814665	-1.047621	0.498066
C54	C	2.314665	-0.547621	0.998066
C55	C	2.047373	-0.512877	0.578222
C56	C	2.547373	-0.012877	1.078222
C57	C	2.180773	-0.512884	0.578228
C58	C	2.680773	-0.012884	1.078228
C59	C	1.734319	-0.512862	0.891248
C60	C	2.234319	-0.012862	1.391248
C61	C	1.734314	-0.512862	1.024648
C62	C	2.234314	-0.012862	1.524648
C63	C	1.734442	-0.235239	0.578243
C64	C	2.234442	0.264761	1.078243
C65	C	1.734490	-0.116934	0.578260
C66	C	2.234490	0.383066	1.078260
C67	C	1.734328	-0.512878	1.266381
C68	C	2.234328	-0.012878	1.766381
C69	C	1.734317	-0.512864	1.132981
C70	C	2.234317	-0.012864	1.632981
H71	H	1.586198	-0.945981	0.726008
H72	H	2.086198	-0.445981	1.226008
F73	F	1.503974	-1.088591	0.516310
F74	F	2.003974	-0.588591	1.016310
H75	H	1.680220	-0.946058	0.376015
H76	H	2.180220	-0.446058	0.876015
F77	F	1.903399	-1.087901	0.409423
F78	F	2.403399	-0.587901	0.909423
F79	F	1.964751	-0.936024	0.640222
F80	F	2.464751	-0.436024	1.140222
F81	F	1.795974	-1.088264	0.808816
F82	F	2.295974	-0.588264	1.308816
