data_functionalizedCrystal
_audit_creation_method	'MofGen! by Chris Wilmer'
_symmetry_space_group_name_H-M	'P1'
_symmetry_Int_Tables_number	1
_symmetry_cell_setting	triclinic
loop_
_symmetry_equiv_pos_as_xyz
  x,y,z
_cell_length_a	18.215407
_cell_length_b	12.594516
_cell_length_c	18.215399
_cell_angle_alpha	90.022106
_cell_angle_beta	90.017368
_cell_angle_gamma	90.013496
loop_
_atom_site_label
_atom_site_type_symbol
_atom_site_fract_x
_atom_site_fract_y
_atom_site_fract_z
Zn1	Zn	1.125117	-0.423826	0.416097
Zn2	Zn	1.458450	-0.090492	0.749431
Zn3	Zn	1.791784	0.242841	1.082764
Zn4	Zn	1.125044	-0.601823	0.293044
Zn5	Zn	1.458378	-0.268490	0.626377
Zn6	Zn	1.791711	0.064843	0.959710
Zn7	Zn	1.002050	-0.423851	0.293050
Zn8	Zn	1.335383	-0.090518	0.626383
Zn9	Zn	1.668716	0.242816	0.959717
Zn10	Zn	1.002035	-0.601755	0.416074
Zn11	Zn	1.335368	-0.268421	0.749407
Zn12	Zn	1.668701	0.064912	1.082740
O13	O	1.063561	-0.512814	0.354566
O14	O	1.396895	-0.179480	0.687900
O15	O	1.730228	0.153853	1.021233
O16	O	1.228092	-0.447455	0.399781
O17	O	1.561425	-0.114122	0.733115
O18	O	1.894758	0.219211	1.066448
O19	O	1.108705	-0.578254	0.190060
O20	O	1.442038	-0.244921	0.523393
O21	O	1.775372	0.088413	0.856727
O22	O	1.018412	-0.274902	0.309385
O23	O	1.351745	0.058431	0.642718
O24	O	1.685078	0.391765	0.976052
O25	O	1.228038	-0.578229	0.309374
O26	O	1.561372	-0.244896	0.642707
O27	O	1.894705	0.088437	0.976041
O28	O	1.108829	-0.274883	0.399787
O29	O	1.442162	0.058450	0.733121
O30	O	1.775495	0.391783	1.066454
O31	O	1.018341	-0.447499	0.190065
O32	O	1.351674	-0.114166	0.523398
O33	O	1.685008	0.219168	0.856732
O34	O	0.899063	-0.447432	0.309362
O35	O	1.232397	-0.114099	0.642696
O36	O	1.565730	0.219234	0.976029
O37	O	1.018386	-0.578113	0.519061
O38	O	1.351719	-0.244779	0.852395
O39	O	1.685052	0.088554	1.185728
O40	O	0.899052	-0.578137	0.399747
O41	O	1.232386	-0.244804	0.733081
O42	O	1.565719	0.088529	1.066414
O43	O	1.108814	-0.447389	0.519079
O44	O	1.442147	-0.114056	0.852412
O45	O	1.775481	0.219278	1.185745
O46	O	1.108690	-0.750760	0.309351
O47	O	1.442024	-0.417427	0.642685
O48	O	1.775357	-0.084093	0.976018
O49	O	1.018315	-0.750709	0.399741
O50	O	1.351649	-0.417376	0.733074
O51	O	1.684982	-0.084043	1.066408
C52	C	0.872355	-0.512781	0.354553
C53	C	1.205689	-0.179448	0.687887
C54	C	1.539022	0.153886	1.021220
C55	C	0.790556	-0.512793	0.354565
C56	C	1.123890	-0.179459	0.687899
C57	C	1.457223	0.153874	1.021232
C58	C	1.063513	-0.789355	0.354559
C59	C	1.396847	-0.456021	0.687892
C60	C	1.730180	-0.122688	1.021226
C61	C	1.063560	-0.907660	0.354581
C62	C	1.396893	-0.574327	0.687914
C63	C	1.730227	-0.240993	1.021247
C64	C	0.602389	-0.444839	0.401715
C65	C	0.935722	-0.111505	0.735048
C66	C	1.269056	0.221828	1.068381
C67	C	0.525530	-0.444848	0.401717
C68	C	0.858864	-0.111514	0.735050
C69	C	1.192197	0.221819	1.068384
C70	C	0.525486	-0.580818	0.307431
C71	C	0.858819	-0.247485	0.640764
C72	C	1.192152	0.085848	0.974097
C73	C	0.602343	-0.580803	0.307425
C74	C	0.935676	-0.247470	0.640758
C75	C	1.269010	0.085864	0.974092
C76	C	0.640793	-0.512815	0.354571
C77	C	0.974126	-0.179482	0.687905
C78	C	1.307459	0.153852	1.021238
C79	C	0.487077	-0.512839	0.354579
C80	C	0.820410	-0.179506	0.687913
C81	C	1.153743	0.153827	1.021246
C82	C	0.403743	-0.512850	0.354582
C83	C	0.737076	-0.179516	0.687915
C84	C	1.070410	0.153817	1.021248
C85	C	0.724132	-0.512803	0.354568
C86	C	1.057465	-0.179469	0.687901
C87	C	1.390798	0.153864	1.021235
C88	C	1.014400	-0.976924	0.403709
C89	C	1.347734	-0.643591	0.737042
C90	C	1.681067	-0.310258	1.070376
C91	C	0.996471	-1.047782	0.336557
C92	C	1.329804	-0.714448	0.669890
C93	C	1.663138	-0.381115	1.003223
C94	C	1.081556	-1.047602	0.421744
C95	C	1.414890	-0.714268	0.755078
C96	C	1.748223	-0.380935	1.088411
C97	C	1.045595	-0.976959	0.287393
C98	C	1.378928	-0.643626	0.620726
C99	C	1.712262	-0.310292	0.954059
C100	C	1.130712	-0.976773	0.372625
C101	C	1.464045	-0.643440	0.705959
C102	C	1.797378	-0.310106	1.039292
C103	C	1.112808	-1.047598	0.305427
C104	C	1.446141	-0.714265	0.638760
C105	C	1.779475	-0.380932	0.972094
C106	C	1.255514	-0.512847	0.354580
C107	C	1.588848	-0.179514	0.687913
C108	C	1.922181	0.153819	1.021246
C109	C	1.337313	-0.512862	0.354585
C110	C	1.670647	-0.179528	0.687919
C111	C	2.003980	0.153805	1.021252
C112	C	1.063606	-0.512740	0.546519
C113	C	1.396940	-0.179407	0.879853
C114	C	1.730273	0.153926	1.213186
C115	C	1.063625	-0.512709	0.628318
C116	C	1.396959	-0.179376	0.961651
C117	C	1.730292	0.153958	1.294985
C118	C	1.063630	-0.235193	0.354590
C119	C	1.396963	0.098141	0.687923
C120	C	1.730297	0.431474	1.021256
C121	C	1.063659	-0.116887	0.354599
C122	C	1.396992	0.216446	0.687933
C123	C	1.730326	0.549779	1.021266
C124	C	1.063559	-0.512810	0.163360
C125	C	1.396892	-0.179477	0.496693
C126	C	1.730226	0.153857	0.830027
C127	C	1.063683	-0.512541	0.081561
C128	C	1.397016	-0.179208	0.414895
C129	C	1.730349	0.154125	0.748228
C130	C	1.110728	-0.444578	0.816522
C131	C	1.444062	-0.111244	1.149856
C132	C	1.777395	0.222089	1.483189
C133	C	1.110737	-0.444547	0.893381
C134	C	1.444070	-0.111213	1.226714
C135	C	1.777404	0.222120	1.560048
C136	C	1.016574	-0.580676	0.893352
C137	C	1.349908	-0.247342	1.226685
C138	C	1.683241	0.085991	1.560019
C139	C	1.016563	-0.580701	0.816494
C140	C	1.349896	-0.247367	1.149828
C141	C	1.683229	0.085966	1.483161
C142	C	1.063644	-0.512653	0.778082
C143	C	1.396977	-0.179320	1.111415
C144	C	1.730310	0.154014	1.444748
C145	C	1.063664	-0.512597	0.931798
C146	C	1.396998	-0.179264	1.265131
C147	C	1.730331	0.154069	1.598465
C148	C	1.063674	-0.512564	1.015132
C149	C	1.397007	-0.179231	1.348465
C150	C	1.730340	0.154103	1.681798
C151	C	1.063634	-0.512685	0.694743
C152	C	1.396967	-0.179351	1.028076
C153	C	1.730300	0.153982	1.361409
H154	H	0.633693	-0.389475	0.440102
H155	H	0.967026	-0.056142	0.773435
H156	H	1.300359	0.277192	1.106768
Br157	Br	0.952685	-0.673025	0.945488
Br158	Br	1.286018	-0.339692	1.278821
Br159	Br	1.619351	-0.006359	1.612155
H160	H	0.494266	-0.389493	0.440105
H161	H	0.827599	-0.056160	0.773438
H162	H	1.160932	0.277174	1.106771
Br163	Br	0.952651	-0.673086	0.764320
Br164	Br	1.285984	-0.339753	1.097653
Br165	Br	1.619317	-0.006420	1.430987
Br166	Br	1.174622	-0.352226	0.764393
Br167	Br	1.507955	-0.018893	1.097726
Br168	Br	1.841289	0.314441	1.431059
Br169	Br	1.174646	-0.352162	0.945548
Br170	Br	1.507979	-0.018828	1.278881
Br171	Br	1.841313	0.314505	1.612215
H172	H	0.633612	-0.636159	0.269031
H173	H	0.966946	-0.302825	0.602365
H174	H	1.300279	0.030508	0.935698
Br175	Br	0.473300	-0.673085	0.243451
Br176	Br	0.806633	-0.339752	0.576784
Br177	Br	1.139966	-0.006419	0.910118
H178	H	0.972753	-0.945891	0.445195
H179	H	1.306087	-0.612558	0.778528
H180	H	1.639420	-0.279225	1.111861
Br181	Br	0.901891	-1.099763	0.311120
Br182	Br	1.235225	-0.766430	0.644453
Br183	Br	1.568558	-0.433096	0.977787
H184	H	1.030348	-0.946057	0.230585
H185	H	1.363681	-0.612723	0.563919
H186	H	1.697015	-0.279390	0.897252
H187	H	1.154423	-1.078434	0.263841
H188	H	1.487756	-0.745101	0.597174
H189	H	1.821090	-0.411768	0.930508
H190	H	1.187442	-0.945562	0.387905
H191	H	1.520775	-0.612229	0.721238
H192	H	1.854108	-0.278895	1.054571
H193	H	1.096738	-1.078632	0.478536
H194	H	1.430071	-0.745299	0.811869
H195	H	1.763404	-0.411966	1.145203
