data_functionalizedCrystal
_audit_creation_method	'MofGen! by Chris Wilmer'
_symmetry_space_group_name_H-M	'P1'
_symmetry_Int_Tables_number	1
_symmetry_cell_setting	triclinic
loop_
_symmetry_equiv_pos_as_xyz
  x,y,z
_cell_length_a	16.625547
_cell_length_b	16.625539
_cell_length_c	10.686285
_cell_angle_alpha	85.609990
_cell_angle_beta	85.631193
_cell_angle_gamma	89.978691
loop_
_atom_site_label
_atom_site_type_symbol
_atom_site_fract_x
_atom_site_fract_y
_atom_site_fract_z
Zn1	Zn	1.257367	-0.431441	-0.502369
Zn2	Zn	1.267659	-0.286293	-0.713382
Zn3	Zn	1.122538	-0.296610	-0.502406
Zn4	Zn	1.132876	-0.421076	-0.713312
O5	O	1.195110	-0.358855	-0.607867
O6	O	1.371565	-0.412207	-0.530374
O7	O	1.248389	-0.174827	-0.685440
O8	O	1.131790	-0.323152	-0.325826
O9	O	1.379127	-0.305567	-0.685404
O10	O	1.230848	-0.422212	-0.325799
O11	O	1.141770	-0.182407	-0.530437
O12	O	1.011077	-0.313101	-0.530369
O13	O	1.149409	-0.535286	-0.685285
O14	O	1.018672	-0.404545	-0.685321
O15	O	1.240872	-0.542901	-0.530306
O16	O	1.258413	-0.295516	-0.889948
O17	O	1.159389	-0.394541	-0.889896
C18	C	0.985618	-0.358818	-0.607843
C19	C	0.895998	-0.358820	-0.607863
C20	C	0.823215	-0.358830	-0.607865
C21	C	0.731907	-0.358850	-0.607872
C22	C	0.659131	-0.358870	-0.607883
C23	C	0.567818	-0.358889	-0.607892
C24	C	1.195145	-0.569168	-0.607784
C25	C	1.195160	-0.658791	-0.607748
C26	C	1.195172	-0.731575	-0.607720
C27	C	1.195189	-0.822886	-0.607673
C28	C	1.195206	-0.895664	-0.607629
C29	C	1.195223	-0.986981	-0.607583
C30	C	1.405420	-0.358893	-0.607893
C31	C	1.495042	-0.358909	-0.607903
C32	C	1.211162	-0.342802	-0.935706
C33	C	1.218102	-0.335961	-1.075957
C34	C	1.195117	-0.149365	-0.607859
C35	C	1.195240	-0.059760	-0.607539
C36	C	1.179018	-0.374989	-0.278748
C37	C	1.172160	-0.381864	-0.138497
H38	H	1.127517	-0.426398	-1.084746
H39	H	1.262742	-0.291419	-1.129716
