data_functionalizedCrystal
_audit_creation_method	'MofGen! by Chris Wilmer'
_symmetry_space_group_name_H-M	'P1'
_symmetry_Int_Tables_number	1
_symmetry_cell_setting	triclinic
loop_
_symmetry_equiv_pos_as_xyz
  x,y,z
_cell_length_a	13.897449
_cell_length_b	17.077396
_cell_length_c	13.897448
_cell_angle_alpha	89.971798
_cell_angle_beta	89.982475
_cell_angle_gamma	90.018309
loop_
_atom_site_label
_atom_site_type_symbol
_atom_site_fract_x
_atom_site_fract_y
_atom_site_fract_z
Zn1	Zn	-1.474659	-0.443871	-0.384011
Zn2	Zn	-0.974659	0.056129	0.115989
Zn3	Zn	-1.474566	-0.312608	-0.545326
Zn4	Zn	-0.974566	0.187392	-0.045326
Zn5	Zn	-1.313361	-0.312617	-0.384046
Zn6	Zn	-0.813361	0.187383	0.115954
Zn7	Zn	-1.313330	-0.443829	-0.545265
Zn8	Zn	-0.813330	0.056171	-0.045265
O9	O	-1.393979	-0.378231	-0.464662
O10	O	-0.893979	0.121769	0.035338
O11	O	-1.609629	-0.426473	-0.405421
O12	O	-1.109629	0.073527	0.094579
O13	O	-1.453156	-0.202762	-0.523972
O14	O	-0.953156	0.297238	-0.023972
O15	O	-1.334810	-0.330049	-0.249060
O16	O	-0.834810	0.169951	0.250940
O17	O	-1.609560	-0.330034	-0.523938
O18	O	-1.109560	0.169966	-0.023938
O19	O	-1.453315	-0.426481	-0.249034
O20	O	-0.953315	0.073519	0.250966
O21	O	-1.334719	-0.202768	-0.405481
O22	O	-0.834719	0.297232	0.094519
O23	O	-1.178376	-0.330008	-0.405422
O24	O	-0.678376	0.169992	0.094578
O25	O	-1.334757	-0.553681	-0.523835
O26	O	-0.834757	-0.053681	-0.023835
O27	O	-1.178353	-0.426409	-0.523869
O28	O	-0.678353	0.073591	-0.023869
O29	O	-1.453285	-0.553712	-0.405362
O30	O	-0.953285	-0.053712	0.094638
O31	O	-1.453126	-0.329993	-0.680300
O32	O	-0.953126	0.170007	-0.180300
O33	O	-1.334666	-0.426401	-0.680255
O34	O	-0.834666	0.073599	-0.180255
C35	C	-1.143365	-0.378206	-0.464643
C36	C	-0.643365	0.121794	0.035357
C37	C	-1.036151	-0.378213	-0.464658
C38	C	-0.536151	0.121787	0.035342
C39	C	-1.394028	-0.582975	-0.464588
C40	C	-0.894028	-0.082975	0.035412
C41	C	-1.394048	-0.670225	-0.464556
C42	C	-0.894048	-0.170225	0.035444
C43	C	-1.393909	-0.378208	-0.715277
C44	C	-0.893909	0.121792	-0.215277
C45	C	-1.393967	-0.378225	-0.822491
C46	C	-0.893967	0.121775	-0.322491
C47	C	-0.839856	-0.378228	-0.464657
C48	C	-0.339856	0.121772	0.035343
C49	C	-0.949088	-0.378218	-0.464654
C50	C	-0.449088	0.121782	0.035346
C51	C	-0.645572	-0.378249	-0.464676
C52	C	-0.145572	0.121751	0.035324
C53	C	-0.752786	-0.378238	-0.464666
C54	C	-0.252786	0.121762	0.035334
C55	C	-1.332397	-0.711218	-0.402850
C56	C	-0.832397	-0.211218	0.097150
C57	C	-1.332413	-0.793199	-0.402828
C58	C	-0.832413	-0.293199	0.097172
C59	C	-1.394085	-0.834185	-0.464508
C60	C	-0.894085	-0.334185	0.035492
C61	C	-1.455739	-0.793186	-0.526221
C62	C	-0.955739	-0.293186	-0.026221
C63	C	-1.455718	-0.711207	-0.526247
C64	C	-0.955718	-0.211207	-0.026247
C65	C	-1.455781	-0.964056	-0.526160
C66	C	-0.955781	-0.464056	-0.026160
C67	C	-1.455804	-1.046041	-0.526133
C68	C	-0.955804	-0.546041	-0.026133
C69	C	-1.332476	-1.046048	-0.402742
C70	C	-0.832476	-0.546048	0.097258
C71	C	-1.332455	-0.964069	-0.402768
C72	C	-0.832455	-0.464069	0.097232
C73	C	-1.394110	-0.923076	-0.464479
C74	C	-0.894110	-0.423076	0.035521
C75	C	-1.393986	-0.174283	-0.464667
C76	C	-0.893986	0.325717	0.035333
C77	C	-1.394153	-0.087034	-0.464427
C78	C	-0.894153	0.412966	0.035573
C79	C	-1.394068	-0.378274	-1.018786
C80	C	-0.894068	0.121726	-0.518786
C81	C	-1.394009	-0.378249	-0.909553
C82	C	-0.894009	0.121751	-0.409553
C83	C	-1.394076	-0.378271	-0.213069
C84	C	-0.894076	0.121729	0.286931
C85	C	-1.394117	-0.378288	-0.105855
C86	C	-0.894117	0.121712	0.394145
H87	H	-1.282207	-0.826572	-0.352584
H88	H	-0.782207	-0.326572	0.147416
N89	N	-1.518748	-0.835032	-0.589233
N90	N	-1.018748	-0.335032	-0.089233
N91	N	-1.512325	-0.825857	-0.678243
N92	N	-1.012325	-0.325857	-0.178243
H93	H	-1.556833	-0.855406	-0.722744
H94	H	-1.056833	-0.355406	-0.222744
H95	H	-1.505928	-0.677832	-0.576487
H96	H	-1.005928	-0.177832	-0.076487
H97	H	-1.506023	-1.079409	-0.576358
H98	H	-1.006023	-0.579409	-0.076358
N99	N	-1.269405	-0.669368	-0.339826
N100	N	-0.769405	-0.169368	0.160174
N101	N	-1.214366	-0.705983	-0.284734
N102	N	-0.714366	-0.205983	0.215266
H103	H	-1.169876	-0.676429	-0.240220
H104	H	-0.669876	-0.176429	0.259780
H105	H	-1.282275	-1.079428	-0.352492
H106	H	-0.782275	-0.579428	0.147508
N107	N	-1.269459	-0.922213	-0.339752
N108	N	-0.769459	-0.422213	0.160248
N109	N	-1.214415	-0.958821	-0.284659
N110	N	-0.714415	-0.458821	0.215341
H111	H	-1.169921	-0.929261	-0.240155
H112	H	-0.669921	-0.429261	0.259845
N113	N	-1.518760	-0.922194	-0.589208
N114	N	-1.018760	-0.422194	-0.089208
N115	N	-1.573822	-0.958795	-0.644275
N116	N	-1.073822	-0.458795	-0.144275
H117	H	-1.618303	-0.929230	-0.688800
H118	H	-1.118303	-0.429230	-0.188800
