data_functionalizedCrystal
_audit_creation_method	'MofGen! by Chris Wilmer'
_symmetry_space_group_name_H-M	'P1'
_symmetry_Int_Tables_number	1
_symmetry_cell_setting	triclinic
loop_
_symmetry_equiv_pos_as_xyz
  x,y,z
_cell_length_a	14.472310
_cell_length_b	9.065218
_cell_length_c	9.065218
_cell_angle_alpha	94.984115
_cell_angle_beta	89.999097
_cell_angle_gamma	89.986847
loop_
_atom_site_label
_atom_site_type_symbol
_atom_site_fract_x
_atom_site_fract_y
_atom_site_fract_z
O1	O	0.076839	-1.960421	0.216347
O2	O	0.076840	-1.531136	0.234094
O3	O	0.076838	-1.754652	0.010578
O4	O	0.076842	-1.736905	0.439863
O5	O	-0.076844	-1.754593	0.010590
O6	O	-0.076842	-1.531078	0.234106
O7	O	-0.076843	-1.960363	0.216359
Cu8	Cu	-0.090875	-1.745715	0.225234
Cu9	Cu	0.090872	-1.745784	0.225219
O10	O	-0.076840	-1.736847	0.439875
C11	C	-0.000001	-1.476120	0.232394
C12	C	-0.000000	-1.312277	0.227294
N13	N	-0.218706	-1.745677	0.225243
C14	C	-0.000002	-1.752917	-0.044403
C15	C	0.000003	-1.747817	-0.208245
C16	C	-0.592797	-1.745782	0.225213
C17	C	-0.553630	-1.625771	0.344400
C18	C	-0.446542	-1.626057	0.344844
C19	C	-0.407206	-1.745729	0.225228
C20	C	-0.446043	-1.900138	0.260913
C21	C	-0.553164	-1.899466	0.261762
C22	C	-0.553327	-1.712752	0.070002
C23	C	-0.446200	-1.709234	0.070987
C24	C	-0.302318	-1.745708	0.225234
C25	C	-0.697685	-1.745812	0.225211
N26	N	0.218703	-1.745833	0.225198
C27	C	0.000000	-2.015378	0.218059
C28	C	0.000006	-2.179221	0.223158
C29	C	0.000001	-1.738582	0.494855
C30	C	0.000003	-1.743681	0.658698
H31	H	-0.420286	-1.511348	0.323280
C32	C	-0.587888	-2.024525	0.149592
C33	C	-0.648463	-2.149264	0.202448
C34	C	-0.683045	-2.274639	0.090523
C35	C	-0.657052	-2.275275	-0.074258
C36	C	-0.596473	-2.150532	-0.127122
C37	C	-0.561891	-2.025157	-0.015197
H38	H	-0.667708	-2.148798	0.324436
H39	H	-0.727890	-2.366983	0.129657
H40	H	-0.682652	-2.368085	-0.157112
H41	H	-0.577229	-2.150998	-0.249110
H42	H	-0.517047	-1.932813	-0.054331
C43	C	-0.586912	-1.938353	0.414764
C44	C	-0.691175	-1.945789	0.447211
C45	C	-0.724916	-1.984674	0.600217
C46	C	-0.654395	-2.016124	0.720777
C47	C	-0.550126	-2.008689	0.688334
C48	C	-0.516384	-1.969804	0.535328
H49	H	-0.743384	-1.922507	0.357962
H50	H	-0.802104	-1.990178	0.624233
H51	H	-0.679373	-2.044909	0.834042
H52	H	-0.497916	-2.031971	0.777583
H53	H	-0.439197	-1.964300	0.511312
H54	H	-0.580395	-1.602489	0.036199
C55	C	-0.409796	-1.939900	0.412192
C56	C	-0.345010	-1.832541	0.503463
C57	C	-0.308766	-1.872294	0.654746
C58	C	-0.337308	-2.019405	0.714760
C59	C	-0.402098	-2.126773	0.623488
C60	C	-0.438342	-2.087021	0.472204
H61	H	-0.323878	-1.723632	0.459038
H62	H	-0.260804	-1.792811	0.722311
H63	H	-0.310478	-2.048831	0.826749
H64	H	-0.423230	-2.235682	0.667913
H65	H	-0.486304	-2.166503	0.404640
H66	H	-0.420818	-1.595638	0.043954
H67	H	-0.579417	-1.510695	0.323160
H68	H	-0.580538	-1.646796	0.458886
H69	H	-0.419427	-1.790809	-0.022021
H70	H	-0.578655	-1.800246	-0.018717
H71	H	-0.420560	-1.991661	0.176498
H72	H	-0.420906	-1.647364	0.459981
