data_functionalizedCrystal
_audit_creation_method	'MofGen! by Chris Wilmer'
_symmetry_space_group_name_H-M	'P1'
_symmetry_Int_Tables_number	1
_symmetry_cell_setting	triclinic
loop_
_symmetry_equiv_pos_as_xyz
  x,y,z
_cell_length_a	18.101389
_cell_length_b	12.759401
_cell_length_c	12.759400
_cell_angle_alpha	89.983831
_cell_angle_beta	89.985725
_cell_angle_gamma	90.017197
loop_
_atom_site_label
_atom_site_type_symbol
_atom_site_fract_x
_atom_site_fract_y
_atom_site_fract_z
Zn1	Zn	-0.418719	-1.606228	-0.418334
Zn2	Zn	-0.294887	-1.606131	-0.594002
Zn3	Zn	-0.294896	-1.430538	-0.418342
Zn4	Zn	-0.418691	-1.430519	-0.593976
O5	O	-0.356798	-1.518354	-0.506163
O6	O	-0.402301	-1.753236	-0.441644
O7	O	-0.191255	-1.582805	-0.570714
O8	O	-0.311337	-1.453893	-0.271320
O9	O	-0.311321	-1.753165	-0.570706
O10	O	-0.402310	-1.582971	-0.271314
O11	O	-0.191262	-1.453798	-0.441658
O12	O	-0.311309	-1.283515	-0.441633
O13	O	-0.522327	-1.453859	-0.570662
O14	O	-0.402261	-1.283500	-0.570670
O15	O	-0.522348	-1.582952	-0.441619
O16	O	-0.311294	-1.582787	-0.741019
O17	O	-0.402252	-1.453765	-0.741000
C18	C	-0.356783	-1.245387	-0.506150
C19	C	-0.356795	-1.128610	-0.506170
C20	C	-0.549960	-1.518415	-0.506137
C21	C	-0.632274	-1.518440	-0.506125
C22	C	-0.356785	-1.518292	-0.779131
C23	C	-0.356804	-1.518361	-0.895907
C24	C	-0.931365	-1.518502	-0.505929
C25	C	-0.900027	-1.437000	-0.586861
C26	C	-0.814409	-1.437221	-0.587236
C27	C	-0.782983	-1.518470	-0.506026
C28	C	-0.814080	-1.629171	-0.536076
C29	C	-0.899725	-1.628717	-0.536608
C30	C	-0.899786	-1.490264	-0.394766
C31	C	-0.814136	-1.487802	-0.395408
C32	C	-0.699123	-1.518459	-0.506080
C33	C	-1.015225	-1.518520	-0.505878
C34	C	-0.164388	-1.518354	-0.506114
C35	C	-0.082074	-1.518532	-0.505829
C36	C	-0.356813	-1.792387	-0.506177
C37	C	-0.356820	-1.909164	-0.506183
C38	C	-0.404079	-1.073768	-0.573462
C39	C	-0.404093	-0.964044	-0.573466
C40	C	-0.309534	-0.964013	-0.438883
C41	C	-0.309523	-1.073735	-0.438875
C42	C	-0.404214	-1.585543	-0.950676
C43	C	-0.404234	-1.585602	-1.060400
C44	C	-0.309428	-1.451294	-1.060577
C45	C	-0.309412	-1.451231	-0.950855
C46	C	-0.356827	-1.518445	-0.232130
C47	C	-0.356840	-1.518484	-0.115353
H48	H	-0.920619	-1.354665	-0.568249
H49	H	-0.920054	-1.549626	-0.334467
O50	O	-0.258302	-1.378916	-1.119851
H51	H	-0.291416	-1.325471	-1.169880
O52	O	-0.455046	-0.904953	-0.646161
H53	H	-0.513203	-0.926050	-0.628356
O54	O	-0.785812	-1.560694	-0.311286
H55	H	-0.748928	-1.620189	-0.347167
H56	H	-0.793810	-1.406336	-0.372747
O57	O	-0.258269	-1.378777	-0.891770
H58	H	-0.225307	-1.332122	-0.948410
O59	O	-0.258525	-0.904829	-0.366336
H60	H	-0.266462	-0.819318	-0.377664
O61	O	-0.455366	-1.658065	-1.119477
H62	H	-0.488312	-1.704736	-1.062831
O63	O	-0.455331	-1.657940	-0.891410
H64	H	-0.422208	-1.711396	-0.841406
O65	O	-0.455070	-1.132960	-0.646028
H66	H	-0.487957	-1.076386	-0.692812
O67	O	-0.258511	-1.132899	-0.366308
H68	H	-0.225630	-1.076310	-0.319532
H69	H	-0.793382	-1.355132	-0.568432
H70	H	-0.921555	-1.455460	-0.668756
H71	H	-0.919711	-1.652652	-0.617869
O72	O	-0.787269	-1.461782	-0.696408
H73	H	-0.835318	-1.473581	-0.749133
H74	H	-0.793726	-1.691528	-0.478981
O75	O	-0.927197	-1.711895	-0.461938
H76	H	-0.879308	-1.752271	-0.425614
O77	O	-0.785689	-1.661438	-0.642572
H78	H	-0.803759	-1.603343	-0.702032
H79	H	-0.921378	-1.410943	-0.367387
