data_functionalizedCrystal
_audit_creation_method	'MofGen! by Chris Wilmer'
_symmetry_space_group_name_H-M	'P1'
_symmetry_Int_Tables_number	1
_symmetry_cell_setting	triclinic
loop_
_symmetry_equiv_pos_as_xyz
  x,y,z
_cell_length_a	12.759400
_cell_length_b	19.077142
_cell_length_c	19.077174
_cell_angle_alpha	94.518112
_cell_angle_beta	92.275311
_cell_angle_gamma	92.289673
loop_
_atom_site_label
_atom_site_type_symbol
_atom_site_fract_x
_atom_site_fract_y
_atom_site_fract_z
Zn1	Zn	-0.510509	-1.093767	-0.441899
Zn2	Zn	-0.678847	-1.088972	-0.324018
Zn3	Zn	-0.495819	-0.971150	-0.319292
Zn4	Zn	-0.678775	-0.975866	-0.437132
O5	O	-0.590987	-1.032439	-0.380585
O6	O	-0.539017	-1.191782	-0.430235
O7	O	-0.648450	-1.069362	-0.224741
O8	O	-0.350750	-0.987449	-0.335574
O9	O	-0.662694	-1.188259	-0.343628
O10	O	-0.361542	-1.077535	-0.425653
O11	O	-0.513980	-0.982799	-0.221269
O12	O	-0.513911	-0.873125	-0.330951
O13	O	-0.662572	-0.995486	-0.536414
O14	O	-0.648328	-0.876589	-0.417527
O15	O	-0.538947	-1.082108	-0.539917
O16	O	-0.825855	-1.073935	-0.339005
O17	O	-0.825803	-0.990836	-0.422109
C18	C	-0.579519	-0.849278	-0.373209
C19	C	-0.574639	-0.770922	-0.370071
C20	C	-0.642427	-0.735929	-0.413601
C21	C	-0.637828	-0.662305	-0.410655
C22	C	-0.565445	-0.623675	-0.364175
C23	C	-0.497650	-0.658673	-0.320643
C24	C	-0.502244	-0.732295	-0.323593
C25	C	-0.544184	-0.403291	-0.350530
C26	C	-0.539596	-0.329663	-0.347582
C27	C	-0.679774	-0.333301	-0.437596
C28	C	-0.684366	-0.406925	-0.440538
C29	C	-0.616567	-0.441916	-0.397009
N30	N	-0.560745	-0.548419	-0.361161
N31	N	-0.621263	-0.517170	-0.400027
C32	C	-0.863951	-1.032396	-0.380569
C33	C	-0.980732	-1.032444	-0.380588
C34	C	-1.035593	-1.075765	-0.337367
C35	C	-1.145321	-1.075809	-0.337391
C36	C	-1.145317	-0.989204	-0.423857
C37	C	-1.035592	-0.989165	-0.423837
C38	C	-0.980733	-1.119044	-0.294118
C39	C	-1.035594	-1.162369	-0.250894
C40	C	-1.145322	-1.162413	-0.250917
C41	C	-1.200189	-1.119133	-0.294165
C42	C	-0.316960	-1.032501	-0.380618
C43	C	-0.200186	-1.032528	-0.380632
C44	C	-0.602390	-1.039857	-0.564460
C45	C	-0.607249	-1.043019	-0.642816
C46	C	-0.602496	-0.216314	-0.387982
C47	C	-0.607384	-0.294670	-0.391112
C48	C	-0.539523	-0.999437	-0.677820
C49	C	-0.544097	-1.002405	-0.751444
C50	C	-0.616394	-1.048959	-0.790063
C51	C	-0.684128	-1.092542	-0.755054
C52	C	-0.679558	-1.089570	-0.681431
C53	C	-0.637573	-1.062676	-1.010445
C54	C	-0.642136	-1.065646	-1.084073
C55	C	-0.502106	-0.975508	-1.080458
C56	C	-0.497538	-0.972543	-1.006834
C57	C	-0.565276	-1.016124	-0.971832
N58	N	-0.621069	-1.051995	-0.865318
N59	N	-0.560605	-1.013084	-0.896577
C60	C	-0.579556	-1.025089	-0.197428
C61	C	-0.574409	-1.022065	-0.119077
H62	H	-0.480642	-0.298213	-0.309737
C63	C	-0.469609	-0.441772	-0.302642
N64	N	-0.413436	-0.470758	-0.266569
H65	H	-0.734970	-0.304803	-0.473036
C66	C	-0.763883	-1.143591	-0.797531
N67	N	-0.824036	-1.181987	-0.829521
C68	C	-0.418025	-0.616177	-0.269516
N69	N	-0.358053	-0.584170	-0.231005
H70	H	-0.990915	-1.197610	-0.215686
C71	C	-0.427674	-0.770787	-0.275705
N72	N	-0.371504	-0.799778	-0.239635
C73	C	-0.427606	-0.927568	-1.118967
N74	N	-0.371492	-0.891456	-1.147972
H75	H	-1.189987	-1.197695	-0.215727
H76	H	-0.701010	-1.103558	-1.115515
C77	C	-0.712031	-1.110656	-0.971954
N78	N	-0.768097	-1.146810	-0.942960
H79	H	-0.891386	-1.119011	-0.294092
H80	H	-0.480645	-0.961533	-0.646382
C81	C	-0.722055	-0.778415	-0.464733
N82	N	-0.782030	-0.810414	-0.503249
H83	H	-0.743310	-0.438372	-0.478386
C84	C	-1.205675	-0.941593	-0.471420
N85	N	-1.251136	-0.905727	-0.507242
H86	H	-1.289538	-1.119178	-0.294187
C87	C	-0.975240	-0.941498	-0.471371
N88	N	-0.929783	-0.905592	-0.507173
H89	H	-0.488950	-0.966914	-0.779941
C90	C	-0.712420	-0.623816	-0.458528
N91	N	-0.768612	-0.594826	-0.494585
H92	H	-0.438669	-0.934633	-0.975395
C93	C	-0.754058	-1.137516	-0.642927
N94	N	-0.810176	-1.173631	-0.613927
