data_functionalizedCrystal
_audit_creation_method	'MofGen! by Chris Wilmer'
_symmetry_space_group_name_H-M	'P1'
_symmetry_Int_Tables_number	1
_symmetry_cell_setting	triclinic
loop_
_symmetry_equiv_pos_as_xyz
  x,y,z
_cell_length_a	15.944545
_cell_length_b	15.944551
_cell_length_c	14.048226
_cell_angle_alpha	90.003633
_cell_angle_beta	90.001909
_cell_angle_gamma	83.497455
loop_
_atom_site_label
_atom_site_type_symbol
_atom_site_fract_x
_atom_site_fract_y
_atom_site_fract_z
O1	O	1.114528	0.108304	0.079101
O2	O	1.614528	0.608304	0.579101
O3	O	0.869978	0.121666	0.079117
O4	O	1.369978	0.621666	0.579117
O5	O	0.998931	-0.007290	0.079100
O6	O	1.498931	0.492710	0.579100
O7	O	0.985575	0.237260	0.079118
O8	O	1.485575	0.737260	0.579118
O9	O	0.998919	-0.007289	-0.079221
O10	O	1.498919	0.492711	0.420779
O11	O	0.869965	0.121667	-0.079205
O12	O	1.369965	0.621667	0.420795
O13	O	1.114516	0.108306	-0.079220
O14	O	1.614516	0.608306	0.420780
Zn15	Zn	0.992239	0.114987	-0.104349
Zn16	Zn	1.492239	0.614987	0.395651
Zn17	Zn	0.992255	0.114985	0.104246
Zn18	Zn	1.492255	0.614985	0.604246
O19	O	0.985562	0.237261	-0.079203
O20	O	1.485562	0.737261	0.420797
C21	C	0.838677	0.121113	-0.000042
C22	C	1.338677	0.621113	0.499958
C23	C	0.745431	0.119453	-0.000036
C24	C	1.245431	0.619453	0.499964
C25	C	0.474798	0.034559	-0.000053
C26	C	0.974798	0.534559	0.499947
C27	C	0.525374	0.075489	-0.078113
C28	C	1.025374	0.575489	0.421887
C29	C	0.409787	0.113532	-0.000053
C30	C	0.909787	0.613532	0.499947
C31	C	0.525367	0.075509	0.077980
C32	C	1.025367	0.575509	0.577980
C33	C	0.574701	0.116437	-0.000043
C34	C	1.074701	0.616437	0.499957
C35	C	0.459135	0.154440	-0.078177
C36	C	0.959135	0.654440	0.421823
C37	C	0.459124	0.154449	0.077985
C38	C	0.959124	0.654449	0.577985
C39	C	0.509667	0.195436	-0.000094
C40	C	1.009667	0.695436	0.499906
C41	C	0.314785	0.111856	-0.000060
C42	C	0.814785	0.611856	0.499940
C43	C	0.669700	0.118119	-0.000044
C44	C	1.169700	0.618119	0.499956
C45	C	0.998370	-0.038583	-0.000061
C46	C	1.498370	0.461417	0.499939
C47	C	0.996708	-0.131829	-0.000061
C48	C	1.496708	0.368171	0.499939
C49	C	0.912803	-0.346684	-0.000043
C50	C	1.412803	0.153316	0.499957
C51	C	0.951760	-0.407701	-0.078107
C52	C	1.451760	0.092299	0.421893
C53	C	0.993701	-0.302555	-0.000054
C54	C	1.493701	0.197445	0.499946
C55	C	0.951791	-0.407686	0.077985
C56	C	1.451791	0.092314	0.577985
C57	C	0.990790	-0.467468	-0.000042
C58	C	1.490790	0.032532	0.499958
C59	C	1.032679	-0.362344	-0.078183
C60	C	1.532679	0.137656	0.421817
C61	C	1.032699	-0.362323	0.077980
C62	C	1.532699	0.137677	0.577980
C63	C	1.071715	-0.423322	-0.000104
C64	C	1.571715	0.076678	0.499896
C65	C	0.995375	-0.207553	-0.000061
C66	C	1.495375	0.292447	0.499939
C67	C	0.989122	-0.562469	-0.000042
C68	C	1.489122	-0.062469	0.499958
C69	C	1.145816	0.108859	-0.000059
C70	C	1.645816	0.608859	0.499941
C71	C	1.239062	0.110519	-0.000059
C72	C	1.739062	0.610519	0.499941
C73	C	0.986123	0.268555	-0.000041
C74	C	1.486123	0.768555	0.499959
C75	C	0.987785	0.361801	-0.000034
C76	C	1.487785	0.861801	0.499966
N77	N	0.992234	0.114987	-0.246710
N78	N	1.492234	0.614987	0.253290
C79	C	0.941324	0.064001	-0.703578
C80	C	1.441324	0.564001	-0.203578
C81	C	0.941320	0.063998	-0.603920
C82	C	1.441320	0.563998	-0.103920
C83	C	0.992256	0.114978	-0.554080
C84	C	1.492256	0.614978	-0.054080
C85	C	1.043204	0.165957	-0.603903
C86	C	1.543204	0.665957	-0.103903
C87	C	1.043212	0.165955	-0.703558
C88	C	1.543212	0.665955	-0.203558
C89	C	1.043185	0.165960	-0.396188
C90	C	1.543185	0.665960	0.103812
C91	C	1.043177	0.165964	-0.296526
C92	C	1.543177	0.665964	0.203474
C93	C	0.941293	0.064004	-0.296550
C94	C	1.441293	0.564004	0.203450
C95	C	0.941300	0.064001	-0.396206
C96	C	1.441300	0.564001	0.103794
C97	C	0.992248	0.114982	-0.446022
C98	C	1.492248	0.614982	0.053978
N99	N	0.992266	0.114978	0.246606
N100	N	1.492266	0.614978	0.746606
H101	H	0.525159	0.263501	-0.000135
H102	H	1.025159	0.763501	0.499865
O103	O	0.886369	0.009022	-0.550187
O104	O	1.386369	0.509022	-0.050187
H105	H	0.850942	-0.026417	-0.601586
H106	H	1.350942	0.473583	-0.101586
O107	O	0.563716	0.031296	-0.165513
O108	O	1.063716	0.531296	0.334487
H109	H	0.513131	0.007512	-0.208719
H110	H	1.013131	0.507512	0.291281
H111	H	0.845655	-0.313375	-0.000116
H112	H	1.345655	0.186625	0.499884
O113	O	1.078026	-0.335711	0.165400
O114	O	1.578026	0.164289	0.665400
H115	H	1.133888	-0.304743	0.143438
H116	H	1.633888	0.195257	0.643438
O117	O	0.886394	0.008989	-0.449969
O118	O	1.386394	0.508989	0.050031
H119	H	0.850982	-0.026477	-0.398589
H120	H	1.350982	0.473523	0.101411
H121	H	0.917569	-0.427763	0.143987
H122	H	1.417569	0.072237	0.643987
H123	H	0.459145	-0.033453	-0.000134
H124	H	0.959145	0.466547	0.499866
O125	O	0.420766	0.198584	0.165404
O126	O	0.920766	0.698584	0.665404
H127	H	0.447419	0.165657	0.230109
H128	H	0.947419	0.665657	0.730109
H129	H	0.554289	0.042142	0.143969
H130	H	1.054289	0.542142	0.643969
O131	O	0.886402	0.008999	-0.757334
O132	O	1.386402	0.508999	-0.257334
H133	H	0.850990	-0.026461	-0.705947
H134	H	1.350990	0.473539	-0.205947
H135	H	1.084650	0.207479	-0.255948
H136	H	1.584650	0.707479	0.244052
H137	H	0.917538	-0.427809	-0.144100
H138	H	1.417538	0.072191	0.355900
H139	H	0.430320	0.187768	-0.144242
H140	H	0.930320	0.687768	0.355758
O141	O	0.886350	0.009013	-0.242818
O142	O	1.386350	0.509013	0.257182
H143	H	0.819218	0.027254	-0.261941
H144	H	1.319218	0.527254	0.238059
H145	H	1.084695	0.207465	-0.744117
H146	H	1.584695	0.707465	-0.244117
O147	O	1.098146	0.220942	-0.550151
O148	O	1.598146	0.720942	-0.050151
H149	H	1.079871	0.288064	-0.569288
H150	H	1.579871	0.788064	-0.069288
O151	O	1.098129	0.220949	-0.449924
O152	O	1.598129	0.720949	0.050076
H153	H	1.133540	0.256408	-0.398527
H154	H	1.633540	0.756408	0.101473
H155	H	1.066862	-0.342354	-0.144253
H156	H	1.566862	0.157646	0.355747
O157	O	1.160732	-0.467261	-0.000162
O158	O	1.660732	0.032739	0.499838
H159	H	1.194095	-0.449108	-0.065024
H160	H	1.694095	0.050892	0.434976
