data_functionalizedCrystal
_audit_creation_method	'MofGen! by Chris Wilmer'
_symmetry_space_group_name_H-M	'P1'
_symmetry_Int_Tables_number	1
_symmetry_cell_setting	triclinic
loop_
_symmetry_equiv_pos_as_xyz
  x,y,z
_cell_length_a	13.596369
_cell_length_b	14.519709
_cell_length_c	14.519709
_cell_angle_alpha	96.319855
_cell_angle_beta	90.006934
_cell_angle_gamma	90.000291
loop_
_atom_site_label
_atom_site_type_symbol
_atom_site_fract_x
_atom_site_fract_y
_atom_site_fract_z
O1	O	0.081665	-1.223868	0.120893
O2	O	0.414999	-0.890535	0.454226
O3	O	0.748332	-0.557202	0.787559
O4	O	0.081696	-0.955392	0.135129
O5	O	0.415029	-0.622058	0.468463
O6	O	0.748362	-0.288725	0.801796
O7	O	0.081671	-1.096748	-0.006227
O8	O	0.415004	-0.763415	0.327106
O9	O	0.748338	-0.430082	0.660439
O10	O	0.081690	-1.082512	0.262249
O11	O	0.415024	-0.749178	0.595583
O12	O	0.748357	-0.415845	0.928916
O13	O	-0.081912	-1.096734	-0.006235
O14	O	0.251421	-0.763401	0.327098
O15	O	0.584755	-0.430067	0.660432
O16	O	-0.081887	-0.955377	0.135122
O17	O	0.251446	-0.622044	0.468455
O18	O	0.584780	-0.288711	0.801788
O19	O	-0.081917	-1.223854	0.120885
O20	O	0.251416	-0.890521	0.454219
O21	O	0.584749	-0.557188	0.787552
Zn22	Zn	-0.107875	-1.089614	0.128002
Zn23	Zn	0.225459	-0.756280	0.461336
Zn24	Zn	0.558792	-0.422947	0.794669
Zn25	Zn	0.107653	-1.089632	0.128012
Zn26	Zn	0.440986	-0.756299	0.461346
Zn27	Zn	0.774320	-0.422966	0.794679
O28	O	-0.081893	-1.082498	0.262242
O29	O	0.251441	-0.749164	0.595575
O30	O	0.584774	-0.415831	0.928909
C31	C	-0.000092	-0.921025	0.134462
C32	C	0.333241	-0.587691	0.467795
C33	C	0.666575	-0.254358	0.801129
C34	C	-0.000081	-0.818643	0.132474
C35	C	0.333253	-0.485310	0.465807
C36	C	0.666586	-0.151977	0.799141
N37	N	-0.254966	-1.089608	0.127995
N38	N	0.078367	-0.756274	0.461328
N39	N	0.411700	-0.422941	0.794662
C40	C	-0.000121	-1.096078	-0.040591
C41	C	0.333213	-0.762744	0.292742
C42	C	0.666546	-0.429411	0.626076
C43	C	-0.000121	-1.094090	-0.142972
C44	C	0.333212	-0.760756	0.190361
C45	C	0.666546	-0.427423	0.523694
C46	C	-0.656257	-1.089631	0.128013
C47	C	-0.322924	-0.756298	0.461347
C48	C	0.010409	-0.422964	0.794680
C49	C	-0.544606	-1.089622	0.128011
C50	C	-0.211273	-0.756288	0.461345
C51	C	0.122061	-0.422955	0.794678
C52	C	-0.455615	-1.089620	0.128005
C53	C	-0.122282	-0.756286	0.461338
C54	C	0.211051	-0.422953	0.794671
C55	C	-0.343957	-1.089610	0.128001
C56	C	-0.010624	-0.756276	0.461335
C57	C	0.322710	-0.422943	0.794668
N58	N	0.254745	-1.089645	0.128012
N59	N	0.588078	-0.756312	0.461346
N60	N	0.921411	-0.422979	0.794679
C61	C	-0.000128	-1.258221	0.121553
C62	C	0.333206	-0.924888	0.454886
C63	C	0.666539	-0.591554	0.788219
C64	C	-0.000132	-1.360602	0.123541
C65	C	0.333201	-1.027269	0.456874
C66	C	0.666534	-0.693936	0.790207
C67	C	-0.000126	-0.443748	0.125154
C68	C	0.333207	-0.110414	0.458488
C69	C	0.666541	0.222919	0.791821
C70	C	-0.000113	-0.548056	0.127187
C71	C	0.333220	-0.214722	0.460520
C72	C	0.666554	0.118611	0.793854
C73	C	-0.000102	-0.631192	0.128814
C74	C	0.333231	-0.297859	0.462147
C75	C	0.666564	0.035474	0.795481
C76	C	-0.000091	-0.735507	0.130847
C77	C	0.333242	-0.402173	0.464180
C78	C	0.666575	-0.068840	0.797514
C79	C	-0.000095	-1.086770	-0.517868
C80	C	0.333239	-0.753437	-0.184535
C81	C	0.666572	-0.420103	0.148799
C82	C	-0.000102	-1.088803	-0.413560
C83	C	0.333231	-0.755469	-0.080227
C84	C	0.666564	-0.422136	0.253107
C85	C	-0.000109	-1.090430	-0.330423
C86	C	0.333225	-0.757096	0.002910
C87	C	0.666558	-0.423763	0.336243
C88	C	-0.000114	-1.092463	-0.226109
C89	C	0.333219	-0.759129	0.107224
C90	C	0.666552	-0.425796	0.440558
C91	C	-0.000099	-1.083168	0.296605
C92	C	0.333234	-0.749835	0.629939
C93	C	0.666568	-0.416501	0.963272
C94	C	-0.000092	-1.085156	0.398987
C95	C	0.333241	-0.751823	0.732320
C96	C	0.666575	-0.418490	1.065653
