data_functionalizedCrystal
_audit_creation_method	'MofGen! by Chris Wilmer'
_symmetry_space_group_name_H-M	'P1'
_symmetry_Int_Tables_number	1
_symmetry_cell_setting	triclinic
loop_
_symmetry_equiv_pos_as_xyz
  x,y,z
_cell_length_a	14.044191
_cell_length_b	14.044220
_cell_length_c	9.130313
_cell_angle_alpha	90.006686
_cell_angle_beta	89.998197
_cell_angle_gamma	93.190327
loop_
_atom_site_label
_atom_site_type_symbol
_atom_site_fract_x
_atom_site_fract_y
_atom_site_fract_z
O1	O	1.277167	0.230201	0.121735
O2	O	1.000495	0.221888	0.121753
O3	O	1.134678	0.087709	0.121730
O4	O	1.142984	0.364380	0.121758
O5	O	1.134676	0.087701	-0.121869
O6	O	1.000492	0.221880	-0.121845
O7	O	1.277165	0.230193	-0.121864
Cu8	Cu	1.138828	0.226036	-0.144097
Cu9	Cu	1.138831	0.226045	0.143987
O10	O	1.142981	0.364373	-0.121840
C11	C	0.964872	0.218248	-0.000044
C12	C	0.858728	0.207401	-0.000037
C13	C	0.613270	0.264501	-0.000046
C14	C	0.664395	0.187585	-0.000051
C15	C	0.772532	0.198613	-0.000044
C16	C	0.505123	0.253474	-0.000054
C17	C	1.131041	0.052083	-0.000070
C18	C	1.120197	-0.054060	-0.000071
C19	C	1.312788	0.233834	-0.000063
C20	C	1.418931	0.244681	-0.000060
C21	C	1.100370	-0.248398	-0.000048
C22	C	1.177285	-0.299526	-0.000049
C23	C	1.166253	-0.407663	-0.000037
C24	C	1.111400	-0.140252	-0.000061
C25	C	1.146618	0.399998	-0.000037
C26	C	1.157463	0.506142	-0.000027
N27	N	1.138833	0.226045	0.346609
N28	N	1.138833	0.226030	-0.346720
C29	C	1.198380	0.166766	0.423251
C30	C	1.198383	0.166760	0.576588
C31	C	1.079284	0.285315	0.576628
C32	C	1.079287	0.285325	0.423294
C33	C	1.257927	0.107486	0.346567
C34	C	1.317478	0.048201	0.423208
C35	C	1.317481	0.048196	0.576545
C36	C	1.257932	0.107475	0.653240
H37	H	0.626952	0.113452	0.000044
H38	H	0.650711	0.338628	-0.000034
N39	N	1.275487	-0.249942	-0.000063
H40	H	1.269553	-0.178601	-0.000073
H41	H	1.311291	-0.269086	-0.090374
H42	H	1.026242	-0.285837	-0.000040
H43	H	1.257928	0.107483	0.221712
H44	H	1.365966	-0.000056	0.360755
N45	N	1.381708	-0.015748	0.659196
H46	H	1.341730	-0.061198	0.722801
H47	H	1.426988	0.024470	0.722741
N48	N	1.257928	0.107482	0.818625
H49	H	1.323936	0.127016	0.855566
H50	H	1.238638	0.041389	0.855431
N51	N	1.015057	0.349245	0.659341
H52	H	1.024090	0.340242	0.768107
H53	H	0.946424	0.332322	0.632532
H54	H	1.030799	0.333596	0.360892
