data_functionalizedCrystal
_audit_creation_method	'MofGen! by Chris Wilmer'
_symmetry_space_group_name_H-M	'P1'
_symmetry_Int_Tables_number	1
_symmetry_cell_setting	triclinic
loop_
_symmetry_equiv_pos_as_xyz
  x,y,z
_cell_length_a	21.395364
_cell_length_b	19.805405
_cell_length_c	21.395355
_cell_angle_alpha	90.017223
_cell_angle_beta	90.024552
_cell_angle_gamma	90.041677
loop_
_atom_site_label
_atom_site_type_symbol
_atom_site_fract_x
_atom_site_fract_y
_atom_site_fract_z
Zn1	Zn	0.957877	-0.269272	0.354267
Zn2	Zn	1.291210	0.064062	0.687600
Zn3	Zn	1.624543	0.397395	1.020934
Zn4	Zn	0.957786	-0.382441	0.249492
Zn5	Zn	1.291120	-0.049108	0.582825
Zn6	Zn	1.624453	0.284225	0.916159
Zn7	Zn	0.853092	-0.269301	0.249504
Zn8	Zn	1.186425	0.064032	0.582837
Zn9	Zn	1.519758	0.397365	0.916170
Zn10	Zn	0.853068	-0.382453	0.354232
Zn11	Zn	1.186401	-0.049120	0.687566
Zn12	Zn	1.519735	0.284213	1.020899
O13	O	0.905456	-0.325867	0.301874
O14	O	1.238789	0.007466	0.635207
O15	O	1.572122	0.340800	0.968540
O16	O	1.045542	-0.284266	0.340378
O17	O	1.378876	0.049067	0.673711
O18	O	1.712209	0.382400	1.007045
O19	O	0.943870	-0.367440	0.161816
O20	O	1.277204	-0.034107	0.495149
O21	O	1.610537	0.299226	0.828482
O22	O	0.867039	-0.174581	0.263420
O23	O	1.200372	0.158753	0.596754
O24	O	1.533706	0.492086	0.930087
O25	O	1.045476	-0.367412	0.263400
O26	O	1.378810	-0.034078	0.596734
O27	O	1.712143	0.299255	0.930067
O28	O	0.944024	-0.174559	0.340390
O29	O	1.277358	0.158774	0.673723
O30	O	1.610691	0.492108	1.007056
O31	O	0.866952	-0.284317	0.161824
O32	O	1.200285	0.049016	0.495158
O33	O	1.533618	0.382350	0.828491
O34	O	0.765411	-0.284329	0.263387
O35	O	1.098744	0.049005	0.596720
O36	O	1.432077	0.382338	0.930053
O37	O	0.866999	-0.367432	0.441915
O38	O	1.200332	-0.034099	0.775248
O39	O	1.533666	0.299234	1.108581
O40	O	0.765393	-0.367461	0.340330
O41	O	1.098727	-0.034128	0.673663
O42	O	1.432060	0.299206	1.006997
O43	O	0.944001	-0.284278	0.441940
O44	O	1.277335	0.049055	0.775274
O45	O	1.610668	0.382389	1.108607
O46	O	0.943848	-0.477160	0.263366
O47	O	1.277181	-0.143826	0.596700
O48	O	1.610514	0.189507	0.930033
O49	O	0.866911	-0.477168	0.340319
O50	O	1.200245	-0.143835	0.673652
O51	O	1.533578	0.189498	1.006985
C52	C	0.742668	-0.325900	0.301856
C53	C	1.076001	0.007433	0.635190
C54	C	1.409335	0.340767	0.968523
C55	C	0.673027	-0.325930	0.301864
C56	C	1.006360	0.007403	0.635197
C57	C	1.339693	0.340736	0.968530
C58	C	0.640370	-0.282707	0.342008
C59	C	0.973704	0.050626	0.675341
C60	C	1.307037	0.383959	1.008674
C61	C	0.574935	-0.282689	0.342010
C62	C	0.908268	0.050644	0.675344
C63	C	1.241602	0.383977	1.008677
C64	C	0.542158	-0.325906	0.301875
C65	C	0.875492	0.007427	0.635208
C66	C	1.208825	0.340760	0.968542
C67	C	0.574823	-0.369132	0.261723
C68	C	0.908156	-0.035799	0.595056
C69	C	1.241489	0.297534	0.928389
C70	C	0.640257	-0.369144	0.261717
C71	C	0.973590	-0.035811	0.595050
C72	C	1.306923	0.297522	0.928384
C73	C	0.438438	-0.386861	0.296839
C74	C	0.771771	-0.053527	0.630172
C75	C	1.105105	0.279806	0.963505
C76	C	0.373005	-0.386850	0.296849
C77	C	0.706338	-0.053517	0.630182
C78	C	1.039672	0.279817	0.963515
C79	C	0.340338	-0.325869	0.301889
C80	C	0.673671	0.007464	0.635222
C81	C	1.007004	0.340798	0.968556
C82	C	0.373111	-0.264897	0.306932
C83	C	0.706445	0.068436	0.640265
C84	C	1.039778	0.401769	0.973599
C85	C	0.438545	-0.264909	0.306926
C86	C	0.771879	0.068424	0.640260
C87	C	1.105212	0.401758	0.973593
C88	C	0.471206	-0.325898	0.301876
C89	C	0.804539	0.007435	0.635210
C90	C	1.137873	0.340769	0.968543
C91	C	0.236729	-0.282623	0.342038
C92	C	0.570062	0.050710	0.675371
C93	C	0.903396	0.384044	1.008705
C94	C	0.171292	-0.282604	0.342036
C95	C	0.504626	0.050730	0.675369
C96	C	0.837959	0.384063	1.008703
C97	C	0.171181	-0.369053	0.261752
C98	C	0.504514	-0.035720	0.595085
C99	C	0.837848	0.297614	0.928418
C100	C	0.236616	-0.369066	0.261751
C101	C	0.569950	-0.035733	0.595084
C102	C	0.903283	0.297601	0.928417
C103	C	0.269386	-0.325852	0.301897
C104	C	0.602720	0.007481	0.635230
C105	C	0.936053	0.340815	0.968564
C106	C	0.905384	-0.501723	0.301851
C107	C	1.238718	-0.168390	0.635184
C108	C	1.572051	0.164944	0.968518
C109	C	0.905411	-0.576955	0.301862
C110	C	1.238744	-0.243622	0.635196
C111	C	1.572078	0.089712	0.968529
C112	C	0.945473	-0.612230	0.341972
C113	C	1.278807	-0.278896	0.675305
C114	C	1.612140	0.054437	1.008638
C115	C	0.945496	-0.682918	0.341983
C116	C	1.278829	-0.349585	0.675317
C117	C	1.612163	-0.016251	1.008650
C118	C	0.905459	-0.718330	0.301882
C119	C	1.238792	-0.384997	0.635215
C120	C	1.572126	-0.051664	0.968549
C121	C	0.865392	-0.683051	0.261771
C122	C	1.198725	-0.349718	0.595104
C123	C	1.532059	-0.016384	0.928438
C124	C	0.865367	-0.612364	0.261763
C125	C	1.198700	-0.279031	0.595096
C126	C	1.532033	0.054303	0.928430
C127	C	0.865493	-0.968124	0.261803
C128	C	1.198826	-0.634791	0.595136
C129	C	1.532159	-0.301458	0.928470
C130	C	0.865522	-1.038816	0.261813
C131	C	1.198856	-0.705483	0.595146
C132	C	1.532189	-0.372150	0.928480
C133	C	0.945622	-1.038678	0.342023
C134	C	1.278955	-0.705345	0.675357
C135	C	1.612289	-0.372012	1.008690
C136	C	0.945597	-0.967991	0.342015
C137	C	1.278930	-0.634658	0.675349
C138	C	1.612263	-0.301325	1.008682
C139	C	0.905528	-0.932718	0.301907
C140	C	1.238861	-0.599384	0.635240
C141	C	1.572194	-0.266051	0.968574
C142	C	0.905503	-0.856069	0.301896
C143	C	1.238836	-0.522736	0.635229
C144	C	1.572170	-0.189403	0.968562
C145	C	0.905486	-0.794978	0.301890
C146	C	1.238820	-0.461644	0.635223
C147	C	1.572153	-0.128311	0.968556
C148	C	1.068879	-0.325834	0.301892
C149	C	1.402212	0.007499	0.635225
C150	C	1.735546	0.340832	0.968558
C151	C	1.138520	-0.325820	0.301899
C152	C	1.471853	0.007513	0.635233
C153	C	1.805187	0.340846	0.968566
C154	C	0.905508	-0.325853	0.465297
C155	C	1.238841	0.007480	0.798630
C156	C	1.572174	0.340813	1.131964
C157	C	0.905530	-0.325847	0.534938
C158	C	1.238863	0.007486	0.868272
C159	C	1.572196	0.340819	1.201605
C160	C	0.905544	-0.149324	0.301910
C161	C	1.238878	0.184009	0.635244
C162	C	1.572211	0.517343	0.968577
C163	C	0.905582	-0.074092	0.301926
C164	C	1.238915	0.259241	0.635259
C165	C	1.572249	0.592575	0.968592
C166	C	0.905440	-0.325832	0.139086
C167	C	1.238773	0.007502	0.472420
C168	C	1.572107	0.340835	0.805753
C169	C	0.905539	-0.325647	0.069445
C170	C	1.238872	0.007686	0.402779
C171	C	1.572206	0.341020	0.736112
C172	C	0.945623	-0.282547	0.567666
C173	C	1.278957	0.050786	0.900999
C174	C	1.612290	0.384120	1.234333
C175	C	0.945622	-0.282518	0.633101
C176	C	1.278956	0.050815	0.966435
C177	C	1.612289	0.384149	1.299768
C178	C	0.905535	-0.325801	0.665807
C179	C	1.238868	0.007532	0.999140
C180	C	1.572201	0.340865	1.332473
C181	C	0.865433	-0.369105	0.633071
C182	C	1.198767	-0.035771	0.966405
C183	C	1.532100	0.297562	1.299738
C184	C	0.865431	-0.369128	0.567637
C185	C	1.198764	-0.035794	0.900971
C186	C	1.532098	0.297539	1.234304
C187	C	0.900563	-0.386747	0.769474
C188	C	1.233896	-0.053414	1.102807
C189	C	1.567229	0.279920	1.436140
C190	C	0.900569	-0.386725	0.834907
C191	C	1.233903	-0.053392	1.168240
C192	C	1.567236	0.279942	1.501573
C193	C	0.905539	-0.325730	0.867628
C194	C	1.238872	0.007604	1.200961
C195	C	1.572205	0.340937	1.534294
C196	C	0.910514	-0.264754	0.834908
C197	C	1.243847	0.068579	1.168241
C198	C	1.577181	0.401912	1.501574
C199	C	0.910511	-0.264778	0.769473
C200	C	1.243845	0.068556	1.102807
C201	C	1.577178	0.401889	1.436140
C202	C	0.905533	-0.325781	0.736759
C203	C	1.238866	0.007553	1.070093
C204	C	1.572199	0.340886	1.403426
C205	C	0.945633	-0.282394	0.971308
C206	C	1.278967	0.050939	1.304641
C207	C	1.612300	0.384272	1.637974
C208	C	0.945628	-0.282364	1.036744
C209	C	1.278961	0.050969	1.370078
C210	C	1.612295	0.384303	1.703411
C211	C	0.865442	-0.368957	1.036713
C212	C	1.198776	-0.035623	1.370047
C213	C	1.532109	0.297710	1.703380
C214	C	0.865444	-0.368981	0.971278
C215	C	1.198778	-0.035647	1.304611
C216	C	1.532111	0.297686	1.637944
C217	C	0.905543	-0.325701	0.938579
C218	C	1.238876	0.007633	1.271912
C219	C	1.572210	0.340966	1.605246
H220	H	0.465227	-0.215264	0.311031
H221	H	0.798560	0.118070	0.644364
H222	H	1.131894	0.451403	0.977697
Br223	Br	0.684841	-0.224060	0.396492
Br224	Br	1.018175	0.109273	0.729825
Br225	Br	1.351508	0.442607	1.063158
Br226	Br	0.917263	-0.181969	0.879306
Br227	Br	1.250597	0.151364	1.212639
Br228	Br	1.583930	0.484697	1.545973
H229	H	0.896349	-0.436404	0.742838
H230	H	1.229682	-0.103071	1.076171
H231	H	1.563015	0.230263	1.409504
H232	H	0.832916	-1.067647	0.229157
H233	H	1.166250	-0.734314	0.562490
H234	H	1.499583	-0.400981	0.895823
Br235	Br	0.684579	-0.427805	0.207228
Br236	Br	1.017913	-0.094472	0.540561
Br237	Br	1.351246	0.238861	0.873895
H238	H	0.346515	-0.215241	0.311036
H239	H	0.679848	0.118093	0.644370
H240	H	1.013182	0.451426	0.977703
Br241	Br	1.000001	-1.086553	0.396459
Br242	Br	1.333335	-0.753220	0.729792
Br243	Br	1.666668	-0.419886	1.063125
Br244	Br	0.281206	-0.223973	0.396517
Br245	Br	0.614540	0.109360	0.729850
Br246	Br	0.947873	0.442693	1.063184
H247	H	0.832792	-0.404344	0.659704
H248	H	1.166125	-0.071011	0.993038
H249	H	1.499458	0.262323	1.326371
H250	H	0.978274	-0.247304	0.541047
H251	H	1.311607	0.086029	0.874380
H252	H	1.644941	0.419363	1.207713
Br253	Br	0.999938	-0.919935	0.396437
Br254	Br	1.333271	-0.586601	0.729770
Br255	Br	1.666604	-0.253268	1.063104
Br256	Br	0.811013	-0.427896	0.523218
Br257	Br	1.144346	-0.094563	0.856551
Br258	Br	1.477680	0.238771	1.189885
Br259	Br	0.811047	-0.731110	0.207355
Br260	Br	1.144380	-0.397777	0.540689
Br261	Br	1.477713	-0.064443	0.874022
H262	H	0.978079	-0.583401	0.374624
H263	H	1.311412	-0.250068	0.707957
H264	H	1.644746	0.083265	1.041291
H265	H	0.978124	-0.711635	0.374639
H266	H	1.311457	-0.378302	0.707973
H267	H	1.644790	-0.044969	1.041306
H268	H	0.978270	-0.247254	0.659753
H269	H	1.311603	0.086079	0.993087
H270	H	1.644937	0.419413	1.326420
Br271	Br	0.810992	-0.564490	0.207330
Br272	Br	1.144325	-0.231157	0.540663
Br273	Br	1.477658	0.102177	0.873996
H274	H	0.144705	-0.247402	0.374725
H275	H	0.478038	0.085931	0.708059
H276	H	0.811371	0.419264	1.041392
H277	H	0.914561	-0.215129	0.742836
H278	H	1.247894	0.118204	1.076169
H279	H	1.581228	0.451537	1.409502
H280	H	0.978280	-0.247149	0.944683
H281	H	1.311614	0.086184	1.278016
H282	H	1.644947	0.419518	1.611350
Br283	Br	0.811028	-0.427691	1.081092
Br284	Br	1.144362	-0.094358	1.414425
Br285	Br	1.477695	0.238976	1.747759
Br286	Br	0.811106	-0.920262	0.207378
Br287	Br	1.144439	-0.586929	0.540711
Br288	Br	1.477772	-0.253595	0.874045
Br289	Br	1.000055	-0.223604	1.081162
Br290	Br	1.333388	0.109729	1.414495
Br291	Br	1.666722	0.443062	1.747829
Br292	Br	0.811030	-0.427750	0.926859
Br293	Br	1.144363	-0.094417	1.260192
Br294	Br	1.477696	0.238917	1.593525
Br295	Br	0.893826	-0.469476	0.879306
Br296	Br	1.227159	-0.136143	1.212639
Br297	Br	1.560493	0.197191	1.545972
H298	H	0.144495	-0.404241	0.229073
H299	H	0.477828	-0.070908	0.562406
H300	H	0.811162	0.262426	0.895739
Br301	Br	0.530606	-0.224023	0.396493
Br302	Br	0.863939	0.109310	0.729827
Br303	Br	1.197272	0.442644	1.063160
H304	H	0.263205	-0.404266	0.229063
H305	H	0.596539	-0.070932	0.562397
H306	H	0.929872	0.262401	0.895730
H307	H	0.346326	-0.436497	0.292745
H308	H	0.679659	-0.103164	0.626079
H309	H	1.012992	0.230170	0.959412
Br310	Br	0.530342	-0.427779	0.207248
Br311	Br	0.863675	-0.094446	0.540581
Br312	Br	1.197009	0.238887	0.873915
Br313	Br	0.482765	-0.469627	0.289986
Br314	Br	0.816099	-0.136294	0.623319
Br315	Br	1.149432	0.197040	0.956653
