data_functionalizedCrystal
_audit_creation_method	'MofGen! by Chris Wilmer'
_symmetry_space_group_name_H-M	'P1'
_symmetry_Int_Tables_number	1
_symmetry_cell_setting	triclinic
loop_
_symmetry_equiv_pos_as_xyz
  x,y,z
_cell_length_a	10.540539
_cell_length_b	23.532407
_cell_length_c	9.016244
_cell_angle_alpha	89.993097
_cell_angle_beta	89.994699
_cell_angle_gamma	83.687085
loop_
_atom_site_label
_atom_site_type_symbol
_atom_site_fract_x
_atom_site_fract_y
_atom_site_fract_z
O1	O	1.683259	0.080251	-0.123287
O2	O	1.313598	0.087813	-0.123307
O3	O	1.509576	0.001174	-0.123270
O4	O	1.487282	0.166890	-0.123325
O5	O	1.509547	0.001176	0.123411
O6	O	1.313570	0.087815	0.123373
O7	O	1.683231	0.080253	0.123393
Cu8	Cu	1.498398	0.084034	0.145907
Cu9	Cu	1.498431	0.084032	-0.145821
O10	O	1.487253	0.166892	0.123356
C11	C	1.266300	0.087246	0.000031
C12	C	1.125407	0.085550	0.000024
C13	C	0.944114	0.020541	0.000622
C14	C	1.090676	0.022261	0.000050
C15	C	1.062751	0.116006	-0.140847
C16	C	0.916278	0.113846	-0.140949
C17	C	0.915715	0.115136	0.139573
C18	C	1.062677	0.115719	0.141419
C19	C	1.508994	-0.020045	0.000075
C20	C	1.507287	-0.083273	0.000086
C21	C	1.612557	-0.481681	0.000010
C22	C	1.610971	-0.541092	-0.000001
O23	O	1.708557	-0.577192	-0.000051
N24	N	1.494462	-0.564488	-0.000006
C25	C	1.379532	-0.528469	-0.000015
O26	O	1.280287	-0.553824	-0.000022
C27	C	1.381119	-0.469060	-0.000015
C28	C	1.497635	-0.445667	0.000006
C29	C	1.729064	-0.458288	0.000029
C30	C	1.730649	-0.398882	0.000043
C31	C	1.615727	-0.362868	0.000038
C32	C	1.499220	-0.386261	0.000020
C33	C	1.266190	-0.433042	-0.000034
C34	C	1.267787	-0.373629	-0.000035
C35	C	1.384303	-0.350237	-0.000014
C36	C	1.385883	-0.290840	0.000029
N37	N	1.502392	-0.267444	0.000035
C38	C	1.617314	-0.303458	0.000039
C39	C	1.376208	-0.653234	-0.000019
C40	C	1.374620	-0.712642	-0.000010
C41	C	1.606059	-0.725261	0.000002
C42	C	1.607646	-0.665851	0.000003
C43	C	1.492717	-0.629838	-0.000014
C44	C	1.620634	-0.178700	0.000070
C45	C	1.622209	-0.119287	0.000090
C46	C	1.390770	-0.106674	0.000071
C47	C	1.389194	-0.166081	0.000059
C48	C	1.504137	-0.202093	0.000053
O49	O	1.288349	-0.254705	0.000073
O50	O	1.716543	-0.278095	0.000026
C51	C	1.730530	0.080819	0.000052
C52	C	1.871422	0.082516	0.000048
C53	C	1.487835	0.188111	0.000008
C54	C	1.489542	0.251339	-0.000013
N55	N	1.498383	0.084035	0.351093
N56	N	1.498456	0.084026	-0.351007
C57	C	1.393236	0.130226	0.586106
C58	C	1.393460	0.130399	0.414215
C59	C	1.630663	0.097553	0.413434
C60	C	1.630086	0.097880	0.585378
C61	C	1.472574	0.024176	0.585655
C62	C	1.469516	0.024564	0.413701
H63	H	1.104358	0.093470	0.245635
Br64	Br	1.420804	0.204415	0.345597
Br65	Br	1.134906	0.080743	-0.315569
H66	H	1.702524	-0.646810	0.000018
Br67	Br	1.307337	0.007483	0.345800
Br68	Br	1.780348	-0.087545	0.000119
Br69	Br	1.776629	-0.227564	0.000061
Br70	Br	0.864243	0.080998	0.317547
Br71	Br	0.897813	-0.021132	0.169012
H72	H	1.549314	-0.010211	0.626322
H73	H	1.294574	0.122217	0.627497
H74	H	1.825528	-0.379842	0.000053
Br75	Br	1.220216	-0.604364	-0.000030
H76	H	1.409454	0.174378	0.629285
H77	H	0.888818	0.091335	-0.246237
H78	H	0.914735	-0.004357	-0.099826
H79	H	1.699635	-0.754594	-0.000000
Br80	Br	1.100519	0.192628	0.155571
H81	H	1.653007	0.141545	0.625454
H82	H	1.822652	-0.487605	0.000027
Br83	Br	1.163001	-0.017682	0.168363
Br84	Br	1.097502	0.193467	-0.149650
Br85	Br	1.216484	-0.744381	-0.000002
Br86	Br	0.834505	0.191328	0.141134
H87	H	1.133225	-0.001874	-0.101092
H88	H	1.171310	-0.452077	-0.000060
Br89	Br	0.833830	0.189707	-0.151630
H90	H	1.541225	-0.011468	0.370740
Br91	Br	1.111801	-0.324757	-0.000064
Br92	Br	1.764223	0.042999	0.345297
H93	H	1.294317	-0.185128	0.000083
Br94	Br	1.234812	-0.057787	0.000066
H95	H	1.295110	0.122265	0.372069
Br96	Br	1.764310	0.043912	0.654720
H97	H	1.654144	0.140724	0.370343
Br98	Br	1.315349	0.002743	0.658017
