data_functionalizedCrystal
_audit_creation_method	'MofGen! by Chris Wilmer'
_symmetry_space_group_name_H-M	'P1'
_symmetry_Int_Tables_number	1
_symmetry_cell_setting	triclinic
loop_
_symmetry_equiv_pos_as_xyz
  x,y,z
_cell_length_a	10.489741
_cell_length_b	17.699091
_cell_length_c	16.176319
_cell_angle_alpha	89.997684
_cell_angle_beta	90.003298
_cell_angle_gamma	96.087375
loop_
_atom_site_label
_atom_site_type_symbol
_atom_site_fract_x
_atom_site_fract_y
_atom_site_fract_z
O1	O	1.692078	-0.106778	0.068693
O2	O	1.320696	-0.116801	0.068706
O3	O	1.516874	-0.001669	0.068696
O4	O	1.495899	-0.221910	0.068703
O5	O	1.516851	-0.001669	-0.068797
O6	O	1.320673	-0.116801	-0.068787
O7	O	1.692055	-0.106778	-0.068800
Cu8	Cu	1.506362	-0.111789	-0.081348
Cu9	Cu	1.506389	-0.111790	0.081254
O10	O	1.495876	-0.221909	-0.068790
C11	C	1.273167	-0.116044	-0.000039
C12	C	1.131580	-0.113779	-0.000034
C13	C	1.516110	0.026533	-0.000049
C14	C	1.513850	0.110565	-0.000046
N15	N	1.506352	-0.111788	-0.195713
C16	C	1.064797	-0.040524	-0.000044
C17	C	0.972040	-0.075129	0.067746
C18	C	0.972051	-0.075146	-0.067811
C19	C	1.040687	-0.148414	0.067812
C20	C	1.040708	-0.148421	-0.067806
C21	C	0.947978	-0.183079	0.000001
C22	C	1.739584	-0.107535	-0.000053
C23	C	1.881171	-0.109800	-0.000053
C24	C	1.512804	0.150039	0.074902
C25	C	1.510673	0.228996	0.074902
C26	C	1.509597	0.268478	-0.000047
C27	C	1.510639	0.228998	-0.075001
C28	C	1.512761	0.150042	-0.075000
C29	C	1.502079	0.547419	-0.075005
C30	C	1.499960	0.626381	-0.075000
C31	C	1.499990	0.626373	0.074897
C32	C	1.502113	0.547417	0.074898
C33	C	1.503148	0.507944	-0.000056
C34	C	1.505457	0.422330	-0.000055
C35	C	1.507297	0.354092	-0.000048
C36	C	1.496642	0.749889	-0.000046
C37	C	1.498905	0.665856	-0.000051
C38	C	1.583561	-0.158142	-0.238975
C39	C	1.583575	-0.158139	-0.325522
C40	C	1.506372	-0.111786	-0.368806
C41	C	1.429159	-0.065427	-0.325538
C42	C	1.429153	-0.065427	-0.238992
C43	C	1.429183	-0.065429	-0.674566
C44	C	1.429192	-0.065434	-0.761118
C45	C	1.583605	-0.158141	-0.761096
C46	C	1.583599	-0.158140	-0.674550
C47	C	1.506392	-0.111779	-0.631290
C48	C	1.506380	-0.111781	-0.537446
C49	C	1.506376	-0.111787	-0.462648
N50	N	1.506409	-0.111785	0.195619
H51	H	1.115603	0.019696	0.000039
H52	H	1.499081	0.658525	-0.136036
F53	F	0.932301	-0.034617	-0.142723
H54	H	1.509755	0.261150	-0.136025
H55	H	0.941610	-0.044134	0.125058
F56	F	1.498884	0.668390	0.154670
H57	H	1.070951	-0.179386	0.125189
F58	F	1.513873	0.108031	-0.154770
H59	H	1.366317	-0.027678	-0.639354
F60	F	1.665754	-0.207484	-0.628489
H61	H	0.897437	-0.243363	0.000040
F62	F	1.503264	0.505402	0.154668
F63	F	1.503164	0.505418	-0.154777
F64	F	1.080529	-0.188902	-0.142720
H65	H	1.513687	0.117899	0.135934
F66	F	1.346987	-0.016085	-0.192950
H67	H	1.646422	-0.195893	-0.203740
H68	H	1.509826	0.261133	0.135932
F69	F	1.665750	-0.207476	-0.371561
F70	F	1.346996	-0.016093	-0.371606
H71	H	1.646474	-0.195889	-0.796329
F72	F	1.347018	-0.016096	-0.807182
