data_functionalizedCrystal
_audit_creation_method	'MofGen! by Chris Wilmer'
_symmetry_space_group_name_H-M	'P1'
_symmetry_Int_Tables_number	1
_symmetry_cell_setting	triclinic
loop_
_symmetry_equiv_pos_as_xyz
  x,y,z
_cell_length_a	15.995350
_cell_length_b	14.044220
_cell_length_c	12.503572
_cell_angle_alpha	86.156832
_cell_angle_beta	93.514695
_cell_angle_gamma	88.340626
loop_
_atom_site_label
_atom_site_type_symbol
_atom_site_fract_x
_atom_site_fract_y
_atom_site_fract_z
O1	O	-1.124525	-0.116702	-0.089231
O2	O	-0.624525	0.383298	0.410769
O3	O	-0.881878	-0.131788	-0.089254
O4	O	-0.381878	0.368212	0.410746
O5	O	-0.999559	0.013739	-0.089232
O6	O	-0.499559	0.513739	0.410768
O7	O	-1.006844	-0.262229	-0.089253
O8	O	-0.506844	0.237771	0.410747
O9	O	-0.990710	0.002777	0.089408
O10	O	-0.490710	0.502777	0.589408
O11	O	-0.873029	-0.142751	0.089386
O12	O	-0.373029	0.357249	0.589386
O13	O	-1.115676	-0.127664	0.089409
O14	O	-0.615676	0.372336	0.589409
Cu15	Cu	-0.993545	-0.136208	0.105709
Cu16	Cu	-0.493545	0.363792	0.605709
Cu17	Cu	-1.004010	-0.123244	-0.105554
Cu18	Cu	-0.504010	0.376756	0.394446
O19	O	-0.997995	-0.273191	0.089387
O20	O	-0.497995	0.226809	0.589387
C21	C	-0.846212	-0.136645	0.000064
C22	C	-0.346212	0.363355	0.500064
C23	C	-0.753123	-0.134775	0.000055
C24	C	-0.253123	0.365225	0.500055
C25	C	-0.991946	0.043572	0.000088
C26	C	-0.491946	0.543572	0.500088
C27	C	-0.982435	0.148798	0.000088
C28	C	-0.482435	0.648798	0.500088
C29	C	-1.151342	-0.122807	0.000089
C30	C	-0.651342	0.377193	0.500089
C31	C	-1.244432	-0.124677	0.000090
C32	C	-0.744432	0.375323	0.500090
C33	C	-0.414873	-0.128061	0.000078
C34	C	0.085127	0.371939	0.500078
C35	C	-0.454546	-0.024443	0.000484
C36	C	0.045454	0.475557	0.500484
C37	C	-0.551396	-0.026288	0.000074
C38	C	-0.051396	0.473712	0.500074
C39	C	-0.582682	-0.131391	0.000067
C40	C	-0.082682	0.368609	0.500067
C41	C	-0.550467	-0.176251	-0.101944
C42	C	-0.050467	0.323749	0.398056
C43	C	-0.453640	-0.173643	-0.102022
C44	C	0.046360	0.326357	0.397978
C45	C	-0.443398	-0.188250	0.101125
C46	C	0.056602	0.311750	0.601125
C47	C	-0.540276	-0.188308	0.102466
C48	C	-0.040276	0.311692	0.602466
C49	C	-0.677521	-0.133279	0.000058
C50	C	-0.177521	0.366721	0.500058
C51	C	-0.320034	-0.126176	0.000081
C52	C	0.179966	0.373824	0.500081
C53	C	-1.005609	-0.303024	0.000065
C54	C	-0.505609	0.196976	0.500065
C55	C	-1.015120	-0.408250	0.000057
C56	C	-0.515120	0.091750	0.500057
N57	N	-0.986190	-0.145326	0.254300
N58	N	-0.486190	0.354674	0.754300
C59	C	-0.965048	0.341460	0.000071
C60	C	-0.465048	0.841460	0.500071
C61	C	-1.032504	0.399093	0.000074
C62	C	-0.532504	0.899093	0.500074
C63	C	-1.022829	0.506297	0.000065
C64	C	-0.522829	1.006297	0.500065
C65	C	-0.974721	0.234246	0.000081
C66	C	-0.474721	0.734246	0.500081
N67	N	-1.011370	-0.114118	-0.254145
N68	N	-0.511370	0.385882	0.245855
C69	C	-0.975372	-0.158747	0.473413
C70	C	-0.475372	0.341253	0.973413
C71	C	-1.022186	-0.100701	0.526749
C72	C	-0.522186	0.399299	1.026749
C73	C	-1.016166	-0.108168	0.648671
C74	C	-0.516166	0.391832	1.148671
C75	C	-0.981391	-0.151281	0.351480
C76	C	-0.481391	0.348719	0.851480
H77	H	-0.573201	0.009407	0.073201
H78	H	-0.073201	0.509407	0.573201
H79	H	-1.097524	0.367926	0.000008
H80	H	-0.597524	0.867926	0.500008
C81	C	-0.568329	-0.144122	0.204421
C82	C	-0.068329	0.355878	0.704421
N83	N	-0.589457	-0.110833	0.281212
N84	N	-0.089457	0.389167	0.781212
H85	H	-0.900036	0.372630	0.000063
H86	H	-0.400036	0.872630	0.500063
C87	C	-0.577598	-0.280251	-0.107083
C88	C	-0.077598	0.219749	0.392917
N89	N	-0.598036	-0.358584	-0.110952
N90	N	-0.098036	0.141416	0.389048
H91	H	-0.435475	0.021259	-0.072263
H92	H	0.064525	0.521259	0.427737
C93	C	-1.082448	-0.025998	0.464736
C94	C	-0.582448	0.474002	0.964736
N95	N	-1.127840	0.030261	0.418024
N96	N	-0.627840	0.530261	0.918024
H97	H	-0.429305	0.012496	0.073642
H98	H	0.070695	0.512496	0.573642
H99	H	-0.930777	-0.214048	0.519312
H100	H	-0.430777	0.285952	1.019312
H101	H	-0.579860	0.018662	-0.073174
H102	H	-0.079860	0.518662	0.426826
H103	H	-0.427305	-0.249451	-0.106656
H104	H	0.072695	0.250549	0.393344
C105	C	-0.430246	-0.116949	-0.205029
C106	C	0.069754	0.383051	0.294971
N107	N	-0.412629	-0.074242	-0.282613
N108	N	0.087371	0.425758	0.217387
H109	H	-0.416502	-0.159112	0.178448
H110	H	0.083498	0.340888	0.678448
C111	C	-0.590289	-0.121986	-0.204504
C112	C	-0.090289	0.378014	0.295496
N113	N	-0.620281	-0.081108	-0.281750
N114	N	-0.120281	0.418892	0.218250
H115	H	-0.417310	-0.264707	0.101810
H116	H	0.082690	0.235293	0.601810
C117	C	-0.568367	-0.292359	0.110797
C118	C	-0.068367	0.207641	0.610797
N119	N	-0.589531	-0.370731	0.117069
N120	N	-0.089531	0.129269	0.617069
