data_functionalizedCrystal
_audit_creation_method	'MofGen! by Chris Wilmer'
_symmetry_space_group_name_H-M	'P1'
_symmetry_Int_Tables_number	1
_symmetry_cell_setting	triclinic
loop_
_symmetry_equiv_pos_as_xyz
  x,y,z
_cell_length_a	11.792241
_cell_length_b	11.792241
_cell_length_c	10.868271
_cell_angle_alpha	89.999942
_cell_angle_beta	89.998922
_cell_angle_gamma	95.806584
loop_
_atom_site_label
_atom_site_type_symbol
_atom_site_fract_x
_atom_site_fract_y
_atom_site_fract_z
O1	O	0.155561	-1.506910	-0.102185
O2	O	0.655561	-1.006910	0.397815
O3	O	0.171594	-1.176569	-0.102218
O4	O	0.671594	-0.676569	0.397782
O5	O	-0.001593	-1.349756	-0.102192
O6	O	0.498407	-0.849756	0.397808
O7	O	0.328748	-1.333723	-0.102211
O8	O	0.828748	-0.833723	0.397789
O9	O	-0.001585	-1.349738	0.102453
O10	O	0.498415	-0.849738	0.602453
O11	O	0.171602	-1.176551	0.102427
O12	O	0.671602	-0.676551	0.602427
O13	O	0.155569	-1.506893	0.102460
O14	O	0.655569	-1.006893	0.602460
Zn15	Zn	0.163586	-1.341719	0.134935
Zn16	Zn	0.663586	-0.841719	0.634935
Zn17	Zn	0.163577	-1.341742	-0.134693
Zn18	Zn	0.663577	-0.841742	0.365307
O19	O	0.328756	-1.333706	0.102434
O20	O	0.828756	-0.833706	0.602434
C21	C	0.170591	-1.134269	0.000101
C22	C	0.670591	-0.634269	0.500101
C23	C	0.167576	-1.008255	0.000088
C24	C	0.667576	-0.508255	0.500088
C25	C	0.162034	-0.777543	0.000121
C26	C	0.662034	-0.277543	0.500121
C27	C	0.165113	-0.905928	0.000103
C28	C	0.665113	-0.405928	0.500103
C29	C	-0.043880	-1.348740	0.000130
C30	C	0.456120	-0.848740	0.500130
C31	C	-0.169894	-1.345726	0.000129
C32	C	0.330106	-0.845726	0.500129
C33	C	-0.400606	-1.340183	0.000107
C34	C	0.099394	-0.840183	0.500107
C35	C	-0.272221	-1.343262	0.000119
C36	C	0.227779	-0.843262	0.500119
C37	C	0.371043	-1.334721	0.000109
C38	C	0.871043	-0.834721	0.500109
C39	C	0.497057	-1.337736	0.000103
C40	C	0.997057	-0.837736	0.500103
N41	N	0.163592	-1.341712	0.318949
N42	N	0.663592	-0.841712	0.818949
C43	C	0.156572	-0.549192	0.000136
C44	C	0.656572	-0.049192	0.500136
C45	C	0.159587	-0.675206	0.000131
C46	C	0.659587	-0.175206	0.500131
C47	C	0.163594	-1.341720	0.430287
C48	C	0.663594	-0.841720	0.930287
C49	C	0.163584	-1.341734	0.569964
C50	C	0.663584	-0.841734	1.069964
N51	N	0.163570	-1.341751	0.681293
N52	N	0.663570	-0.841751	1.181293
