data_functionalizedCrystal
_audit_creation_method	'MofGen! by Chris Wilmer'
_symmetry_space_group_name_H-M	'P1'
_symmetry_Int_Tables_number	1
_symmetry_cell_setting	triclinic
loop_
_symmetry_equiv_pos_as_xyz
  x,y,z
_cell_length_a	18.215405
_cell_length_b	18.215407
_cell_length_c	12.827893
_cell_angle_alpha	90.002980
_cell_angle_beta	90.013979
_cell_angle_gamma	90.022344
loop_
_atom_site_label
_atom_site_type_symbol
_atom_site_fract_x
_atom_site_fract_y
_atom_site_fract_z
Zn1	Zn	-0.293162	1.124971	0.590777
Zn2	Zn	-0.416198	1.124909	0.416017
Zn3	Zn	-0.293144	1.001933	0.416053
Zn4	Zn	-0.416186	1.001869	0.590719
O5	O	-0.354673	1.063421	0.503392
O6	O	-0.309496	1.227947	0.567604
O7	O	-0.399872	1.108597	0.269786
O8	O	-0.190162	1.018307	0.439270
O9	O	-0.399889	1.227902	0.439208
O10	O	-0.190175	1.108702	0.567639
O11	O	-0.309465	1.018247	0.269812
O12	O	-0.309453	0.898941	0.439214
O13	O	-0.399869	1.018198	0.736963
O14	O	-0.399852	0.898893	0.567540
O15	O	-0.309484	1.108640	0.737005
O16	O	-0.519180	1.108535	0.439152
O17	O	-0.519172	1.018138	0.567505
C18	C	-0.354650	0.872214	0.503375
C19	C	-0.354658	0.790415	0.503393
C20	C	-0.401820	0.525353	0.570119
C21	C	-0.401814	0.602211	0.570114
C22	C	-0.307541	0.602230	0.436682
C23	C	-0.307552	0.525372	0.436683
C24	C	-0.354690	0.486936	0.503407
C25	C	-0.354673	0.640652	0.503402
C26	C	-0.354666	0.723986	0.503396
C27	C	-0.354699	0.403597	0.503412
C28	C	-0.545879	1.063343	0.503341
C29	C	-0.627678	1.063377	0.503355
C30	C	-0.815852	1.110557	0.436644
C31	C	-0.892710	1.110590	0.436670
C32	C	-0.892741	1.016378	0.570214
C33	C	-0.815884	1.016350	0.570193
C34	C	-0.777441	1.063438	0.503402
C35	C	-0.931157	1.063499	0.503448
C36	C	-1.014491	1.063535	0.503476
C37	C	-0.694102	1.063404	0.503376
C38	C	-0.162720	1.063519	0.503465
C39	C	-0.080921	1.063560	0.503496
C40	C	-0.354677	1.063419	0.775962
C41	C	-0.354679	1.063418	0.892115
C42	C	-0.354696	1.255373	0.503408
C43	C	-0.354706	1.337172	0.503415
C44	C	-0.309960	1.108167	0.943920
C45	C	-0.309961	1.108167	1.063971
C46	C	-0.354684	1.063417	1.231882
C47	C	-0.354682	1.063418	1.115728
H48	H	-0.269172	0.494093	0.382353
H49	H	-0.271677	1.146480	1.108522
H50	H	-0.784553	1.148900	0.382261
C51	C	-0.916225	1.235254	0.385959
C52	C	-0.934903	1.162407	0.363285
H53	H	-0.942262	1.267250	0.340648
H54	H	-0.928803	1.245977	0.456179
H55	H	-0.864943	1.241939	0.376409
H56	H	-0.986184	1.155720	0.372842
H57	H	-0.922330	1.151680	0.293048
H58	H	-0.392973	1.025107	1.071184
C59	C	-1.010573	0.974583	0.629533
C60	C	-0.935001	0.964613	0.643617
H61	H	-1.036659	0.942619	0.674845
H62	H	-1.023124	1.024018	0.644900
H63	H	-1.023188	0.963861	0.559305
H64	H	-0.922384	0.975340	0.713844
H65	H	-0.922444	0.915166	0.628257
H66	H	-0.784608	0.977979	0.624561
C67	C	-0.182870	0.625915	0.386071
C68	C	-0.255725	0.644477	0.363340
H69	H	-0.150881	0.651992	0.340785
H70	H	-0.172174	0.638523	0.456299
H71	H	-0.176144	0.574641	0.376525
H72	H	-0.262453	0.695750	0.372893
H73	H	-0.266425	0.631874	0.293094
H74	H	-0.271670	1.146475	0.899396
H75	H	-0.392962	1.025102	0.936639
C76	C	-0.437860	0.501691	0.746985
C77	C	-0.453636	0.483102	0.643457
H78	H	-0.469854	0.475610	0.792259
H79	H	-0.388437	0.489106	0.762394
H80	H	-0.444602	0.552964	0.756517
H81	H	-0.446889	0.431829	0.633923
H82	H	-0.503071	0.495682	0.628043
H83	H	-0.440193	0.633487	0.624437
