data_functionalizedCrystal
_audit_creation_method	'MofGen! by Chris Wilmer'
_symmetry_space_group_name_H-M	'P1'
_symmetry_Int_Tables_number	1
_symmetry_cell_setting	triclinic
loop_
_symmetry_equiv_pos_as_xyz
  x,y,z
_cell_length_a	16.109302
_cell_length_b	8.597304
_cell_length_c	15.186229
_cell_angle_alpha	82.296375
_cell_angle_beta	89.994701
_cell_angle_gamma	84.402578
loop_
_atom_site_label
_atom_site_type_symbol
_atom_site_fract_x
_atom_site_fract_y
_atom_site_fract_z
O1	O	1.104799	0.201736	-0.088570
O2	O	0.862945	0.226840	-0.090468
O3	O	0.988632	-0.014182	-0.072183
O4	O	0.979113	0.442757	-0.106854
O5	O	0.988623	-0.014185	0.074274
O6	O	0.862937	0.226836	0.055990
O7	O	1.104791	0.201732	0.057887
Zn8	Zn	0.983862	0.214284	0.080192
Zn9	Zn	0.983874	0.214288	-0.112772
O10	O	0.979104	0.442754	0.039603
C11	C	0.831958	0.225821	-0.017161
C12	C	0.739637	0.222771	-0.016927
C13	C	0.527233	0.215719	0.063434
C14	C	0.440489	0.212837	0.063649
C15	C	0.440509	0.212849	-0.096027
C16	C	0.527252	0.215719	-0.096241
C17	C	0.570611	0.217162	-0.016509
C18	C	0.397124	0.211410	-0.016079
C19	C	0.303073	0.208285	-0.015846
C20	C	0.664669	0.220284	-0.016741
C21	C	0.987605	-0.072654	0.005480
C22	C	0.984548	-0.246880	0.018695
C23	C	1.135778	0.202751	-0.015422
C24	C	1.228099	0.205800	-0.015661
C25	C	0.980131	0.501226	-0.038062
C26	C	0.983188	0.675451	-0.051283
N27	N	0.983861	0.214280	0.211885
N28	N	0.983882	0.214280	-0.244464
C29	C	1.039534	0.107591	0.445701
C30	C	1.039537	0.107588	0.537891
C31	C	0.928202	0.320973	0.521713
C32	C	0.928196	0.320968	0.429525
C33	C	0.983867	0.214279	0.391522
C34	C	0.983875	0.214280	0.575899
C35	C	0.983878	0.214277	0.675855
C36	C	0.983864	0.214280	0.291559
H37	H	0.562534	0.216894	0.128357
H38	H	0.882877	0.407839	0.552664
C39	C	0.982957	-0.337104	0.113303
C40	C	0.908973	-0.431826	0.142374
C41	C	0.907382	-0.522050	0.236980
C42	C	0.979775	-0.517553	0.302517
C43	C	1.053765	-0.422827	0.273448
C44	C	1.055356	-0.332603	0.178841
H45	H	0.855378	-0.435159	0.093858
H46	H	0.852610	-0.592173	0.258499
H47	H	0.978598	-0.584342	0.372550
H48	H	1.107360	-0.419494	0.321963
H49	H	1.110129	-0.262481	0.157323
C50	C	1.100774	-0.009766	0.597490
C51	C	1.162014	-0.127101	0.555684
C52	C	1.223253	-0.244461	0.615283
C53	C	1.223252	-0.244486	0.716688
C54	C	1.162009	-0.127145	0.758499
C55	C	1.100770	-0.009785	0.698900
H56	H	1.162017	-0.127087	0.480613
H57	H	1.268589	-0.331324	0.584331
H58	H	1.268585	-0.331363	0.760807
H59	H	1.162006	-0.127159	0.833570
H60	H	1.055434	0.077078	0.729852
H61	H	1.084863	0.020717	0.414762
H62	H	0.882861	0.407847	0.385408
H63	H	0.405195	0.211675	-0.160943
C64	C	0.392773	0.211251	0.151587
C65	C	0.440470	0.212833	0.239286
C66	C	0.392755	0.211242	0.327229
C67	C	0.297342	0.208069	0.327472
C68	C	0.249639	0.206487	0.239770
C69	C	0.297355	0.208078	0.151828
H70	H	0.511106	0.215181	0.239108
H71	H	0.428068	0.212413	0.392151
H72	H	0.262020	0.206892	0.392573
H73	H	0.179004	0.204139	0.239948
H74	H	0.262041	0.206907	0.086905
H75	H	0.984358	-0.257756	-0.121308
C76	C	0.574975	0.217310	-0.184184
C77	C	0.527284	0.215743	-0.271889
C78	C	0.575008	0.217327	-0.359826
C79	C	0.670422	0.220478	-0.360059
C80	C	0.718118	0.222045	-0.272351
C81	C	0.670394	0.220461	-0.184414
H82	H	0.456648	0.213411	-0.271719
H83	H	0.539699	0.216167	-0.424753
H84	H	0.705750	0.221650	-0.425155
H85	H	0.788754	0.224377	-0.272521
H86	H	0.705703	0.221621	-0.119487
