data_functionalizedCrystal
_audit_creation_method	'MofGen! by Chris Wilmer'
_symmetry_space_group_name_H-M	'P1'
_symmetry_Int_Tables_number	1
_symmetry_cell_setting	triclinic
loop_
_symmetry_equiv_pos_as_xyz
  x,y,z
_cell_length_a	14.971486
_cell_length_b	14.472310
_cell_length_c	14.971486
_cell_angle_alpha	90.001268
_cell_angle_beta	83.614129
_cell_angle_gamma	90.008074
loop_
_atom_site_label
_atom_site_type_symbol
_atom_site_fract_x
_atom_site_fract_y
_atom_site_fract_z
O1	O	1.186956	0.076735	0.116557
O2	O	0.926556	0.076760	0.130515
O3	O	1.063736	0.076740	-0.006664
O4	O	1.049777	0.076755	0.253736
O5	O	1.063700	-0.076942	-0.006656
O6	O	0.926521	-0.076922	0.130523
O7	O	1.186921	-0.076947	0.116565
Cu8	Cu	1.056718	-0.090967	0.123545
Cu9	Cu	1.056760	0.090780	0.123535
O10	O	1.049742	-0.076927	0.253744
C11	C	0.893214	-0.000077	0.129895
C12	C	0.793917	-0.000068	0.128024
N13	N	1.056695	-0.218798	0.123551
C14	C	0.736691	-0.000065	0.208614
C15	C	0.643392	-0.000079	0.206850
C16	C	0.607320	-0.000089	0.124497
C17	C	0.664552	-0.000095	0.043902
C18	C	0.757850	-0.000088	0.045666
C19	C	0.470090	-0.000108	0.040231
C20	C	0.376786	-0.000114	0.038466
C21	C	0.355632	-0.000099	0.201415
C22	C	0.448930	-0.000092	0.203179
C23	C	0.506156	-0.000096	0.122584
C24	C	1.056758	-0.592889	0.123532
C25	C	0.983110	-0.553712	0.196687
C26	C	0.983280	-0.446624	0.196954
C27	C	1.056726	-0.407298	0.123541
C28	C	1.150076	-0.446143	0.144025
C29	C	1.149662	-0.553264	0.144545
C30	C	1.037890	-0.553421	0.029676
C31	C	1.035750	-0.446293	0.030299
C32	C	1.056714	-0.302410	0.123545
C33	C	1.056777	-0.697777	0.123530
C34	C	1.220263	-0.000107	0.117185
C35	C	1.319561	-0.000110	0.119056
C36	C	1.063094	-0.000100	-0.039985
C37	C	1.061223	-0.000099	-0.139282
N38	N	1.056790	0.218611	0.123522
C39	C	1.141812	-0.000108	-0.196507
C40	C	1.140049	-0.000098	-0.289807
C41	C	1.057696	-0.000087	-0.325879
C42	C	0.977101	-0.000076	-0.268646
C43	C	0.978865	-0.000078	-0.175349
C44	C	0.973430	-0.000072	-0.463109
C45	C	0.971665	-0.000071	-0.556413
C46	C	1.134614	-0.000092	-0.577567
C47	C	1.136378	-0.000094	-0.484269
C48	C	1.055782	-0.000085	-0.427043
C49	C	1.050383	-0.000084	0.287065
C50	C	1.052254	-0.000079	0.386362
H51	H	0.766054	-0.000056	0.275675
Cl52	Cl	1.241366	-0.000112	-0.361744
H53	H	0.347419	-0.000123	-0.028593
H54	H	0.913500	-0.579494	0.184667
Cl55	Cl	1.236743	-0.593278	0.065331
H56	H	0.309033	-0.000100	0.267039
Cl57	Cl	1.001482	-0.595233	0.303616
Cl58	Cl	0.619204	-0.000114	-0.059629
Cl59	Cl	1.001864	-0.407036	0.304493
H60	H	0.804443	-0.000090	-0.019958
H61	H	1.208874	-0.000123	-0.167145
H62	H	1.166274	-0.578238	0.212997
Cl63	Cl	0.542030	-0.000115	-0.061092
H64	H	0.913895	-0.420362	0.184735
H65	H	0.907800	-0.000062	-0.416517
Cl66	Cl	1.236722	-0.406816	0.063956
Cl67	Cl	1.176337	-0.404709	0.248505
H68	H	1.085900	-0.419527	-0.026698
Cl69	Cl	1.239909	-0.000104	-0.438922
H70	H	0.971292	-0.580483	0.010004
H71	H	0.967080	-0.420905	0.014756
Cl72	Cl	1.120807	-0.592535	-0.054377
Cl73	Cl	0.873570	-0.000050	-0.313995
H74	H	1.200238	-0.000096	-0.624165
Cl75	Cl	0.877548	-0.000064	-0.103407
Cl76	Cl	0.868134	-0.000057	-0.601760
H77	H	0.478296	-0.000074	0.270239
Cl78	Cl	0.571455	-0.000069	0.308168
