data_functionalizedCrystal
_audit_creation_method	'MofGen! by Chris Wilmer'
_symmetry_space_group_name_H-M	'P1'
_symmetry_Int_Tables_number	1
_symmetry_cell_setting	triclinic
loop_
_symmetry_equiv_pos_as_xyz
  x,y,z
_cell_length_a	12.827893
_cell_length_b	14.908520
_cell_length_c	12.827885
_cell_angle_alpha	93.263516
_cell_angle_beta	89.980918
_cell_angle_gamma	93.320754
loop_
_atom_site_label
_atom_site_type_symbol
_atom_site_fract_x
_atom_site_fract_y
_atom_site_fract_z
Zn1	Zn	1.573615	-0.359110	-0.614811
Zn2	Zn	1.906948	-0.025777	-0.281478
Zn3	Zn	2.240282	0.307557	0.051856
Zn4	Zn	1.563402	-0.509994	-0.450142
Zn5	Zn	1.896735	-0.176661	-0.116808
Zn6	Zn	2.230069	0.156673	0.216525
Zn7	Zn	1.398853	-0.359155	-0.440088
Zn8	Zn	1.732187	-0.025821	-0.106755
Zn9	Zn	2.065520	0.307512	0.226578
Zn10	Zn	1.388739	-0.509927	-0.624838
Zn11	Zn	1.722072	-0.176594	-0.291504
Zn12	Zn	2.055406	0.156739	0.041829
O13	O	1.481152	-0.434546	-0.532470
O14	O	1.814486	-0.101213	-0.199136
O15	O	2.147819	0.232120	0.134197
O16	O	1.718496	-0.379134	-0.592978
O17	O	2.051829	-0.045801	-0.259645
O18	O	2.385162	0.287532	0.073688
O19	O	1.541533	-0.490031	-0.302575
O20	O	1.874866	-0.156698	0.030758
O21	O	2.208200	0.176636	0.364092
O22	O	1.430543	-0.232904	-0.454862
O23	O	1.763876	0.100429	-0.121529
O24	O	2.097209	0.433762	0.211805
O25	O	1.710992	-0.489988	-0.471996
O26	O	2.044326	-0.156655	-0.138663
O27	O	2.377659	0.176679	0.194670
O28	O	1.558939	-0.232872	-0.583230
O29	O	1.892273	0.100462	-0.249897
O30	O	2.225606	0.433795	0.083437
O31	O	1.420640	-0.379210	-0.295189
O32	O	1.753973	-0.045877	0.038145
O33	O	2.087306	0.287457	0.371478
O34	O	1.251276	-0.379146	-0.464584
O35	O	1.584610	-0.045812	-0.131251
O36	O	1.917943	0.287521	0.202082
O37	O	1.413305	-0.489875	-0.769741
O38	O	1.746638	-0.156541	-0.436407
O39	O	2.079971	0.176792	-0.103074
O40	O	1.243845	-0.489918	-0.600319
O41	O	1.577179	-0.156584	-0.266986
O42	O	1.910512	0.176749	0.066348
O43	O	1.549132	-0.379070	-0.762374
O44	O	1.882465	-0.045736	-0.429041
O45	O	2.215799	0.287597	-0.095707
O46	O	1.531726	-0.636229	-0.481719
O47	O	1.865059	-0.302896	-0.148386
O48	O	2.198393	0.030437	0.184948
O49	O	1.403402	-0.636180	-0.610067
O50	O	1.736735	-0.302847	-0.276734
O51	O	2.070068	0.030486	0.056599
C52	C	1.209644	-0.434530	-0.532449
C53	C	1.542977	-0.101196	-0.199116
C54	C	1.876310	0.232137	0.134217
C55	C	1.093489	-0.434544	-0.532467
C56	C	1.426823	-0.101211	-0.199134
C57	C	1.760156	0.232122	0.134200
C58	C	0.918004	-0.489457	-0.599557
C59	C	1.251338	-0.156124	-0.266224
C60	C	1.584671	0.177209	0.067109
C61	C	1.038056	-0.489444	-0.599541
C62	C	1.371389	-0.156110	-0.266207
C63	C	1.704722	0.177223	0.067126
C64	C	1.465386	-0.668939	-0.548095
C65	C	1.798720	-0.335605	-0.214762
C66	C	2.132053	-0.002272	0.118572
C67	C	1.458737	-0.769212	-0.554814
C68	C	1.792071	-0.435879	-0.221481
C69	C	2.125404	-0.102546	0.111852
C70	C	1.580004	-0.957628	-0.433900
C71	C	1.913338	-0.624294	-0.100566
C72	C	2.246671	-0.290961	0.232767
C73	C	1.573760	-1.051844	-0.440210
C74	C	1.907094	-0.718511	-0.106876
C75	C	2.240427	-0.385177	0.226457
C76	C	1.440012	-1.051863	-0.573750
C77	C	1.773345	-0.718530	-0.240416
C78	C	2.106678	-0.385196	0.092917
C79	C	1.446255	-0.957647	-0.567439
C80	C	1.779589	-0.624313	-0.234106
C81	C	2.112922	-0.290980	0.099227
C82	C	1.516253	-0.910532	-0.497511
C83	C	1.849586	-0.577199	-0.164178
C84	C	2.182920	-0.243866	0.169156
C85	C	1.522491	-0.816314	-0.491196
C86	C	1.855824	-0.482981	-0.157863
C87	C	2.189158	-0.149648	0.175471
C88	C	1.388748	-0.816335	-0.624741
C89	C	1.722081	-0.483002	-0.291407
C90	C	2.055415	-0.149669	0.041926
C91	C	1.382504	-0.910551	-0.631051
C92	C	1.715838	-0.577218	-0.297717
C93	C	2.049171	-0.243885	0.035616
C94	C	1.753721	-0.434564	-0.532490
C95	C	2.087055	-0.101230	-0.199157
C96	C	2.420388	0.232103	0.134176
C97	C	1.869874	-0.434571	-0.532499
C98	C	2.203207	-0.101238	-0.199166
C99	C	2.536541	0.232096	0.134167
C100	C	1.481229	-0.434460	-0.805034
C101	C	1.814563	-0.101126	-0.471701
C102	C	2.147896	0.232207	-0.138367
C103	C	1.481262	-0.434423	-0.921185
C104	C	1.814595	-0.101090	-0.587852
C105	C	2.147929	0.232244	-0.254518
C106	C	1.497008	-0.199239	-0.516806
C107	C	1.830342	0.134094	-0.183473
C108	C	2.163675	0.467428	0.149861
C109	C	1.503765	-0.098965	-0.510131
C110	C	1.837099	0.234368	-0.176798
C111	C	2.170432	0.567702	0.156535
C112	C	1.548481	-0.379582	-0.969324
C113	C	1.881815	-0.046249	-0.635990
C114	C	2.215148	0.287084	-0.302657
C115	C	1.548517	-0.379543	-1.089372
C116	C	1.881850	-0.046210	-0.756038
C117	C	2.215183	0.287124	-0.422705
C118	C	1.481140	-0.434568	-0.260961
C119	C	1.814474	-0.101234	0.072372
C120	C	2.147807	0.232099	0.405706
C121	C	1.481327	-0.434350	-0.144794
C122	C	1.814660	-0.101017	0.188539
C123	C	2.147994	0.232316	0.521873
H124	H	1.079461	-0.536429	-0.656956
H125	H	1.412794	-0.203096	-0.323623
H126	H	1.746128	0.130237	0.009711
F127	F	0.932178	-0.373140	-0.457435
F128	F	1.265511	-0.039807	-0.124102
F129	F	1.598845	0.293526	0.209232
F130	F	1.039381	-0.373116	-0.457426
F131	F	1.372715	-0.039782	-0.124093
F132	F	1.706048	0.293551	0.209241
H133	H	1.579484	-0.777955	-0.434254
H134	H	1.912817	-0.444621	-0.100921
H135	H	2.246150	-0.111288	0.232412
H136	H	1.606069	-0.332595	-1.130784
H137	H	1.939402	0.000738	-0.797451
H138	H	2.272736	0.334072	-0.464117
F139	F	1.654486	-0.907483	-0.359465
F140	F	1.987819	-0.574150	-0.026131
F141	F	2.321153	-0.240816	0.307202
F142	F	1.406105	-0.495728	-1.090676
F143	F	1.739439	-0.162395	-0.757343
F144	F	2.072772	0.170938	-0.424010
H145	H	1.423733	-0.481339	-0.968846
H146	H	1.757066	-0.148005	-0.635513
H147	H	2.090400	0.185328	-0.302179
F148	F	0.855699	-0.550904	-0.674604
F149	F	1.189033	-0.217571	-0.341270
F150	F	1.522366	0.115762	-0.007937
F151	F	1.365533	-1.102021	-0.648178
F152	F	1.698867	-0.768687	-0.314844
F153	F	2.032200	-0.435354	0.018489
F154	F	1.641615	-1.101963	-0.372508
F155	F	1.974949	-0.768630	-0.039175
F156	F	2.308282	-0.435297	0.294159
H157	H	1.336834	-0.777979	-0.676534
H158	H	1.670168	-0.444646	-0.343201
H159	H	2.003501	-0.111313	-0.009868
F160	F	1.623651	-0.318232	-0.907031
F161	F	1.956984	0.015102	-0.573698
F162	F	2.290317	0.348435	-0.240364
F163	F	1.308016	-0.960704	-0.705473
F164	F	1.641349	-0.627370	-0.372140
F165	F	1.974682	-0.294037	-0.038806
