data_functionalizedCrystal
_audit_creation_method	'MofGen! by Chris Wilmer'
_symmetry_space_group_name_H-M	'P1'
_symmetry_Int_Tables_number	1
_symmetry_cell_setting	triclinic
loop_
_symmetry_equiv_pos_as_xyz
  x,y,z
_cell_length_a	16.625539
_cell_length_b	18.215407
_cell_length_c	18.215405
_cell_angle_alpha	90.024806
_cell_angle_beta	90.031772
_cell_angle_gamma	90.021494
loop_
_atom_site_label
_atom_site_type_symbol
_atom_site_fract_x
_atom_site_fract_y
_atom_site_fract_z
Zn1	Zn	-0.455910	-1.125078	0.292985
Zn2	Zn	0.044090	-0.625078	0.792985
Zn3	Zn	-0.321069	-1.124985	0.416058
Zn4	Zn	0.178931	-0.624985	0.916058
Zn5	Zn	-0.321088	-1.002009	0.293010
Zn6	Zn	0.178912	-0.502009	0.793010
Zn7	Zn	-0.455857	-1.001977	0.416014
Zn8	Zn	0.044143	-0.501977	0.916014
O9	O	-0.388481	-1.063512	0.354517
O10	O	0.111519	-0.563512	0.854517
O11	O	-0.438037	-1.228050	0.309319
O12	O	0.061963	-0.728050	0.809319
O13	O	-0.208239	-1.108646	0.399765
O14	O	0.291761	-0.608646	0.899765
O15	O	-0.339003	-1.018387	0.190022
O16	O	0.160997	-0.518387	0.690022
O17	O	-0.338970	-1.227982	0.399740
O18	O	0.161030	-0.727982	0.899740
O19	O	-0.438056	-1.108806	0.190004
O20	O	0.061944	-0.608806	0.690004
O21	O	-0.208253	-1.018296	0.309362
O22	O	0.291747	-0.518296	0.809362
O23	O	-0.338951	-0.899021	0.309319
O24	O	0.161049	-0.399021	0.809319
O25	O	-0.568696	-1.018332	0.399664
O26	O	-0.068696	-0.518332	0.899664
O27	O	-0.437965	-0.898997	0.399689
O28	O	0.062035	-0.398997	0.899689
O29	O	-0.568735	-1.108774	0.309275
O30	O	-0.068735	-0.608774	0.809275
O31	O	-0.338918	-1.108615	0.519037
O32	O	0.161082	-0.608615	1.019037
O33	O	-0.437946	-1.018242	0.519004
O34	O	0.062054	-0.518242	1.019004
C35	C	-0.388455	-0.872306	0.354502
C36	C	0.111545	-0.372306	0.854502
C37	C	-0.388463	-0.790507	0.354514
C38	C	0.111537	-0.290507	0.854514
C39	C	-0.439952	-0.602320	0.401642
C40	C	0.060048	-0.102320	0.901642
C41	C	-0.439961	-0.525461	0.401644
C42	C	0.060039	-0.025461	0.901644
C43	C	-0.337013	-0.525457	0.307396
C44	C	0.162987	-0.025457	0.807396
C45	C	-0.337009	-0.602314	0.307391
C46	C	0.162991	-0.102314	0.807391
C47	C	-0.388477	-0.640744	0.354518
C48	C	0.111523	-0.140744	0.854518
C49	C	-0.388490	-0.487028	0.354525
C50	C	0.111510	0.012972	0.854525
C51	C	-0.388499	-0.403694	0.354526
C52	C	0.111501	0.096306	0.854526
C53	C	-0.388469	-0.724083	0.354516
C54	C	0.111531	-0.224083	0.854516
C55	C	-0.598790	-1.063560	0.354462
C56	C	-0.098790	-0.563560	0.854462
C57	C	-0.688411	-1.063581	0.354438
C58	C	-0.188411	-0.563581	0.854438
C59	C	-1.016587	-1.063615	0.354356
C60	C	-0.516587	-0.563615	0.854356
C61	C	-0.925278	-1.063603	0.354381
C62	C	-0.425278	-0.563603	0.854381
C63	C	-0.852502	-1.063598	0.354398
C64	C	-0.352502	-0.563598	0.854398
C65	C	-0.761188	-1.063586	0.354422
C66	C	-0.261188	-0.563586	0.854422
C67	C	-0.178990	-1.063507	0.354518
C68	C	0.321010	-0.563507	0.854518
C69	C	-0.089369	-1.063629	0.354334
C70	C	0.410631	-0.563629	0.854334
C71	C	-0.388442	-1.063435	0.545723
C72	C	0.111558	-0.563435	1.045723
C73	C	-0.388452	-1.063469	0.627522
C74	C	0.111548	-0.563469	1.127522
C75	C	-0.388504	-0.255465	0.354529
C76	C	0.111496	0.244535	0.854529
C77	C	-0.388504	-0.337264	0.354529
C78	C	0.111496	0.162736	0.854529
C79	C	-0.388537	-1.063610	0.162564
C80	C	0.111463	-0.563610	0.662564
C81	C	-0.388562	-1.063652	0.080765
C82	C	0.111438	-0.563652	0.580765
C83	C	-0.336984	-1.110637	0.815708
C84	C	0.163016	-0.610637	1.315708
C85	C	-0.337003	-1.110670	0.892567
C86	C	0.162997	-0.610670	1.392567
C87	C	-0.440036	-1.016482	0.892573
C88	C	0.059964	-0.516482	1.392573
C89	C	-0.440020	-1.016454	0.815716
C90	C	0.059980	-0.516454	1.315716
C91	C	-0.388489	-1.063530	0.777285
C92	C	0.111511	-0.563530	1.277285
C93	C	-0.388525	-1.063591	0.931001
C94	C	0.111475	-0.563591	1.431001
C95	C	-0.388546	-1.063627	1.014335
C96	C	0.111454	-0.563627	1.514335
C97	C	-0.388469	-1.063496	0.693946
C98	C	0.111531	-0.563496	1.193946
H99	H	-0.295108	-0.494158	0.269027
H100	H	0.204892	0.005842	0.769027
C101	C	-0.280382	-0.644583	0.255553
C102	C	0.219618	-0.144583	0.755553
H103	H	-0.249722	-0.610689	0.227494
H104	H	0.250278	-0.110689	0.727494
H105	H	-0.311288	-0.674589	0.223522
H106	H	0.188712	-0.174589	0.723522
H107	H	-0.245192	-0.674540	0.283669
H108	H	0.254808	-0.174540	0.783669
C109	C	-0.496713	-0.964698	0.934845
C110	C	0.003287	-0.464698	1.434845
H111	H	-0.527392	-0.936644	0.900952
H112	H	-0.027392	-0.436644	1.400952
H113	H	-0.465844	-0.932660	0.964875
H114	H	0.034156	-0.432660	1.464875
H115	H	-0.531884	-0.992847	0.964779
H116	H	-0.031884	-0.492847	1.464779
C117	C	-0.496581	-0.483195	0.453479
C118	C	0.003419	0.016805	0.953479
H119	H	-0.489221	-0.431917	0.446729
H120	H	0.010779	0.068083	0.946729
H121	H	-0.484683	-0.495766	0.502912
H122	H	0.015317	0.004234	1.002912
H123	H	-0.550779	-0.495819	0.442765
H124	H	-0.050779	0.004181	0.942765
H125	H	-0.295025	-1.148970	0.784420
H126	H	0.204975	-0.648970	1.284420
C127	C	-0.280343	-1.162484	0.934830
C128	C	0.219657	-0.662484	1.434830
H129	H	-0.249649	-1.190510	0.900932
H130	H	0.250351	-0.690510	1.400932
H131	H	-0.311224	-1.194546	0.964764
H132	H	0.188776	-0.694546	1.464764
H133	H	-0.245186	-1.134357	0.964858
H134	H	0.254814	-0.634357	1.464858
H135	H	-0.481966	-0.978093	0.784429
H136	H	0.018034	-0.478093	1.284429
H137	H	-0.481863	-0.633608	0.440014
H138	H	0.018137	-0.133608	0.940014
