data_functionalizedCrystal
_audit_creation_method	'MofGen! by Chris Wilmer'
_symmetry_space_group_name_H-M	'P1'
_symmetry_Int_Tables_number	1
_symmetry_cell_setting	triclinic
loop_
_symmetry_equiv_pos_as_xyz
  x,y,z
_cell_length_a	17.699077
_cell_length_b	15.455313
_cell_length_c	17.699083
_cell_angle_alpha	87.341275
_cell_angle_beta	83.281795
_cell_angle_gamma	92.675206
loop_
_atom_site_label
_atom_site_type_symbol
_atom_site_fract_x
_atom_site_fract_y
_atom_site_fract_z
O1	O	1.007402	0.072121	0.092373
O2	O	1.507402	0.572121	0.592373
O3	O	0.787023	0.072125	0.104830
O4	O	1.287023	0.572125	0.604830
O5	O	0.903438	0.072115	-0.011587
O6	O	1.403438	0.572115	0.488413
O7	O	0.890986	0.072131	0.208791
O8	O	1.390986	0.572131	0.708791
O9	O	0.896781	-0.072146	-0.004957
O10	O	1.396781	0.427854	0.495043
O11	O	0.780366	-0.072136	0.111460
O12	O	1.280366	0.427864	0.611460
O13	O	1.000745	-0.072141	0.099003
O14	O	1.500745	0.427859	0.599003
Cu15	Cu	0.889947	-0.085311	0.105837
Cu16	Cu	1.389947	0.414689	0.605837
Cu17	Cu	0.897820	0.085295	0.097997
Cu18	Cu	1.397820	0.585295	0.597997
O19	O	0.884329	-0.072131	0.215421
O20	O	1.384329	0.427869	0.715421
C21	C	0.755497	-0.000005	0.107700
C22	C	1.255497	0.499995	0.607700
C23	C	0.671479	-0.000003	0.106363
C24	C	1.171479	0.499997	0.606363
C25	C	0.628383	-0.078641	0.109347
C26	C	1.128383	0.421359	0.609347
C27	C	0.549440	-0.078642	0.108079
C28	C	1.049440	0.421358	0.608079
C29	C	0.513595	-0.000005	0.103832
C30	C	1.013595	0.499995	0.603832
C31	C	0.556697	0.078640	0.100845
C32	C	1.056697	0.578640	0.600845
C33	C	0.635639	0.078640	0.102108
C34	C	1.135639	0.578640	0.602108
C35	C	0.238334	0.078641	0.095752
C36	C	0.738334	0.578641	0.595752
C37	C	0.159386	0.078635	0.094492
C38	C	0.659386	0.578635	0.594492
C39	C	0.152135	-0.078641	0.101723
C40	C	0.652135	0.421359	0.601723
C41	C	0.231077	-0.078641	0.102985
C42	C	0.731077	0.421359	0.602985
C43	C	0.274173	0.000002	0.099995
C44	C	0.774173	0.500002	0.599995
C45	C	0.359772	0.000003	0.101368
C46	C	0.859772	0.500003	0.601368
C47	C	0.427997	-0.000004	0.102464
C48	C	0.927997	0.499996	0.602464
N49	N	0.884416	-0.205306	0.111351
N50	N	1.384416	0.294694	0.611351
C51	C	0.933890	-0.250704	0.061911
C52	C	1.433890	0.249296	0.561911
C53	C	0.929714	-0.341512	0.066088
C54	C	1.429714	0.158488	0.566088
C55	C	0.876066	-0.386919	0.119710
C56	C	1.376066	0.113081	0.619710
C57	C	0.826586	-0.341514	0.169152
C58	C	1.326586	0.158486	0.669152
C59	C	0.830759	-0.250708	0.164971
C60	C	1.330759	0.249292	0.664971
C61	C	0.858052	-0.658499	0.137737
C62	C	1.358052	-0.158499	0.637737
C63	C	0.853884	-0.749311	0.141916
C64	C	1.353884	-0.249311	0.641916
C65	C	0.957011	-0.749302	0.038851
C66	C	1.457011	-0.249302	0.538851
C67	C	0.961182	-0.658495	0.034678
C68	C	1.461182	-0.158495	0.534678
C69	C	0.911700	-0.613098	0.084117
C70	C	1.411700	-0.113098	0.584117
N71	N	0.871797	-0.479739	0.123982
N72	N	1.371797	0.020261	0.623982
N73	N	0.915966	-0.520280	0.079841
N74	N	1.415966	-0.020280	0.579841
C75	C	1.032270	-0.000008	0.096134
C76	C	1.532270	0.499992	0.596134
C77	C	1.116289	-0.000004	0.097470
C78	C	1.616289	0.499996	0.597470
C79	C	0.899663	-0.000016	-0.036469
C80	C	1.399663	0.499984	0.463531
C81	C	0.898325	-0.000016	-0.120487
C82	C	1.398325	0.499984	0.379513
N83	N	0.903358	0.205290	0.092476
N84	N	1.403358	0.705290	0.592476
C85	C	0.966658	-0.000018	-0.169109
C86	C	1.466658	0.499982	0.330891
C87	C	0.965396	-0.000011	-0.248053
C88	C	1.465396	0.499989	0.251947
C89	C	0.895800	-0.000007	-0.278373
C90	C	1.395800	0.499993	0.221627
C91	C	0.827461	-0.000001	-0.229744
C92	C	1.327461	0.499999	0.270256
C93	C	0.828724	-0.000003	-0.150802
C94	C	1.328724	0.499997	0.349198
C95	C	0.822366	0.000006	-0.548107
C96	C	1.322366	0.500006	-0.048107
C97	C	0.821109	0.000005	-0.627055
C98	C	1.321109	0.500005	-0.127055
C99	C	0.959038	-0.000002	-0.645358
C100	C	1.459038	0.499998	-0.145358
C101	C	0.960301	-0.000004	-0.566416
C102	C	1.460301	0.499996	-0.066416
C103	C	0.891963	0.000006	-0.517795
C104	C	1.391963	0.500006	-0.017795
C105	C	0.893333	-0.000001	-0.432196
C106	C	1.393333	0.499999	0.067804
C107	C	0.894430	-0.000006	-0.363970
C108	C	1.394430	0.499994	0.136030
C109	C	0.888104	0.000002	0.240303
C110	C	1.388104	0.500002	0.740303
C111	C	0.889443	0.000008	0.324320
C112	C	1.389443	0.500008	0.824320
H113	H	0.514356	-0.142677	0.110496
H114	H	1.014356	0.357323	0.610496
H115	H	0.273413	0.142677	0.093314
H116	H	0.773413	0.642677	0.593314
O117	O	0.105609	-0.163468	0.105297
O118	O	0.605609	0.336532	0.605297
H119	H	0.044677	-0.150262	0.103827
H120	H	0.544677	0.349738	0.603827
H121	H	0.260258	-0.142676	0.106447
H122	H	0.760258	0.357324	0.606447
H123	H	0.130203	0.142675	0.091033
H124	H	0.630203	0.642675	0.591033
O125	O	0.752396	-0.000007	-0.262445
O126	O	1.252396	0.499993	0.237555
H127	H	0.751234	0.058785	-0.300680
H128	H	1.251234	0.558785	0.199320
O129	O	1.032751	-0.000010	-0.697799
O130	O	1.532751	0.499990	-0.197799
H131	H	1.038200	0.058793	-0.736898
H132	H	1.538200	0.558793	-0.236898
H133	H	0.810195	-0.786278	0.185585
H134	H	1.310195	-0.286278	0.685585
H135	H	0.527506	0.142668	0.097382
H136	H	1.027506	0.642668	0.597382
O137	O	0.804691	-0.609545	0.191070
O138	O	1.304691	-0.109545	0.691070
H139	H	0.769859	-0.568195	0.157357
H140	H	1.269859	-0.068195	0.657357
O141	O	0.768724	-0.390483	0.226992
O142	O	1.268724	0.109517	0.726992
H143	H	0.774139	-0.461254	0.221601
H144	H	1.274139	0.038746	0.721601
H145	H	0.977579	-0.213739	0.018250
H146	H	1.477579	0.286261	0.518250
O147	O	1.019054	-0.609534	-0.023158
O148	O	1.519054	-0.109534	0.476842
H149	H	1.057683	-0.568160	0.006758
H150	H	1.557683	-0.068160	0.506758
H151	H	0.790471	-0.213746	0.205229
H152	H	1.290471	0.286254	0.705229
O153	O	0.755022	-0.000009	-0.098353
O154	O	1.255022	0.499991	0.401647
H155	H	0.706414	-0.000017	-0.132696
H156	H	1.206414	0.499983	0.367304
H157	H	0.670727	0.142675	0.099680
H158	H	1.170727	0.642675	0.599680
H159	H	0.969999	-0.378475	0.025830
H160	H	1.469999	0.121525	0.525830
O161	O	0.746041	0.000016	-0.659762
O162	O	1.246041	0.500016	-0.159762
H163	H	0.698733	0.000031	-0.612691
H164	H	1.198733	0.500031	-0.112691
O165	O	1.041724	-0.000015	-0.136409
O166	O	1.541724	0.499985	0.363591
H167	H	1.089028	-0.000004	-0.183485
H168	H	1.589028	0.499996	0.316515
O169	O	1.039102	-0.000028	-0.300492
O170	O	1.539102	0.499972	0.199508
H171	H	1.075137	0.058760	-0.292421
H172	H	1.575137	0.558760	0.207579
O173	O	0.667043	-0.163458	0.113937
O174	O	1.167043	0.336542	0.613937
H175	H	0.623810	-0.218140	0.115795
H176	H	1.123810	0.281860	0.615795
O177	O	1.010373	-0.798263	-0.014478
O178	O	1.510373	-0.298263	0.485522
H179	H	0.998457	-0.869035	-0.002569
H180	H	1.498457	-0.369035	0.497431
H181	H	1.016974	-0.000011	-0.541735
H182	H	1.516974	0.499989	-0.041735
O183	O	0.748662	-0.000006	-0.495669
O184	O	1.248662	0.499994	0.004331
H185	H	0.700057	-0.000018	-0.530017
H186	H	1.200057	0.499982	-0.030017
