data_functionalizedCrystal
_audit_creation_method	'MofGen! by Chris Wilmer'
_symmetry_space_group_name_H-M	'P1'
_symmetry_Int_Tables_number	1
_symmetry_cell_setting	triclinic
loop_
_symmetry_equiv_pos_as_xyz
  x,y,z
_cell_length_a	19.077269
_cell_length_b	10.685194
_cell_length_c	10.685453
_cell_angle_alpha	80.929532
_cell_angle_beta	96.486735
_cell_angle_gamma	92.258685
loop_
_atom_site_label
_atom_site_type_symbol
_atom_site_fract_x
_atom_site_fract_y
_atom_site_fract_z
Zn1	Zn	1.027626	-0.530624	-0.598774
Zn2	Zn	1.027623	-0.759146	-0.370233
Zn3	Zn	0.918353	-0.538376	-0.395055
Zn4	Zn	0.901560	-0.733013	-0.592278
O5	O	0.968790	-0.640290	-0.489085
O6	O	1.126114	-0.568630	-0.560788
O7	O	1.020155	-0.744042	-0.195342
O8	O	0.939877	-0.360254	-0.435185
O9	O	1.126112	-0.736525	-0.392880
O10	O	1.020159	-0.354559	-0.584856
O11	O	0.939874	-0.581843	-0.213579
O12	O	0.817636	-0.556503	-0.428887
O13	O	0.911256	-0.691984	-0.771323
O14	O	0.805298	-0.699502	-0.573786
O15	O	1.003876	-0.543290	-0.776095
O16	O	1.003871	-0.932773	-0.386581
O17	O	0.911253	-0.913573	-0.549717
C18	C	0.785930	-0.626009	-0.503326
C19	C	0.707699	-0.619927	-0.509446
C20	C	0.670952	-0.704362	-0.424789
C21	C	0.597445	-0.698647	-0.430556
C22	C	0.560687	-0.608490	-0.520975
C23	C	0.597439	-0.524051	-0.605641
C24	C	0.670944	-0.529773	-0.599879
C25	C	0.340850	-0.582021	-0.547601
C26	C	0.267340	-0.576303	-0.553354
C27	C	0.267351	-0.750901	-0.378270
C28	C	0.340858	-0.756610	-0.372511
C29	C	0.377603	-0.672176	-0.457181
N30	N	0.485552	-0.602643	-0.526870
N31	N	0.452737	-0.678029	-0.451292
C32	C	0.955758	-0.969091	-0.464777
C33	C	0.950245	-1.109755	-0.454415
C34	C	1.152364	-0.654628	-0.474789
C35	C	1.230593	-0.660738	-0.468698
C36	C	0.955693	-0.613857	-0.821202
C37	C	0.950112	-0.602593	-0.962730
C38	C	0.981892	-0.310204	-0.513514
C39	C	0.987475	-0.169541	-0.523925
C40	C	0.981881	-0.666532	-0.158264
C41	C	0.987612	-0.677450	-0.016752
H42	H	0.567529	-0.767402	-0.361619
H43	H	1.023567	-1.113116	-0.591368
H44	H	0.913623	-0.530149	-0.024742
H45	H	1.024109	-0.749889	0.045266
C46	C	0.901478	-1.185980	-0.363302
C47	C	0.821753	-1.160979	-0.381111
C48	C	0.772988	-1.237204	-0.289999
C49	C	0.803946	-1.338428	-0.181079
C50	C	0.883675	-1.363433	-0.163265
C51	C	0.932441	-1.287209	-0.254377
H52	H	0.798832	-1.086043	-0.461744
H53	H	0.713967	-1.218693	-0.303187
H54	H	0.767847	-1.394854	-0.113633
H55	H	0.906596	-1.438370	-0.082632
H56	H	0.991461	-1.305720	-0.241189
H57	H	0.700876	-0.777773	-0.351155
H58	H	0.700863	-0.461017	-0.668814
H59	H	0.370781	-0.830023	-0.298881
H60	H	0.237425	-0.819644	-0.309339
H61	H	0.370759	-0.513270	-0.616546
C62	C	0.226897	-0.477129	-0.652816
C63	C	0.230883	-0.476949	-0.795982
C64	C	0.190437	-0.377779	-0.895431
C65	C	0.146005	-0.278790	-0.851714
C66	C	0.142018	-0.278966	-0.708541
C67	C	0.182464	-0.378136	-0.609092
H68	H	0.263775	-0.550230	-0.828351
H69	H	0.193389	-0.377649	-1.001417
H70	H	0.116065	-0.205378	-0.925332
H71	H	0.109126	-0.205685	-0.676173
H72	H	0.179512	-0.378266	-0.503106
C73	C	0.557009	-0.424867	-0.705095
C74	C	0.476157	-0.418556	-0.711426
C75	C	0.435729	-0.319362	-0.810875
C76	C	0.476152	-0.226480	-0.903992
C77	C	0.557008	-0.232788	-0.897663
C78	C	0.597437	-0.331982	-0.798215
H79	H	0.446229	-0.487316	-0.642493
H80	H	0.375874	-0.314692	-0.815559
H81	H	0.446225	-0.153051	-0.977609
H82	H	0.586936	-0.164028	-0.966597
H83	H	0.657292	-0.336652	-0.793530
