data_functionalizedCrystal
_audit_creation_method	'MofGen! by Chris Wilmer'
_symmetry_space_group_name_H-M	'P1'
_symmetry_Int_Tables_number	1
_symmetry_cell_setting	triclinic
loop_
_symmetry_equiv_pos_as_xyz
  x,y,z
_cell_length_a	14.908979
_cell_length_b	25.639239
_cell_length_c	25.639233
_cell_angle_alpha	89.981253
_cell_angle_beta	93.280764
_cell_angle_gamma	93.340522
loop_
_atom_site_label
_atom_site_type_symbol
_atom_site_fract_x
_atom_site_fract_y
_atom_site_fract_z
Zn1	Zn	1.379047	-0.162042	-0.249556
Zn2	Zn	1.378915	-0.249465	-0.162125
Zn3	Zn	1.228199	-0.167092	-0.167172
Zn4	Zn	1.228105	-0.254502	-0.254566
O5	O	1.303567	-0.208275	-0.208355
O6	O	1.505275	-0.169418	-0.233749
O7	O	1.358907	-0.238544	-0.089630
O8	O	1.248304	-0.093254	-0.178117
O9	O	1.505178	-0.233647	-0.169514
O10	O	1.359132	-0.089544	-0.238644
O11	O	1.248176	-0.178024	-0.093338
O12	O	1.101942	-0.182908	-0.182974
O13	O	1.248143	-0.242232	-0.327066
O14	O	1.101872	-0.247128	-0.247182
O15	O	1.359040	-0.174302	-0.323385
O16	O	1.358815	-0.323302	-0.174372
O17	O	1.248015	-0.327002	-0.242287
C18	C	1.069173	-0.216113	-0.216169
C19	C	0.968898	-0.219479	-0.219525
C20	C	1.303415	-0.344123	-0.208336
C21	C	1.303432	-0.402237	-0.208343
C22	C	0.827553	-0.257709	-0.257624
C23	C	0.921770	-0.254547	-0.254475
C24	C	0.921803	-0.187571	-0.187720
C25	C	0.827586	-0.190733	-0.190868
C26	C	0.780464	-0.225803	-0.225822
C27	C	0.686246	-0.228962	-0.228972
C28	C	0.686280	-0.161989	-0.162214
C29	C	0.780497	-0.158827	-0.159066
C30	C	1.361411	-0.760651	-0.173043
C31	C	1.361445	-0.815254	-0.173049
O32	O	1.410583	-0.841839	-0.143015
N33	N	1.303725	-0.844509	-0.208384
C34	C	1.245972	-0.819158	-0.243719
O35	O	1.196880	-0.849056	-0.273776
C36	C	1.245943	-0.764556	-0.243716
C37	C	1.303660	-0.735304	-0.208375
C38	C	1.419124	-0.731398	-0.137705
C39	C	1.419088	-0.676799	-0.137699
C40	C	1.361338	-0.651452	-0.173030
C41	C	1.303624	-0.680704	-0.208368
C42	C	1.188195	-0.739206	-0.279053
C43	C	1.188171	-0.684600	-0.279047
C44	C	1.245889	-0.655348	-0.243705
C45	C	1.245837	-0.600758	-0.243693
N46	N	1.303558	-0.571503	-0.208358
C47	C	1.361308	-0.596850	-0.173027
C48	C	1.246040	-0.933827	-0.243725
C49	C	1.246065	-0.988428	-0.243727
C50	C	1.361539	-0.984520	-0.173057
C51	C	1.361510	-0.929917	-0.173053
C52	C	1.303761	-0.904571	-0.208390
C53	C	1.361227	-0.482187	-0.173016
C54	C	1.361183	-0.427583	-0.173011
C55	C	1.245712	-0.431497	-0.243683
C56	C	1.245752	-0.486096	-0.243686
C57	C	1.303517	-0.511440	-0.208350
O58	O	1.196727	-0.574138	-0.273714
O59	O	1.410400	-0.566945	-0.142980
C60	C	1.538875	-0.200407	-0.200510
C61	C	1.639150	-0.197055	-0.197167
C62	C	1.303596	-0.208265	-0.344727
C63	C	1.303608	-0.208261	-0.402840
C64	C	1.303743	-0.071896	-0.208384
C65	C	1.303819	-0.013780	-0.208397
C66	C	1.361425	-0.172788	-0.761290
C67	C	1.361436	-0.172773	-0.815894
O68	O	1.410522	-0.142677	-0.842507
N69	N	1.303707	-0.208135	-0.845120
C70	C	1.245957	-0.243510	-0.819739
O71	O	1.196855	-0.273587	-0.849611
C72	C	1.245942	-0.243522	-0.765136
C73	C	1.303681	-0.208162	-0.735913
C74	C	1.419159	-0.137430	-0.732068
C75	C	1.419149	-0.137445	-0.677467
C76	C	1.361405	-0.172819	-0.652090
C77	C	1.303671	-0.208177	-0.681313
C78	C	1.188188	-0.278895	-0.739756
C79	C	1.188178	-0.278904	-0.685149
C80	C	1.245917	-0.243543	-0.655926
C81	C	1.245917	-0.243567	-0.601335
N82	N	1.303646	-0.208205	-0.572110
C83	C	1.361390	-0.172831	-0.597487
C84	C	1.245992	-0.243482	-0.934408
C85	C	1.246011	-0.243473	-0.989010
C86	C	1.361489	-0.172735	-0.985162
C87	C	1.361474	-0.172747	-0.930559
C88	C	1.303721	-0.208120	-0.905183
C89	C	1.361365	-0.172867	-0.482823
C90	C	1.361352	-0.172887	-0.428218
C91	C	1.245871	-0.243623	-0.432071
C92	C	1.245886	-0.243605	-0.486671
C93	C	1.303636	-0.208223	-0.512046
O94	O	1.196854	-0.273646	-0.574687
O95	O	1.410476	-0.142755	-0.567609
C96	C	1.303589	-0.208246	-0.072512
C97	C	1.303752	-0.208097	-0.014392
H98	H	0.647881	-0.257515	-0.257436
H99	H	1.466164	-0.108650	-0.653679
Br100	Br	1.109796	-0.650205	-0.327009
Br101	Br	0.985768	-0.139986	-0.140281
Br102	Br	1.167344	-0.397087	-0.291632
Br103	Br	1.167665	-0.291474	-1.028662
H104	H	1.466089	-0.652984	-0.108922
Br105	Br	0.763598	-0.305294	-0.305067
H106	H	1.199007	-0.913193	-0.272500
Br107	Br	1.167533	-0.291598	-0.526332
Br108	Br	1.109868	-0.778892	-0.327025
Br109	Br	1.439912	-1.018930	-0.125104
Br110	Br	1.439721	-0.124897	-0.388561
H111	H	1.198757	-0.509914	-0.272465
H112	H	1.198860	-0.272425	-0.411399
Br113	Br	1.439734	-0.124844	-0.517252
Br114	Br	1.439837	-0.124756	-0.890905
Br115	Br	1.167717	-1.028122	-0.291685
Br116	Br	1.167611	-0.291497	-0.899975
H117	H	1.466181	-0.108621	-0.752724
H118	H	0.818876	-0.130276	-0.130606
Br119	Br	1.439857	-0.124727	-1.019613
H120	H	1.141170	-0.307689	-0.763540
Br121	Br	1.109790	-0.326911	-0.650714
H122	H	0.960107	-0.280529	-0.280372
H123	H	0.647930	-0.136007	-0.136320
Br124	Br	1.439622	-0.516574	-0.125060
Br125	Br	1.439517	-0.387887	-0.125044
H126	H	1.466156	-0.752029	-0.108933
Br127	Br	1.439843	-0.890223	-0.125088
