data_functionalizedCrystal
_audit_creation_method	'MofGen! by Chris Wilmer'
_symmetry_space_group_name_H-M	'P1'
_symmetry_Int_Tables_number	1
_symmetry_cell_setting	triclinic
loop_
_symmetry_equiv_pos_as_xyz
  x,y,z
_cell_length_a	18.215407
_cell_length_b	14.909042
_cell_length_c	18.215399
_cell_angle_alpha	93.320692
_cell_angle_beta	90.017813
_cell_angle_gamma	86.713748
loop_
_atom_site_label
_atom_site_type_symbol
_atom_site_fract_x
_atom_site_fract_y
_atom_site_fract_z
Zn1	Zn	1.142024	-0.359295	0.399190
Zn2	Zn	1.149050	-0.510161	0.269033
Zn3	Zn	1.018957	-0.359309	0.276141
Zn4	Zn	1.026037	-0.510095	0.392066
O5	O	1.084017	-0.434715	0.334108
O6	O	1.245941	-0.379329	0.381931
O7	O	1.131770	-0.490183	0.166990
O8	O	1.029378	-0.233064	0.298420
O9	O	1.251103	-0.490170	0.286306
O10	O	1.119795	-0.233054	0.388824
O11	O	1.036192	-0.379353	0.172212
O12	O	0.916911	-0.379289	0.291512
O13	O	1.041445	-0.490058	0.495997
O14	O	0.922113	-0.490071	0.376681
O15	O	1.126660	-0.379265	0.501231
O16	O	1.138636	-0.636395	0.279398
O17	O	1.048259	-0.636347	0.369789
C18	C	0.892809	-0.434675	0.334095
C19	C	0.811010	-0.434680	0.334106
C20	C	1.094998	-0.669104	0.323065
C21	C	1.099763	-0.769377	0.318366
C22	C	0.543266	-0.377111	0.383970
C23	C	0.620124	-0.377097	0.383968
C24	C	0.625511	-0.492348	0.284260
C25	C	0.548654	-0.492366	0.284266
C26	C	0.507534	-0.434743	0.334120
C27	C	0.661248	-0.434710	0.334112
C28	C	0.744581	-0.434694	0.334110
C29	C	0.424195	-0.434759	0.334123
C30	C	1.014517	-0.957814	0.403578
C31	C	1.018992	-1.052029	0.399165
C32	C	1.113183	-1.052024	0.305124
C33	C	1.108708	-0.957809	0.309536
C34	C	1.059374	-0.910707	0.358766
C35	C	1.054904	-0.816490	0.363182
C36	C	1.149091	-0.816487	0.269138
C37	C	1.153566	-0.910702	0.264725
C38	C	1.275972	-0.434755	0.334121
C39	C	1.357771	-0.434773	0.334126
C40	C	1.084059	-0.434653	0.526064
C41	C	1.084077	-0.434626	0.607864
C42	C	1.073013	-0.199410	0.345209
C43	C	1.068324	-0.099137	0.349940
C44	C	1.084014	-0.434712	0.142902
C45	C	1.084127	-0.434484	0.061114
C46	C	1.128462	-0.376883	0.798787
C47	C	1.128470	-0.376856	0.875647
C48	C	1.039736	-0.492230	0.870185
C49	C	1.039725	-0.492251	0.793327
C50	C	1.084093	-0.434579	0.757630
C51	C	1.084111	-0.434531	0.911348
C52	C	1.084119	-0.434503	0.994683
C53	C	1.084084	-0.434605	0.674289
H54	H	0.649214	-0.330168	0.424561
O55	O	0.669860	-0.554485	0.230481
H56	H	0.729307	-0.544782	0.238844
O57	O	0.510105	-0.554522	0.230492
H58	H	0.551609	-0.594576	0.195816
H59	H	1.164599	-0.329873	0.909154
H60	H	1.164587	-0.329919	0.769725
H61	H	0.509787	-0.330190	0.424564
O62	O	1.001687	-0.765681	0.416268
H63	H	0.971239	-0.814270	0.446678
H64	H	1.003616	-0.539187	0.899259
H65	H	0.974352	-0.919463	0.443668
H66	H	0.982466	-1.090380	0.435657
H67	H	1.003589	-0.539234	0.759815
H68	H	1.153342	-1.090390	0.265036
H69	H	1.193730	-0.949065	0.224641
H70	H	1.185620	-0.778122	0.232651
