data_functionalizedCrystal
_audit_creation_method	'MofGen! by Chris Wilmer'
_symmetry_space_group_name_H-M	'P1'
_symmetry_Int_Tables_number	1
_symmetry_cell_setting	triclinic
loop_
_symmetry_equiv_pos_as_xyz
  x,y,z
_cell_length_a	19.805407
_cell_length_b	12.759394
_cell_length_c	12.759387
_cell_angle_alpha	89.968340
_cell_angle_beta	89.976158
_cell_angle_gamma	90.014837
loop_
_atom_site_label
_atom_site_type_symbol
_atom_site_fract_x
_atom_site_fract_y
_atom_site_fract_z
Zn1	Zn	1.034819	-0.418211	-0.594092
Zn2	Zn	1.534819	0.081789	-0.094092
Zn3	Zn	1.034748	-0.593928	-0.418410
Zn4	Zn	1.534748	-0.093928	0.081590
Zn5	Zn	0.921625	-0.418264	-0.418419
Zn6	Zn	1.421625	0.081736	0.081581
Zn7	Zn	0.921620	-0.593849	-0.594039
Zn8	Zn	1.421620	-0.093849	-0.094039
O9	O	0.978203	-0.506063	-0.506240
O10	O	1.478203	-0.006063	-0.006240
O11	O	1.129526	-0.441532	-0.570806
O12	O	1.629526	0.058468	-0.070806
O13	O	1.019714	-0.570681	-0.271390
O14	O	1.519714	-0.070681	0.228610
O15	O	0.936672	-0.271236	-0.441748
O16	O	1.436672	0.228764	0.058252
O17	O	1.129474	-0.570630	-0.441733
O18	O	1.629474	-0.070630	0.058267
O19	O	1.019835	-0.271197	-0.570815
O20	O	1.519835	0.228803	-0.070815
O21	O	0.936603	-0.441621	-0.271397
O22	O	1.436603	0.058379	0.228603
O23	O	0.826908	-0.441544	-0.441697
O24	O	1.326908	0.058456	0.058303
O25	O	0.936663	-0.570495	-0.741067
O26	O	1.436663	-0.070495	-0.241067
O27	O	0.826904	-0.570546	-0.570724
O28	O	1.326904	-0.070546	-0.070724
O29	O	1.019830	-0.441455	-0.741106
O30	O	1.519830	0.058545	-0.241106
O31	O	1.019709	-0.740939	-0.441682
O32	O	1.519709	-0.240939	0.058318
O33	O	0.936595	-0.740880	-0.570715
O34	O	1.436595	-0.240880	-0.070715
C35	C	0.802347	-0.506043	-0.506206
C36	C	1.302347	-0.006043	-0.006206
C37	C	0.727115	-0.506059	-0.506216
C38	C	1.227115	-0.006059	-0.006216
C39	C	0.691786	-0.573332	-0.573292
C40	C	1.191786	-0.073332	-0.073292
C41	C	0.621098	-0.573334	-0.573307
C42	C	1.121098	-0.073334	-0.073307
C43	C	0.585739	-0.506068	-0.506240
C44	C	1.085739	-0.006068	-0.006240
C45	C	0.621073	-0.438788	-0.439161
C46	C	1.121073	0.061212	0.060839
C47	C	0.691760	-0.438782	-0.439153
C48	C	1.191760	0.061218	0.060847
C49	C	0.335999	-0.438811	-0.439196
C50	C	0.835999	0.061189	0.060804
C51	C	0.265307	-0.438825	-0.439208
C52	C	0.765307	0.061175	0.060792
C53	C	0.265337	-0.573363	-0.573350
C54	C	0.765337	-0.073363	-0.073350
C55	C	0.336025	-0.573357	-0.573342
C56	C	0.836025	-0.073357	-0.073342
C57	C	0.371352	-0.506074	-0.506267
C58	C	0.871352	-0.006074	-0.006267
C59	C	0.448000	-0.506071	-0.506254
C60	C	0.948000	-0.006071	-0.006254
C61	C	0.509092	-0.506075	-0.506248
C62	C	1.009092	-0.006075	-0.006248
C63	C	0.978162	-0.779030	-0.506215
C64	C	1.478162	-0.279030	-0.006215
C65	C	0.978207	-0.895807	-0.506239
C66	C	1.478207	-0.395807	-0.006239
C67	C	1.064819	-0.895814	-0.371977
C68	C	1.564819	-0.395814	0.128023
C69	C	1.108143	-0.950679	-0.304858
C70	C	1.608143	-0.450679	0.195142
C71	C	1.108183	-1.060400	-0.304886
C72	C	1.608183	-0.560400	0.195114
C73	C	1.064895	-1.115260	-0.372043
C74	C	1.564895	-0.615260	0.127957
C75	C	1.021571	-1.060396	-0.439162
C76	C	1.521571	-0.560396	0.060838
C77	C	1.021535	-0.950672	-0.439124
C78	C	1.521535	-0.450672	0.060876
C79	C	0.934963	-1.060388	-0.573428
C80	C	1.434963	-0.560388	-0.073428
C81	C	0.934919	-0.950667	-0.573396
C82	C	1.434919	-0.450667	-0.073396
C83	C	0.891676	-1.115248	-0.640585
C84	C	1.391676	-0.615248	-0.140585
C85	C	0.848348	-1.060383	-0.707700
C86	C	1.348348	-0.560383	-0.207700
C87	C	0.848309	-0.950655	-0.707667
C88	C	1.348309	-0.450655	-0.207667
C89	C	0.891595	-0.895802	-0.640514
C90	C	1.391595	-0.395802	-0.140514
C91	C	1.154745	-0.506084	-0.506275
C92	C	1.654745	-0.006084	-0.006275
C93	C	1.229977	-0.506093	-0.506290
C94	C	1.729977	-0.006093	-0.006290
C95	C	0.978254	-0.505960	-0.780274
C96	C	1.478254	-0.005960	-0.280274
C97	C	0.978276	-0.505916	-0.897050
C98	C	1.478276	-0.005916	-0.397050
C99	C	0.978262	-0.232029	-0.506289
C100	C	1.478262	0.267971	-0.006289
C101	C	0.978287	-0.115253	-0.506309
C102	C	1.478287	0.384747	-0.006309
C103	C	1.064883	-0.371555	-0.897111
C104	C	1.564883	0.128445	-0.397111
C105	C	1.108196	-0.304359	-0.952002
C106	C	1.608196	0.195641	-0.452002
C107	C	1.108213	-0.304321	-1.061724
C108	C	1.608213	0.195679	-0.561724
C109	C	1.064910	-0.371484	-1.116557
C110	C	1.564910	0.128516	-0.616557
C111	C	1.021597	-0.438680	-1.061666
C112	C	1.521597	0.061320	-0.561666
C113	C	1.021586	-0.438713	-0.951942
C114	C	1.521586	0.061287	-0.451942
C115	C	0.934987	-0.573034	-1.061605
C116	C	1.434987	-0.073034	-0.561605
C117	C	0.934973	-0.573079	-0.951884
C118	C	1.434973	-0.073079	-0.451884
C119	C	0.891684	-0.640196	-1.116438
C120	C	1.391684	-0.140196	-0.616438
C121	C	0.848373	-0.707399	-1.061547
C122	C	1.348373	-0.207399	-0.561547
C123	C	0.848359	-0.707436	-0.951819
C124	C	1.348359	-0.207436	-0.451819
C125	C	0.891660	-0.640275	-0.896992
C126	C	1.391660	-0.140275	-0.396992
C127	C	0.978191	-0.506090	-0.233273
C128	C	1.478191	-0.006090	0.266727
C129	C	0.978300	-0.505838	-0.116496
C130	C	1.478300	-0.005838	0.383504
H131	H	0.236566	-0.628144	-0.627970
H132	H	0.736566	-0.128144	-0.127970
H133	H	1.064937	-1.204601	-0.372070
H134	H	1.564937	-0.704601	0.127930
Br135	Br	0.789613	-1.134839	-0.798841
Br136	Br	1.289613	-0.634839	-0.298841
H137	H	0.891714	-1.204589	-0.640608
H138	H	1.391714	-0.704589	-0.140608
Br139	Br	0.789515	-0.876205	-0.798772
Br140	Br	1.289515	-0.376205	-0.298772
H141	H	0.891564	-0.806461	-0.640475
H142	H	1.391564	-0.306461	-0.140475
Br143	Br	0.739766	-0.664634	-0.664309
Br144	Br	1.239766	-0.164634	-0.164309
H145	H	1.064880	-0.371590	-0.807770
H146	H	1.564880	0.128410	-0.307770
Br147	Br	1.166942	-0.213183	-0.877583
Br148	Br	1.666942	0.286817	-0.377583
Br149	Br	1.166981	-0.213106	-1.136224
Br150	Br	1.666981	0.286894	-0.636224
H151	H	0.236520	-0.384042	-0.384594
H152	H	0.736520	0.115958	0.115406
Br153	Br	1.064925	-0.371418	-1.265466
Br154	Br	1.564925	0.128582	-0.765466
Br155	Br	0.739706	-0.347474	-0.348123
Br156	Br	1.239706	0.152526	0.151877
Br157	Br	0.789606	-0.798530	-1.135967
Br158	Br	1.289606	-0.298530	-0.635967
Br159	Br	0.891704	-0.640144	-1.265347
Br160	Br	1.391704	-0.140144	-0.765347
H161	H	0.813081	-0.762144	-0.907133
H162	H	1.313081	-0.262144	-0.407133
H163	H	0.891655	-0.640302	-0.807651
H164	H	1.391655	-0.140302	-0.307651
H165	H	0.592337	-0.628114	-0.627926
H166	H	1.092337	-0.128114	-0.127926
Br167	Br	0.573087	-0.347487	-0.348150
Br168	Br	1.073087	0.152513	0.151850
Br169	Br	0.383935	-0.347493	-0.348172
Br170	Br	0.883935	0.152507	0.151828
Br171	Br	0.384008	-0.664656	-0.664358
Br172	Br	0.884008	-0.164656	-0.164358
H173	H	1.064782	-0.806473	-0.371933
H174	H	1.564782	-0.306473	0.128067
H175	H	1.143389	-0.906003	-0.250181
H176	H	1.643389	-0.406003	0.249819
Br177	Br	1.166984	-1.134864	-0.213805
Br178	Br	1.666984	-0.634864	0.286195
