data_functionalizedCrystal
_audit_creation_method	'MofGen! by Chris Wilmer'
_symmetry_space_group_name_H-M	'P1'
_symmetry_Int_Tables_number	1
_symmetry_cell_setting	triclinic
loop_
_symmetry_equiv_pos_as_xyz
  x,y,z
_cell_length_a	19.188930
_cell_length_b	14.971486
_cell_length_c	14.048226
_cell_angle_alpha	89.995336
_cell_angle_beta	89.988446
_cell_angle_gamma	83.379455
loop_
_atom_site_label
_atom_site_type_symbol
_atom_site_fract_x
_atom_site_fract_y
_atom_site_fract_z
O1	O	0.090988	1.186466	-0.079132
O2	O	0.590988	1.686466	0.420868
O3	O	0.101884	0.926009	-0.079144
O4	O	0.601884	1.426009	0.420856
O5	O	-0.005196	1.063754	-0.079119
O6	O	0.494804	1.563754	0.420881
O7	O	0.198067	1.048721	-0.079157
O8	O	0.698067	1.548721	0.420843
O9	O	-0.005202	1.063737	0.079202
O10	O	0.494798	1.563737	0.579202
O11	O	0.101878	0.925992	0.079177
O12	O	0.601878	1.425992	0.579177
O13	O	0.090982	1.186450	0.079189
O14	O	0.590982	1.686450	0.579189
Zn15	Zn	0.096429	1.056218	0.104320
Zn16	Zn	0.596429	1.556218	0.604320
Zn17	Zn	0.096437	1.056240	-0.104275
Zn18	Zn	0.596437	1.556240	0.395725
O19	O	0.198061	1.048705	0.079164
O20	O	0.698061	1.548705	0.579164
C21	C	0.101393	0.892678	0.000015
C22	C	0.601393	1.392678	0.500015
C23	C	0.099933	0.793389	0.000012
C24	C	0.599933	1.293389	0.500012
C25	C	-0.031211	1.063259	0.000044
C26	C	0.468789	1.563259	0.500044
C27	C	-0.108721	1.061797	0.000052
C28	C	0.391279	1.561797	0.500052
C29	C	0.091472	1.219780	0.000028
C30	C	0.591472	1.719780	0.500028
C31	C	0.092932	1.319070	0.000025
C32	C	0.592932	1.819070	0.500025
C33	C	-0.153384	1.142622	0.000061
C34	C	0.346616	1.642622	0.500061
C35	C	-0.226213	1.141249	0.000045
C36	C	0.273787	1.641249	0.500045
C37	C	-0.254374	1.059047	0.000041
C38	C	0.245626	1.559047	0.500041
C39	C	-0.209700	0.978212	0.000027
C40	C	0.290300	1.478212	0.500027
C41	C	-0.136873	0.979587	0.000033
C42	C	0.363127	1.479587	0.500033
N43	N	-0.362583	0.996208	0.053918
N44	N	0.137417	1.496208	0.553918
N45	N	-0.431766	0.994907	0.053914
N46	N	0.068234	1.494907	0.553914
C47	C	-0.473796	1.054899	0.000021
C48	C	0.026204	1.554899	0.500021
N49	N	-0.444031	1.116254	-0.053856
N50	N	0.055969	1.616254	0.446144
N51	N	-0.374842	1.117558	-0.053848
N52	N	0.125158	1.617558	0.446152
C53	C	-0.333341	1.057547	0.000034
C54	C	0.166659	1.557547	0.500034
C55	C	-0.597429	1.134240	0.000012
C56	C	-0.097429	1.634240	0.500012
C57	C	-0.670258	1.132864	-0.000009
C58	C	-0.170258	1.632864	0.499991
C59	C	-0.653744	0.969825	-0.000018
C60	C	-0.153744	1.469825	0.499982
C61	C	-0.580916	0.971203	-0.000006
C62	C	-0.080916	1.471203	0.499994
C63	C	-0.552763	1.053413	0.000013
C64	C	-0.052763	1.553413	0.500013
C65	C	0.224077	1.049200	-0.000001
C66	C	0.724077	1.549200	0.499999
C67	C	0.301586	1.050661	-0.000015
C68	C	0.801586	1.550661	0.499985
N69	N	0.096422	1.056210	0.246681
N70	N	0.596422	1.556210	0.746681
C71	C	0.030026	1.376627	0.000034
C72	C	0.530026	1.876627	0.500034
C73	C	0.031402	1.469919	0.000037
C74	C	0.531402	1.969919	0.500037
C75	C	0.095685	1.505652	0.000025
C76	C	0.595685	2.005652	0.500025
C77	C	0.158597	1.448087	0.000019
C78	C	0.658597	1.948087	0.500019
C79	C	0.157220	1.354797	0.000023
C80	C	0.657220	1.854797	0.500023
C81	C	0.161462	1.642535	0.000009
C82	C	0.661462	2.142535	0.500009
C83	C	0.162839	1.735831	0.000003
C84	C	0.662839	2.235831	0.500003
C85	C	0.035645	1.757657	0.000023
C86	C	0.535645	2.257657	0.500023
C87	C	0.034268	1.664367	0.000027
C88	C	0.534268	2.164367	0.500027
C89	C	0.097179	1.606808	0.000019
C90	C	0.597179	2.106808	0.500019
N91	N	0.096437	1.056256	-0.246636
N92	N	0.596437	1.556256	0.253364
C93	C	0.049027	1.117223	0.296510
C94	C	0.549027	1.617223	0.796510
C95	C	0.049027	1.117229	0.396168
C96	C	0.549027	1.617229	0.896168
C97	C	0.096426	1.056226	0.445994
C98	C	0.596426	1.556226	0.945994
C99	C	0.143823	0.995207	0.396158
C100	C	0.643823	1.495207	0.896158
C101	C	0.143819	0.995197	0.296503
C102	C	0.643819	1.495197	0.796503
C103	C	0.143828	0.995233	0.603873
C104	C	0.643828	1.495233	1.103873
C105	C	0.143833	0.995243	0.703535
C106	C	0.643833	1.495243	1.203535
C107	C	0.049035	1.117264	0.703538
C108	C	0.549035	1.617264	1.203538
C109	C	0.049032	1.117255	0.603882
C110	C	0.549032	1.617255	1.103882
C111	C	0.096430	1.056236	0.554053
C112	C	0.596430	1.556236	1.054053
H113	H	-0.130467	1.209564	0.000073
H114	H	0.369533	1.709564	0.500073
C115	C	-0.275352	1.230159	0.000061
C116	C	0.224648	1.730159	0.500061
H117	H	-0.248154	1.279316	0.000079
H118	H	0.251846	1.779316	0.500079
H119	H	-0.304098	1.233023	-0.055148
H120	H	0.195902	1.733023	0.444852
H121	H	-0.304110	1.232994	0.055280
H122	H	0.195890	1.732994	0.555280
H123	H	0.010434	1.166909	0.436738
H124	H	0.510434	1.666909	0.936738
H125	H	0.010433	1.166902	0.255948
H126	H	0.510433	1.666902	0.755948
H127	H	-0.100507	0.913768	0.000027
H128	H	0.399493	1.413768	0.500027
C129	C	-0.003106	1.184355	0.549074
C130	C	0.496894	1.684355	1.049074
H131	H	-0.031339	1.220691	0.593021
H132	H	0.468661	1.720691	1.093021
H133	H	0.022058	1.221480	0.510179
H134	H	0.522058	1.721480	1.010179
H135	H	-0.032214	1.152284	0.510218
H136	H	0.467786	1.652284	1.010218
C137	C	0.195925	0.928085	0.758343
C138	C	0.695925	1.428085	1.258343
H139	H	0.224135	0.891719	0.714396
H140	H	0.724135	1.391719	1.214396
H141	H	0.225052	0.960091	0.797233
H142	H	0.725052	1.460091	1.297233
H143	H	0.170711	0.890984	0.797205
H144	H	0.670711	1.390984	1.297205
H145	H	-0.018077	1.635277	0.000030
H146	H	0.481923	2.135277	0.500030
H147	H	0.212691	1.595672	0.000010
H148	H	0.712691	2.095672	0.500010
H149	H	0.010442	1.166947	0.744114
H150	H	0.510442	1.666947	1.244114
C151	C	-0.033557	1.820967	0.000035
C152	C	0.466443	2.320967	0.500035
H153	H	-0.023532	1.881645	0.000042
H154	H	0.476468	2.381645	0.500042
H155	H	-0.059908	1.810166	-0.055172
H156	H	0.440092	2.310166	0.444828
H157	H	-0.059916	1.810158	0.055255
H158	H	0.440084	2.310158	0.555255
H159	H	0.182423	0.945542	0.563305
H160	H	0.682423	1.445542	1.063305
C161	C	0.195941	0.928077	0.450961
C162	C	0.695941	1.428077	0.950961
H163	H	0.224157	0.891725	0.407008
H164	H	0.724157	1.391725	0.907008
H165	H	0.225058	0.960110	0.489835
H166	H	0.725058	1.460110	0.989835
H167	H	0.170752	0.890958	0.489837
H168	H	0.670752	1.390958	0.989837
H169	H	0.210937	1.477188	0.000015
H170	H	0.710937	1.977188	0.500015
H171	H	-0.022321	1.347542	0.000038
H172	H	0.477679	1.847542	0.500038
H173	H	0.182413	0.945513	0.255933
H174	H	0.682413	1.445513	0.755933
H175	H	0.208444	1.307933	0.000019
H176	H	0.708444	1.807933	0.500019
H177	H	-0.706623	1.198683	-0.000008
H178	H	-0.206623	1.698683	0.499992
H179	H	-0.232634	0.911283	0.000022
H180	H	0.267366	1.411283	0.500022
H181	H	0.215184	1.764921	0.000012
H182	H	0.715184	2.264921	0.500012
H183	H	-0.676672	0.902894	-0.000026
H184	H	-0.176672	1.402894	0.499974
C185	C	-0.566457	1.224665	0.000022
C186	C	-0.066457	1.724665	0.500022
H187	H	-0.603491	1.272607	0.000011
H188	H	-0.103491	1.772607	0.500011
H189	H	-0.538403	1.228586	0.055237
H190	H	-0.038403	1.728586	0.555237
H191	H	-0.538379	1.228594	-0.055191
H192	H	-0.038379	1.728594	0.444809
C193	C	-0.037795	1.533229	0.000045
C194	C	0.462205	2.033229	0.500045
H195	H	-0.076276	1.498587	0.000041
H196	H	0.423724	1.998587	0.500041
H197	H	-0.039907	1.570072	0.055255
H198	H	0.460093	2.070072	0.555255
H199	H	-0.039897	1.570078	-0.055172
H200	H	0.460103	2.070078	0.444828
H201	H	-0.544550	0.905387	-0.000008
H202	H	-0.044550	1.405387	0.499992
