data_functionalizedCrystal
_audit_creation_method	'MofGen! by Chris Wilmer'
_symmetry_space_group_name_H-M	'P1'
_symmetry_Int_Tables_number	1
_symmetry_cell_setting	triclinic
loop_
_symmetry_equiv_pos_as_xyz
  x,y,z
_cell_length_a	16.120530
_cell_length_b	18.101395
_cell_length_c	16.120256
_cell_angle_alpha	92.874436
_cell_angle_beta	90.128265
_cell_angle_gamma	87.126665
loop_
_atom_site_label
_atom_site_type_symbol
_atom_site_fract_x
_atom_site_fract_y
_atom_site_fract_z
Zn1	Zn	1.247384	-0.375205	-0.534567
Zn2	Zn	1.254317	-0.493093	-0.395509
Zn3	Zn	1.115376	-0.362686	-0.388485
Zn4	Zn	1.108274	-0.492415	-0.527479
O5	O	1.181338	-0.430850	-0.461510
O6	O	1.364669	-0.396365	-0.522027
O7	O	1.241760	-0.470839	-0.278212
O8	O	1.132958	-0.260718	-0.407890
O9	O	1.369763	-0.482978	-0.419862
O10	O	1.229944	-0.269915	-0.515216
O11	O	1.139681	-0.375030	-0.273051
O12	O	0.998069	-0.374372	-0.401017
O13	O	1.120853	-0.481821	-0.644785
O14	O	0.992850	-0.469683	-0.503135
O15	O	1.223057	-0.395708	-0.649993
O16	O	1.234873	-0.596632	-0.412989
O17	O	1.127576	-0.596133	-0.509947
C18	C	0.965287	-0.420596	-0.450545
C19	C	0.872859	-0.416229	-0.445874
C20	C	0.703630	-0.408237	-0.437352
C21	C	0.659882	-0.453519	-0.485729
C22	C	0.565718	-0.449073	-0.480988
C23	C	0.797803	-0.412683	-0.442092
C24	C	1.181228	-0.623254	-0.461480
C25	C	1.181255	-0.705570	-0.461499
C26	C	1.181435	-1.004672	-0.461553
C27	C	1.114068	-0.973078	-0.522723
C28	C	1.113773	-0.887437	-0.522506
C29	C	1.181346	-0.856284	-0.461527
C30	C	1.162064	-0.882558	-0.372687
C31	C	1.161631	-0.968200	-0.373052
C32	C	1.268265	-0.978145	-0.488458
C33	C	1.267650	-0.892552	-0.490354
C34	C	1.181297	-0.772421	-0.461507
C35	C	1.181483	-1.088534	-0.461567
C36	C	1.398232	-0.441144	-0.472519
C37	C	1.490659	-0.445530	-0.477210
C38	C	1.170389	-0.440085	-0.678405
C39	C	1.165723	-0.444021	-0.770833
C40	C	1.181470	-0.237696	-0.461560
C41	C	1.181526	-0.155385	-0.461581
C42	C	1.205667	-0.410307	-0.983817
C43	C	1.157177	-0.451174	-0.940053
C44	C	1.161934	-0.447193	-0.845890
C45	C	1.200912	-0.414287	-1.077988
C46	C	1.192292	-0.421599	-0.245461
C47	C	1.197118	-0.417462	-0.153042
H48	H	0.693148	-0.495625	-0.530708
H49	H	1.049324	-0.863287	-0.504333
C50	C	1.027519	-0.997232	-0.498454
C51	C	0.950686	-0.973143	-0.549234
C52	C	0.864138	-0.997297	-0.524961
C53	C	0.854423	-1.045539	-0.449909
C54	C	0.931257	-1.069630	-0.399125
C55	C	1.017805	-1.045477	-0.423397
H56	H	0.957876	-0.937429	-0.604796
H57	H	0.807260	-0.979463	-0.562555
H58	H	0.790355	-1.063419	-0.431941
H59	H	0.924068	-1.105345	-0.343562
H60	H	1.074684	-1.063311	-0.385803
C61	C	1.225353	-0.996187	-0.309051
C62	C	1.196743	-1.040400	-0.236065
C63	C	1.260458	-1.068385	-0.172061
C64	C	1.352782	-1.052158	-0.181043
C65	C	1.381396	-1.007943	-0.254033
C66	C	1.317682	-0.979958	-0.318037
H67	H	1.128396	-1.052415	-0.229412
H68	H	1.239275	-1.101116	-0.118029
H69	H	1.399947	-1.072874	-0.133664
H70	H	1.449744	-0.995928	-0.260685
H71	H	1.338865	-0.947227	-0.372069
H72	H	1.112087	-0.489148	-0.973304
C73	C	0.658698	-0.351361	-0.376586
C74	C	0.563166	-0.346946	-0.371870
C75	C	0.518222	-0.290074	-0.311102
C76	C	0.568809	-0.237617	-0.255050
C77	C	0.664346	-0.242030	-0.259765
C78	C	0.709290	-0.298902	-0.320533
H79	H	0.525714	-0.385780	-0.413364
H80	H	0.447499	-0.286808	-0.307612
H81	H	0.535539	-0.195516	-0.210066
H82	H	0.701799	-0.203196	-0.218270
H83	H	0.780013	-0.302169	-0.324022
C84	C	1.226524	-0.855082	-0.309167
C85	C	1.297591	-0.808357	-0.337295
C86	C	1.362051	-0.780880	-0.273777
C87	C	1.355445	-0.800129	-0.182130
C88	C	1.284375	-0.846857	-0.153998
C89	C	1.219914	-0.874334	-0.217517
H90	H	1.302484	-0.794106	-0.405141
H91	H	1.414662	-0.746289	-0.294603
H92	H	1.403163	-0.779789	-0.135110
H93	H	1.279482	-0.861108	-0.086152
H94	H	1.167304	-0.908925	-0.196691
C95	C	1.266580	-0.359010	-0.938903
C96	C	1.233554	-0.296687	-0.877323
C97	C	1.294468	-0.245395	-0.832397
C98	C	1.388409	-0.256425	-0.849051
C99	C	1.421440	-0.318751	-0.910634
C100	C	1.360525	-0.370043	-0.955560
H101	H	1.164009	-0.288519	-0.864992
H102	H	1.270017	-0.199257	-0.786809
H103	H	1.433502	-0.218456	-0.815794
H104	H	1.490984	-0.326919	-0.922965
H105	H	1.384977	-0.416181	-1.001148
C106	C	1.129320	-0.863681	-0.611317
C107	C	1.142096	-0.922688	-0.682933
C108	C	1.157615	-0.898936	-0.771752
C109	C	1.160360	-0.816178	-0.788956
C110	C	1.147585	-0.757165	-0.717338
C111	C	1.132065	-0.780917	-0.628519
H112	H	1.140064	-0.983956	-0.670199
H113	H	1.167073	-0.942622	-0.824768
H114	H	1.171849	-0.798595	-0.854705
H115	H	1.149616	-0.695897	-0.730072
H116	H	1.122607	-0.737232	-0.575503
C117	C	1.129453	-1.005540	-0.611806
C118	C	1.203374	-1.061137	-0.630101
C119	C	1.218764	-1.093603	-0.719187
C120	C	1.160233	-1.070471	-0.789978
C121	C	1.086307	-1.014871	-0.771685
C122	C	1.070917	-0.982406	-0.682599
H123	H	1.246707	-1.078264	-0.577695
H124	H	1.273490	-1.134762	-0.732728
H125	H	1.171626	-1.094504	-0.855925
H126	H	1.042974	-0.997745	-0.824091
H127	H	1.016192	-0.941247	-0.669058
H128	H	1.099423	-0.857330	-0.350107
C129	C	1.287405	-0.869917	-0.578708
C130	C	1.300608	-0.929631	-0.649532
C131	C	1.320357	-0.906992	-0.737887
C132	C	1.326903	-0.824639	-0.755419
C133	C	1.313700	-0.764919	-0.684593
C134	C	1.293951	-0.787558	-0.596238
H135	H	1.295762	-0.990599	-0.636556
H136	H	1.330131	-0.951201	-0.790317
H137	H	1.341522	-0.807880	-0.820824
H138	H	1.318546	-0.703951	-0.697569
H139	H	1.284178	-0.743349	-0.543808
H140	H	1.098292	-0.984382	-0.350778
H141	H	1.286710	-1.003408	-0.552370
H142	H	1.320141	-0.871660	-0.449403
H143	H	1.318402	-0.998649	-0.443960
