data_functionalizedCrystal
_audit_creation_method	'MofGen! by Chris Wilmer'
_symmetry_space_group_name_H-M	'P1'
_symmetry_Int_Tables_number	1
_symmetry_cell_setting	triclinic
loop_
_symmetry_equiv_pos_as_xyz
  x,y,z
_cell_length_a	19.288864
_cell_length_b	27.732048
_cell_length_c	17.766277
_cell_angle_alpha	89.988664
_cell_angle_beta	89.976791
_cell_angle_gamma	82.889449
loop_
_atom_site_label
_atom_site_type_symbol
_atom_site_fract_x
_atom_site_fract_y
_atom_site_fract_z
O1	O	0.920977	0.060300	-0.062844
O2	O	0.718666	0.068434	-0.062793
O3	O	0.826105	-0.006011	-0.062806
O4	O	0.813538	0.134745	-0.062831
O5	O	0.826086	-0.006014	0.062383
O6	O	0.718647	0.068430	0.062395
O7	O	0.920958	0.060296	0.062345
Cu8	Cu	0.819801	0.064363	0.073801
Cu9	Cu	0.819823	0.064367	-0.074249
O10	O	0.813519	0.134741	0.062357
C11	C	0.692781	0.068171	-0.000192
C12	C	0.615683	0.067385	-0.000172
C13	C	0.570714	0.111066	-0.000192
C14	C	0.498271	0.110328	-0.000200
C15	C	0.470801	0.065906	-0.000204
C16	C	0.515780	0.022219	-0.000180
C17	C	0.588220	0.022959	-0.000164
C18	C	0.362763	0.030987	-0.044082
C19	C	0.290324	0.030250	-0.044102
C20	C	0.247370	0.063624	-0.000249
C21	C	0.276863	0.097744	0.043615
C22	C	0.349304	0.098483	0.043631
C23	C	0.392252	0.065099	-0.000220
C24	C	0.123850	0.106507	-0.000277
C25	C	0.051406	0.105767	-0.000280
C26	C	0.068916	0.017658	-0.000267
C27	C	0.141358	0.018399	-0.000256
C28	C	0.168820	0.062825	-0.000264
C29	C	0.825831	-0.024020	-0.000209
C30	C	0.825037	-0.077678	-0.000203
C31	C	0.883526	-0.416316	-0.000256
C32	C	0.880579	-0.617985	-0.000266
O33	O	0.934063	-0.649079	-0.000312
N34	N	0.816872	-0.637301	-0.000249
C35	C	0.753897	-0.606196	-0.000235
O36	O	0.699643	-0.627253	-0.000229
C37	C	0.756845	-0.404529	-0.000231
C38	C	0.820556	-0.385216	-0.000240
C39	C	0.947232	-0.397002	-0.000266
C40	C	0.947968	-0.346588	-0.000259
C41	C	0.884998	-0.315488	-0.000243
C42	C	0.821292	-0.334801	-0.000233
C43	C	0.693871	-0.373425	-0.000222
C44	C	0.694614	-0.323006	-0.000223
C45	C	0.758325	-0.303693	-0.000232
C46	C	0.759059	-0.253287	-0.000210
N47	N	0.822766	-0.233971	-0.000227
C48	C	0.885735	-0.265071	-0.000243
C49	C	0.752354	-0.712075	-0.000236
C50	C	0.751617	-0.762492	-0.000236
C51	C	0.878299	-0.774276	-0.000268
C52	C	0.879035	-0.723859	-0.000263
C53	C	0.816061	-0.692759	-0.000253
C54	C	0.887276	-0.159197	-0.000229
C55	C	0.888007	-0.108778	-0.000219
C56	C	0.761325	-0.096998	-0.000191
C57	C	0.760595	-0.147412	-0.000197
C58	C	0.823576	-0.178511	-0.000218
O59	O	0.705603	-0.222164	-0.000172
O60	O	0.939982	-0.244005	-0.000266
C61	C	0.882790	-0.466730	-0.000263
C62	C	0.819084	-0.486044	-0.000253
C63	C	0.756114	-0.454943	-0.000236
C64	C	0.818347	-0.536461	-0.000253
C65	C	0.881317	-0.567561	-0.000269
C66	C	0.945023	-0.548245	-0.000285
C67	C	0.945760	-0.497831	-0.000279
C68	C	0.692407	-0.474260	-0.000220
C69	C	0.691676	-0.524674	-0.000226
C70	C	0.754646	-0.555775	-0.000242
C71	C	0.946842	0.060560	-0.000258
C72	C	1.023941	0.061345	-0.000282
C73	C	0.813792	0.152751	-0.000241
C74	C	0.814587	0.206408	-0.000252
N75	N	0.819790	0.064359	0.177931
N76	N	0.819839	0.064367	-0.178379
C77	C	0.867380	0.031411	0.217313
C78	C	0.867384	0.031409	0.296114
C79	C	0.819805	0.064363	0.335532
C80	C	0.772207	0.097314	0.296141
C81	C	0.772200	0.097312	0.217341
C82	C	0.810231	0.108406	0.460363
C83	C	0.810244	0.108408	0.539162
C84	C	0.819823	0.064369	0.578578
C85	C	0.829406	0.020325	0.539186
C86	C	0.829399	0.020323	0.460385
C87	C	0.819807	0.064369	0.420977
C88	C	0.867420	0.031416	0.703405
C89	C	0.867419	0.031413	0.782209
C90	C	0.772245	0.097322	0.782234
C91	C	0.772243	0.097321	0.703432
C92	C	0.819834	0.064368	0.664023
H93	H	0.593069	0.147241	-0.000200
N94	N	0.723597	0.130975	0.336390
N95	N	0.659405	0.130423	0.327624
H96	H	0.625069	0.154195	0.356049
H97	H	0.146211	0.142682	-0.000272
N98	N	0.626598	-0.544407	-0.000208
N99	N	0.612038	-0.571234	0.052558
H100	H	0.566079	-0.585170	0.052566
N101	N	0.915993	-0.002241	0.336369
N102	N	0.894294	-0.032205	0.380373
H103	H	0.928626	-0.055968	0.408804
N104	N	0.723580	0.130971	0.177121
N105	N	0.681097	0.160390	0.212319
H106	H	0.646758	0.184163	0.183914
N107	N	0.628792	-0.393146	-0.000235
N108	N	0.614257	-0.419951	-0.053011
H109	H	0.568291	-0.433879	-0.053023
H110	H	0.997640	-0.482111	-0.000286
N111	N	0.634159	-0.021662	-0.000133
N112	N	0.631905	-0.051241	0.052644
H113	H	0.664351	-0.082755	0.052667
N114	N	0.686537	-0.782216	-0.000233
N115	N	0.671998	-0.809024	-0.053004
H116	H	0.626033	-0.822953	-0.053007
N117	N	0.187307	-0.026216	-0.000252
N118	N	0.251984	-0.025550	-0.000240
H119	H	0.284437	-0.057061	-0.000236
H120	H	0.461651	0.145899	-0.000214
N121	N	0.630284	-0.291240	-0.000195
N122	N	0.616548	-0.261802	0.052584
H123	H	0.571115	-0.239368	0.052606
N124	N	0.800464	0.153397	0.420111
N125	N	0.842480	0.183822	0.428880
H126	H	0.835586	0.215596	0.400451
N127	N	0.487734	-0.023160	-0.000193
N128	N	0.527897	-0.062160	-0.000179
H129	H	0.508092	-0.094211	-0.000186
H130	H	0.014793	0.141339	-0.000292
N131	N	0.406640	-0.003112	-0.088867
N132	N	0.407387	-0.047687	-0.077806
H133	H	0.438376	-0.071770	-0.109432
H134	H	0.641128	-0.448942	-0.000208
H135	H	0.837199	-0.015539	0.428315
N136	N	0.953095	-0.089059	-0.000222
N137	N	1.009312	-0.116837	-0.000237
H138	H	1.055280	-0.102912	-0.000240
N139	N	0.839182	-0.024660	0.579448
N140	N	0.839174	-0.024654	0.649805
H141	H	0.846075	-0.056424	0.678245
N142	N	0.040879	-0.027723	-0.000262
N143	N	0.054808	-0.057138	0.052516
H144	H	0.035006	-0.089191	0.052524
H145	H	0.938562	-0.184513	-0.000249
H146	H	0.708716	-0.163138	-0.000169
N147	N	0.688022	-0.680311	-0.000234
N148	N	0.645537	-0.681994	-0.052992
H149	H	0.600102	-0.659562	-0.052989
H150	H	0.710057	-0.071667	-0.000175
H151	H	0.930914	-0.708138	-0.000271
H152	H	0.996296	-0.573576	-0.000295
H153	H	0.906129	0.004578	0.185228
H154	H	0.373314	0.126263	0.079349
N155	N	0.260211	-0.004600	-0.088919
N156	N	0.298568	-0.034399	-0.128064
H157	H	0.277303	-0.059012	-0.159718
N158	N	0.232984	0.131846	0.088388
N159	N	0.168305	0.131188	0.088361
H160	H	0.137311	0.155276	0.119972
H161	H	0.999848	-0.330868	-0.000270
N162	N	0.915948	-0.002306	0.663156
N163	N	0.958375	-0.031766	0.698332
H164	H	0.992616	-0.055605	0.669908
N165	N	1.011566	-0.428759	-0.000288
N166	N	1.068436	-0.411498	-0.000299
H167	H	1.113877	-0.433923	-0.000310
H168	H	0.929571	-0.799607	-0.000281
N169	N	0.916032	-0.002252	0.822427
N170	N	0.958515	-0.031670	0.787227
H171	H	0.992849	-0.055447	0.815631
N172	N	0.723633	0.130977	0.822486
N173	N	0.680687	0.115716	0.866482
H174	H	0.646350	0.139484	0.894913
N175	N	0.723627	0.130980	0.663212
N176	N	0.681146	0.160400	0.698411
H177	H	0.646806	0.184173	0.670007
H178	H	0.802445	0.144271	0.571229
