data_functionalizedCrystal
_audit_creation_method	'MofGen! by Chris Wilmer'
_symmetry_space_group_name_H-M	'P1'
_symmetry_Int_Tables_number	1
_symmetry_cell_setting	triclinic
loop_
_symmetry_equiv_pos_as_xyz
  x,y,z
_cell_length_a	27.732064
_cell_length_b	27.731996
_cell_length_c	12.503572
_cell_angle_alpha	93.487301
_cell_angle_beta	86.518485
_cell_angle_gamma	82.635407
loop_
_atom_site_label
_atom_site_type_symbol
_atom_site_fract_x
_atom_site_fract_y
_atom_site_fract_z
O1	O	0.643714	0.054745	-0.089141
O2	O	0.502922	0.063481	-0.089187
O3	O	0.577703	-0.011284	-0.089140
O4	O	0.568933	0.129511	-0.089189
O5	O	0.572079	-0.005652	0.089499
O6	O	0.497298	0.069113	0.089451
O7	O	0.638090	0.060377	0.089497
Cu8	Cu	0.567180	0.065259	0.105785
Cu9	Cu	0.573832	0.058599	-0.105475
O10	O	0.563309	0.135143	0.089449
C11	C	0.482103	0.066112	0.000126
C12	C	0.428449	0.065556	0.000110
C13	C	0.574711	-0.026476	0.000183
C14	C	0.574168	-0.080132	0.000194
C15	C	0.051383	0.017590	0.000188
C16	C	0.253044	0.019635	0.000159
O17	O	0.284302	-0.017585	0.000212
N18	N	0.272164	0.063970	0.000139
C19	C	0.240865	0.107797	0.000133
O20	O	0.261754	0.145553	0.000126
C21	C	0.039205	0.105751	0.000169
C22	C	0.020088	0.061413	0.000178
C23	C	0.032266	-0.026745	0.000198
C24	C	-0.018146	-0.027256	0.000200
C25	C	-0.049441	0.016568	0.000190
C26	C	-0.030324	0.060902	0.000180
C27	C	0.007906	0.149578	0.000171
C28	C	-0.042511	0.149062	0.000182
C29	C	-0.061628	0.104724	0.000192
C30	C	-0.112031	0.104214	0.000172
N31	N	-0.131151	0.059879	0.000192
C32	C	-0.099856	0.016056	0.000201
C33	C	0.346740	0.108867	0.000111
C34	C	0.397154	0.109379	0.000100
C35	C	0.409330	0.021217	0.000129
C36	C	0.358915	0.020706	0.000132
C37	C	0.327620	0.064533	0.000132
C38	C	-0.205725	0.014986	0.000203
C39	C	-0.256142	0.014479	0.000200
C40	C	-0.268314	0.102640	0.000177
C41	C	-0.217901	0.103148	0.000175
C42	C	-0.186607	0.059317	0.000191
O43	O	-0.143318	0.141415	0.000131
O44	O	-0.120755	-0.021694	0.000232
C45	C	0.101795	0.018101	0.000186
C46	C	0.120912	0.062435	0.000176
C47	C	0.089617	0.106258	0.000166
C48	C	0.171327	0.062947	0.000165
C49	C	0.202622	0.019123	0.000174
C50	C	0.183502	-0.025211	0.000194
C51	C	0.133090	-0.025723	0.000196
C52	C	0.108737	0.150593	0.000146
C53	C	0.159150	0.151101	0.000144
C54	C	0.190445	0.107277	0.000153
C55	C	0.573820	-0.415920	-0.097235
C56	C	0.571760	-0.617579	-0.097255
O57	O	0.574080	-0.646260	-0.180070
N58	N	0.568438	-0.639726	0.000120
C59	C	0.565628	-0.611455	0.097506
O60	O	0.562751	-0.634919	0.180329
C61	C	0.567685	-0.409796	0.097525
C62	C	0.571012	-0.387653	0.000144
C63	C	0.577146	-0.393776	-0.194609
C64	C	0.577664	-0.343364	-0.194603
C65	C	0.574856	-0.315097	-0.097224
C66	C	0.571530	-0.337241	0.000150
C67	C	0.564872	-0.381525	0.194910
C68	C	0.565385	-0.331108	0.194906
C69	C	0.568712	-0.308964	0.097525
C70	C	0.569239	-0.258562	0.097534
N71	N	0.572561	-0.236415	0.000160
C72	C	0.575369	-0.264683	-0.097219
C73	C	0.564550	-0.717329	0.097490
C74	C	0.564036	-0.767743	0.097485
C75	C	0.570167	-0.773864	-0.097276
C76	C	0.570684	-0.723449	-0.097271
C77	C	0.567871	-0.695181	0.000115
C78	C	0.576457	-0.158815	-0.097200
C79	C	0.576976	-0.108399	-0.097185
C80	C	0.570843	-0.102283	0.097576
C81	C	0.570326	-0.152694	0.097562
C82	C	0.573131	-0.180959	0.000166
O83	O	0.566915	-0.229850	0.180306
O84	O	0.578236	-0.241208	-0.180030
C85	C	0.573303	-0.466331	-0.097241
C86	C	0.569977	-0.488475	0.000132
C87	C	0.567169	-0.460208	0.097511
C88	C	0.569463	-0.538890	0.000128
C89	C	0.572272	-0.567157	-0.097251
C90	C	0.575593	-0.545010	-0.194626
C91	C	0.576111	-0.494599	-0.194620
C92	C	0.563847	-0.482355	0.194886
C93	C	0.563330	-0.532767	0.194872
C94	C	0.566138	-0.561034	0.097493
C95	C	0.658909	0.057746	0.000181
C96	C	0.712563	0.058302	0.000191
C97	C	0.566301	0.150334	0.000124
C98	C	0.566845	0.203990	0.000106
N99	N	0.562506	0.069944	0.254374
N100	N	0.578510	0.053911	-0.254065
C101	C	0.555630	0.076839	0.473485
C102	C	0.585385	0.047017	0.526831
C103	C	0.581559	0.050854	0.648752
C104	C	0.559455	0.073003	0.351553
H105	H	-0.271703	-0.021628	0.000205
O106	O	0.561890	-0.689831	0.192027
C107	C	0.603889	-0.666284	0.197885
H108	H	0.620587	-0.663314	0.113342
H109	H	0.631506	-0.688259	0.245937
C110	C	0.569397	-0.618537	0.357412
C111	C	0.589903	-0.614886	0.253575
H112	H	0.560771	-0.586834	0.391769
H113	H	0.541101	-0.634402	0.353469
H114	H	0.592414	-0.636852	0.397442
H115	H	0.566884	-0.596577	0.213543
H116	H	0.618195	-0.599017	0.257513
O117	O	-0.199278	0.146192	0.000309
C118	C	-0.173404	0.152045	0.092850
H119	H	-0.161530	0.114821	0.123697
H120	H	-0.197880	0.175636	0.157629
C121	C	-0.142700	0.222575	0.026874
C122	C	-0.128113	0.176855	0.064756
H123	H	-0.114763	0.237881	0.009547
H124	H	-0.160133	0.218633	-0.035471
H125	H	-0.163097	0.242228	0.080863
H126	H	-0.107721	0.157201	0.010763
H127	H	-0.110675	0.180794	0.127092
H128	H	0.563088	-0.308094	0.274211
H129	H	0.573392	-0.705423	-0.176567
H130	H	0.527284	0.105249	0.519375
H131	H	-0.033706	-0.063360	0.000212
H132	H	0.057742	-0.062433	0.000209
H133	H	0.578820	-0.476574	-0.273918
O134	O	0.026386	0.192693	0.000217
C135	C	-0.012055	0.231255	0.000193
H136	H	-0.047266	0.219023	0.034012
H137	H	-0.016600	0.242059	-0.085508
C138	C	0.042903	0.290331	0.028715
C139	C	-0.000342	0.275309	0.070260
H140	H	0.050128	0.317507	0.071931
H141	H	0.068802	0.264351	0.028727
H142	H	0.039110	0.299331	-0.042702
H143	H	0.003453	0.266304	0.141670
H144	H	-0.026241	0.301289	0.070262
O145	O	0.578231	-0.572485	-0.289190
C146	C	0.536239	-0.596048	-0.294993
H147	H	0.505387	-0.575063	-0.239745
H148	H	0.544491	-0.634738	-0.268810
C149	C	0.558790	-0.623642	-0.479193
C150	C	0.520896	-0.597866	-0.411342
H151	H	0.549327	-0.624766	-0.550962
H152	H	0.587082	-0.607769	-0.475282
H153	H	0.565663	-0.655882	-0.457360
H154	H	0.514028	-0.565625	-0.433167
H155	H	0.492603	-0.613733	-0.415259
H156	H	0.613733	0.018605	0.480937
H157	H	0.117531	-0.061827	0.000204
O158	O	0.580789	-0.321890	-0.289258
C159	C	0.540642	-0.330331	-0.348448
H160	H	0.509451	-0.338334	-0.291414
H161	H	0.551715	-0.362835	-0.409107
C162	C	0.562272	-0.275001	-0.478253
C163	C	0.523961	-0.284827	-0.408203
H164	H	0.551983	-0.246933	-0.515118
H165	H	0.589321	-0.269315	-0.438379
H166	H	0.571496	-0.302091	-0.528793
H167	H	0.514742	-0.257739	-0.357657
H168	H	0.496910	-0.290507	-0.448070
H169	H	-0.180251	-0.020705	0.000216
H170	H	-0.067990	0.184752	0.000187
H171	H	0.568559	-0.079259	0.176859
H172	H	0.434820	-0.014466	0.000132
O173	O	0.340426	-0.022404	0.000195
C174	C	0.378865	-0.060972	0.000168
H175	H	0.411955	-0.046615	0.033975
H176	H	0.388788	-0.077170	-0.085532
C177	C	0.322110	-0.118246	0.028718
C178	C	0.362750	-0.100614	0.070248
H179	H	0.312169	-0.142700	0.071941
H180	H	0.296212	-0.092263	0.028732
H181	H	0.330385	-0.131741	-0.042699
H182	H	0.354473	-0.087113	0.141657
H183	H	0.388646	-0.126595	0.070247
O184	O	0.567075	-0.174128	0.192251
C185	C	0.564723	-0.138367	0.278201
H186	H	0.550685	-0.101211	0.249648
H187	H	0.602629	-0.137431	0.308158
C188	C	0.547151	-0.196397	0.405259
C189	C	0.529906	-0.150761	0.370192
H190	H	0.525677	-0.204042	0.462006
H191	H	0.548738	-0.220490	0.347354
H192	H	0.578740	-0.195611	0.430215
H193	H	0.498321	-0.151549	0.345223
H194	H	0.528314	-0.126668	0.428094
H195	H	0.412715	0.145483	0.000078
H196	H	0.560625	-0.550792	0.274177
H197	H	0.561561	-0.459345	0.274185
H198	H	0.561335	-0.785769	0.176783
O199	O	0.316413	0.151486	0.000056
C200	C	0.344106	0.190722	0.000060
H201	H	0.382888	0.177091	-0.033761
H202	H	0.344908	0.207032	0.085755
C203	C	0.273249	0.246705	-0.028470
C204	C	0.320882	0.229963	-0.070018
H205	H	0.258923	0.270912	-0.071693
H206	H	0.254591	0.220271	-0.028469
H207	H	0.273924	0.260293	0.042942
H208	H	0.320206	0.216370	-0.141423
H209	H	0.339539	0.256395	-0.070033
H210	H	-0.293803	0.138320	0.000164
H211	H	0.572454	-0.796888	-0.176566
H212	H	0.208992	-0.060894	0.000196
O213	O	0.561613	-0.402947	0.289604
C214	C	0.559254	-0.367178	0.375540
H215	H	0.545215	-0.330026	0.346968
H216	H	0.597158	-0.366236	0.405506
C217	C	0.541679	-0.425197	0.502620
C218	C	0.524433	-0.379567	0.467529
H219	H	0.520202	-0.432840	0.559366
H220	H	0.543271	-0.449296	0.444724
H221	H	0.573266	-0.424406	0.527584
H222	H	0.492850	-0.380360	0.442553
H223	H	0.522836	-0.355468	0.525423
O224	O	0.177661	0.194201	-0.000013
C225	C	0.164549	0.217972	-0.092549
H226	H	0.130650	0.204088	-0.123395
H227	H	0.195804	0.210116	-0.157331
C228	C	0.195436	0.290358	-0.026567
C229	C	0.153798	0.273308	-0.064447
H230	H	0.188806	0.324492	-0.009235
H231	H	0.204271	0.274343	0.035775
H232	H	0.221478	0.283807	-0.080559
H233	H	0.127759	0.279854	-0.010451
H234	H	0.144958	0.289326	-0.126779
O235	O	0.580187	-0.086964	-0.191882
C236	C	0.582565	-0.122730	-0.277829
H237	H	0.565988	-0.155651	-0.249284
H238	H	0.622246	-0.134397	-0.307758
C239	C	0.574311	-0.061130	-0.404901
C240	C	0.553948	-0.101564	-0.369844
H241	H	0.556661	-0.048074	-0.461663
H242	H	0.572711	-0.037034	-0.346998
H243	H	0.607379	-0.070859	-0.429834
H244	H	0.520883	-0.091833	-0.344899
H245	H	0.555542	-0.125658	-0.427745
H246	H	0.578739	-0.181822	-0.176509
H247	H	0.083261	0.186280	0.000140
O248	O	0.579939	-0.421290	-0.289143
C249	C	0.621713	-0.456412	-0.294976
H250	H	0.632933	-0.463243	-0.210424
H251	H	0.652750	-0.442539	-0.343002
C252	C	0.596482	-0.495900	-0.454533
C253	C	0.610260	-0.504293	-0.350685
H254	H	0.589419	-0.525435	-0.488901
H255	H	0.568338	-0.472237	-0.450606
H256	H	0.622349	-0.484338	-0.494541
H257	H	0.584391	-0.515849	-0.310674
H258	H	0.638399	-0.527959	-0.354606
