data_functionalizedCrystal
_audit_creation_method	'MofGen! by Chris Wilmer'
_symmetry_space_group_name_H-M	'P1'
_symmetry_Int_Tables_number	1
_symmetry_cell_setting	triclinic
loop_
_symmetry_equiv_pos_as_xyz
  x,y,z
_cell_length_a	13.635800
_cell_length_b	19.453103
_cell_length_c	21.973640
_cell_angle_alpha	88.122905
_cell_angle_beta	119.903043
_cell_angle_gamma	78.290822
loop_
_atom_site_label
_atom_site_type_symbol
_atom_site_fract_x
_atom_site_fract_y
_atom_site_fract_z
V1	V	2.111706	-0.097932	0.219331
O2	O	2.107939	0.003935	0.214820
O3	O	2.082611	-0.193441	0.218154
O4	O	2.132297	-0.096764	0.314841
O5	O	2.057909	-0.093411	0.117463
V6	V	2.348351	-0.085707	0.207107
O7	O	2.253560	-0.124747	0.246144
O8	O	2.431596	-0.058892	0.180294
O9	O	2.265843	0.009801	0.208284
O10	O	2.410817	-0.187574	0.211618
O11	O	2.460846	-0.090228	0.308975
O12	O	2.216157	-0.086875	0.111597
V13	V	2.611706	-0.097932	0.219331
O14	O	2.607939	0.003935	0.214820
O15	O	2.582611	-0.193441	0.218154
O16	O	2.632297	-0.096764	0.314841
O17	O	2.557909	-0.093411	0.117463
V18	V	2.848351	-0.085707	0.207107
O19	O	2.753560	-0.124747	0.246144
O20	O	2.931596	-0.058892	0.180294
O21	O	2.765843	0.009801	0.208284
O22	O	2.910817	-0.187574	0.211618
O23	O	2.960846	-0.090228	0.308975
O24	O	2.716157	-0.086875	0.111597
C25	C	2.002472	-0.216713	0.214777
C26	C	2.019625	-0.294795	0.214451
C27	C	2.120218	-0.335062	0.217811
C28	C	2.136341	-0.408429	0.217512
C29	C	2.051854	-0.441525	0.213839
C30	C	1.951250	-0.401249	0.210484
C31	C	1.935136	-0.327884	0.210790
N32	N	1.977171	-0.547641	0.170553
N33	N	1.992484	-0.617334	0.170261
C34	C	2.100402	-0.662569	0.212919
N35	N	2.192437	-0.635476	0.255871
N36	N	2.177123	-0.565775	0.256160
C37	C	2.069318	-0.521076	0.213508
C38	C	2.218485	-0.782389	0.215955
C39	C	2.234608	-0.855759	0.215661
C40	C	2.049509	-0.848575	0.208625
C41	C	2.033394	-0.775209	0.208927
C42	C	2.117884	-0.742120	0.212589
C43	C	2.065849	-0.093391	0.338110
C44	C	2.123294	-0.093068	0.416193
C45	C	2.177652	0.033070	0.211659
C46	C	2.150120	0.111151	0.211989
C47	C	2.114274	-0.090250	0.088324
C48	C	2.046449	-0.090570	0.010241
C49	C	2.502472	-0.216713	0.214777
C50	C	2.519625	-0.294795	0.214451
C51	C	2.555360	-0.155093	0.983818
C52	C	2.501379	-0.155402	0.910452
C53	C	2.452386	-0.091197	0.863514
C54	C	2.457351	-0.026678	0.889948
C55	C	2.511321	-0.026370	0.963312
N56	N	2.409076	-0.045970	0.742936
N57	N	2.357810	-0.046266	0.673243
C58	C	2.289773	-0.092119	0.642470
N59	N	2.274956	-0.137675	0.684025
N60	N	2.326231	-0.137381	0.753724
C61	C	2.393861	-0.091523	0.783962
C62	C	2.226274	-0.156968	0.536493
C63	C	2.172285	-0.157274	0.463125
C64	C	2.128267	-0.028548	0.442622
C65	C	2.182246	-0.028244	0.515989
C66	C	2.231251	-0.092456	0.562921
C67	C	2.617761	-0.090253	1.088325
C68	C	2.560327	-0.090582	1.010244
C69	C	2.565849	-0.093391	0.338110
C70	C	2.623294	-0.093068	0.416193
C71	C	2.677652	0.033070	0.211659
C72	C	2.650120	0.111151	0.211989
C73	C	1.929806	-0.094232	-0.022846
C74	C	1.866059	-0.094524	-0.096214
C75	C	1.918960	-0.091158	-0.136493
C76	C	2.035613	-0.087494	-0.103402
C77	C	2.099355	-0.087197	-0.030036
C78	C	2.620234	-0.335057	0.217820
C79	C	2.636374	-0.408425	0.217525
C80	C	2.551899	-0.441530	0.213856
C81	C	2.451283	-0.401263	0.210489
C82	C	2.435149	-0.327897	0.210790
C83	C	2.742858	-0.096431	0.456453
C84	C	2.796844	-0.096118	0.529819
C85	C	2.731266	-0.092448	0.562923
C86	C	2.611689	-0.089083	0.522657
C87	C	2.557704	-0.089391	0.449292
C88	C	2.722005	0.151412	0.208623
C89	C	2.696139	0.224780	0.208921
C90	C	2.598392	0.257885	0.212592
C91	C	2.526500	0.217618	0.215956
C92	C	2.552362	0.144253	0.215653
H93	H	2.218258	-0.441221	0.220248
N94	N	2.092651	-0.083872	-0.146858
H95	H	2.162375	-0.126054	-0.128698
H96	H	2.119163	-0.038492	-0.142624
N97	N	2.211361	-0.299380	0.221783
H98	H	2.220769	-0.306745	0.179505
H99	H	2.288430	-0.320717	0.267064
H100	H	2.417454	0.025599	0.851726
N101	N	2.516698	0.043208	0.991825
H102	H	2.475155	0.048592	1.019369
H103	H	2.477491	0.083798	0.950928
N104	N	1.860118	-0.436938	0.206515
H105	H	1.885585	-0.489524	0.206826
H106	H	1.783020	-0.415569	0.161262
H107	H	2.775239	-0.092198	0.622663
N108	N	2.827729	0.115669	0.204981
H109	H	2.833320	0.063064	0.205408
H110	H	2.900485	0.123192	0.247384
H111	H	1.853220	-0.295099	0.208054
N112	N	2.428745	-0.085774	0.405881
H113	H	2.417186	-0.129514	0.382257
H114	H	2.387316	-0.041952	0.368346
N115	N	2.711368	-0.299368	0.221786
H116	H	2.742670	-0.276059	0.265836
H117	H	2.674876	-0.262153	0.178271
H118	H	2.266168	-0.209253	0.574707
N119	N	2.744852	-0.451834	0.221096
H120	H	2.742257	-0.503334	0.220337
H121	H	2.816359	-0.447556	0.266435
N122	N	2.813604	-0.100391	0.420757
H123	H	2.897537	-0.102470	0.457402
H124	H	2.780273	-0.056902	0.383502
N125	N	2.570507	0.337014	0.212927
H126	H	2.557096	0.363065	0.167854
H127	H	2.638103	0.349050	0.255418
N128	N	2.540973	-0.085134	0.558372
H129	H	2.457032	-0.083051	0.521739
H130	H	2.544378	-0.041087	0.581687
H131	H	2.168239	-0.209808	0.441612
H132	H	2.316528	-0.888544	0.218401
H133	H	2.353218	-0.295120	0.208043
H134	H	2.382509	-0.428228	0.207502
H135	H	2.754691	0.257555	0.206182
N136	N	2.925811	-0.099745	0.573239
H137	H	2.959157	-0.102123	0.541131
H138	H	2.967213	-0.143537	0.610810
H139	H	2.186292	0.024287	0.537504
H140	H	2.287280	-0.755446	0.218936
H141	H	2.565051	-0.501270	0.213612
N142	N	1.850201	-0.091476	-0.215624
H143	H	1.768282	-0.094308	-0.230467
H144	H	1.889791	-0.133936	-0.227690
H145	H	2.595258	-0.207380	1.022025
H146	H	2.088366	0.023729	0.404406
H147	H	2.446912	0.244584	0.218944
N148	N	2.474824	0.100831	0.219287
H149	H	2.408984	0.132941	0.221660
H150	H	2.522347	0.063267	0.263084
H151	H	1.980721	-0.875521	0.205639
H152	H	1.951478	-0.742422	0.206187
H153	H	2.497331	-0.207936	0.888931
H154	H	1.886712	-0.096972	0.009941
N155	N	1.740246	-0.098476	-0.131896
H156	H	1.716419	-0.100570	-0.095241
H157	H	1.731678	-0.142520	-0.155215
H158	H	2.194335	-0.084219	-0.003102
