data_functionalizedCrystal
_audit_creation_method	'MofGen! by Chris Wilmer'
_symmetry_space_group_name_H-M	'P1'
_symmetry_Int_Tables_number	1
_symmetry_cell_setting	triclinic
loop_
_symmetry_equiv_pos_as_xyz
  x,y,z
_cell_length_a	10.540539
_cell_length_b	14.853567
_cell_length_c	13.330367
_cell_angle_alpha	90.000844
_cell_angle_beta	90.005494
_cell_angle_gamma	84.080211
loop_
_atom_site_label
_atom_site_type_symbol
_atom_site_fract_x
_atom_site_fract_y
_atom_site_fract_z
O1	O	-1.684495	-0.127051	-0.083367
O2	O	-1.314950	-0.139022	-0.083378
O3	O	-1.509594	-0.001861	-0.083375
O4	O	-1.489852	-0.264211	-0.083370
O5	O	-1.509566	-0.001858	0.083472
O6	O	-1.314922	-0.139019	0.083469
O7	O	-1.684467	-0.127048	0.083480
Cu8	Cu	-1.499692	-0.133033	0.098709
Cu9	Cu	-1.499725	-0.133037	-0.098607
O10	O	-1.489823	-0.264208	0.083477
C11	C	-1.267643	-0.138122	0.000044
C12	C	-1.126725	-0.135437	0.000039
C13	C	-1.508685	0.031734	0.000045
C14	C	-1.506005	0.131832	0.000036
C15	C	-1.731774	-0.127947	0.000056
C16	C	-1.872693	-0.130633	0.000054
C17	C	-0.944430	-0.032519	0.000426
C18	C	-1.091018	-0.035242	0.000040
C19	C	-1.064538	-0.183656	-0.095234
C20	C	-0.918031	-0.180237	-0.095304
C21	C	-0.917488	-0.182271	0.094433
C22	C	-1.064460	-0.183194	0.095681
C23	C	-1.490732	-0.297803	0.000054
C24	C	-1.493413	-0.397902	0.000057
N25	N	-1.499678	-0.133030	0.237490
C26	C	-1.379051	0.545071	0.000052
C27	C	-1.610292	0.565069	0.000059
C28	C	-1.612812	0.471021	0.000053
C29	C	-1.498450	0.413994	0.000048
C30	C	-1.381568	0.451014	0.000049
C31	C	-1.729693	0.433993	0.000062
C32	C	-1.732218	0.339940	0.000057
C33	C	-1.617854	0.282911	0.000045
C34	C	-1.500967	0.319937	0.000045
C35	C	-1.386605	0.262910	0.000040
C36	C	-1.269717	0.299934	0.000033
C37	C	-1.267204	0.393985	0.000037
C38	C	-1.620367	0.188860	0.000041
C39	C	-1.389122	0.168853	0.000037
N40	N	-1.499750	-0.133033	-0.237389
C41	C	-1.413534	-0.193747	0.710112
C42	C	-1.585951	-0.072319	0.710083
C43	C	-1.585937	-0.072316	0.605064
C44	C	-1.499721	-0.133031	0.552565
C45	C	-1.413519	-0.193748	0.605084
C46	C	-1.672146	-0.011607	0.552537
C47	C	-1.672136	-0.011602	0.447513
C48	C	-1.585913	-0.072313	0.395011
C49	C	-1.499707	-0.133032	0.447537
C50	C	-1.413490	-0.193746	0.395037
C51	C	-1.327277	-0.254461	0.447561
C52	C	-1.327296	-0.254459	0.552583
C53	C	-1.585894	-0.072315	0.289990
C54	C	-1.413476	-0.193747	0.290009
H55	H	-0.916269	0.007065	0.068752
H56	H	-1.822800	0.480431	0.000076
C57	C	-1.748259	0.042617	0.286515
C58	C	-1.766606	0.055342	0.389783
H59	H	-1.806500	0.084005	0.250876
H60	H	-1.663418	0.052783	0.269452
H61	H	-1.762440	-0.017566	0.269180
H62	H	-1.752416	0.115523	0.407119
H63	H	-1.851467	0.045183	0.406853
H64	H	-1.086082	-0.257237	-0.098778
H65	H	-1.134038	0.002699	0.068336
C66	C	-1.960542	0.369165	0.000057
C67	C	-1.860697	0.299247	0.000054
H68	H	-2.039858	0.344040	0.000047
H69	H	-1.954744	0.405425	0.058242
H70	H	-1.954746	0.405439	-0.058125
H71	H	-1.866487	0.262977	0.058241
H72	H	-1.866498	0.262973	-0.058136
H73	H	-1.656093	-0.022886	0.247230
C74	C	-1.699467	0.110894	0.670640
C75	C	-1.766900	0.055128	0.610253
H76	H	-1.757965	0.152099	0.706272
H77	H	-1.648133	0.074732	0.716936
H78	H	-1.646586	0.143685	0.629661
H79	H	-1.819775	0.022332	0.651233
H80	H	-1.818256	0.091295	0.563952
C81	C	-1.757357	0.094693	-0.085721
C82	C	-1.748833	0.148157	0.000050
H83	H	-1.836668	0.069561	-0.085712
H84	H	-1.751593	0.130974	-0.143891
H85	H	-1.689599	0.047275	-0.085720
H86	H	-1.816586	0.195579	0.000044
H87	H	-1.754610	0.111874	0.058235
C88	C	-1.243046	-0.313777	0.300588
C89	C	-1.318705	-0.260490	0.232306
H90	H	-1.184546	-0.354984	0.264962
H91	H	-1.197331	-0.275933	0.341552
H92	H	-1.295954	-0.346565	0.341548
H93	H	-1.265798	-0.227697	0.191351
H94	H	-1.364423	-0.298339	0.191325
C95	C	-1.050016	0.049790	-0.147531
C96	C	-1.147967	0.016325	-0.092324
H97	H	-1.085175	0.081621	-0.204558
H98	H	-1.007422	0.089615	-0.106721
H99	H	-0.991032	0.000826	-0.168768
H100	H	-1.206947	0.065290	-0.071080
H101	H	-1.190581	-0.023502	-0.133141
C102	C	-0.989915	-0.106643	-0.248432
C103	C	-0.880485	-0.132122	-0.191440
H104	H	-0.966738	-0.076932	-0.307779
H105	H	-1.029814	-0.158967	-0.265838
H106	H	-1.047398	-0.066735	-0.210333
H107	H	-0.823005	-0.172035	-0.229537
H108	H	-0.840566	-0.079790	-0.174036
H109	H	-1.257105	-0.303892	0.595354
C110	C	-0.944780	-0.338604	-0.104598
C111	C	-0.852195	-0.277508	-0.101164
H112	H	-0.904137	-0.398652	-0.108230
H113	H	-0.995893	-0.332111	-0.045854
H114	H	-0.997085	-0.326490	-0.162053
H115	H	-0.799895	-0.289617	-0.043704
H116	H	-0.801060	-0.284004	-0.159915
C117	C	-0.929360	-0.048322	0.196196
C118	C	-0.875595	-0.138467	0.191975
H119	H	-0.903565	-0.021267	0.256428
H120	H	-0.901280	-0.016142	0.140217
H121	H	-1.019703	-0.046425	0.194821
H122	H	-0.785251	-0.140364	0.193343
H123	H	-0.903668	-0.170655	0.247969
H124	H	-0.914668	0.006894	-0.067521
C125	C	-1.193884	-0.245172	0.742474
C126	C	-1.318768	-0.260479	0.767843
H127	H	-1.135381	-0.286365	0.778122
H128	H	-1.181550	-0.253867	0.672422
H129	H	-1.180021	-0.184902	0.759689
H130	H	-1.332633	-0.320747	0.750621
H131	H	-1.331107	-0.251791	0.837911
H132	H	-1.107507	-0.150163	-0.166140
C133	C	-1.806601	0.611069	0.085835
C134	C	-1.735995	0.627749	0.000066
H135	H	-1.884204	0.649773	0.085838
H136	H	-1.824824	0.549765	0.085822
H137	H	-1.758661	0.622374	0.144012
H138	H	-1.783930	0.616437	-0.058112
H139	H	-1.717774	0.689068	0.000069
H140	H	-1.105797	-0.147968	0.166164
H141	H	-1.257084	-0.303899	0.404804
H142	H	-1.087881	-0.256243	0.101436
C143	C	-1.170917	0.146875	0.000029
C144	C	-1.144012	0.237243	0.000026
H145	H	-1.093313	0.108172	0.000018
H146	H	-1.218815	0.135582	0.058212
H147	H	-1.218853	0.135583	-0.058155
H148	H	-1.096083	0.248537	0.058213
H149	H	-1.096093	0.248540	-0.058164
H150	H	-1.295993	0.122427	0.000029
C151	C	-1.160675	0.529278	0.000059
C152	C	-1.138730	0.434684	0.000043
H153	H	-1.081360	0.554404	0.000072
H154	H	-1.207765	0.548799	-0.058121
H155	H	-1.207769	0.548784	0.058246
H156	H	-1.091644	0.415178	-0.058148
H157	H	-1.091620	0.415156	0.058229
H158	H	-0.869465	-0.254641	0.095078
H159	H	-1.283883	0.575220	0.000042
H160	H	-1.656152	-0.022892	0.752831
