data_functionalizedCrystal
_audit_creation_method	'MofGen! by Chris Wilmer'
_symmetry_space_group_name_H-M	'P1'
_symmetry_Int_Tables_number	1
_symmetry_cell_setting	triclinic
loop_
_symmetry_equiv_pos_as_xyz
  x,y,z
_cell_length_a	12.594517
_cell_length_b	21.395356
_cell_length_c	21.395362
_cell_angle_alpha	89.970924
_cell_angle_beta	89.977564
_cell_angle_gamma	90.028389
loop_
_atom_site_label
_atom_site_type_symbol
_atom_site_fract_x
_atom_site_fract_y
_atom_site_fract_z
Zn1	Zn	-1.627209	-0.354336	-0.249539
Zn2	Zn	-1.627057	-0.249555	-0.354316
Zn3	Zn	-1.449205	-0.249563	-0.249547
Zn4	Zn	-1.449160	-0.354287	-0.354273
O5	O	-1.538158	-0.301935	-0.301919
O6	O	-1.776135	-0.340453	-0.263452
O7	O	-1.603419	-0.161879	-0.340439
O8	O	-1.472901	-0.263485	-0.161868
O9	O	-1.776023	-0.263472	-0.340431
O10	O	-1.603680	-0.340461	-0.161862
O11	O	-1.472753	-0.161884	-0.263465
O12	O	-1.300253	-0.263438	-0.263424
O13	O	-1.472823	-0.441971	-0.340359
O14	O	-1.300220	-0.340378	-0.340367
O15	O	-1.603636	-0.442007	-0.263411
O16	O	-1.603375	-0.263425	-0.441988
O17	O	-1.472675	-0.340370	-0.441957
C18	C	-1.261617	-0.301904	-0.301892
C19	C	-1.143311	-0.301906	-0.301896
C20	C	-1.074045	-0.260135	-0.259987
C21	C	-1.003214	-0.244714	-0.317133
C22	C	-1.003344	-0.317327	-0.244767
C23	C	-1.074038	-0.286455	-0.359073
C24	C	-1.074174	-0.359095	-0.286668
C25	C	-1.003375	-0.343696	-0.343854
C26	C	-1.538033	-0.301905	-0.464706
C27	C	-1.538077	-0.301913	-0.534348
C28	C	-0.815779	-0.301955	-0.301933
C29	C	-0.934084	-0.301934	-0.301907
C30	C	-1.538241	-0.465359	-0.301880
C31	C	-1.538277	-0.535000	-0.301863
C32	C	-1.470257	-0.567706	-0.261779
C33	C	-1.470254	-0.633142	-0.261767
C34	C	-1.538289	-0.665868	-0.301833
C35	C	-1.606314	-0.633154	-0.341926
C36	C	-1.606308	-0.567720	-0.341941
C37	C	-1.634189	-0.769559	-0.306764
C38	C	-1.634197	-0.834992	-0.306745
C39	C	-1.538306	-0.867689	-0.301791
C40	C	-1.442406	-0.834945	-0.296843
C41	C	-1.442400	-0.769511	-0.296858
C42	C	-1.538302	-0.736821	-0.301822
C43	C	-1.470277	-0.971348	-0.261692
C44	C	-1.470271	-1.036785	-0.261685
C45	C	-1.606341	-1.036796	-0.341840
C46	C	-1.606337	-0.971361	-0.341851
C47	C	-1.538306	-0.938641	-0.301773
C48	C	-1.538136	-0.139148	-0.301912
C49	C	-1.538306	-0.069507	-0.301752
C50	C	-1.606469	-0.261971	-1.036139
C51	C	-1.606429	-0.261957	-0.970704
C52	C	-1.538309	-0.301980	-0.937986
C53	C	-1.470204	-0.342010	-0.970709
C54	C	-1.470239	-0.342019	-1.036143
C55	C	-1.529800	-0.358410	-0.834286
C56	C	-1.529772	-0.358402	-0.768853
C57	C	-1.538195	-0.301952	-0.736165
C58	C	-1.546668	-0.245508	-0.768918
C59	C	-1.546703	-0.245517	-0.834353
C60	C	-1.538263	-0.301975	-0.867033
C61	C	-1.606247	-0.261906	-0.632497
C62	C	-1.606199	-0.261890	-0.567061
C63	C	-1.469979	-0.341949	-0.567067
C64	C	-1.470022	-0.341959	-0.632503
C65	C	-1.538161	-0.301938	-0.665214
C66	C	-1.538312	-0.301979	-0.138495
C67	C	-1.538378	-0.301998	-0.068854
H68	H	-1.414857	-0.541070	-0.229147
Br69	Br	-1.698627	-0.523330	-0.396346
H70	H	-1.523133	-0.404392	-0.860894
H71	H	-1.661708	-0.659804	-0.374548
H72	H	-1.661950	-0.229381	-1.062768
H73	H	-1.522880	-0.404361	-0.742188
Br74	Br	-1.377510	-0.396257	-0.522672
H75	H	-1.105076	-0.224771	-0.224584
H76	H	-0.972047	-0.196362	-0.330023
H77	H	-0.972234	-0.330337	-0.196455
Br78	Br	-1.698615	-0.207561	-0.522660
Br79	Br	-1.312260	-0.879311	-0.290113
Br80	Br	-1.377748	-0.396324	-0.926308
Br81	Br	-1.125571	-0.264642	-0.439631
H82	H	-0.972540	-0.379033	-0.379341
Br83	Br	-1.377616	-0.396290	-0.676905
Br84	Br	-1.126161	-0.439664	-0.265159
H85	H	-1.712285	-0.861647	-0.310771
Br86	Br	-1.377823	-0.396346	-1.080545
Br87	Br	-1.698837	-0.207626	-0.926294
Br88	Br	-1.698714	-0.207591	-0.676895
H89	H	-1.712281	-0.742943	-0.310793
Br90	Br	-1.377958	-0.677539	-0.207349
Br91	Br	-1.377948	-0.926939	-0.207305
Br92	Br	-1.377914	-1.081174	-0.207301
Br93	Br	-1.312256	-0.725074	-0.290147
H94	H	-1.661739	-1.063441	-0.374462
H95	H	-1.553529	-0.199541	-0.742305
Br96	Br	-1.698660	-0.926970	-0.396251
H97	H	-1.553599	-0.199558	-0.861018
