data_functionalizedCrystal
_audit_creation_method	'MofGen! by Chris Wilmer'
_symmetry_space_group_name_H-M	'P1'
_symmetry_Int_Tables_number	1
_symmetry_cell_setting	triclinic
loop_
_symmetry_equiv_pos_as_xyz
  x,y,z
_cell_length_a	19.188930
_cell_length_b	19.188930
_cell_length_c	17.666332
_cell_angle_alpha	90.011603
_cell_angle_beta	89.976766
_cell_angle_gamma	96.855221
loop_
_atom_site_label
_atom_site_type_symbol
_atom_site_fract_x
_atom_site_fract_y
_atom_site_fract_z
O1	O	0.926150	-0.087169	-0.063200
O2	O	0.722838	-0.098903	-0.063149
O3	O	0.830361	0.008620	-0.063161
O4	O	0.818627	-0.194692	-0.063188
O5	O	0.830342	0.008625	0.062735
O6	O	0.722820	-0.098897	0.062747
O7	O	0.926131	-0.087163	0.062697
Cu8	Cu	0.824473	-0.093030	0.074217
Cu9	Cu	0.824496	-0.093036	-0.074670
O10	O	0.818608	-0.194686	0.062709
C11	C	0.696818	-0.098520	-0.000194
C12	C	0.619313	-0.097380	-0.000174
C13	C	0.574389	-0.160470	-0.000194
C14	C	0.501566	-0.159399	-0.000203
C15	C	0.473669	-0.095233	-0.000206
C16	C	0.518603	-0.032133	-0.000181
C17	C	0.591425	-0.033207	-0.000166
N18	N	0.365695	-0.046188	-0.043078
N19	N	0.296517	-0.045172	-0.043095
C20	C	0.254260	-0.091994	-0.000252
N21	N	0.283795	-0.139881	0.042599
N22	N	0.352979	-0.140899	0.042612
C23	C	0.394707	-0.094062	-0.000222
C24	C	0.130372	-0.153928	-0.000280
C25	C	0.057547	-0.152853	-0.000283
C26	C	0.074586	-0.025586	-0.000270
C27	C	0.147409	-0.026662	-0.000258
C28	C	0.175298	-0.090835	-0.000267
C29	C	0.829972	0.034634	-0.000211
C30	C	0.828831	0.112138	-0.000204
C31	C	0.952151	-0.087546	-0.000260
C32	C	1.029656	-0.088687	-0.000285
C33	C	0.818997	-0.220700	-0.000244
C34	C	0.820138	-0.298204	-0.000255
N35	N	0.824463	-0.093025	0.178937
C36	C	0.891922	0.157062	-0.000216
C37	C	0.890850	0.229886	-0.000228
C38	C	0.826684	0.257782	-0.000212
C39	C	0.763585	0.212849	-0.000205
C40	C	0.764658	0.140026	-0.000200
N41	N	0.777630	0.365789	0.042645
N42	N	0.776615	0.434968	0.042642
C43	C	0.823446	0.477191	-0.000227
N44	N	0.871341	0.447624	-0.043084
N45	N	0.872359	0.378439	-0.043079
C46	C	0.825513	0.336745	-0.000218
C47	C	0.885379	0.601079	-0.000253
C48	C	0.884305	0.673904	-0.000270
C49	C	0.757038	0.656865	-0.000239
C50	C	0.758114	0.584042	-0.000230
C51	C	0.822287	0.556154	-0.000233
N52	N	0.824512	-0.093036	-0.179390
C53	C	0.872089	-0.045437	0.218541
C54	C	0.872093	-0.045433	0.297789
C55	C	0.824478	-0.093030	0.337429
C56	C	0.776842	-0.140621	0.297815
C57	C	0.776835	-0.140619	0.218569
N58	N	0.815401	-0.154837	0.461841
N59	N	0.815413	-0.154837	0.537121
C60	C	0.824496	-0.093040	0.576193
N61	N	0.833582	-0.031239	0.537140
N62	N	0.833574	-0.031240	0.461853
C63	C	0.824480	-0.093038	0.423358
C64	C	0.872130	-0.045444	0.701727
C65	C	0.872129	-0.045440	0.780976
C66	C	0.776881	-0.140634	0.781000
C67	C	0.776878	-0.140632	0.701753
C68	C	0.824506	-0.093038	0.662121
H69	H	0.628003	0.018171	-0.000150
O70	O	0.945642	0.717474	-0.000383
C71	C	1.054083	0.754325	-0.065647
C72	C	0.984652	0.704931	-0.065604
H73	H	1.085636	0.744212	-0.118380
H74	H	1.085708	0.744213	-0.012998
H75	H	1.042280	0.811159	-0.065617
H76	H	0.996391	0.648079	-0.065661
H77	H	0.953047	0.715104	-0.118249
O78	O	0.918414	0.000859	0.663340
C79	C	1.012911	0.095251	0.671677
C80	C	0.960522	0.042862	0.715241
H81	H	1.046979	0.129214	0.713620
H82	H	0.982909	0.130104	0.634620
H83	H	1.047662	0.065180	0.634531
H84	H	0.925757	0.072876	0.752428
H85	H	0.990567	0.008009	0.752250
O86	O	0.730530	-0.186801	0.819463
C87	C	0.609007	-0.228042	0.843726
C88	C	0.661426	-0.175709	0.800130
H89	H	0.553125	-0.219102	0.828099
H90	H	0.617129	-0.219871	0.907178
H91	H	0.617966	-0.283936	0.828134
H92	H	0.652499	-0.119794	0.815659
H93	H	0.653291	-0.183941	0.736688
H94	H	0.738099	-0.179386	0.669505
H95	H	0.711340	0.235567	-0.000194
H96	H	0.910878	-0.006680	0.330041
H97	H	0.944176	0.134360	-0.000222
O98	O	0.457888	-0.220670	-0.000093
C99	C	0.365711	-0.293300	0.065064
C100	C	0.415142	-0.223893	0.065046
H101	H	0.331128	-0.295922	0.117715
H102	H	0.398119	-0.339375	0.065110
H103	H	0.331256	-0.295964	0.012342
H104	H	0.449607	-0.221161	0.117758
H105	H	0.382692	-0.177850	0.064960
H106	H	0.597091	-0.212725	-0.000203
H107	H	0.153080	-0.206181	-0.000276
H108	H	0.495885	0.020111	-0.000194
O109	O	0.694645	0.683839	-0.000257
C110	C	0.568529	0.659254	-0.000181
C111	C	0.639141	0.628609	-0.000173
H112	H	0.523636	0.614615	-0.000097
H113	H	0.564804	0.692882	-0.052883
H114	H	0.564875	0.692958	0.052492
H115	H	0.642843	0.594873	-0.052811
H116	H	0.642836	0.595020	0.052564
O117	O	0.952204	0.273436	-0.000204
C118	C	1.078546	0.282656	-0.000265
C119	C	1.009117	0.233259	-0.000275
H120	H	1.124579	0.250193	-0.000339
H121	H	1.081259	0.317172	0.052433
H122	H	1.081197	0.317180	-0.052942
H123	H	1.006420	0.198692	0.052366
H124	H	1.006434	0.198791	-0.053009
H125	H	0.713281	0.103448	-0.000190
O126	O	0.696873	0.540327	-0.000109
C127	C	0.624199	0.448264	0.065159
C128	C	0.693590	0.497720	0.065112
H129	H	0.621515	0.413813	0.117892
H130	H	0.621520	0.413684	0.012510
H131	H	0.578163	0.480722	0.065131
H132	H	0.739665	0.465317	0.065166
H133	H	0.696208	0.532301	0.117756
O134	O	0.730616	-0.186952	0.336233
C135	C	0.689351	-0.308459	0.360502
C136	C	0.741736	-0.256069	0.316935
H137	H	0.698332	-0.364351	0.344928
H138	H	0.633444	-0.299553	0.344939
H139	H	0.697527	-0.300254	0.423941
H140	H	0.733624	-0.264243	0.253486
H141	H	0.797623	-0.264988	0.332561
H142	H	0.020970	-0.204232	-0.000295
O143	O	0.918375	0.000867	0.180161
C144	C	1.012876	0.095255	0.188504
C145	C	0.960487	0.042864	0.232065
H146	H	1.046946	0.129213	0.230449
H147	H	0.982875	0.130113	0.151452
H148	H	1.047624	0.065185	0.151353
H149	H	0.925725	0.072877	0.269257
H150	H	0.990531	0.008007	0.269069
H151	H	0.051874	0.026659	-0.000319
H152	H	0.738051	-0.179371	0.186322
H153	H	0.183988	0.024713	-0.000246
H154	H	0.937632	0.578372	-0.000259
H155	H	0.910910	-0.006684	0.813222
