data_functionalizedCrystal
_audit_creation_method	'MofGen! by Chris Wilmer'
_symmetry_space_group_name_H-M	'P1'
_symmetry_Int_Tables_number	1
_symmetry_cell_setting	triclinic
loop_
_symmetry_equiv_pos_as_xyz
  x,y,z
_cell_length_a	16.109318
_cell_length_b	14.519709
_cell_length_c	14.586319
_cell_angle_alpha	90.014387
_cell_angle_beta	90.003038
_cell_angle_gamma	96.425645
loop_
_atom_site_label
_atom_site_type_symbol
_atom_site_fract_x
_atom_site_fract_y
_atom_site_fract_z
O1	O	1.103323	-0.118619	-0.076181
O2	O	0.861289	-0.133355	-0.076202
O3	O	0.988723	0.008265	-0.076166
O4	O	0.975889	-0.260239	-0.076218
O5	O	0.988722	0.008273	0.076315
O6	O	0.861288	-0.133346	0.076279
O7	O	1.103322	-0.118611	0.076299
Cu8	Cu	0.982305	-0.125977	0.090212
Cu9	Cu	0.982306	-0.125988	-0.090114
O10	O	0.975888	-0.260230	0.076263
C11	C	0.830313	-0.132751	0.000036
C12	C	0.738015	-0.130953	0.000029
C13	C	0.988124	0.042628	0.000079
C14	C	0.986332	0.145005	0.000093
C15	C	0.438932	-0.125151	-0.083071
C16	C	0.525656	-0.126834	-0.083077
C17	C	0.525673	-0.126812	0.083166
C18	C	0.438952	-0.125122	0.083171
C19	C	0.395582	-0.124296	0.000050
C20	C	0.569028	-0.127669	0.000039
C21	C	0.663059	-0.129494	0.000033
C22	C	0.301546	-0.122469	0.000056
C23	C	0.979734	0.519887	0.000117
C24	C	0.981566	0.415583	0.000111
C25	C	0.983033	0.332450	0.000106
C26	C	0.984865	0.228139	0.000098
C27	C	1.134298	-0.119215	0.000059
C28	C	1.226596	-0.121013	0.000060
C29	C	0.976486	0.705407	0.000048
C30	C	0.978279	0.603030	0.000126
N31	N	0.982307	-0.125989	-0.216946
C32	C	1.038845	-0.063401	-0.451937
C33	C	1.038847	-0.063399	-0.547918
C34	C	0.925770	-0.188564	-0.547960
C35	C	0.925772	-0.188569	-0.451980
C36	C	0.982309	-0.125983	-0.403971
C37	C	0.982309	-0.125975	-0.595932
C38	C	0.982311	-0.125973	-0.699999
C39	C	0.982308	-0.125986	-0.299897
N40	N	0.982310	-0.125969	0.217043
H41	H	0.403623	-0.124477	-0.150753
H42	H	0.560947	-0.127529	-0.150762
H43	H	0.560995	-0.127486	0.150841
H44	H	0.403656	-0.124425	0.150862
N45	N	1.096598	0.000534	-0.402910
N46	N	1.147072	0.056405	-0.445753
H47	H	1.187863	0.101561	-0.411131
H48	H	1.084885	-0.012440	-0.586969
H49	H	0.879738	-0.239519	-0.587058
H50	H	0.879733	-0.239536	-0.412924
