data_functionalizedCrystal
_audit_creation_method	'MofGen! by Chris Wilmer'
_symmetry_space_group_name_H-M	'P1'
_symmetry_Int_Tables_number	1
_symmetry_cell_setting	triclinic
loop_
_symmetry_equiv_pos_as_xyz
  x,y,z
_cell_length_a	10.686220
_cell_length_b	16.625546
_cell_length_c	10.685880
_cell_angle_alpha	94.335175
_cell_angle_beta	89.641569
_cell_angle_gamma	94.404440
loop_
_atom_site_label
_atom_site_type_symbol
_atom_site_fract_x
_atom_site_fract_y
_atom_site_fract_z
Zn1	Zn	1.972202	-0.251696	-0.562343
Zn2	Zn	2.472202	0.248304	-0.062343
Zn3	Zn	1.955958	-0.377078	-0.352575
Zn4	Zn	2.455958	0.122922	0.147425
Zn5	Zn	1.746331	-0.253339	-0.368665
Zn6	Zn	2.246331	0.246661	0.131335
Zn7	Zn	1.762371	-0.397573	-0.578345
Zn8	Zn	2.262371	0.102427	-0.078345
O9	O	1.859215	-0.319921	-0.465482
O10	O	2.359215	0.180079	0.034518
O11	O	2.145592	-0.259063	-0.521086
O12	O	2.645592	0.240937	-0.021086
O13	O	1.914639	-0.352774	-0.179170
O14	O	2.414639	0.147226	0.320830
O15	O	1.776379	-0.140287	-0.394394
O16	O	2.276379	0.359713	0.105606
O17	O	2.133657	-0.351181	-0.366971
O18	O	2.633657	0.148819	0.133029
O19	O	1.942325	-0.139079	-0.536688
O20	O	2.442325	0.360921	-0.036688
O21	O	1.760627	-0.261864	-0.190991
O22	O	2.260627	0.238136	0.309009
O23	O	1.572914	-0.281737	-0.409910
O24	O	2.072914	0.218263	0.090090
O25	O	1.803716	-0.386111	-0.751762
O26	O	2.303716	0.113889	-0.251762
O27	O	1.584698	-0.387705	-0.563961
O28	O	2.084698	0.112295	-0.063961
O29	O	1.957878	-0.278936	-0.740006
O30	O	2.457878	0.221064	-0.240006
O31	O	1.930192	-0.492631	-0.382488
O32	O	2.430192	0.007369	0.117512
O33	O	1.787965	-0.507689	-0.548359
O34	O	2.287965	-0.007689	-0.048359
C35	C	1.533289	-0.337124	-0.490419
C36	C	2.033289	0.162876	0.009581
C37	C	1.393859	-0.344504	-0.501116
C38	C	1.893859	0.155496	-0.001116
C39	C	1.859093	-0.529416	-0.465439
C40	C	2.359093	-0.029416	0.034561
C41	C	1.859158	-0.619035	-0.465453
C42	C	2.359158	-0.119035	0.034547
C43	C	1.859387	-0.947205	-0.465567
C44	C	2.359387	-0.447205	0.034433
C45	C	1.859319	-0.855898	-0.465539
C46	C	2.359319	-0.355898	0.034461
C47	C	1.859271	-0.783123	-0.465510
C48	C	2.359271	-0.283123	0.034490
C49	C	1.859206	-0.691810	-0.465483
C50	C	2.359206	-0.191810	0.034517
C51	C	2.186414	-0.302653	-0.440449
C52	C	2.686414	0.197347	0.059551
C53	C	2.325846	-0.295294	-0.429781
C54	C	2.825846	0.204706	0.070219
C55	C	1.884398	-0.334627	-0.792672
C56	C	2.384398	0.165373	-0.292672
C57	C	1.895130	-0.340893	-0.932101
C58	C	2.395130	0.159107	-0.432101
C59	C	1.859375	-0.109608	-0.465551
C60	C	2.359375	0.390392	0.034449
C61	C	1.859443	-0.019985	-0.465580
C62	C	2.359443	0.480015	0.034420
C63	C	1.834202	-0.305212	-0.139559
C64	C	2.334202	0.194788	0.360441
C65	C	1.823714	-0.298705	-0.000113
C66	C	2.323714	0.201295	0.499887
H67	H	1.754352	-0.257795	-0.951673
H68	H	2.254352	0.242205	-0.451673
C69	C	1.987787	-0.395309	-0.996736
C70	C	2.487787	0.104691	-0.496736
C71	C	2.073971	-0.348747	-1.065791
C72	C	2.573971	0.151253	-0.565791
C73	C	2.159355	-0.398843	-1.125332
C74	C	2.659355	0.101157	-0.625332
H75	H	1.943826	-0.435261	-1.051604
H76	H	2.443826	0.064739	-0.551604
H77	H	2.031226	-0.420917	-0.935403
H78	H	2.531226	0.079083	-0.435403
H79	H	2.030536	-0.323153	-1.127116
H80	H	2.530536	0.176847	-0.627116
H81	H	2.117962	-0.308797	-1.010951
H82	H	2.617962	0.191203	-0.510951
H83	H	2.202794	-0.424450	-1.064000
H84	H	2.702794	0.075550	-0.564000
H85	H	2.115383	-0.438792	-1.180195
H86	H	2.615383	0.061208	-0.680195
H87	H	2.217848	-0.367257	-1.172184
H88	H	2.717848	0.132743	-0.672184
H89	H	1.345413	-0.392287	-0.570371
H90	H	1.845413	0.107713	-0.070371
C91	C	1.390582	-0.231704	-0.337349
C92	C	1.890582	0.268296	0.162651
C93	C	1.459601	-0.269724	-0.251140
C94	C	1.959601	0.230276	0.248860
C95	C	1.519274	-0.211170	-0.165981
C96	C	2.019274	0.288830	0.334019
H97	H	1.329355	-0.201789	-0.293898
H98	H	1.829355	0.298211	0.206102
H99	H	1.445491	-0.196113	-0.381517
H100	H	1.945491	0.303887	0.118483
H101	H	1.404697	-0.305300	-0.206976
H102	H	1.904697	0.194700	0.293024
H103	H	1.520848	-0.299635	-0.294554
H104	H	2.020848	0.200365	0.205446
H105	H	1.574183	-0.175580	-0.210150
H106	H	2.074183	0.324420	0.289850
H107	H	1.458039	-0.181258	-0.122540
H108	H	1.958039	0.318742	0.377460
H109	H	1.566120	-0.236958	-0.107486
H110	H	2.066120	0.263042	0.392514
