data_functionalizedCrystal
_audit_creation_method	'MofGen! by Chris Wilmer'
_symmetry_space_group_name_H-M	'P1'
_symmetry_Int_Tables_number	1
_symmetry_cell_setting	triclinic
loop_
_symmetry_equiv_pos_as_xyz
  x,y,z
_cell_length_a	19.077115
_cell_length_b	19.076808
_cell_length_c	19.076919
_cell_angle_alpha	89.878360
_cell_angle_beta	90.076897
_cell_angle_gamma	89.927626
loop_
_atom_site_label
_atom_site_type_symbol
_atom_site_fract_x
_atom_site_fract_y
_atom_site_fract_z
Zn1	Zn	1.045198	-0.339419	-0.426227
Zn2	Zn	1.045494	-0.452226	-0.304008
Zn3	Zn	0.932778	-0.330021	-0.304414
Zn4	Zn	0.923332	-0.451803	-0.416779
O5	O	0.986700	-0.393367	-0.362857
O6	O	1.143411	-0.358494	-0.413798
O7	O	1.034619	-0.432259	-0.205887
O8	O	0.951520	-0.233091	-0.324697
O9	O	1.143628	-0.441373	-0.324004
O10	O	1.034115	-0.239996	-0.414192
O11	O	0.951807	-0.342475	-0.206186
O12	O	0.833352	-0.342065	-0.315536
O13	O	0.935421	-0.440651	-0.516207
O14	O	0.826411	-0.431538	-0.398090
O15	O	1.024955	-0.358083	-0.523148
O16	O	1.025459	-0.550347	-0.314843
O17	O	0.935707	-0.550036	-0.397696
C18	C	0.804426	-0.385736	-0.355832
C19	C	0.726447	-0.382489	-0.352843
C20	C	0.287895	-0.359170	-0.331412
C21	C	0.361164	-0.362225	-0.334224
C22	C	0.394201	-0.410408	-0.378536
C23	C	0.353966	-0.455533	-0.420043
C24	C	0.280698	-0.452474	-0.417234
C25	C	0.612943	-0.424556	-0.391542
C26	C	0.686217	-0.427613	-0.394346
C27	C	0.693410	-0.334303	-0.308527
C28	C	0.620140	-0.331252	-0.305719
C29	C	0.579911	-0.376375	-0.347229
N30	N	0.469094	-0.413533	-0.381410
N31	N	0.505019	-0.373245	-0.344358
C32	C	0.979609	-0.575649	-0.355216
C33	C	0.976638	-0.653633	-0.351974
C34	C	1.018210	-0.693805	-0.397080
C35	C	1.015415	-0.767079	-0.394035
C36	C	0.971053	-0.800181	-0.345878
C37	C	0.929476	-0.760004	-0.300769
C38	C	0.932267	-0.686730	-0.303819
C39	C	0.958095	-1.018945	-0.331760
C40	C	0.955308	-1.092223	-0.328712
C41	C	1.041247	-1.099294	-0.421979
C42	C	1.044037	-1.026019	-0.425021
C43	C	1.002458	-0.985849	-0.379915
N44	N	0.968197	-0.875079	-0.342762
N45	N	1.005310	-0.910952	-0.383035
C46	C	1.169686	-0.401029	-0.369909
C47	C	1.247664	-0.404294	-0.372915
C48	C	0.979101	-0.400369	-0.545845
C49	C	0.975863	-0.403352	-0.623823
C50	C	0.993838	-0.210375	-0.370543
C51	C	0.996880	-0.132395	-0.373819
C52	C	1.020955	-0.361767	-0.664072
C53	C	1.017904	-0.364567	-0.737341
C54	C	0.969764	-0.408957	-0.770360
C55	C	0.924667	-0.450544	-0.730105
C56	C	0.927715	-0.447739	-0.656837
C57	C	0.955645	-0.421951	-0.989098
C58	C	0.952602	-0.424754	-1.062371
C59	C	1.045839	-0.338776	-1.069602
C60	C	1.048886	-0.335979	-0.996333
C61	C	1.003786	-0.377563	-0.956085
N62	N	0.966645	-0.411822	-0.845252
N63	N	1.006902	-0.374693	-0.881194
C64	C	0.994312	-0.386344	-0.180585
C65	C	0.997694	-0.383169	-0.102620
H66	H	0.380871	-0.494761	-0.456126
Cl67	Cl	0.230122	-0.509200	-0.469415
H68	H	0.924241	-0.986243	-0.295031
Cl69	Cl	0.892074	-0.480558	-1.103878
H70	H	0.918932	-0.455822	-0.956336
Cl71	Cl	1.093511	-1.149798	-0.478683
H72	H	0.593246	-0.292021	-0.269630
H73	H	0.726172	-0.297566	-0.274733
Cl74	Cl	0.864144	-0.506346	-0.771614
Cl75	Cl	0.411736	-0.305491	-0.282052
H76	H	1.080161	-0.999070	-0.464234
H77	H	1.054338	-0.666859	-0.436292
Cl78	Cl	0.871023	-0.500018	-0.606238
Cl79	Cl	0.873698	-0.801617	-0.240236
H80	H	0.580197	-0.461300	-0.425339
Cl81	Cl	1.074624	-0.312319	-0.787937
Cl82	Cl	1.081481	-0.305964	-0.622571
H83	H	0.919180	-1.119172	-0.289496
Cl84	Cl	0.246369	-0.298599	-0.275698
Cl85	Cl	1.109408	-0.280173	-0.954830
Cl86	Cl	0.727749	-0.488190	-0.450056
Cl87	Cl	1.102529	-0.286500	-1.120204
H88	H	1.049273	-0.799784	-0.430760
Cl89	Cl	0.880002	-0.636228	-0.247111
