data_functionalizedCrystal
_audit_creation_method	'MofGen! by Chris Wilmer'
_symmetry_space_group_name_H-M	'P1'
_symmetry_Int_Tables_number	1
_symmetry_cell_setting	triclinic
loop_
_symmetry_equiv_pos_as_xyz
  x,y,z
_cell_length_a	9.065218
_cell_length_b	8.559649
_cell_length_c	8.140239
_cell_angle_alpha	89.998339
_cell_angle_beta	89.997198
_cell_angle_gamma	77.397275
loop_
_atom_site_label
_atom_site_type_symbol
_atom_site_fract_x
_atom_site_fract_y
_atom_site_fract_z
O1	O	1.931006	0.233903	-0.136609
O2	O	1.499310	0.253088	-0.136610
O3	O	1.753191	0.011444	-0.136608
O4	O	1.677125	0.475547	-0.136611
O5	O	1.753179	0.011441	0.136619
O6	O	1.499298	0.253085	0.136617
O7	O	1.930994	0.233900	0.136618
Zn8	Zn	1.715144	0.243492	0.179998
Zn9	Zn	1.715160	0.243496	-0.179990
O10	O	1.677113	0.475544	0.136616
C11	C	1.444549	0.251243	0.000003
C12	C	1.281399	0.245730	0.000002
C13	C	1.758949	-0.048004	0.000003
C14	C	1.776108	-0.225136	-0.000006
C15	C	1.985755	0.235745	0.000001
C16	C	2.148905	0.241258	-0.000008
C17	C	1.671355	0.534992	0.000002
C18	C	1.654196	0.712124	-0.000000
N19	N	1.715144	0.243489	0.425681
N20	N	1.715173	0.243487	-0.425673
H21	H	1.536695	-0.206080	0.000005
O22	O	1.916188	-0.322944	-0.000074
C23	C	1.902720	-0.483962	-0.000016
H24	H	1.787716	-0.491868	-0.051738
H25	H	1.995855	-0.558228	-0.079338
H26	H	1.913700	-0.531993	0.131069
