data_functionalizedCrystal
_audit_creation_method	'MofGen! by Chris Wilmer'
_symmetry_space_group_name_H-M	'P1'
_symmetry_Int_Tables_number	1
_symmetry_cell_setting	triclinic
loop_
_symmetry_equiv_pos_as_xyz
  x,y,z
_cell_length_a	18.426585
_cell_length_b	14.395555
_cell_length_c	14.395555
_cell_angle_alpha	60.000749
_cell_angle_beta	90.000625
_cell_angle_gamma	60.003001
loop_
_atom_site_label
_atom_site_type_symbol
_atom_site_fract_x
_atom_site_fract_y
_atom_site_fract_z
Zr1	Zr	0.699135	1.016824	-0.121941
O2	O	0.583264	1.210607	-0.270264
O3	O	0.734653	0.823032	-0.076470
O4	O	0.734658	1.016820	-0.270266
O5	O	0.583258	1.016827	0.076399
O6	O	0.854084	1.016826	-0.270270
O7	O	0.583259	1.016820	-0.076468
O8	O	0.854074	0.670176	0.076396
O9	O	0.583268	1.363477	-0.270266
O10	O	0.838931	0.902750	-0.057082
O11	O	0.749804	0.902750	0.057003
O12	O	0.749810	1.130910	-0.171166
O13	O	0.660684	1.130910	-0.057080
Zr14	Zr	0.889604	1.016846	0.121858
Zr15	Zr	0.889606	1.016835	-0.121947
Zr16	Zr	0.699134	1.016835	0.121865
Zr17	Zr	0.699141	1.260634	-0.121945
Zr18	Zr	0.889599	0.773036	0.121862
O19	O	0.854087	1.210637	0.076388
O20	O	0.854089	1.210622	-0.270273
O21	O	0.583262	1.210623	0.076396
O22	O	1.005475	0.823063	0.270181
O23	O	1.005477	0.823047	-0.076479
O24	O	0.734651	0.823048	0.270190
O25	O	1.005482	1.016843	-0.076482
O26	O	0.854081	1.016850	0.270183
O27	O	0.734655	1.016844	0.270187
O28	O	1.005481	1.016850	0.076386
O29	O	0.734667	1.363485	-0.270271
O30	O	0.854073	0.670185	0.270189
O31	O	1.005472	0.670193	0.270184
O32	O	1.005473	0.670185	0.076391
O33	O	0.583267	1.363485	-0.076473
O34	O	0.734665	1.363494	-0.076478
O35	O	0.838929	0.902760	0.171084
O36	O	0.928056	0.902760	0.056998
O37	O	0.838936	1.130920	-0.057086
O38	O	0.749809	1.130920	0.057000
C39	C	0.556120	1.016822	-0.000033
C40	C	0.475261	1.016818	-0.000031
C41	C	0.794363	0.711867	-0.000037
C42	C	0.794360	0.608363	-0.000035
C43	C	0.179146	1.016857	-0.000051
C44	C	0.261532	1.016852	-0.000048
C45	C	0.327200	1.016838	-0.000042
C46	C	0.409592	1.016832	-0.000037
C47	C	0.745767	0.547771	0.062173
C48	C	0.710549	0.562021	-0.045101
C49	C	0.829557	0.409718	0.107206
C50	C	0.759093	0.624039	-0.107372
C51	C	0.878147	0.471673	0.045012
C52	C	0.842950	0.485970	-0.062326
C53	C	1.032619	1.016848	-0.000049
C54	C	1.113479	1.016852	-0.000052
C55	C	0.794372	1.016821	-0.305005
C56	C	0.794372	1.016817	-0.408507
C57	C	0.794377	1.321803	-0.000046
C58	C	0.794379	1.425307	-0.000047
C59	C	0.842969	0.892414	-0.406892
C60	C	0.759166	0.954600	-0.499912
C61	C	0.878155	0.954636	-0.499915
C62	C	0.710520	1.079003	-0.500163
C63	C	0.829569	1.079021	-0.500152
C64	C	0.745716	1.141298	-0.593190
C65	C	0.794368	1.016849	0.304922
C66	C	0.794367	1.016853	0.408424
C67	C	1.032612	0.711880	-0.000044
C68	C	1.113470	0.608381	-0.000045
C69	C	0.794361	0.711881	0.304927
C70	C	0.794358	0.608382	0.408430
C71	C	1.032610	0.711894	0.304919
C72	C	1.113467	0.608399	0.408420
C73	C	0.556129	1.321776	-0.305002
C74	C	0.475272	1.425271	-0.408502
C75	C	0.556127	1.321790	-0.000038
C76	C	0.475270	1.425289	-0.000037
C77	C	0.794379	1.321789	-0.305009
C78	C	0.794382	1.425288	-0.408513
C79	C	1.104918	0.559771	-0.059605
C80	C	1.180885	0.462536	-0.059629
C81	C	1.265402	0.413906	-0.000086
C82	C	1.273952	0.462525	0.059476
C83	C	1.197986	0.559765	0.059492
C84	C	1.197970	0.559797	0.397473
C85	C	1.273950	0.462567	0.494714
C86	C	1.265427	0.413934	0.602900
C87	C	1.180915	0.462545	0.613845
C88	C	1.104937	0.559781	0.516605
C89	C	0.390770	1.473885	-0.397556
C90	C	0.314789	1.571145	-0.494796
C91	C	0.323313	1.619784	-0.602983
C92	C	0.407824	1.571166	-0.613927
C93	C	0.483803	1.473913	-0.516687
C94	C	0.483821	1.473909	0.059512
C95	C	0.407855	1.571171	0.059509
C96	C	0.323338	1.619804	-0.000037
C97	C	0.314788	1.571181	-0.059594
C98	C	0.390754	1.473927	-0.059597
C99	C	0.745759	0.547794	0.406819
C100	C	0.829563	0.409702	0.499836
C101	C	0.710578	0.562028	0.499844
C102	C	0.878211	0.471590	0.500084
C103	C	0.759165	0.623990	0.500079
C104	C	0.843019	0.485907	0.593113
H105	H	0.704618	0.574997	0.114702
N106	N	1.365109	0.410057	0.123712
H107	H	1.372246	0.484236	0.092489
H108	H	1.411876	0.341057	0.114646
H109	H	1.327301	0.334758	0.682070
N110	N	0.897529	0.450115	0.698591
H111	H	0.960783	0.415213	0.699339
H112	H	0.896743	0.380546	0.768320
H113	H	0.729367	0.715642	0.499093
N114	N	1.207215	0.612184	0.123739
H115	H	1.272285	0.566613	0.161455
H116	H	1.177728	0.595247	0.183618
H117	H	1.327251	0.334726	-0.000107
H118	H	0.949014	0.902041	-0.500815
N119	N	0.971977	0.422445	0.095531
H120	H	0.976892	0.424548	0.164239
H121	H	0.987299	0.480486	0.036971
N122	N	1.013768	0.612206	-0.123831
H123	H	0.966932	0.681181	-0.114788
H124	H	1.006739	0.537924	-0.092560
H125	H	0.704560	1.246578	-0.672818
N126	N	1.171653	0.410111	-0.123873
H127	H	1.106583	0.455670	-0.161578
H128	H	1.201148	0.312489	-0.069202
H129	H	1.204927	0.599380	0.309391
H130	H	0.383779	1.434344	-0.108086
H131	H	0.639699	0.599200	-0.083212
H132	H	0.639630	1.131540	-0.499340
H133	H	0.261488	1.698994	-0.000026
H134	H	1.036134	0.599340	0.525534
N135	N	0.719729	0.884951	-0.501152
H136	H	0.719487	0.886230	-0.571945
H137	H	0.656818	0.931027	-0.500626
N138	N	0.972116	0.422058	0.499007
H139	H	0.987381	0.480492	0.498741
H140	H	0.977180	0.423214	0.428632
N141	N	0.417091	1.623616	0.123732
H142	H	0.356147	1.692622	0.114690
H143	H	0.450700	1.663868	0.092444
N144	N	0.574947	1.421464	-0.528492
H145	H	0.582071	1.495657	-0.571455
H146	H	0.581988	1.381111	-0.571429
N147	N	0.691402	0.583678	0.301169
H148	H	0.718105	0.503538	0.300295
H149	H	0.691335	0.654451	0.231558
H150	H	1.342756	0.422997	0.485783
H151	H	1.173988	0.422934	0.701943
N152	N	0.869011	0.288337	0.501074
H153	H	0.832258	0.310879	0.431591
H154	H	0.869257	0.218561	0.571912
H155	H	0.859366	1.131555	-0.499179
H156	H	0.859315	0.318115	0.197903
H157	H	0.639725	0.599197	0.500762
N158	N	0.574974	1.421477	0.123726
H159	H	0.608573	1.323860	0.183663
H160	H	0.568779	1.467145	0.161367
H161	H	0.729252	0.715600	-0.198112
N162	N	0.223628	1.623620	-0.123794
H163	H	0.176809	1.692593	-0.114737
H164	H	0.216597	1.549337	-0.092501
N165	N	0.241358	1.724659	-0.707855
H166	H	0.259573	1.748098	-0.778058
H167	H	0.204828	1.805278	-0.707786
N168	N	0.897387	0.450265	-0.132102
H169	H	0.870706	0.530478	-0.213070
H170	H	0.897508	0.379532	-0.131097
N171	N	0.381564	1.421432	-0.280877
H172	H	0.316497	1.467002	-0.288715
H173	H	0.411065	1.438351	-0.237930
H174	H	0.414754	1.610779	-0.702024
N175	N	0.897325	0.753077	-0.301245
H176	H	0.870621	0.706244	-0.300373
H177	H	0.897394	0.754151	-0.231630
H178	H	0.245984	1.610714	-0.485863
