data_functionalizedCrystal
_audit_creation_method	'MofGen! by Chris Wilmer'
_symmetry_space_group_name_H-M	'P1'
_symmetry_Int_Tables_number	1
_symmetry_cell_setting	triclinic
loop_
_symmetry_equiv_pos_as_xyz
  x,y,z
_cell_length_a	14.971486
_cell_length_b	14.519709
_cell_length_c	14.048226
_cell_angle_alpha	89.992623
_cell_angle_beta	89.998499
_cell_angle_gamma	83.647137
loop_
_atom_site_label
_atom_site_type_symbol
_atom_site_fract_x
_atom_site_fract_y
_atom_site_fract_z
O1	O	1.187015	0.120184	-0.079053
O2	O	1.687015	0.620184	0.420947
O3	O	0.926623	0.134576	-0.079079
O4	O	1.426623	0.634576	0.420921
O5	O	1.063722	-0.006863	-0.079057
O6	O	1.563722	0.493137	0.420943
O7	O	1.049915	0.261622	-0.079076
O8	O	1.549915	0.761622	0.420924
O9	O	1.063706	-0.006871	0.079264
O10	O	1.563706	0.493129	0.579264
O11	O	0.926606	0.134568	0.079242
O12	O	1.426606	0.634568	0.579242
O13	O	1.186998	0.120175	0.079268
O14	O	1.686998	0.620175	0.579268
Zn15	Zn	1.056799	0.127370	0.104392
Zn16	Zn	1.556799	0.627370	0.604392
Zn17	Zn	1.056821	0.127381	-0.104203
Zn18	Zn	1.556821	0.627381	0.395797
O19	O	1.049898	0.261614	0.079246
O20	O	1.549898	0.761614	0.579246
C21	C	0.893289	0.133928	0.000078
C22	C	1.393289	0.633928	0.500078
C23	C	0.793991	0.131999	0.000068
C24	C	1.293991	0.631999	0.500068
C25	C	0.736812	0.215091	0.000064
C26	C	1.236812	0.715091	0.500064
C27	C	0.643512	0.213273	0.000078
C28	C	1.143512	0.713273	0.500078
C29	C	0.607392	0.128363	0.000090
C30	C	1.107392	0.628363	0.500090
C31	C	0.664578	0.045265	0.000097
C32	C	1.164578	0.545265	0.500097
C33	C	0.757876	0.047084	0.000090
C34	C	1.257876	0.547084	0.500090
C35	C	0.470113	0.041480	0.000111
C36	C	0.970113	0.541480	0.500111
C37	C	0.376808	0.039661	0.000116
C38	C	0.876808	0.539661	0.500116
C39	C	0.355749	0.207669	0.000099
C40	C	0.855749	0.707669	0.500099
C41	C	0.449047	0.209488	0.000092
C42	C	0.949047	0.709488	0.500092
C43	C	0.506227	0.126390	0.000097
C44	C	1.006227	0.626390	0.500097
C45	C	1.063071	-0.041226	0.000104
C46	C	1.563071	0.458774	0.500104
C47	C	1.061142	-0.143606	0.000104
C48	C	1.561142	0.356394	0.500104
C49	C	1.054043	-0.518498	0.000079
C50	C	1.554043	-0.018498	0.500079
C51	C	1.056015	-0.414191	0.000086
C52	C	1.556015	0.085809	0.500086
C53	C	1.057593	-0.331055	0.000092
C54	C	1.557593	0.168945	0.500092
C55	C	1.059564	-0.226742	0.000098
C56	C	1.559564	0.273258	0.500098
C57	C	1.220331	0.120823	0.000109
C58	C	1.720331	0.620823	0.500109
C59	C	1.319630	0.122752	0.000112
C60	C	1.819630	0.622752	0.500112
C61	C	1.050550	0.295978	0.000083
C62	C	1.550550	0.795978	0.500083
C63	C	1.052478	0.398358	0.000076
C64	C	1.552478	0.898358	0.500076
N65	N	1.056791	0.127362	0.246753
N66	N	1.556791	0.627362	0.746753
N67	N	1.056837	0.127382	-0.246564
N68	N	1.556837	0.627382	0.253436
C69	C	1.117518	0.064759	0.296581
C70	C	1.617518	0.564759	0.796581
C71	C	1.117524	0.064758	0.396238
C72	C	1.617524	0.564758	0.896238
C73	C	1.056807	0.127366	0.446066
C74	C	1.556807	0.627366	0.946066
C75	C	0.996073	0.189972	0.396231
C76	C	1.496073	0.689972	0.896231
C77	C	0.996064	0.189968	0.296575
C78	C	1.496064	0.689968	0.796575
C79	C	0.996099	0.189979	0.603945
C80	C	1.496099	0.689979	1.103945
C81	C	0.996110	0.189985	0.703608
C82	C	1.496110	0.689985	1.203608
C83	C	1.117560	0.064770	0.703608
C84	C	1.617560	0.564770	1.203608
C85	C	1.117550	0.064765	0.603952
C86	C	1.617550	0.564765	1.103952
C87	C	1.056817	0.127373	0.554124
C88	C	1.556817	0.627373	1.054124
H89	H	0.309188	0.275331	0.000099
H90	H	0.809188	0.775331	0.500099
H91	H	0.635162	-0.023871	0.000121
H92	H	1.135162	0.476129	0.500121
C93	C	0.533009	-0.049926	0.000105
C94	C	1.033009	0.450074	0.500105
H95	H	0.498136	-0.100757	0.000101
H96	H	0.998136	0.399243	0.500101
H97	H	0.569851	-0.052720	0.055309
H98	H	1.069851	0.447280	0.555309
H99	H	0.569833	-0.052697	-0.055119
H100	H	1.069833	0.447303	0.444881
H101	H	0.804431	-0.020578	0.000093
H102	H	1.304431	0.479422	0.500093
H103	H	1.166965	0.013780	0.256017
H104	H	1.666965	0.513780	0.756017
H105	H	0.478453	0.278629	0.000073
H106	H	0.978453	0.778629	0.500073
C107	C	0.929298	0.258850	0.549136
C108	C	1.429298	0.758850	1.049136
H109	H	0.893145	0.296145	0.593083
H110	H	1.393145	0.796145	1.093083
H111	H	0.892010	0.225614	0.510269
H112	H	1.392010	0.725614	1.010269
H113	H	0.961539	0.297295	0.510253
H114	H	1.461539	0.797295	1.010253
C115	C	0.929268	0.258835	0.241765
C116	C	1.429268	0.758835	0.741765
H117	H	0.893113	0.296129	0.285711
H118	H	1.393113	0.796129	0.785711
H119	H	0.891981	0.225595	0.202900
H120	H	1.391981	0.725595	0.702900
H121	H	0.961504	0.297282	0.202878
H122	H	1.461504	0.797282	0.702878
H123	H	0.946632	0.240946	0.436807
H124	H	1.446632	0.740946	0.936807
C125	C	0.337077	-0.053738	0.000135
C126	C	0.837077	0.446262	0.500135
H127	H	0.384492	-0.102968	0.000150
H128	H	0.884492	0.397032	0.500150
H129	H	0.301118	-0.057940	-0.055072
H130	H	0.801118	0.442060	0.444928
H131	H	0.301120	-0.057933	0.055355
H132	H	0.801120	0.442067	0.555355
H133	H	0.596960	0.280934	0.000074
H134	H	1.096960	0.780934	0.500074
H135	H	1.166972	0.013782	0.436808
H136	H	1.666972	0.513782	0.936808
C137	C	1.184336	-0.004102	0.549143
C138	C	1.684336	0.495898	1.049143
H139	H	1.220502	-0.041394	0.593090
H140	H	1.720502	0.458606	1.093090
H141	H	1.221613	0.029135	0.510253
H142	H	1.721613	0.529135	1.010253
H143	H	1.152090	-0.042550	0.510282
H144	H	1.652090	0.457450	1.010282
C145	C	1.184366	-0.004099	0.758410
C146	C	1.684366	0.495901	1.258410
H147	H	1.220533	-0.041377	0.714462
H148	H	1.720533	0.458623	1.214462
H149	H	1.152143	-0.042548	0.797298
H150	H	1.652143	0.457452	1.297298
H151	H	1.221652	0.029152	0.797273
H152	H	1.721652	0.529152	1.297273
C153	C	0.776536	0.308493	0.000050
C154	C	1.276536	0.808493	0.500050
H155	H	0.729117	0.357718	0.000058
H156	H	1.229117	0.857718	0.500058
H157	H	0.812492	0.312700	-0.055162
H158	H	1.312492	0.812700	0.444838
H159	H	0.812495	0.312691	0.055265
H160	H	1.312495	0.812691	0.555265
C161	C	0.929266	0.258793	0.758418
C162	C	1.429266	0.758793	1.258418
H163	H	0.893070	0.296054	0.714471
H164	H	1.393070	0.796054	1.214471
H165	H	0.961446	0.297265	0.797312
H166	H	1.461446	0.797265	1.297312
H167	H	0.892012	0.225488	0.797274
H168	H	1.392012	0.725488	1.297274
