data_functionalizedCrystal
_audit_creation_method	'MofGen! by Chris Wilmer'
_symmetry_space_group_name_H-M	'P1'
_symmetry_Int_Tables_number	1
_symmetry_cell_setting	triclinic
loop_
_symmetry_equiv_pos_as_xyz
  x,y,z
_cell_length_a	11.792241
_cell_length_b	23.532407
_cell_length_c	10.268362
_cell_angle_alpha	89.990068
_cell_angle_beta	89.999626
_cell_angle_gamma	83.521047
loop_
_atom_site_label
_atom_site_type_symbol
_atom_site_fract_x
_atom_site_fract_y
_atom_site_fract_z
O1	O	1.505071	0.078055	-0.108188
O2	O	1.174541	0.086099	-0.108220
O3	O	1.349773	-0.000795	-0.108179
O4	O	1.329839	0.164950	-0.108229
O5	O	1.349758	-0.000799	0.108421
O6	O	1.174526	0.086096	0.108380
O7	O	1.505056	0.078051	0.108412
Cu8	Cu	1.339790	0.082073	0.128174
Cu9	Cu	1.339808	0.082078	-0.127982
O10	O	1.329824	0.164946	0.108372
C11	C	1.132254	0.085592	0.000076
C12	C	1.006276	0.084080	0.000065
C13	C	1.349258	-0.022016	0.000124
C14	C	1.347732	-0.085242	0.000134
C15	C	0.775630	0.081299	0.000104
C16	C	0.903978	0.082844	0.000082
C17	C	1.441858	-0.483788	0.000072
C18	C	1.440440	-0.543196	0.000062
O19	O	1.527696	-0.579424	0.000022
N20	N	1.336265	-0.566440	0.000053
C21	C	1.233500	-0.530271	0.000040
O22	O	1.144761	-0.555497	0.000030
C23	C	1.234919	-0.470864	0.000041
C24	C	1.339102	-0.447624	0.000063
C25	C	1.546032	-0.460547	0.000093
C26	C	1.547449	-0.401142	0.000105
C27	C	1.444693	-0.364979	0.000097
C28	C	1.340519	-0.388219	0.000076
C29	C	1.132156	-0.434696	0.000019
C30	C	1.133584	-0.375285	0.000019
C31	C	1.237766	-0.352045	0.000041
C32	C	1.239180	-0.292651	0.000080
N33	N	1.343355	-0.269407	0.000089
C34	C	1.446112	-0.305571	0.000097
C35	C	1.230528	-0.655031	0.000036
C36	C	1.229108	-0.714438	0.000045
C37	C	1.436049	-0.727359	0.000064
C38	C	1.437468	-0.667951	0.000065
C39	C	1.334704	-0.631788	0.000046
C40	C	1.449080	-0.180817	0.000125
C41	C	1.450489	-0.121406	0.000142
C42	C	1.243549	-0.108491	0.000117
C43	C	1.242140	-0.167896	0.000106
C44	C	1.344915	-0.204058	0.000105
O45	O	1.151970	-0.256388	0.000114
O46	O	1.534837	-0.280337	0.000090
C47	C	1.547343	0.078558	0.000113
C48	C	1.673321	0.080071	0.000115
C49	C	1.330339	0.186167	0.000065
C50	C	1.331865	0.249393	0.000047
N51	N	1.339786	0.082070	0.308340
N52	N	1.339821	0.082076	-0.308148
C53	C	1.339802	0.082076	0.574010
C54	C	1.339789	0.082074	0.426172
H55	H	1.532770	-0.210254	0.000119
C56	C	1.130523	-0.068706	0.000099
H57	H	1.068269	-0.091052	0.000092
H58	H	1.126795	-0.045257	-0.075434
H59	H	1.126767	-0.045269	0.075642
C60	C	1.662051	-0.375586	0.000105
H61	H	1.723037	-0.405639	0.000093
H62	H	1.666919	-0.352685	0.075635
H63	H	1.666908	-0.352677	-0.075442
C64	C	1.565093	-0.095846	0.000159
H65	H	1.626085	-0.125895	0.000148
H66	H	1.569949	-0.072947	0.075696
H67	H	1.569953	-0.072933	-0.075381
H68	H	1.146840	-0.625590	0.000032
C69	C	1.659075	-0.500319	0.000112
H70	H	1.721310	-0.477961	0.000135
H71	H	1.662848	-0.523761	-0.075415
H72	H	1.662818	-0.523764	0.075661
H73	H	1.522302	-0.649034	0.000082
H74	H	1.519719	-0.756814	0.000066
H75	H	1.144273	-0.733354	0.000049
H76	H	1.047320	-0.453608	-0.000007
C77	C	1.020544	-0.335506	-0.000001
H78	H	1.036301	-0.296796	-0.000003
H79	H	0.977787	-0.342596	0.075521
H80	H	0.977813	-0.342582	-0.075555
C81	C	1.127543	-0.193461	0.000078
H82	H	1.066549	-0.163413	0.000066
H83	H	1.122671	-0.216381	0.075596
H84	H	1.122703	-0.216353	-0.075480
