data_functionalizedCrystal
_audit_creation_method	'MofGen! by Chris Wilmer'
_symmetry_space_group_name_H-M	'P1'
_symmetry_Int_Tables_number	1
_symmetry_cell_setting	triclinic
loop_
_symmetry_equiv_pos_as_xyz
  x,y,z
_cell_length_a	14.519709
_cell_length_b	23.532407
_cell_length_c	22.610064
_cell_angle_alpha	90.000603
_cell_angle_beta	90.002631
_cell_angle_gamma	83.264412
loop_
_atom_site_label
_atom_site_type_symbol
_atom_site_fract_x
_atom_site_fract_y
_atom_site_fract_z
O1	O	1.222991	0.074645	0.049114
O2	O	0.954410	0.083437	0.049133
O3	O	1.096799	-0.003854	0.049112
O4	O	1.080601	0.161936	0.049135
O5	O	1.096774	-0.003842	-0.049257
O6	O	0.954385	0.083449	-0.049236
O7	O	1.222966	0.074658	-0.049255
Zn8	Zn	1.088671	0.079056	-0.064864
Zn9	Zn	1.088704	0.079039	0.064742
O10	O	1.080576	0.161949	-0.049235
C11	C	0.920042	0.083033	-0.000050
C12	C	0.817676	0.081805	-0.000043
C13	C	0.442833	0.077286	-0.000070
C14	C	0.547126	0.078541	-0.000063
C15	C	0.630251	0.079545	-0.000056
C16	C	0.734551	0.080801	-0.000049
C17	C	1.096374	-0.025066	-0.000074
C18	C	1.095134	-0.088288	-0.000079
C19	C	1.171619	-0.487046	-0.000052
C20	C	1.170467	-0.546452	-0.000047
O21	O	1.241369	-0.582876	-0.000030
N22	N	1.085816	-0.569460	-0.000042
C23	C	1.002312	-0.533059	-0.000035
O24	O	0.930205	-0.558084	-0.000029
C25	C	1.003465	-0.473655	-0.000035
C26	C	1.088121	-0.450650	-0.000046
C27	C	1.256268	-0.464041	-0.000062
C28	C	1.257420	-0.404640	-0.000068
C29	C	1.173922	-0.368244	-0.000063
C30	C	1.089273	-0.391249	-0.000052
C31	C	0.919962	-0.437255	-0.000024
C32	C	0.921123	-0.377847	-0.000024
C33	C	1.005779	-0.354843	-0.000035
C34	C	1.006927	-0.295451	-0.000053
N35	N	1.091578	-0.272443	-0.000058
C36	C	1.175075	-0.308839	-0.000063
C37	C	0.999897	-0.657813	-0.000033
C38	C	0.998743	-0.717216	-0.000037
C39	C	1.166898	-0.730604	-0.000048
C40	C	1.168051	-0.671200	-0.000048
C41	C	1.084548	-0.634804	-0.000038
C42	C	1.177487	-0.184092	-0.000076
C43	C	1.178632	-0.124685	-0.000084
C44	C	1.010477	-0.111301	-0.000069
C45	C	1.009332	-0.170703	-0.000064
C46	C	1.092845	-0.207098	-0.000066
O47	O	0.936062	-0.258992	-0.000067
O48	O	1.247171	-0.283806	-0.000061
C49	C	1.257333	0.075061	-0.000072
C50	C	1.359700	0.076289	-0.000074
C51	C	1.081001	0.183160	-0.000047
C52	C	1.082241	0.246383	-0.000039
N53	N	1.088655	0.079067	-0.153317
C54	C	1.151757	0.040392	-0.561967
C55	C	1.151762	0.040388	-0.623887
O56	O	1.205374	0.007514	-0.655914
N57	N	1.088704	0.079027	-0.654854
C58	C	1.025630	0.117669	-0.623897
O59	O	0.971994	0.150533	-0.655922
C60	C	1.025622	0.117670	-0.561978
C61	C	1.088690	0.079032	-0.531015
C62	C	1.214820	0.001758	-0.531004
C63	C	1.214816	0.001763	-0.469088
C64	C	1.151749	0.040402	-0.438136
C65	C	1.088687	0.079037	-0.469099
C66	C	0.962545	0.156308	-0.531023
C67	C	0.962541	0.156305	-0.469100
C68	C	1.025610	0.117668	-0.438137
C69	C	1.025616	0.117682	-0.376232
N70	N	1.088674	0.079043	-0.345265
C71	C	1.151741	0.040403	-0.376217
C72	C	1.025652	0.117663	-0.753931
C73	C	1.025664	0.117665	-0.815849
C74	C	1.151794	0.040384	-0.815834
C75	C	1.151786	0.040385	-0.753915
C76	C	1.088710	0.079024	-0.722964
C77	C	1.151729	0.040417	-0.246190
C78	C	1.151722	0.040427	-0.184269
C79	C	1.025588	0.117706	-0.184289
C80	C	1.025598	0.117698	-0.246204
C81	C	1.088672	0.079049	-0.277153
O82	O	0.972029	0.150537	-0.344166
O83	O	1.205360	0.007539	-0.344184
N84	N	1.088727	0.079023	0.153194
H85	H	1.247572	-0.105958	-0.000095
H86	H	1.203088	0.008945	-0.271382
H87	H	0.940399	-0.189434	-0.000071
H88	H	1.266169	-0.029701	-0.443881
H89	H	0.974290	0.149132	-0.728733
Br90	Br	1.300420	-0.050690	-0.573000
Br91	Br	1.237382	-0.012053	-0.711900
H92	H	1.245491	-0.213718	-0.000074
Br93	Br	1.372316	-0.373429	-0.000067
Br94	Br	0.805065	-0.468460	-0.000006
H95	H	0.942496	-0.081657	-0.000067
Br96	Br	0.876948	0.208746	-0.573032
Br97	Br	0.883849	-0.748428	-0.000035
Br98	Br	0.807790	-0.328456	-0.000007
H99	H	0.974251	0.149166	-0.271415
H100	H	1.203145	0.008921	-0.841047
Br101	Br	0.876929	0.208745	-0.427099
Br102	Br	0.940083	0.170113	-0.857863
Br103	Br	0.940003	0.170145	-0.142272
H104	H	1.203083	0.008964	-0.159060
H105	H	1.236985	-0.652474	-0.000057
Br106	Br	1.369602	-0.513426	-0.000069
H107	H	1.234886	-0.760249	-0.000050
H108	H	0.931894	-0.628182	-0.000030
