data_functionalizedCrystal
_audit_creation_method	'MofGen! by Chris Wilmer'
_symmetry_space_group_name_H-M	'P1'
_symmetry_Int_Tables_number	1
_symmetry_cell_setting	triclinic
loop_
_symmetry_equiv_pos_as_xyz
  x,y,z
_cell_length_a	19.188930
_cell_length_b	10.654541
_cell_length_c	9.130307
_cell_angle_alpha	90.002621
_cell_angle_beta	90.015539
_cell_angle_gamma	83.814354
loop_
_atom_site_label
_atom_site_type_symbol
_atom_site_fract_x
_atom_site_fract_y
_atom_site_fract_z
O1	O	-0.927167	-0.156777	-0.122270
O2	O	-0.723993	-0.177883	-0.122170
O3	O	-0.830252	0.015509	-0.122213
O4	O	-0.820908	-0.350168	-0.122227
O5	O	-0.830248	0.015509	0.121386
O6	O	-0.723989	-0.177882	0.121429
O7	O	-0.927163	-0.156777	0.121329
Cu8	Cu	-0.825576	-0.167330	0.143622
Cu9	Cu	-0.825580	-0.167330	-0.144462
O10	O	-0.820904	-0.350168	0.121372
C11	C	-0.697976	-0.177199	-0.000357
C12	C	-0.620458	-0.175147	-0.000319
C13	C	-0.829565	0.062292	-0.000414
C14	C	-0.827513	0.201692	-0.000416
C15	C	-0.953180	-0.157461	-0.000487
C16	C	-1.030698	-0.159512	-0.000535
C17	C	-0.576276	-0.288623	-0.000346
C18	C	-0.503439	-0.286695	-0.000362
C19	C	-0.474788	-0.171286	-0.000380
C20	C	-0.518981	-0.057795	-0.000345
C21	C	-0.591815	-0.059726	-0.000314
N22	N	-0.366233	-0.083070	-0.083343
N23	N	-0.297043	-0.081243	-0.083376
C24	C	-0.255342	-0.165462	-0.000470
N25	N	-0.285444	-0.251595	0.082452
N26	N	-0.354641	-0.253425	0.082477
C27	C	-0.395812	-0.169180	-0.000413
C28	C	-0.132181	-0.276855	-0.000512
C29	C	-0.059344	-0.274923	-0.000519
C30	C	-0.074887	-0.046020	-0.000517
C31	C	-0.147723	-0.047955	-0.000495
C32	C	-0.176365	-0.163376	-0.000500
C33	C	-0.821592	-0.396952	-0.000430
C34	C	-0.823643	-0.536352	-0.000438
N35	N	-0.825578	-0.167329	0.346244
C36	C	-0.954574	0.232352	-0.000460
C37	C	-1.017138	0.313170	-0.000479
C38	C	-1.015206	0.444147	-0.000482
C39	C	-0.950703	0.494307	-0.000472
C40	C	-0.888139	0.413489	-0.000453
C41	C	-0.890078	0.282511	-0.000445
C42	C	-0.761079	0.382830	-0.000419
C43	C	-0.763010	0.251852	-0.000405
C44	C	-0.696577	0.432990	-0.000409
C45	C	-0.634011	0.352172	-0.000379
C46	C	-0.635946	0.221187	-0.000374
C47	C	-0.700446	0.171034	-0.000386
C48	C	-0.919709	0.003870	0.346196
C49	C	-0.966779	0.089465	0.422838
C50	C	-0.966785	0.089465	0.576172
C51	C	-0.919716	0.003863	0.652866
C52	C	-0.872646	-0.081732	0.576224
C53	C	-0.872645	-0.081726	0.422887
C54	C	-0.778512	-0.252923	0.576272
C55	C	-0.778508	-0.252931	0.422939
C56	C	-0.731443	-0.338526	0.652967
C57	C	-0.684375	-0.424129	0.576324
C58	C	-0.684371	-0.424126	0.422982
C59	C	-0.731438	-0.338527	0.346297
N60	N	-0.825582	-0.167328	0.652915
H61	H	-0.467459	-0.379104	-0.000380
H62	H	-0.627789	0.032682	-0.000293
O63	O	-0.702236	0.043783	-0.000574
C64	C	-0.668061	-0.008389	-0.126746
H65	H	-0.629852	0.058134	-0.168804
H66	H	-0.638122	-0.103550	-0.098362
H67	H	-0.708573	-0.021940	-0.215096
O68	O	-0.948916	0.621559	-0.000684
C69	C	-0.983109	0.673703	-0.126884
H70	H	-1.021321	0.607167	-0.168949
H71	H	-1.013047	0.768867	-0.098534
H72	H	-0.942609	0.687242	-0.215215
H73	H	-0.023371	-0.367332	-0.000533
H74	H	-1.066151	0.509950	-0.000509
O75	O	-1.012421	0.172611	0.348140
C76	C	-0.974693	0.249960	0.259453
H77	H	-0.920284	0.199763	0.236548
H78	H	-1.003738	0.269864	0.151597
H79	H	-0.969548	0.342796	0.318497
H80	H	-0.646038	-0.493824	0.360588
H81	H	-0.155503	-0.370838	-0.000494
O82	O	-1.079750	0.264291	-0.000682
C83	C	-1.084686	0.189463	-0.126860
H84	H	-1.029819	0.156533	-0.168907
H85	H	-1.112932	0.103847	-0.098487
H86	H	-1.115300	0.247499	-0.215213
H87	H	-0.919718	0.003878	0.777718
O88	O	-0.731333	-0.338659	0.801914
C89	C	-0.679709	-0.432586	0.853166
H90	H	-0.638222	-0.454660	0.764829
H91	H	-0.654109	-0.397319	0.955770
H92	H	-0.705050	-0.521727	0.880344
H93	H	-0.695008	0.539640	-0.000420
H94	H	-0.581498	0.393024	-0.000380
O95	O	-0.575104	0.142863	-0.000295
C96	C	-0.517765	0.215229	-0.000329
H97	H	-0.535009	0.313090	0.045781
H98	H	-0.473882	0.166673	0.070402
H99	H	-0.498037	0.224439	-0.117195
H100	H	-0.956154	0.125705	-0.000437
H101	H	-0.646051	-0.493815	0.638779
H102	H	-0.731441	-0.338521	0.221444
H103	H	-0.599591	-0.382608	-0.000352
H104	H	-0.051560	0.047949	-0.000622
O105	O	-0.491119	0.054281	-0.000627
C106	C	-0.449470	0.062234	-0.126792
H107	H	-0.467032	-0.003293	-0.214963
H108	H	-0.455526	0.163479	-0.169137
H109	H	-0.392176	0.032948	-0.098297
H110	H	-0.919714	0.003868	0.221344
H111	H	-1.005111	0.159169	0.638574
H112	H	-0.183697	0.044449	-0.000481
