data_functionalizedCrystal
_audit_creation_method	'MofGen! by Chris Wilmer'
_symmetry_space_group_name_H-M	'P1'
_symmetry_Int_Tables_number	1
_symmetry_cell_setting	triclinic
loop_
_symmetry_equiv_pos_as_xyz
  x,y,z
_cell_length_a	6.817900
_cell_length_b	13.563541
_cell_length_c	16.256277
_cell_angle_alpha	109.753457
_cell_angle_beta	103.500353
_cell_angle_gamma	104.704624
loop_
_atom_site_label
_atom_site_type_symbol
_atom_site_fract_x
_atom_site_fract_y
_atom_site_fract_z
V1	V	-4.059366	-0.154635	-0.299985
O2	O	-4.012949	0.006507	-0.257331
O3	O	-4.042697	-0.305727	-0.333463
O4	O	-4.010569	-0.152662	-0.414608
O5	O	-4.045298	-0.147618	-0.175624
V6	V	-4.538934	-0.135313	-0.280794
O7	O	-4.329301	-0.197020	-0.342081
O8	O	-4.719197	-0.092928	-0.238698
O9	O	-4.332397	0.015779	-0.247315
O10	O	-4.702748	-0.296455	-0.323447
O11	O	-4.670399	-0.142330	-0.405154
O12	O	-4.364524	-0.137286	-0.166170
C13	C	-3.895430	-0.342547	-0.337899
C14	C	-3.963084	-0.466069	-0.366036
C15	C	-3.979144	-0.749725	-0.120255
C16	C	-3.915564	-0.633669	-0.093817
C17	C	-3.927441	-0.591763	-0.161869
C18	C	-4.002904	-0.665925	-0.256364
C19	C	-4.066474	-0.781992	-0.282805
C20	C	-4.014771	-0.624030	-0.324419
C21	C	-4.090234	-0.698192	-0.418914
C22	C	-4.153798	-0.814247	-0.445350
C23	C	-4.141921	-0.856153	-0.377297
C24	C	-3.951202	-0.507963	-0.297979
C25	C	-4.038531	-0.540230	-0.460528
C26	C	-4.102111	-0.656286	-0.486966
C27	C	-3.854447	-0.147296	-0.441406
C28	C	-3.896044	-0.146683	-0.535345
C29	C	-4.187889	-0.150970	-0.768167
C30	C	-4.061298	-0.055608	-0.788988
C31	C	-3.972098	-0.145528	-0.707322
C32	C	-4.172745	-0.239729	-0.853858
C33	C	-4.045579	-0.144417	-0.873445
C34	C	-3.844913	-0.050098	-0.726879
C35	C	-3.956434	-0.234302	-0.791774
C36	C	-3.829679	-0.138913	-0.812558
C37	C	-3.929771	-0.146167	-0.611622
C38	C	-4.087885	-0.143770	-0.969140
C39	C	-4.143007	0.052593	-0.242879
C40	C	-4.054591	0.176114	-0.214748
C41	C	-4.183990	-0.142655	-0.139369
C42	C	-4.121630	-0.143263	-0.045428
H43	H	-3.875661	-0.497264	-0.140337
H44	H	-3.969470	-0.783856	-0.064857
H45	H	-3.911791	-0.309867	-0.792014
H46	H	-4.311761	-0.319859	-0.908457
H47	H	-3.889759	-0.447591	-0.221040
H48	H	-4.106009	0.019949	-0.788736
C49	C	-3.619990	0.056657	-0.565367
C50	C	-3.657395	0.058206	-0.653278
H51	H	-3.504245	0.123525	-0.519928
H52	H	-3.583245	-0.006718	-0.566588
H53	H	-3.747110	0.052132	-0.549959
H54	H	-3.530280	0.062722	-0.668688
H55	H	-3.694130	0.121598	-0.652059
C56	C	-4.563839	-0.256012	-0.808293
C57	C	-4.391958	-0.157708	-0.741797
H58	H	-4.689917	-0.260162	-0.792091
H59	H	-4.527397	-0.319577	-0.809922
H60	H	-4.590791	-0.254954	-0.867962
H61	H	-4.364995	-0.158769	-0.682128
H62	H	-4.428406	-0.094126	-0.740158
H63	H	-3.678468	-0.133782	-0.832073
C64	C	-4.266277	-0.537363	-0.596179
C65	C	-4.051608	-0.494187	-0.535345
H66	H	-4.274335	-0.508937	-0.642366
H67	H	-4.355165	-0.515338	-0.562000
H68	H	-4.314903	-0.617097	-0.625440
H69	H	-4.002986	-0.414452	-0.506079
H70	H	-3.962689	-0.516204	-0.569528
C71	C	-3.835615	-0.613441	0.064195
C72	C	-3.832616	-0.552155	0.010046
H73	H	-3.784412	-0.563114	0.128319
H74	H	-3.744974	-0.655754	0.054045
H75	H	-3.979509	-0.663007	0.046953
H76	H	-3.688719	-0.502594	0.027283
H77	H	-3.923258	-0.509823	0.020202
C78	C	-4.083858	-1.025835	-0.454179
C79	C	-4.211781	-0.983726	-0.406354
H80	H	-4.126990	-1.104595	-0.472117
H81	H	-3.936108	-0.989987	-0.414629
H82	H	-4.101751	-1.011498	-0.508234
H83	H	-4.193875	-0.998057	-0.352294
H84	H	-4.359566	-1.019586	-0.445905
C85	C	-4.397128	-0.810883	-0.616220
C86	C	-4.185048	-0.737815	-0.590833
H87	H	-4.448321	-0.861219	-0.680341
H88	H	-4.487763	-0.768563	-0.606083
H89	H	-4.399119	-0.852433	-0.579462
H90	H	-4.183059	-0.696259	-0.627587
H91	H	-4.094390	-0.780139	-0.600979
H92	H	-4.215220	-0.874627	-0.522293
