data_functionalizedCrystal
_audit_creation_method	'MofGen! by Chris Wilmer'
_symmetry_space_group_name_H-M	'P1'
_symmetry_Int_Tables_number	1
_symmetry_cell_setting	triclinic
loop_
_symmetry_equiv_pos_as_xyz
  x,y,z
_cell_length_a	12.759401
_cell_length_b	18.101396
_cell_length_c	12.759385
_cell_angle_alpha	90.088083
_cell_angle_beta	89.944098
_cell_angle_gamma	89.962550
loop_
_atom_site_label
_atom_site_type_symbol
_atom_site_fract_x
_atom_site_fract_y
_atom_site_fract_z
Zn1	Zn	1.606479	0.294373	-0.593977
Zn2	Zn	1.606191	0.418355	-0.418293
Zn3	Zn	1.430667	0.294532	-0.418316
Zn4	Zn	1.430701	0.418179	-0.593934
O5	O	1.518510	0.356360	-0.506130
O6	O	1.753462	0.310827	-0.570680
O7	O	1.582772	0.402069	-0.271274
O8	O	1.454095	0.190878	-0.441645
O9	O	1.753250	0.401915	-0.441606
O10	O	1.583264	0.190762	-0.570702
O11	O	1.453815	0.311098	-0.271291
O12	O	1.283650	0.310927	-0.441603
O13	O	1.454154	0.401616	-0.740961
O14	O	1.283676	0.401770	-0.570630
O15	O	1.583297	0.310656	-0.740993
O16	O	1.582805	0.521964	-0.441565
O17	O	1.453874	0.521835	-0.570608
C18	C	1.245542	0.356347	-0.506115
C19	C	1.128766	0.356359	-0.506134
C20	C	1.518341	0.548770	-0.506102
C21	C	1.518365	0.631084	-0.506125
C22	C	1.074015	0.309015	-0.573446
C23	C	0.964291	0.309023	-0.573453
C24	C	0.964078	0.403725	-0.438832
C25	C	1.073800	0.403713	-0.438820
C26	C	1.518552	0.930175	-0.506186
C27	C	1.437624	0.898799	-0.587578
C28	C	1.437252	0.813182	-0.587322
C29	C	1.518459	0.781793	-0.506157
C30	C	1.488402	0.813028	-0.395432
C31	C	1.487867	0.898673	-0.395921
C32	C	1.629717	0.898497	-0.534545
C33	C	1.629078	0.812844	-0.536972
C34	C	1.518408	0.697933	-0.506133
C35	C	1.518599	1.014035	-0.506202
C36	C	1.792543	0.356373	-0.506145
C37	C	1.909319	0.356379	-0.506152
C38	C	1.518671	1.163198	-0.506185
C39	C	1.518646	1.080884	-0.506218
C40	C	1.518319	0.356566	-0.233162
C41	C	1.518415	0.356469	-0.116386
C42	C	1.451713	0.404122	-0.061221
C43	C	1.451796	0.404023	0.048503
C44	C	1.585293	0.308616	0.047888
C45	C	1.585203	0.308712	-0.061834
C46	C	1.518691	0.356171	0.219836
C47	C	1.518588	0.356274	0.103060
H48	H	1.118764	0.270454	-0.628254
O49	O	1.649951	0.262316	-0.115309
C50	C	1.699698	0.136113	-0.149515
C51	C	1.626332	0.188574	-0.088873
H52	H	1.680614	0.076482	-0.128180
H53	H	1.784570	0.148605	-0.128027
H54	H	1.688178	0.144420	-0.237301
H55	H	1.637760	0.180297	-0.001072
H56	H	1.541488	0.176070	-0.110448
H57	H	1.118380	0.442267	-0.384001
O58	O	0.910944	0.263060	-0.638747
C59	C	0.742008	0.221137	-0.698478
C60	C	0.802291	0.273218	-0.624459
H61	H	0.654152	0.229343	-0.686968
H62	H	0.763528	0.161400	-0.680180
H63	H	0.763726	0.234151	-0.783146
H64	H	0.780605	0.260271	-0.539766
H65	H	0.780766	0.332940	-0.642847
H66	H	0.919312	0.442280	-0.384029
H67	H	1.397478	0.442825	0.093413
H68	H	1.456066	0.792055	-0.669423
H69	H	1.456247	0.919285	-0.669946
H70	H	1.355729	0.920400	-0.569030
O71	O	1.386733	0.450531	-0.114051
C72	C	1.254371	0.545178	-0.101855
C73	C	1.327895	0.492647	-0.041899
H74	H	1.206798	0.579253	-0.043547
H75	H	1.199010	0.511538	-0.153229
H76	H	1.302939	0.583669	-0.153187
H77	H	1.279412	0.454144	0.009490
H78	H	1.383261	0.526332	0.009409
O79	O	1.338917	0.788953	-0.564842
C80	C	1.160610	0.822508	-0.524376
C81	C	1.271934	0.850047	-0.549808
H82	H	1.106418	0.871889	-0.512235
H83	H	1.162563	0.787789	-0.449932
H84	H	1.130418	0.787450	-0.592215
H85	H	1.302193	0.885136	-0.482035
H86	H	1.269916	0.884727	-0.624287
O87	O	1.701658	0.922586	-0.463752
C88	C	1.829168	0.888836	-0.333095
C89	C	1.747723	0.861449	-0.413215
H90	H	1.866450	0.839420	-0.292230
H91	H	1.788993	0.925525	-0.272456
H92	H	1.892414	0.921845	-0.375347
H93	H	1.684454	0.828409	-0.371054
H94	H	1.787973	0.824798	-0.473851
H95	H	1.692575	0.791473	-0.482010
H96	H	1.406604	0.918734	-0.371898
O97	O	1.554996	0.923428	-0.320977
C98	C	1.598706	0.925389	-0.137309
C99	C	1.522596	0.897314	-0.222070
H100	H	1.572551	0.904274	-0.057326
H101	H	1.598914	0.988369	-0.136901
H102	H	1.681051	0.904266	-0.154970
H103	H	1.440215	0.918383	-0.204468
H104	H	1.522479	0.834334	-0.222458
H105	H	1.545494	0.792705	-0.333135
O106	O	1.392517	0.787591	-0.366074
C107	C	1.257972	0.787340	-0.233416
C108	C	1.366583	0.816185	-0.266515
H109	H	1.236961	0.810459	-0.152930
H110	H	1.259627	0.724424	-0.229834
H111	H	1.196883	0.805825	-0.293029
H112	H	1.427732	0.797755	-0.206936
H113	H	1.364841	0.879099	-0.270128
H114	H	1.657098	0.919985	-0.613909
H115	H	1.651742	0.792419	-0.618459
H116	H	1.639671	0.269735	0.092317
