data_functionalizedCrystal
_audit_creation_method	'MofGen! by Chris Wilmer'
_symmetry_space_group_name_H-M	'P1'
_symmetry_Int_Tables_number	1
_symmetry_cell_setting	triclinic
loop_
_symmetry_equiv_pos_as_xyz
  x,y,z
_cell_length_a	15.297908
_cell_length_b	12.759401
_cell_length_c	12.759400
_cell_angle_alpha	89.985155
_cell_angle_beta	99.654124
_cell_angle_gamma	99.693292
loop_
_atom_site_label
_atom_site_type_symbol
_atom_site_fract_x
_atom_site_fract_y
_atom_site_fract_z
Zn1	Zn	-0.510023	-1.708997	-0.521048
Zn2	Zn	-0.359176	-1.678504	-0.666348
Zn3	Zn	-0.359192	-1.502915	-0.490687
Zn4	Zn	-0.509991	-1.533281	-0.696679
O5	O	-0.434595	-1.605924	-0.593691
O6	O	-0.490020	-1.851974	-0.540335
O7	O	-0.232938	-1.629742	-0.617646
O8	O	-0.379221	-1.530305	-0.347698
O9	O	-0.379193	-1.829571	-0.647086
O10	O	-0.490036	-1.681713	-0.370004
O11	O	-0.232950	-1.500737	-0.488589
O12	O	-0.379189	-1.359920	-0.518000
O13	O	-0.636235	-1.582060	-0.698781
O14	O	-0.489980	-1.382230	-0.669342
O15	O	-0.636259	-1.711157	-0.569746
O16	O	-0.379161	-1.659186	-0.817388
O17	O	-0.489964	-1.552492	-0.839673
C18	C	-0.434583	-1.332954	-0.593669
C19	C	-0.434599	-1.216181	-0.593689
C20	C	-0.434577	-1.605858	-0.866654
C21	C	-0.434599	-1.605932	-0.983435
C22	C	-0.669895	-1.653397	-0.641034
C23	C	-0.770166	-1.673627	-0.661208
C24	C	-1.052845	-1.462000	-0.449309
C25	C	-0.958636	-1.442994	-0.430344
C26	C	-0.911514	-1.500650	-0.488058
C27	C	-0.958610	-1.577316	-0.564741
C28	C	-1.052828	-1.596330	-0.583703
C29	C	-0.911497	-1.634980	-0.622452
C30	C	-0.958593	-1.711646	-0.699135
C31	C	-1.052802	-1.730655	-0.718094
C32	C	-1.099925	-1.672999	-0.660379
C33	C	-0.817278	-1.615967	-0.603491
C34	C	-0.817262	-1.750297	-0.737885
C35	C	-0.911471	-1.769303	-0.756850
C36	C	-0.200211	-1.558696	-0.546456
C37	C	-0.099941	-1.538669	-0.525985
C38	C	-0.434608	-1.879960	-0.593713
C39	C	-0.434614	-1.996737	-0.593723
C40	C	-0.492193	-1.172944	-0.672581
C41	C	-0.492203	-1.063222	-0.672596
C42	C	-0.377018	-1.039982	-0.514823
C43	C	-0.377013	-1.149703	-0.514805
C44	C	-0.549779	-1.239422	-0.751465
C45	C	-0.607376	-1.196185	-0.830364
C46	C	-0.607386	-1.086463	-0.830380
C47	C	-0.549798	-1.019977	-0.751496
C48	C	-0.376967	-1.661575	-1.026672
C49	C	-0.376995	-1.661645	-1.136401
C50	C	-0.492288	-1.550420	-1.159649
C51	C	-0.492264	-1.550357	-1.049922
C52	C	-0.319302	-1.717150	-0.960185
C53	C	-0.261665	-1.772797	-1.003420
C54	C	-0.261693	-1.772867	-1.113150
C55	C	-0.319357	-1.717290	-1.179644
C56	C	-0.434634	-1.606023	-0.319665
C57	C	-0.434651	-1.606065	-0.202892
H58	H	-0.834804	-1.485171	-0.472612
O59	O	-0.320948	-0.975492	-0.438233
C60	C	-0.231003	-0.984128	-0.442949
H61	H	-0.229073	-1.063401	-0.482931
H62	H	-0.190661	-0.979745	-0.358936
H63	H	-0.200541	-0.916223	-0.490793
H64	H	-0.778942	-1.553546	-0.541053
O65	O	-0.549662	-0.913363	-0.751486
C66	C	-0.463181	-0.859210	-0.760944
H67	H	-0.411223	-0.911931	-0.732433
H68	H	-0.447241	-0.782583	-0.710334
H69	H	-0.461147	-0.839325	-0.847709
H70	H	-0.330122	-1.184908	-0.450557
O71	O	-0.319383	-1.717168	-1.286236
C72	C	-0.296127	-1.611835	-1.318313
H73	H	-0.311480	-1.554364	-1.258215
H74	H	-0.336822	-1.601376	-1.399901
H75	H	-0.221278	-1.594589	-1.322761
O76	O	-0.548210	-1.496447	-1.224382
C77	C	-0.535887	-1.508455	-1.330504
H78	H	-0.466296	-1.528898	-1.331491
H79	H	-0.541955	-1.431000	-1.373485
H80	H	-0.589444	-1.575175	-1.372348
O81	O	-0.319189	-1.717232	-0.853578
C82	C	-0.255919	-1.778190	-0.804160
H83	H	-0.243342	-1.837084	-0.864814
H84	H	-0.283149	-1.823484	-0.736185
H85	H	-0.190107	-1.723296	-0.771521
H86	H	-0.949830	-1.831726	-0.819285
H87	H	-1.176638	-1.688463	-0.675823
H88	H	-0.214721	-1.818053	-0.949277
H89	H	-0.654291	-1.051265	-0.894616
O90	O	-0.548280	-1.496220	-1.008084
C91	C	-0.599197	-1.447201	-1.090296
H92	H	-0.562259	-1.436170	-1.161098
H93	H	-0.608766	-1.366334	-1.060571
H94	H	-0.667735	-1.499458	-1.115699
O95	O	-0.205757	-1.827105	-1.155013
C96	C	-0.225583	-1.935766	-1.132067
H97	H	-0.260264	-1.944815	-1.059371
H98	H	-0.160519	-1.969821	-1.115170
H99	H	-0.271994	-1.980529	-1.203103
O100	O	-0.913029	-1.368456	-0.355855
C101	C	-0.974819	-1.321662	-0.308961
H102	H	-1.041968	-1.331554	-0.365510
H103	H	-0.947595	-1.233397	-0.292261
H104	H	-0.984857	-1.362195	-0.231196
O105	O	-0.771458	-1.806150	-0.794061
C106	C	-0.716932	-1.735306	-0.850922
H107	H	-0.745324	-1.658288	-0.863117
H108	H	-0.715848	-1.773057	-0.931561
H109	H	-0.645536	-1.717288	-0.804068
H110	H	-1.091220	-1.415069	-0.402321
H111	H	-0.549776	-1.328764	-0.751463
O112	O	-1.098447	-1.805263	-0.792504
C113	C	-1.075440	-1.905338	-0.764901
H114	H	-1.007044	-1.893719	-0.710745
H115	H	-1.072197	-1.951769	-0.840075
H116	H	-1.128474	-1.951450	-0.721564
O117	O	-0.663232	-1.260910	-0.906933
C118	C	-0.650892	-1.367027	-0.889991
H119	H	-0.581322	-1.367971	-0.841456
H120	H	-0.656891	-1.409928	-0.969900
H121	H	-0.704482	-1.408993	-0.844918
