data_functionalizedCrystal
_audit_creation_method	'MofGen! by Chris Wilmer'
_symmetry_space_group_name_H-M	'P1'
_symmetry_Int_Tables_number	1
_symmetry_cell_setting	triclinic
loop_
_symmetry_equiv_pos_as_xyz
  x,y,z
_cell_length_a	16.109295
_cell_length_b	10.065875
_cell_length_c	16.109301
_cell_angle_alpha	81.214708
_cell_angle_beta	96.539666
_cell_angle_gamma	81.258551
loop_
_atom_site_label
_atom_site_type_symbol
_atom_site_fract_x
_atom_site_fract_y
_atom_site_fract_z
O1	O	-1.115293	0.113403	0.094630
O2	O	-0.781960	0.446737	0.427964
O3	O	-0.448626	0.780070	0.761297
O4	O	-0.873233	0.113427	0.107932
O5	O	-0.539900	0.446760	0.441265
O6	O	-0.206566	0.780094	0.774598
O7	O	-1.000911	0.113400	-0.019749
O8	O	-0.667578	0.446734	0.313585
O9	O	-0.334244	0.780067	0.646918
O10	O	-0.987615	0.113430	0.222311
O11	O	-0.654282	0.446763	0.555644
O12	O	-0.320948	0.780096	0.888977
O13	O	-0.976565	-0.113583	0.004696
O14	O	-0.643231	0.219750	0.338029
O15	O	-0.309898	0.553083	0.671363
O16	O	-0.848886	-0.113557	0.132376
O17	O	-0.515553	0.219777	0.465710
O18	O	-0.182220	0.553110	0.799043
O19	O	-1.090947	-0.113581	0.119075
O20	O	-0.757613	0.219753	0.452408
O21	O	-0.424280	0.553086	0.785741
Zn22	Zn	-0.966051	-0.149607	0.129607
Zn23	Zn	-0.632718	0.183726	0.462940
Zn24	Zn	-0.299384	0.517059	0.796273
Zn25	Zn	-0.998129	0.149454	0.097400
Zn26	Zn	-0.664795	0.482787	0.430733
Zn27	Zn	-0.331462	0.816120	0.764067
O28	O	-0.963268	-0.113554	0.246755
O29	O	-0.629935	0.219779	0.580088
O30	O	-0.296602	0.553113	0.913422
C31	C	-0.830085	-0.000062	0.119616
C32	C	-0.496752	0.333271	0.452949
C33	C	-0.163418	0.666605	0.786282
C34	C	-0.737790	-0.000054	0.118002
C35	C	-0.404457	0.333280	0.451335
C36	C	-0.071124	0.666613	0.784668
N37	N	-0.944165	-0.353708	0.151586
N38	N	-0.610832	-0.020375	0.484920
N39	N	-0.277498	0.312958	0.818253
C40	C	-0.515517	-0.000059	0.190014
C41	C	-0.182183	0.333274	0.523348
C42	C	0.151150	0.666607	0.856681
C43	C	-0.428795	-0.000068	0.188493
C44	C	-0.095462	0.333266	0.521826
C45	C	0.237871	0.666599	0.855160
C46	C	-0.448668	-0.000080	0.037005
C47	C	-0.115335	0.333253	0.370338
C48	C	0.217998	0.666586	0.703672
C49	C	-0.535387	-0.000082	0.038528
C50	C	-0.202054	0.333252	0.371862
C51	C	0.131280	0.666585	0.705195
C52	C	-0.568810	-0.000064	0.115035
C53	C	-0.235476	0.333269	0.448368
C54	C	0.097857	0.666602	0.781701
C55	C	-0.395369	-0.000071	0.111990
C56	C	-0.062036	0.333262	0.445323
C57	C	0.271297	0.666595	0.778657
C58	C	-0.301342	-0.000080	0.110340
C59	C	0.031991	0.333253	0.443673
C60	C	0.365325	0.666586	0.777007
C61	C	-0.662842	-0.000058	0.116686
C62	C	-0.329509	0.333276	0.450019
C63	C	0.003824	0.666609	0.783352
C64	C	-0.990508	-0.421497	0.105042
C65	C	-0.657175	-0.088163	0.438375
C66	C	-0.323842	0.245170	0.771709
C67	C	-0.973671	-0.578660	0.121965
C68	C	-0.640337	-0.245327	0.455298
C69	C	-0.307004	0.088006	0.788631
C70	C	-0.134094	-0.000087	0.107395
C71	C	0.199239	0.333246	0.440729
C72	C	0.532572	0.666580	0.774062
C73	C	-0.226388	-0.000082	0.109023
C74	C	0.106945	0.333251	0.442357
C75	C	0.440278	0.666585	0.775690
C76	C	-0.988199	-0.000092	-0.038501
C77	C	-0.654866	0.333241	0.294832
C78	C	-0.321532	0.666575	0.628166
C79	C	-0.986584	-0.000094	-0.130796
C80	C	-0.653250	0.333240	0.202537
C81	C	-0.319917	0.666573	0.535871
N82	N	-1.020021	0.353555	0.075414
N83	N	-0.686688	0.686888	0.408747
N84	N	-0.353354	1.020221	0.742080
C85	C	-1.058593	-0.000079	-0.353072
C86	C	-0.725260	0.333254	-0.019738
C87	C	-0.391927	0.666587	0.313595
C88	C	-1.057070	-0.000068	-0.439793
C89	C	-0.723737	0.333265	-0.106460
C90	C	-0.390404	0.666599	0.226874
C91	C	-0.905582	-0.000058	-0.419917
C92	C	-0.572249	0.333275	-0.086583
C93	C	-0.238916	0.666608	0.246750
C94	C	-0.907107	-0.000060	-0.333198
C95	C	-0.573774	0.333273	0.000135
C96	C	-0.240440	0.666607	0.333469
C97	C	-0.983614	-0.000077	-0.299777
C98	C	-0.650281	0.333256	0.033556
C99	C	-0.316948	0.666589	0.366890
C100	C	-0.980567	-0.000064	-0.473218
C101	C	-0.647233	0.333269	-0.139884
C102	C	-0.313900	0.666602	0.193449
C103	C	-0.978915	-0.000052	-0.567245
C104	C	-0.645582	0.333281	-0.233912
C105	C	-0.312248	0.666615	0.099422
C106	C	-0.985267	-0.000087	-0.205744
C107	C	-0.651933	0.333246	0.127589
C108	C	-0.318600	0.666580	0.460923
C109	C	-0.975981	-0.000059	0.265507
C110	C	-0.642647	0.333275	0.598841
C111	C	-0.309314	0.666608	0.932174
C112	C	-0.977597	-0.000048	0.357801
C113	C	-0.644264	0.333285	0.691135
C114	C	-0.310930	0.666619	1.024468
H115	H	-0.385407	-0.000067	0.249549
H116	H	-0.052074	0.333267	0.582883
H117	H	0.281260	0.666600	0.916216
H118	H	-0.542725	-0.000055	0.252312
H119	H	-0.209392	0.333278	0.585645
H120	H	0.123942	0.666611	0.918978
H121	H	-0.421444	-0.000103	-0.025283
H122	H	-0.088111	0.333231	0.308050
H123	H	0.245223	0.666564	0.641384
H124	H	-1.118126	-0.000066	-0.483183
H125	H	-0.784793	0.333267	-0.149850
H126	H	-0.451460	0.666600	0.183484
H127	H	-1.120891	-0.000090	-0.325864
H128	H	-0.787557	0.333243	0.007469
H129	H	-0.454224	0.666576	0.340803
H130	H	-0.846047	-0.000054	-0.289803
H131	H	-0.512713	0.333279	0.043530
H132	H	-0.179380	0.666612	0.376863
N133	N	-0.592874	-0.000103	-0.042344
N134	N	-0.259540	0.333230	0.290989
N135	N	0.073793	0.666564	0.624322
H136	H	-0.558544	-0.000106	-0.091043
H137	H	-0.225211	0.333227	0.242291
H138	H	0.108123	0.666560	0.575624
H139	H	-0.638313	0.084038	-0.054074
H140	H	-0.304980	0.417371	0.279260
H141	H	0.028354	0.750704	0.612593
N142	N	-1.059558	-0.344268	0.035640
N143	N	-0.726224	-0.010934	0.368974
N144	N	-0.392891	0.322399	0.702307
H145	H	-1.061790	-0.242942	0.033380
H146	H	-0.728456	0.090391	0.366713
H147	H	-0.395123	0.423725	0.700047
H148	H	-1.115935	-0.369138	0.047739
H149	H	-0.782602	-0.035805	0.381072
H150	H	-0.449269	0.297528	0.714405
H151	H	-0.843292	-0.000047	-0.447139
H152	H	-0.509959	0.333286	-0.113805
H153	H	-0.176626	0.666620	0.219528
H154	H	-0.921522	-0.636971	0.174342
H155	H	-0.588189	-0.303637	0.507675
H156	H	-0.254856	0.029696	0.841009
H157	H	-1.072164	-0.588135	0.023030
H158	H	-0.738830	-0.254802	0.356364
H159	H	-0.405497	0.078531	0.689697
H160	H	-0.892020	-0.412024	0.203960
H161	H	-0.558687	-0.078690	0.537294
H162	H	-0.225353	0.254643	0.870627
