data_functionalizedCrystal
_audit_creation_method	'MofGen! by Chris Wilmer'
_symmetry_space_group_name_H-M	'P1'
_symmetry_Int_Tables_number	1
_symmetry_cell_setting	triclinic
loop_
_symmetry_equiv_pos_as_xyz
  x,y,z
_cell_length_a	10.654550
_cell_length_b	11.792241
_cell_length_c	9.730223
_cell_angle_alpha	89.998500
_cell_angle_beta	89.996251
_cell_angle_gamma	84.339159
loop_
_atom_site_label
_atom_site_type_symbol
_atom_site_fract_x
_atom_site_fract_y
_atom_site_fract_z
O1	O	1.667383	0.159415	-0.114404
O2	O	1.301862	0.174603	-0.114382
O3	O	1.493493	0.001859	-0.114383
O4	O	1.475752	0.332159	-0.114402
O5	O	1.493490	0.001863	0.114196
O6	O	1.301859	0.174608	0.114198
O7	O	1.667381	0.159419	0.114176
Zn8	Zn	1.484620	0.167014	0.150479
Zn9	Zn	1.484623	0.167008	-0.150685
O10	O	1.475750	0.332163	0.114178
C11	C	1.255066	0.173490	-0.000089
C12	C	1.115632	0.170154	-0.000080
C13	C	1.035858	0.271863	-0.000106
C14	C	0.904847	0.268721	-0.000129
C15	C	0.933394	0.062152	-0.000107
C16	C	1.064404	0.065295	-0.000074
C17	C	1.087087	0.376722	-0.000112
C18	C	1.007312	0.478439	-0.000139
C19	C	0.876300	0.475297	-0.000163
C20	C	0.825063	0.370438	-0.000159
C21	C	1.492377	-0.040432	-0.000094
C22	C	1.489042	-0.166454	-0.000095
C23	C	1.482908	-0.397180	-0.000118
C24	C	1.486316	-0.268787	-0.000105
C25	C	1.714177	0.160532	-0.000120
C26	C	1.853611	0.163869	-0.000137
C27	C	1.476865	0.374455	-0.000114
C28	C	1.480201	0.500476	-0.000122
N29	N	1.484627	0.167017	0.356016
N30	N	1.484625	0.166996	-0.356221
C31	C	1.569503	0.090552	0.427941
C32	C	1.569500	0.090539	0.571824
C33	C	1.399740	0.243465	0.571844
C34	C	1.399739	0.243472	0.427963
C35	C	1.654391	0.014098	0.355993
C36	C	1.739275	-0.062373	0.427919
C37	C	1.739272	-0.062387	0.571802
C38	C	1.654385	0.014070	0.643759
H39	H	0.811350	0.558120	-0.000171
O40	O	1.654382	0.014063	0.798949
H41	H	1.633734	-0.070902	0.836887
O42	O	1.654380	0.014105	0.200806
H43	H	1.727656	-0.051911	0.162857
H44	H	1.330623	0.305736	0.369401
H45	H	0.718383	0.367888	-0.000157
H46	H	1.330630	0.305714	0.630441
H47	H	1.808379	-0.124659	0.630362
H48	H	1.129358	-0.017526	-0.000057
O49	O	1.228392	0.380106	-0.000074
H50	H	1.250616	0.470105	-0.000070
O51	O	0.878140	-0.050942	-0.000115
H52	H	0.773638	-0.036040	-0.000155
H53	H	1.049039	0.563812	-0.000130
H54	H	1.808381	-0.124628	0.369323
