data_functionalizedCrystal
_audit_creation_method	'MofGen! by Chris Wilmer'
_symmetry_space_group_name_H-M	'P1'
_symmetry_Int_Tables_number	1
_symmetry_cell_setting	triclinic
loop_
_symmetry_equiv_pos_as_xyz
  x,y,z
_cell_length_a	15.944551
_cell_length_b	10.654550
_cell_length_c	9.130313
_cell_angle_alpha	89.996220
_cell_angle_beta	89.997799
_cell_angle_gamma	83.991820
loop_
_atom_site_label
_atom_site_type_symbol
_atom_site_fract_x
_atom_site_fract_y
_atom_site_fract_z
O1	O	0.117973	1.666308	-0.121923
O2	O	0.129213	1.300684	-0.121900
O3	O	0.001376	1.493480	-0.121899
O4	O	0.245810	1.473511	-0.121924
O5	O	0.001379	1.493478	0.121700
O6	O	0.129216	1.300681	0.121699
O7	O	0.117976	1.666305	0.121676
Cu8	Cu	0.123596	1.483493	0.143930
Cu9	Cu	0.123592	1.483496	-0.144154
O10	O	0.245813	1.473509	0.121675
C11	C	0.128389	1.253895	-0.000098
C12	C	0.125920	1.114484	-0.000088
C13	C	-0.029921	1.492650	-0.000099
C14	C	-0.123182	1.490165	-0.000098
C15	C	0.201188	1.034024	-0.000117
C16	C	0.198863	0.903034	-0.000142
C17	C	0.045995	0.932975	-0.000116
C18	C	0.048321	1.063963	-0.000080
C19	C	0.278788	1.084545	-0.000126
C20	C	0.354062	1.004084	-0.000156
C21	C	0.351737	0.873094	-0.000182
C22	C	0.274137	0.822564	-0.000176
C23	C	-0.338765	1.364720	-0.000111
C24	C	-0.399443	1.422971	0.119995
C25	C	-0.293934	1.485668	-0.000109
C26	C	-0.399430	1.423002	-0.120175
C27	C	-0.458872	1.481317	-0.000126
C28	C	-0.353384	1.543953	0.120095
C29	C	-0.353364	1.543967	-0.120182
C30	C	-0.414024	1.602306	-0.000048
C31	C	-0.198917	1.488172	-0.000098
C32	C	-0.553887	1.478822	-0.000127
C33	C	0.277110	1.474339	-0.000128
C34	C	0.370371	1.476824	-0.000139
C35	C	0.118800	1.713094	-0.000130
C36	C	0.121269	1.852505	-0.000149
N37	N	0.123599	1.483500	0.346552
N38	N	0.123583	1.483499	-0.346777
C39	C	0.067012	1.568892	0.423205
C40	C	0.067002	1.568889	0.576542
C41	C	0.180173	1.398098	0.576560
C42	C	0.180178	1.398096	0.423226
C43	C	0.010433	1.654296	0.346531
C44	C	-0.046158	1.739696	0.423184
C45	C	-0.046168	1.739693	0.576520
C46	C	0.010412	1.654290	0.653205
H47	H	0.280689	1.191203	-0.000112
O48	O	-0.457187	1.735397	-0.000057
H49	H	-0.497600	1.750024	0.098731
H50	H	-0.012970	1.129476	-0.000060
H51	H	-0.092229	1.809222	0.360739
O52	O	-0.326295	1.611674	-0.254689
H53	H	-0.344534	1.561273	-0.354245
O54	O	-0.295394	1.231752	0.000058
H55	H	-0.314619	1.181109	-0.098647
H56	H	-0.419804	1.371831	-0.221721
O57	O	-0.326516	1.611666	0.254739
H58	H	-0.382896	1.643507	0.321595
O59	O	0.010438	1.654285	0.181147
H60	H	-0.038416	1.728007	0.140705
O61	O	-0.426471	1.355224	0.254513
H62	H	-0.396053	1.256635	0.254278
O63	O	-0.107195	1.831804	0.659204
H64	H	-0.146527	1.891196	0.580122
H65	H	0.010394	1.654286	0.778062
H66	H	-0.017184	0.891822	-0.000135
H67	H	0.226239	1.328567	0.639006
H68	H	0.226256	1.328561	0.360815
O69	O	0.271635	0.681278	-0.000192
H70	H	0.238036	0.653184	0.099101
O71	O	0.437758	1.058570	-0.000148
H72	H	0.442479	1.117544	-0.099429
O73	O	0.432919	0.786305	-0.000207
H74	H	0.487266	0.843447	-0.000216
