data_functionalizedCrystal
_audit_creation_method	'MofGen! by Chris Wilmer'
_symmetry_space_group_name_H-M	'P1'
_symmetry_Int_Tables_number	1
_symmetry_cell_setting	triclinic
loop_
_symmetry_equiv_pos_as_xyz
  x,y,z
_cell_length_a	12.759401
_cell_length_b	16.625546
_cell_length_c	12.759401
_cell_angle_alpha	90.012536
_cell_angle_beta	90.006940
_cell_angle_gamma	90.023993
loop_
_atom_site_label
_atom_site_type_symbol
_atom_site_fract_x
_atom_site_fract_y
_atom_site_fract_z
Zn1	Zn	1.606064	-0.321110	0.593986
Zn2	Zn	2.106064	0.178890	1.093986
Zn3	Zn	1.605975	-0.455911	0.418292
Zn4	Zn	2.105975	0.044089	0.918292
Zn5	Zn	1.430406	-0.321099	0.418321
Zn6	Zn	1.930406	0.178901	0.918321
Zn7	Zn	1.430331	-0.455907	0.593929
Zn8	Zn	1.930331	0.044093	1.093929
O9	O	1.518194	-0.388507	0.506132
O10	O	2.018194	0.111493	1.006132
O11	O	1.753074	-0.338997	0.570691
O12	O	2.253074	0.161003	1.070691
O13	O	1.582679	-0.438025	0.271275
O14	O	2.082679	0.061975	0.771275
O15	O	1.453776	-0.208268	0.441659
O16	O	1.953776	0.291732	0.941659
O17	O	1.753008	-0.438035	0.441610
O18	O	2.253008	0.061965	0.941610
O19	O	1.582832	-0.208276	0.570720
O20	O	2.082832	0.291724	1.070720
O21	O	1.453689	-0.338979	0.271296
O22	O	1.953689	0.161021	0.771296
O23	O	1.283375	-0.338976	0.441604
O24	O	1.783375	0.161024	0.941604
O25	O	1.453649	-0.438029	0.740958
O26	O	1.953649	0.061971	1.240958
O27	O	1.283320	-0.438019	0.570623
O28	O	1.783320	0.061981	1.070623
O29	O	1.582759	-0.338994	0.740999
O30	O	2.082759	0.161006	1.240999
O31	O	1.582606	-0.568743	0.441555
O32	O	2.082606	-0.068743	0.941555
O33	O	1.453562	-0.568740	0.570594
O34	O	1.953562	-0.068740	1.070594
C35	C	1.245227	-0.388497	0.506111
C36	C	1.745227	0.111503	1.006111
C37	C	1.128450	-0.388512	0.506127
C38	C	1.628450	0.111488	1.006127
C39	C	1.073587	-0.440162	0.573201
C40	C	1.573587	0.059838	1.073201
C41	C	0.963863	-0.440165	0.573222
C42	C	1.463863	0.059835	1.073222
C43	C	0.963875	-0.336866	0.439086
C44	C	1.463875	0.163134	0.939086
C45	C	1.073597	-0.336859	0.439071
C46	C	1.573597	0.163141	0.939071
C47	C	1.518095	-0.597998	0.506088
C48	C	2.018095	-0.097998	1.006088
C49	C	1.518148	-0.687619	0.506104
C50	C	2.018148	-0.187619	1.006104
C51	C	1.518332	-1.015794	0.506214
C52	C	2.018332	-0.515794	1.006214
C53	C	1.518277	-0.924486	0.506186
C54	C	2.018277	-0.424486	1.006186
C55	C	1.518239	-0.851709	0.506158
C56	C	2.018239	-0.351709	1.006158
C57	C	1.518186	-0.760395	0.506132
C58	C	2.018186	-0.260395	1.006132
C59	C	1.792227	-0.388517	0.506154
C60	C	2.292227	0.111483	1.006154
C61	C	1.909004	-0.388522	0.506163
C62	C	2.409004	0.111478	1.006163
C63	C	1.518206	-0.388512	0.780165
C64	C	2.018206	0.111488	1.280165
C65	C	1.518211	-0.388515	0.896942
C66	C	2.018211	0.111485	1.396942
C67	C	1.518323	-0.178198	0.506199
C68	C	2.018323	0.321802	1.006199
C69	C	1.518377	-0.088577	0.506228
C70	C	2.018377	0.411423	1.006228
C71	C	1.585430	-0.336955	0.951827
C72	C	2.085430	0.163045	1.451827
C73	C	1.585421	-0.336954	1.061551
C74	C	2.085421	0.163046	1.561551
C75	C	1.450970	-0.440078	1.061495
C76	C	1.950970	0.059922	1.561495
C77	C	1.450975	-0.440075	0.951773
C78	C	1.950975	0.059925	1.451773
C79	C	1.518182	-0.388519	1.233165
C80	C	2.018182	0.111481	1.733165
C81	C	1.518197	-0.388516	1.116388
C82	C	2.018197	0.111484	1.616388
H83	H	0.919200	-0.294813	0.384489
H84	H	1.419200	0.205187	0.884489
H85	H	1.396232	-0.482058	1.106152
H86	H	1.896232	0.017942	1.606152
F87	F	1.656986	-0.282078	0.893476
F88	F	2.156986	0.217922	1.393476
H89	H	1.118245	-0.482219	0.627805
H90	H	1.618245	0.017781	1.127805
F91	F	0.905478	-0.495137	0.644614
F92	F	1.405478	0.004863	1.144614
F93	F	1.656972	-0.282082	1.119960
F94	F	2.156972	0.217918	1.619960
H95	H	1.396229	-0.482060	0.907084
H96	H	1.896229	0.017940	1.407084
H97	H	1.118268	-0.294795	0.384451
H98	H	1.618268	0.205205	0.884451
