data_functionalizedCrystal
_audit_creation_method	'MofGen! by Chris Wilmer'
_symmetry_space_group_name_H-M	'P1'
_symmetry_Int_Tables_number	1
_symmetry_cell_setting	triclinic
loop_
_symmetry_equiv_pos_as_xyz
  x,y,z
_cell_length_a	16.109301
_cell_length_b	12.837942
_cell_length_c	15.186229
_cell_angle_alpha	89.996774
_cell_angle_beta	89.999362
_cell_angle_gamma	89.145211
loop_
_atom_site_label
_atom_site_type_symbol
_atom_site_fract_x
_atom_site_fract_y
_atom_site_fract_z
O1	O	1.113716	0.133240	-0.073172
O2	O	0.872971	0.149822	-0.073186
O3	O	0.988005	-0.009370	-0.073174
O4	O	0.998681	0.292432	-0.073184
O5	O	0.987996	-0.009372	0.073283
O6	O	0.872962	0.149820	0.073271
O7	O	1.113707	0.133238	0.073285
Zn8	Zn	0.993333	0.141528	0.096532
Zn9	Zn	0.993345	0.141531	-0.096432
O10	O	0.998673	0.292430	0.073273
C11	C	0.841938	0.149149	0.000041
C12	C	0.749483	0.147135	0.000036
C13	C	0.534343	0.236914	0.000043
C14	C	0.447471	0.235014	0.000049
C15	C	0.452341	0.046138	0.000051
C16	C	0.539211	0.048040	0.000052
C17	C	0.580209	0.143431	0.000043
C18	C	0.406468	0.139629	0.000048
C19	C	0.312278	0.137568	0.000055
C20	C	0.674405	0.145492	0.000039
C21	C	0.984394	-0.047991	0.000054
C22	C	0.973637	-0.163064	0.000052
C23	C	1.102954	-0.404066	0.000041
C24	C	1.092851	-0.512188	0.000039
C25	C	0.943328	-0.487433	0.000040
C26	C	0.953431	-0.379311	0.000042
C27	C	1.033247	-0.337632	0.000044
C28	C	1.043349	-0.229507	0.000052
C29	C	0.893827	-0.204754	0.000046
C30	C	0.883724	-0.312876	0.000044
C31	C	1.144739	0.133911	0.000056
C32	C	1.237195	0.135924	0.000056
C33	C	1.002284	0.331050	0.000043
C34	C	1.013041	0.446124	0.000040
N35	N	0.993331	0.141526	0.228224
N36	N	0.993352	0.141526	-0.228125
C37	C	1.044289	0.071059	0.453952
C38	C	1.044292	0.071057	0.546142
C39	C	0.942388	0.211996	0.546141
C40	C	0.942382	0.211992	0.453953
C41	C	0.993337	0.141525	0.407861
C42	C	0.993346	0.141526	0.592239
C43	C	0.993348	0.141524	0.692195
C44	C	0.993334	0.141526	0.307898
H45	H	0.418949	-0.031526	0.000064
O46	O	0.583645	-0.042872	0.000012
C47	C	0.579315	-0.230412	0.000069
C48	C	0.528893	-0.127540	0.000089
H49	H	0.535070	-0.298892	0.000150
H50	H	0.620089	-0.234310	-0.061236
H51	H	0.620126	-0.234185	0.061348
H52	H	0.488035	-0.123698	-0.061149
H53	H	0.488173	-0.123684	0.061434
H54	H	1.085779	0.013679	0.416427
H55	H	0.900887	0.269374	0.416422
O56	O	1.120895	-0.189065	-0.000106
C57	C	1.251793	-0.177186	-0.075967
C58	C	1.163990	-0.223032	-0.075902
H59	H	1.286667	-0.204648	-0.137232
H60	H	1.247092	-0.088492	-0.076021
H61	H	1.286644	-0.204536	-0.014650
H62	H	1.129089	-0.195761	-0.137208
H63	H	1.168750	-0.311721	-0.075802
O64	O	0.574039	0.329663	0.000081
C65	C	0.560036	0.516801	0.000033
C66	C	0.514979	0.411833	0.000007
H67	H	0.512306	0.583263	-0.000046
H68	H	0.600559	0.522479	0.061339
H69	H	0.600609	0.522363	-0.061245
H70	H	0.474362	0.406200	0.061243
H71	H	0.474507	0.406200	-0.061340
O72	O	1.093712	0.002648	0.591052
C73	C	1.138921	-0.059775	0.733071
C74	C	1.082897	0.017742	0.682322
H75	H	1.130210	-0.047583	0.806871
H76	H	1.121511	-0.142830	0.715015
H77	H	1.206570	-0.046251	0.714886
H78	H	1.015232	0.004314	0.700479
H79	H	1.100378	0.100770	0.700382
O80	O	0.892976	0.280411	0.591052
C81	C	0.847790	0.342844	0.733072
C82	C	0.903803	0.265319	0.682322
H83	H	0.856511	0.330654	0.806872
H84	H	0.865202	0.425896	0.715002
H85	H	0.780138	0.329324	0.714902
H86	H	0.971471	0.278743	0.700465
H87	H	0.886320	0.182294	0.700396
H88	H	1.167943	-0.370130	0.000051
H89	H	0.410130	0.311138	0.000050
O90	O	0.865861	-0.528103	0.000074
C91	C	0.784040	-0.683709	0.000009
C92	C	0.871819	-0.637790	-0.000011
H93	H	0.788827	-0.772396	-0.000078
H94	H	0.749138	-0.656436	0.061317
H95	H	0.749165	-0.656278	-0.061267
H96	H	0.906763	-0.665200	0.061224
H97	H	0.906657	-0.665057	-0.061359
H98	H	0.818741	-0.346827	0.000039
O99	O	1.160627	-0.576618	-0.000078
C100	C	1.285306	-0.630893	-0.075983
C101	C	1.208592	-0.557851	-0.075947
H102	H	1.324098	-0.615761	-0.137325
H103	H	1.324218	-0.615731	-0.014732
H104	H	1.264359	-0.715323	-0.075942
H105	H	1.229466	-0.473395	-0.076019
H106	H	1.169697	-0.573102	-0.137192
O107	O	0.826133	-0.140177	-0.000109
C108	C	0.750785	-0.003687	-0.075949
C109	C	0.827471	-0.076774	-0.075897
H110	H	0.751850	0.047608	-0.137208
H111	H	0.691980	-0.052004	-0.076008
H112	H	0.751781	0.047495	-0.014626
H113	H	0.826555	-0.127972	-0.137210
H114	H	0.886242	-0.028395	-0.075793
