data_functionalizedCrystal
_audit_creation_method	'MofGen! by Chris Wilmer'
_symmetry_space_group_name_H-M	'P1'
_symmetry_Int_Tables_number	1
_symmetry_cell_setting	triclinic
loop_
_symmetry_equiv_pos_as_xyz
  x,y,z
_cell_length_a	23.532407
_cell_length_b	27.731996
_cell_length_c	22.010155
_cell_angle_alpha	89.998256
_cell_angle_beta	89.994271
_cell_angle_gamma	82.735067
loop_
_atom_site_label
_atom_site_type_symbol
_atom_site_fract_x
_atom_site_fract_y
_atom_site_fract_z
O1	O	0.755125	0.058674	-0.050495
O2	O	1.255125	0.558674	0.449505
O3	O	0.589242	0.067164	-0.050505
O4	O	1.089242	0.567164	0.449495
O5	O	0.677351	-0.007472	-0.050486
O6	O	1.177351	0.492528	0.449514
O7	O	0.667016	0.133310	-0.050513
O8	O	1.167016	0.633310	0.449487
O9	O	0.677335	-0.007460	0.050564
O10	O	1.177335	0.492540	0.550564
O11	O	0.589226	0.067175	0.050545
O12	O	1.089226	0.567175	0.550545
O13	O	0.755109	0.058685	0.050556
O14	O	1.255109	0.558685	0.550556
Cu15	Cu	0.672166	0.062931	0.059777
Cu16	Cu	1.172166	0.562931	0.559777
Cu17	Cu	0.672185	0.062918	-0.059727
Cu18	Cu	1.172185	0.562918	0.440273
O19	O	0.667000	0.133321	0.050537
O20	O	1.167000	0.633321	0.550537
C21	C	0.568019	0.066954	0.000019
C22	C	1.068019	0.566954	0.500019
C23	C	0.504803	0.066303	0.000015
C24	C	1.004803	0.566303	0.500015
C25	C	0.238746	0.019455	0.000041
C26	C	0.738746	0.519455	0.500041
C27	C	0.298145	0.020059	0.000040
C28	C	0.798145	0.520059	0.500040
O29	O	0.334977	-0.017106	0.000069
O30	O	0.834977	0.482894	0.500069
N31	N	0.320666	0.064430	0.000028
N32	N	0.820666	0.564430	0.500028
C33	C	0.283786	0.108200	0.000022
C34	C	0.783786	0.608200	0.500022
O35	O	0.308396	0.145996	0.000011
O36	O	0.808396	0.645996	0.500011
C37	C	0.224388	0.107595	0.000026
C38	C	0.724388	0.607595	0.500026
C39	C	0.201870	0.063221	0.000033
C40	C	0.701870	0.563221	0.500033
C41	C	0.216227	-0.024915	0.000048
C42	C	0.716227	0.475085	0.500048
C43	C	0.156832	-0.025519	0.000047
C44	C	0.656832	0.474481	0.500047
C45	C	0.119956	0.018248	0.000039
C46	C	0.619956	0.518248	0.500039
C47	C	0.142475	0.062618	0.000032
C48	C	0.642475	0.562618	0.500032
C49	C	0.187509	0.151365	0.000024
C50	C	0.687509	0.651365	0.500024
C51	C	0.128108	0.150757	0.000030
C52	C	0.628108	0.650757	0.500030
C53	C	0.105589	0.106383	0.000036
C54	C	0.605589	0.606383	0.500036
C55	C	0.046205	0.105781	0.000023
C56	C	0.546205	0.605781	0.500023
N57	N	0.023683	0.061410	0.000036
N58	N	0.523683	0.561410	0.500036
C59	C	0.060559	0.017643	0.000044
C60	C	0.560559	0.517643	0.500044
C61	C	0.408525	0.109465	0.000013
C62	C	0.908525	0.609465	0.500013
C63	C	0.467922	0.110070	0.000004
C64	C	0.967922	0.610070	0.500004
C65	C	0.482277	0.021929	0.000024
C66	C	0.982277	0.521929	0.500024
C67	C	0.422879	0.021325	0.000029
C68	C	0.922879	0.521325	0.500029
C69	C	0.386004	0.065095	0.000026
C70	C	0.886004	0.565095	0.500026
C71	C	-0.064175	0.016379	0.000041
C72	C	0.435825	0.516379	0.500041
C73	C	-0.123576	0.015779	0.000038
C74	C	0.376424	0.515779	0.500038
C75	C	-0.137925	0.103920	0.000021
C76	C	0.362075	0.603920	0.500021
C77	C	-0.078530	0.104520	0.000021
C78	C	0.421470	0.604520	0.500021
C79	C	-0.041656	0.060745	0.000033
C80	C	0.458344	0.560745	0.500033
O81	O	0.009338	0.142926	-0.000003
O82	O	0.509338	0.642926	0.499997
O83	O	0.035940	-0.020147	0.000062
O84	O	0.535940	0.479853	0.500062
C85	C	0.677131	-0.025474	0.000041
C86	C	1.177131	0.474526	0.500041
C87	C	0.676491	-0.079131	0.000047
C88	C	1.176491	0.420869	0.500047
C89	C	0.672477	-0.411860	-0.055066
C90	C	1.172477	0.088140	0.444934
C91	C	0.670049	-0.613522	-0.055076
C92	C	1.170049	-0.113522	0.444924
O93	O	0.669718	-0.639598	-0.101922
O94	O	1.169718	-0.139598	0.398078
N95	N	0.669738	-0.638733	0.000006
N96	N	1.169738	-0.138733	0.500006
C97	C	0.670031	-0.613526	0.055094
C98	C	1.170031	-0.113526	0.555094
O99	O	0.669706	-0.639596	0.101945
O100	O	1.169706	-0.139596	0.601945
C101	C	0.672456	-0.411864	0.055104
C102	C	1.172456	0.088136	0.555104
C103	C	0.672772	-0.386656	0.000019
C104	C	1.172772	0.113344	0.500019
C105	C	0.672792	-0.386651	-0.110147
C106	C	1.172792	0.113349	0.389853
C107	C	0.673403	-0.336239	-0.110143
C108	C	1.173403	0.163761	0.389857
C109	C	0.673697	-0.311035	-0.055059
C110	C	1.173697	0.188965	0.444941
C111	C	0.673382	-0.336244	0.000022
C112	C	1.173382	0.163756	0.500022
C113	C	0.672744	-0.386657	0.110192
C114	C	1.172744	0.113343	0.610192
C115	C	0.673349	-0.336238	0.110190
C116	C	1.173349	0.163762	0.610190
C117	C	0.673665	-0.311030	0.055104
C118	C	1.173665	0.188970	0.555104
C119	C	0.674287	-0.260628	0.055110
C120	C	1.174287	0.239372	0.555110
N121	N	0.674597	-0.235416	0.000028
N122	N	1.174597	0.264584	0.500028
C123	C	0.674302	-0.260620	-0.055057
C124	C	1.174302	0.239380	0.444943
C125	C	0.668760	-0.719401	0.055085
C126	C	1.168760	-0.219401	0.555085
C127	C	0.668155	-0.769816	0.055083
C128	C	1.168155	-0.269816	0.555083
C129	C	0.668171	-0.769809	-0.055088
C130	C	1.168171	-0.269809	0.444912
C131	C	0.668780	-0.719393	-0.055085
C132	C	1.168780	-0.219393	0.444915
C133	C	0.669070	-0.694189	0.000003
C134	C	1.169070	-0.194189	0.500003
C135	C	0.675584	-0.154751	-0.055046
C136	C	1.175584	0.345249	0.444954
C137	C	0.676197	-0.104335	-0.055037
C138	C	1.176197	0.395665	0.444963
C139	C	0.676177	-0.104346	0.055133
C140	C	1.176177	0.395654	0.555133
C141	C	0.675568	-0.154759	0.055125
C142	C	1.175568	0.345241	0.555125
C143	C	0.675269	-0.179959	0.000031
C144	C	1.175269	0.320041	0.500031
O145	O	0.674612	-0.234520	0.101931
O146	O	1.174612	0.265480	0.601931
O147	O	0.674615	-0.234539	-0.101900
O148	O	1.174615	0.265461	0.398100
C149	C	0.671867	-0.462272	-0.055069
C150	C	1.171867	0.037728	0.444931
C151	C	0.671551	-0.487480	0.000012
C152	C	1.171551	0.012520	0.500012
C153	C	0.671846	-0.462276	0.055097
C154	C	1.171846	0.037724	0.555097
C155	C	0.670946	-0.537895	0.000010
C156	C	1.170946	-0.037895	0.500010
C157	C	0.670652	-0.563099	-0.055075
C158	C	1.170652	-0.063099	0.444925
C159	C	0.670962	-0.537888	-0.110157
C160	C	1.170962	-0.037888	0.389843
C161	C	0.671572	-0.487475	-0.110153
C162	C	1.171572	0.012525	0.389847
C163	C	0.671536	-0.487488	0.110179
C164	C	1.171536	0.012512	0.610179
C165	C	0.670926	-0.537900	0.110171
C166	C	1.170926	-0.037900	0.610171
C167	C	0.670632	-0.563104	0.055087
C168	C	1.170632	-0.063104	0.555087
C169	C	0.776333	0.058896	0.000030
C170	C	1.276333	0.558896	0.500030
C171	C	0.839548	0.059546	0.000030
C172	C	1.339548	0.559546	0.500030
C173	C	0.667221	0.151323	0.000008
C174	C	1.167221	0.651323	0.500008
C175	C	0.667860	0.204980	-0.000002
C176	C	1.167860	0.704980	0.499998
N177	N	0.672157	0.062940	0.143830
N178	N	1.172157	0.562940	0.643830
N179	N	0.672199	0.062905	-0.143779
N180	N	1.172199	0.562905	0.356221
C181	C	0.711202	0.029874	0.563617
C182	C	1.211202	0.529874	1.063617
C183	C	0.711205	0.029871	0.627225
C184	C	1.211205	0.529871	1.127225
O185	O	0.744379	0.001763	0.660123
O186	O	1.244379	0.501763	1.160123
N187	N	0.672185	0.062908	0.659037
N188	N	1.172185	0.562908	1.159037
C189	C	0.633156	0.095947	0.627238
C190	C	1.133156	0.595947	1.127238
O191	O	0.599966	0.124048	0.660137
O192	O	1.099966	0.624048	1.160137
C193	C	0.633151	0.095948	0.563631
C194	C	1.133151	0.595948	1.063631
C195	C	0.672177	0.062912	0.531823
C196	C	1.172177	0.562912	1.031823
C197	C	0.750225	-0.003160	0.531809
C198	C	1.250225	0.496840	1.031809
C199	C	0.750223	-0.003156	0.468206
C200	C	1.250223	0.496844	0.968206
C201	C	0.711198	0.029882	0.436411
C202	C	1.211198	0.529882	0.936411
C203	C	0.672175	0.062916	0.468219
C204	C	1.172175	0.562916	0.968219
C205	C	0.594120	0.128985	0.531833
C206	C	1.094120	0.628985	1.031833
C207	C	0.594118	0.128982	0.468222
C208	C	1.094118	0.628982	0.968222
C209	C	0.633144	0.095946	0.436414
C210	C	1.133144	0.595946	0.936414
C211	C	0.633148	0.095958	0.372822
C212	C	1.133148	0.595958	0.872822
N213	N	0.672168	0.062921	0.341010
N214	N	1.172168	0.562921	0.841010
C215	C	0.711193	0.029883	0.372804
C216	C	1.211193	0.529883	0.872804
C217	C	0.633169	0.095943	0.760815
C218	C	1.133169	0.595943	1.260815
C219	C	0.633176	0.095945	0.824421
C220	C	1.133176	0.595945	1.324421
C221	C	0.711224	0.029867	0.824404
C222	C	1.211224	0.529867	1.324404
C223	C	0.711219	0.029868	0.760797
C224	C	1.211219	0.529868	1.260797
C225	C	0.672189	0.062906	0.729004
C226	C	1.172189	0.562906	1.229004
C227	C	0.711186	0.029894	0.239233
C228	C	1.211186	0.529894	0.739233
C229	C	0.711182	0.029902	0.175624
C230	C	1.211182	0.529902	0.675624
C231	C	0.633132	0.095978	0.175647
C232	C	1.133132	0.595978	0.675647
C233	C	0.633138	0.095971	0.239250
C234	C	1.133138	0.595971	0.739250
C235	C	0.672167	0.062925	0.271042
C236	C	1.172167	0.562925	0.771042
O237	O	0.599989	0.124050	0.339883
O238	O	1.099989	0.624050	0.839883
O239	O	0.744372	0.001783	0.339898
O240	O	1.244372	0.501783	0.839898
H241	H	-0.141906	-0.020357	0.000042
H242	H	0.358094	0.479643	0.500042
H243	H	0.676420	-0.083817	0.099981
H244	H	1.176420	0.416183	0.599981
H245	H	0.246247	-0.060558	0.000056
H246	H	0.746247	0.439442	0.500056
H247	H	0.675338	-0.175263	-0.099909
H248	H	1.175338	0.324737	0.400091
H249	H	0.601360	0.122878	0.149750
H250	H	1.101360	0.622878	0.649750
H251	H	0.404549	-0.014808	0.000034
H252	H	0.904549	0.485192	0.500034
H253	H	0.742966	0.002984	0.265111
H254	H	1.242966	0.502984	0.765111
H255	H	0.782003	-0.030066	0.557690
H256	H	1.282003	0.469934	1.057690
H257	H	0.672488	-0.407173	0.155049
H258	H	1.172488	0.092827	0.655049
H259	H	0.562341	0.155886	0.557723
H260	H	1.062341	0.655886	1.057723
H261	H	0.672550	-0.407167	-0.155006
H262	H	1.172550	0.092833	0.344994
H263	H	0.782000	-0.030058	0.442311
H264	H	1.282000	0.469942	0.942311
H265	H	0.667906	-0.790337	0.099939
H266	H	1.167906	-0.290337	0.599939
H267	H	0.512312	-0.013708	0.000031
H268	H	1.012312	0.486292	0.500031
H269	H	0.601365	0.122877	0.265149
H270	H	1.101365	0.622877	0.765149
H271	H	-0.060195	0.140653	0.000015
H272	H	0.439805	0.640653	0.500015
H273	H	-0.167960	0.139553	0.000012
H274	H	0.332040	0.639553	0.500012
H275	H	0.742964	0.003000	0.149728
H276	H	1.242964	0.503000	0.649728
H277	H	0.562333	0.155885	0.442339
H278	H	1.062333	0.655885	0.942339
H279	H	0.742997	0.002967	0.734902
H280	H	1.242997	0.502967	1.234902
H281	H	0.671777	-0.466972	0.155036
H282	H	1.171777	0.033028	0.655036
H283	H	0.676455	-0.083813	-0.099897
H284	H	1.176455	0.416187	0.400103
H285	H	0.671829	-0.466955	-0.155010
H286	H	1.171829	0.033045	0.344990
H287	H	0.378504	0.145110	0.000006
H288	H	0.878504	0.645110	0.500006
H289	H	-0.034158	-0.019267	0.000051
H290	H	0.465842	0.480733	0.500051
H291	H	0.668999	-0.698885	0.099947
H292	H	1.168999	-0.198885	0.599947
H293	H	0.669037	-0.698871	-0.099941
H294	H	1.169037	-0.198871	0.400059
H295	H	0.205832	0.187499	0.000016
H296	H	0.705832	0.687499	0.500016
H297	H	0.673658	-0.315719	-0.155000
H298	H	1.173658	0.184281	0.345000
H299	H	0.742999	0.002965	0.850302
H300	H	1.242999	0.502965	1.350302
H301	H	0.601403	0.122851	0.850315
H302	H	1.101403	0.622851	1.350315
H303	H	0.667932	-0.790338	-0.099940
H304	H	1.167932	-0.290338	0.400060
H305	H	0.138504	-0.061653	0.000055
H306	H	0.638504	0.438347	0.500055
H307	H	0.098086	0.186400	0.000030
H308	H	0.598086	0.686400	0.500030
H309	H	0.673577	-0.315719	0.155051
H310	H	1.173577	0.184281	0.655051
H311	H	0.601387	0.122850	0.734932
H312	H	1.101387	0.622850	1.234932
H313	H	0.675316	-0.175285	0.099980
H314	H	1.175316	0.324715	0.599980
H315	H	0.670725	-0.558418	-0.155008
H316	H	1.170725	-0.058418	0.344992
H317	H	0.486250	0.146204	-0.000010
H318	H	0.986250	0.646204	0.499990
H319	H	0.670673	-0.558421	0.155032
H320	H	1.170673	-0.058421	0.655032
