data_functionalizedCrystal
_audit_creation_method	'MofGen! by Chris Wilmer'
_symmetry_space_group_name_H-M	'P1'
_symmetry_Int_Tables_number	1
_symmetry_cell_setting	triclinic
loop_
_symmetry_equiv_pos_as_xyz
  x,y,z
_cell_length_a	11.026607
_cell_length_b	14.519709
_cell_length_c	9.482900
_cell_angle_alpha	99.350820
_cell_angle_beta	78.636152
_cell_angle_gamma	96.133081
loop_
_atom_site_label
_atom_site_type_symbol
_atom_site_fract_x
_atom_site_fract_y
_atom_site_fract_z
O1	O	1.629894	0.375017	-0.120915
O2	O	1.276492	0.331026	-0.120914
O3	O	1.462561	0.220328	-0.120901
O4	O	1.443825	0.485715	-0.120927
O5	O	1.424766	0.242929	0.120889
O6	O	1.238698	0.353627	0.120876
O7	O	1.592099	0.397617	0.120875
Cu8	Cu	1.411948	0.377686	0.142953
Cu9	Cu	1.456644	0.350958	-0.142992
O10	O	1.406031	0.508316	0.120862
C11	C	1.212367	0.334211	-0.000019
C12	C	1.077600	0.310019	-0.000019
C13	C	1.003940	0.376817	-0.000026
C14	C	0.864652	0.351815	-0.000026
C15	C	1.442790	0.197125	-0.000006
C16	C	1.440173	0.094312	-0.000005
C17	C	1.430544	-0.282175	-0.000043
C18	C	1.433218	-0.177425	-0.000032
C19	C	1.435358	-0.093934	-0.000023
C20	C	1.438033	0.010822	-0.000015
C21	C	1.656226	0.394432	-0.000023
C22	C	1.790994	0.418624	-0.000033
C23	C	1.425802	0.531518	-0.000036
C24	C	1.428421	0.634330	-0.000046
N25	N	1.380519	0.396486	0.344071
N26	N	1.488082	0.332152	-0.344110
C27	C	1.447366	0.356497	0.416275
C28	C	1.421226	0.372147	0.583690
H29	H	1.043996	0.452517	-0.000025
H30	H	1.564664	0.286322	0.593771
C31	C	0.683077	0.244627	-0.000028
C32	C	0.810597	0.249615	-0.000023
H33	H	0.649709	0.181533	-0.000037
H34	H	0.643339	0.282351	0.084283
H35	H	0.669703	0.266602	-0.084352
H36	H	0.823970	0.227647	0.084307
H37	H	0.850347	0.211878	-0.084344
H38	H	0.831042	0.494329	-0.000031
C39	C	1.664587	0.332489	0.369165
C40	C	1.550774	0.294643	0.332464
H41	H	1.728432	0.294300	0.317443
H42	H	1.681982	0.393919	0.344260
H43	H	1.660538	0.334900	0.470681
H44	H	1.554820	0.292238	0.230949
H45	H	1.533376	0.233197	0.357359
H46	H	1.037549	0.234316	-0.000048
C47	C	1.271253	0.461879	0.577542
C48	C	1.277135	0.458348	0.427924
H49	H	1.207430	0.500076	0.629303
H50	H	1.253840	0.400442	0.602413
H51	H	1.348496	0.487529	0.602379
H52	H	1.199894	0.432691	0.403084
H53	H	1.294539	0.519797	0.403042
H54	H	1.344635	0.417969	0.645809
