data_functionalizedCrystal
_audit_creation_method	'MofGen! by Chris Wilmer'
_symmetry_space_group_name_H-M	'P1'
_symmetry_Int_Tables_number	1
_symmetry_cell_setting	triclinic
loop_
_symmetry_equiv_pos_as_xyz
  x,y,z
_cell_length_a	13.033293
_cell_length_b	19.121063
_cell_length_c	13.032268
_cell_angle_alpha	80.752502
_cell_angle_beta	90.920818
_cell_angle_gamma	99.921715
loop_
_atom_site_label
_atom_site_type_symbol
_atom_site_fract_x
_atom_site_fract_y
_atom_site_fract_z
Zn1	Zn	1.482860	-0.220865	0.793484
Zn2	Zn	1.497396	-0.322885	0.627054
Zn3	Zn	1.332985	-0.217116	0.599456
Zn4	Zn	1.301556	-0.352479	0.778702
O5	O	1.403699	-0.278336	0.699674
O6	O	1.629471	-0.223582	0.789143
O7	O	1.494823	-0.294900	0.478727
O8	O	1.359936	-0.118269	0.619830
O9	O	1.640150	-0.298535	0.666868
O10	O	1.470048	-0.121023	0.762382
O11	O	1.374031	-0.217193	0.458450
O12	O	1.184133	-0.245889	0.605497
O13	O	1.306370	-0.348974	0.925330
O14	O	1.161042	-0.345339	0.737189
O15	O	1.439573	-0.252278	0.936190
O16	O	1.464347	-0.426155	0.652535
O17	O	1.320465	-0.447898	0.763950
C18	C	1.135073	-0.298419	0.666745
C19	C	1.020149	-0.307030	0.652683
C20	C	0.963610	-0.273860	0.707014
C21	C	0.844830	-0.282759	0.692482
C22	C	1.390598	-0.462786	0.709659
C23	C	1.385083	-0.541690	0.713977
C24	C	1.457449	-0.567418	0.658059
C25	C	1.452267	-0.641558	0.662126
C26	C	1.374716	-0.689969	0.722107
C27	C	1.302347	-0.664237	0.778032
C28	C	1.307533	-0.590099	0.773970
C29	C	1.355310	-0.914388	0.737278
C30	C	1.350127	-0.988531	0.741334
C31	C	1.500049	-0.965846	0.625429
C32	C	1.505225	-0.891707	0.621367
C33	C	1.432860	-0.865982	0.677296
C34	C	1.369416	-0.765752	0.726264
C35	C	1.438165	-0.790200	0.673145
C36	C	1.673374	-0.258176	0.732733
C37	C	1.788294	-0.249584	0.746820
C38	C	1.367844	-0.304345	0.969319
C39	C	1.352565	-0.315429	1.084226
C40	C	1.416876	-0.093167	0.689676
C41	C	1.422492	-0.014258	0.685415
C42	C	1.439478	-0.252372	0.431083
C43	C	1.454971	-0.241074	0.316190
C44	C	1.411659	-0.272527	1.140828
C45	C	1.395869	-0.283982	1.259590
H46	H	0.805303	-0.317746	0.635202
H47	H	1.558966	-0.986800	0.579896
Cl48	Cl	1.507798	-0.202709	1.079904
H49	H	1.517254	-0.195857	1.276731
Cl50	Cl	0.849312	-0.195557	0.835245
Cl51	Cl	1.299696	-0.353784	1.320505
H52	H	1.248607	-0.569153	0.819506
H53	H	1.290276	-0.360635	1.123688
H54	H	0.980618	-0.342014	0.595407
H55	H	1.003142	-0.238871	0.764283
H56	H	1.296385	-0.893448	0.782816
Cl57	Cl	1.554942	-0.506564	0.582643
H58	H	1.511194	-0.662501	0.616591
H59	H	1.306271	-0.805177	0.775098
H60	H	1.568374	-0.852291	0.572526
H61	H	1.286984	-1.027948	0.790197
H62	H	1.239206	-0.703660	0.826875
Cl63	Cl	1.535658	-0.729339	0.597747
