data_functionalizedCrystal
_audit_creation_method	'MofGen! by Chris Wilmer'
_symmetry_space_group_name_H-M	'P1'
_symmetry_Int_Tables_number	1
_symmetry_cell_setting	triclinic
loop_
_symmetry_equiv_pos_as_xyz
  x,y,z
_cell_length_a	19.188930
_cell_length_b	18.266242
_cell_length_c	19.188930
_cell_angle_alpha	90.011475
_cell_angle_beta	83.144779
_cell_angle_gamma	90.022918
loop_
_atom_site_label
_atom_site_type_symbol
_atom_site_fract_x
_atom_site_fract_y
_atom_site_fract_z
O1	O	-0.926149	-0.061124	-0.087169
O2	O	-0.592816	0.272209	0.246165
O3	O	-0.259483	0.605542	0.579498
O4	O	-0.722838	-0.061075	-0.098903
O5	O	-0.389505	0.272258	0.234430
O6	O	-0.056171	0.605591	0.567764
O7	O	-0.830361	-0.061087	0.008620
O8	O	-0.497027	0.272246	0.341953
O9	O	-0.163694	0.605580	0.675286
O10	O	-0.818627	-0.061113	-0.194691
O11	O	-0.485293	0.272221	0.138642
O12	O	-0.151960	0.605554	0.471975
O13	O	-0.830343	0.060675	0.008625
O14	O	-0.497009	0.394008	0.341959
O15	O	-0.163676	0.727342	0.675292
O16	O	-0.722820	0.060687	-0.098897
O17	O	-0.389486	0.394020	0.234436
O18	O	-0.056153	0.727353	0.567769
O19	O	-0.926131	0.060638	-0.087163
O20	O	-0.592798	0.393971	0.246170
O21	O	-0.259464	0.727304	0.579503
Zn22	Zn	-0.824473	0.079994	-0.093029
Zn23	Zn	-0.491139	0.413328	0.240304
Zn24	Zn	-0.157806	0.746661	0.573637
Zn25	Zn	-0.824497	-0.080432	-0.093037
Zn26	Zn	-0.491163	0.252901	0.240297
Zn27	Zn	-0.157830	0.586234	0.573630
O28	O	-0.818608	0.060649	-0.194686
O29	O	-0.485275	0.393983	0.138647
O30	O	-0.151942	0.727316	0.471981
C31	C	-0.696818	-0.000188	-0.098520
C32	C	-0.363485	0.333145	0.234813
C33	C	-0.030151	0.666479	0.568146
C34	C	-0.619313	-0.000169	-0.097380
C35	C	-0.285980	0.333165	0.235954
C36	C	0.047353	0.666498	0.569287
C37	C	-0.829972	-0.000204	0.034634
C38	C	-0.496638	0.333130	0.367967
C39	C	-0.163305	0.666463	0.701300
C40	C	-0.828831	-0.000197	0.112138
C41	C	-0.495498	0.333136	0.445471
C42	C	-0.162164	0.666469	0.778805
C43	C	-0.952151	-0.000252	-0.087546
C44	C	-0.618818	0.333082	0.245787
C45	C	-0.285485	0.666415	0.579121
C46	C	-1.029656	-0.000276	-0.088687
C47	C	-0.696322	0.333058	0.244647
C48	C	-0.362989	0.666391	0.577980
N49	N	-0.824461	0.189481	-0.093024
N50	N	-0.491128	0.522815	0.240309
N51	N	-0.157795	0.856148	0.573643
C52	C	-0.574389	-0.000188	-0.160470
C53	C	-0.241056	0.333145	0.172863
C54	C	0.092277	0.666479	0.506196
C55	C	-0.501566	-0.000196	-0.159399
C56	C	-0.168232	0.333137	0.173935
C57	C	0.165101	0.666471	0.507268
C58	C	-0.473669	-0.000199	-0.095233
C59	C	-0.140336	0.333134	0.238101
C60	C	0.192998	0.666468	0.571434
C61	C	-0.518603	-0.000175	-0.032133
C62	C	-0.185270	0.333158	0.301200
C63	C	0.148064	0.666491	0.634533
C64	C	-0.591425	-0.000160	-0.033207
C65	C	-0.258092	0.333173	0.300126
C66	C	0.075242	0.666506	0.633460
N67	N	-0.365695	-0.041663	-0.046188
N68	N	-0.032362	0.291670	0.287146
N69	N	0.300972	0.625003	0.620479
N70	N	-0.296516	-0.041679	-0.045172
N71	N	0.036817	0.291654	0.288161
N72	N	0.370150	0.624987	0.621495
C73	C	-0.254260	-0.000243	-0.091994
C74	C	0.079073	0.333090	0.241339
C75	C	0.412406	0.666423	0.574672
N76	N	-0.283795	0.041200	-0.139881
N77	N	0.049538	0.374533	0.193452
N78	N	0.382872	0.707867	0.526785
N79	N	-0.352980	0.041213	-0.140899
N80	N	-0.019646	0.374546	0.192434
N81	N	0.313687	0.707879	0.525768
C82	C	-0.394707	-0.000215	-0.094062
C83	C	-0.061373	0.333118	0.239272
C84	C	0.271960	0.666452	0.572605
C85	C	-0.130372	-0.000270	-0.153928
C86	C	0.202961	0.333063	0.179406
C87	C	0.536295	0.666396	0.512739
C88	C	-0.057547	-0.000274	-0.152853
C89	C	0.275786	0.333060	0.180480
C90	C	0.609119	0.666393	0.513813
C91	C	-0.074586	-0.000261	-0.025586
C92	C	0.258747	0.333073	0.307747
C93	C	0.592081	0.666406	0.641080
C94	C	-0.147409	-0.000250	-0.026662
C95	C	0.185924	0.333083	0.306671
C96	C	0.519257	0.666417	0.640004
C97	C	-0.175298	-0.000258	-0.090835
C98	C	0.158036	0.333075	0.242498
C99	C	0.491369	0.666408	0.575832
N100	N	-0.824513	-0.189919	-0.093037
N101	N	-0.491180	0.143414	0.240297
N102	N	-0.157847	0.476747	0.573630
C103	C	-0.872088	0.227785	-0.045436
C104	C	-0.538755	0.561118	0.287897
C105	C	-0.205421	0.894452	0.621230
C106	C	-0.872092	0.304430	-0.045433
C107	C	-0.538759	0.637763	0.287900
C108	C	-0.205426	0.971097	0.621234
C109	C	-0.824477	0.342768	-0.093030
C110	C	-0.491144	0.676102	0.240304
C111	C	-0.157810	1.009435	0.573637
C112	C	-0.776841	0.304455	-0.140621
C113	C	-0.443508	0.637789	0.192712
C114	C	-0.110175	0.971122	0.526046
C115	C	-0.776834	0.227812	-0.140618
C116	C	-0.443500	0.561145	0.192715
C117	C	-0.110167	0.894479	0.526048
N118	N	-0.815401	0.463094	-0.154837
N119	N	-0.482068	0.796427	0.178496
N120	N	-0.148735	1.129761	0.511830
N121	N	-0.815413	0.535902	-0.154838
N122	N	-0.482080	0.869236	0.178496
N123	N	-0.148746	1.202569	0.511829
C124	C	-0.824496	0.573691	-0.093040
C125	C	-0.491163	0.907024	0.240294
C126	C	-0.157830	1.240357	0.573627
N127	N	-0.833582	0.535920	-0.031239
N128	N	-0.500248	0.869254	0.302094
N129	N	-0.166915	1.202587	0.635427
N130	N	-0.833574	0.463106	-0.031240
N131	N	-0.500240	0.796439	0.302094
N132	N	-0.166907	1.129772	0.635427
C133	C	-0.824480	0.425875	-0.093038
C134	C	-0.491146	0.759209	0.240296
C135	C	-0.157813	1.092542	0.573629
C136	C	-0.872131	0.695101	-0.045444
C137	C	-0.538797	1.028435	0.287889
C138	C	-0.205464	1.361768	0.621222
C139	C	-0.872130	0.771748	-0.045440
C140	C	-0.538797	1.105081	0.287893
C141	C	-0.205463	1.438414	0.621226
C142	C	-0.776882	0.771772	-0.140634
C143	C	-0.443549	1.105105	0.192699
C144	C	-0.110216	1.438438	0.526032
C145	C	-0.776879	0.695127	-0.140632
C146	C	-0.443546	1.028460	0.192701
C147	C	-0.110213	1.361794	0.526034
C148	C	-0.824507	0.656796	-0.093038
C149	C	-0.491174	0.990130	0.240295
C150	C	-0.157841	1.323463	0.573628
C151	C	-0.818997	-0.000236	-0.220700
C152	C	-0.485664	0.333098	0.112634
C153	C	-0.152331	0.666431	0.445967
C154	C	-0.820138	-0.000247	-0.298204
C155	C	-0.486805	0.333086	0.035129
C156	C	-0.153471	0.666420	0.368462
C157	C	-0.891922	-0.000209	0.157062
C158	C	-0.558589	0.333124	0.490395
C159	C	-0.225255	0.666458	0.823729
C160	C	-0.890850	-0.000220	0.229886
C161	C	-0.557517	0.333113	0.563219
C162	C	-0.224184	0.666446	0.896552
C163	C	-0.826684	-0.000206	0.257782
C164	C	-0.493351	0.333128	0.591116
C165	C	-0.160017	0.666461	0.924449
C166	C	-0.763585	-0.000198	0.212849
C167	C	-0.430252	0.333135	0.546182
C168	C	-0.096918	0.666469	0.879515
C169	C	-0.764658	-0.000194	0.140026
C170	C	-0.431325	0.333140	0.473360
C171	C	-0.097992	0.666473	0.806693
N172	N	-0.777631	0.041244	0.365789
N173	N	-0.444297	0.374578	0.699123
N174	N	-0.110964	0.707911	1.032456
N175	N	-0.776615	0.041242	0.434968
N176	N	-0.443282	0.374575	0.768301
N177	N	-0.109948	0.707909	1.101635
C178	C	-0.823446	-0.000220	0.477191
C179	C	-0.490113	0.333114	0.810524
C180	C	-0.156779	0.666447	1.143858
N181	N	-0.871341	-0.041669	0.447624
N182	N	-0.538008	0.291664	0.780957
N183	N	-0.204675	0.624997	1.114290
N184	N	-0.872359	-0.041664	0.378439
N185	N	-0.539025	0.291670	0.711772
N186	N	-0.205692	0.625003	1.045106
C187	C	-0.825513	-0.000210	0.336745
C188	C	-0.492180	0.333123	0.670078
C189	C	-0.158846	0.666456	1.003412
C190	C	-0.885379	-0.000245	0.601079
C191	C	-0.552046	0.333089	0.934413
C192	C	-0.218712	0.666422	1.267746
C193	C	-0.884305	-0.000261	0.673904
C194	C	-0.550971	0.333073	1.007238
C195	C	-0.217638	0.666406	1.340571
C196	C	-0.757038	-0.000231	0.656865
C197	C	-0.423704	0.333103	0.990199
C198	C	-0.090371	0.666436	1.323532
C199	C	-0.758114	-0.000222	0.584042
C200	C	-0.424781	0.333111	0.917376
C201	C	-0.091447	0.666444	1.250709
C202	C	-0.822287	-0.000226	0.556154
C203	C	-0.488953	0.333108	0.889487
C204	C	-0.155620	0.666441	1.222821
H205	H	-0.464982	-0.000210	-0.210776
H206	H	-0.131648	0.333124	0.122557
H207	H	0.201685	0.666457	0.455890
O208	O	-0.488521	-0.000175	0.037077
O209	O	-0.155188	0.333158	0.370410
O210	O	0.178145	0.666492	0.703743
H211	H	-0.455785	-0.049813	0.040615
H212	H	-0.122452	0.283520	0.373948
H213	H	0.210881	0.616854	0.707281
O214	O	-0.690063	-0.000191	0.535586
O215	O	-0.356730	0.333143	0.868919
O216	O	-0.023396	0.666476	1.202252
H217	H	-0.659345	-0.049807	0.545468
H218	H	-0.326012	0.283526	0.878802
H219	H	0.007322	0.616859	1.212135
H220	H	-0.738110	0.802986	-0.179386
H221	H	-0.404777	1.136319	0.153948
H222	H	-0.071444	1.469653	0.487281
O223	O	-0.687830	-0.000210	0.686947
O224	O	-0.354496	0.333123	1.020280
O225	O	-0.021163	0.666457	1.353614
H226	H	-0.657531	-0.049832	0.668879
H227	H	-0.324198	0.283501	1.002212
H228	H	0.009135	0.616835	1.335545
O229	O	-0.952358	-0.000266	0.722360
O230	O	-0.619025	0.333067	1.055693
O231	O	-0.285692	0.666400	1.389027
H232	H	-0.983095	-0.049892	0.712451
H233	H	-0.649761	0.283441	1.045785
H234	H	-0.316428	0.616775	1.379118
H235	H	-0.713281	-0.000184	0.103448
H236	H	-0.379947	0.333149	0.436782
H237	H	-0.046614	0.666483	0.770115
H238	H	-0.628003	-0.000145	0.018171
H239	H	-0.294670	0.333189	0.351504
H240	H	0.038664	0.666522	0.684838
O241	O	-0.604464	-0.000177	-0.229685
O242	O	-0.271131	0.333157	0.103648
O243	O	0.062203	0.666490	0.436981
H244	H	-0.586426	-0.049806	-0.260001
H245	H	-0.253093	0.283528	0.073333
H246	H	0.080240	0.616861	0.406666
O247	O	-0.160461	-0.000265	-0.223137
O248	O	0.172872	0.333069	0.110196
O249	O	0.506206	0.666402	0.443529
H250	H	-0.116984	-0.000265	-0.266830
H251	H	0.216349	0.333068	0.066503
H252	H	0.549682	0.666401	0.399836
H253	H	-0.020970	-0.000285	-0.204232
H254	H	0.312363	0.333048	0.129102
H255	H	0.645697	0.666381	0.462435
H256	H	-0.738100	0.663938	-0.179386
H257	H	-0.404767	0.997271	0.153948
H258	H	-0.071433	1.330605	0.487281
O259	O	-0.044510	-0.000264	0.043625
O260	O	0.288823	0.333069	0.376958
O261	O	0.622156	0.666402	0.710292
H262	H	0.013676	-0.000282	0.033773
H263	H	0.347009	0.333052	0.367107
H264	H	0.680342	0.666385	0.700440
H265	H	-0.910911	0.802935	-0.006685
H266	H	-0.577578	1.136269	0.326649
H267	H	-0.244245	1.469602	0.659982
H268	H	-0.937632	-0.000251	0.578372
H269	H	-0.604299	0.333082	0.911705
H270	H	-0.270966	0.666416	1.245038
H271	H	-0.910868	0.196579	-0.006681
H272	H	-0.577534	0.529912	0.326653
H273	H	-0.244201	0.863245	0.659986
O274	O	-0.195871	-0.000235	0.041386
O275	O	0.137463	0.333098	0.374719
O276	O	0.470796	0.666431	0.708052
H277	H	-0.164240	-0.000243	0.086186
H278	H	0.169093	0.333090	0.419519
H279	H	0.502426	0.666423	0.752853
O280	O	-0.923470	0.345758	0.005888
O281	O	-0.590136	0.679091	0.339221
O282	O	-0.256803	1.012425	0.672555
H283	H	-0.956590	0.306228	0.038979
H284	H	-0.623257	0.639561	0.372312
H285	H	-0.289923	0.972895	0.705646
H286	H	-0.738071	0.335674	-0.179374
H287	H	-0.404738	0.669007	0.153959
H288	H	-0.071404	1.002341	0.487293
H289	H	-0.738049	0.196624	-0.179371
H290	H	-0.404716	0.529958	0.153963
H291	H	-0.071383	0.863291	0.487296
O292	O	-0.923469	0.653744	0.005908
O293	O	-0.590136	0.987077	0.339241
O294	O	-0.256802	1.320410	0.672574
H295	H	-0.957316	0.618794	-0.023384
H296	H	-0.623982	0.952127	0.309950
H297	H	-0.290649	1.285460	0.643283
O298	O	-0.961133	-0.000233	0.126980
O299	O	-0.627800	0.333100	0.460313
O300	O	-0.294466	0.666433	0.793647
H301	H	-1.004824	-0.000254	0.170458
H302	H	-0.671491	0.333079	0.503791
H303	H	-0.338158	0.666413	0.837125
H304	H	-0.942228	-0.000233	0.266470
H305	H	-0.608895	0.333100	0.599803
H306	H	-0.275561	0.666434	0.933137
O307	O	-0.694375	-0.000173	0.242930
O308	O	-0.361041	0.333160	0.576264
O309	O	-0.027708	0.666493	0.909597
H310	H	-0.704227	-0.000168	0.301116
H311	H	-0.370894	0.333165	0.634449
H312	H	-0.037560	0.666499	0.967783
