data_functionalizedCrystal
_audit_creation_method	'MofGen! by Chris Wilmer'
_symmetry_space_group_name_H-M	'P1'
_symmetry_Int_Tables_number	1
_symmetry_cell_setting	triclinic
loop_
_symmetry_equiv_pos_as_xyz
  x,y,z
_cell_length_a	14.853558
_cell_length_b	12.376457
_cell_length_c	13.339070
_cell_angle_alpha	104.397881
_cell_angle_beta	99.630214
_cell_angle_gamma	78.691527
loop_
_atom_site_label
_atom_site_type_symbol
_atom_site_fract_x
_atom_site_fract_y
_atom_site_fract_z
O1	O	1.241702	-0.093987	0.112708
O2	O	0.983164	-0.093992	0.128455
O3	O	1.082761	-0.093987	-0.026722
O4	O	1.142105	-0.093992	0.267885
O5	O	1.057860	0.094024	0.012019
O6	O	0.958263	0.094019	0.167196
O7	O	1.216801	0.094024	0.151448
Zn8	Zn	1.083578	0.123872	0.165473
Zn9	Zn	1.116387	-0.123840	0.114431
O10	O	1.117204	0.094018	0.306626
C11	C	0.936947	0.000013	0.147114
C12	C	0.836332	0.000011	0.144980
C13	C	0.802637	-0.102478	0.122861
C14	C	0.775484	0.102498	0.165086
C15	C	0.680950	0.102500	0.163076
C16	C	0.647255	0.000011	0.140958
C17	C	0.708094	-0.102479	0.120848
C18	C	0.620103	0.204989	0.183175
C19	C	0.525562	0.204995	0.181165
C20	C	0.491866	0.102505	0.159053
C21	C	0.552712	0.000010	0.138944
C22	C	0.519016	-0.102479	0.116825
C23	C	0.579861	-0.204975	0.096723
C24	C	0.674398	-0.204970	0.098736
C25	C	0.397329	0.102500	0.157041
C26	C	0.424473	-0.102480	0.114812
N27	N	1.061194	0.292929	0.200308
C28	C	1.060286	0.000017	-0.045055
C29	C	1.030407	0.000012	-0.157399
C30	C	1.263018	0.000016	0.132790
C31	C	1.363634	0.000011	0.134922
N32	N	1.138776	-0.292898	0.079588
C33	C	1.009240	0.352111	0.281191
C34	C	0.993588	0.470450	0.305581
C35	C	1.029883	0.529619	0.249085
C36	C	1.081834	0.470437	0.168195
C37	C	1.097493	0.352086	0.143808
C38	C	1.118137	0.529594	0.111701
C39	C	1.170087	0.470413	0.030811
C40	C	1.185743	0.352074	0.006428
C41	C	1.149447	0.292905	0.062924
C42	C	1.102477	0.647945	0.136088
C43	C	1.190730	0.647921	-0.001295
C44	C	1.206382	0.529582	-0.025685
C45	C	1.262738	0.000017	-0.521873
C46	C	1.290813	0.000028	-0.416319
C47	C	1.225714	0.000023	-0.351584
C48	C	1.132535	0.000009	-0.392412
C49	C	1.104456	0.000006	-0.497974
C50	C	1.067432	0.000013	-0.327686
C51	C	0.974252	-0.000002	-0.368514
C52	C	0.946178	-0.000005	-0.474066
C53	C	1.011277	-0.000000	-0.538801
C54	C	1.095511	0.000015	-0.222124
C55	C	0.937228	0.000005	-0.198225
C56	C	0.909153	-0.000006	-0.303779
C57	C	1.139679	0.000012	0.324958
C58	C	1.169560	0.000010	0.437300
H59	H	0.852181	-0.185928	0.106499
H60	H	0.988423	-0.000014	-0.624753
H61	H	0.802924	0.185940	0.183086
H62	H	1.171378	0.000028	-0.188892
C63	C	0.330406	0.215230	0.179151
H64	H	0.364014	0.276268	0.192615
H65	H	0.285088	0.219485	0.120280
H66	H	0.300839	0.219495	0.238221
C67	C	1.012657	0.659788	0.275903
H68	H	0.976511	0.686561	0.332161
H69	H	1.070223	0.686558	0.295381
H70	H	0.980584	0.686556	0.216708
H71	H	0.552414	-0.288421	0.078708
C72	C	1.393299	0.000048	-0.371408
H73	H	1.400697	0.000063	-0.299270
H74	H	1.429908	-0.065510	-0.407121
H75	H	1.412519	0.065626	-0.380112
C76	C	0.387411	-0.215217	0.090484
H77	H	0.322395	-0.200543	0.092169
H78	H	0.400615	-0.257336	0.023176
H79	H	0.416352	-0.257317	0.141119
H80	H	1.315730	0.000030	-0.574587
C81	C	0.843683	-0.000012	-0.518973
H82	H	0.808934	-0.000024	-0.465307
H83	H	0.820754	0.065549	-0.546147
H84	H	0.838130	-0.065586	-0.573162
H85	H	1.228052	0.303888	-0.059429
C86	C	0.806660	-0.000021	-0.348693
H87	H	0.771907	-0.000033	-0.295030
H88	H	0.783729	0.065537	-0.375871
H89	H	0.801114	-0.065598	-0.402879
H90	H	0.884218	0.000007	-0.145516
H91	H	1.248681	0.481382	-0.091547
H92	H	1.220288	0.696096	-0.047298
C93	C	0.936465	0.535541	0.394566
H94	H	0.917090	0.483356	0.424720
H95	H	0.973353	0.581688	0.446260
H96	H	0.883698	0.581726	0.367613
C97	C	0.969326	0.287030	0.343335
H98	H	0.936147	0.339222	0.395005
H99	H	0.928787	0.240866	0.297345
H100	H	1.018427	0.240863	0.376015
C101	C	0.741322	-0.317705	0.076620
H102	H	0.707719	-0.378746	0.063169
H103	H	0.770894	-0.321967	0.017561
H104	H	0.786637	-0.321957	0.135502
C105	C	0.657168	0.317716	0.207505
H106	H	0.722187	0.303035	0.205837
H107	H	0.628233	0.359826	0.156883
H108	H	0.643967	0.359827	0.274823
H109	H	1.248579	0.000033	-0.265638
H110	H	0.476029	0.288454	0.197533
H111	H	1.060180	0.696120	0.201949
C112	C	1.166664	0.162731	0.036098
H113	H	1.137607	0.135974	0.081333
H114	H	1.141689	0.135965	-0.034124
H115	H	1.231322	0.135944	0.044557
