data_functionalizedCrystal
_audit_creation_method	'MofGen! by Chris Wilmer'
_symmetry_space_group_name_H-M	'P1'
_symmetry_Int_Tables_number	1
_symmetry_cell_setting	triclinic
loop_
_symmetry_equiv_pos_as_xyz
  x,y,z
_cell_length_a	18.215407
_cell_length_b	12.759400
_cell_length_c	18.215399
_cell_angle_alpha	89.973045
_cell_angle_beta	89.983176
_cell_angle_gamma	90.015132
loop_
_atom_site_label
_atom_site_type_symbol
_atom_site_fract_x
_atom_site_fract_y
_atom_site_fract_z
Zn1	Zn	1.125102	-0.418240	-0.416133
Zn2	Zn	1.625102	0.081760	0.083867
Zn3	Zn	1.125039	-0.593944	-0.293074
Zn4	Zn	1.625039	-0.093944	0.206926
Zn5	Zn	1.002041	-0.418281	-0.293081
Zn6	Zn	1.502041	0.081719	0.206919
Zn7	Zn	1.002023	-0.593878	-0.416099
Zn8	Zn	1.502023	-0.093878	0.083901
O9	O	1.063551	-0.506086	-0.354597
O10	O	1.563551	-0.006086	0.145403
O11	O	1.228078	-0.441557	-0.399821
O12	O	1.728078	0.058443	0.100179
O13	O	1.108704	-0.570687	-0.190091
O14	O	1.608704	-0.070687	0.309909
O15	O	1.018400	-0.271255	-0.309421
O16	O	1.518400	0.228745	0.190579
O17	O	1.228032	-0.570647	-0.309410
O18	O	1.728032	-0.070647	0.190590
O19	O	1.108812	-0.271224	-0.399827
O20	O	1.608812	0.228776	0.100173
O21	O	1.018339	-0.441628	-0.190096
O22	O	1.518339	0.058372	0.309904
O23	O	0.899055	-0.441565	-0.309388
O24	O	1.399055	0.058435	0.190612
O25	O	1.018368	-0.570534	-0.519088
O26	O	1.518368	-0.070534	-0.019088
O27	O	0.899041	-0.570575	-0.399769
O28	O	1.399041	-0.070575	0.100231
O29	O	1.108794	-0.441493	-0.519113
O30	O	1.608794	0.058507	-0.019113
O31	O	1.108686	-0.740957	-0.309377
O32	O	1.608686	-0.240957	0.190623
O33	O	1.018307	-0.740908	-0.399763
O34	O	1.518307	-0.240908	0.100237
C35	C	0.872345	-0.506068	-0.354576
C36	C	1.372345	-0.006068	0.145424
C37	C	0.790546	-0.506086	-0.354584
C38	C	1.290546	-0.006086	0.145416
C39	C	0.602364	-0.573367	-0.401587
C40	C	1.102364	-0.073367	0.098413
C41	C	0.525506	-0.573370	-0.401596
C42	C	1.025506	-0.073370	0.098404
C43	C	0.525490	-0.438824	-0.307623
C44	C	1.025490	0.061176	0.192377
C45	C	0.602348	-0.438816	-0.307618
C46	C	1.102348	0.061184	0.192382
C47	C	0.640783	-0.506094	-0.354599
C48	C	1.140783	-0.006094	0.145401
C49	C	0.487067	-0.506105	-0.354613
C50	C	0.987067	-0.006105	0.145387
C51	C	0.403733	-0.506108	-0.354623
C52	C	0.903733	-0.006108	0.145377
C53	C	0.724122	-0.506089	-0.354590
C54	C	1.224122	-0.006089	0.145410
C55	C	1.063508	-0.779053	-0.354582
C56	C	1.563508	-0.279053	0.145418
C57	C	1.063556	-0.895830	-0.354600
C58	C	1.563556	-0.395830	0.145400
C59	C	1.110669	-0.950682	-0.307588
C60	C	1.610669	-0.450682	0.192412
C61	C	1.110714	-1.060406	-0.307610
C62	C	1.610714	-0.560406	0.192390
C63	C	1.016527	-1.060416	-0.401659
C64	C	1.516527	-0.560416	0.098341
C65	C	1.016487	-0.950694	-0.401639
C66	C	1.516487	-0.450694	0.098361
C67	C	1.157739	-0.895818	-0.260548
C68	C	1.657739	-0.395818	0.239452
C69	C	1.204855	-0.950671	-0.213532
C70	C	1.704855	-0.450671	0.286468
C71	C	1.204900	-1.060395	-0.213554
C72	C	1.704900	-0.560395	0.286446
C73	C	1.157829	-1.115266	-0.260593
C74	C	1.657829	-0.615266	0.239407
C75	C	1.255504	-0.506105	-0.354618
C76	C	1.755504	-0.006105	0.145382
C77	C	1.337303	-0.506113	-0.354628
C78	C	1.837303	-0.006113	0.145372
C79	C	1.063586	-0.506002	-0.546550
C80	C	1.563586	-0.006002	-0.046550
C81	C	1.063601	-0.505966	-0.628349
C82	C	1.563601	-0.005966	-0.128349
C83	C	1.063615	-0.232053	-0.354628
C84	C	1.563615	0.267947	0.145372
C85	C	1.063642	-0.115276	-0.354642
C86	C	1.563642	0.384724	0.145358
C87	C	1.016587	-0.438720	-0.816546
C88	C	1.516587	0.061280	-0.316546
C89	C	1.016600	-0.438699	-0.893405
C90	C	1.516600	0.061301	-0.393405
C91	C	1.110703	-0.573087	-0.893389
C92	C	1.610703	-0.073087	-0.393389
C93	C	1.110686	-0.573113	-0.816532
C94	C	1.610686	-0.073113	-0.316532
C95	C	1.063629	-0.505923	-0.778112
C96	C	1.563629	-0.005923	-0.278112
C97	C	1.063659	-0.505876	-0.931829
C98	C	1.563659	-0.005876	-0.431829
C99	C	1.063673	-0.505854	-1.015162
C100	C	1.563673	-0.005854	-0.515162
C101	C	1.063614	-0.505947	-0.694773
C102	C	1.563614	-0.005947	-0.194773
C103	C	1.063559	-0.506094	-0.163391
C104	C	1.563559	-0.006094	0.336609
C105	C	1.063687	-0.505833	-0.081592
C106	C	1.563687	-0.005833	0.418408
H107	H	0.494229	-0.628149	-0.439859
H108	H	0.994229	-0.128149	0.060141
O109	O	0.970803	-0.373430	-0.779338
O110	O	1.470803	0.126570	-0.279338
C111	C	0.877491	-0.240100	-0.787470
C112	C	1.377491	0.259900	-0.287470
C113	C	0.929296	-0.314002	-0.829695
C114	C	1.429296	0.185998	-0.329695
H115	H	0.843930	-0.192017	-0.828165
H116	H	1.343930	0.307983	-0.328165
H117	H	0.838944	-0.288299	-0.751497
H118	H	1.338944	0.211701	-0.251497
H119	H	0.911290	-0.185220	-0.751478
H120	H	1.411290	0.314780	-0.251478
H121	H	0.895557	-0.368897	-0.865727
H122	H	1.395557	0.131103	-0.365727
H123	H	0.967845	-0.265737	-0.865621
H124	H	1.467845	0.234263	-0.365621
O125	O	0.488039	-0.373575	-0.262011
O126	O	0.988039	0.126425	0.237989
C127	C	0.369630	-0.313905	-0.220406
C128	C	0.869630	0.186095	0.279594
C129	C	0.411949	-0.387872	-0.272087
C130	C	0.911949	0.112128	0.227913
H131	H	0.308104	-0.325423	-0.228546
H132	H	0.808104	0.174577	0.271454
H133	H	0.384662	-0.332247	-0.161025
H134	H	0.884662	0.167753	0.338975
H135	H	0.384803	-0.229223	-0.233424
H136	H	0.884803	0.270777	0.266576
H137	H	0.396799	-0.472579	-0.259136
H138	H	0.896799	0.027421	0.240864
H139	H	0.396913	-0.369440	-0.331454
H140	H	0.896913	0.130560	0.168546
H141	H	0.633629	-0.384028	-0.269355
H142	H	1.133629	0.115972	0.230645
O143	O	0.970657	-0.897566	-0.447334
O144	O	1.470657	-0.397566	0.052666
C145	C	0.877285	-0.909145	-0.540664
C146	C	1.377285	-0.409145	-0.040664
C147	C	0.929131	-0.969443	-0.488933
C148	C	1.429131	-0.469443	0.011067
H149	H	0.843709	-0.967231	-0.574322
H150	H	1.343709	-0.467231	-0.074322
H151	H	0.838755	-0.857875	-0.506876
H152	H	1.338755	-0.357875	-0.006876
H153	H	0.911053	-0.857676	-0.579130
H154	H	1.411053	-0.357676	-0.079130
H155	H	0.895422	-1.020968	-0.450457
H156	H	1.395422	-0.520968	0.049543
H157	H	0.967663	-1.020646	-0.522767
H158	H	1.467663	-0.520646	-0.022767
O159	O	0.639587	-0.638743	-0.447296
O160	O	1.139587	-0.138743	0.052704
C161	C	0.631486	-0.772230	-0.540480
C162	C	1.131486	-0.272230	-0.040480
C163	C	0.589244	-0.698230	-0.488760
C164	C	1.089244	-0.198230	0.011240
H165	H	0.590802	-0.820361	-0.574005
H166	H	1.090802	-0.320361	-0.074005
H167	H	0.667469	-0.724106	-0.579063
H168	H	1.167469	-0.224106	-0.079063
H169	H	0.667470	-0.827062	-0.506617
H170	H	1.167470	-0.327062	-0.006617
H171	H	0.553220	-0.643384	-0.522563
H172	H	1.053220	-0.143384	-0.022563
H173	H	0.553308	-0.746420	-0.450174
H174	H	1.053308	-0.246420	0.049826
H175	H	0.978204	-1.105101	-0.439955
H176	H	1.478204	-0.605101	0.060045
O177	O	0.970822	-0.373568	-0.930769
O178	O	1.470822	0.126432	-0.430769
C179	C	0.871503	-0.359405	-1.017559
C180	C	1.371503	0.140595	-0.517559
C181	C	0.923294	-0.433284	-0.975280
C182	C	1.423294	0.066716	-0.475280
H183	H	0.833074	-0.407654	-1.053568
H184	H	1.333074	0.092346	-0.553568
H185	H	0.837816	-0.311414	-0.976925
H186	H	1.337816	0.188586	-0.476925
H187	H	0.905319	-0.304436	-1.053526
H188	H	1.405319	0.195564	-0.553526
H189	H	0.889535	-0.488316	-0.939312
H190	H	1.389535	0.011684	-0.439312
H191	H	0.956984	-0.481201	-1.015953
H192	H	1.456984	0.018799	-0.515953
H193	H	1.157705	-0.806475	-0.260522
H194	H	1.657705	-0.306475	0.239478
H195	H	1.243183	-0.905988	-0.175238
H196	H	1.743183	-0.405988	0.324762
H197	H	1.243270	-1.105053	-0.175277
H198	H	1.743270	-0.605053	0.324723
O199	O	1.157946	-1.221853	-0.260504
O200	O	1.657946	-0.721853	0.239496
C201	C	1.209727	-1.379304	-0.208970
C202	C	1.709727	-0.879304	0.291030
C203	C	1.209658	-1.258599	-0.208987
C204	C	1.709658	-0.758599	0.291013
H205	H	1.251542	-1.409050	-0.167335
H206	H	1.751542	-0.909050	0.332665
H207	H	1.152780	-1.409238	-0.193611
H208	H	1.652780	-0.909238	0.306389
H209	H	1.224942	-1.408983	-0.266001
H210	H	1.724942	-0.908983	0.233999
H211	H	1.194475	-1.228831	-0.151974
H212	H	1.694475	-0.728831	0.348026
H213	H	1.266612	-1.228736	-0.224388
H214	H	1.766612	-0.728736	0.275612
O215	O	1.156391	-0.638248	-0.930825
O216	O	1.656391	-0.138248	-0.430825
C217	C	1.198092	-0.697813	-1.049221
C218	C	1.698092	-0.197813	-0.549221
C219	C	1.146323	-0.623948	-1.006919
C220	C	1.646323	-0.123948	-0.506919
H221	H	1.189960	-0.686293	-1.110750
H222	H	1.689960	-0.186293	-0.610750
H223	H	1.257451	-0.679371	-1.034171
H224	H	1.757451	-0.179371	-0.534171
H225	H	1.185155	-0.782522	-1.034051
H226	H	1.685155	-0.282522	-0.534051
H227	H	1.159195	-0.539215	-1.022067
H228	H	1.659195	-0.039215	-0.522067
H229	H	1.086981	-0.642481	-1.021973
H230	H	1.586981	-0.142481	-0.521973
H231	H	1.148995	-0.627842	-0.785238
H232	H	1.648995	-0.127842	-0.285238
