data_functionalizedCrystal
_audit_creation_method	'MofGen! by Chris Wilmer'
_symmetry_space_group_name_H-M	'P1'
_symmetry_Int_Tables_number	1
_symmetry_cell_setting	triclinic
loop_
_symmetry_equiv_pos_as_xyz
  x,y,z
_cell_length_a	10.654554
_cell_length_b	16.974813
_cell_length_c	9.730223
_cell_angle_alpha	86.344112
_cell_angle_beta	89.999030
_cell_angle_gamma	83.939874
loop_
_atom_site_label
_atom_site_type_symbol
_atom_site_fract_x
_atom_site_fract_y
_atom_site_fract_z
O1	O	1.666102	0.111070	-0.126665
O2	O	1.300459	0.121646	-0.127839
O3	O	1.493474	0.001311	-0.114450
O4	O	1.473087	0.231405	-0.140054
O5	O	1.493472	0.001314	0.114130
O6	O	1.300457	0.121650	0.100741
O7	O	1.666099	0.111073	0.101914
Zn8	Zn	1.483278	0.116362	0.137620
Zn9	Zn	1.483281	0.116358	-0.163544
O10	O	1.473084	0.231408	0.088526
C11	C	1.253672	0.120871	-0.013462
C12	C	1.114266	0.118545	-0.013202
C13	C	0.932875	0.043320	-0.004849
C14	C	1.063862	0.045505	-0.005078
C15	C	1.033674	0.189405	-0.021084
C16	C	0.902689	0.187219	-0.020845
C17	C	0.950305	-0.039760	0.004385
C18	C	1.081293	-0.037575	0.004156
C19	C	1.492698	-0.028150	0.003115
C20	C	1.490372	-0.115939	0.012876
C21	C	1.489284	-0.157180	-0.107137
C22	C	1.487091	-0.239667	-0.097962
C23	C	1.485995	-0.280912	0.031227
C24	C	1.487080	-0.239665	0.151249
C25	C	1.489264	-0.157179	0.142072
C26	C	1.479455	-0.527608	0.072033
C27	C	1.477275	-0.610100	0.081200
C28	C	1.477283	-0.610096	-0.168011
C29	C	1.479475	-0.527609	-0.177176
C30	C	1.480553	-0.486369	-0.057155
N31	N	1.483758	-0.365227	0.040609
N32	N	1.482781	-0.402055	-0.066538
C33	C	1.712886	0.111849	-0.012465
C34	C	1.852293	0.114174	-0.012734
C35	C	1.473861	0.260869	-0.029043
C36	C	1.476186	0.348659	-0.038812
N37	N	1.483285	0.116364	0.343156
N38	N	1.483284	0.116349	-0.369079
C39	C	1.568774	0.063098	0.421008
C40	C	1.568771	0.063088	0.564892
C41	C	1.397786	0.169618	0.553058
C42	C	1.397784	0.169623	0.409177
C43	C	1.667494	0.001596	0.427842
C44	C	1.667491	0.001586	0.571726
H45	H	0.837082	0.244916	-0.027249
C46	C	1.629515	-0.072041	0.783883
C47	C	1.627509	-0.075940	0.640599
H48	H	1.604822	-0.119899	0.826401
H49	H	1.712418	-0.065078	0.813246
H50	H	1.572648	-0.028508	0.809176
H51	H	1.684383	-0.119470	0.615305
H52	H	1.544594	-0.082912	0.611225
C53	C	1.870761	0.044652	0.469966
C54	C	1.790183	0.027587	0.364690
H55	H	1.946505	0.060694	0.430975
H56	H	1.830455	0.086224	0.520282
H57	H	1.889985	-0.001396	0.530026
H58	H	1.770952	0.073636	0.304636
H59	H	1.830497	-0.013989	0.314352
H60	H	0.915089	-0.066216	-0.091368
H61	H	1.074722	0.248876	-0.027685
H62	H	1.476403	-0.643683	-0.265725
H63	H	1.476376	-0.643680	0.186407
H64	H	1.646997	-0.059179	0.395551
C65	C	1.479297	-0.535915	0.319285
C66	C	1.480692	-0.482288	0.203960
H67	H	1.480080	-0.507934	0.400733
H68	H	1.405243	-0.562451	0.317079
H69	H	1.551636	-0.573723	0.318264
H70	H	1.408347	-0.444484	0.204975
H71	H	1.554753	-0.455740	0.206167
C72	C	1.589491	-0.442956	-0.331226
C73	C	1.480437	-0.482182	-0.319121
H74	H	1.590019	-0.414888	-0.418842
H75	H	1.590515	-0.406657	-0.260976
H76	H	1.661900	-0.480723	-0.322092
H77	H	1.408028	-0.444414	-0.328244
H78	H	1.479402	-0.518485	-0.389391
C79	C	1.228765	0.274912	0.526908
C80	C	1.303805	0.228158	0.625632
H81	H	1.170739	0.311049	0.571713
H82	H	1.280981	0.303667	0.467603
H83	H	1.183667	0.241725	0.474468
H84	H	1.348910	0.261345	0.678065
H85	H	1.251582	0.199401	0.684960
H86	H	0.921447	-0.072252	0.103654
H87	H	1.486180	-0.273253	0.256437
H88	H	1.127321	-0.062679	0.105649
H89	H	1.123538	-0.068876	-0.088023
C90	C	1.489022	-0.165462	0.389326
C91	C	1.490447	-0.111843	0.273993
H92	H	1.489750	-0.137472	0.470769
H93	H	1.414985	-0.192012	0.387083
H94	H	1.561379	-0.203259	0.388352
H95	H	1.418085	-0.074050	0.274962
H96	H	1.564492	-0.085280	0.276238
C97	C	1.382041	-0.123502	-0.323284
C98	C	1.490477	-0.111852	-0.249152
H99	H	1.382771	-0.095518	-0.410959
H100	H	1.380597	-0.178526	-0.334977
H101	H	1.309216	-0.104351	-0.274198
H102	H	1.563303	-0.131009	-0.298234
H103	H	1.491934	-0.056817	-0.237464
H104	H	1.328162	0.212990	0.345791
C105	C	1.376759	-0.324117	-0.233207
C106	C	1.485914	-0.284985	-0.229900
H107	H	1.376035	-0.352086	-0.314674
H108	H	1.375793	-0.360494	-0.154982
H109	H	1.304422	-0.286306	-0.232231
H110	H	1.558252	-0.322797	-0.230866
H111	H	1.486892	-0.248605	-0.308147
H112	H	1.763791	0.015134	0.609268
