data_functionalizedCrystal
_audit_creation_method	'MofGen! by Chris Wilmer'
_symmetry_space_group_name_H-M	'P1'
_symmetry_Int_Tables_number	1
_symmetry_cell_setting	triclinic
loop_
_symmetry_equiv_pos_as_xyz
  x,y,z
_cell_length_a	19.851628
_cell_length_b	20.875641
_cell_length_c	20.875685
_cell_angle_alpha	92.963887
_cell_angle_beta	61.738670
_cell_angle_gamma	57.593750
loop_
_atom_site_label
_atom_site_type_symbol
_atom_site_fract_x
_atom_site_fract_y
_atom_site_fract_z
Zr1	Zr	0.688141	0.638250	-0.060799
O2	O	0.837310	0.526200	-0.167338
O3	O	0.544962	0.672593	-0.028135
O4	O	0.686051	0.665382	-0.162226
O5	O	0.695781	0.539106	0.072522
O6	O	0.677589	0.775179	-0.158199
O7	O	0.696221	0.533411	-0.033247
O8	O	0.425206	0.788077	0.081666
O9	O	0.948164	0.526208	-0.167342
O10	O	0.595320	0.769187	-0.011204
O11	O	0.601307	0.691498	0.064724
O12	O	0.767421	0.683008	-0.093150
O13	O	0.773408	0.605318	-0.017222
Zr14	Zr	0.673943	0.822446	0.114313
Zr15	Zr	0.674645	0.813363	-0.054376
Zr16	Zr	0.687439	0.647333	0.107889
Zr17	Zr	0.864940	0.638262	-0.060807
Zr18	Zr	0.497144	0.822434	0.114320
O19	O	0.817122	0.788103	0.081649
O20	O	0.818120	0.775188	-0.158205
O21	O	0.836312	0.539115	0.072516
O22	O	0.524774	0.934496	0.220851
O23	O	0.525772	0.921581	-0.019002
O24	O	0.543964	0.685508	0.211718
O25	O	0.666303	0.921590	-0.019008
O26	O	0.676033	0.795314	0.215740
O27	O	0.684495	0.685517	0.211712
O28	O	0.665863	0.927285	0.086760
O29	O	0.937436	0.665399	-0.162237
O30	O	0.424648	0.795297	0.215750
O31	O	0.413920	0.934488	0.220856
O32	O	0.414478	0.927269	0.086771
O33	O	0.947606	0.533427	-0.033258
O34	O	0.936878	0.672619	-0.028152
O35	O	0.594663	0.777688	0.146664
O36	O	0.588676	0.855378	0.070736
O37	O	0.760777	0.769198	-0.011211
O38	O	0.766764	0.691509	0.064717
C39	C	0.697924	0.511308	0.018722
C40	C	0.703653	0.436968	0.015995
C41	C	0.459894	0.730333	0.026766
C42	C	0.384838	0.730328	0.026769
C43	C	0.616512	0.447025	0.057485
C44	C	0.621902	0.377172	0.054921
C45	C	0.714433	0.297262	0.010862
C46	C	0.801581	0.287206	-0.030629
C47	C	0.796190	0.357059	-0.028060
C48	C	0.740188	0.083525	-0.001404
C49	C	0.745571	0.013671	-0.003972
C50	C	0.565892	0.103641	0.081580
C51	C	0.560510	0.173491	0.084141
C52	C	0.647657	0.163430	0.042654
N53	N	0.719944	0.225860	0.008238
N54	N	0.642145	0.234832	0.045283
C55	C	0.206743	0.687982	0.068162
C56	C	0.219885	0.651607	-0.007249
C57	C	0.247417	0.730341	0.026759
C58	C	0.100561	0.766690	0.102151
C59	C	0.114672	0.730353	0.026755
C60	C	0.261598	0.693918	-0.048698
C61	C	0.142225	0.809047	0.060758
C62	C	0.155400	0.772689	-0.014697
C63	C	0.323889	0.730332	0.026762
C64	C	0.038206	0.730360	0.026744
C65	C	0.902190	0.730363	0.026747
C66	C	0.977245	0.730368	0.026744
C67	C	0.681920	0.718987	-0.184247
C68	C	0.682218	0.715131	-0.255859
C69	C	0.664160	0.949388	0.034791
C70	C	0.658431	1.023728	0.037518
C71	C	0.684386	0.686894	-0.659196
C72	C	0.684102	0.690527	-0.591906
C73	C	0.679305	0.752830	-0.556053
C74	C	0.674782	0.811507	-0.587487
C75	C	0.675059	0.807877	-0.654772
C76	C	0.677972	0.770178	-0.354579
C77	C	0.677698	0.773802	-0.287291
C78	C	0.687016	0.652823	-0.291714
C79	C	0.687298	0.649195	-0.359003
C80	C	0.682770	0.707875	-0.390429
N81	N	0.679018	0.756544	-0.487273
N82	N	0.683050	0.704164	-0.459203
C83	C	0.680164	0.741710	0.237760
C84	C	0.679866	0.745565	0.309373
C85	C	0.443012	0.949373	0.034801
C86	C	0.362227	1.023708	0.037531
C87	C	0.459016	0.741695	0.237770
C88	C	0.383662	0.745546	0.309386
C89	C	0.442134	0.960734	0.245804
C90	C	0.361051	1.038926	0.320147
C91	C	0.919950	0.499962	-0.192291
C92	C	1.001033	0.421771	-0.266634
C93	C	0.919072	0.511323	0.018713
C94	C	0.999857	0.436988	0.015983
C95	C	0.903068	0.719001	-0.184256
C96	C	0.978422	0.715150	-0.255872
C97	C	0.327757	1.013626	-0.003966
C98	C	0.251862	1.083464	-0.001416
C99	C	0.210432	1.163384	0.042634
C100	C	0.244908	1.173465	0.084132
C101	C	0.320808	1.103627	0.081578
C102	C	0.344807	0.792345	0.385796
C103	C	0.274015	0.795961	0.453093
C104	C	0.242073	0.752781	0.443978
C105	C	0.280935	0.705976	0.367560
C106	C	0.351732	0.702356	0.300264
C107	C	0.319848	1.116206	0.315426
C108	C	0.243671	1.189681	0.385273
C109	C	0.208694	1.185874	0.459840
C110	C	0.249904	1.108586	0.464559
C111	C	0.326085	1.035112	0.394713
C112	C	1.042245	0.344491	-0.261912
C113	C	1.118444	0.271015	-0.331759
C114	C	1.153424	0.274822	-0.406326
C115	C	1.112209	0.352110	-0.411046
C116	C	1.036017	0.425584	-0.341200
C117	C	1.034334	0.447070	0.057472
C118	C	1.110249	0.377231	0.054904
C119	C	1.151681	0.297311	0.010851
C120	C	1.117202	0.287230	-0.030643
C121	C	1.041292	0.357068	-0.028080
C122	C	1.010340	0.758339	-0.246732
C123	C	1.081132	0.754737	-0.314016
C124	C	1.120010	0.707941	-0.390439
C125	C	1.088084	0.664751	-0.399578
C126	C	1.017288	0.668358	-0.332295
H127	H	0.541163	0.512088	0.093366
Cl128	Cl	-0.005660	0.814146	0.200590
Cl129	Cl	1.247109	0.209522	0.007638
Cl130	Cl	1.249209	0.182447	-0.494127
H131	H	0.673793	0.824539	-0.258102
H132	H	0.867150	0.348866	-0.061836
H133	H	1.107118	0.789908	-0.306559
H134	H	0.991309	0.633184	-0.339748
Cl135	Cl	1.169294	0.186753	-0.086017
Cl136	Cl	0.997953	0.344379	-0.080238
H137	H	0.330373	0.663105	-0.112489
H138	H	0.359623	0.972191	0.398569
H139	H	0.978697	0.796446	-0.184510
Cl140	Cl	0.192810	1.273942	0.139511
Cl141	Cl	0.379829	0.913163	-0.059354
Cl142	Cl	0.690423	0.608563	-0.704265
H143	H	0.223801	1.075240	-0.035209
Cl144	Cl	0.115013	1.251172	0.045839
Cl145	Cl	1.209015	0.703412	-0.475017
H146	H	1.138310	0.385455	0.088698
Cl147	Cl	0.861906	-0.086792	-0.059373
Cl148	Cl	0.112920	1.278249	0.547640
H149	H	1.119749	0.626650	-0.461811
H150	H	1.140701	0.355200	-0.471767
H151	H	1.151989	0.208092	-0.327901
Cl152	Cl	0.364125	1.116317	0.133757
H153	H	0.687781	0.642753	-0.566315
H154	H	1.002463	0.488506	-0.345053
H155	H	1.013768	0.341375	-0.201203
Cl156	Cl	0.400564	0.643523	0.204208
H157	H	0.550942	0.385368	0.088708
H158	H	0.485161	0.238553	0.120004
Cl159	Cl	0.120966	0.827985	-0.068834
H160	H	0.811149	0.075321	-0.035200
Cl161	Cl	0.982268	0.547533	0.112855
H162	H	0.110144	0.875591	0.089537
H163	H	0.494942	0.111824	0.115358
Cl164	Cl	0.191874	1.286832	0.379321
Cl165	Cl	0.241450	0.632611	0.122154
Cl166	Cl	0.917907	0.186748	-0.086013
H167	H	0.251980	0.585050	-0.036010
Cl168	Cl	0.240767	0.651700	0.356115
H169	H	0.691204	0.598463	-0.388194
Cl170	Cl	0.153068	0.757342	0.528588
H171	H	0.674287	0.817956	-0.380162
Cl172	Cl	0.668745	0.889835	-0.542412
Cl173	Cl	0.692703	0.579060	-0.252201
H174	H	0.370806	0.827508	0.393233
Cl175	Cl	0.669371	0.881642	-0.694282
Cl176	Cl	0.225170	0.854808	0.549152
Cl177	Cl	0.363809	1.121013	0.221693
H178	H	0.221415	1.105499	0.525281
