data_functionalizedCrystal
_audit_creation_method	'MofGen! by Chris Wilmer'
_symmetry_space_group_name_H-M	'P1'
_symmetry_Int_Tables_number	1
_symmetry_cell_setting	triclinic
loop_
_symmetry_equiv_pos_as_xyz
  x,y,z
_cell_length_a	16.109301
_cell_length_b	9.798715
_cell_length_c	16.109296
_cell_angle_alpha	90.003584
_cell_angle_beta	96.539474
_cell_angle_gamma	90.000966
loop_
_atom_site_label
_atom_site_type_symbol
_atom_site_fract_x
_atom_site_fract_y
_atom_site_fract_z
O1	O	1.103129	0.113384	-0.106866
O2	O	0.861067	0.113403	-0.120165
O3	O	0.988750	0.113407	0.007516
O4	O	0.975447	0.113380	-0.234546
O5	O	0.988740	-0.113575	0.007516
O6	O	0.861058	-0.113579	-0.120165
O7	O	1.103120	-0.113598	-0.106865
Zn8	Zn	0.982087	-0.149627	-0.113515
Zn9	Zn	0.982100	0.149432	-0.113515
O10	O	0.975437	-0.113602	-0.234546
C11	C	0.830088	-0.000085	-0.119626
C12	C	0.737792	-0.000077	-0.118011
N13	N	0.982085	-0.353727	-0.113514
C14	C	0.515519	-0.000101	-0.190019
C15	C	0.428798	-0.000109	-0.188495
C16	C	0.448675	-0.000086	-0.037006
C17	C	0.535394	-0.000088	-0.038531
C18	C	0.568813	-0.000088	-0.115040
C19	C	0.395374	-0.000095	-0.111991
C20	C	0.301348	-0.000104	-0.110338
C21	C	0.662845	-0.000081	-0.116693
C22	C	1.035697	-0.421502	-0.059670
C23	C	1.035711	-0.578664	-0.059667
C24	C	1.134099	-0.000107	-0.107404
C25	C	1.226395	-0.000106	-0.109019
C26	C	0.988207	-0.000077	0.038491
C27	C	0.986593	-0.000057	0.130787
N28	N	0.982109	0.353532	-0.113509
C29	C	0.981333	0.123654	0.429856
C30	C	0.982860	0.123660	0.343136
C31	C	0.982862	-0.123808	0.343121
C32	C	0.981340	-0.123813	0.429841
C33	C	0.980572	-0.000078	0.473205
C34	C	0.983621	-0.000067	0.299766
C35	C	0.985277	-0.000061	0.205740
C36	C	0.978917	-0.000083	0.567237
C37	C	0.975981	-0.000105	0.734479
C38	C	0.977599	-0.000087	0.642184
H39	H	0.385409	-0.000123	-0.249550
H40	H	1.081585	-0.363177	-0.013571
H41	H	1.081614	-0.636948	-0.013572
C42	C	0.438923	0.116621	0.092581
C43	C	0.411939	-0.000068	0.047091
H44	H	0.416248	0.116628	0.144501
H45	H	0.420627	0.195753	0.061706
H46	H	0.498198	0.116603	0.102397
H47	H	0.352664	-0.000045	0.037269
H48	H	0.430231	-0.079221	0.077973
H49	H	0.936209	-0.588193	-0.159613
H50	H	0.936192	-0.412053	-0.159607
H51	H	0.578789	-0.000081	0.022530
H52	H	0.980723	-0.224576	0.465137
H53	H	0.980706	0.224407	0.465160
C54	C	0.913132	-0.267346	0.236220
C55	C	0.983691	-0.259808	0.295445
H56	H	0.913640	-0.351312	0.206790
H57	H	0.913811	-0.193658	0.198000
H58	H	0.864093	-0.262204	0.263709
H59	H	1.032731	-0.264940	0.267955
H60	H	0.983020	-0.333517	0.333671
C61	C	0.487158	-0.000141	-0.339605
C62	C	0.552254	-0.000120	-0.274116
H63	H	0.509837	-0.000164	-0.391523
H64	H	0.453751	0.079010	-0.335864
H65	H	0.453746	-0.079298	-0.335847
H66	H	0.585662	0.079044	-0.277870
H67	H	0.585675	-0.079278	-0.277859
C68	C	0.982693	0.368267	0.351864
C69	C	0.983691	0.259671	0.295485
H70	H	0.983201	0.452237	0.322445
H71	H	1.030550	0.363125	0.392042
H72	H	0.933641	0.363100	0.379331
H73	H	1.032746	0.264833	0.268022
H74	H	0.935829	0.264816	0.255293
