data_functionalizedCrystal
_audit_creation_method	'MofGen! by Chris Wilmer'
_symmetry_space_group_name_H-M	'P1'
_symmetry_Int_Tables_number	1
_symmetry_cell_setting	triclinic
loop_
_symmetry_equiv_pos_as_xyz
  x,y,z
_cell_length_a	18.050589
_cell_length_b	18.101398
_cell_length_c	18.101389
_cell_angle_alpha	89.973091
_cell_angle_beta	90.019529
_cell_angle_gamma	89.987495
loop_
_atom_site_label
_atom_site_type_symbol
_atom_site_fract_x
_atom_site_fract_y
_atom_site_fract_z
Zn1	Zn	-0.295896	-1.132175	0.418884
Zn2	Zn	0.037437	-0.798842	0.752217
Zn3	Zn	0.370770	-0.465509	1.085551
Zn4	Zn	-0.420071	-1.132094	0.295040
Zn5	Zn	-0.086737	-0.798761	0.628373
Zn6	Zn	0.246596	-0.465427	0.961707
Zn7	Zn	-0.295882	-1.008334	0.295040
Zn8	Zn	0.037452	-0.675001	0.628373
Zn9	Zn	0.370785	-0.341668	0.961706
Zn10	Zn	-0.420032	-1.008308	0.418823
Zn11	Zn	-0.086698	-0.674975	0.752156
Zn12	Zn	0.246635	-0.341641	1.085490
O13	O	-0.357970	-1.070228	0.356947
O14	O	-0.024637	-0.736895	0.690280
O15	O	0.308697	-0.403561	1.023613
O16	O	-0.312391	-1.235798	0.402482
O17	O	0.020942	-0.902464	0.735815
O18	O	0.354276	-0.569131	1.069148
O19	O	-0.403607	-1.115654	0.191407
O20	O	-0.070273	-0.782321	0.524740
O21	O	0.263060	-0.448988	0.858074
O22	O	-0.191959	-1.024807	0.311493
O23	O	0.141374	-0.691474	0.644826
O24	O	0.474708	-0.358141	0.978160
O25	O	-0.403621	-1.235738	0.311494
O26	O	-0.070288	-0.902404	0.644827
O27	O	0.263046	-0.569071	0.978161
O28	O	-0.191970	-1.115793	0.402481
O29	O	0.141364	-0.782459	0.735814
O30	O	0.474697	-0.449126	1.069148
O31	O	-0.312366	-1.024728	0.191407
O32	O	0.020968	-0.691395	0.524740
O33	O	0.354301	-0.358062	0.858073
O34	O	-0.312328	-0.904698	0.311434
O35	O	0.021006	-0.571365	0.644767
O36	O	0.354339	-0.238031	0.978101
O37	O	-0.403555	-1.024762	0.522464
O38	O	-0.070221	-0.691429	0.855797
O39	O	0.263112	-0.358096	1.189131
O40	O	-0.403540	-0.904679	0.402377
O41	O	-0.070207	-0.571345	0.735711
O42	O	0.263126	-0.238012	1.069044
O43	O	-0.312353	-1.115767	0.522509
O44	O	0.020980	-0.782434	0.855842
O45	O	0.354314	-0.449100	1.189176
O46	O	-0.523990	-1.115629	0.311435
O47	O	-0.190657	-0.782295	0.644768
O48	O	0.142677	-0.448962	0.978102
O49	O	-0.523961	-1.024683	0.402378
O50	O	-0.190628	-0.691350	0.735711
O51	O	0.142705	-0.358017	1.069044
C52	C	-0.357929	-0.877817	0.356899
C53	C	-0.024595	-0.544484	0.690233
C54	C	0.308738	-0.211151	1.023566
C55	C	-0.357929	-0.795503	0.356897
C56	C	-0.024596	-0.462170	0.690230
C57	C	0.308738	-0.128837	1.023563
C58	C	-0.550922	-1.070164	0.356916
C59	C	-0.217589	-0.736831	0.690249
C60	C	0.115744	-0.403498	1.023583
C61	C	-0.633468	-1.070205	0.356927
C62	C	-0.300135	-0.736872	0.690261
C63	C	0.033199	-0.403538	1.023594
C64	C	-0.357951	-1.070271	0.550109
C65	C	-0.024618	-0.736937	0.883442
C66	C	0.308715	-0.403604	1.216775
C67	C	-0.357943	-1.070289	0.632423
C68	C	-0.024610	-0.736956	0.965756
C69	C	0.308723	-0.403622	1.299089
C70	C	-0.882282	-1.119790	0.307555
C71	C	-0.548949	-0.786456	0.640888
C72	C	-0.215615	-0.453123	0.974221
C73	C	-0.832939	-1.052221	0.289356
C74	C	-0.499605	-0.718888	0.622689
C75	C	-0.166272	-0.385554	0.956023
C76	C	-0.930588	-1.070298	0.356984
C77	C	-0.597255	-0.736965	0.690318
C78	C	-0.263922	-0.403631	1.023651
C79	C	-0.832850	-1.137817	0.375120
C80	C	-0.499517	-0.804483	0.708453
C81	C	-0.166183	-0.471150	1.041787
C82	C	-0.784603	-1.070256	0.356955
C83	C	-0.451270	-0.736922	0.690288
C84	C	-0.117937	-0.403589	1.023621
C85	C	-0.882332	-1.002694	0.338751
C86	C	-0.548999	-0.669361	0.672084
C87	C	-0.215665	-0.336027	1.005418
C88	C	-0.882248	-1.088335	0.424547
C89	C	-0.548915	-0.755002	0.757880
C90	C	-0.215581	-0.421668	1.091213
C91	C	-0.832927	-1.020720	0.406373
C92	C	-0.499593	-0.687386	0.739707
C93	C	-0.166260	-0.354053	1.073040
C94	C	-1.014687	-1.070323	0.357000
C95	C	-0.681353	-0.736990	0.690333
C96	C	-0.348020	-0.403657	1.023666
C97	C	-0.700507	-1.070223	0.356939
C98	C	-0.367173	-0.736890	0.690273
C99	C	-0.033840	-0.403556	1.023606
C100	C	-0.164264	-1.070312	0.356994
C101	C	0.169069	-0.736979	0.690327
C102	C	0.502402	-0.403645	1.023661
C103	C	-0.081719	-1.070348	0.357014
C104	C	0.251615	-0.737014	0.690347
C105	C	0.584948	-0.403681	1.023681
C106	C	-0.357958	-0.496412	0.356945
C107	C	-0.024625	-0.163079	0.690279
C108	C	0.308709	0.170254	1.023612
C109	C	-0.300285	-0.527725	0.300007
C110	C	0.033049	-0.194392	0.633340
C111	C	0.366382	0.138942	0.966674
C112	C	-0.300444	-0.613343	0.299768
C113	C	0.032889	-0.280010	0.633101
C114	C	0.366222	0.053323	0.966435
C115	C	-0.357943	-0.644795	0.356921
C116	C	-0.024610	-0.311462	0.690255
C117	C	0.308724	0.021872	1.023588
C118	C	-0.436169	-0.613691	0.335594
C119	C	-0.102835	-0.280358	0.668927
C120	C	0.230498	0.052976	1.002261
C121	C	-0.435843	-0.528046	0.335194
C122	C	-0.102510	-0.194713	0.668527
C123	C	0.230823	0.138621	1.001861
C124	C	-0.338088	-0.528023	0.435347
C125	C	-0.004754	-0.194690	0.768680
C126	C	0.328579	0.138643	1.102013
C127	C	-0.336351	-0.613674	0.434923
C128	C	-0.003017	-0.280340	0.768256
C129	C	0.330316	0.052993	1.101589
C130	C	-0.357939	-0.728654	0.356909
C131	C	-0.024606	-0.395321	0.690242
C132	C	0.308727	-0.061988	1.023576
C133	C	-0.357967	-0.412553	0.356956
C134	C	-0.024634	-0.079220	0.690289
C135	C	0.308700	0.254114	1.023623
C136	C	-0.357997	-0.263390	0.356983
C137	C	-0.024664	0.069943	0.690317
C138	C	0.308669	0.403277	1.023650
C139	C	-0.357972	-0.345704	0.356970
C140	C	-0.024639	-0.012371	0.690303
C141	C	0.308694	0.320963	1.023637
C142	C	-0.357935	-1.070228	0.164536
C143	C	-0.024602	-0.736895	0.497870
C144	C	0.308732	-0.403561	0.831203
C145	C	-0.357734	-1.070353	0.082223
C146	C	-0.024401	-0.737020	0.415556
C147	C	0.308933	-0.403687	0.748889
C148	C	-0.357804	-1.070332	0.931514
C149	C	-0.024471	-0.736999	1.264847
C150	C	0.308863	-0.403665	1.598181
C151	C	-0.415003	-1.012877	0.900161
C152	C	-0.081670	-0.679544	1.233494
C153	C	0.251664	-0.346210	1.566827
C154	C	-0.415269	-1.013032	0.814542
C155	C	-0.081935	-0.679699	1.147876
C156	C	0.251398	-0.346366	1.481209
C157	C	-0.357873	-1.070310	0.783131
C158	C	-0.024540	-0.736977	1.116465
C159	C	0.308794	-0.403643	1.449798
C160	C	-0.379128	-1.148339	0.814240
C161	C	-0.045794	-0.815006	1.147574
C162	C	0.287539	-0.481673	1.480907
C163	C	-0.379503	-1.148019	0.899885
C164	C	-0.046170	-0.814686	1.233218
C165	C	0.287163	-0.481353	1.566552
C166	C	-0.279223	-1.050436	0.899939
C167	C	0.054110	-0.717103	1.233272
C168	C	0.387444	-0.383770	1.566606
C169	C	-0.279677	-1.048700	0.814288
C170	C	0.053656	-0.715367	1.147621
C171	C	0.386990	-0.382034	1.480954
C172	C	-0.357911	-1.070302	0.699272
C173	C	-0.024578	-0.736969	1.032605
C174	C	0.308756	-0.403636	1.365938
C175	C	-0.357768	-1.070345	1.015374
C176	C	-0.024435	-0.737012	1.348707
C177	C	0.308899	-0.403678	1.682040
H178	H	-0.903953	-1.161609	0.265734
H179	H	-0.570620	-0.828276	0.599068
H180	H	-0.237286	-0.494942	0.932401
Br181	Br	-0.240411	-0.647576	0.461738
Br182	Br	0.092923	-0.314243	0.795072
Br183	Br	0.426256	0.019090	1.128405
Br184	Br	-0.244664	-0.492055	0.467662
Br185	Br	0.088669	-0.158722	0.800995
Br186	Br	0.422003	0.174612	1.134328
H187	H	-0.242097	-0.507144	0.313227
H188	H	0.091236	-0.173811	0.646560
H189	H	0.424570	0.159523	0.979893
H190	H	-0.903975	-0.945560	0.323335
H191	H	-0.570642	-0.612227	0.656668
H192	H	-0.237308	-0.278893	0.990002
H193	H	-0.903925	-1.103634	0.481679
H194	H	-0.570591	-0.770300	0.815012
H195	H	-0.237258	-0.436967	1.148346
H196	H	-0.436947	-1.164884	0.919868
H197	H	-0.103614	-0.831551	1.253201
H198	H	0.229720	-0.498218	1.586535
Br199	Br	-0.796830	-1.026756	0.194107
Br200	Br	-0.463497	-0.693422	0.527440
Br201	Br	-0.130163	-0.360089	0.860774
Br202	Br	-0.797034	-0.950855	0.476028
Br203	Br	-0.463701	-0.617522	0.809361
Br204	Br	-0.130368	-0.284189	1.142694
H205	H	-0.375299	-0.635086	0.479622
H206	H	-0.041966	-0.301753	0.812955
H207	H	0.291367	0.031581	1.146288
H208	H	-0.811115	-1.194934	0.390471
H209	H	-0.477782	-0.861600	0.723804
H210	H	-0.144448	-0.528267	1.057138
Br211	Br	-0.203760	-0.648399	0.322049
Br212	Br	0.129573	-0.315066	0.655383
Br213	Br	0.462907	0.018268	0.988716
H214	H	-0.313271	-0.506178	0.242251
H215	H	0.020062	-0.172845	0.575584
H216	H	0.353396	0.160489	0.908917
H217	H	-0.313581	-0.633799	0.241675
H218	H	0.019752	-0.300466	0.575009
H219	H	0.353085	0.032867	0.908342
Br220	Br	-0.463932	-0.494692	0.239666
Br221	Br	-0.130598	-0.161359	0.572999
Br222	Br	0.202735	0.171974	0.906332
Br223	Br	-0.252964	-0.952986	0.780410
Br224	Br	0.080369	-0.619652	1.113743
Br225	Br	0.413703	-0.286319	1.447076
H226	H	-0.480269	-0.507332	0.374857
H227	H	-0.146936	-0.173999	0.708190
H228	H	0.186398	0.159335	1.041524
Br229	Br	-0.509715	-0.647632	0.402561
Br230	Br	-0.176381	-0.314299	0.735894
Br231	Br	0.156952	0.019034	1.069227
Br232	Br	-0.246951	-0.957247	0.935910
Br233	Br	0.086383	-0.623913	1.269243
Br234	Br	0.419716	-0.290580	1.602577
H235	H	-0.453317	-0.635109	0.278900
H236	H	-0.119983	-0.301776	0.612233
H237	H	0.213350	0.031558	0.945566
H238	H	-0.380095	-0.507774	0.477771
H239	H	-0.046762	-0.174441	0.811105
H240	H	0.286571	0.158892	1.144438
H241	H	-0.401967	-0.955171	0.793507
H242	H	-0.068633	-0.621838	1.126841
H243	H	0.264700	-0.288504	1.460174
H244	H	-0.401837	-0.954842	0.920744
H245	H	-0.068504	-0.621508	1.254077
H246	H	0.264829	-0.288175	1.587411
Br247	Br	-0.511481	-1.034503	0.936098
Br248	Br	-0.178148	-0.701169	1.269431
Br249	Br	0.155185	-0.367836	1.602764
Br250	Br	-0.204872	-1.113365	0.778663
Br251	Br	0.128461	-0.780032	1.111996
Br252	Br	0.461795	-0.446698	1.445330
Br253	Br	-0.512340	-1.034971	0.780396
Br254	Br	-0.179007	-0.701638	1.113729
Br255	Br	0.154326	-0.368304	1.447062
Br256	Br	-0.313034	-1.221743	0.934463
Br257	Br	0.020300	-0.888409	1.267796
Br258	Br	0.353633	-0.555076	1.601130
H259	H	-0.338776	-1.192298	0.793897
H260	H	-0.005443	-0.858965	1.127230
H261	H	0.327891	-0.525631	1.460564
Br262	Br	-0.208193	-1.120185	0.933734
Br263	Br	0.125140	-0.786851	1.267068
Br264	Br	0.458474	-0.453518	1.600401
Br265	Br	-0.473854	-1.176939	0.778503
Br266	Br	-0.140520	-0.843606	1.111837
Br267	Br	0.192813	-0.510272	1.445170
