data_functionalizedCrystal
_audit_creation_method	'MofGen! by Chris Wilmer'
_symmetry_space_group_name_H-M	'P1'
_symmetry_Int_Tables_number	1
_symmetry_cell_setting	triclinic
loop_
_symmetry_equiv_pos_as_xyz
  x,y,z
_cell_length_a	12.759401
_cell_length_b	16.120484
_cell_length_c	12.759393
_cell_angle_alpha	92.862621
_cell_angle_beta	89.982549
_cell_angle_gamma	92.924448
loop_
_atom_site_label
_atom_site_type_symbol
_atom_site_fract_x
_atom_site_fract_y
_atom_site_fract_z
Zn1	Zn	1.584958	-0.331876	-0.615149
Zn2	Zn	1.575913	-0.471314	-0.448362
Zn3	Zn	1.409261	-0.331917	-0.439491
Zn4	Zn	1.400310	-0.471246	-0.623999
O5	O	1.492611	-0.401588	-0.531750
O6	O	1.730779	-0.350383	-0.593033
O7	O	1.553767	-0.452868	-0.300167
O8	O	1.440099	-0.215247	-0.455376
O9	O	1.724133	-0.452828	-0.470496
O10	O	1.569183	-0.215216	-0.584431
O11	O	1.431328	-0.350454	-0.293649
O12	O	1.261053	-0.350389	-0.463957
O13	O	1.424844	-0.452713	-0.769843
O14	O	1.254477	-0.452753	-0.599515
O15	O	1.560504	-0.350318	-0.763341
O16	O	1.545087	-0.587970	-0.479077
O17	O	1.416073	-0.587920	-0.608117
C18	C	1.219645	-0.401569	-0.531734
C19	C	1.102867	-0.401580	-0.531754
C20	C	1.051452	-0.348338	-0.595670
C21	C	0.941727	-0.348354	-0.595677
C22	C	0.934841	-0.454862	-0.467851
C23	C	1.044565	-0.454841	-0.467838
C24	C	1.109755	-0.295078	-0.659585
C25	C	1.058340	-0.241832	-0.723507
C26	C	0.948615	-0.241848	-0.723515
C27	C	0.890304	-0.295110	-0.659601
C28	C	1.478656	-0.618195	-0.545543
C29	C	1.472782	-0.710860	-0.551478
C30	C	1.462064	-0.880521	-0.562337
C31	C	1.523346	-0.921815	-0.501181
C32	C	1.517382	-1.016220	-0.507223
C33	C	1.468026	-0.786108	-0.556296
C34	C	1.766643	-0.401609	-0.531767
C35	C	1.883419	-0.401617	-0.531774
C36	C	1.492684	-0.401503	-0.805778
C37	C	1.492716	-0.401467	-0.922553
C38	C	1.506649	-0.184136	-0.517927
C39	C	1.512631	-0.091470	-0.512036
C40	C	1.428991	-0.348130	-0.974026
C41	C	1.429024	-0.348106	-1.083749
C42	C	1.556516	-0.454757	-1.090515
C43	C	1.556476	-0.454785	-0.980794
C44	C	1.365231	-0.294812	-0.915785
C45	C	1.301502	-0.241471	-0.967258
C46	C	1.301535	-0.241446	-1.076981
C47	C	1.365297	-0.294763	-1.135230
C48	C	1.492602	-0.401613	-0.258784
C49	C	1.492789	-0.401414	-0.141996
H50	H	1.105823	-0.198463	-0.775537
C51	C	1.385137	-0.928533	-0.639189
H52	H	1.347472	-0.890211	-0.676772
H53	H	1.337282	-0.962562	-0.601089
H54	H	1.423207	-0.962443	-0.687132
H55	H	1.365198	-0.294825	-0.826443
H56	H	0.906756	-0.198486	-0.775555
H57	H	0.887357	-0.498226	-0.415817
H58	H	1.249583	-0.198066	-0.919825
C59	C	0.769609	-0.295129	-0.659613
H60	H	0.747336	-0.255794	-0.706837
H61	H	0.745684	-0.280656	-0.590926
H62	H	0.741347	-0.348954	-0.681108
H63	H	1.086428	-0.498196	-0.415792
C64	C	1.231437	-0.182775	-1.133600
H65	H	1.193466	-0.151023	-1.083195
H66	H	1.183612	-0.214647	-1.178427
H67	H	1.273997	-0.146442	-1.174093
H68	H	1.580288	-0.886267	-0.444286
H69	H	1.365317	-0.294740	-1.224574
H70	H	1.608431	-0.498163	-1.137949
C71	C	1.626569	-0.513456	-0.924169
H72	H	1.664558	-0.545199	-0.974568
H73	H	1.584012	-0.549785	-0.883676
H74	H	1.674395	-0.481577	-0.879339
H75	H	1.199099	-0.295058	-0.659586
