data_functionalizedCrystal
_audit_creation_method	'MofGen! by Chris Wilmer'
_symmetry_space_group_name_H-M	'P1'
_symmetry_Int_Tables_number	1
_symmetry_cell_setting	triclinic
loop_
_symmetry_equiv_pos_as_xyz
  x,y,z
_cell_length_a	12.759395
_cell_length_b	18.050589
_cell_length_c	12.759387
_cell_angle_alpha	90.029987
_cell_angle_beta	90.020509
_cell_angle_gamma	90.029758
loop_
_atom_site_label
_atom_site_type_symbol
_atom_site_fract_x
_atom_site_fract_y
_atom_site_fract_z
Zn1	Zn	1.606170	-0.295590	0.594011
Zn2	Zn	2.106170	0.204410	1.094011
Zn3	Zn	1.606019	-0.419799	0.418334
Zn4	Zn	2.106019	0.080201	0.918334
Zn5	Zn	1.430468	-0.295630	0.418348
Zn6	Zn	1.930468	0.204370	0.918348
Zn7	Zn	1.430419	-0.419746	0.593973
Zn8	Zn	1.930419	0.080254	1.093973
O9	O	1.518269	-0.357691	0.506166
O10	O	2.018269	0.142309	1.006166
O11	O	1.753171	-0.312072	0.570717
O12	O	2.253171	0.187928	1.070717
O13	O	1.582689	-0.403367	0.271315
O14	O	2.082689	0.096633	0.771315
O15	O	1.453859	-0.191700	0.441672
O16	O	1.953859	0.308300	0.941672
O17	O	1.753060	-0.403327	0.441648
O18	O	2.253060	0.096673	0.941648
O19	O	1.582946	-0.191671	0.570731
O20	O	2.082946	0.308329	1.070731
O21	O	1.453713	-0.312141	0.271325
O22	O	1.953713	0.187859	0.771325
O23	O	1.283441	-0.312089	0.441635
O24	O	1.783441	0.187911	0.941635
O25	O	1.453775	-0.403237	0.740999
O26	O	1.953775	0.096763	1.240999
O27	O	1.283405	-0.403277	0.570666
O28	O	1.783405	0.096723	1.070666
O29	O	1.582899	-0.312020	0.741027
O30	O	2.082899	0.187980	1.241027
O31	O	1.582642	-0.523716	0.441611
O32	O	2.082642	-0.023716	0.941611
O33	O	1.453629	-0.523677	0.570652
O34	O	1.953629	-0.023677	1.070652
C35	C	1.245302	-0.357682	0.506148
C36	C	1.745302	0.142318	1.006148
C37	C	1.128525	-0.357696	0.506166
C38	C	1.628525	0.142304	1.006166
C39	C	1.128526	-0.452803	0.640308
C40	C	1.628526	0.047197	1.140308
C41	C	1.073666	-0.500362	0.707383
C42	C	1.573666	-0.000362	1.207383
C43	C	0.963944	-0.500371	0.707395
C44	C	1.463944	-0.000371	1.207395
C45	C	0.909080	-0.452814	0.640329
C46	C	1.409080	0.047186	1.140329
C47	C	0.963940	-0.405255	0.573255
C48	C	1.463940	0.094745	1.073255
C49	C	1.073665	-0.405253	0.573247
C50	C	1.573665	0.094747	1.073247
C51	C	0.963939	-0.310146	0.439119
C52	C	1.463939	0.189854	0.939119
C53	C	1.073661	-0.310139	0.439099
C54	C	1.573661	0.189861	0.939099
C55	C	0.909076	-0.262589	0.372052
C56	C	1.409076	0.237411	0.872052
C57	C	0.963936	-0.215032	0.304971
C58	C	1.463936	0.284968	0.804971
C59	C	1.073664	-0.215026	0.304960
C60	C	1.573664	0.284974	0.804960
C61	C	1.128521	-0.262580	0.372025
C62	C	1.628521	0.237420	0.872025
C63	C	1.518142	-0.550643	0.506149
C64	C	2.018142	-0.050643	1.006149
C65	C	1.518184	-0.633189	0.506177
C66	C	2.018184	-0.133189	1.006177
C67	C	1.448096	-0.832646	0.576325
C68	C	1.948096	-0.332646	1.076325
C69	C	1.422480	-0.882094	0.480456
C70	C	1.922480	-0.382094	0.980456
C71	C	1.518287	-0.784319	0.506190
C72	C	2.018287	-0.284319	1.006190
C73	C	1.543955	-0.881953	0.602070
C74	C	2.043955	-0.381953	1.102070
C75	C	1.518385	-0.930304	0.506212
C76	C	2.018385	-0.430304	1.006212
C77	C	1.492621	-0.832681	0.410271
C78	C	1.992621	-0.332681	0.910271
C79	C	1.614141	-0.832535	0.531950
C80	C	2.114141	-0.332535	1.031950
C81	C	1.588561	-0.881961	0.436015
C82	C	2.088561	-0.381961	0.936015
C83	C	1.518228	-0.700221	0.506179
C84	C	2.018228	-0.200221	1.006179
C85	C	1.518444	-1.014401	0.506212
C86	C	2.018444	-0.514401	1.006212
C87	C	1.792302	-0.357701	0.506185
C88	C	2.292302	0.142299	1.006185
C89	C	1.909079	-0.357705	0.506193
C90	C	2.409079	0.142295	1.006193
C91	C	1.518348	-0.357618	0.780200
C92	C	2.018348	0.142382	1.280200
C93	C	1.518382	-0.357587	0.896977
C94	C	2.018382	0.142413	1.396977
C95	C	1.518425	-0.163986	0.506207
C96	C	2.018425	0.336014	1.006207
C97	C	1.518492	-0.081440	0.506224
C98	C	2.018492	0.418560	1.006224
C99	C	1.518251	-0.357710	0.233199
C100	C	2.018251	0.142290	0.733199
C101	C	1.518420	-0.357532	0.116423
C102	C	2.018420	0.142468	0.616423
C103	C	1.652848	-0.262609	0.897026
C104	C	2.152848	0.237391	1.397026
C105	C	1.720095	-0.215109	0.951911
C106	C	2.220095	0.284891	1.451911
C107	C	1.720121	-0.215082	1.061633
C108	C	2.220121	0.284918	1.561633
C109	C	1.652889	-0.262559	1.116472
C110	C	2.152889	0.237441	1.616472
C111	C	1.585642	-0.310059	1.061586
C112	C	2.085642	0.189941	1.561586
C113	C	1.585626	-0.310082	0.951862
C114	C	2.085626	0.189918	1.451862
C115	C	1.451173	-0.405032	1.061538
C116	C	1.951173	0.094968	1.561538
C117	C	1.451151	-0.405064	0.951816
C118	C	1.951151	0.094936	1.451816
C119	C	1.383942	-0.452509	1.116376
C120	C	1.883942	0.047491	1.616376
C121	C	1.316698	-0.500013	1.061491
C122	C	1.816698	-0.000013	1.561491
C123	C	1.316676	-0.500039	0.951763
C124	C	1.816676	-0.000039	1.451763
C125	C	1.383904	-0.452564	0.896931
C126	C	1.883904	0.047436	1.396931
H127	H	1.217867	-0.452806	0.640297
H128	H	1.717867	0.047194	1.140297
H129	H	1.383897	-0.452583	0.807589
H130	H	1.883897	0.047417	1.307589
N131	N	0.797003	-0.452808	0.640336
N132	N	1.297003	0.047192	1.140336
N133	N	0.748031	-0.410345	0.580457
N134	N	1.248031	0.089655	1.080457
H135	H	0.668874	-0.410336	0.580463
H136	H	1.168874	0.089664	1.080463
N137	N	1.248016	-0.548503	1.117490
N138	N	1.748016	-0.048503	1.617490
N139	N	1.187974	-0.590909	1.068478
N140	N	1.687974	-0.090909	1.568478
H141	H	1.139461	-0.625153	1.108029
H142	H	1.639461	-0.125153	1.608029
H143	H	0.819735	-0.262596	0.372072
H144	H	1.319735	0.237404	0.872072
N145	N	1.465303	-0.805636	0.308542
N146	N	1.965303	-0.305636	0.808542
N147	N	1.460808	-0.737448	0.292127
N148	N	1.960808	-0.237448	0.792127
H149	H	1.441505	-0.718345	0.220285
H150	H	1.941505	-0.218345	0.720285
H151	H	1.695137	-0.810752	0.553763
H152	H	2.195137	-0.310752	1.053763
N153	N	1.247967	-0.548559	0.895719
N154	N	1.747967	-0.048559	1.395719
N155	N	1.187947	-0.590937	0.944699
N156	N	1.687947	-0.090937	1.444699
H157	H	1.139417	-0.625205	0.905122
H158	H	1.639417	-0.125205	1.405122
H159	H	1.118325	-0.176292	0.250347
H160	H	1.618325	0.323708	0.750347
H161	H	1.774873	-0.176399	1.106320
H162	H	2.274873	0.323601	1.606320
H163	H	1.652907	-0.262526	1.205813
H164	H	2.152907	0.237474	1.705813
N165	N	1.129724	-0.548928	0.775888
N166	N	1.629724	-0.048928	1.275888
N167	N	1.227689	-0.548915	0.775874
N168	N	1.727689	-0.048915	1.275874
H169	H	1.267279	-0.583212	0.824259
H170	H	1.767279	-0.083212	1.324259
N171	N	0.907916	-0.548950	0.775922
N172	N	1.407916	-0.048950	1.275922
N173	N	0.956906	-0.591403	0.835801
N174	N	1.456906	-0.091403	1.335801
H175	H	0.917337	-0.625712	0.884200
H176	H	1.417337	-0.125712	1.384200
N177	N	1.571127	-0.909107	0.703780
N178	N	2.071127	-0.409107	1.203780
N179	N	1.515319	-0.893293	0.781108
N180	N	2.015319	-0.393293	1.281108
H181	H	1.534500	-0.912469	0.852943
H182	H	2.034500	-0.412469	1.352943
H183	H	0.919257	-0.176312	0.250376
H184	H	1.419257	0.323688	0.750376
H185	H	1.388650	-0.810991	0.635551
H186	H	1.888650	-0.310991	1.135551
H187	H	1.383963	-0.452480	1.205718
H188	H	1.883963	0.047520	1.705718
N189	N	1.652846	-0.262635	0.784948
N190	N	2.152846	0.237365	1.284948
N191	N	1.712878	-0.220247	0.735998
N192	N	2.212878	0.279753	1.235998
H193	H	1.712880	-0.220263	0.656842
H194	H	2.212880	0.279737	1.156842
N195	N	1.240599	-0.262579	0.372041
N196	N	1.740599	0.237421	0.872041
N197	N	1.289606	-0.247133	0.454039
N198	N	1.789606	0.252867	0.954039
H199	H	1.368763	-0.247133	0.454059
H200	H	1.868763	0.252867	0.954059
H201	H	1.647961	-0.903478	0.376645
H202	H	2.147961	-0.403478	0.876645
N203	N	1.320838	-0.909394	0.453133
N204	N	1.820838	-0.409394	0.953133
N205	N	1.243404	-0.893609	0.508799
N206	N	1.743404	-0.393609	1.008799
H207	H	1.171616	-0.912887	0.489509
H208	H	1.671616	-0.412887	0.989509
H209	H	1.774831	-0.176454	0.907249
H210	H	2.274831	0.323546	1.407249
