data_functionalizedCrystal
_audit_creation_method	'MofGen! by Chris Wilmer'
_symmetry_space_group_name_H-M	'P1'
_symmetry_Int_Tables_number	1
_symmetry_cell_setting	triclinic
loop_
_symmetry_equiv_pos_as_xyz
  x,y,z
_cell_length_a	8.559649
_cell_length_b	8.559649
_cell_length_c	7.681208
_cell_angle_alpha	94.923183
_cell_angle_beta	94.921796
_cell_angle_gamma	110.221336
loop_
_atom_site_label
_atom_site_type_symbol
_atom_site_fract_x
_atom_site_fract_y
_atom_site_fract_z
O1	O	-2.144101	-0.072270	-0.146407
O2	O	-1.668617	0.011511	-0.146414
O3	O	-1.948249	-0.268121	-0.146407
O4	O	-1.864469	0.207363	-0.146414
O5	O	-1.913783	-0.233651	0.146463
O6	O	-1.634151	0.045981	0.146456
O7	O	-2.109635	-0.037799	0.146463
Zn8	Zn	-1.866421	0.009564	0.192958
Zn9	Zn	-1.911831	-0.035852	-0.192910
O10	O	-1.830003	0.241833	0.146456
C11	C	-1.591075	0.035095	0.000020
C12	C	-1.411376	0.053994	0.000017
C13	C	-1.937366	-0.311195	0.000025
C14	C	-1.956266	-0.490896	0.000016
C15	C	-2.187177	-0.061384	0.000025
C16	C	-2.366878	-0.080284	0.000016
C17	C	-1.840887	0.284907	0.000020
C18	C	-1.821988	0.464606	0.000017
N19	N	-1.835441	0.040557	0.456303
N20	N	-1.942811	-0.066846	0.543746
H21	H	-1.466256	-0.209704	0.000010
C22	C	-1.687430	0.188640	0.557929
C23	C	-1.663573	0.212073	0.760703
C24	C	-1.515560	0.360158	0.862341
C25	C	-1.391403	0.484810	0.761205
C26	C	-1.415257	0.461379	0.558419
C27	C	-1.563271	0.313295	0.456781
H28	H	-1.755484	0.119796	0.835580
H29	H	-1.497902	0.377502	1.012457
H30	H	-1.281835	0.594431	0.836444
H31	H	-1.323346	0.553657	0.483542
H32	H	-1.580928	0.295951	0.306665
H33	H	-2.052370	-0.176468	0.468503
H34	H	-1.311989	0.183421	0.000005
H35	H	-2.085684	0.409728	0.000029
H36	H	-1.692559	0.563995	0.000024
