data_functionalizedCrystal
_audit_creation_method	'MofGen! by Chris Wilmer'
_symmetry_space_group_name_H-M	'P1'
_symmetry_Int_Tables_number	1
_symmetry_cell_setting	triclinic
loop_
_symmetry_equiv_pos_as_xyz
  x,y,z
_cell_length_a	14.560438
_cell_length_b	23.196402
_cell_length_c	23.196401
_cell_angle_alpha	60.008822
_cell_angle_beta	90.014604
_cell_angle_gamma	60.000805
loop_
_atom_site_label
_atom_site_type_symbol
_atom_site_fract_x
_atom_site_fract_y
_atom_site_fract_z
Zr1	Zr	0.884767	0.630989	-0.075609
O2	O	0.738089	0.751257	-0.167659
O3	O	0.929728	0.510722	-0.047395
O4	O	0.929688	0.630989	-0.167660
O5	O	0.738165	0.630988	0.047478
O6	O	1.080829	0.630988	-0.167657
O7	O	0.738129	0.630990	-0.047393
O8	O	1.080901	0.415852	0.047476
O9	O	0.738093	0.846124	-0.167655
O10	O	1.061703	0.560187	-0.035355
O11	O	0.948935	0.560188	0.035444
O12	O	0.948887	0.701787	-0.106153
O13	O	0.836120	0.701787	-0.035353
Zr14	Zr	1.125877	0.630983	0.075705
Zr15	Zr	1.125820	0.630986	-0.075604
Zr16	Zr	0.884825	0.630986	0.075700
Zr17	Zr	0.884774	0.782291	-0.075603
Zr18	Zr	1.125871	0.479681	0.075698
O19	O	1.080916	0.751250	0.047490
O20	O	1.080834	0.751253	-0.167652
O21	O	0.738171	0.751254	0.047483
O22	O	1.272556	0.510715	0.167754
O23	O	1.272474	0.510718	-0.047388
O24	O	0.929810	0.510719	0.167747
O25	O	1.272479	0.630984	-0.047382
O26	O	1.080957	0.630982	0.167755
O27	O	0.929816	0.630984	0.167752
O28	O	1.272515	0.630982	0.047489
O29	O	0.929697	0.846122	-0.167651
O30	O	1.080947	0.415850	0.167746
O31	O	1.272552	0.415848	0.167750
O32	O	1.272506	0.415849	0.047480
O33	O	0.738139	0.846122	-0.047384
O34	O	0.929743	0.846120	-0.047380
O35	O	1.061757	0.560185	0.106248
O36	O	1.174525	0.560185	0.035449
O37	O	1.061709	0.701784	-0.035349
O38	O	0.948941	0.701784	0.035450
C39	C	1.005314	0.441730	0.000040
C40	C	1.005311	0.377498	0.000037
C41	C	1.064167	0.347327	-0.036922
C42	C	1.064178	0.286966	-0.036916
C43	C	1.005311	0.256790	0.000039
C44	C	0.946452	0.286964	0.037006
C45	C	0.946453	0.347318	0.037005
C46	C	0.906687	0.194762	-0.005238
C47	C	0.906684	0.134412	-0.005242
C48	C	1.005312	0.070635	0.000046
C49	C	1.103943	0.067222	0.005323
C50	C	1.103943	0.127576	0.005323
C51	C	1.005305	0.191345	0.000044
C52	C	1.064185	-0.024987	-0.036909
C53	C	1.064199	-0.085353	-0.036898
C54	C	0.946463	-0.085348	0.037020
C55	C	0.946460	-0.024989	0.037014
C56	C	1.005319	0.005191	0.000046
C57	C	0.703803	0.630989	0.000042
C58	C	0.601469	0.630991	0.000039
C59	C	0.553366	0.630993	-0.052225
C60	C	0.457220	0.630985	-0.052215
C61	C	0.457287	0.630977	0.052326
C62	C	0.553436	0.630978	0.052318
C63	C	0.553324	0.631001	-0.112582
C64	C	0.457178	0.630994	-0.112573
C65	C	1.306842	0.630982	0.000054
C66	C	1.409175	0.630981	0.000056
C67	C	1.005250	0.630989	-0.189217
C68	C	1.005226	0.630990	-0.253451
C69	C	1.005331	0.820242	0.000056
C70	C	1.005333	0.884474	0.000059
C71	C	0.946343	0.704901	-0.320580
C72	C	0.946371	0.704902	-0.380935
C73	C	1.005268	0.630988	-0.374157
C74	C	1.064163	0.557067	-0.307017
C75	C	1.064143	0.557068	-0.246664
C76	C	0.996901	0.574360	-0.441477
C77	C	0.996914	0.574362	-0.501831
C78	C	1.005339	0.630982	-0.560305
C79	C	1.013727	0.687613	-0.558425
C80	C	1.013707	0.687614	-0.498072
C81	C	1.005297	0.630978	-0.439596
C82	C	0.946484	0.704899	-0.692881
C83	C	0.946520	0.704897	-0.753235
C84	C	1.064305	0.557060	-0.679315
C85	C	1.064276	0.557064	-0.618962
C86	C	1.005359	0.630986	-0.625750
C87	C	1.005394	0.630983	0.189312
C88	C	1.005419	0.630982	0.253547
C89	C	1.306834	0.441726	0.000046
C90	C	1.409164	0.377493	0.000045
C91	C	1.005386	0.441727	0.189304
C92	C	1.005408	0.377494	0.253536
C93	C	1.306906	0.441723	0.189310
C94	C	1.409261	0.377489	0.253544
C95	C	0.703739	0.820249	-0.189215
C96	C	0.601384	0.884483	-0.253449
C97	C	0.703811	0.820246	0.000050
C98	C	0.601481	0.884479	0.000050
C99	C	1.005258	0.820245	-0.189208
C100	C	1.005237	0.884478	-0.253440
C101	C	1.398328	0.347330	-0.036920
C102	C	1.494468	0.286984	-0.036935
C103	C	1.601445	0.256799	0.000020
C104	C	1.612279	0.286968	0.036987
C105	C	1.516139	0.347317	0.036997
C106	C	1.064310	0.347328	0.320665
C107	C	1.064326	0.286983	0.381023
C108	C	1.005446	0.256801	0.374251
C109	C	0.946537	0.286972	0.307115
C110	C	0.946515	0.347320	0.246758
C111	C	1.516201	0.347324	0.246753
C112	C	1.612384	0.286978	0.307102
C113	C	1.601623	0.256794	0.374241
C114	C	1.494671	0.286965	0.381031
C115	C	1.398491	0.347314	0.320683
C116	C	0.494443	0.914655	-0.246657
C117	C	0.398261	0.975020	-0.307006
C118	C	0.409022	1.005208	-0.374146
C119	C	0.515974	0.975033	-0.380936
C120	C	0.612153	0.914673	-0.320588
C121	C	0.612317	0.914648	0.037010
C122	C	0.516176	0.975010	0.037008
C123	C	0.409200	1.005198	0.000050
C124	C	0.398366	0.975026	-0.036914
C125	C	0.494505	0.914669	-0.036915
C126	C	1.064128	0.914641	-0.246645
C127	C	1.064130	0.974987	-0.306992
C128	C	1.005233	1.005172	-0.374133
C129	C	0.946340	0.975003	-0.380927
C130	C	0.946345	0.914654	-0.320581
H131	H	1.112116	-0.000416	-0.067008
H132	H	0.330697	1.054356	-0.423279
Cl133	Cl	1.138192	-0.123279	-0.083368
H134	H	0.473997	0.572445	-0.102028
H135	H	0.898522	0.371884	0.067102
Cl136	Cl	0.396896	0.630961	0.118044
Cl137	Cl	1.024254	0.758802	-0.495709
Cl138	Cl	0.529482	1.012988	-0.465345
H139	H	0.699227	0.890107	-0.326126
H140	H	1.699460	0.262419	0.301560
Cl141	Cl	1.138165	1.012906	-0.298436
H142	H	0.311186	0.999578	-0.301464
Cl143	Cl	1.480822	0.249066	-0.083407
H144	H	1.112257	0.371896	0.326193
H145	H	0.699414	0.890074	0.067109
Cl146	Cl	0.529822	1.012925	0.083484
H147	H	0.990033	0.528254	-0.393869
H148	H	0.826372	0.137200	-0.009543
Cl149	Cl	1.746772	0.249009	0.083445
H150	H	0.624618	0.574254	-0.107380
Cl151	Cl	0.263872	1.012981	-0.083368
H152	H	1.524978	0.371868	0.067103
Cl153	Cl	0.347061	0.718597	-0.192149
H154	H	1.524984	0.371891	0.192090
H155	H	0.898524	0.262390	0.067096
H156	H	0.330926	1.054344	0.000057
H157	H	0.898511	0.765091	-0.698408
H158	H	1.112096	0.371896	-0.067022
H159	H	1.020582	0.733721	-0.606038
H160	H	0.485666	0.890106	-0.067010
H161	H	0.990077	0.528253	-0.503357
Cl162	Cl	1.138182	0.876706	-0.162247
Cl163	Cl	0.872290	1.012966	-0.465338
Cl164	Cl	1.005233	1.081043	-0.449991
H165	H	1.485926	0.262380	0.435704
Cl166	Cl	1.264055	0.385223	0.329234
Cl167	Cl	0.872290	0.876750	-0.329135
Cl168	Cl	0.872495	0.797823	-0.837631
H169	H	1.184259	0.015287	0.009638
Cl170	Cl	1.722547	0.180923	0.450102
H171	H	1.112107	0.262397	-0.067014
Cl172	Cl	1.138362	0.464138	-0.670788
H173	H	0.898533	-0.109917	0.067110
H174	H	1.679719	0.207659	0.000007
H175	H	0.898528	-0.000421	0.067107
H176	H	1.184252	0.124792	0.009622
H177	H	0.826361	0.246699	-0.009558
H178	H	1.112301	0.262424	0.435683
H179	H	0.592609	0.630966	0.094881
Cl180	Cl	0.527337	0.721395	-0.186689
H181	H	0.898373	0.765094	-0.326113
H182	H	0.898419	0.765091	-0.435602
H183	H	1.112220	0.496877	-0.564302
H184	H	0.898553	0.371873	0.192101
Cl185	Cl	0.480886	0.876718	-0.162260
H186	H	1.112119	0.496885	-0.301502
H187	H	1.112093	0.496879	-0.192002
H188	H	1.311231	0.371906	-0.067022
H189	H	1.005473	0.207661	0.423403
Cl190	Cl	0.872524	0.249018	0.298613
