data_functionalizedCrystal
_audit_creation_method	'MofGen! by Chris Wilmer'
_symmetry_space_group_name_H-M	'P1'
_symmetry_Int_Tables_number	1
_symmetry_cell_setting	triclinic
loop_
_symmetry_equiv_pos_as_xyz
  x,y,z
_cell_length_a	12.759400
_cell_length_b	12.759401
_cell_length_c	12.759393
_cell_angle_alpha	90.018567
_cell_angle_beta	90.031564
_cell_angle_gamma	90.013728
loop_
_atom_site_label
_atom_site_type_symbol
_atom_site_fract_x
_atom_site_fract_y
_atom_site_fract_z
Zn1	Zn	-0.418231	1.606255	0.593983
Zn2	Zn	0.081769	2.106255	1.093983
Zn3	Zn	-0.593950	1.606150	0.418303
Zn4	Zn	-0.093950	2.106150	0.918303
Zn5	Zn	-0.418283	1.430557	0.418323
Zn6	Zn	0.081717	1.930557	0.918323
Zn7	Zn	-0.593866	1.430546	0.593945
Zn8	Zn	-0.093866	1.930546	1.093945
O9	O	-0.506082	1.518377	0.506138
O10	O	-0.006082	2.018377	1.006138
O11	O	-0.441554	1.753262	0.570687
O12	O	0.058446	2.253262	1.070687
O13	O	-0.570704	1.582818	0.271285
O14	O	-0.070704	2.082818	0.771285
O15	O	-0.271255	1.453913	0.441648
O16	O	0.228745	1.953913	0.941648
O17	O	-0.570654	1.753185	0.441616
O18	O	-0.070654	2.253185	0.941616
O19	O	-0.271217	1.582998	0.570706
O20	O	0.228783	2.082998	1.070706
O21	O	-0.441642	1.453811	0.271299
O22	O	0.058358	1.953811	0.771299
O23	O	-0.441560	1.283535	0.441611
O24	O	0.058440	1.783535	0.941611
O25	O	-0.570511	1.453894	0.740971
O26	O	-0.070511	1.953894	1.240971
O27	O	-0.570561	1.283527	0.570640
O28	O	-0.070561	1.783527	1.070640
O29	O	-0.441473	1.582987	0.740999
O30	O	0.058527	2.082987	1.240999
O31	O	-0.740960	1.582807	0.441579
O32	O	-0.240960	2.082807	0.941579
O33	O	-0.740898	1.453791	0.570621
O34	O	-0.240898	1.953791	1.070621
C35	C	-0.506058	1.245410	0.506124
C36	C	-0.006058	1.745410	1.006124
C37	C	-0.506072	1.128633	0.506143
C38	C	-0.006072	1.628633	1.006143
C39	C	-0.438977	1.073805	0.573454
C40	C	0.061023	1.573805	1.073454
C41	C	-0.438997	0.964081	0.573461
C42	C	0.061003	1.464081	1.073461
C43	C	-0.573217	0.964023	0.438841
C44	C	-0.073217	1.464023	0.938841
C45	C	-0.573191	1.073745	0.438830
C46	C	-0.073191	1.573745	0.938830
C47	C	-0.371858	1.128692	0.640766
C48	C	0.128142	1.628692	1.140766
C49	C	-0.304758	1.073864	0.708084
C50	C	0.195242	1.573864	1.208084
C51	C	-0.304778	0.964140	0.708091
C52	C	0.195222	1.464140	1.208091
C53	C	-0.371899	0.909244	0.640780
C54	C	0.128101	1.409244	1.140780
C55	C	-0.779050	1.518315	0.506117
C56	C	-0.279050	2.018315	1.006117
C57	C	-0.895826	1.518384	0.506142
C58	C	-0.395826	2.018384	1.006142
C59	C	-0.950686	1.585637	0.439024
C60	C	-0.450686	2.085637	0.939024
C61	C	-1.060410	1.585702	0.439056
C62	C	-0.560410	2.085702	0.939056
C63	C	-1.060405	1.451252	0.573328
C64	C	-0.560405	1.951252	1.073328
C65	C	-0.950683	1.451193	0.573301
C66	C	-0.450683	1.951193	1.073301
C67	C	-0.895829	1.652828	0.371866
C68	C	-0.395829	2.152828	0.871866
C69	C	-0.950688	1.720086	0.304741
C70	C	-0.450688	2.220086	0.804741
C71	C	-1.060412	1.720150	0.304774
C72	C	-0.560412	2.220150	0.804774
C73	C	-1.115277	1.652957	0.371931
C74	C	-0.615277	2.152957	0.871931
C75	C	-0.232049	1.518468	0.506183
C76	C	0.267951	2.018468	1.006183
C77	C	-0.115272	1.518507	0.506203
C78	C	0.384728	2.018507	1.006203
C79	C	-0.505976	1.518451	0.780172
C80	C	-0.005976	2.018451	1.280172
C81	C	-0.505931	1.518482	0.896949
C82	C	-0.005931	2.018482	1.396949
C83	C	-0.506108	1.792410	0.506154
C84	C	-0.006108	2.292410	1.006154
C85	C	-0.506119	1.909187	0.506160
C86	C	-0.006119	2.409187	1.006160
C87	C	-0.506112	1.518364	0.233171
C88	C	-0.006112	2.018364	0.733171
C89	C	-0.505861	1.518537	0.116395
C90	C	-0.005861	2.018537	0.616395
C91	C	-0.438735	1.585710	0.951827
C92	C	0.061265	2.085710	1.451827
C93	C	-0.438697	1.585735	1.061551
C94	C	0.061303	2.085735	1.561551
C95	C	-0.573061	1.451301	1.061509
C96	C	-0.073061	1.951301	1.561509
C97	C	-0.573093	1.451272	0.951787
C98	C	-0.073093	1.951272	1.451787
C99	C	-0.361164	1.663328	0.951853
C100	C	0.138836	2.163328	1.451853
C101	C	-0.361126	1.663353	1.061577
C102	C	0.138874	2.163353	1.561577
H103	H	-0.250105	1.118567	0.762880
H104	H	0.249895	1.618567	1.262880
F105	F	-0.233359	0.905790	0.779727
F106	F	0.266641	1.405790	1.279727
H107	H	-1.204622	1.653024	0.371960
H108	H	-0.704622	2.153024	0.871960
F109	F	-0.644648	0.905596	0.367211
F110	F	-0.144648	1.405596	0.867211
H111	H	-0.906016	1.396431	0.627955
H112	H	-0.406016	1.896431	1.127955
H113	H	-0.627807	1.396525	0.907109
H114	H	-0.127807	1.896525	1.407109
H115	H	-1.105085	1.396545	0.628004
H116	H	-0.605085	1.896545	1.128004
H117	H	-0.627739	1.396579	1.106171
H118	H	-0.127739	1.896579	1.606171
F119	F	-0.254817	1.634874	0.912954
F120	F	0.245183	2.134874	1.412954
F121	F	-0.644609	1.132101	0.367197
F122	F	-0.144609	1.632101	0.867197
H123	H	-1.105076	1.774922	0.250125
H124	H	-0.605076	2.274922	0.750125
H125	H	-0.371887	0.819900	0.640768
H126	H	0.128113	1.319900	1.140768
F127	F	-0.892296	1.791602	0.233281
F128	F	-0.392296	2.291602	0.733281
F129	F	-0.779052	1.652996	0.372056
F130	F	-0.279052	2.152996	0.872056
H131	H	-0.371834	1.218035	0.640768
H132	H	0.128166	1.718035	1.140768
H133	H	-0.382920	1.744723	1.091355
H134	H	0.117080	2.244723	1.591355
H135	H	-0.390334	1.740599	0.917817
H136	H	0.109666	2.240599	1.417817
H137	H	-0.283816	1.634239	1.095625
H138	H	0.216184	2.134239	1.595625
