data_functionalizedCrystal
_audit_creation_method	'MofGen! by Chris Wilmer'
_symmetry_space_group_name_H-M	'P1'
_symmetry_Int_Tables_number	1
_symmetry_cell_setting	triclinic
loop_
_symmetry_equiv_pos_as_xyz
  x,y,z
_cell_length_a	17.038272
_cell_length_b	14.971482
_cell_length_c	14.048226
_cell_angle_alpha	89.994098
_cell_angle_beta	89.993466
_cell_angle_gamma	87.362082
loop_
_atom_site_label
_atom_site_type_symbol
_atom_site_fract_x
_atom_site_fract_y
_atom_site_fract_z
O1	O	0.101883	1.194577	-0.079149
O2	O	0.114089	0.935090	-0.079154
O3	O	-0.005831	1.063292	-0.079144
O4	O	0.221803	1.066376	-0.079159
O5	O	-0.005838	1.063275	0.079177
O6	O	0.114082	0.935073	0.079167
O7	O	0.101876	1.194560	0.079172
Zn8	Zn	0.107978	1.064814	0.104307
Zn9	Zn	0.107987	1.064837	-0.104289
O10	O	0.221796	1.066359	0.079162
C11	C	0.113540	0.901716	0.000006
C12	C	0.111906	0.802297	0.000004
C13	C	0.111132	0.755585	0.086307
C14	C	0.109584	0.662171	0.086308
C15	C	0.108816	0.615469	0.000006
C16	C	0.109587	0.662188	-0.086303
C17	C	0.111129	0.755601	-0.086303
C18	C	0.106374	0.467485	-0.086297
C19	C	0.104833	0.374065	-0.086297
C20	C	0.104829	0.374055	0.086314
C21	C	0.106371	0.467468	0.086314
C22	C	0.107144	0.514180	0.000005
C23	C	-0.034966	1.060478	0.000016
C24	C	-0.121769	1.052108	0.000016
C25	C	-0.171794	1.128952	0.000018
C26	C	-0.253354	1.121082	0.000009
C27	C	-0.284886	1.036368	0.000004
C28	C	-0.234854	0.959518	-0.000001
C29	C	-0.153296	0.967389	0.000002
C30	C	-0.530676	1.008563	-0.000009
C31	C	-0.612241	1.000699	-0.000009
C32	C	-0.630735	1.162263	-0.000000
C33	C	-0.549174	1.170126	0.000008
C34	C	-0.499149	1.093277	-0.000003
C35	C	-0.368253	1.028322	-0.000002
C36	C	-0.415784	1.101324	-0.000003
C37	C	0.250931	1.069173	-0.000000
C38	C	0.337734	1.077543	-0.000006
C39	C	0.102425	1.227934	0.000010
C40	C	0.104059	1.327354	0.000005
N41	N	0.107971	1.064805	0.246667
N42	N	0.107988	1.064852	-0.246649
C43	C	0.054893	1.121593	0.296490
C44	C	0.054892	1.121599	0.396147
C45	C	0.107975	1.064821	0.445981
C46	C	0.161056	1.008027	0.396151
C47	C	0.161052	1.008017	0.296496
C48	C	0.161061	1.008053	0.603866
C49	C	0.161067	1.008064	0.703528
C50	C	0.054902	1.121636	0.703517
C51	C	0.054898	1.121626	0.603862
C52	C	0.107980	1.064832	0.554039
H53	H	0.107003	0.505515	-0.156579
H54	H	0.204273	0.961773	0.255931
H55	H	-0.294082	1.183657	0.000013
C56	C	-0.514494	1.263312	0.000000
H57	H	-0.555970	1.307952	-0.000009
H58	H	-0.483066	1.269738	0.055209
H59	H	-0.483060	1.269740	-0.055218
C60	C	0.111964	0.806950	0.181240
H61	H	0.111270	0.765748	0.232638
H62	H	0.158122	0.840039	0.184839
H63	H	0.066993	0.846741	0.184819
H64	H	0.108941	0.624143	0.156583
C65	C	-0.003494	1.184100	0.758318
H66	H	0.004102	1.175967	0.824806
H67	H	0.005083	1.244444	0.741974
H68	H	-0.055695	1.170410	0.741993
H69	H	0.107002	0.505490	0.156589
H70	H	0.204291	0.961828	0.744098
C71	C	-0.475659	0.924032	-0.000004
H72	H	-0.506122	0.872455	0.000006
H73	H	-0.443450	0.923741	-0.055211
H74	H	-0.443468	0.923741	0.055216
C75	C	-0.003492	1.184079	0.549046
H76	H	-0.035110	1.217899	0.592990
H77	H	0.024688	1.223447	0.510153
H78	H	-0.036090	1.149413	0.510188
H79	H	-0.146127	1.197935	0.000028
H80	H	0.111760	0.793632	-0.156579
C81	C	0.104326	0.322652	0.181251
H82	H	0.103395	0.260323	0.168894
H83	H	0.150250	0.334739	0.216431
H84	H	0.059117	0.341162	0.216990
H85	H	0.204284	0.961802	0.563303
C86	C	-0.685762	1.246790	-0.000003
H87	H	-0.738852	1.229973	-0.000014
H88	H	-0.676204	1.281269	0.055205
H89	H	-0.676187	1.281271	-0.055222
H90	H	0.204274	0.961792	0.436731
C91	C	0.103980	0.322691	-0.181224
H92	H	0.102960	0.260368	-0.168859
H93	H	0.058670	0.341357	-0.216677
H94	H	0.149799	0.334644	-0.216694
C95	C	-0.269534	0.866333	-0.000013
H96	H	-0.228057	0.821695	-0.000025
H97	H	-0.300972	0.859892	0.055194
H98	H	-0.300957	0.859916	-0.055233
H99	H	-0.637910	0.931711	0.000003
H100	H	0.108955	0.624156	-0.156571
H101	H	-0.112565	0.904814	-0.000001
C102	C	-0.381104	1.194505	0.000004
H103	H	-0.422576	1.239149	0.000002
H104	H	-0.349676	1.200919	0.055214
H105	H	-0.349669	1.200939	-0.055213
C106	C	-0.003492	1.184056	0.241677
H107	H	0.004112	1.175926	0.175189
H108	H	-0.055692	1.170382	0.258019
H109	H	0.005097	1.244403	0.257999
H110	H	-0.393936	0.959347	-0.000004
H111	H	0.011671	1.167840	0.436712
