data_functionalizedCrystal
_audit_creation_method	'MofGen! by Chris Wilmer'
_symmetry_space_group_name_H-M	'P1'
_symmetry_Int_Tables_number	1
_symmetry_cell_setting	triclinic
loop_
_symmetry_equiv_pos_as_xyz
  x,y,z
_cell_length_a	12.645331
_cell_length_b	16.959454
_cell_length_c	16.959447
_cell_angle_alpha	89.973264
_cell_angle_beta	89.984361
_cell_angle_gamma	90.019054
loop_
_atom_site_label
_atom_site_type_symbol
_atom_site_fract_x
_atom_site_fract_y
_atom_site_fract_z
Zn1	Zn	1.620640	-0.314687	-0.446956
Zn2	Zn	2.120640	0.185313	0.053044
Zn3	Zn	1.620536	-0.446880	-0.314786
Zn4	Zn	2.120536	0.053120	0.185214
Zn5	Zn	1.443376	-0.314717	-0.314791
Zn6	Zn	1.943376	0.185283	0.185209
Zn7	Zn	1.443329	-0.446826	-0.446921
Zn8	Zn	1.943329	0.053174	0.053079
O9	O	1.531970	-0.380777	-0.380864
O10	O	2.031970	0.119223	0.119136
O11	O	1.768974	-0.332234	-0.429436
O12	O	2.268974	0.167766	0.070564
O13	O	1.597012	-0.429383	-0.204176
O14	O	2.097012	0.070617	0.295824
O15	O	1.466954	-0.204102	-0.332339
O16	O	1.966954	0.295898	0.167661
O17	O	1.768897	-0.429355	-0.332331
O18	O	2.268897	0.070645	0.167669
O19	O	1.597189	-0.204080	-0.429441
O20	O	2.097189	0.295920	0.070559
O21	O	1.466853	-0.332284	-0.204179
O22	O	1.966853	0.167716	0.295821
O23	O	1.295023	-0.332231	-0.332306
O24	O	1.795023	0.167769	0.167694
O25	O	1.466873	-0.429262	-0.557537
O26	O	1.966873	0.070738	-0.057537
O27	O	1.294988	-0.429291	-0.429381
O28	O	1.794988	0.070709	0.070619
O29	O	1.597143	-0.332181	-0.557562
O30	O	2.097143	0.167819	-0.057562
O31	O	1.596966	-0.557484	-0.332297
O32	O	2.096966	-0.057484	0.167703
O33	O	1.466773	-0.557444	-0.429377
O34	O	1.966773	-0.057444	0.070623
C35	C	1.531882	-0.586144	-0.380850
C36	C	2.031882	-0.086144	0.119150
C37	C	1.531941	-0.674000	-0.380871
C38	C	2.031941	-0.174000	0.119129
C39	C	1.256541	-0.380759	-0.380841
C40	C	1.756541	0.119241	0.119159
C41	C	1.138711	-0.380770	-0.380850
C42	C	1.638711	0.119230	0.119150
C43	C	1.464277	-1.045485	-0.431407
C44	C	1.964277	-0.545485	0.068593
C45	C	1.599959	-1.045467	-0.330400
C46	C	2.099959	-0.545467	0.169600
C47	C	1.599922	-0.962921	-0.330393
C48	C	2.099922	-0.462921	0.169607
C49	C	1.532060	-0.921653	-0.380893
C50	C	2.032060	-0.421653	0.119107
C51	C	1.464236	-0.962931	-0.431400
C52	C	1.964236	-0.462931	0.068600
C53	C	1.667738	-0.921636	-0.279881
C54	C	2.167738	-0.421636	0.220119
C55	C	1.667703	-0.839085	-0.279871
C56	C	2.167703	-0.339085	0.220129
C57	C	1.599845	-0.797816	-0.330376
C58	C	2.099845	-0.297816	0.169624
C59	C	1.532019	-0.839100	-0.380885
C60	C	2.032019	-0.339100	0.119115
C61	C	1.464157	-0.797832	-0.431385
C62	C	1.964157	-0.297832	0.068615
C63	C	1.396335	-0.839114	-0.481900
C64	C	1.896335	-0.339114	0.018100
C65	C	1.396379	-0.921662	-0.481904
C66	C	1.896379	-0.421662	0.018096
C67	C	1.599802	-0.715268	-0.330371
C68	C	2.099802	-0.215268	0.169629
C69	C	1.464116	-0.715279	-0.431378
C70	C	1.964116	-0.215279	0.068622
C71	C	0.971133	-0.319429	-0.320116
C72	C	1.471133	0.180571	0.179884
C73	C	1.093693	-0.319587	-0.319848
C74	C	1.593693	0.180413	0.180152
C75	C	1.094189	-0.464037	-0.358096
C76	C	1.594189	0.035963	0.141904
C77	C	0.971591	-0.463702	-0.357682
C78	C	1.471591	0.036298	0.142318
C79	C	0.971549	-0.359636	-0.464571
C80	C	1.471549	0.140364	0.035429
C81	C	1.094155	-0.357776	-0.464106
C82	C	1.594155	0.142224	0.035894
C83	C	1.808476	-0.380797	-0.380887
C84	C	2.308476	0.119203	0.119113
C85	C	1.926306	-0.380805	-0.380897
C86	C	2.426306	0.119195	0.119103
C87	C	1.532015	-0.380712	-0.587032
C88	C	2.032015	0.119288	-0.087032
C89	C	1.532033	-0.380684	-0.674888
C90	C	2.032033	0.119316	-0.174888
C91	C	1.532088	-0.174609	-0.380894
C92	C	2.032088	0.325391	0.119106
C93	C	1.532139	-0.086753	-0.380907
C94	C	2.032139	0.413247	0.119093
C95	C	1.464335	-0.431146	-1.046353
C96	C	1.964335	0.068854	-0.546353
C97	C	1.599986	-0.330055	-1.046375
C98	C	2.099986	0.169945	-0.546375
C99	C	1.599957	-0.330072	-0.963829
C100	C	2.099957	0.169928	-0.463829
C101	C	1.532118	-0.380627	-0.922542
C102	C	2.032118	0.119373	-0.422542
C103	C	1.464306	-0.431166	-0.963800
C104	C	1.964306	0.068834	-0.463800
C105	C	1.667775	-0.279539	-0.922565
C106	C	2.167775	0.220461	-0.422565
C107	C	1.667750	-0.279555	-0.840014
C108	C	2.167750	0.220445	-0.340014
C109	C	1.599905	-0.330107	-0.798725
C110	C	2.099905	0.169893	-0.298725
C111	C	1.532090	-0.380647	-0.839988
C112	C	2.032090	0.119353	-0.339988
C113	C	1.464250	-0.431203	-0.798700
C114	C	1.964250	0.068797	-0.298700
C115	C	1.396429	-0.481740	-0.839962
C116	C	1.896429	0.018260	-0.339962
C117	C	1.396461	-0.481719	-0.922511
C118	C	1.896461	0.018281	-0.422511
C119	C	1.599873	-0.330128	-0.716176
C120	C	2.099873	0.169872	-0.216176
C121	C	1.464222	-0.431223	-0.716147
C122	C	1.964222	0.068777	-0.216147
C123	C	1.531987	-0.380786	-0.175497
C124	C	2.031987	0.119214	0.324503
C125	C	1.532174	-0.380591	-0.087641
C126	C	2.032174	0.119409	0.412359
H127	H	1.408859	-0.681683	-0.472504
H128	H	1.908859	-0.181683	0.027496
H129	H	1.655223	-0.288899	-1.079996
H130	H	2.155223	0.211101	-0.579996
Cl131	Cl	1.311123	-0.973564	-0.545400
Cl132	Cl	1.811123	-0.473564	-0.045400
H133	H	1.408969	-0.472385	-0.682536
H134	H	1.908969	0.027615	-0.182536
H135	H	1.655017	-0.681660	-0.289239
H136	H	2.155017	-0.181660	0.210761
Cl137	Cl	1.140173	-0.224256	-0.341865
Cl138	Cl	1.640173	0.275744	0.158135
Cl139	Cl	1.139194	-0.536530	-0.424304
Cl140	Cl	1.639194	-0.036530	0.075696
Cl141	Cl	1.141525	-0.492231	-0.264666
Cl142	Cl	1.641525	0.007769	0.235334
Cl143	Cl	1.685266	-1.097347	-0.266919
Cl144	Cl	2.185266	-0.597347	0.233081
H145	H	1.123259	-0.296501	-0.481264
H146	H	1.623259	0.203499	0.018736
Cl147	Cl	0.925645	-0.223807	-0.341895
Cl148	Cl	1.425645	0.276193	0.158105
Cl149	Cl	1.752972	-0.787196	-0.216376
Cl150	Cl	2.252972	-0.287196	0.283624
Cl151	Cl	1.753050	-0.973519	-0.216405
Cl152	Cl	2.253050	-0.473519	0.283595
H153	H	1.409061	-1.079100	-0.472537
H154	H	1.909061	-0.579100	0.027463
Cl155	Cl	0.923501	-0.340775	-0.224948
Cl156	Cl	1.423501	0.159225	0.275052
H157	H	1.122980	-0.333579	-0.257842
H158	H	1.622980	0.166421	0.242158
Cl159	Cl	0.923853	-0.267526	-0.496518
Cl160	Cl	1.423853	0.232474	0.003482
H161	H	0.942954	-0.481653	-0.296512
H162	H	1.442954	0.018347	0.203488
H163	H	1.341077	-0.805504	-0.523014
H164	H	1.841077	-0.305504	-0.023014
Cl165	Cl	0.925802	-0.536699	-0.423043
Cl166	Cl	1.425802	-0.036699	0.076957
Cl167	Cl	1.141462	-0.421764	-0.537767
Cl168	Cl	1.641462	0.078236	-0.037767
H169	H	0.942560	-0.404340	-0.509858
H170	H	1.442560	0.095660	-0.009858
H171	H	1.341199	-0.522906	-0.806335
H172	H	1.841199	-0.022906	-0.306335
H173	H	1.341248	-0.522866	-0.956114
H174	H	1.841248	-0.022866	-0.456114
H175	H	1.409113	-0.472290	-1.079953
H176	H	1.909113	0.027710	-0.579953
Cl177	Cl	1.753061	-0.215994	-0.974472
Cl178	Cl	2.253061	0.284006	-0.474472
H179	H	1.722974	-0.238404	-0.806425
H180	H	2.222974	0.261596	-0.306425
Cl181	Cl	1.685133	-0.266607	-0.664308
Cl182	Cl	2.185133	0.233393	-0.164308
