data_functionalizedCrystal
_audit_creation_method	'MofGen! by Chris Wilmer'
_symmetry_space_group_name_H-M	'P1'
_symmetry_Int_Tables_number	1
_symmetry_cell_setting	triclinic
loop_
_symmetry_equiv_pos_as_xyz
  x,y,z
_cell_length_a	15.944551
_cell_length_b	14.971486
_cell_length_c	14.048226
_cell_angle_alpha	90.001501
_cell_angle_beta	89.992615
_cell_angle_gamma	96.443566
loop_
_atom_site_label
_atom_site_type_symbol
_atom_site_fract_x
_atom_site_fract_y
_atom_site_fract_z
O1	O	0.109463	-1.186829	-0.079053
O2	O	0.122572	-0.926415	-0.079079
O3	O	-0.006251	-1.063733	-0.079057
O4	O	0.238286	-1.049510	-0.079076
O5	O	-0.006258	-1.063717	0.079264
O6	O	0.122564	-0.926398	0.079242
O7	O	0.109456	-1.186812	0.079268
Zn8	Zn	0.116009	-1.056603	0.104392
Zn9	Zn	0.116019	-1.056624	-0.104203
O10	O	0.238278	-1.049494	0.079246
C11	C	0.121982	-0.893082	0.000078
C12	C	0.120225	-0.793787	0.000068
C13	C	-0.037549	-1.063134	0.000104
C14	C	-0.130797	-1.061364	0.000104
N15	N	0.116001	-1.056594	0.246753
C16	C	-0.345738	-0.972017	0.000082
C17	C	-0.406720	-1.013499	0.078148
C18	C	-0.301526	-1.058162	0.000096
C19	C	-0.406696	-1.013535	-0.077944
C20	C	-0.466441	-1.055062	0.000085
C21	C	-0.361279	-1.099667	0.078227
C22	C	-0.361248	-1.099692	-0.077935
C23	C	-0.422212	-1.141236	0.000150
C24	C	-0.206522	-1.059945	0.000104
C25	C	-0.561444	-1.053286	0.000084
C26	C	0.269576	-1.050093	0.000083
C27	C	0.362824	-1.051863	0.000076
C28	C	0.110046	-1.220145	0.000109
C29	C	0.111802	-1.319440	0.000112
C30	C	0.195904	-0.736480	0.000064
C31	C	0.194249	-0.643182	0.000078
C32	C	0.116913	-0.607194	0.000090
C33	C	0.041227	-0.664508	0.000097
C34	C	0.042884	-0.757804	0.000090
C35	C	0.037780	-0.470049	0.000111
C36	C	0.036123	-0.376747	0.000116
C37	C	0.189145	-0.355428	0.000099
C38	C	0.190801	-0.448724	0.000092
C39	C	0.115116	-0.506032	0.000097
N40	N	0.116019	-1.056640	-0.246564
C41	C	0.058982	-1.117418	0.296581
C42	C	0.058982	-1.117424	0.396238
C43	C	0.116005	-1.056610	0.446066
C44	C	0.173027	-0.995780	0.396231
C45	C	0.173022	-0.995770	0.296575
C46	C	0.173033	-0.995806	0.603945
C47	C	0.173038	-0.995816	0.703608
C48	C	0.058992	-1.117459	0.703608
C49	C	0.058988	-1.117450	0.603952
C50	C	0.116011	-1.056621	0.554124
H51	H	-0.312499	-0.900512	0.000153
F52	F	0.269696	-0.294436	0.000095
H53	H	-0.341257	-1.136066	0.144298
H54	H	-0.026851	-0.347448	0.000127
F55	F	0.233729	-0.931088	0.756632
F56	F	0.233722	-0.931060	0.550919
H57	H	-0.023852	-0.516708	0.000117
F58	F	0.278218	-0.774773	0.000045
F59	F	-0.432997	-0.965900	-0.164203
H60	H	-0.426866	-0.977056	0.144140
H61	H	0.255875	-0.596526	0.000074
F62	F	-0.041080	-0.626203	0.000116
F63	F	-0.001694	-1.182199	0.756643
H64	H	-0.341080	-1.136103	-0.143930
F65	F	-0.465466	-1.234779	0.000214
F66	F	-0.037665	-0.818794	0.000098
H67	H	0.012560	-1.166973	0.563383
H68	H	0.219453	-0.946259	0.436807
H69	H	0.253775	-0.478022	0.000073
F70	F	-0.001707	-1.182150	0.243559
F71	F	-0.001705	-1.182158	0.449269
H72	H	0.219452	-0.946240	0.256006
