data_functionalizedCrystal
_audit_creation_method	'MofGen! by Chris Wilmer'
_symmetry_space_group_name_H-M	'P1'
_symmetry_Int_Tables_number	1
_symmetry_cell_setting	triclinic
loop_
_symmetry_equiv_pos_as_xyz
  x,y,z
_cell_length_a	15.995280
_cell_length_b	14.472311
_cell_length_c	9.065215
_cell_angle_alpha	90.008703
_cell_angle_beta	95.760853
_cell_angle_gamma	89.995148
loop_
_atom_site_label
_atom_site_type_symbol
_atom_site_fract_x
_atom_site_fract_y
_atom_site_fract_z
O1	O	-1.112459	0.076854	0.189678
O2	O	-0.868854	0.076853	0.213269
O3	O	-0.995693	0.076850	-0.013290
O4	O	-0.985620	0.076857	0.416237
O5	O	-0.995684	-0.076832	-0.013319
O6	O	-0.868845	-0.076829	0.213240
O7	O	-1.112449	-0.076828	0.189649
Cu8	Cu	-0.990646	-0.090861	0.201442
Cu9	Cu	-0.990657	0.090886	0.201476
O10	O	-0.985611	-0.076825	0.416208
C11	C	-0.837646	0.000011	0.212298
C12	C	-0.744671	0.000011	0.209429
C13	C	-0.406851	0.000024	0.198881
C14	C	-0.431402	0.000370	0.362396
C15	C	-0.528102	0.000019	0.365497
C16	C	-0.574447	0.000018	0.204115
C17	C	-0.544721	-0.087740	0.122350
C18	C	-0.447915	-0.087809	0.120389
C19	C	-0.448044	0.086956	0.117082
C20	C	-0.544583	0.088111	0.123135
C21	C	-0.669166	0.000011	0.207064
C22	C	-0.312132	0.000024	0.195927
N23	N	-0.990645	-0.218692	0.201418
C24	C	-0.990658	-0.592783	0.201465
C25	C	-1.058753	-0.553590	0.080643
C26	C	-1.058570	-0.446502	0.080197
C27	C	-0.990652	-0.407192	0.201441
C28	C	-0.903038	-0.446084	0.167861
C29	C	-0.903440	-0.553206	0.167006
C30	C	-1.009393	-0.553285	0.356225
C31	C	-1.011368	-0.446156	0.355188
C32	C	-0.990643	-0.302304	0.201431
C33	C	-0.990661	-0.697671	0.201472
C34	C	-0.143656	0.000018	0.190640
C35	C	-0.236627	0.000031	0.193567
C36	C	-0.994721	0.000010	-0.068268
C37	C	-0.991828	0.000012	-0.232042
N38	N	-0.990665	0.218717	0.201489
C39	C	-0.986583	0.000018	0.471186
C40	C	-0.989476	0.000021	0.634960
H41	H	-0.432456	-0.091796	0.000498
F42	F	-0.944506	-0.586418	0.473748
H43	H	-0.851096	-0.420623	0.253521
H44	H	-0.575689	-0.091004	0.003594
F45	F	-0.881202	-0.411036	0.022019
F46	F	-0.552794	-0.082349	0.449659
F47	F	-0.413416	-0.173551	0.194383
F48	F	-1.091201	-0.588577	0.398417
H49	H	-0.565206	-0.153050	0.179107
F50	F	-0.586506	0.095038	-0.030833
F51	F	-1.143644	-0.412128	0.106345
H52	H	-0.433139	0.087549	-0.003276
H53	H	-0.420108	0.153472	0.168207
F54	F	-1.043169	-0.588786	-0.068627
H55	H	-0.887106	-0.578203	0.054143
F56	F	-1.144115	-0.587244	0.106351
H57	H	-0.563608	0.153034	0.182668
F58	F	-1.042756	-0.413017	-0.069915
F59	F	-0.950859	-0.411180	0.478212
F60	F	-0.553612	0.082245	0.449190
F61	F	-0.395439	0.082632	0.444801
F62	F	-0.394088	-0.081424	0.444314
F63	F	-0.835140	-0.587098	0.277654
H64	H	-1.075826	-0.420737	0.380670
