data_functionalizedCrystal
_audit_creation_method	'MofGen! by Chris Wilmer'
_symmetry_space_group_name_H-M	'P1'
_symmetry_Int_Tables_number	1
_symmetry_cell_setting	triclinic
loop_
_symmetry_equiv_pos_as_xyz
  x,y,z
_cell_length_a	18.215407
_cell_length_b	18.050583
_cell_length_c	18.215405
_cell_angle_alpha	90.038858
_cell_angle_beta	89.977656
_cell_angle_gamma	89.986780
loop_
_atom_site_label
_atom_site_type_symbol
_atom_site_fract_x
_atom_site_fract_y
_atom_site_fract_z
Zn1	Zn	1.125045	-0.419844	0.292981
Zn2	Zn	1.375045	-0.169844	0.542981
Zn3	Zn	1.625045	0.080156	0.792981
Zn4	Zn	1.875045	0.330156	1.042981
Zn5	Zn	1.124962	-0.295648	0.416071
Zn6	Zn	1.374962	-0.045648	0.666071
Zn7	Zn	1.624962	0.204352	0.916071
Zn8	Zn	1.874962	0.454352	1.166071
Zn9	Zn	1.001986	-0.295674	0.293017
Zn10	Zn	1.251986	-0.045674	0.543017
Zn11	Zn	1.501986	0.204326	0.793017
Zn12	Zn	1.751986	0.454326	1.043017
Zn13	Zn	1.001944	-0.419803	0.416005
Zn14	Zn	1.251944	-0.169803	0.666005
Zn15	Zn	1.501944	0.080197	0.916005
Zn16	Zn	1.751944	0.330197	1.166005
O17	O	1.063484	-0.357742	0.354519
O18	O	1.313484	-0.107742	0.604519
O19	O	1.563484	0.142258	0.854519
O20	O	1.813484	0.392258	1.104519
O21	O	1.228018	-0.403375	0.309322
O22	O	1.478018	-0.153375	0.559322
O23	O	1.728018	0.096625	0.809322
O24	O	1.978018	0.346625	1.059322
O25	O	1.108631	-0.191727	0.399789
O26	O	1.358631	0.058273	0.649789
O27	O	1.608631	0.308273	0.899789
O28	O	1.858631	0.558273	1.149789
O29	O	1.018362	-0.312173	0.190028
O30	O	1.268362	-0.062173	0.440028
O31	O	1.518362	0.187827	0.690028
O32	O	1.768362	0.437827	0.940028
O33	O	1.227957	-0.312129	0.399755
O34	O	1.477957	-0.062129	0.649755
O35	O	1.727957	0.187871	0.899755
O36	O	1.977957	0.437871	1.149755
O37	O	1.108774	-0.403400	0.190002
O38	O	1.358774	-0.153400	0.440002
O39	O	1.608774	0.096600	0.690002
O40	O	1.858774	0.346600	0.940002
O41	O	1.018281	-0.191746	0.309382
O42	O	1.268281	0.058254	0.559382
O43	O	1.518281	0.308254	0.809382
O44	O	1.768281	0.558254	1.059382
O45	O	0.898996	-0.312133	0.309319
O46	O	1.148996	-0.062133	0.559319
O47	O	1.398996	0.187867	0.809319
O48	O	1.648996	0.437867	1.059319
O49	O	1.018291	-0.523733	0.399644
O50	O	1.268291	-0.273733	0.649644
O51	O	1.518291	-0.023733	0.899644
O52	O	1.768291	0.226267	1.149644
O53	O	0.898965	-0.403330	0.399678
O54	O	1.148965	-0.153330	0.649678
O55	O	1.398965	0.096670	0.899678
O56	O	1.648965	0.346670	1.149678
O57	O	1.108733	-0.523763	0.309259
O58	O	1.358733	-0.273763	0.559259
O59	O	1.608733	-0.023763	0.809259
O60	O	1.858733	0.226237	1.059259
O61	O	1.108590	-0.312090	0.519046
O62	O	1.358590	-0.062090	0.769046
O63	O	1.608590	0.187910	1.019046
O64	O	1.858590	0.437910	1.269046
O65	O	1.018210	-0.403305	0.518998
O66	O	1.268210	-0.153305	0.768998
O67	O	1.518210	0.096695	1.018998
O68	O	1.768210	0.346695	1.268998
C69	C	0.872278	-0.357731	0.354496
C70	C	1.122278	-0.107731	0.604496
C71	C	1.372278	0.142269	0.854496
C72	C	1.622278	0.392269	1.104496
C73	C	0.790479	-0.357743	0.354504
C74	C	1.040479	-0.107743	0.604504
C75	C	1.290479	0.142257	0.854504
C76	C	1.540479	0.392257	1.104504
C77	C	0.525424	-0.405163	0.401646
C78	C	0.775424	-0.155163	0.651646
C79	C	1.025424	0.094837	0.901646
C80	C	1.275424	0.344837	1.151646
C81	C	0.602283	-0.405160	0.401640
C82	C	0.852283	-0.155160	0.651640
C83	C	1.102283	0.094840	0.901640
C84	C	1.352283	0.344840	1.151640
C85	C	0.602285	-0.310334	0.307408
C86	C	0.852285	-0.060334	0.557408
C87	C	1.102285	0.189666	0.807408
C88	C	1.352285	0.439666	1.057408
C89	C	0.525427	-0.310335	0.307418
C90	C	0.775427	-0.060335	0.557418
C91	C	1.025427	0.189665	0.807418
C92	C	1.275427	0.439665	1.057418
C93	C	0.486999	-0.357753	0.354536
C94	C	0.736999	-0.107753	0.604536
C95	C	0.986999	0.142247	0.854536
C96	C	1.236999	0.392247	1.104536
C97	C	0.640715	-0.357749	0.354519
C98	C	0.890715	-0.107749	0.604519
C99	C	1.140715	0.142251	0.854519
C100	C	1.390715	0.392251	1.104519
C101	C	0.724049	-0.357745	0.354512
C102	C	0.974049	-0.107745	0.604512
C103	C	1.224049	0.142255	0.854512
C104	C	1.474049	0.392255	1.104512
C105	C	0.403660	-0.357757	0.354545
C106	C	0.653660	-0.107757	0.604545
C107	C	0.903660	0.142243	0.854545
C108	C	1.153660	0.392243	1.104545
C109	C	1.063517	-0.551448	0.354440
C110	C	1.313517	-0.301448	0.604440
C111	C	1.563517	-0.051448	0.854440
C112	C	1.813517	0.198552	1.104440
C113	C	1.063530	-0.633994	0.354407
C114	C	1.313530	-0.383994	0.604407
C115	C	1.563530	-0.133994	0.854407
C116	C	1.813530	0.116006	1.104407
C117	C	1.112762	-0.833461	0.305231
C118	C	1.362762	-0.583461	0.555231
C119	C	1.612762	-0.333461	0.805231
C120	C	1.862762	-0.083461	1.055231
C121	C	1.045640	-0.882860	0.287217
C122	C	1.295640	-0.632860	0.537217
C123	C	1.545640	-0.382860	0.787217
C124	C	1.795640	-0.132860	1.037217
C125	C	1.063560	-0.785124	0.354394
C126	C	1.313560	-0.535124	0.604394
C127	C	1.563560	-0.285124	0.854394
C128	C	1.813560	-0.035124	1.104394
C129	C	1.130709	-0.882807	0.372362
C130	C	1.380709	-0.632807	0.622362
C131	C	1.630709	-0.382807	0.872362
C132	C	1.880709	-0.132807	1.122362
C133	C	1.063594	-0.931109	0.354380
C134	C	1.313594	-0.681109	0.604380
C135	C	1.563594	-0.431109	0.854380
C136	C	1.813594	-0.181109	1.104380
C137	C	0.996402	-0.833436	0.336344
C138	C	1.246402	-0.583436	0.586344
C139	C	1.496402	-0.333436	0.836344
C140	C	1.746402	-0.083436	1.086344
C141	C	1.081516	-0.833379	0.421521
C142	C	1.331516	-0.583379	0.671521
C143	C	1.581516	-0.333379	0.921521
C144	C	1.831516	-0.083379	1.171521
C145	C	1.014348	-0.882755	0.403532
C146	C	1.264348	-0.632755	0.653532
C147	C	1.514348	-0.382755	0.903532
C148	C	1.764348	-0.132755	1.153532
C149	C	1.063541	-0.701026	0.354400
C150	C	1.313541	-0.451026	0.604400
C151	C	1.563541	-0.201026	0.854400
C152	C	1.813541	0.048974	1.104400
C153	C	1.063606	-1.015206	0.354374
C154	C	1.313606	-0.765206	0.604374
C155	C	1.563606	-0.515206	0.854374
C156	C	1.813606	-0.265206	1.104374
C157	C	1.255437	-0.357754	0.354542
C158	C	1.505437	-0.107754	0.604542
C159	C	1.755437	0.142246	0.854542
C160	C	2.005437	0.392246	1.104542
C161	C	1.337236	-0.357759	0.354552
C162	C	1.587236	-0.107759	0.604552
C163	C	1.837236	0.142241	0.854552
C164	C	2.087236	0.392241	1.104552
C165	C	1.063406	-0.357706	0.545725
C166	C	1.313406	-0.107706	0.795725
C167	C	1.563406	0.142294	1.045725
C168	C	1.813406	0.392294	1.295725
C169	C	1.063440	-0.357716	0.627524
C170	C	1.313440	-0.107716	0.877524
C171	C	1.563440	0.142284	1.127524
C172	C	1.813440	0.392284	1.377524
C173	C	1.063494	-0.164790	0.354544
C174	C	1.313494	0.085210	0.604544
C175	C	1.563494	0.335210	0.854544
C176	C	1.813494	0.585210	1.104544
C177	C	1.063623	-0.082245	0.354370
C178	C	1.313623	0.167755	0.604370
C179	C	1.563623	0.417755	0.854370
C180	C	1.813623	0.667755	1.104370
C181	C	1.063582	-0.357794	0.162566
C182	C	1.313582	-0.107794	0.412566
C183	C	1.563582	0.142206	0.662566
C184	C	1.813582	0.392206	0.912566
C185	C	1.063624	-0.357816	0.080767
C186	C	1.313624	-0.107816	0.330767
C187	C	1.563624	0.142184	0.580767
C188	C	1.813624	0.392184	0.830767
C189	C	1.110612	-0.310307	0.815718
C190	C	1.360612	-0.060307	1.065718
C191	C	1.610612	0.189693	1.315718
C192	C	1.860612	0.439693	1.565718
C193	C	1.110645	-0.310325	0.892577
C194	C	1.360645	-0.060325	1.142577
C195	C	1.610645	0.189675	1.392577
C196	C	1.860645	0.439675	1.642577
C197	C	1.016450	-0.405230	0.892567
C198	C	1.266450	-0.155230	1.142567
C199	C	1.516450	0.094770	1.392567
C200	C	1.766450	0.344770	1.642567
C201	C	1.016421	-0.405216	0.815710
C202	C	1.266421	-0.155216	1.065710
C203	C	1.516421	0.094784	1.315710
C204	C	1.766421	0.344784	1.565710
C205	C	1.063501	-0.357750	0.777287
C206	C	1.313501	-0.107750	1.027287
C207	C	1.563501	0.142250	1.277287
C208	C	1.813501	0.392250	1.527287
C209	C	1.063563	-0.357783	0.931003
C210	C	1.313563	-0.107783	1.181003
C211	C	1.563563	0.142217	1.431003
C212	C	1.813563	0.392217	1.681003
C213	C	1.063598	-0.357802	1.014337
C214	C	1.313598	-0.107802	1.264337
C215	C	1.563598	0.142198	1.514337
C216	C	1.813598	0.392198	1.764337
C217	C	1.063467	-0.357731	0.693948
C218	C	1.313467	-0.107731	0.943948
C219	C	1.563467	0.142269	1.193948
C220	C	1.813467	0.392269	1.443948
H221	H	0.494141	-0.271724	0.269055
H222	H	0.744141	-0.021724	0.519055
H223	H	0.994141	0.228276	0.769055
H224	H	1.244141	0.478276	1.019055
H225	H	0.494139	-0.443774	0.440012
H226	H	0.744139	-0.193774	0.690012
H227	H	0.994139	0.056226	0.940012
H228	H	1.244139	0.306226	1.190012
H229	H	1.154303	-0.811814	0.263630
H230	H	1.404303	-0.561814	0.513630
H231	H	1.654303	-0.311814	0.763630
H232	H	1.904303	-0.061814	1.013630
H233	H	0.978058	-0.443853	0.784417
H234	H	1.228058	-0.193853	1.034417
H235	H	1.478058	0.056147	1.284417
H236	H	1.728058	0.306147	1.534417
H237	H	0.939614	-0.811840	0.321075
H238	H	1.189614	-0.561840	0.571075
H239	H	1.439614	-0.311840	0.821075
H240	H	1.689614	-0.061840	1.071075
H241	H	0.633566	-0.443765	0.440002
H242	H	0.883566	-0.193765	0.690002
H243	H	1.133566	0.056235	0.940002
H244	H	1.383566	0.306235	1.190002
H245	H	0.633582	-0.271729	0.269045
H246	H	0.883582	-0.021729	0.519045
H247	H	1.133582	0.228271	0.769045
H248	H	1.383582	0.478271	1.019045
H249	H	0.972706	-0.904263	0.445101
H250	H	1.222706	-0.654263	0.695101
H251	H	1.472706	-0.404263	0.945101
H252	H	1.722706	-0.154263	1.195101
H253	H	1.030463	-0.904594	0.230443
H254	H	1.280463	-0.654594	0.480443
H255	H	1.530463	-0.404594	0.730443
H256	H	1.780463	-0.154594	0.980443
Br257	Br	1.106846	-0.797124	0.516122
Br258	Br	1.356846	-0.547124	0.766122
Br259	Br	1.606846	-0.297124	1.016122
Br260	Br	1.856846	-0.047124	1.266122
H261	H	1.187481	-0.904497	0.387564
H262	H	1.437481	-0.654497	0.637564
H263	H	1.687481	-0.404497	0.887564
H264	H	1.937481	-0.154497	1.137564
H265	H	1.148948	-0.271659	0.784436
H266	H	1.398948	-0.021659	1.034436
H267	H	1.648948	0.228341	1.284436
H268	H	1.898948	0.478341	1.534436
H269	H	1.149008	-0.271694	0.923864
H270	H	1.399008	-0.021694	1.173864
H271	H	1.649008	0.228306	1.423864
H272	H	1.899008	0.478306	1.673864
H273	H	0.978118	-0.443874	0.923860
H274	H	1.228118	-0.193874	1.173860
H275	H	1.478118	0.056126	1.423860
H276	H	1.728118	0.306126	1.673860
