data_functionalizedCrystal
_audit_creation_method	'MofGen! by Chris Wilmer'
_symmetry_space_group_name_H-M	'P1'
_symmetry_Int_Tables_number	1
_symmetry_cell_setting	triclinic
loop_
_symmetry_equiv_pos_as_xyz
  x,y,z
_cell_length_a	10.967926
_cell_length_b	12.811415
_cell_length_c	10.065875
_cell_angle_alpha	93.481155
_cell_angle_beta	93.120479
_cell_angle_gamma	85.527577
loop_
_atom_site_label
_atom_site_type_symbol
_atom_site_fract_x
_atom_site_fract_y
_atom_site_fract_z
O1	O	1.617248	0.180172	0.244578
O2	O	1.267275	0.183122	0.161898
O3	O	1.448200	0.031612	0.223210
O4	O	1.436323	0.331682	0.183266
O5	O	1.413703	0.060624	0.438493
O6	O	1.232778	0.212134	0.377181
O7	O	1.582751	0.209184	0.459861
Zn8	Zn	1.402287	0.215265	0.452702
Zn9	Zn	1.447739	0.177040	0.169057
O10	O	1.401826	0.360694	0.398549
C11	C	1.205175	0.195221	0.259289
C12	C	1.071531	0.188037	0.228745
C13	C	0.994078	0.199863	0.326650
C14	C	0.855949	0.192439	0.295084
C15	C	1.429229	0.007594	0.335213
C16	C	1.424081	-0.107195	0.348205
C17	C	1.451998	-0.354518	0.137885
C18	C	1.447162	-0.462374	0.150086
C19	C	1.409564	-0.430763	0.384805
C20	C	1.414400	-0.322908	0.372604
C21	C	1.435619	-0.284790	0.249140
C22	C	1.440464	-0.176933	0.236943
C23	C	1.402857	-0.145324	0.471658
C24	C	1.398021	-0.253179	0.483859
C25	C	1.644852	0.197084	0.362468
C26	C	1.778497	0.204267	0.393003
C27	C	1.420798	0.384711	0.286543
C28	C	1.425947	0.499499	0.273543
N29	N	1.371277	0.241353	0.646284
N30	N	1.478759	0.150945	-0.024522
C31	C	1.436941	0.186110	0.736347
C32	C	1.413084	0.206196	0.885416
H33	H	1.030028	0.215479	0.433841
Cl34	Cl	1.382855	-0.478700	0.539994
H35	H	1.035582	0.172413	0.121555
Cl36	Cl	1.593095	0.055189	0.924193
H37	H	1.297392	0.303514	0.679536
Cl38	Cl	1.299005	0.302176	0.936738
Cl39	Cl	1.371337	-0.301109	0.639059
H40	H	1.457746	-0.145900	0.136413
H41	H	0.820006	0.176813	0.187887
Cl42	Cl	0.833981	0.228374	0.558512
H43	H	1.389525	-0.088538	0.562252
Cl44	Cl	1.550733	0.089887	0.684982
H45	H	1.469286	-0.323483	0.037359
H46	H	1.460495	-0.519144	0.059489
