data_functionalizedCrystal
_audit_creation_method	'MofGen! by Chris Wilmer'
_symmetry_space_group_name_H-M	'P1'
_symmetry_Int_Tables_number	1
_symmetry_cell_setting	triclinic
loop_
_symmetry_equiv_pos_as_xyz
  x,y,z
_cell_length_a	17.699083
_cell_length_b	10.489741
_cell_length_c	16.776229
_cell_angle_alpha	89.993659
_cell_angle_beta	89.998886
_cell_angle_gamma	83.911094
loop_
_atom_site_label
_atom_site_type_symbol
_atom_site_fract_x
_atom_site_fract_y
_atom_site_fract_z
O1	O	1.005134	0.161296	-0.066176
O2	O	0.784893	0.182281	-0.066202
O3	O	0.900025	-0.013903	-0.066184
O4	O	0.890002	0.357479	-0.066194
O5	O	0.900009	-0.013915	0.066393
O6	O	0.784877	0.182269	0.066375
O7	O	1.005118	0.161284	0.066401
Zn8	Zn	0.894995	0.171774	0.087437
Zn9	Zn	0.895016	0.171790	-0.087238
O10	O	0.889986	0.357467	0.066382
C11	C	0.756683	0.181523	0.000083
C12	C	0.672650	0.179267	0.000073
C13	C	0.624782	0.294422	0.000070
C14	C	0.545825	0.292295	0.000080
C15	C	0.514737	0.175011	0.000088
C16	C	0.562611	0.059847	0.000094
C17	C	0.641567	0.061975	0.000089
C18	C	0.244192	0.051260	0.000114
C19	C	0.165230	0.049140	0.000116
C20	C	0.148450	0.281580	0.000105
C21	C	0.227406	0.283709	0.000100
C22	C	0.275273	0.168545	0.000110
C23	C	0.360887	0.170853	0.000100
C24	C	0.429124	0.172702	0.000092
C25	C	0.899260	-0.061427	0.000104
C26	C	0.896995	-0.203014	0.000102
C27	C	0.823740	-0.269793	0.000088
C28	C	0.858337	-0.362564	0.065459
C29	C	0.858370	-0.362527	-0.065251
C30	C	0.931623	-0.293920	0.065528
C31	C	0.931645	-0.293874	-0.065241
C32	C	0.966296	-0.386619	0.000146
C33	C	1.033328	0.162042	0.000114
C34	C	1.117361	0.164297	0.000119
C35	C	0.890751	0.404991	0.000093
C36	C	0.893016	0.546578	0.000089
N37	N	0.894987	0.171763	0.206648
N38	N	0.895030	0.171791	-0.206450
C39	C	0.945983	0.084928	0.248373
C40	C	0.945987	0.084927	0.331826
C41	C	0.894998	0.171767	0.373551
C42	C	0.843996	0.258606	0.331820
C43	C	0.843989	0.258600	0.248369
C44	C	0.844024	0.258631	0.668367
C45	C	0.844037	0.258633	0.751824
C46	C	0.946022	0.084958	0.751823
C47	C	0.946015	0.084952	0.668373
C48	C	0.895011	0.171786	0.626649
C49	C	0.895006	0.171784	0.536161
C50	C	0.895006	0.171776	0.464038
H51	H	0.283156	-0.042514	0.000122
H52	H	0.650088	0.389929	0.000063
H53	H	0.827371	-0.392910	-0.120523
C54	C	0.528417	-0.069169	0.000101
C55	C	0.441569	-0.071518	0.000100
C56	C	0.407377	-0.200537	0.000104
C57	C	0.460033	-0.327207	0.000109
C58	C	0.546886	-0.324863	0.000109
C59	C	0.581078	-0.195844	0.000106
H60	H	0.402586	0.022255	0.000097
H61	H	0.343083	-0.202271	0.000103
H62	H	0.434722	-0.422715	0.000111
H63	H	0.585870	-0.418636	0.000113
H64	H	0.645372	-0.194109	0.000106
H65	H	0.987512	0.014219	0.365798
H66	H	0.506854	0.386067	0.000077
H67	H	0.987550	0.014249	0.785804
H68	H	0.827335	-0.393005	0.120719
H69	H	0.680540	-0.031796	0.000091
H70	H	0.802512	0.329351	0.785795
H71	H	0.987507	0.014218	0.214406
C72	C	0.973450	-0.253063	0.140275
C73	C	1.056736	-0.306280	0.155046
C74	C	1.098560	-0.265419	0.229793
C75	C	1.057097	-0.171341	0.289770
C76	C	0.973806	-0.118118	0.275001
C77	C	0.931982	-0.158980	0.200254
H78	H	1.087434	-0.375927	0.110646
H79	H	1.160218	-0.304818	0.240725
H80	H	1.088058	-0.141093	0.345102
H81	H	0.943109	-0.048471	0.319401
H82	H	0.870325	-0.119581	0.189322
H83	H	0.252713	0.379213	0.000090
H84	H	0.763510	-0.219023	0.000147
C85	C	1.002102	-0.010575	0.622474
C86	C	1.058196	-0.106101	0.668369
C87	C	1.114281	-0.201634	0.622471
C88	C	1.114273	-0.201640	0.530679
C89	C	1.058177	-0.106110	0.484779
C90	C	1.002091	-0.010577	0.530677
H91	H	1.058204	-0.106100	0.736324
H92	H	1.155807	-0.272351	0.656450
H93	H	1.155791	-0.272359	0.496703
H94	H	1.058169	-0.106111	0.416824
H95	H	0.960565	0.060140	0.496698
C96	C	0.787929	0.354152	0.622474
C97	C	0.731865	0.449717	0.668366
C98	C	0.675769	0.545244	0.622467
C99	C	0.675736	0.545206	0.530674
C100	C	0.731801	0.449637	0.484776
C101	C	0.787898	0.354111	0.530676
H102	H	0.731887	0.449749	0.736321
H103	H	0.634265	0.615990	0.656444
H104	H	0.634210	0.615920	0.496696
H105	H	0.731779	0.449606	0.416821
H106	H	0.829401	0.283365	0.496699
C107	C	0.787893	0.354123	0.202469
C108	C	0.731832	0.449691	0.248363
C109	C	0.675732	0.545212	0.202464
C110	C	0.675692	0.545164	0.110671
C111	C	0.731755	0.449593	0.064772
C112	C	0.787856	0.354072	0.110671
H113	H	0.731860	0.449729	0.316317
H114	H	0.634231	0.615960	0.236441
H115	H	0.634163	0.615875	0.076694
H116	H	0.731728	0.449554	-0.003182
H117	H	0.829357	0.283323	0.076694
H118	H	0.109467	0.375352	0.000101
H119	H	0.139922	-0.046372	0.000123
H120	H	1.026580	-0.437163	0.000189
H121	H	0.802476	0.329309	0.365798
H122	H	0.962621	-0.263400	-0.120504
