data_functionalizedCrystal
_audit_creation_method	'MofGen! by Chris Wilmer'
_symmetry_space_group_name_H-M	'P1'
_symmetry_Int_Tables_number	1
_symmetry_cell_setting	triclinic
loop_
_symmetry_equiv_pos_as_xyz
  x,y,z
_cell_length_a	12.645331
_cell_length_b	12.645330
_cell_length_c	12.759387
_cell_angle_alpha	90.029414
_cell_angle_beta	90.023088
_cell_angle_gamma	90.016671
loop_
_atom_site_label
_atom_site_type_symbol
_atom_site_fract_x
_atom_site_fract_y
_atom_site_fract_z
Zn1	Zn	1.620736	-0.422012	0.594087
Zn2	Zn	1.620616	-0.599314	0.418412
Zn3	Zn	1.443449	-0.422062	0.418416
Zn4	Zn	1.443432	-0.599231	0.594043
O5	O	1.532058	-0.510655	0.506240
O6	O	1.769067	-0.445546	0.570800
O7	O	1.597071	-0.575857	0.271392
O8	O	1.467024	-0.273708	0.441740
O9	O	1.768979	-0.575809	0.441733
O10	O	1.597275	-0.273672	0.570805
O11	O	1.466908	-0.445631	0.271395
O12	O	1.295099	-0.445550	0.441697
O13	O	1.466995	-0.575667	0.741070
O14	O	1.295087	-0.575715	0.570729
O15	O	1.597259	-0.445465	0.741103
O16	O	1.597055	-0.747651	0.441690
O17	O	1.466879	-0.747589	0.570725
C18	C	1.256628	-0.510630	0.506209
C19	C	1.138798	-0.510645	0.506221
C20	C	0.971207	-0.428381	0.425495
C21	C	1.093766	-0.428594	0.425139
C22	C	1.094278	-0.622321	0.475979
C23	C	0.971679	-0.621872	0.475429
C24	C	0.971650	-0.482295	0.617502
C25	C	1.094256	-0.479800	0.616884
C26	C	1.531981	-0.786085	0.506225
C27	C	1.532045	-0.903915	0.506254
C28	C	1.450488	-1.071484	0.587681
C29	C	1.450071	-0.948925	0.587419
C30	C	1.501798	-0.948517	0.395531
C31	C	1.501301	-1.071115	0.396025
C32	C	1.644346	-1.071004	0.534653
C33	C	1.643658	-0.948397	0.537074
C34	C	1.808563	-0.510681	0.506271
C35	C	1.926393	-0.510692	0.506284
C36	C	1.532138	-0.510551	0.780273
C37	C	1.532172	-0.510507	0.897050
C38	C	1.532165	-0.234150	0.506278
C39	C	1.532210	-0.116320	0.506294
C40	C	1.532039	-0.510682	0.233272
C41	C	1.532211	-0.510428	0.116496
C42	C	1.667826	-0.374937	0.897104
C43	C	1.735667	-0.307136	0.951991
C44	C	1.735693	-0.307097	1.061713
C45	C	1.667868	-0.374864	1.116550
C46	C	1.600026	-0.442665	1.061662
C47	C	1.600010	-0.442699	0.951938
C48	C	1.464369	-0.578229	1.061609
C49	C	1.464347	-0.578274	0.951887
C50	C	1.396544	-0.645996	1.116445
C51	C	1.328706	-0.713804	1.061558
C52	C	1.328684	-0.713841	0.951829
C53	C	1.396506	-0.646075	0.896999
H54	H	1.124933	-0.646815	0.395547
Cl55	Cl	1.667813	-0.374995	0.759167
Cl56	Cl	1.667893	-0.374804	1.254486
Cl57	Cl	1.140245	-0.300737	0.454401
Cl58	Cl	1.820963	-0.221844	1.130718
H59	H	1.367876	-1.102385	0.569132
H60	H	1.420681	-0.917906	0.371073
Cl61	Cl	0.925717	-0.300135	0.454441
H62	H	1.790887	-0.251959	0.907331
Cl63	Cl	1.396576	-0.645948	1.254382
Cl64	Cl	0.923560	-0.457017	0.299000
H65	H	1.273483	-0.768969	1.106214
Cl66	Cl	1.243386	-0.799076	0.882837
Cl67	Cl	1.396488	-0.646120	0.759062
Cl68	Cl	1.321720	-0.903781	0.558416
H69	H	1.123044	-0.447364	0.342723
H70	H	1.705230	-1.099998	0.475375
H71	H	0.943033	-0.645953	0.394123
H72	H	1.469239	-1.100890	0.670050
H73	H	1.123448	-0.685288	0.532976
Cl74	Cl	0.925906	-0.719768	0.562307
Cl75	Cl	0.923954	-0.358757	0.659963
Cl76	Cl	1.139208	-0.352928	0.652107
H77	H	1.419328	-1.099807	0.372001
Cl78	Cl	0.926909	-0.574852	0.710439
Cl79	Cl	1.479283	-0.902355	0.714177
Cl80	Cl	1.141580	-0.565612	0.714792
Cl81	Cl	1.589196	-1.116919	0.299202
H82	H	1.671936	-1.101842	0.614020
Cl83	Cl	1.590779	-0.903511	0.299344
Cl84	Cl	1.742619	-0.901077	0.452225
Cl85	Cl	1.678879	-0.903382	0.662883
