data_functionalizedCrystal
_audit_creation_method	'MofGen! by Chris Wilmer'
_symmetry_space_group_name_H-M	'P1'
_symmetry_Int_Tables_number	1
_symmetry_cell_setting	triclinic
loop_
_symmetry_equiv_pos_as_xyz
  x,y,z
_cell_length_a	29.839131
_cell_length_b	29.839134
_cell_length_c	21.395355
_cell_angle_alpha	90.024483
_cell_angle_beta	90.020172
_cell_angle_gamma	90.021992
loop_
_atom_site_label
_atom_site_type_symbol
_atom_site_fract_x
_atom_site_fract_y
_atom_site_fract_z
Zn1	Zn	-0.179138	0.686774	0.354253
Zn2	Zn	0.320862	1.186774	0.854253
Zn3	Zn	-0.254254	0.686690	0.249472
Zn4	Zn	0.245746	1.186690	0.749472
Zn5	Zn	-0.179113	0.611641	0.249490
Zn6	Zn	0.320887	1.111641	0.749490
Zn7	Zn	-0.254216	0.611605	0.354213
Zn8	Zn	0.245784	1.111605	0.854213
O9	O	-0.216680	0.649177	0.301857
O10	O	0.283320	1.149177	0.801857
O11	O	-0.189129	0.749630	0.340363
O12	O	0.310871	1.249630	0.840363
O13	O	-0.244291	0.676715	0.161797
O14	O	0.255709	1.176715	0.661797
O15	O	-0.116249	0.621658	0.263411
O16	O	0.383751	1.121658	0.763411
O17	O	-0.244315	0.749568	0.263381
O18	O	0.255685	1.249568	0.763381
O19	O	-0.116268	0.676858	0.340380
O20	O	0.383732	1.176858	0.840380
O21	O	-0.189085	0.621576	0.161810
O22	O	0.310915	1.121576	0.661810
O23	O	-0.189049	0.548769	0.263372
O24	O	0.310951	1.048769	0.763372
O25	O	-0.244252	0.621596	0.441896
O26	O	0.255748	1.121596	0.941896
O27	O	-0.244228	0.548742	0.340311
O28	O	0.255772	1.048742	0.840311
O29	O	-0.189093	0.676823	0.441925
O30	O	0.310907	1.176823	0.941925
O31	O	-0.317116	0.676680	0.263342
O32	O	0.182884	1.176680	0.763342
O33	O	-0.317088	0.621515	0.340295
O34	O	0.182912	1.121515	0.840295
C35	C	-0.216632	0.532455	0.301840
C36	C	0.283368	1.032455	0.801840
C37	C	-0.216622	0.482520	0.301847
C38	C	0.283378	0.982520	0.801847
C39	C	-0.188004	0.125961	0.342020
C40	C	0.311996	0.625961	0.842020
C41	C	-0.187968	0.313634	0.342006
C42	C	0.312032	0.813634	0.842006
O43	O	-0.163579	0.337923	0.376160
O44	O	0.336421	0.837923	0.876160
N45	N	-0.216652	0.337075	0.301862
N46	N	0.283348	0.837075	0.801862
C47	C	-0.245348	0.313595	0.261721
C48	C	0.254652	0.813595	0.761721
O49	O	-0.269748	0.337839	0.227581
O50	O	0.230252	0.837839	0.727581
C51	C	-0.245386	0.125923	0.261739
C52	C	0.254614	0.625923	0.761739
C53	C	-0.216698	0.102484	0.301882
C54	C	0.283302	0.602484	0.801882
C55	C	-0.159318	0.102523	0.382160
C56	C	0.340682	0.602523	0.882160
C57	C	-0.159326	0.055607	0.382160
C58	C	0.340674	0.555607	0.882160
C59	C	-0.188020	0.032130	0.342022
C60	C	0.311980	0.532130	0.842022
C61	C	-0.216705	0.055569	0.301882
C62	C	0.283295	0.555569	0.801882
C63	C	-0.274085	0.102443	0.221603
C64	C	0.225915	0.602443	0.721603
C65	C	-0.274093	0.055522	0.221612
C66	C	0.225907	0.555522	0.721612
C67	C	-0.245404	0.032084	0.261754
C68	C	0.254596	0.532084	0.761754
C69	C	-0.245407	-0.014824	0.261745
C70	C	0.254593	0.485176	0.761745
N71	N	-0.216723	-0.038265	0.301889
N72	N	0.283277	0.461735	0.801889
C73	C	-0.188030	-0.014788	0.342027
C74	C	0.311970	0.485212	0.842027
C75	C	-0.245326	0.412126	0.261714
C76	C	0.254674	0.912126	0.761714
C77	C	-0.245316	0.459043	0.261708
C78	C	0.254684	0.959043	0.761708
C79	C	-0.187936	0.459079	0.341994
C80	C	0.312064	0.959079	0.841994
C81	C	-0.187944	0.412161	0.341996
C82	C	0.312056	0.912161	0.841996
C83	C	-0.216642	0.388685	0.301858
C84	C	0.283358	0.888685	0.801858
C85	C	-0.188047	-0.113313	0.342026
C86	C	0.311953	0.386687	0.842026
C87	C	-0.188056	-0.160233	0.342021
C88	C	0.311944	0.339767	0.842021
C89	C	-0.245437	-0.160265	0.261738
C90	C	0.254563	0.339735	0.761738
C91	C	-0.245427	-0.113349	0.261740
C92	C	0.254573	0.386651	0.761740
C93	C	-0.216731	-0.089875	0.301889
C94	C	0.283269	0.410125	0.801889
O95	O	-0.269787	-0.039141	0.227614
O96	O	0.230213	0.460859	0.727614
O97	O	-0.163641	-0.039040	0.376173
O98	O	0.336359	0.460960	0.876173
C99	C	-0.187997	0.172877	0.342019
C100	C	0.312003	0.672877	0.842019
C101	C	-0.216683	0.196315	0.301880
C102	C	0.283317	0.696315	0.801880
C103	C	-0.245376	0.172838	0.261741
C104	C	0.254624	0.672838	0.761741
C105	C	-0.216673	0.243233	0.301875
C106	C	0.283327	0.743233	0.801875
C107	C	-0.187979	0.266710	0.342013
C108	C	0.312021	0.766710	0.842013
C109	C	-0.159296	0.243269	0.382157
C110	C	0.340704	0.743269	0.882157
C111	C	-0.159303	0.196353	0.382158
C112	C	0.340697	0.696353	0.882158
C113	C	-0.274060	0.196279	0.221597
C114	C	0.225940	0.696279	0.721597
C115	C	-0.274049	0.243195	0.221599
C116	C	0.225951	0.743195	0.721599
C117	C	-0.245356	0.266672	0.261738
C118	C	0.254644	0.766672	0.761738
C119	C	-0.333403	0.649096	0.301826
C120	C	0.166597	1.149096	0.801826
C121	C	-0.383337	0.649103	0.301834
C122	C	0.116663	1.149103	0.801834
C123	C	-0.692982	0.677954	0.261846
C124	C	-0.192982	1.177954	0.761846
C125	C	-0.880655	0.678009	0.261871
C126	C	-0.380655	1.178009	0.761871
O127	O	-0.904921	0.702476	0.227848
O128	O	-0.404921	1.202476	0.727848
N129	N	-0.904122	0.649270	0.301904
N130	N	-0.404122	1.149270	0.801904
C131	C	-0.880668	0.620518	0.341937
C132	C	-0.380668	1.120518	0.841937
O133	O	-0.904935	0.596078	0.375993
O134	O	-0.404935	1.096078	0.875993
C135	C	-0.692996	0.620465	0.341916
C136	C	-0.192996	1.120465	0.841916
C137	C	-0.669531	0.649202	0.301875
C138	C	-0.169531	1.149202	0.801875
C139	C	-0.669517	0.706690	0.221810
C140	C	-0.169517	1.206690	0.721810
C141	C	-0.622602	0.706674	0.221802
C142	C	-0.122602	1.206674	0.721802
C143	C	-0.599151	0.677922	0.261830
C144	C	-0.099151	1.177922	0.761830
C145	C	-0.622616	0.649187	0.301867
C146	C	-0.122616	1.149187	0.801867
C147	C	-0.669543	0.591715	0.381951
C148	C	-0.169543	1.091715	0.881951
C149	C	-0.622622	0.591705	0.381944
C150	C	-0.122622	1.091705	0.881944
C151	C	-0.599157	0.620442	0.341903
C152	C	-0.099157	1.120442	0.841903
C153	C	-0.552250	0.620419	0.341888
C154	C	-0.052250	1.120419	0.841888
N155	N	-0.528783	0.649158	0.301854
N156	N	-0.028783	1.149158	0.801854
C157	C	-0.552233	0.677910	0.261826
C158	C	-0.052233	1.177910	0.761826
C159	C	-0.979199	0.620547	0.341945
C160	C	-0.479199	1.120547	0.841945
C161	C	-1.026117	0.620559	0.341950
C162	C	-0.526117	1.120559	0.841950
C163	C	-1.026100	0.678052	0.261884
C164	C	-0.526100	1.178052	0.761884
C165	C	-0.979182	0.678037	0.261876
C166	C	-0.479182	1.178037	0.761876
C167	C	-0.955732	0.649286	0.301912
C168	C	-0.455732	1.149286	0.801912
C169	C	-0.453708	0.677874	0.261811
C170	C	0.046292	1.177874	0.761811
C171	C	-0.406788	0.677854	0.261805
C172	C	0.093212	1.177854	0.761805
C173	C	-0.406808	0.620364	0.341873
C174	C	0.093192	1.120364	0.841873
C175	C	-0.453724	0.620381	0.341877
C176	C	0.046276	1.120381	0.841877
C177	C	-0.477172	0.649140	0.301844
C178	C	0.022828	1.149140	0.801844
O179	O	-0.527955	0.595969	0.375897
O180	O	-0.027955	1.095969	0.875897
O181	O	-0.527959	0.702353	0.227784
O182	O	-0.027959	1.202353	0.727784
C183	C	-0.739898	0.677970	0.261855
C184	C	-0.239898	1.177970	0.761855
C185	C	-0.763362	0.649234	0.301891
C186	C	-0.263362	1.149234	0.801891
C187	C	-0.739912	0.620483	0.341920
C188	C	-0.239912	1.120483	0.841920
C189	C	-0.810280	0.649247	0.301896
C190	C	-0.310280	1.149247	0.801896
C191	C	-0.833731	0.677998	0.261867
C192	C	-0.333731	1.177998	0.761867
C193	C	-0.810264	0.706737	0.221834
C194	C	-0.310264	1.206737	0.721834
C195	C	-0.763348	0.706721	0.221826
C196	C	-0.263348	1.206721	0.721826
C197	C	-0.763379	0.591744	0.381953
C198	C	-0.263379	1.091744	0.881953
C199	C	-0.810294	0.591762	0.381958
C200	C	-0.310294	1.091762	0.881958
C201	C	-0.833745	0.620513	0.341929
C202	C	-0.333745	1.120513	0.841929
C203	C	-0.099502	0.649271	0.301902
C204	C	0.400498	1.149271	0.801902
C205	C	-0.049567	0.649311	0.301921
C206	C	0.450433	1.149311	0.801921
C207	C	-0.216671	0.649215	0.465280
C208	C	0.283329	1.149215	0.965280
C209	C	-0.216667	0.649230	0.534922
C210	C	0.283333	1.149230	1.034922
C211	C	-0.216729	0.766356	0.301875
C212	C	0.283271	1.266356	0.801875
C213	C	-0.216750	0.816290	0.301882
C214	C	0.283250	1.316290	0.801882
C215	C	-0.216657	0.649166	0.139069
C216	C	0.283343	1.149166	0.639069
C217	C	-0.216534	0.649237	0.069428
C218	C	0.283466	1.149237	0.569428
C219	C	-0.187944	0.677986	0.567651
C220	C	0.312056	1.177986	1.067651
C221	C	-0.187925	0.677985	0.633087
C222	C	0.312075	1.177985	1.133087
C223	C	-0.216637	0.649234	0.665790
C224	C	0.283363	1.149234	1.165790
C225	C	-0.245362	0.620473	0.633053
C226	C	0.254638	1.120473	1.133053
C227	C	-0.245377	0.620471	0.567618
C228	C	0.254623	1.120471	1.067618
C229	C	-0.257087	0.645659	0.769454
C230	C	0.242913	1.145659	1.269454
C231	C	-0.257072	0.645663	0.834887
C232	C	0.242928	1.145663	1.334887
C233	C	-0.216589	0.649237	0.867611
C234	C	0.283411	1.149237	1.367611
C235	C	-0.176120	0.652815	0.834894
C236	C	0.323880	1.152815	1.334894
C237	C	-0.176135	0.652813	0.769460
C238	C	0.323865	1.152813	1.269460
C239	C	-0.216623	0.649232	0.736742
C240	C	0.283377	1.149232	1.236742
C241	C	-0.187843	0.677993	0.971293
C242	C	0.312157	1.177993	1.471293
C243	C	-0.187823	0.677989	1.036730
C244	C	0.312177	1.177989	1.536730
C245	C	-0.245263	0.620480	1.036694
C246	C	0.254737	1.120480	1.536694
C247	C	-0.245279	0.620481	0.971259
C248	C	0.254721	1.120481	1.471259
C249	C	-0.216570	0.649240	0.938562
C250	C	0.283430	1.149240	1.438562
H251	H	-0.268672	0.478123	0.229014
H252	H	0.231328	0.978123	0.729014
H253	H	-0.472830	0.596982	0.374483
H254	H	0.027170	1.096982	0.874483
Cl255	Cl	-0.151805	0.714128	0.674241
Cl256	Cl	0.348195	1.214128	1.174241
Cl257	Cl	-0.733905	0.555595	0.432280
Cl258	Cl	-0.233905	1.055595	0.932280
H259	H	-0.164680	-0.094206	0.374718
H260	H	0.335320	0.405794	0.874718
H261	H	-0.135952	0.121632	0.414849
H262	H	0.364048	0.621632	0.914849
Cl263	Cl	-0.377319	0.584223	0.392195
Cl264	Cl	0.122681	1.084223	0.892195
Cl265	Cl	-0.125223	0.657309	0.876025
Cl266	Cl	0.374777	1.157309	1.376025
H267	H	-0.829366	0.730146	0.189239
H268	H	-0.329366	1.230146	0.689239
Cl269	Cl	-0.281489	0.584319	0.526470
Cl270	Cl	0.218511	1.084319	1.026470
H271	H	-0.744247	0.730122	0.189221
H272	H	-0.244247	1.230122	0.689221
H273	H	-0.164583	0.393080	0.374682
H274	H	0.335417	0.893080	0.874682
Cl275	Cl	-0.151850	0.714137	0.526550
Cl276	Cl	0.348150	1.214137	1.026550
Cl277	Cl	-0.281392	0.584331	0.930111
Cl278	Cl	0.218608	1.084331	1.430111
H279	H	-0.143183	0.655725	0.742824
H280	H	0.356817	1.155725	1.242824
H281	H	-0.164464	0.701408	0.944670
H282	H	0.335536	1.201408	1.444670
Cl283	Cl	-0.698990	0.742840	0.171481
Cl284	Cl	-0.198990	1.242840	0.671481
Cl285	Cl	-0.281354	0.584331	1.077801
Cl286	Cl	0.218646	1.084331	1.577801
Cl287	Cl	-0.281400	0.382619	0.211240
Cl288	Cl	0.218600	0.882619	0.711240
Cl289	Cl	-0.839787	0.555630	0.432299
Cl290	Cl	-0.339787	1.055630	0.932299
Cl291	Cl	-0.151718	0.714149	1.077876
Cl292	Cl	0.348282	1.214149	1.577876
H293	H	-0.290025	0.642753	0.861520
H294	H	0.209975	1.142753	1.361520
Cl295	Cl	-0.307986	0.641180	0.728322
Cl296	Cl	0.192014	1.141180	1.228322
H297	H	-0.164692	-0.179315	0.374709
H298	H	0.335308	0.320685	0.874709
Cl299	Cl	-0.123263	0.026149	0.432634
Cl300	Cl	0.376737	0.526149	0.932634
H301	H	-0.268737	0.597062	0.659684
H302	H	0.231263	1.097062	1.159684
H303	H	-0.164572	0.478202	0.374675
H304	H	0.335428	0.978202	0.874675
H305	H	-0.472794	0.701293	0.229214
H306	H	0.027206	1.201293	0.729214
H307	H	-0.297446	0.121519	0.188915
H308	H	0.202554	0.621519	0.688915
H309	H	-0.268784	-0.094265	0.229048
H310	H	0.231216	0.405735	0.729048
Cl311	Cl	-0.281507	-0.189788	0.211280
Cl312	Cl	0.218493	0.310212	0.711280
Cl313	Cl	-0.310176	0.026013	0.171153
Cl314	Cl	0.189824	0.526013	0.671153
H315	H	-0.135931	0.262392	0.414837
H316	H	0.364069	0.762392	0.914837
Cl317	Cl	-0.123237	0.166895	0.432627
Cl318	Cl	0.376763	0.666895	0.932627
Cl319	Cl	-0.310114	0.272654	0.171123
Cl320	Cl	0.189886	0.772654	0.671123
H321	H	-0.297426	0.177169	0.188912
H322	H	0.202574	0.677169	0.688912
H323	H	-0.387685	0.701256	0.229197
H324	H	0.112315	1.201256	0.729197
Cl325	Cl	-1.055590	0.714196	0.211561
Cl326	Cl	-0.555590	1.214196	0.711561
Cl327	Cl	-0.949688	0.714166	0.211539
Cl328	Cl	-0.449688	1.214166	0.711539
Cl329	Cl	-1.055609	0.584425	0.392281
Cl330	Cl	-0.555609	1.084425	0.892281
Cl331	Cl	-0.593111	0.742810	0.171472
Cl332	Cl	-0.093111	1.242810	0.671472
Cl333	Cl	-0.949726	0.584398	0.392279
Cl334	Cl	-0.449726	1.084398	0.892279
H335	H	-0.603531	0.568293	0.414547
H336	H	-0.103531	1.068293	0.914547
Cl337	Cl	-0.699030	0.555590	0.432299
Cl338	Cl	-0.199030	1.055590	0.932299
