data_functionalizedCrystal
_audit_creation_method	'MofGen! by Chris Wilmer'
_symmetry_space_group_name_H-M	'P1'
_symmetry_Int_Tables_number	1
_symmetry_cell_setting	triclinic
loop_
_symmetry_equiv_pos_as_xyz
  x,y,z
_cell_length_a	10.908878
_cell_length_b	15.021413
_cell_length_c	11.026607
_cell_angle_alpha	89.993144
_cell_angle_beta	84.335404
_cell_angle_gamma	90.005349
loop_
_atom_site_label
_atom_site_type_symbol
_atom_site_fract_x
_atom_site_fract_y
_atom_site_fract_z
O1	O	1.662462	0.074017	-0.179092
O2	O	2.162462	0.574017	0.320908
O3	O	1.309528	0.074021	-0.088552
O4	O	1.809528	0.574021	0.411448
O5	O	1.456744	0.074017	-0.304572
O6	O	1.956744	0.574017	0.195428
O7	O	1.515246	0.074022	0.036928
O8	O	2.015246	0.574022	0.536928
O9	O	1.456720	-0.074048	-0.304541
O10	O	1.956720	0.425952	0.195459
O11	O	1.309503	-0.074043	-0.088521
O12	O	1.809503	0.425957	0.411479
O13	O	1.662438	-0.074047	-0.179061
O14	O	2.162438	0.425953	0.320939
Zn15	Zn	1.485967	-0.097553	-0.133786
Zn16	Zn	1.985967	0.402447	0.366214
Zn17	Zn	1.485999	0.097528	-0.133827
Zn18	Zn	1.985999	0.597528	0.366173
O19	O	1.515222	-0.074042	0.036959
O20	O	2.015222	0.425958	0.536959
C21	C	1.263630	-0.000010	-0.080075
C22	C	1.763630	0.499990	0.419925
C23	C	1.126902	-0.000009	-0.054876
C24	C	1.626902	0.499991	0.445124
N25	N	1.485954	-0.230691	-0.133760
N26	N	1.985954	0.269309	0.366240
C27	C	1.056640	-0.000010	-0.146821
C28	C	1.556640	0.499990	0.353179
C29	C	0.915324	-0.000008	-0.120779
C30	C	1.415324	0.499992	0.379221
C31	C	1.417859	-0.470372	-0.033908
C32	C	1.917859	0.029628	0.466092
C33	C	1.533923	-0.529707	-0.033778
C34	C	2.033923	-0.029707	0.466222
C35	C	1.485979	-0.412298	-0.133795
C36	C	1.985979	0.087702	0.366205
C37	C	1.369951	-0.529704	-0.133906
C38	C	1.869951	-0.029704	0.366094
C39	C	1.485993	-0.587722	-0.133825
C40	C	1.985993	-0.087722	0.366175
C41	C	1.602111	-0.470327	-0.133624
C42	C	2.102111	0.029673	0.366376
C43	C	1.438055	-0.470318	-0.233783
C44	C	1.938055	0.029682	0.266217
C45	C	1.554189	-0.529627	-0.233713
C46	C	2.054189	-0.029627	0.266287
C47	C	1.485969	-0.311240	-0.133775
C48	C	1.985969	0.188760	0.366225
C49	C	1.486015	-0.688777	-0.133849
C50	C	1.986015	-0.188777	0.366151
C51	C	1.708336	-0.000013	-0.187538
C52	C	2.208336	0.499987	0.312462
C53	C	1.845063	-0.000009	-0.212737
C54	C	2.345063	0.499991	0.287263
C55	C	1.445939	-0.000014	-0.347589
C56	C	1.945939	0.499986	0.152411
C57	C	1.413766	-0.000011	-0.475811
C58	C	1.913766	0.499989	0.024189
N59	N	1.486019	0.230665	-0.133864
N60	N	1.986019	0.730665	0.366136
C61	C	1.502601	-0.000011	-0.567544
C62	C	2.002601	0.499989	-0.067544
C63	C	1.469351	-0.000007	-0.700068
C64	C	1.969351	0.499993	-0.200068
C65	C	1.526026	-0.000009	0.079976
C66	C	2.026026	0.499991	0.579976
C67	C	1.558199	-0.000007	0.208198
C68	C	2.058199	0.499993	0.708198
H69	H	1.101105	-0.000007	-0.244817
H70	H	1.601105	0.499993	0.255183
F71	F	0.857217	0.000001	0.007319
F72	F	1.357217	0.500001	0.507319
H73	H	1.603272	-0.000017	-0.547968
H74	H	2.103272	0.499983	-0.047968
F75	F	1.282179	-0.000001	-0.501390
F76	F	1.782179	0.499999	-0.001390
H77	H	0.889522	-0.000005	-0.310740
H78	H	1.389522	0.499995	0.189260
H79	H	1.082437	-0.000003	0.043120
H80	H	1.582437	0.499997	0.543120
F81	F	1.342677	-0.436360	0.076552
F82	F	1.842677	0.063640	0.576552
H83	H	1.368674	0.000000	-0.719637
H84	H	1.868674	0.500000	-0.219637
F85	F	1.586922	-0.563804	0.076722
F86	F	2.086922	-0.063804	0.576722
F87	F	1.730433	-0.436383	-0.133386
F88	F	2.230433	0.063617	0.366614
H89	H	1.611881	-0.555481	-0.318217
H90	H	2.111881	-0.055481	0.181783
H91	H	1.397481	-0.444212	-0.318289
H92	H	1.897481	0.055788	0.181711
F93	F	1.241690	-0.563797	-0.134018
F94	F	1.741690	-0.063797	0.365982
F95	F	1.689794	-0.000004	-0.766233
F96	F	2.189794	0.499996	-0.266233
