data_functionalizedCrystal
_audit_creation_method	'MofGen! by Chris Wilmer'
_symmetry_space_group_name_H-M	'P1'
_symmetry_Int_Tables_number	1
_symmetry_cell_setting	triclinic
loop_
_symmetry_equiv_pos_as_xyz
  x,y,z
_cell_length_a	11.026607
_cell_length_b	14.853567
_cell_length_c	9.482900
_cell_angle_alpha	99.351342
_cell_angle_beta	78.636152
_cell_angle_gamma	96.110474
loop_
_atom_site_label
_atom_site_type_symbol
_atom_site_fract_x
_atom_site_fract_y
_atom_site_fract_z
O1	O	1.629690	0.366576	-0.120866
O2	O	1.276313	0.323576	-0.120871
O3	O	1.462441	0.215369	-0.120872
O4	O	1.443561	0.474783	-0.120864
O5	O	1.424635	0.237461	0.120920
O6	O	1.238506	0.345668	0.120922
O7	O	1.591884	0.388668	0.120927
Cu8	Cu	1.411743	0.369186	0.143002
Cu9	Cu	1.456453	0.343059	-0.142946
O10	O	1.405755	0.496875	0.120929
C11	C	1.212185	0.326689	0.000025
C12	C	1.077432	0.303041	0.000022
C13	C	1.003736	0.368337	0.000023
C14	C	0.864461	0.343897	0.000020
C15	C	1.442683	0.192688	0.000020
C16	C	1.440122	0.092190	0.000007
C17	C	1.318718	-0.339931	0.000033
C18	C	1.539842	-0.325531	0.000036
C19	C	1.542254	-0.231109	0.000028
C20	C	1.432895	-0.191094	0.000024
C21	C	1.321125	-0.245500	0.000029
C22	C	1.654019	-0.176694	0.000038
C23	C	1.656435	-0.082266	0.000031
C24	C	1.547077	-0.042250	0.000017
C25	C	1.435303	-0.096663	0.000020
C26	C	1.325944	-0.056648	0.000016
C27	C	1.214170	-0.111060	0.000009
C28	C	1.211767	-0.205484	0.000015
C29	C	1.549480	0.052174	0.000011
C30	C	1.328352	0.037783	0.000012
C31	C	1.656012	0.385555	0.000029
C32	C	1.790766	0.409202	0.000022
C33	C	1.425513	0.519556	0.000033
C34	C	1.428076	0.620054	0.000037
N35	N	1.380304	0.387562	0.344123
N36	N	1.487901	0.324677	-0.344066
C37	C	1.447172	0.348473	0.416321
C38	C	1.421024	0.363771	0.583739
H39	H	1.239298	0.070355	0.000002
H40	H	1.303693	0.432350	0.406253
H41	H	1.043750	0.442333	0.000034
O42	O	1.579311	0.271177	0.582058
C43	C	1.740052	0.177280	0.597753
C44	C	1.636552	0.237827	0.681596
H45	H	1.786378	0.150314	0.678192
H46	H	1.698519	0.117267	0.526541
H47	H	1.811942	0.219494	0.526436
H48	H	1.564627	0.195690	0.752992
H49	H	1.678175	0.297842	0.752716
H50	H	0.824456	0.269894	-0.000019
O51	O	1.329541	0.417205	0.657617
C52	C	1.168898	0.511192	0.641931
C53	C	1.272443	0.450687	0.558083
H54	H	1.122722	0.538296	0.561494
H55	H	1.096881	0.469010	0.713163
H56	H	1.210504	0.571120	0.713228
H57	H	1.230949	0.390751	0.486707
H58	H	1.344445	0.492934	0.486943
H59	H	0.830773	0.483203	0.000034
O60	O	1.210050	-0.392654	-0.000040
C61	C	0.990965	-0.396950	0.000034
C62	C	1.113950	-0.337138	0.000085
H63	H	0.913230	-0.352088	0.000166
H64	H	1.000053	-0.450745	-0.101183
H65	H	0.968551	-0.432298	0.101197
H66	H	1.136435	-0.301731	-0.101009
H67	H	1.104798	-0.283398	0.101369
O68	O	1.108015	-0.072165	-0.000251
C69	C	1.002037	0.014710	-0.125470
C70	C	1.122314	-0.029319	-0.125374
H71	H	1.013565	0.049378	-0.226605
H72	H	0.921701	-0.040364	-0.125571
H73	H	0.981827	0.067768	-0.024230
H74	H	1.142640	-0.082369	-0.226596
H75	H	1.202581	0.025806	-0.125198
H76	H	1.120766	-0.249794	0.000010
O77	O	1.029724	0.214773	0.000273
C78	C	0.995712	0.082975	0.125482
C79	C	1.049763	0.182944	0.125397
H80	H	1.011917	0.057205	0.226618
H81	H	0.891870	0.078947	0.125575
H82	H	1.043415	0.038740	0.024243
H83	H	1.002156	0.227239	0.226619
H84	H	1.153610	0.186901	0.125229
O85	O	1.760350	-0.215480	-0.000153
C86	C	1.968166	-0.243577	-0.125461
C87	C	1.847827	-0.199584	-0.125404
H88	H	2.038913	-0.230758	-0.226731
H89	H	2.007437	-0.212206	-0.024337
H90	H	1.947196	-0.320403	-0.125398
H91	H	1.868694	-0.122759	-0.125519
H92	H	1.808590	-0.231027	-0.226519
H93	H	1.628875	-0.358116	0.000051
O94	O	1.538440	0.294913	0.342246
C95	C	1.616115	0.145259	0.295333
C96	C	1.512651	0.205799	0.379302
H97	H	1.595314	0.073204	0.325285
H98	H	1.620898	0.142384	0.173506
H99	H	1.708786	0.175398	0.325120
H100	H	1.419925	0.175707	0.349637
H101	H	1.507978	0.208674	0.501109
H102	H	1.640483	0.096473	0.000026
H103	H	1.747448	-0.037972	0.000035
