data_functionalizedCrystal
_audit_creation_method	'MofGen! by Chris Wilmer'
_symmetry_space_group_name_H-M	'P1'
_symmetry_Int_Tables_number	1
_symmetry_cell_setting	triclinic
loop_
_symmetry_equiv_pos_as_xyz
  x,y,z
_cell_length_a	14.853567
_cell_length_b	10.489741
_cell_length_c	13.330367
_cell_angle_alpha	89.995673
_cell_angle_beta	89.995418
_cell_angle_gamma	84.087052
loop_
_atom_site_label
_atom_site_type_symbol
_atom_site_fract_x
_atom_site_fract_y
_atom_site_fract_z
O1	O	1.197303	0.166528	-0.083354
O2	O	0.934954	0.186366	-0.083371
O3	O	1.072098	-0.009218	-0.083356
O4	O	1.060159	0.362112	-0.083369
O5	O	1.072078	-0.009223	0.083491
O6	O	0.934934	0.186361	0.083476
O7	O	1.197282	0.166524	0.083493
Cu8	Cu	1.066107	0.176442	0.098719
Cu9	Cu	1.066130	0.176447	-0.098597
O10	O	1.060139	0.362107	0.083479
C11	C	0.901351	0.185464	0.000051
C12	C	0.801252	0.182771	0.000044
C13	C	0.388003	0.055204	0.000071
C14	C	0.368025	0.287562	0.000062
C15	C	0.462072	0.290094	0.000059
C16	C	0.519090	0.175180	0.000060
C17	C	0.482060	0.057733	0.000065
C18	C	0.499110	0.407539	0.000044
C19	C	0.593163	0.410077	0.000040
C20	C	0.650183	0.295161	0.000048
C21	C	0.613147	0.177709	0.000054
C22	C	0.670164	0.062795	0.000055
C23	C	0.633130	-0.054658	0.000068
C24	C	0.539079	-0.057183	0.000073
C25	C	0.744234	0.297685	0.000043
C26	C	0.764221	0.065324	0.000049
C27	C	1.071186	-0.056742	0.000067
C28	C	1.068488	-0.198341	0.000065
C29	C	0.981228	-0.265502	0.000052
C30	C	1.022439	-0.358089	0.082319
C31	C	1.022479	-0.358060	-0.082179
C32	C	1.109735	-0.289063	0.082400
C33	C	1.109764	-0.289024	-0.082172
C34	C	1.151038	-0.381585	0.000115
C35	C	1.230886	0.167425	0.000070
C36	C	1.330985	0.170118	0.000070
C37	C	1.061051	0.409631	0.000053
C38	C	1.063748	0.551230	0.000049
N39	N	1.066096	0.176437	0.237501
N40	N	1.066147	0.176441	-0.237378
C41	C	1.005400	0.263017	0.710117
C42	C	1.126885	0.089867	0.710098
C43	C	1.126874	0.089863	0.605080
C44	C	1.066127	0.176439	0.552575
C45	C	1.005390	0.263019	0.605089
C46	C	1.187617	0.003293	0.552558
C47	C	1.187610	0.003287	0.447534
C48	C	1.126857	0.089858	0.395027
C49	C	1.066117	0.176440	0.447547
C50	C	1.005369	0.263016	0.395043
C51	C	0.944624	0.349594	0.447561
C52	C	0.944637	0.349590	0.552582
C53	C	1.126844	0.089861	0.290005
C54	C	1.005359	0.263017	0.290015
H55	H	0.679566	-0.148221	0.000062
C56	C	0.252707	-0.051860	0.000087
C57	C	0.347300	-0.073897	0.000081
H58	H	0.227581	-0.131564	0.000087
H59	H	0.233194	-0.004552	0.058268
H60	H	0.233195	-0.004537	-0.058100
H61	H	0.366813	-0.121213	0.058272
H62	H	0.366821	-0.121226	-0.058105
C63	C	1.235116	-0.187443	0.147412
C64	C	1.159521	-0.248011	0.176400
H65	H	1.265844	-0.162092	0.205445
H66	H	1.274761	-0.245135	0.108971
H67	H	1.216007	-0.114012	0.108174
H68	H	1.178632	-0.321448	0.215632
H69	H	1.119869	-0.190316	0.214857
H70	H	0.955888	0.333514	0.247272
H71	H	1.176348	0.019385	0.752851
H72	H	1.222848	-0.431815	0.000165
H73	H	1.146663	-0.258392	-0.151722
C74	C	0.214981	0.386849	0.000070
C75	C	0.305353	0.413871	0.000064
H76	H	0.176289	0.464832	0.000080
H77	H	0.203680	0.338714	-0.058110
H78	H	0.203681	0.338690	0.058257
H79	H	0.316655	0.462022	-0.058127
H80	H	0.316659	0.462026	0.058250
H81	H	0.985555	-0.388607	-0.151736
C82	C	0.453106	0.604796	-0.085746
C83	C	0.436432	0.533842	0.000035
H84	H	0.414402	0.682768	-0.085752
H85	H	0.514410	0.623120	-0.085746
H86	H	0.441798	0.556624	-0.143915
H87	H	0.447747	0.582011	0.058205
H88	H	0.375115	0.515521	0.000045
C89	C	0.883673	-0.340236	0.176049
C90	C	0.972588	-0.399409	0.176202
H91	H	0.852894	-0.365749	0.234004
H92	H	0.884552	-0.249827	0.176421
H93	H	0.853267	-0.365022	0.117626
H94	H	1.002997	-0.374616	0.234622
H95	H	0.971713	-0.489839	0.175840
C96	C	1.241560	-0.073589	0.713542
C97	C	1.254387	-0.091866	0.610271
H98	H	1.282780	-0.132346	0.749173
H99	H	1.251901	0.011555	0.730742
H100	H	1.181303	-0.087604	0.730751
H101	H	1.314643	-0.077842	0.593062
H102	H	1.244053	-0.177030	0.593065
H103	H	0.623308	0.505714	0.000029
C104	C	0.715035	0.527105	0.000024
C105	C	0.784943	0.426776	0.000029
H106	H	0.740168	0.606803	0.000023
H107	H	0.678773	0.521283	-0.058154
H108	H	0.678762	0.521280	0.058213
H109	H	0.821212	0.432596	-0.058163
H110	H	0.821220	0.432601	0.058214
H111	H	0.895167	0.420090	0.404799
C112	C	1.307690	-0.167878	0.458076
C113	C	1.254371	-0.091887	0.389811
H114	H	1.348899	-0.226641	0.422437
H115	H	1.340467	-0.114698	0.499020
H116	H	1.269862	-0.213847	0.499056
H117	H	1.292198	-0.045911	0.348835
H118	H	1.221591	-0.145074	0.348849
C119	C	0.890726	0.426483	0.713580
C120	C	0.877880	0.444761	0.610312
H121	H	0.849518	0.485247	0.749220
H122	H	0.880382	0.341342	0.730796
H123	H	0.950989	0.440488	0.730760
H124	H	0.817618	0.430747	0.593131
H125	H	0.888216	0.529923	0.593089
H126	H	0.810640	-0.028255	0.000054
H127	H	0.955940	0.333504	0.752880
H128	H	0.508917	-0.152807	0.000108
H129	H	0.909483	-0.215045	0.000130
H130	H	1.176306	0.019377	0.247250
