data_functionalizedCrystal
_audit_creation_method	'MofGen! by Chris Wilmer'
_symmetry_space_group_name_H-M	'P1'
_symmetry_Int_Tables_number	1
_symmetry_cell_setting	triclinic
loop_
_symmetry_equiv_pos_as_xyz
  x,y,z
_cell_length_a	15.944551
_cell_length_b	17.038272
_cell_length_c	15.021413
_cell_angle_alpha	90.004029
_cell_angle_beta	89.997174
_cell_angle_gamma	87.305147
loop_
_atom_site_label
_atom_site_type_symbol
_atom_site_fract_x
_atom_site_fract_y
_atom_site_fract_z
O1	O	1.121728	0.100827	-0.073940
O2	O	0.878066	0.113259	-0.073962
O3	O	0.998449	-0.006773	-0.073944
O4	O	1.001345	0.220859	-0.073958
O5	O	0.998429	-0.006755	0.074120
O6	O	0.878046	0.113277	0.074102
O7	O	1.121708	0.100844	0.074125
Zn8	Zn	0.999874	0.107063	0.097622
Zn9	Zn	0.999900	0.107041	-0.097459
O10	O	1.001326	0.220876	0.074107
C11	C	0.846725	0.112752	0.000067
C12	C	0.753369	0.111205	0.000059
C13	C	0.532936	0.033105	0.000081
C14	C	0.474515	0.069363	-0.072924
C15	C	0.582443	0.108405	0.000070
C16	C	0.474519	0.069398	0.073055
C17	C	0.417337	0.105696	0.000084
C18	C	0.525252	0.144684	-0.072996
C19	C	0.525262	0.144709	0.073049
C20	C	0.466862	0.181022	0.000026
C21	C	0.677557	0.109964	0.000061
C22	C	0.322225	0.104143	0.000087
C23	C	0.995805	-0.035893	0.000088
C24	C	0.987945	-0.122688	0.000087
C25	C	1.060103	-0.172781	0.000094
C26	C	1.052713	-0.254334	0.000085
C27	C	0.973165	-0.285792	0.000075
C28	C	0.901002	-0.235693	0.000065
C29	C	0.908393	-0.154142	0.000068
C30	C	0.947056	-0.531558	0.000061
C31	C	0.939671	-0.613115	0.000060
C32	C	1.091383	-0.631751	0.000079
C33	C	1.098766	-0.550197	0.000087
C34	C	1.026603	-0.500105	0.000072
C35	C	0.965610	-0.369152	0.000069
C36	C	1.034159	-0.416747	0.000073
C37	C	1.153049	0.101352	0.000093
C38	C	1.246405	0.102899	0.000096
C39	C	1.003969	0.249997	0.000073
C40	C	1.011829	0.336792	0.000068
N41	N	0.999863	0.107078	0.230759
N42	N	0.999917	0.107019	-0.230597
C43	C	0.944187	0.162555	0.470434
C44	C	1.021171	0.177734	0.529775
C45	C	0.999883	0.107059	0.412366
C46	C	0.922921	0.091897	0.529768
C47	C	0.999896	0.107041	0.587790
C48	C	1.076908	0.122273	0.470400
C49	C	0.978606	0.036405	0.470388
C50	C	1.055643	0.051554	0.529702
C51	C	0.999875	0.107070	0.311309
C52	C	0.999913	0.107029	0.688846
H53	H	1.124879	-0.147175	0.000108
H54	H	1.098927	-0.391130	0.000061
H55	H	0.960575	-0.023318	0.444282
C56	C	0.444726	0.026743	-0.155140
C57	C	0.478350	-0.050663	-0.154791
C58	C	0.450922	-0.089956	-0.230503
H59	H	0.462874	0.052886	-0.207048
H60	H	0.385158	0.026441	-0.154817
H61	H	0.537905	-0.050357	-0.155122
H62	H	0.460205	-0.076827	-0.102899
H63	H	0.391354	-0.090257	-0.230180
H64	H	0.469072	-0.063806	-0.282406
H65	H	0.473725	-0.142481	-0.230272
C66	C	1.130984	-0.308816	0.000231
C67	C	1.131148	-0.356195	0.076389
C68	C	1.203234	-0.406402	0.076544
H69	H	1.179482	-0.278503	0.000286
H70	H	1.131263	-0.341061	-0.051380
H71	H	1.130877	-0.323953	0.127986
H72	H	1.082666	-0.386525	0.076350
H73	H	1.203513	-0.438647	0.024933
H74	H	1.251727	-0.376082	0.076597
H75	H	1.203352	-0.438559	0.128212
C76	C	0.830120	-0.099660	0.000200
C77	C	0.829927	-0.052277	0.076363
C78	C	0.757839	-0.002073	0.076504
H79	H	0.781623	-0.129976	0.000240
H80	H	0.829855	-0.067418	-0.051408
H81	H	0.830184	-0.084515	0.127957
H82	H	0.878408	-0.021944	0.076339
H83	H	0.757575	0.030169	0.024896
H84	H	0.709348	-0.032395	0.076541
H85	H	0.757703	0.030088	0.128174
H86	H	0.900842	-0.394774	0.000062
H87	H	0.547657	0.176539	0.134769
C88	C	0.814581	-0.269736	0.000190
C89	C	0.770594	-0.244253	0.076347
C90	C	0.690974	-0.275586	0.076488
H91	H	0.820390	-0.325477	0.000237
H92	H	0.784590	-0.252521	-0.051421
H93	H	0.800577	-0.261472	0.127945
H94	H	0.764762	-0.188516	0.076317
H95	H	0.660984	-0.258371	0.024877
H96	H	0.696793	-0.331325	0.076533
H97	H	0.661117	-0.258294	0.128156
H98	H	1.039179	0.237476	0.555860
C99	C	0.555104	0.187046	-0.155357
C100	C	0.642861	0.187952	-0.154433
C101	C	0.670393	0.226956	-0.230293
H102	H	0.532001	0.239460	-0.155648
H103	H	0.537364	0.160464	-0.207157
H104	H	0.660592	0.214536	-0.102646
H105	H	0.665985	0.135550	-0.154154
H106	H	0.652653	0.200374	-0.282093
H107	H	0.647284	0.279367	-0.230578
H108	H	0.729938	0.227570	-0.229681
H109	H	0.857830	0.079081	0.555848
H110	H	0.452150	0.037542	0.134774
C111	C	1.163642	0.139549	0.435609
C112	C	1.162600	0.139437	0.342407
C113	C	1.242470	0.155389	0.310326
H114	H	1.203356	0.100409	0.456263
H115	H	1.178806	0.189598	0.456406
H116	H	1.147446	0.089394	0.321619
H117	H	1.122903	0.178576	0.321730
H118	H	1.257635	0.205439	0.331122
H119	H	1.282178	0.116247	0.330985
H120	H	1.241772	0.155322	0.247086
C121	C	1.169698	-0.686175	-0.000098
C122	C	1.169907	-0.733526	-0.076288
C123	C	1.242046	-0.783664	-0.076492
H124	H	1.170040	-0.718448	0.051473
H125	H	1.218154	-0.655787	-0.000142
H126	H	1.121464	-0.763911	-0.076237
H127	H	1.169578	-0.701274	-0.127871
H128	H	1.290502	-0.753276	-0.076535
H129	H	1.242382	-0.815932	-0.024917
H130	H	1.242202	-0.815792	-0.128189
H131	H	0.438170	0.243580	-0.000019
C132	C	0.881569	0.225298	0.435772
C133	C	0.904251	0.299136	0.465847
C134	C	0.846599	0.356954	0.433922
H135	H	0.827003	0.215134	0.456950
H136	H	0.881654	0.224603	0.372530
H137	H	0.904157	0.299829	0.529076
H138	H	0.958808	0.309324	0.444672
H139	H	0.846684	0.356260	0.370680
H140	H	0.792037	0.346783	0.455102
H141	H	0.861985	0.407061	0.454317
C142	C	0.853279	-0.647231	-0.000143
C143	C	0.809338	-0.621800	-0.076341
C144	C	0.729762	-0.653222	-0.076564
H145	H	0.823204	-0.630057	0.051422
H146	H	0.859184	-0.702977	-0.000188
H147	H	0.803429	-0.566066	-0.076288
H148	H	0.839387	-0.638972	-0.127919
H149	H	0.735667	-0.708968	-0.076609
H150	H	0.699694	-0.636046	-0.024996
H151	H	0.699940	-0.635978	-0.128267
C152	C	0.571290	-0.050275	0.000127
C153	C	0.544459	-0.089914	0.075853
C154	C	0.579766	-0.166724	0.075912
H155	H	0.630769	-0.048821	0.000699
H156	H	0.553948	-0.076950	-0.051773
H157	H	0.561807	-0.063245	0.127739
H158	H	0.484985	-0.091390	0.075296
H159	H	0.562424	-0.193400	0.024013
H160	H	0.639244	-0.165263	0.076483
H161	H	0.561560	-0.193631	0.127287
C162	C	1.118656	-0.010940	0.564144
C163	C	1.199079	0.005297	0.533917
C164	C	1.257151	-0.052245	0.565639
H165	H	1.104116	-0.061032	0.542930
H166	H	1.118044	-0.010886	0.627387
H167	H	1.199689	0.005234	0.470687
H168	H	1.213646	0.055379	0.555128
H169	H	1.256540	-0.052191	0.628883
H170	H	1.242603	-0.102333	0.544424
H171	H	1.311726	-0.041232	0.545142
H172	H	0.888296	-0.490782	0.000049
H173	H	1.163543	-0.524590	0.000096
