data_functionalizedCrystal
_audit_creation_method	'MofGen! by Chris Wilmer'
_symmetry_space_group_name_H-M	'P1'
_symmetry_Int_Tables_number	1
_symmetry_cell_setting	triclinic
loop_
_symmetry_equiv_pos_as_xyz
  x,y,z
_cell_length_a	10.654545
_cell_length_b	10.540558
_cell_length_c	9.730223
_cell_angle_alpha	89.997597
_cell_angle_beta	89.997167
_cell_angle_gamma	95.491903
loop_
_atom_site_label
_atom_site_type_symbol
_atom_site_fract_x
_atom_site_fract_y
_atom_site_fract_z
O1	O	1.667917	-0.178272	-0.114253
O2	O	1.302445	-0.195265	-0.114257
O3	O	1.493507	-0.002060	-0.114270
O4	O	1.476855	-0.371476	-0.114241
O5	O	1.493494	-0.002055	0.114310
O6	O	1.302432	-0.195260	0.114323
O7	O	1.667904	-0.178266	0.114327
Zn8	Zn	1.485166	-0.186762	0.150617
Zn9	Zn	1.485183	-0.186769	-0.150547
O10	O	1.476843	-0.371471	0.114339
C11	C	1.255640	-0.194016	0.000032
C12	C	1.116195	-0.190286	0.000030
C13	C	1.050683	-0.188528	0.124629
C14	C	0.919662	-0.185003	0.124629
C15	C	0.919676	-0.185000	-0.124581
C16	C	1.050696	-0.188516	-0.124580
C17	C	1.492247	0.045245	0.000014
C18	C	1.488496	0.186190	-0.000006
C19	C	1.345112	0.369562	-0.000538
C20	C	1.348915	0.222946	-0.000010
C21	C	1.555656	0.247876	0.130520
C22	C	1.550883	0.394417	0.130617
C23	C	1.553736	0.394930	-0.129322
C24	C	1.555031	0.247950	-0.131034
C25	C	1.714709	-0.179516	0.000034
C26	C	1.854154	-0.183245	0.000028
N27	N	1.485164	-0.186757	0.356153
C28	C	1.478086	0.581222	0.000031
C29	C	1.481787	0.440270	-0.000025
N30	N	1.485195	-0.186765	-0.356084
C31	C	1.569796	-0.101242	0.428073
C32	C	1.569808	-0.101242	0.571956
C33	C	1.400554	-0.272283	0.571986
C34	C	1.400537	-0.272276	0.428106
H35	H	1.104008	-0.189969	0.226094
H36	H	1.508564	0.426464	-0.228259
N37	N	1.661106	-0.009027	0.649529
H38	H	1.714717	0.045140	0.582110
H39	H	1.717057	-0.058175	0.709204
H40	H	1.654550	0.442194	-0.130202
N41	N	1.309281	-0.364519	0.649592
H42	H	1.322134	-0.351551	0.751654
H43	H	1.324590	-0.454711	0.624435
N44	N	1.309239	-0.364511	0.350534
H45	H	1.324507	-0.454750	0.375561
H46	H	1.322107	-0.351416	0.248493
N47	N	1.278930	0.166469	-0.123951
H48	H	1.206405	0.104413	-0.092787
H49	H	1.338267	0.120415	-0.182626
H50	H	1.289978	0.398139	-0.094146
H51	H	0.866328	-0.183571	0.226091
N52	N	1.661036	-0.008988	0.350450
H53	H	1.717073	-0.058006	0.290733
H54	H	1.714565	0.045177	0.417924
N55	N	0.849019	-0.183093	-0.258969
H56	H	0.785184	-0.260189	-0.264520
H57	H	0.910485	-0.184689	-0.337828
N58	N	1.121368	-0.190397	-0.258975
H59	H	1.059995	-0.188749	-0.337915
H60	H	1.166259	-0.270408	-0.264403
N61	N	1.272353	0.409530	0.122753
H62	H	1.266555	0.504565	0.119533
H63	H	1.317139	0.387053	0.209626
N64	N	1.278420	0.167598	0.124145
H65	H	1.244758	0.238459	0.178749
H66	H	1.337440	0.121830	0.183520
N67	N	1.485118	0.431762	0.259855
H68	H	1.459494	0.353064	0.316225
H69	H	1.407653	0.474819	0.234447
H70	H	1.505890	0.207071	-0.227594
H71	H	1.651263	0.442423	0.136535
H72	H	1.658160	0.225560	0.135376
H73	H	1.656797	0.223767	-0.138913
N74	N	1.493851	0.191415	0.259187
H75	H	1.402121	0.208260	0.260480
H76	H	1.537817	0.231731	0.342555
