data_functionalizedCrystal
_audit_creation_method	'MofGen! by Chris Wilmer'
_symmetry_space_group_name_H-M	'P1'
_symmetry_Int_Tables_number	1
_symmetry_cell_setting	triclinic
loop_
_symmetry_equiv_pos_as_xyz
  x,y,z
_cell_length_a	17.077404
_cell_length_b	19.121063
_cell_length_c	17.077396
_cell_angle_alpha	92.408800
_cell_angle_beta	89.980499
_cell_angle_gamma	92.469213
loop_
_atom_site_label
_atom_site_type_symbol
_atom_site_fract_x
_atom_site_fract_y
_atom_site_fract_z
Zn1	Zn	1.186697	-0.279610	-0.457152
Zn2	Zn	1.180993	-0.397067	-0.331476
Zn3	Zn	1.055428	-0.279634	-0.325901
Zn4	Zn	1.049788	-0.397025	-0.462698
O5	O	1.118227	-0.338334	-0.394307
O6	O	1.295787	-0.295198	-0.440493
O7	O	1.164310	-0.381517	-0.220891
O8	O	1.077589	-0.181347	-0.338657
O9	O	1.291597	-0.381493	-0.348160
O10	O	1.174032	-0.181328	-0.435086
O11	O	1.072058	-0.295240	-0.216795
O12	O	0.944833	-0.295199	-0.344035
O13	O	1.067976	-0.381422	-0.571808
O14	O	0.940690	-0.381446	-0.444539
O15	O	1.168563	-0.295157	-0.567733
O16	O	1.158841	-0.495346	-0.353538
O17	O	1.062445	-0.495315	-0.449946
C18	C	0.914279	-0.338321	-0.394284
C19	C	0.827029	-0.338333	-0.394294
C20	C	1.109434	-0.520815	-0.402966
C21	C	1.105744	-0.598881	-0.406696
C22	C	0.783899	-0.383309	-0.446550
C23	C	0.701918	-0.383311	-0.446562
C24	C	0.663069	-0.338339	-0.394315
C25	C	0.706206	-0.293358	-0.342057
C26	C	0.788185	-0.293353	-0.342049
C27	C	0.535335	-0.293371	-0.342077
C28	C	0.453350	-0.293377	-0.342084
C29	C	0.449068	-0.383329	-0.446590
C30	C	0.531047	-0.383324	-0.446582
C31	C	0.574178	-0.338344	-0.394323
C32	C	1.154237	-0.635549	-0.358296
C33	C	1.150772	-0.708900	-0.361809
C34	C	1.098808	-0.745582	-0.413719
C35	C	1.050312	-0.708908	-0.462125
C36	C	1.053782	-0.635558	-0.458615
C37	C	1.085821	-0.967052	-0.426830
C38	C	1.082353	-1.040407	-0.430334
C39	C	1.182814	-1.040393	-0.330019
C40	C	1.186276	-0.967042	-0.326511
C41	C	1.137783	-0.930375	-0.374919
C42	C	1.095262	-0.820559	-0.417310
C43	C	1.141333	-0.855399	-0.371332
C44	C	1.322970	-0.338347	-0.394329
C45	C	1.410220	-0.338353	-0.394339
C46	C	1.118277	-0.338282	-0.599049
C47	C	1.118298	-0.338260	-0.686297
C48	C	1.127075	-0.155141	-0.385631
C49	C	1.130846	-0.077075	-0.381934
C50	C	1.170675	-0.293338	-0.725167
C51	C	1.170686	-0.293315	-0.807146
C52	C	1.118322	-0.338217	-0.850255
C53	C	1.065939	-0.383141	-0.811380
C54	C	1.065925	-0.383160	-0.729402
C55	C	1.065973	-0.383099	-0.982248
C56	C	1.065987	-0.383081	-1.064232
C57	C	1.170733	-0.293254	-1.059992
C58	C	1.170720	-0.293273	-0.978014
C59	C	1.118337	-0.338198	-0.939145
C60	C	1.118224	-0.338335	-0.190359
C61	C	1.118365	-0.338159	-0.103101
H62	H	0.815523	-0.419933	-0.489093
H63	H	1.190260	-0.738752	-0.322396
H64	H	0.666805	-0.419935	-0.489113
Br65	Br	1.241827	-0.232287	-1.112742
Br66	Br	1.211858	-0.805616	-0.300890
H67	H	1.046335	-0.937203	-0.466244
H68	H	1.014295	-0.605704	-0.498029
H69	H	1.023346	-0.419643	-1.099329
H70	H	1.040047	-1.070271	-0.472619
H71	H	1.023306	-0.419670	-0.950603
Br72	Br	0.994868	-0.444077	-0.869883
Br73	Br	0.583770	-0.444365	-0.517482
H74	H	0.674569	-0.256738	-0.299520
H75	H	1.213318	-0.256776	-0.690074
Br76	Br	1.241792	-0.232340	-0.919510
Br77	Br	0.994834	-0.444124	-0.676649
Br78	Br	1.241808	-0.232380	-0.859896
Br79	Br	1.248625	-1.090159	-0.264330
Br80	Br	0.390536	-0.444365	-0.517523
Br81	Br	0.593869	-0.232324	-0.271155
Br82	Br	0.400627	-0.232348	-0.271171
H83	H	0.823301	-0.256725	-0.299501
H84	H	1.196548	-0.605687	-0.316022
Br85	Br	1.256811	-0.917264	-0.256069
Br86	Br	0.979795	-0.758690	-0.532582
Br87	Br	1.024743	-0.870347	-0.487759
