data_functionalizedCrystal
_audit_creation_method	'MofGen! by Chris Wilmer'
_symmetry_space_group_name_H-M	'P1'
_symmetry_Int_Tables_number	1
_symmetry_cell_setting	triclinic
loop_
_symmetry_equiv_pos_as_xyz
  x,y,z
_cell_length_a	18.101398
_cell_length_b	18.050589
_cell_length_c	18.101389
_cell_angle_alpha	89.985984
_cell_angle_beta	89.975673
_cell_angle_gamma	90.023488
loop_
_atom_site_label
_atom_site_type_symbol
_atom_site_fract_x
_atom_site_fract_y
_atom_site_fract_z
Zn1	Zn	1.132136	-0.295831	-0.418861
Zn2	Zn	1.132038	-0.420005	-0.295029
Zn3	Zn	1.008295	-0.295823	-0.295023
Zn4	Zn	1.008252	-0.419974	-0.418818
O5	O	1.070180	-0.357908	-0.356933
O6	O	1.235756	-0.312320	-0.402456
O7	O	1.115600	-0.403542	-0.191396
O8	O	1.024782	-0.191900	-0.311465
O9	O	1.235684	-0.403550	-0.311477
O10	O	1.115767	-0.191905	-0.402449
O11	O	1.024687	-0.312306	-0.191391
O12	O	0.904656	-0.312276	-0.311423
O13	O	1.024708	-0.403496	-0.522457
O14	O	0.904625	-0.403488	-0.402375
O15	O	1.115725	-0.312289	-0.522489
O16	O	1.115558	-0.523926	-0.311435
O17	O	1.024613	-0.523902	-0.402382
C18	C	0.877770	-0.357878	-0.356894
C19	C	0.795455	-0.357883	-0.356895
C20	C	0.496364	-0.357930	-0.356957
C21	C	0.527685	-0.300254	-0.300012
C22	C	0.613303	-0.300409	-0.299769
C23	C	0.644747	-0.357906	-0.356927
C24	C	0.613633	-0.436133	-0.335608
C25	C	0.527988	-0.435813	-0.335212
C26	C	0.527978	-0.338057	-0.435355
C27	C	0.613629	-0.336315	-0.434927
C28	C	0.728606	-0.357897	-0.356910
C29	C	0.412505	-0.357943	-0.356972
C30	C	1.070091	-0.550860	-0.356921
C31	C	1.070120	-0.633406	-0.356940
C32	C	1.020713	-0.832871	-0.406380
C33	C	1.002661	-0.882299	-0.338801
C34	C	1.070193	-0.784537	-0.356950
C35	C	1.088281	-0.882191	-0.424536
C36	C	1.070262	-0.930522	-0.356965
C37	C	1.052106	-0.832877	-0.289335
C38	C	1.137757	-0.832765	-0.375116
C39	C	1.119731	-0.882170	-0.307491
C40	C	1.070151	-0.700438	-0.356942
C41	C	1.070304	-1.014618	-0.356965
C42	C	1.263342	-0.357939	-0.356972
C43	C	1.345656	-0.357952	-0.356989
C44	C	1.070223	-0.357890	-0.550095
C45	C	1.070241	-0.357882	-0.632409
C46	C	1.070290	-0.164203	-0.356961
C47	C	1.070337	-0.081657	-0.356974
C48	C	1.070284	-0.357742	-0.931500
C49	C	1.012822	-0.414945	-0.900155
C50	C	1.012977	-0.415210	-0.814536
C51	C	1.070262	-0.357811	-0.783117
C52	C	1.148289	-0.379062	-0.814225
C53	C	1.147969	-0.379437	-0.899870
C54	C	1.050399	-0.279163	-0.899918
C55	C	1.048663	-0.279616	-0.814267
C56	C	1.070255	-0.357849	-0.699258
C57	C	1.070297	-0.357706	-1.015360
C58	C	1.070180	-0.357873	-0.164522
C59	C	1.070305	-0.357672	-0.082209
H60	H	0.633970	-0.278749	-0.451002
O61	O	1.200737	-0.330983	-0.789824
C62	C	1.203332	-0.332800	-0.711998
H63	H	1.180170	-0.387822	-0.691473
H64	H	1.168908	-0.285350	-0.688727
C65	C	1.312403	-0.256976	-0.711354
C66	C	1.283961	-0.324558	-0.686146
H67	H	1.362138	-0.251889	-0.695406
H68	H	1.310654	-0.255750	-0.763787
H69	H	1.283709	-0.217442	-0.691960
H70	H	1.312649	-0.364091	-0.705548
H71	H	1.285717	-0.325791	-0.633715
H72	H	0.994491	-0.259803	-0.921503
O73	O	0.502118	-0.271227	-0.458448
C74	C	0.424370	-0.273584	-0.462530
H75	H	0.402697	-0.319191	-0.424708
H76	H	0.406825	-0.285494	-0.521832
C77	C	0.419040	-0.142449	-0.484427
C78	C	0.392420	-0.198460	-0.437969
H79	H	0.399330	-0.096109	-0.469280
H80	H	0.471420	-0.140861	-0.481680
H81	H	0.404417	-0.152384	-0.533842
H82	H	0.407051	-0.188530	-0.388558
H83	H	0.340041	-0.200045	-0.440707
H84	H	0.635036	-0.375263	-0.479629
O85	O	1.100222	-0.228229	-0.924134
C86	C	1.063378	-0.172972	-0.965019
H87	H	1.002759	-0.171250	-0.948006
H88	H	1.067589	-0.186106	-1.026477
C89	C	1.173780	-0.099312	-0.970535
C90	C	1.099329	-0.097193	-0.949635
H91	H	1.195958	-0.052568	-0.961049
H92	H	1.198604	-0.136540	-0.942993
H93	H	1.177279	-0.110260	-1.021749
H94	H	1.095831	-0.086254	-0.898420
H95	H	1.074505	-0.059961	-0.977168
H96	H	0.945556	-0.904073	-0.323450
H97	H	0.507724	-0.380066	-0.477785
H98	H	0.954788	-0.401782	-0.920740
O99	O	0.637750	-0.315956	-0.230453
C100	C	0.680999	-0.256506	-0.204330
H101	H	0.665464	-0.203773	-0.235304
H102	H	0.741955	-0.269223	-0.213815
C103	C	0.685967	-0.310387	-0.083094
C104	C	0.666882	-0.245619	-0.121134
H105	H	0.677263	-0.303673	-0.031775
H106	H	0.656832	-0.350441	-0.100695
H107	H	0.736763	-0.320978	-0.091007
H108	H	0.616086	-0.235035	-0.113228
H109	H	0.696009	-0.205563	-0.103531
O110	O	0.970624	-0.807074	-0.456094
C111	C	0.899501	-0.832333	-0.436677
H112	H	0.898147	-0.846210	-0.375249
H113	H	0.885619	-0.884017	-0.470098
C114	C	0.844055	-0.754320	-0.528745
C115	C	0.842391	-0.771357	-0.453297
H116	H	0.808826	-0.716709	-0.539000
H117	H	0.891972	-0.737304	-0.541829
H118	H	0.832489	-0.797395	-0.556587
H119	H	0.853966	-0.728285	-0.425456
H120	H	0.794474	-0.788364	-0.440208
H121	H	1.194849	-0.810992	-0.390500
O122	O	0.980158	-0.260392	-0.790104
C123	C	0.961356	-0.190102	-0.818388
H124	H	0.995012	-0.178682	-0.870406
H125	H	0.973877	-0.145864	-0.775227
C126	C	0.837104	-0.202533	-0.773431
C127	C	0.878436	-0.188509	-0.837324
H128	H	0.785954	-0.201547	-0.785109
H129	H	0.849771	-0.249887	-0.754373
H130	H	0.847546	-0.165666	-0.737469
H131	H	0.868000	-0.225380	-0.873281
H132	H	0.865765	-0.141160	-0.856389
H133	H	1.164826	-0.436880	-0.919858
O134	O	1.106419	-0.907946	-0.492771
C135	C	1.054057	-0.882842	-0.544692
H136	H	1.025835	-0.830875	-0.522715
H137	H	1.010942	-0.927865	-0.554340
C138	C	1.127885	-0.928630	-0.645057
C139	C	1.093227	-0.864799	-0.618067
H140	H	1.152045	-0.917503	-0.690320
H141	H	1.163161	-0.945545	-0.610077
H142	H	1.091950	-0.966143	-0.653091
H143	H	1.129163	-0.827290	-0.610026
H144	H	1.057958	-0.847877	-0.653048
H145	H	0.634341	-0.242399	-0.313131
O146	O	1.033784	-0.807024	-0.221187
C147	C	1.033956	-0.728918	-0.222005
H148	H	1.025676	-0.708460	-0.281009
H149	H	1.089078	-0.707731	-0.200063
C150	C	0.981038	-0.724981	-0.100364
C151	C	0.970862	-0.699855	-0.172833
H152	H	0.942121	-0.707053	-0.070030
H153	H	0.980925	-0.777603	-0.099811
H154	H	1.026976	-0.707324	-0.082089
H155	H	0.924930	-0.717520	-0.191110
H156	H	0.970966	-0.647235	-0.173388
O157	O	0.943911	-0.399467	-0.789477
C158	C	0.893944	-0.453341	-0.815642
H159	H	0.925283	-0.506312	-0.829516
H160	H	0.865176	-0.431751	-0.867356
C161	C	0.797398	-0.404738	-0.738586
C162	C	0.835889	-0.469800	-0.755620
H163	H	0.761584	-0.414890	-0.701564
H164	H	0.831060	-0.368440	-0.720960
H165	H	0.773431	-0.386754	-0.781686
H166	H	0.859862	-0.487779	-0.712523
H167	H	0.802229	-0.506102	-0.773238
H168	H	1.025820	-0.472835	-0.921685
H169	H	1.161604	-0.903680	-0.265648
O170	O	1.028545	-0.484706	-0.790071
C171	C	0.969290	-0.511018	-0.746810
H172	H	0.916675	-0.480033	-0.762347
H173	H	0.981967	-0.501513	-0.685858
C174	C	1.023136	-0.632510	-0.741821
C175	C	0.958512	-0.594459	-0.760909
H176	H	1.016489	-0.683981	-0.750514
H177	H	1.063059	-0.614783	-0.770964
H178	H	1.033694	-0.624581	-0.691028
H179	H	0.947961	-0.602380	-0.811702
H180	H	0.918587	-0.612189	-0.731774
H181	H	0.507112	-0.242068	-0.313227
H182	H	0.506136	-0.313242	-0.242258
H183	H	0.635048	-0.453280	-0.278915
O184	O	0.637838	-0.488865	-0.383485
C185	C	0.608905	-0.558356	-0.362729
H186	H	0.556658	-0.549920	-0.328572
H187	H	0.651570	-0.589600	-0.328469
C188	C	0.654413	-0.613815	-0.474429
C189	C	0.590239	-0.603454	-0.432482
H190	H	0.642902	-0.641636	-0.517455
H191	H	0.673909	-0.566999	-0.488412
H192	H	0.689962	-0.639849	-0.445871
H193	H	0.554696	-0.577413	-0.461037
H194	H	0.570737	-0.650268	-0.418506
H195	H	1.165437	-0.435894	-0.792787
H196	H	1.192234	-0.339582	-0.920607
O197	O	0.504073	-0.456038	-0.266888
C198	C	0.460680	-0.520676	-0.272497
H199	H	0.475732	-0.551642	-0.325276
H200	H	0.399733	-0.504861	-0.274048
C201	C	0.456794	-0.532782	-0.140408
C202	C	0.475284	-0.570819	-0.205229
H203	H	0.465799	-0.563712	-0.098912
H204	H	0.486026	-0.489233	-0.136628
H205	H	0.406005	-0.519606	-0.141710
H206	H	0.526074	-0.583986	-0.203929
H207	H	0.446061	-0.614371	-0.209006
H208	H	1.087462	-0.234735	-0.792880
H209	H	0.507268	-0.480240	-0.374880
