data_functionalizedCrystal
_audit_creation_method	'MofGen! by Chris Wilmer'
_symmetry_space_group_name_H-M	'P1'
_symmetry_Int_Tables_number	1
_symmetry_cell_setting	triclinic
loop_
_symmetry_equiv_pos_as_xyz
  x,y,z
_cell_length_a	10.654545
_cell_length_b	27.732048
_cell_length_c	9.130313
_cell_angle_alpha	90.008822
_cell_angle_beta	90.002328
_cell_angle_gamma	83.562867
loop_
_atom_site_label
_atom_site_type_symbol
_atom_site_fract_x
_atom_site_fract_y
_atom_site_fract_z
O1	O	1.664988	0.067875	0.121802
O2	O	1.299237	0.074345	0.121810
O3	O	1.493472	0.000784	0.121778
O4	O	1.470753	0.141436	0.121835
O5	O	1.493461	0.000783	-0.121821
O6	O	1.299226	0.074344	-0.121789
O7	O	1.664978	0.067874	-0.121796
Cu8	Cu	1.482101	0.071109	-0.144035
Cu9	Cu	1.482114	0.071110	0.144049
O10	O	1.470742	0.141435	-0.121764
C11	C	1.252454	0.073870	0.000011
C12	C	1.113070	0.072450	0.000013
C13	C	1.047587	0.071781	-0.132774
C14	C	0.916624	0.070439	-0.132774
C15	C	0.916637	0.070437	0.132811
C16	C	1.047599	0.071775	0.132810
C17	C	1.492990	-0.017227	-0.000025
C18	C	1.491554	-0.070890	-0.000037
C19	C	1.597293	-0.409048	0.000036
C20	C	1.591965	-0.610740	0.000056
O21	O	1.688657	-0.641394	0.000118
N22	N	1.476792	-0.630581	0.000057
C23	C	1.362943	-0.599994	0.000063
O24	O	1.264858	-0.621498	0.000079
C25	C	1.368272	-0.398302	0.000053
C26	C	1.483453	-0.378465	0.000037
C27	C	1.712465	-0.389210	0.000021
C28	C	1.713796	-0.338790	0.000008
C29	C	1.599955	-0.308207	0.000010
C30	C	1.484784	-0.328045	0.000024
C31	C	1.254424	-0.367717	0.000069
C32	C	1.255766	-0.317291	0.000070
C33	C	1.370947	-0.297454	0.000054
C34	C	1.372274	-0.247042	0.000012
N35	N	1.487447	-0.227202	0.000011
C36	C	1.601288	-0.257784	0.000010
C37	C	1.360153	-0.705886	0.000065
C38	C	1.358820	-0.756308	0.000065
C39	C	1.587843	-0.767051	0.000061
C40	C	1.589175	-0.716627	0.000051
C41	C	1.475326	-0.686045	0.000064
C42	C	1.604074	-0.151898	-0.000019
C43	C	1.605394	-0.101473	-0.000038
C44	C	1.376372	-0.090735	-0.000027
C45	C	1.375050	-0.141155	-0.000015
C46	C	1.488912	-0.171736	-0.000007
O47	O	1.275634	-0.216360	-0.000034
O48	O	1.699358	-0.236272	0.000026
C49	C	1.595963	-0.459468	0.000049
C50	C	1.480791	-0.479306	0.000063
C51	C	1.366951	-0.448723	0.000064
C52	C	1.479459	-0.529728	0.000063
C53	C	1.593299	-0.560311	0.000062
C54	C	1.708473	-0.540470	0.000061
C55	C	1.709803	-0.490050	0.000048
C56	C	1.251777	-0.468563	0.000065
C57	C	1.250456	-0.518984	0.000077
C58	C	1.364296	-0.549567	0.000076
C59	C	1.711761	0.068349	0.000006
C60	C	1.851145	0.069769	0.000014
C61	C	1.471225	0.159445	0.000042
C62	C	1.472661	0.213109	0.000064
N63	N	1.482101	0.071107	-0.346658
C64	C	1.568143	0.038547	-0.576670
C65	C	1.568135	0.038547	-0.423333
C66	C	1.396078	0.103672	-0.423326
C67	C	1.396092	0.103673	-0.576660
N68	N	1.482123	0.071108	0.346672
H69	H	0.863314	0.069888	0.240929
H70	H	1.803595	-0.473904	0.000035
N71	N	1.723043	-0.081202	-0.000066
N72	N	1.749333	-0.054273	-0.102758
H73	H	1.832419	-0.039958	-0.102778
N74	N	1.308179	0.136926	-0.345010
N75	N	1.192133	0.135847	-0.362160
H76	H	1.130048	0.159332	-0.306852
N77	N	1.655998	0.005278	-0.345053
N78	N	1.655146	-0.039403	-0.362208
H79	H	1.717204	-0.062901	-0.306924
N80	N	1.114444	0.072476	-0.268429
N81	N	1.055954	0.071882	-0.386978
H82	H	1.103167	0.072374	-0.482791
N83	N	0.849757	0.069752	-0.268426
N84	N	0.908235	0.070351	-0.386976
H85	H	0.861012	0.069865	-0.482788
H86	H	1.100916	0.072319	0.240947
H87	H	1.326044	0.130191	-0.639080
N88	N	1.241166	-0.776569	0.000033
N89	N	1.164643	-0.767343	-0.102652
H90	H	1.081545	-0.781650	-0.102671
N91	N	1.720390	-0.183124	-0.000006
N92	N	1.823205	-0.165396	-0.000020
H93	H	1.905354	-0.187449	-0.000018
N94	N	1.656024	0.005280	-0.654963
N95	N	1.732821	-0.023790	-0.586492
H96	H	1.794892	-0.047286	-0.641782
H97	H	1.807588	-0.322643	0.000001
N98	N	1.828773	-0.420437	0.000030
N99	N	1.931585	-0.402708	0.000023
H100	H	2.013737	-0.424760	0.000020
H101	H	1.682965	-0.700480	0.000039
N102	N	1.135484	-0.437329	0.000087
N103	N	1.058665	-0.439358	0.102770
H104	H	0.976525	-0.417300	0.102781
H105	H	1.267438	-0.680990	0.000076
N106	N	1.704132	-0.798294	0.000035
N107	N	1.728935	-0.827635	-0.102647
H108	H	1.811060	-0.849703	-0.102661
N109	N	1.136766	-0.387971	0.000072
N110	N	1.060228	-0.378743	-0.102598
H111	H	0.977124	-0.393046	-0.102594
N112	N	1.139457	-0.286060	0.000101
N113	N	1.036636	-0.303783	0.000124
H114	H	0.954492	-0.281728	0.000147
H115	H	1.281261	-0.157307	-0.000043
H116	H	1.283686	-0.065825	-0.000031
H117	H	1.801166	-0.565380	0.000053
H118	H	1.156655	-0.535130	0.000077
