data_functionalizedCrystal
_audit_creation_method	'MofGen! by Chris Wilmer'
_symmetry_space_group_name_H-M	'P1'
_symmetry_Int_Tables_number	1
_symmetry_cell_setting	triclinic
loop_
_symmetry_equiv_pos_as_xyz
  x,y,z
_cell_length_a	14.044220
_cell_length_b	14.044220
_cell_length_c	8.140239
_cell_angle_alpha	89.995422
_cell_angle_beta	90.002157
_cell_angle_gamma	93.188878
loop_
_atom_site_label
_atom_site_type_symbol
_atom_site_fract_x
_atom_site_fract_y
_atom_site_fract_z
O1	O	1.277166	0.230166	-0.136445
O2	O	1.000494	0.221860	-0.136487
O3	O	1.134677	0.087677	-0.136450
O4	O	1.142983	0.364349	-0.136482
O5	O	1.134669	0.087675	0.136777
O6	O	1.000486	0.221858	0.136740
O7	O	1.277157	0.230164	0.136782
Zn8	Zn	1.138820	0.226010	0.180142
Zn9	Zn	1.138831	0.226013	-0.179847
O10	O	1.142974	0.364346	0.136746
C11	C	0.964868	0.218223	0.000122
C12	C	0.858725	0.207379	0.000106
C13	C	1.131037	0.052054	0.000163
C14	C	1.120193	-0.054088	0.000164
C15	C	0.664388	0.187553	0.000141
C16	C	0.613258	0.264467	0.000140
C17	C	0.505122	0.253435	0.000159
C18	C	0.772534	0.198583	0.000122
C19	C	1.100366	-0.248426	0.000137
C20	C	1.177281	-0.299556	0.000144
C21	C	1.166249	-0.407692	0.000129
C22	C	1.111397	-0.140280	0.000152
C23	C	1.312783	0.233800	0.000170
C24	C	1.418926	0.244645	0.000174
C25	C	1.146614	0.399969	0.000128
C26	C	1.157459	0.506112	0.000117
N27	N	1.138820	0.226008	0.425824
N28	N	1.138839	0.226009	-0.425529
H29	H	0.650697	0.338600	0.000123
H30	H	1.251414	-0.262117	0.000044
H31	H	0.626951	0.113425	0.000159
O32	O	1.002170	-0.298006	0.000148
H33	H	1.008808	-0.376391	0.000162
