data_functionalizedCrystal
_audit_creation_method	'MofGen! by Chris Wilmer'
_symmetry_space_group_name_H-M	'P1'
_symmetry_Int_Tables_number	1
_symmetry_cell_setting	triclinic
loop_
_symmetry_equiv_pos_as_xyz
  x,y,z
_cell_length_a	23.096457
_cell_length_b	14.628931
_cell_length_c	14.628931
_cell_angle_alpha	60.000164
_cell_angle_beta	89.998103
_cell_angle_gamma	59.998186
loop_
_atom_site_label
_atom_site_type_symbol
_atom_site_fract_x
_atom_site_fract_y
_atom_site_fract_z
Zr1	Zr	0.557777	1.000555	-0.119977
O2	O	0.465327	1.191263	-0.265934
O3	O	0.586118	0.809849	-0.075234
O4	O	0.586119	1.000554	-0.265939
O5	O	0.465327	1.000559	0.075202
O6	O	0.681401	1.000550	-0.265942
O7	O	0.465327	1.000559	-0.075229
O8	O	0.681400	0.659414	0.075194
O9	O	0.465328	1.341695	-0.265934
O10	O	0.669313	0.888286	-0.056153
O11	O	0.598205	0.888289	0.056115
O12	O	0.598206	1.112819	-0.168416
O13	O	0.527097	1.112822	-0.056148
Zr14	Zr	0.709741	1.000550	0.119939
Zr15	Zr	0.709742	1.000549	-0.119982
Zr16	Zr	0.557777	1.000556	0.119944
Zr17	Zr	0.557778	1.240476	-0.119977
Zr18	Zr	0.709741	0.760629	0.119938
O19	O	0.681401	1.191256	0.075195
O20	O	0.681401	1.191255	-0.265942
O21	O	0.465327	1.191264	0.075203
O22	O	0.802191	0.809842	0.265896
O23	O	0.802192	0.809841	-0.075241
O24	O	0.586118	0.809850	0.265903
O25	O	0.802192	1.000546	-0.075241
O26	O	0.681400	1.000552	0.265900
O27	O	0.586118	1.000555	0.265904
O28	O	0.802192	1.000547	0.075191
O29	O	0.586119	1.341690	-0.265938
O30	O	0.681400	0.659415	0.265900
O31	O	0.802191	0.659410	0.265896
O32	O	0.802191	0.659410	0.075190
O33	O	0.465327	1.341696	-0.075229
O34	O	0.586119	1.341691	-0.075233
O35	O	0.669313	0.888286	0.168378
O36	O	0.740421	0.888283	0.056110
O37	O	0.669314	1.112817	-0.056153
O38	O	0.598205	1.112820	0.056115
C39	C	0.633759	0.700448	-0.000020
C40	C	0.633759	0.598595	-0.000020
C41	C	0.583875	0.526680	-0.078776
C42	C	0.583874	0.631952	-0.078777
C43	C	0.443675	1.000560	-0.000013
C44	C	0.379162	1.000562	-0.000011
C45	C	0.348860	1.000571	-0.082890
C46	C	0.288247	1.000560	-0.082890
C47	C	0.257932	1.000565	-0.000019
C48	C	0.288244	1.000548	0.082875
C49	C	0.348860	1.000547	0.082879
N50	N	0.139580	1.073753	0.025070
N51	N	0.081997	1.073757	0.025060
C52	C	0.075303	1.000565	-0.000024
N53	N	0.128361	0.927386	-0.025119
N54	N	0.185947	0.927388	-0.025114
C55	C	0.192205	1.000565	-0.000013
C56	C	-0.020722	1.000560	-0.082908
C57	C	-0.081333	1.000540	-0.082901
C58	C	-0.081339	1.000542	0.082860
C59	C	-0.020725	1.000549	0.082857
C60	C	0.009578	1.000564	-0.000033
C61	C	0.823844	1.000545	-0.000026
C62	C	0.888356	1.000543	-0.000028
C63	C	0.633760	1.000552	-0.300124
C64	C	0.633760	1.000551	-0.401977
C65	C	0.633760	1.300657	-0.000019
C66	C	0.633760	1.402510	-0.000018
C67	C	0.598486	1.111935	-0.503076
C68	C	0.598485	1.111937	-0.608347
C69	C	0.633759	1.000553	0.300086
C70	C	0.633759	1.000554	0.401938
C71	C	0.823843	0.700441	-0.000026
C72	C	0.888356	0.598586	-0.000029
C73	C	0.633759	0.700449	0.300085
C74	C	0.633759	0.598596	0.401938
C75	C	0.823843	0.700442	0.300079
C76	C	0.888356	0.598587	0.401929
C77	C	0.443676	1.300664	-0.300117
C78	C	0.379163	1.402518	-0.401967
C79	C	0.443676	1.300664	-0.000012
C80	C	0.379163	1.402520	-0.000010
C81	C	0.633760	1.300656	-0.300123
C82	C	0.633760	1.402509	-0.401976
C83	C	0.881534	0.550755	-0.058640
C84	C	0.942145	0.455064	-0.058664
C85	C	1.009577	0.407200	-0.000071
C86	C	1.016397	0.455040	0.058543
C87	C	0.955787	0.550736	0.058560
C88	C	0.955775	0.550753	0.391156
C89	C	1.016398	0.455063	0.486847
C90	C	1.009598	0.407202	0.593308
C91	C	0.942171	0.455045	0.604079
C92	C	0.881551	0.550740	0.508390
C93	C	0.311743	1.450364	-0.391195
C94	C	0.251121	1.546084	-0.486885
C95	C	0.257920	1.593950	-0.593347
C96	C	0.325347	1.546101	-0.604117
C97	C	0.385968	1.450389	-0.508428
C98	C	0.385985	1.450361	0.058592
C99	C	0.325374	1.546078	0.058590
C100	C	0.257942	1.593945	-0.000008
C101	C	0.251122	1.546100	-0.058616
C102	C	0.311732	1.450391	-0.058620
C103	C	0.669033	0.553186	0.503037
C104	C	0.669033	0.447916	0.608308
H105	H	0.541164	0.555051	-0.146198
H106	H	0.196225	1.585026	-0.478094
Cl107	Cl	0.333965	1.606200	0.132281
H108	H	1.058966	0.329281	0.671215
H109	H	-0.106019	1.000538	0.150339
Cl110	Cl	0.933554	0.394936	-0.132350
Cl111	Cl	0.796770	0.610912	-0.132316
Cl112	Cl	0.551862	1.259168	-0.516395
H113	H	1.058923	0.329278	-0.000093
H114	H	0.699229	0.592248	0.511656
Cl115	Cl	1.101174	0.394849	0.132204
Cl116	Cl	0.303143	1.390251	-0.132290
H117	H	0.676465	0.374139	0.067412
H118	H	0.003953	1.000567	-0.150400
Cl119	Cl	0.587126	0.538310	0.388618
Cl120	Cl	0.551852	1.259173	-0.742249
H121	H	0.373533	1.000539	0.150371
Cl122	Cl	0.964342	0.610910	0.257330
H123	H	0.330875	1.585086	-0.690810
Cl124	Cl	0.680384	0.853313	-0.464163
Cl125	Cl	0.470722	1.390243	-0.521991
H126	H	0.826657	0.589674	0.517177
H127	H	0.196211	1.585089	-0.106324
Cl128	Cl	0.303177	1.390208	-0.257369
Cl129	Cl	0.680392	0.853318	-0.388658
H130	H	-0.106003	1.000540	-0.150389
H131	H	0.003947	1.000549	0.150341
Cl132	Cl	0.933636	0.394861	0.737925
H133	H	0.961351	0.589667	0.106295
Cl134	Cl	1.101154	0.394931	0.473281
H135	H	0.208553	1.671884	-0.671254
H136	H	0.676471	0.492117	0.067409
Cl137	Cl	0.181753	1.714264	0.000012
H138	H	0.699234	0.408863	0.695037
Cl139	Cl	0.517934	0.796351	-0.182890
H140	H	0.603562	0.441554	0.511296
H141	H	0.373532	1.000579	-0.150382
H142	H	0.263570	1.000567	-0.150382
Cl143	Cl	0.250138	1.000546	0.187061
Cl144	Cl	0.470749	1.390211	0.132260
