data_functionalizedCrystal
_audit_creation_method	'MofGen! by Chris Wilmer'
_symmetry_space_group_name_H-M	'P1'
_symmetry_Int_Tables_number	1
_symmetry_cell_setting	triclinic
loop_
_symmetry_equiv_pos_as_xyz
  x,y,z
_cell_length_a	19.188925
_cell_length_b	19.188930
_cell_length_c	18.266242
_cell_angle_alpha	89.993204
_cell_angle_beta	89.992706
_cell_angle_gamma	83.143665
loop_
_atom_site_label
_atom_site_type_symbol
_atom_site_fract_x
_atom_site_fract_y
_atom_site_fract_z
O1	O	0.926149	0.087146	-0.060905
O2	O	0.722838	0.098884	-0.060904
O3	O	0.830361	-0.008641	-0.060890
O4	O	0.818626	0.194671	-0.060919
O5	O	0.830347	-0.008637	0.060872
O6	O	0.722824	0.098888	0.060858
O7	O	0.926136	0.087150	0.060857
Zn8	Zn	0.824478	0.093019	0.080190
Zn9	Zn	0.824496	0.093015	-0.080237
O10	O	0.818613	0.194674	0.060843
C11	C	0.696820	0.098507	-0.000023
C12	C	0.619315	0.097367	-0.000022
C13	C	0.057545	0.152831	-0.000031
C14	C	0.130368	0.153908	-0.000035
C15	C	0.175302	0.090816	-0.000025
C16	C	0.147408	0.026642	-0.000030
C17	C	0.074586	0.025568	-0.000033
N18	N	0.295975	0.045141	0.041430
N19	N	0.365152	0.046166	0.041435
C20	C	0.394712	0.094050	-0.000017
N21	N	0.352479	0.140880	-0.041464
N22	N	0.283295	0.139857	-0.041465
C23	C	0.254267	0.091974	-0.000022
C24	C	0.501561	0.159386	-0.000022
C25	C	0.574385	0.160460	-0.000031
C26	C	0.591425	0.033193	-0.000018
C27	C	0.518601	0.032121	-0.000016
C28	C	0.473673	0.095220	-0.000015
C29	C	0.829974	-0.034650	-0.000007
C30	C	0.828833	-0.112154	-0.000001
C31	C	0.891924	-0.157079	0.000002
C32	C	0.890852	-0.229903	-0.000009
C33	C	0.826686	-0.257799	-0.000010
C34	C	0.763587	-0.212864	-0.000017
C35	C	0.764660	-0.140041	-0.000012
N36	N	0.777634	-0.365801	0.041429
N37	N	0.776619	-0.434980	0.041426
C38	C	0.823448	-0.477207	-0.000024
N39	N	0.871342	-0.447644	-0.041463
N40	N	0.872359	-0.378459	-0.041457
C41	C	0.825515	-0.336761	-0.000015
C42	C	0.885381	-0.601097	-0.000035
C43	C	0.884307	-0.673922	-0.000051
C44	C	0.757040	-0.656880	-0.000051
C45	C	0.758116	-0.584057	-0.000042
C46	C	0.822289	-0.556170	-0.000031
C47	C	0.952154	0.087527	-0.000026
C48	C	1.029658	0.088666	-0.000032
C49	C	0.819000	0.220684	-0.000041
C50	C	0.820140	0.298188	-0.000053
N51	N	0.824470	0.093022	0.189677
N52	N	0.824509	0.093006	-0.189724
C53	C	0.866723	0.135241	0.771947
C54	C	0.866716	0.135248	0.695302
C55	C	0.824502	0.093007	0.656989
C56	C	0.782279	0.050770	0.695328
C57	C	0.782283	0.050770	0.771972
N58	N	0.822811	0.031847	0.536660
N59	N	0.822812	0.031849	0.463852
C60	C	0.824489	0.093008	0.426067
N61	N	0.826178	0.154164	0.463841
N62	N	0.826181	0.154161	0.536656
C63	C	0.824494	0.093004	0.573882
C64	C	0.866697	0.135254	0.304630
C65	C	0.866685	0.135262	0.227984
C66	C	0.782253	0.050777	0.228012
C67	C	0.782261	0.050775	0.304657
C68	C	0.824487	0.093012	0.342961
H69	H	0.495896	-0.020129	-0.000012
H70	H	0.153078	0.206160	-0.000028
N71	N	0.912222	0.180817	0.186643
H72	H	0.946481	0.150328	0.154839
H73	H	0.881673	0.215068	0.154890
H74	H	0.704794	-0.679592	-0.000055
N75	N	0.736716	0.005222	0.186700
H76	H	0.743117	0.011632	0.132330
H77	H	0.750665	-0.045594	0.200099
H78	H	0.183999	-0.024728	-0.000023
N79	N	0.690067	-0.535596	-0.000042
H80	H	0.649254	-0.564316	-0.000043
H81	H	0.687736	-0.505018	0.045099
N82	N	0.736758	0.005204	0.813315
H83	H	0.743169	0.011611	0.867681
H84	H	0.685937	0.019127	0.799930
N85	N	0.044504	-0.043641	-0.000033
H86	H	0.084017	-0.083449	-0.000029
H87	H	0.014656	-0.046859	0.045107
N88	N	0.912231	0.180817	0.345946
H89	H	0.881730	0.215065	0.377749
H90	H	0.946496	0.150284	0.377698
H91	H	0.937635	-0.578390	-0.000029
H92	H	0.713282	-0.103462	-0.000015
H93	H	0.901105	0.169635	0.803130
N94	N	0.952359	-0.722381	-0.000051
H95	H	0.993171	-0.693661	-0.000040
H96	H	0.954674	-0.752974	0.045085
H97	H	0.942230	-0.266488	-0.000010
N98	N	0.912257	0.180800	0.653956
H99	H	0.946518	0.150307	0.622157
H100	H	0.881712	0.215049	0.622198
N101	N	0.453097	0.227438	-0.000029
H102	H	0.481816	0.268251	-0.000037
H103	H	0.422518	0.229760	-0.045168
N104	N	0.736751	0.005208	0.654011
H105	H	0.743157	0.011613	0.599641
H106	H	0.750704	-0.045606	0.667416
N107	N	0.009114	0.220902	0.000015
H108	H	0.018064	0.248935	-0.045107
H109	H	-0.041240	0.210459	0.000057
H110	H	0.597088	0.212713	-0.000036
H111	H	0.747889	0.016380	0.335865
H112	H	0.628010	-0.018178	-0.000015
H113	H	0.711342	-0.235581	-0.000019
N114	N	0.961136	-0.127001	0.000014
H115	H	1.000941	-0.166516	0.000014
H116	H	0.964361	-0.097152	-0.045123
