data_functionalizedCrystal
_audit_creation_method	'MofGen! by Chris Wilmer'
_symmetry_space_group_name_H-M	'P1'
_symmetry_Int_Tables_number	1
_symmetry_cell_setting	triclinic
loop_
_symmetry_equiv_pos_as_xyz
  x,y,z
_cell_length_a	14.044191
_cell_length_b	14.044190
_cell_length_c	14.586319
_cell_angle_alpha	89.991348
_cell_angle_beta	89.998893
_cell_angle_gamma	93.191777
loop_
_atom_site_label
_atom_site_type_symbol
_atom_site_fract_x
_atom_site_fract_y
_atom_site_fract_z
O1	O	1.277177	0.230199	-0.076215
O2	O	1.777177	0.730199	0.423785
O3	O	1.000504	0.221887	-0.076226
O4	O	1.500504	0.721887	0.423774
O5	O	1.134684	0.087707	-0.076203
O6	O	1.634684	0.587707	0.423797
O7	O	1.142997	0.364379	-0.076238
O8	O	1.642997	0.864379	0.423762
O9	O	1.134674	0.087704	0.076278
O10	O	1.634674	0.587704	0.576278
O11	O	1.000494	0.221884	0.076255
O12	O	1.500494	0.721884	0.576255
O13	O	1.277167	0.230196	0.076266
O14	O	1.777167	0.730196	0.576266
Cu15	Cu	1.138829	0.226040	0.090183
Cu16	Cu	1.638829	0.726040	0.590183
Cu17	Cu	1.138842	0.226043	-0.090143
Cu18	Cu	1.638842	0.726043	0.409857
O19	O	1.142987	0.364376	0.076242
O20	O	1.642987	0.864376	0.576242
C21	C	0.964877	0.218249	0.000013
C22	C	1.464877	0.718249	0.500013
C23	C	0.858734	0.207401	0.000010
C24	C	1.358734	0.707401	0.500010
C25	C	0.613277	0.264502	0.000012
C26	C	1.113277	0.764502	0.500012
C27	C	0.664400	0.187585	0.000020
C28	C	1.164400	0.687585	0.500020
C29	C	0.772537	0.198614	0.000014
C30	C	1.272537	0.698614	0.500014
C31	C	0.505130	0.253475	0.000017
C32	C	1.005130	0.753475	0.500017
C33	C	1.131043	0.052083	0.000040
C34	C	1.631043	0.552083	0.500040
C35	C	1.120195	-0.054060	0.000048
C36	C	1.620195	0.445940	0.500048
C37	C	1.177296	-0.299517	0.000014
C38	C	1.677296	0.200483	0.500014
C39	C	1.100379	-0.248394	0.000018
C40	C	1.600379	0.251606	0.500018
C41	C	1.111408	-0.140257	0.000034
C42	C	1.611408	0.359743	0.500034
C43	C	1.166269	-0.407664	-0.000003
C44	C	1.666269	0.092336	0.499997
C45	C	1.312794	0.233834	0.000024
C46	C	1.812794	0.733834	0.500024
C47	C	1.418937	0.244682	0.000022
C48	C	1.918937	0.744682	0.500022
C49	C	1.146628	0.400000	-0.000003
C50	C	1.646628	0.900000	0.499997
C51	C	1.157476	0.506143	-0.000016
C52	C	1.657476	1.006143	0.499984
N53	N	1.138828	0.226037	0.217015
N54	N	1.638828	0.726037	0.717015
N55	N	1.138850	0.226039	-0.216975
N56	N	1.638850	0.726039	0.283025
C57	C	1.198266	0.166646	0.452032
C58	C	1.698266	0.666646	0.952032
C59	C	1.198268	0.166644	0.548013
C60	C	1.698268	0.666644	1.048013
C61	C	1.079405	0.285433	0.548002
C62	C	1.579405	0.785433	1.048002
C63	C	1.079399	0.285429	0.452022
C64	C	1.579399	0.785429	0.952022
C65	C	1.138834	0.226037	0.404040
C66	C	1.638834	0.726037	0.904040
C67	C	1.138844	0.226039	0.596000
C68	C	1.638844	0.726039	1.096000
C69	C	1.138846	0.226037	0.700067
C70	C	1.638846	0.726037	1.200067
C71	C	1.138831	0.226038	0.299966
C72	C	1.638831	0.726038	0.799966
H73	H	0.650720	0.338629	-0.000001
H74	H	1.150720	0.838629	0.499999
H75	H	1.246661	0.118284	0.412966
H76	H	1.746661	0.618284	0.912966
F77	F	1.261521	0.103430	0.599086
F78	F	1.761521	0.603430	1.099086
H79	H	1.251423	-0.262074	0.000027
H80	H	1.751423	0.237926	0.500027
F81	F	1.016136	0.348641	0.400941
F82	F	1.516136	0.848641	0.900941
H83	H	1.031016	0.333790	0.587079
H84	H	1.531016	0.833790	1.087079
F85	F	0.615459	0.090688	0.000033
F86	F	1.115459	0.590688	0.500033
F87	F	1.003482	-0.297335	0.000011
F88	F	1.503482	0.202665	0.500011
