data_functionalizedCrystal
_audit_creation_method	'MofGen! by Chris Wilmer'
_symmetry_space_group_name_H-M	'P1'
_symmetry_Int_Tables_number	1
_symmetry_cell_setting	triclinic
loop_
_symmetry_equiv_pos_as_xyz
  x,y,z
_cell_length_a	16.120530
_cell_length_b	16.120444
_cell_length_c	12.759393
_cell_angle_alpha	87.136376
_cell_angle_beta	92.919000
_cell_angle_gamma	90.168401
loop_
_atom_site_label
_atom_site_type_symbol
_atom_site_fract_x
_atom_site_fract_y
_atom_site_fract_z
Zn1	Zn	1.254488	-0.395548	0.699372
Zn2	Zn	1.754488	0.104452	1.199372
Zn3	Zn	1.247323	-0.534623	0.532106
Zn4	Zn	1.747323	-0.034623	1.032106
Zn5	Zn	1.115422	-0.388531	0.514378
Zn6	Zn	1.615422	0.111469	1.014378
Zn7	Zn	1.108338	-0.527502	0.698413
Zn8	Zn	1.608338	-0.027502	1.198413
O9	O	1.181393	-0.461551	0.611067
O10	O	1.681393	0.038449	1.111067
O11	O	1.369903	-0.419914	0.685005
O12	O	1.869903	0.080086	1.185005
O13	O	1.229793	-0.515287	0.382734
O14	O	1.729793	-0.015287	0.882734
O15	O	1.139832	-0.273099	0.531900
O16	O	1.639832	0.226901	1.031900
O17	O	1.364639	-0.522091	0.562115
O18	O	1.864639	-0.022091	1.062115
O19	O	1.242003	-0.278254	0.667814
O20	O	1.742003	0.221746	1.167814
O21	O	1.132885	-0.407954	0.369709
O22	O	1.632885	0.092046	0.869709
O23	O	0.998116	-0.401049	0.530970
O24	O	1.498116	0.098951	1.030970
O25	O	1.127758	-0.509955	0.845560
O26	O	1.627758	-0.009955	1.345560
O27	O	0.992912	-0.503150	0.666179
O28	O	1.492912	-0.003150	1.166179
O29	O	1.235134	-0.413009	0.846265
O30	O	1.735134	0.086991	1.346265
O31	O	1.222923	-0.650041	0.561185
O32	O	1.722923	-0.150041	1.061185
O33	O	1.120811	-0.644809	0.683370
O34	O	1.620811	-0.144809	1.183370
C35	C	0.965342	-0.450566	0.596547
C36	C	1.465342	0.049434	1.096547
C37	C	0.872913	-0.445887	0.590362
C38	C	1.372913	0.054113	1.090362
C39	C	1.170344	-0.677598	0.624121
C40	C	1.670344	-0.177598	1.124121
C41	C	1.165693	-0.770028	0.629746
C42	C	1.665693	-0.270028	1.129746
C43	C	1.205722	-0.983005	0.582127
C44	C	1.705722	-0.483005	1.082127
C45	C	1.157217	-0.939253	0.640028
C46	C	1.657217	-0.439253	1.140028
C47	C	1.161935	-0.845088	0.634306
C48	C	1.661935	-0.345088	1.134306
C49	C	1.201006	-1.077180	0.587849
C50	C	1.701006	-0.577180	1.087849
C51	C	0.703686	-0.437324	0.579076
C52	C	1.203686	0.062676	1.079076
C53	C	0.659937	-0.485839	0.643138
C54	C	1.159937	0.014161	1.143138
C55	C	0.565773	-0.481075	0.636859
C56	C	1.065773	0.018925	1.136859
C57	C	0.797858	-0.442087	0.585354
C58	C	1.297858	0.057913	1.085354
C59	C	1.398287	-0.472579	0.625645
C60	C	1.898287	0.027421	1.125645
C61	C	1.490715	-0.477279	0.631856
C62	C	1.990715	0.022721	1.131856
C63	C	1.181455	-0.461470	0.885100
C64	C	1.681455	0.038530	1.385100
C65	C	1.181482	-0.461436	1.001876
C66	C	1.681482	0.038564	1.501876
C67	C	1.192507	-0.244662	0.597986
C68	C	1.692507	0.255338	1.097986
C69	C	1.197244	-0.152236	0.592412
C70	C	1.697244	0.347764	1.092412
C71	C	1.181381	-0.461574	0.338101
C72	C	1.681381	0.038426	0.838101
C73	C	1.181528	-0.461382	0.221322
C74	C	1.681528	0.038618	0.721322
C75	C	1.237400	-0.410951	1.057107
C76	C	1.737400	0.089049	1.557107
C77	C	1.237421	-0.410922	1.166830
C78	C	1.737421	0.089078	1.666830
C79	C	1.125603	-0.511869	1.166083
C80	C	1.625603	-0.011869	1.666083
C81	C	1.125579	-0.511893	1.056361
C82	C	1.625579	-0.011893	1.556361
C83	C	1.301960	-0.352673	1.057539
C84	C	1.801960	0.147327	1.557539
C85	C	1.301981	-0.352644	1.167263
C86	C	1.801981	0.147356	1.667263
H87	H	1.112148	-0.972517	0.693896
H88	H	1.612148	-0.472517	1.193896
N89	N	1.068509	-0.563418	1.221735
N90	N	1.568509	-0.063418	1.721735
N91	N	1.070079	-0.640431	1.214473
N92	N	1.570079	-0.140431	1.714473
H93	H	1.029752	-0.676838	1.253774
H94	H	1.529752	-0.176838	1.753774
H95	H	0.670423	-0.392215	0.519519
H96	H	1.170423	0.107785	1.019519
H97	H	0.693201	-0.530951	0.702701
H98	H	1.193201	-0.030951	1.202701
H99	H	1.250787	-0.949745	0.528262
H100	H	1.750787	-0.449745	1.028262
N101	N	1.068443	-0.563454	0.999958
N102	N	1.568443	-0.063454	1.499958
N103	N	1.018536	-0.608497	1.048620
N104	N	1.518536	-0.108497	1.548620
H105	H	0.978179	-0.644914	1.008787
H106	H	1.478179	-0.144914	1.508787
N107	N	1.377211	-0.385533	1.021753
N108	N	1.877211	0.114467	1.521753
N109	N	1.433585	-0.410119	1.086707
N110	N	1.933585	0.089881	1.586707
H111	H	1.486731	-0.433329	1.061434
H112	H	1.986731	0.066671	1.561434
N113	N	1.276879	-0.274459	1.203412
N114	N	1.776879	0.225541	1.703412
N115	N	1.273693	-0.264690	1.299694
N116	N	1.773693	0.235310	1.799694
H117	H	1.255916	-0.209490	1.325226
H118	H	1.755916	0.290510	1.825226
H119	H	1.288009	-0.287400	1.022728
H120	H	1.788009	0.212600	1.522728
H121	H	1.365507	-0.373162	1.202409
H122	H	1.865507	0.126838	1.702409
