data_functionalizedCrystal
_audit_creation_method	'MofGen! by Chris Wilmer'
_symmetry_space_group_name_H-M	'P1'
_symmetry_Int_Tables_number	1
_symmetry_cell_setting	triclinic
loop_
_symmetry_equiv_pos_as_xyz
  x,y,z
_cell_length_a	12.837943
_cell_length_b	12.837942
_cell_length_c	9.730223
_cell_angle_alpha	89.996108
_cell_angle_beta	89.997877
_cell_angle_gamma	94.828940
loop_
_atom_site_label
_atom_site_type_symbol
_atom_site_fract_x
_atom_site_fract_y
_atom_site_fract_z
O1	O	1.402334	0.272140	-0.114264
O2	O	1.099200	0.258697	-0.114272
O3	O	1.244046	0.113851	-0.114260
O4	O	1.257489	0.416985	-0.114276
O5	O	1.244035	0.113846	0.114320
O6	O	1.099190	0.258691	0.114308
O7	O	1.402323	0.272135	0.114316
Zn8	Zn	1.250755	0.265412	0.150604
Zn9	Zn	1.250769	0.265419	-0.150560
O10	O	1.257478	0.416980	0.114303
C11	C	1.060126	0.254153	0.000017
C12	C	0.943711	0.240608	0.000014
C13	C	1.239499	0.074780	0.000029
C14	C	1.225954	-0.041635	0.000027
C15	C	0.718837	0.403437	0.000025
C16	C	0.609454	0.390716	0.000023
C17	C	0.615562	0.202445	0.000018
C18	C	0.724944	0.215166	0.000020
C19	C	0.776578	0.315666	0.000021
C20	C	0.885962	0.328386	0.000013
C21	C	0.892067	0.140116	0.000018
C22	C	0.782685	0.127395	0.000017
C23	C	1.388784	-0.266510	0.000002
C24	C	1.376062	-0.375892	-0.000000
C25	C	1.187791	-0.369785	0.000009
C26	C	1.200513	-0.260402	0.000011
C27	C	1.301012	-0.208769	0.000010
C28	C	1.313732	-0.099384	0.000023
C29	C	1.125462	-0.093279	0.000022
C30	C	1.112741	-0.202661	0.000019
C31	C	1.441398	0.276679	0.000024
C32	C	1.557813	0.290223	0.000018
C33	C	1.262025	0.456052	0.000011
C34	C	1.275569	0.572467	0.000005
N35	N	1.250753	0.265407	0.356140
N36	N	1.250778	0.265416	-0.356097
C37	C	1.314917	0.201302	0.428072
C38	C	1.314928	0.201303	0.571954
C39	C	1.186607	0.329524	0.571962
C40	C	1.186592	0.329517	0.428082
H41	H	0.928000	0.410218	0.000016
H42	H	1.367175	0.149102	0.630517
H43	H	1.367159	0.149099	0.369500
C44	C	1.116031	0.400038	0.651111
N45	N	1.062872	0.453151	0.710725
C46	C	1.499332	-0.209710	0.000009
N47	N	1.582600	-0.166930	0.000011
H48	H	0.760878	0.485268	0.000023
H49	H	1.395564	-0.057346	0.000027
C50	C	0.725875	0.016851	0.000014
N51	N	0.683087	-0.066413	0.000006
H52	H	1.134336	0.381719	0.369511
H53	H	1.447536	-0.422901	-0.000011
C54	C	0.558745	0.091904	0.000032
N55	N	0.515950	0.008643	0.000044
H56	H	0.562446	0.462189	0.000029
H57	H	0.939092	0.068646	0.000006
C58	C	1.077250	-0.426601	0.000023
N59	N	0.993990	-0.469396	0.000044
C60	C	1.002197	-0.259471	0.000037
N61	N	0.918933	-0.302259	0.000060
H62	H	1.053992	-0.046254	0.000040
