data_functionalizedCrystal
_audit_creation_method	'MofGen! by Chris Wilmer'
_symmetry_space_group_name_H-M	'P1'
_symmetry_Int_Tables_number	1
_symmetry_cell_setting	triclinic
loop_
_symmetry_equiv_pos_as_xyz
  x,y,z
_cell_length_a	10.654549
_cell_length_b	9.798715
_cell_length_c	10.654550
_cell_angle_alpha	89.996755
_cell_angle_beta	95.515146
_cell_angle_gamma	90.002689
loop_
_atom_site_label
_atom_site_type_symbol
_atom_site_fract_x
_atom_site_fract_y
_atom_site_fract_z
O1	O	1.667840	0.113459	-0.176394
O2	O	1.302362	0.113469	-0.193201
O3	O	1.493504	0.113455	-0.002058
O4	O	1.476698	0.113473	-0.367537
O5	O	1.493490	-0.113527	-0.002057
O6	O	1.302347	-0.113513	-0.193200
O7	O	1.667826	-0.113523	-0.176393
Zn8	Zn	1.485084	-0.149556	-0.184796
Zn9	Zn	1.485103	0.149502	-0.184798
O10	O	1.476684	-0.113509	-0.367536
C11	C	1.255557	-0.000021	-0.191966
C12	C	1.116113	-0.000018	-0.188275
N13	N	1.485081	-0.353656	-0.184794
C14	C	0.905599	-0.000018	-0.297338
C15	C	1.036619	-0.000010	-0.300816
C16	C	1.064581	-0.000020	-0.072247
C17	C	0.933563	-0.000019	-0.068770
C18	C	1.558323	-0.421432	-0.257630
C19	C	1.558343	-0.578595	-0.257629
C20	C	1.714631	-0.000030	-0.177628
C21	C	1.854074	-0.000025	-0.181319
C22	C	1.492263	-0.000035	0.044740
C23	C	1.488571	-0.000033	0.184183
N24	N	1.485117	0.353602	-0.184790
C25	C	1.477925	-0.000016	-0.414334
C26	C	1.481617	-0.000009	-0.553777
C27	C	1.601113	-0.000035	0.263669
C28	C	1.597636	-0.000019	0.394690
C29	C	1.369067	-0.000003	0.366727
C30	C	1.372544	-0.000010	0.235708
H31	H	0.840882	-0.000022	-0.388983
H32	H	1.695589	-0.000051	0.221722
H33	H	1.280894	-0.000004	0.170987
H34	H	1.078563	-0.000003	-0.395290
H35	H	1.689279	-0.000018	0.459403
H36	H	1.621019	-0.363106	-0.319984
H37	H	1.274601	0.000014	0.408694
C38	C	1.228163	0.116647	0.056437
C39	C	1.151963	-0.000029	0.051460
H40	H	1.282112	0.116631	0.132807
H41	H	1.176477	0.195788	0.053053
H42	H	1.277594	0.116634	-0.013166
H43	H	1.102526	-0.000011	0.121058
H44	H	1.203655	-0.079191	0.054857
H45	H	0.891613	-0.000020	0.025712
H46	H	1.621042	-0.636881	-0.319993
H47	H	1.422402	-0.588121	-0.122435
H48	H	1.422393	-0.411983	-0.122432
