data_functionalizedCrystal
_audit_creation_method	'MofGen! by Chris Wilmer'
_symmetry_space_group_name_H-M	'P1'
_symmetry_Int_Tables_number	1
_symmetry_cell_setting	triclinic
loop_
_symmetry_equiv_pos_as_xyz
  x,y,z
_cell_length_a	16.120490
_cell_length_b	12.645330
_cell_length_c	16.120297
_cell_angle_alpha	87.125115
_cell_angle_beta	89.870317
_cell_angle_gamma	87.105131
loop_
_atom_site_label
_atom_site_type_symbol
_atom_site_fract_x
_atom_site_fract_y
_atom_site_fract_z
Zn1	Zn	1.247526	-0.537168	0.534551
Zn2	Zn	1.254502	-0.705931	0.395499
Zn3	Zn	1.115513	-0.519245	0.388472
Zn4	Zn	1.108457	-0.704945	0.527472
O5	O	1.181500	-0.616823	0.461498
O6	O	1.364820	-0.567469	0.522009
O7	O	1.241937	-0.674079	0.278201
O8	O	1.133058	-0.373279	0.407872
O9	O	1.369944	-0.691458	0.419848
O10	O	1.230048	-0.386447	0.515196
O11	O	1.139822	-0.536922	0.273038
O12	O	0.998209	-0.535965	0.401007
O13	O	1.121033	-0.689777	0.644777
O14	O	0.993025	-0.672398	0.503129
O15	O	1.223206	-0.566512	0.649978
O16	O	1.235095	-0.854144	0.412983
O17	O	1.127797	-0.853419	0.509943
C18	C	0.965444	-0.602130	0.450538
C19	C	0.873014	-0.595872	0.445869
C20	C	0.660060	-0.649279	0.485720
C21	C	0.703787	-0.584455	0.437343
C22	C	0.797954	-0.590809	0.442088
C23	C	0.565885	-0.642926	0.480976
C24	C	1.181459	-0.892248	0.461477
C25	C	1.181516	-1.010083	0.461499
C26	C	1.248921	-1.178044	0.400366
C27	C	1.249122	-1.055508	0.400534
C28	C	1.200837	-1.061450	0.550355
C29	C	1.201363	-1.184062	0.550039
C30	C	1.094722	-1.170067	0.434638
C31	C	1.095243	-1.047371	0.432694
C32	C	1.398399	-0.631573	0.472502
C33	C	1.490828	-0.637859	0.477191
C34	C	1.170554	-0.630034	0.678393
C35	C	1.165890	-0.635664	0.770821
C36	C	1.181562	-0.340324	0.461540
C37	C	1.181589	-0.222497	0.461557
C38	C	1.192450	-0.603589	0.245450
C39	C	1.197275	-0.597672	0.153031
C40	C	1.157344	-0.645917	0.940046
C41	C	1.205819	-0.587421	0.983811
C42	C	1.201064	-0.593126	1.077974
C43	C	1.162098	-0.640214	0.845875
H44	H	1.237549	-1.020513	0.334788
H45	H	1.154226	-1.213743	0.597443
O46	O	0.659698	-0.504632	0.377752
H47	H	0.675578	-0.423427	0.392941
H48	H	0.693342	-0.709545	0.530697
O49	O	1.097643	-0.717925	0.984085
H50	H	1.112706	-0.801108	0.968194
H51	H	1.153095	-1.032253	0.597360
H52	H	1.313009	-1.214077	0.418340
O53	O	1.234348	-1.211461	0.313189
H54	H	1.178895	-1.259993	0.312518
H55	H	1.313551	-1.031436	0.418692
H56	H	1.080595	-1.013205	0.367282
H57	H	1.264726	-1.218108	0.572324
H58	H	1.250891	-0.533056	0.950561
O59	O	1.283789	-1.027980	0.580250
H60	H	1.311384	-0.974793	0.531975
H61	H	1.076295	-1.195761	0.370741
O62	O	1.025674	-1.005826	0.486919
H63	H	1.051619	-0.957745	0.535468
H64	H	1.044609	-1.198709	0.479152
