data_functionalizedCrystal
_audit_creation_method	'MofGen! by Chris Wilmer'
_symmetry_space_group_name_H-M	'P1'
_symmetry_Int_Tables_number	1
_symmetry_cell_setting	triclinic
loop_
_symmetry_equiv_pos_as_xyz
  x,y,z
_cell_length_a	19.121102
_cell_length_b	19.120785
_cell_length_c	12.759401
_cell_angle_alpha	92.457337
_cell_angle_beta	92.444390
_cell_angle_gamma	89.914030
loop_
_atom_site_label
_atom_site_type_symbol
_atom_site_fract_x
_atom_site_fract_y
_atom_site_fract_z
Zn1	Zn	1.059767	-0.325035	0.640813
Zn2	Zn	1.054710	-0.442249	0.457309
Zn3	Zn	0.942559	-0.320017	0.457994
Zn4	Zn	0.937501	-0.437230	0.625791
O5	O	0.998634	-0.381133	0.545477
O6	O	1.157201	-0.344784	0.622471
O7	O	1.039833	-0.426035	0.310378
O8	O	0.962339	-0.222574	0.488819
O9	O	1.153485	-0.430901	0.487651
O10	O	1.048452	-0.226261	0.623136
O11	O	0.957436	-0.336231	0.310882
O12	O	0.843783	-0.331365	0.474252
O13	O	0.953720	-0.422347	0.774804
O14	O	0.840068	-0.417480	0.597532
O15	O	1.043548	-0.339918	0.785842
O16	O	1.034929	-0.539691	0.473084
O17	O	0.948817	-0.536004	0.596867
C18	C	0.816488	-0.373334	0.534337
C19	C	0.738565	-0.370014	0.529595
C20	C	0.990794	-0.563287	0.533295
C21	C	0.987505	-0.641216	0.528123
C22	C	0.966633	-1.081873	0.495394
C23	C	0.969725	-1.008651	0.500254
C24	C	1.016075	-0.973898	0.572666
C25	C	1.059330	-1.012372	0.640230
C26	C	1.056234	-1.085593	0.635375
C27	C	1.027663	-0.752911	0.590832
C28	C	1.030758	-0.679685	0.595680
C29	C	0.941151	-0.675968	0.455704
C30	C	0.938062	-0.749191	0.450851
C31	C	0.981314	-0.787658	0.518419
C32	C	1.019239	-0.899053	0.577633
C33	C	0.978147	-0.862502	0.513456
C34	C	0.700037	-0.413358	0.591442
C35	C	0.626820	-0.410230	0.586992
C36	C	0.592132	-0.363761	0.520688
C37	C	0.630665	-0.320412	0.458839
C38	C	0.703881	-0.323537	0.463295
C39	C	0.371163	-0.352075	0.504033
C40	C	0.297942	-0.348955	0.499579
C41	C	0.294102	-0.438772	0.627734
C42	C	0.367320	-0.441896	0.632180
C43	C	0.405846	-0.398545	0.570335
C44	C	0.517292	-0.360564	0.516136
C45	C	0.480685	-0.401739	0.574893
C46	C	1.181491	-0.388962	0.556661
C47	C	1.259414	-0.392299	0.561427
C48	C	0.998634	-0.381132	0.819510
C49	C	0.998634	-0.381132	0.936286
C50	C	1.006524	-0.198268	0.557730
C51	C	1.009886	-0.120342	0.562951
C52	C	1.045404	-0.338221	0.996896
C53	C	1.045401	-0.338224	1.106620
C54	C	0.951856	-0.424054	1.095114
C55	C	0.951857	-0.424047	0.985392
C56	C	1.092181	-0.295305	0.947791
C57	C	1.138955	-0.252391	1.008401
C58	C	1.138952	-0.252394	1.118125
C59	C	1.092175	-0.295311	1.167238
C60	C	0.998629	-0.381147	1.272508
C61	C	0.998631	-0.381141	1.155732
H62	H	0.928892	-1.110163	0.436424
H63	H	1.091450	-1.116914	0.690395
H64	H	0.728275	-0.451201	0.645430
N65	N	1.092198	-0.295298	0.835713
N66	N	1.133967	-0.256982	0.791878
H67	H	1.133980	-0.256978	0.712723
N68	N	1.106675	-0.976891	0.714216
N69	N	1.101629	-0.984848	0.810326
H70	H	1.135069	-0.959793	0.862581
H71	H	1.068505	-0.651393	0.654650
N72	N	0.595223	-0.272943	0.391125
N73	N	0.529852	-0.270158	0.387153
H74	H	0.504821	-0.236633	0.339327
H75	H	0.913763	-0.458978	0.936042
H76	H	0.595454	-0.445526	0.637354
N77	N	1.186741	-0.208563	0.958238
N78	N	1.251229	-0.215987	0.974141
H79	H	1.284980	-0.185032	0.938715
N80	N	0.481856	-0.313092	0.448420
N81	N	0.442927	-0.266713	0.485999
H82	H	0.417898	-0.233184	0.438177
H83	H	1.177032	-0.217446	1.167471
H84	H	0.934504	-0.977329	0.445244
N85	N	0.930816	-0.898013	0.439489
N86	N	0.953802	-0.939930	0.371387
H87	H	0.920378	-0.965019	0.319144
H88	H	0.900320	-0.777481	0.391883
N89	N	0.896978	-0.636663	0.386697
N90	N	0.899747	-0.571288	0.391037
H91	H	0.868547	-0.543528	0.342299
N92	N	1.071845	-0.792187	0.659860
N93	N	1.113225	-0.761147	0.724507
H94	H	1.144430	-0.788888	0.773263
N95	N	1.066575	-0.863534	0.651590
N96	N	1.112986	-0.824547	0.620125
H97	H	1.146412	-0.799455	0.672361
N98	N	0.402740	-0.489370	0.699911
N99	N	0.368331	-0.528067	0.755128
H100	H	0.393345	-0.561598	0.802962
H101	H	0.262726	-0.474065	0.678087
H102	H	0.269701	-0.311106	0.445594
H103	H	0.913773	-0.458995	1.135111
N104	N	0.410500	-0.307794	0.440848
N105	N	0.379517	-0.266312	0.381648
H106	H	0.407300	-0.235038	0.337017
N107	N	0.743228	-0.279251	0.400123
N108	N	0.712250	-0.237760	0.340932
H109	H	0.740038	-0.206477	0.296319
N110	N	0.516126	-0.449207	0.642603
N111	N	0.555059	-0.495580	0.605016
H112	H	0.580096	-0.529107	0.652832
H113	H	1.092168	-0.295301	1.256583
