data_functionalizedCrystal
_audit_creation_method	'MofGen! by Chris Wilmer'
_symmetry_space_group_name_H-M	'P1'
_symmetry_Int_Tables_number	1
_symmetry_cell_setting	triclinic
loop_
_symmetry_equiv_pos_as_xyz
  x,y,z
_cell_length_a	14.519709
_cell_length_b	14.519731
_cell_length_c	7.088929
_cell_angle_alpha	96.215673
_cell_angle_beta	96.229076
_cell_angle_gamma	96.315501
loop_
_atom_site_label
_atom_site_type_symbol
_atom_site_fract_x
_atom_site_fract_y
_atom_site_fract_z
O1	O	-0.130447	1.214405	-0.158963
O2	O	-0.144663	0.945931	-0.158963
O3	O	-0.003318	1.087285	-0.158981
O4	O	-0.271792	1.073051	-0.158946
O5	O	0.015614	1.106176	0.158992
O6	O	-0.125731	0.964822	0.159010
O7	O	-0.111515	1.233296	0.159010
Cu8	Cu	-0.116894	1.100784	0.188043
Cu9	Cu	-0.139284	1.078443	-0.187997
O10	O	-0.252860	1.091942	0.159027
C11	C	-0.134531	0.921017	0.000023
C12	C	-0.132535	0.818637	0.000022
C13	C	-0.130914	0.735492	0.000014
C14	C	-0.128887	0.631183	0.000013
C15	C	-0.127279	0.548044	0.000013
C16	C	-0.125253	0.443728	0.000008
C17	C	-0.296686	1.083160	0.000045
C18	C	-0.399066	1.085149	0.000058
C19	C	-0.773967	1.092464	-0.000018
C20	C	-0.669658	1.090433	0.000004
C21	C	-0.586520	1.088807	0.000022
C22	C	-0.482204	1.086775	0.000040
C23	C	0.040507	1.096067	-0.000003
C24	C	0.142887	1.094077	-0.000028
C25	C	-0.121648	1.258210	0.000019
C26	C	-0.123644	1.360589	0.000008
N27	N	-0.101146	1.116503	0.452529
N28	N	-0.155025	1.062731	-0.452483
H29	H	-0.210858	1.007002	0.465878
H30	H	-0.045316	1.172242	0.534178
