data_functionalizedCrystal
_audit_creation_method	'MofGen! by Chris Wilmer'
_symmetry_space_group_name_H-M	'P1'
_symmetry_Int_Tables_number	1
_symmetry_cell_setting	triclinic
loop_
_symmetry_equiv_pos_as_xyz
  x,y,z
_cell_length_a	14.908979
_cell_length_b	16.625545
_cell_length_c	14.908308
_cell_angle_alpha	93.266177
_cell_angle_beta	96.371071
_cell_angle_gamma	93.327235
loop_
_atom_site_label
_atom_site_type_symbol
_atom_site_fract_x
_atom_site_fract_y
_atom_site_fract_z
Zn1	Zn	1.354213	-0.273365	-0.432038
Zn2	Zn	1.362838	-0.399960	-0.280685
Zn3	Zn	1.211587	-0.273403	-0.289417
Zn4	Zn	1.202807	-0.416422	-0.440717
O5	O	1.282861	-0.340788	-0.360714
O6	O	1.482021	-0.283252	-0.404674
O7	O	1.350058	-0.376299	-0.155182
O8	O	1.230571	-0.160564	-0.308358
O9	O	1.488357	-0.376261	-0.293476
O10	O	1.335358	-0.160535	-0.413141
O11	O	1.238934	-0.283318	-0.161598
O12	O	1.083759	-0.299281	-0.316774
O13	O	1.215608	-0.404319	-0.566227
O14	O	1.077309	-0.404356	-0.427933
O15	O	1.326845	-0.299215	-0.559850
O16	O	1.341545	-0.514979	-0.301892
O17	O	1.223971	-0.527073	-0.419466
C18	C	1.047691	-0.353610	-0.374243
C19	C	0.947083	-0.359116	-0.380053
C20	C	0.801952	-0.421656	-0.446011
C21	C	0.896482	-0.416483	-0.440561
C22	C	0.903148	-0.306918	-0.324989
C23	C	0.808618	-0.312091	-0.330440
C24	C	0.758023	-0.369461	-0.390954
C25	C	0.663492	-0.374629	-0.396408
C26	C	0.670160	-0.265068	-0.280833
C27	C	0.764690	-0.259895	-0.275383
C28	C	1.282765	-0.550282	-0.360691
C29	C	1.282804	-0.639902	-0.360707
C30	C	1.282839	-0.712684	-0.360723
C31	C	1.282890	-0.803990	-0.360740
C32	C	1.282936	-0.876765	-0.360749
C33	C	1.282987	-0.968077	-0.360764
C34	C	1.518950	-0.327916	-0.347133
C35	C	1.619557	-0.322431	-0.341345
C36	C	1.269285	-0.353599	-0.596799
C37	C	1.263500	-0.359058	-0.697404
C38	C	1.282982	-0.130475	-0.360756
C39	C	1.283033	-0.040852	-0.360773
C40	C	1.368458	-0.259854	-0.879813
C41	C	1.363025	-0.264980	-0.974341
C42	C	1.247197	-0.374434	-0.980987
C43	C	1.252630	-0.369307	-0.886460
C44	C	1.313263	-0.312016	-0.835876
C45	C	1.318700	-0.306894	-0.741347
C46	C	1.202869	-0.416343	-0.747996
C47	C	1.197436	-0.421469	-0.842523
C48	C	1.296437	-0.327965	-0.125545
C49	C	1.302397	-0.322269	-0.024931
H50	H	0.805897	-0.213189	-0.226112
F51	F	1.144131	-0.471868	-0.701228
H52	H	0.760757	-0.468362	-0.495292
F53	F	1.383233	-0.245923	-0.687513
F54	F	0.623401	-0.209512	-0.222236
F55	F	0.943231	-0.472038	-0.499158
F56	F	1.432996	-0.198889	-0.825976
H57	H	1.197832	-0.421077	-1.022189
H58	H	1.407967	-0.222502	-1.010110
H59	H	1.148068	-0.468113	-0.883721
H60	H	0.622298	-0.421339	-0.445685
H61	H	0.944359	-0.260216	-0.275715
