data_functionalizedCrystal
_audit_creation_method	'MofGen! by Chris Wilmer'
_symmetry_space_group_name_H-M	'P1'
_symmetry_Int_Tables_number	1
_symmetry_cell_setting	triclinic
loop_
_symmetry_equiv_pos_as_xyz
  x,y,z
_cell_length_a	18.215407
_cell_length_b	15.297327
_cell_length_c	18.215399
_cell_angle_alpha	99.645421
_cell_angle_beta	89.983176
_cell_angle_gamma	99.707397
loop_
_atom_site_label
_atom_site_type_symbol
_atom_site_fract_x
_atom_site_fract_y
_atom_site_fract_z
Zn1	Zn	1.074338	-0.359142	-0.466791
Zn2	Zn	1.574338	0.140858	0.033209
Zn3	Zn	1.052949	-0.510019	-0.365013
Zn4	Zn	1.552949	-0.010019	0.134987
Zn5	Zn	0.951272	-0.359178	-0.343743
Zn6	Zn	1.451272	0.140822	0.156257
Zn7	Zn	0.929941	-0.509963	-0.488030
Zn8	Zn	1.429941	-0.009963	0.011970
O9	O	1.002125	-0.434575	-0.415894
O10	O	1.502125	0.065425	0.084106
O11	O	1.174484	-0.379165	-0.453303
O12	O	1.674484	0.120835	0.046697
O13	O	1.039437	-0.490049	-0.259213
O14	O	1.539437	0.009951	0.240787
O15	O	0.985476	-0.232926	-0.342275
O16	O	1.485476	0.267074	0.157725
O17	O	1.158769	-0.490014	-0.378527
O18	O	1.658769	0.009986	0.121473
O19	O	1.075892	-0.232900	-0.432678
O20	O	1.575892	0.267100	0.067322
O21	O	0.964736	-0.379226	-0.243586
O22	O	1.464736	0.120774	0.256414
O23	O	0.845460	-0.379171	-0.362870
O24	O	1.345460	0.120829	0.137130
O25	O	0.949119	-0.489917	-0.588192
O26	O	1.449119	0.010083	-0.088192
O27	O	0.829787	-0.489952	-0.468877
O28	O	1.329787	0.010048	0.031123
O29	O	1.055208	-0.379110	-0.572587
O30	O	1.555208	0.120890	-0.072587
O31	O	1.018753	-0.636259	-0.399122
O32	O	1.518753	-0.136259	0.100878
O33	O	0.928379	-0.636217	-0.489502
O34	O	1.428379	-0.136217	0.010498
C35	C	0.810921	-0.434560	-0.415871
C36	C	1.310921	0.065440	0.084129
C37	C	0.729120	-0.434575	-0.415882
C38	C	1.229120	0.065425	0.084118
C39	C	0.532772	-0.492350	-0.471033
C40	C	1.032772	0.007650	0.028967
C41	C	0.455913	-0.492352	-0.471043
C42	C	0.955913	0.007648	0.028957
C43	C	0.472228	-0.376818	-0.360774
C44	C	0.972228	0.123182	0.139226
C45	C	0.549086	-0.376811	-0.360768
C46	C	1.049086	0.123189	0.139232
C47	C	0.579356	-0.434582	-0.415897
C48	C	1.079356	0.065418	0.084103
C49	C	0.425638	-0.434592	-0.415913
C50	C	0.925638	0.065408	0.084087
C51	C	0.342304	-0.434594	-0.415923
C52	C	0.842304	0.065406	0.084077
C53	C	0.662695	-0.434578	-0.415888
C54	C	1.162695	0.065422	0.084112
C55	C	0.968950	-0.668972	-0.448941
C56	C	1.468950	-0.168972	0.051059
C57	C	0.954825	-0.769248	-0.463103
C58	C	1.454825	-0.269248	0.036897
C59	C	1.103383	-1.051871	-0.314927
C60	C	1.603383	-0.551871	0.185073
C61	C	1.116654	-0.957656	-0.301617
C62	C	1.616654	-0.457656	0.198383
C63	C	1.076198	-0.910550	-0.341987
C64	C	1.576198	-0.410550	0.158013
C65	C	1.022468	-0.957666	-0.395670
C66	C	1.522468	-0.457666	0.104330
C67	C	1.009192	-1.051890	-0.408977
C68	C	1.509192	-0.551890	0.091023
C69	C	0.982007	-0.910569	-0.436037
C70	C	1.482007	-0.410569	0.063963
C71	C	0.928278	-0.957686	-0.489720
C72	C	1.428278	-0.457686	0.010280
C73	C	0.915004	-1.051900	-0.503025
C74	C	1.415004	-0.551900	-0.003025
C75	C	0.955460	-1.099007	-0.462654
C76	C	1.455460	-0.599007	0.037346
C77	C	0.995284	-0.816346	-0.422730
C78	C	1.495284	-0.316346	0.077270
C79	C	0.901093	-0.816365	-0.516781
C80	C	1.401093	-0.316365	-0.016781
C81	C	0.887822	-0.910579	-0.530090
C82	C	1.387822	-0.410579	-0.030090
C83	C	1.194076	-0.434592	-0.415918
C84	C	1.694076	0.065408	0.084082
C85	C	1.275874	-0.434598	-0.415928
C86	C	1.775874	0.065402	0.084072
C87	C	1.002170	-0.434503	-0.607837
C88	C	1.502170	0.065497	-0.107837
C89	C	1.002189	-0.434473	-0.689632
C90	C	1.502189	0.065527	-0.189632
C91	C	1.035450	-0.199263	-0.382735
C92	C	1.535450	0.300737	0.117265
C93	C	1.049651	-0.098987	-0.368604
C94	C	1.549651	0.401013	0.131396
C95	C	0.963337	-0.376728	-0.869684
C96	C	1.463337	0.123272	-0.369684
C97	C	0.963353	-0.376710	-0.946540
C98	C	1.463353	0.123290	-0.446540
C99	C	1.041144	-0.492109	-0.962802
C100	C	1.541144	0.007891	-0.462802
C101	C	1.041124	-0.492131	-0.885948
C102	C	1.541124	0.007869	-0.385948
C103	C	1.002222	-0.434436	-0.839390
C104	C	1.502222	0.065564	-0.339390
C105	C	1.002258	-0.434396	-0.993101
C106	C	1.502258	0.065604	-0.493101
C107	C	1.002275	-0.434376	-1.076432
C108	C	1.502275	0.065624	-0.576432
C109	C	1.002204	-0.434456	-0.756054
C110	C	1.502204	0.065544	-0.256054
C111	C	1.002132	-0.434582	-0.224689
C112	C	1.502132	0.065418	0.275311
C113	C	1.002291	-0.434359	-0.142859
C114	C	1.502291	0.065641	0.357141
H115	H	1.039030	-0.777991	-0.379022
H116	H	1.539030	-0.277991	0.120978
H117	H	0.417987	-0.539391	-0.515941
H118	H	0.917987	-0.039391	-0.015941
H119	H	1.072817	-0.539082	-1.000718
H120	H	1.572817	-0.039082	-0.500718
H121	H	0.587017	-0.329764	-0.315869
H122	H	1.087017	0.170236	0.184131
H123	H	1.087006	-0.833836	-0.331147
H124	H	1.587006	-0.333836	0.168853
H125	H	0.871246	-1.090260	-0.546728
H126	H	1.371246	-0.590260	-0.046728
H127	H	0.447573	-0.329784	-0.315889
H128	H	0.947573	0.170216	0.184111
H129	H	1.160399	-0.919297	-0.257909
H130	H	1.660399	-0.419297	0.242091
H131	H	1.072790	-0.539127	-0.861283
H132	H	1.572790	-0.039127	-0.361283
H133	H	1.136312	-1.090233	-0.282058
H134	H	1.636312	-0.590233	0.217942
H135	H	0.557415	-0.539388	-0.515925
H136	H	1.057415	-0.039388	-0.015925
H137	H	0.944660	-1.175724	-0.473490
H138	H	1.444660	-0.675724	0.026510
H139	H	0.844075	-0.948955	-0.573799
H140	H	1.344075	-0.448955	-0.073799
H141	H	0.868149	-0.778011	-0.549652
H142	H	1.368149	-0.278011	-0.049652
H143	H	0.931661	-0.329749	-0.831779
H144	H	1.431661	0.170251	-0.331779
H145	H	0.931688	-0.329720	-0.971202
H146	H	1.431688	0.170280	-0.471202
