data_functionalizedCrystal
_audit_creation_method	'MofGen! by Chris Wilmer'
_symmetry_space_group_name_H-M	'P1'
_symmetry_Int_Tables_number	1
_symmetry_cell_setting	triclinic
loop_
_symmetry_equiv_pos_as_xyz
  x,y,z
_cell_length_a	42.774435
_cell_length_b	42.790065
_cell_length_c	42.784740
_cell_angle_alpha	119.993405
_cell_angle_beta	60.002203
_cell_angle_gamma	119.987846
loop_
_atom_site_label
_atom_site_type_symbol
_atom_site_fract_x
_atom_site_fract_y
_atom_site_fract_z
O1	O	-0.214529	0.266331	-0.009300
O2	O	-0.169055	0.220891	0.009252
O3	O	-0.169056	0.220890	-0.054748
O4	O	-0.214528	0.266331	0.054700
O5	O	-0.221040	0.168919	-0.054747
O6	O	-0.221040	0.168920	0.009253
O7	O	-0.266513	0.214359	-0.009299
Cu8	Cu	-0.248523	0.186894	-0.000023
Cu9	Cu	-0.187045	0.248356	-0.000024
O10	O	-0.266513	0.214360	0.054701
C11	C	-0.356142	0.356126	-0.028189
C12	C	-0.337249	0.393732	-0.028455
C13	C	-0.412753	0.356125	-0.028192
C14	C	-0.393774	0.393731	-0.028457
C15	C	-0.356154	0.412709	-0.028192
C16	C	-0.393762	0.337233	-0.028454
C17	C	-0.321552	0.264472	-0.017935
C18	C	-0.303729	0.246537	-0.015036
C19	C	-0.266450	0.265872	-0.013581
C20	C	-0.247126	0.246430	-0.010430
C21	C	-0.246993	0.303143	-0.015028
C22	C	-0.264814	0.321073	-0.017932
C23	C	-0.302095	0.301736	-0.019386
C24	C	-0.264485	0.549162	-0.017950
C25	C	-0.246550	0.587803	-0.015054
C26	C	-0.265897	0.607189	-0.013600
C27	C	-0.246456	0.649088	-0.010455
C28	C	-0.303181	0.587928	-0.015047
C29	C	-0.321113	0.549286	-0.017949
C30	C	-0.301761	0.529905	-0.019398
C31	C	-0.549250	0.264469	-0.017945
C32	C	-0.587909	0.246534	-0.015044
C33	C	-0.607307	0.265869	-0.013592
C34	C	-0.649223	0.246426	-0.010444
C35	C	-0.588047	0.303138	-0.015038
C36	C	-0.549390	0.321070	-0.017937
C37	C	-0.529994	0.301731	-0.019395
C38	C	-0.321417	0.321183	-0.022531
C39	C	-0.336819	0.336682	-0.025040
C40	C	-0.454667	0.336681	-0.025046
C41	C	-0.488078	0.321180	-0.022539
C42	C	-0.336710	0.454608	-0.025047
C43	C	-0.321210	0.488005	-0.022542
O44	O	-0.663037	0.214354	-0.009317
O45	O	-0.772504	0.168911	0.009227
O46	O	-0.708490	0.168912	-0.054769
O47	O	-0.727051	0.214353	0.054679
O48	O	-0.708502	0.220882	-0.054772
O49	O	-0.772516	0.220881	0.009224
O50	O	-0.663049	0.266324	-0.009320
Cu51	Cu	-0.717783	0.248348	-0.000048
Cu52	Cu	-0.717769	0.186887	-0.000045
O53	O	-0.727063	0.266323	0.054676
C54	C	-0.689577	0.022771	-0.361617
C55	C	-0.689317	0.041749	-0.324003
C56	C	-0.689590	0.079354	-0.361622
C57	C	-0.689330	0.098246	-0.324007
C58	C	-0.689590	0.079355	-0.305023
C59	C	-0.689317	0.041748	-0.380516
C60	C	-0.699796	-0.113681	-0.453287
C61	C	-0.702685	-0.152323	-0.471225
C62	C	-0.704135	-0.171706	-0.451883
C63	C	-0.707275	-0.213606	-0.471327
C64	C	-0.702693	-0.152445	-0.414604
C65	C	-0.699799	-0.113805	-0.396671
C66	C	-0.698350	-0.094423	-0.416015
C67	C	-0.699846	0.113910	-0.168537
C68	C	-0.702748	0.131720	-0.129887
C69	C	-0.704212	0.168984	-0.110498
C70	C	-0.707364	0.188296	-0.068590
C71	C	-0.702770	0.188439	-0.129766
C72	C	-0.699862	0.170631	-0.168416
C73	C	-0.698402	0.133363	-0.187800
C74	C	-0.699848	0.113903	-0.453305
C75	C	-0.702755	0.131711	-0.471245
C76	C	-0.704218	0.168976	-0.451908
C77	C	-0.707372	0.188285	-0.471357
C78	C	-0.702777	0.188431	-0.414630
C79	C	-0.699872	0.170621	-0.396692
C80	C	-0.698404	0.133358	-0.416034
C81	C	-0.695216	-0.052525	-0.396565
C82	C	-0.692715	-0.019127	-0.381063
C83	C	-0.692742	0.098661	-0.381073
C84	C	-0.695254	0.114052	-0.396578
C85	C	-0.692741	0.098664	-0.263115
C86	C	-0.695252	0.114056	-0.229709
C87	C	-0.022803	0.079113	0.028111
C88	C	-0.041781	0.041506	0.028374
C89	C	-0.079416	0.079114	0.028114
C90	C	-0.098308	0.041508	0.028378
C91	C	-0.079401	0.022528	0.028111
C92	C	-0.041796	0.098006	0.028377
C93	C	0.113695	0.170769	0.017861
C94	C	0.152352	0.188704	0.014963
C95	C	0.171752	0.169369	0.013506
C96	C	0.213668	0.188811	0.010356
C97	C	0.152491	0.132097	0.014951
C98	C	0.113836	0.114167	0.017855
C99	C	0.094438	0.133504	0.019310
C100	C	-0.113937	-0.113926	0.017860
C101	C	-0.131746	-0.152569	0.014962
C102	C	-0.169024	-0.171954	0.013507
C103	C	-0.188335	-0.213854	0.010359
C104	C	-0.188495	-0.152693	0.014955
C105	C	-0.170689	-0.114050	0.017860
C106	C	-0.133406	-0.094670	0.019310
C107	C	-0.114012	0.170774	0.017876
C108	C	-0.131834	0.188709	0.014976
C109	C	-0.169114	0.169374	0.013523
C110	C	-0.188440	0.188818	0.010377
C111	C	-0.188568	0.132104	0.014966
C112	C	-0.170744	0.114171	0.017864
C113	C	-0.133466	0.133511	0.019322
C114	C	0.052523	0.114057	0.022454
C115	C	0.019112	0.098557	0.024963
C116	C	-0.098740	0.098559	0.024970
C117	C	-0.114144	0.114061	0.022465
C118	C	-0.098709	-0.019371	0.024963
C119	C	-0.114100	-0.052769	0.022456
O120	O	-0.220936	0.772330	0.009232
O121	O	-0.266370	0.662905	-0.009322
O122	O	-0.266383	0.726882	0.054678
O123	O	-0.220923	0.708353	-0.054769
O124	O	-0.214384	0.726881	0.054672
O125	O	-0.214371	0.662903	-0.009328
O126	O	-0.168936	0.772329	0.009226
Cu127	Cu	-0.186906	0.717616	-0.000052
Cu128	Cu	-0.248401	0.717618	-0.000045
O129	O	-0.168924	0.708351	-0.054775
O130	O	-0.727055	0.214346	-0.548890
O131	O	-0.708493	0.168903	-0.503437
O132	O	-0.772507	0.168903	-0.503438
O133	O	-0.663041	0.214346	-0.548889
O134	O	-0.772518	0.220873	-0.451456
O135	O	-0.708504	0.220872	-0.451455
O136	O	-0.727066	0.266316	-0.496908
Cu137	Cu	-0.717786	0.248339	-0.469435
Cu138	Cu	-0.717773	0.186879	-0.530910
O139	O	-0.663052	0.266315	-0.496907
O140	O	-0.726940	-0.336848	-0.496862
O141	O	-0.708402	-0.227422	-0.451421
O142	O	-0.772407	-0.291401	-0.451415
O143	O	-0.662936	-0.272869	-0.496868
O144	O	-0.772407	-0.291402	-0.503400
O145	O	-0.708403	-0.227423	-0.503406
O146	O	-0.726941	-0.336849	-0.548847
Cu147	Cu	-0.717672	-0.282136	-0.530873
Cu148	Cu	-0.717671	-0.282135	-0.469395
O149	O	-0.662936	-0.272870	-0.548853
C150	C	-0.412757	0.356121	0.361543
C151	C	-0.393779	0.393727	0.380439
C152	C	-0.356145	0.356123	0.304947
C153	C	-0.337253	0.393729	0.323930
C154	C	-0.356159	0.412706	0.361543
C155	C	-0.393765	0.337229	0.323929
C156	C	-0.549253	0.264462	0.396100
C157	C	-0.587910	0.246526	0.413913
C158	C	-0.607309	0.265860	0.451187
C159	C	-0.649225	0.246416	0.470500
C160	C	-0.588048	0.303130	0.470647
C161	C	-0.549393	0.321062	0.452835
C162	C	-0.529996	0.301726	0.415560
C163	C	-0.321622	0.549157	0.453218
C164	C	-0.303813	0.587799	0.471157
C165	C	-0.266536	0.607186	0.451820
C166	C	-0.247225	0.649084	0.471265
C167	C	-0.247066	0.587926	0.414542
C168	C	-0.264872	0.549284	0.396606
C169	C	-0.302154	0.529902	0.415948
C170	C	-0.321553	0.264470	0.168467
C171	C	-0.303731	0.246537	0.129815
C172	C	-0.266452	0.265873	0.110427
C173	C	-0.247128	0.246432	0.068518
C174	C	-0.246998	0.303142	0.129690
C175	C	-0.264821	0.321073	0.168340
C176	C	-0.302098	0.301733	0.187727
C177	C	-0.488081	0.321175	0.396248
C178	C	-0.454671	0.336676	0.380855
C179	C	-0.336822	0.336680	0.263040
C180	C	-0.321420	0.321180	0.229636
C181	C	-0.336851	0.454604	0.380992
C182	C	-0.321460	0.488002	0.396495
C183	C	-0.079167	0.022787	-0.361590
C184	C	-0.041548	0.041766	-0.380486
C185	C	-0.079181	0.079370	-0.304994
C186	C	-0.041561	0.098263	-0.323976
C187	C	-0.022569	0.079372	-0.361590
C188	C	-0.098073	0.041764	-0.323976
C189	C	-0.170835	-0.113666	-0.396149
C190	C	-0.188771	-0.152308	-0.413963
C191	C	-0.169422	-0.171692	-0.451236
C192	C	-0.188864	-0.213592	-0.470550
C193	C	-0.132137	-0.152430	-0.470695
C194	C	-0.114207	-0.113790	-0.452883
C195	C	-0.133558	-0.094408	-0.415609
C196	C	0.113941	0.113927	-0.453263
C197	C	0.152598	0.131738	-0.471202
C198	C	0.171985	0.169002	-0.451865
C199	C	0.213899	0.188314	-0.471309
C200	C	0.152710	0.188457	-0.414587
C201	C	0.114054	0.170649	-0.396651
C202	C	0.094672	0.133380	-0.415994
C203	C	-0.170889	0.113920	-0.168514
C204	C	-0.188836	0.131728	-0.129862
C205	C	-0.169500	0.168993	-0.110474
C206	C	-0.188956	0.188303	-0.068565
C207	C	-0.132217	0.188448	-0.129737
C208	C	-0.114272	0.170639	-0.168387
C209	C	-0.133613	0.133375	-0.187774
C210	C	-0.114111	-0.052509	-0.396296
C211	C	-0.098611	-0.019112	-0.380902
C212	C	-0.098639	0.098678	-0.263087
C213	C	-0.114150	0.114068	-0.229683
C214	C	0.019345	0.098681	-0.381038
C215	C	0.052756	0.114073	-0.396541
C216	C	-0.745942	0.412473	0.361515
C217	C	-0.746199	0.393496	0.380413
C218	C	-0.745935	0.355887	0.304922
C219	C	-0.746192	0.336997	0.323905
C220	C	-0.745927	0.355890	0.361518
C221	C	-0.746207	0.393493	0.323902
C222	C	-0.735723	0.548924	0.396067
C223	C	-0.732833	0.587566	0.413879
C224	C	-0.731378	0.606952	0.451151
C225	C	-0.728237	0.648852	0.470463
C226	C	-0.732817	0.587693	0.470612
C227	C	-0.735712	0.549052	0.452802
C228	C	-0.737165	0.529668	0.415528
C229	C	-0.735656	0.321344	0.453195
C230	C	-0.732751	0.303535	0.471135
C231	C	-0.731287	0.266271	0.451799
C232	C	-0.728132	0.246961	0.471245
C233	C	-0.732734	0.246814	0.414522
C234	C	-0.735646	0.264619	0.396585
C235	C	-0.737104	0.301888	0.415925
C236	C	-0.735695	0.321329	0.168442
C237	C	-0.732793	0.303519	0.129790
C238	C	-0.731331	0.266253	0.110404
C239	C	-0.728182	0.246941	0.068495
C240	C	-0.732768	0.246801	0.129668
C241	C	-0.735669	0.264612	0.168317
C242	C	-0.737135	0.301876	0.187703
C243	C	-0.740301	0.487769	0.396218
C244	C	-0.742803	0.454372	0.380826
C245	C	-0.742788	0.336577	0.263015
C246	C	-0.740281	0.321185	0.229611
C247	C	-0.742772	0.336583	0.380967
C248	C	-0.740258	0.321194	0.396471
C249	C	-0.356209	0.745719	0.361514
C250	C	-0.393833	0.745981	0.380412
C251	C	-0.356213	0.745726	0.304921
C252	C	-0.393838	0.745989	0.323905
C253	C	-0.412823	0.745720	0.361519
C254	C	-0.337310	0.745987	0.323900
C255	C	-0.264499	0.735468	0.396062
C256	C	-0.246552	0.732568	0.413873
C257	C	-0.265893	0.731110	0.451146
C258	C	-0.246438	0.727959	0.470457
C259	C	-0.303183	0.732554	0.470608
C260	C	-0.321125	0.735458	0.452799
C261	C	-0.301781	0.736915	0.415524
C262	C	-0.549337	0.735466	0.453199
C263	C	-0.587997	0.732568	0.471140
C264	C	-0.607395	0.731116	0.451805
C265	C	-0.649313	0.727968	0.471252
C266	C	-0.588127	0.732566	0.414527
C267	C	-0.549467	0.735470	0.396589
C268	C	-0.530075	0.736918	0.415929
C269	C	-0.264517	0.735497	0.168439
C270	C	-0.246576	0.732599	0.129787
C271	C	-0.265923	0.731148	0.110401
C272	C	-0.246473	0.728005	0.068493
C273	C	-0.303210	0.732591	0.129667
C274	C	-0.321150	0.735486	0.168316
C275	C	-0.301798	0.736942	0.187701
C276	C	-0.321242	0.740061	0.396215
C277	C	-0.336752	0.742570	0.380823
C278	C	-0.336762	0.742585	0.263014
C279	C	-0.321255	0.740082	0.229610
C280	C	-0.454741	0.742572	0.380969
C281	C	-0.488155	0.740064	0.396474
O282	O	-0.169190	0.772326	0.496813
O283	O	-0.214625	0.662902	0.451361
O284	O	-0.214641	0.726884	0.451359
O285	O	-0.169174	0.708343	0.496815
O286	O	-0.266638	0.726882	0.503340
O287	O	-0.266622	0.662899	0.503342
O288	O	-0.221187	0.772323	0.548794
Cu289	Cu	-0.248652	0.717611	0.530814
Cu290	Cu	-0.187160	0.717614	0.469341
O291	O	-0.221171	0.708341	0.548796
C292	C	-0.022731	0.689514	-0.361616
C293	C	-0.041721	0.689252	-0.380509
C294	C	-0.079340	0.689508	-0.305018
C295	C	-0.098244	0.689247	-0.323997
C296	C	-0.079345	0.689515	-0.361610
C297	C	-0.041715	0.689245	-0.324002
C298	C	0.113788	0.699760	-0.396185
C299	C	0.152449	0.702658	-0.414001
C300	C	0.171840	0.704116	-0.451274
C301	C	0.213760	0.707266	-0.470591
C302	C	0.152567	0.702673	-0.470731
C303	C	0.113909	0.699770	-0.452916
C304	C	0.094519	0.698314	-0.415642
C305	C	-0.113927	0.699772	-0.453274
C306	C	-0.131749	0.702672	-0.471210
C307	C	-0.169032	0.704126	-0.451870
C308	C	-0.188357	0.707275	-0.471312
C309	C	-0.188494	0.702676	-0.414593
C310	C	-0.170675	0.699770	-0.396660
C311	C	-0.133388	0.698321	-0.416005
C312	C	-0.113901	0.699736	-0.168541
C313	C	-0.131717	0.702633	-0.129889
C314	C	-0.169001	0.704085	-0.110498
C315	C	-0.188318	0.707228	-0.068589
C316	C	-0.188466	0.702644	-0.129758
C317	C	-0.170650	0.699749	-0.168408
C318	C	-0.133367	0.698291	-0.187798
C319	C	0.052601	0.695169	-0.396327
C320	C	0.019188	0.692662	-0.380931
C321	C	-0.098656	0.692649	-0.263111
C322	C	-0.114053	0.695152	-0.229706
C323	C	-0.098667	0.692664	-0.381055
C324	C	-0.114068	0.695173	-0.396555
H325	H	-0.319575	0.216194	-0.013853
H326	H	-0.736886	0.533374	0.468650
C327	C	-0.206060	0.609246	0.393269
H328	H	-0.197015	0.592241	0.368503
H329	H	-0.206074	0.630187	0.390949
H330	H	-0.189792	0.618456	0.407231
C331	C	-0.414372	0.295518	-0.028951
H332	H	-0.397673	0.286942	-0.029044
H333	H	-0.436596	0.294120	-0.006848
H334	H	-0.421563	0.279762	-0.051251
C335	C	-0.731211	0.324915	0.108600
H336	H	-0.729270	0.308972	0.082805
H337	H	-0.753839	0.331349	0.120827
H338	H	-0.709542	0.347624	0.109091
C339	C	-0.243196	0.527842	-0.019553
H340	H	-0.218423	0.544845	-0.018282
H341	H	-0.257154	0.518629	0.001458
H342	H	-0.240874	0.506901	-0.042831
H343	H	-0.115863	0.703809	-0.114210
C344	C	-0.205990	0.324409	-0.013427
H345	H	-0.198164	0.308394	-0.011488
H346	H	-0.189112	0.330840	-0.036044
H347	H	-0.205400	0.347113	0.008245
C348	C	-0.414426	0.746552	0.422161
H349	H	-0.439599	0.746675	0.430746
H350	H	-0.415728	0.724473	0.423619
H351	H	-0.400658	0.768865	0.437874
H352	H	0.098005	0.698573	-0.365836
C353	C	-0.243456	0.528101	0.355606
H354	H	-0.218705	0.545180	0.346655
H355	H	-0.241084	0.507165	0.355572
H356	H	-0.257367	0.518897	0.339292
C357	C	-0.073199	-0.092606	-0.474287
H358	H	-0.064242	-0.109684	-0.499034
H359	H	-0.073167	-0.071668	-0.476656
H360	H	-0.056886	-0.083402	-0.460375
C361	C	-0.746763	0.414083	0.422157
H362	H	-0.746878	0.439249	0.430739
H363	H	-0.769080	0.400325	0.437879
H364	H	-0.724670	0.415384	0.423604
C365	C	-0.746758	0.295257	0.303321
H366	H	-0.746877	0.286672	0.278154
H367	H	-0.724671	0.293799	0.302019
H368	H	-0.769082	0.279548	0.317091
C369	C	-0.325130	0.205544	0.108626
H370	H	-0.309178	0.197636	0.082830
H371	H	-0.331562	0.188718	0.120853
H372	H	-0.347850	0.204990	0.109118
C373	C	0.173646	0.704251	-0.392598
H374	H	0.156563	0.702972	-0.367847
H375	H	0.182865	0.683247	-0.406505
H376	H	0.194586	0.727526	-0.390229
H377	H	-0.698654	0.083567	-0.184318
C378	C	-0.746785	0.414075	0.303311
H379	H	-0.746906	0.439238	0.320009
H380	H	-0.724701	0.415373	0.281073
H381	H	-0.769111	0.400312	0.296154
C382	C	-0.110342	0.704271	-0.512209
H383	H	-0.126297	0.706205	-0.520120
H384	H	-0.087630	0.725934	-0.512760
H385	H	-0.103899	0.681655	-0.529045
C386	C	0.173536	0.229697	0.013370
H387	H	0.156448	0.238643	0.014648
H388	H	0.182746	0.246006	0.034380
H389	H	0.194481	0.229728	-0.009909
H390	H	-0.026558	0.128906	0.028805
H391	H	-0.026302	0.026529	-0.411391
C392	C	-0.243415	0.362066	-0.019523
H393	H	-0.218662	0.371015	-0.018237
H394	H	-0.241046	0.362103	-0.042796
H395	H	-0.257333	0.378373	0.001493
C396	C	-0.229776	-0.173493	-0.392556
H397	H	-0.238729	-0.156417	-0.367805
H398	H	-0.246094	-0.182703	-0.406462
H399	H	-0.229799	-0.194428	-0.390187
H400	H	-0.216194	0.603483	-0.013874
C401	C	0.092845	0.192061	-0.355663
H402	H	0.109923	0.216808	-0.346716
H403	H	0.071907	0.194418	-0.355657
H404	H	0.083625	0.178170	-0.339330
C405	C	-0.737304	0.362319	0.189765
H406	H	-0.739242	0.370139	0.215543
H407	H	-0.714686	0.379189	0.177589
H408	H	-0.758983	0.362915	0.189324
C409	C	-0.704386	0.229422	-0.393356
H410	H	-0.703114	0.238456	-0.368586
H411	H	-0.683373	0.245686	-0.407315
H412	H	-0.727670	0.229410	-0.391037
C413	C	-0.072918	0.698171	-0.474555
H414	H	-0.063882	0.699446	-0.499324
H415	H	-0.056649	0.719177	-0.460598
H416	H	-0.072925	0.674898	-0.476875
C417	C	-0.414369	0.414313	-0.029038
H418	H	-0.439540	0.397616	-0.029157
H419	H	-0.415676	0.436547	-0.006960
H420	H	-0.400598	0.421468	-0.051362
C421	C	-0.295493	0.414316	-0.029028
H422	H	-0.286903	0.397622	-0.029139
H423	H	-0.279778	0.421477	-0.051347
H424	H	-0.294042	0.436548	-0.006945
H425	H	0.098162	0.083584	-0.469016
C426	C	-0.688771	0.139984	-0.303419
H427	H	-0.688658	0.148567	-0.320119
H428	H	-0.710859	0.141437	-0.281183
H429	H	-0.666449	0.155698	-0.296257
C430	C	-0.324463	0.609248	-0.013451
H431	H	-0.308446	0.635021	-0.011514
H432	H	-0.330894	0.597077	-0.036068
H433	H	-0.347179	0.608806	0.008222
H434	H	-0.116388	-0.168215	-0.501043
H435	H	-0.351469	0.533607	-0.019128
H436	H	-0.351907	0.248723	-0.019120
H437	H	-0.698654	0.083561	-0.469056
C438	C	-0.362558	0.243198	0.189790
H439	H	-0.371594	0.218436	0.172782
H440	H	-0.362548	0.240878	0.210736
H441	H	-0.378832	0.257155	0.199002
H442	H	-0.533711	0.351415	-0.019115
C443	C	-0.527914	0.243198	-0.019547
H444	H	-0.502132	0.259214	-0.021487
H445	H	-0.540087	0.236767	0.003070
H446	H	-0.528352	0.220494	-0.041219
C447	C	-0.737252	0.243215	0.189508
H448	H	-0.739186	0.259161	0.215301
H449	H	-0.758919	0.220508	0.189018
H450	H	-0.714622	0.236782	0.177280
C451	C	0.173829	0.110831	0.013351
H452	H	0.199611	0.126847	0.011413
H453	H	0.161654	0.104400	0.035968
H454	H	0.173392	0.088127	-0.008322
H455	H	0.168288	0.115895	-0.501553
H456	H	-0.688888	0.026512	-0.308762
H457	H	-0.218827	0.703824	-0.113968
H458	H	-0.248759	0.736680	0.184219
C459	C	-0.414345	0.295488	0.303342
H460	H	-0.439518	0.286904	0.320041
H461	H	-0.415646	0.294028	0.281102
H462	H	-0.400569	0.279781	0.296186
H463	H	0.098156	0.083822	0.019033
H464	H	-0.736908	0.533144	0.365718
H465	H	-0.603844	0.318881	-0.013853
H466	H	-0.731635	0.603479	0.500960
C467	C	-0.243420	0.362065	0.189528
H468	H	-0.218664	0.371012	0.172448
H469	H	-0.257334	0.378375	0.198737
H470	H	-0.241051	0.362096	0.210470
H471	H	-0.026532	0.026271	0.028801
C472	C	-0.110436	0.229703	0.013388
H473	H	-0.126389	0.237613	0.011450
H474	H	-0.104003	0.246528	0.036009
H475	H	-0.087717	0.230257	-0.008281
H476	H	-0.736844	0.351688	0.468945
H477	H	-0.698698	0.186465	-0.366340
C478	C	-0.731156	0.324937	0.512133
H479	H	-0.729216	0.308993	0.520047
H480	H	-0.709488	0.347643	0.512681
H481	H	-0.753784	0.331372	0.528967
H482	H	-0.533463	0.248714	0.365750
C483	C	0.174031	0.229447	-0.393315
H484	H	0.199815	0.237267	-0.409333
H485	H	0.161851	0.246317	-0.386884
H486	H	0.173589	0.230041	-0.370605
C487	C	-0.229843	0.110329	-0.108674
H488	H	-0.237760	0.126270	-0.082878
H489	H	-0.246676	0.103895	-0.120900
H490	H	-0.230391	0.087620	-0.109166
H491	H	-0.731660	0.603244	0.398031
H492	H	-0.603589	0.216181	0.398066
C493	C	-0.414375	0.414310	0.422188
H494	H	-0.439548	0.397614	0.430771
H495	H	-0.400607	0.421470	0.437902
H496	H	-0.415684	0.436541	0.423643
C497	C	-0.073269	0.192043	-0.189577
H498	H	-0.064325	0.216789	-0.172497
H499	H	-0.056943	0.178143	-0.198789
H500	H	-0.073244	0.194409	-0.210516
H501	H	-0.186502	0.698575	-0.184087
C502	C	-0.229577	0.110834	0.013371
H503	H	-0.238608	0.086070	0.014644
H504	H	-0.245850	0.124789	0.034384
H505	H	-0.229569	0.108515	-0.009905
C506	C	-0.731126	0.205824	0.393251
H507	H	-0.729183	0.198006	0.409270
H508	H	-0.753746	0.188953	0.386821
H509	H	-0.709450	0.205229	0.370541
H510	H	-0.083548	0.698539	-0.184329
C511	C	-0.688733	0.021168	-0.422267
H512	H	-0.688608	-0.003994	-0.430852
H513	H	-0.710817	0.019866	-0.423731
H514	H	-0.666407	0.034935	-0.437978
H515	H	-0.026324	0.129160	-0.308733
C516	C	-0.704337	0.110312	-0.512248
H517	H	-0.703043	0.085570	-0.521198
H518	H	-0.727616	0.107941	-0.512289
H519	H	-0.683319	0.124221	-0.528558
C520	C	0.092358	0.192040	0.019464
H521	H	0.066579	0.176021	0.021394
H522	H	0.092795	0.214743	0.041134
H523	H	0.104535	0.198471	-0.003155
C524	C	-0.192151	0.073186	0.019477
H525	H	-0.176198	0.065276	0.021414
H526	H	-0.214863	0.072649	0.041149
H527	H	-0.198595	0.056347	-0.003139
C528	C	-0.698198	-0.092363	-0.474567
H529	H	-0.699466	-0.109365	-0.499337
H530	H	-0.719217	-0.083151	-0.460611
H531	H	-0.674918	-0.071421	-0.476886
H532	H	0.168358	0.703860	-0.501078
H533	H	-0.083581	-0.098148	0.019042
C534	C	-0.737234	0.243219	0.355584
H535	H	-0.735944	0.218477	0.346634
H536	H	-0.760514	0.240851	0.355548
H537	H	-0.716217	0.257126	0.339271
C538	C	-0.325231	0.608982	0.512156
H539	H	-0.349985	0.591905	0.521103
H540	H	-0.311324	0.618191	0.528472
H541	H	-0.327604	0.629917	0.512184
C542	C	0.092712	0.698181	-0.474318
H543	H	0.109796	0.699467	-0.499066
H544	H	0.071771	0.674911	-0.476685
H545	H	0.083497	0.719191	-0.460407
C546	C	-0.110331	-0.173751	0.013372
H547	H	-0.085578	-0.156674	0.014651
H548	H	-0.124241	-0.182958	0.034385
H549	H	-0.107956	-0.194688	-0.009904
H550	H	-0.703860	-0.168002	-0.501576
H551	H	-0.218850	-0.168476	0.013776
H552	H	-0.603845	0.318868	0.500995
H553	H	-0.218853	0.703854	-0.398847
C554	C	-0.192081	0.698177	-0.355659
H555	H	-0.216837	0.699461	-0.346706
H556	H	-0.194443	0.674908	-0.355624
H557	H	-0.178171	0.719187	-0.339348
H558	H	-0.186545	-0.098370	0.019041
C559	C	-0.609096	0.205546	-0.013440
H560	H	-0.592007	0.196599	-0.014722
H561	H	-0.630038	0.205519	0.009837
H562	H	-0.618307	0.189231	-0.034451
C563	C	-0.731161	0.205808	0.108345
H564	H	-0.729231	0.197984	0.082569
H565	H	-0.709485	0.205211	0.108786
H566	H	-0.753782	0.188940	0.120524
H567	H	-0.703872	-0.168230	-0.398860
H568	H	-0.306343	0.408965	0.308689
H569	H	-0.409083	0.746416	0.308666
C570	C	-0.110948	0.229441	-0.108413
H571	H	-0.126975	0.237264	-0.082637
H572	H	-0.088232	0.230042	-0.108853
H573	H	-0.104522	0.246309	-0.120592
C574	C	-0.073008	0.192047	0.019481
H575	H	-0.063973	0.216810	0.018203
H576	H	-0.073022	0.194363	0.042758
H577	H	-0.056731	0.178093	-0.001531
C578	C	-0.698214	-0.092621	-0.355669
H579	H	-0.699495	-0.109699	-0.346716
H580	H	-0.674939	-0.071684	-0.355632
H581	H	-0.719238	-0.083418	-0.339359
H582	H	-0.306406	0.746384	0.308650
C583	C	-0.021134	0.688681	-0.422258
H584	H	-0.037845	0.688558	-0.430840
H585	H	0.001101	0.710758	-0.423719
H586	H	-0.013964	0.666366	-0.437973
H587	H	-0.533713	0.351406	0.468682
C588	C	-0.205562	0.731015	0.108599
H589	H	-0.196607	0.732300	0.125680
H590	H	-0.205517	0.707749	0.087655
H591	H	-0.189254	0.752029	0.099394
C592	C	-0.362627	0.527836	0.474495
H593	H	-0.371669	0.544838	0.499265
H594	H	-0.378897	0.518624	0.460536
H595	H	-0.362609	0.506895	0.476814
C596	C	-0.243219	0.737075	0.355065
H597	H	-0.218441	0.735804	0.346027
H598	H	-0.257176	0.716069	0.338797
H599	H	-0.240907	0.760348	0.355080
C600	C	-0.704339	0.110319	-0.108695
H601	H	-0.703056	0.085574	-0.125775
H602	H	-0.683326	0.124222	-0.099484
H603	H	-0.727623	0.107952	-0.087756
H604	H	-0.216192	0.731391	0.398024
H605	H	-0.216642	0.318887	0.113902
C606	C	-0.704379	0.229428	-0.108443
H607	H	-0.706319	0.237248	-0.082664
H608	H	-0.681761	0.246299	-0.120617
H609	H	-0.726058	0.230022	-0.108886
H610	H	-0.128980	0.026522	-0.308734
C611	C	-0.324456	0.730950	0.511604
H612	H	-0.308430	0.729011	0.519423
H613	H	-0.330895	0.753561	0.528481
H614	H	-0.347166	0.709282	0.512199
H615	H	-0.186638	0.083577	-0.184296
H616	H	-0.186596	-0.097888	-0.365799
C617	C	-0.698276	0.192028	-0.189609
H618	H	-0.696334	0.176085	-0.215404
H619	H	-0.720903	0.198463	-0.177384
H620	H	-0.676606	0.214736	-0.189118
C621	C	-0.140065	0.020924	0.028955
H622	H	-0.148658	0.037621	0.029074
H623	H	-0.141521	-0.001308	0.006876
H624	H	-0.155778	0.013767	0.051278
H625	H	-0.351485	0.736634	0.468647
C626	C	-0.528005	0.737066	0.474473
H627	H	-0.545014	0.735792	0.499243
H628	H	-0.518783	0.716060	0.460513
H629	H	-0.507059	0.760339	0.476792
H630	H	-0.603682	0.731386	0.501490
C631	C	-0.609461	0.730970	0.393258
H632	H	-0.635245	0.729031	0.409278
H633	H	-0.597290	0.753583	0.386828
H634	H	-0.609014	0.709304	0.370548
C635	C	-0.528277	0.737064	0.355588
H636	H	-0.545364	0.735781	0.346639
H637	H	-0.507335	0.760333	0.355552
H638	H	-0.519063	0.716053	0.339275
H639	H	-0.351510	0.736662	0.184000
C640	C	-0.324500	0.730976	0.108339
H641	H	-0.308478	0.729042	0.082561
H642	H	-0.347205	0.709305	0.108787
H643	H	-0.330947	0.753584	0.120509
C644	C	-0.140009	0.688657	-0.303413
H645	H	-0.148596	0.688532	-0.278247
H646	H	-0.141485	0.710728	-0.302106
H647	H	-0.155713	0.666336	-0.317187
H648	H	-0.026467	0.688819	-0.308766
