data_functionalizedCrystal
_audit_creation_method	'MofGen! by Chris Wilmer'
_symmetry_space_group_name_H-M	'P1'
_symmetry_Int_Tables_number	1
_symmetry_cell_setting	triclinic
loop_
_symmetry_equiv_pos_as_xyz
  x,y,z
_cell_length_a	15.995350
_cell_length_b	23.532407
_cell_length_c	14.472310
_cell_angle_alpha	89.994233
_cell_angle_beta	89.990621
_cell_angle_gamma	83.170526
loop_
_atom_site_label
_atom_site_type_symbol
_atom_site_fract_x
_atom_site_fract_y
_atom_site_fract_z
O1	O	1.110386	0.073404	-0.076772
O2	O	1.610386	0.573404	0.423228
O3	O	0.866535	0.082469	-0.076793
O4	O	1.366535	0.582469	0.423207
O5	O	0.995814	-0.004967	-0.076765
O6	O	1.495814	0.495033	0.423235
O7	O	0.981107	0.160840	-0.076800
O8	O	1.481107	0.660840	0.423200
O9	O	0.995781	-0.004962	0.076917
O10	O	1.495781	0.495038	0.576917
O11	O	0.866502	0.082474	0.076889
O12	O	1.366502	0.582474	0.576889
O13	O	1.110353	0.073409	0.076910
O14	O	1.610353	0.573409	0.576910
Cu15	Cu	0.988424	0.077942	0.090932
Cu16	Cu	1.488424	0.577942	0.590932
Cu17	Cu	0.988464	0.077936	-0.090815
Cu18	Cu	1.488464	0.577936	0.409185
O19	O	0.981074	0.160845	0.076882
O20	O	1.481074	0.660845	0.576882
C21	C	0.835327	0.082096	0.000046
C22	C	1.335327	0.582096	0.500046
C23	C	0.742386	0.080973	0.000039
C24	C	1.242386	0.580973	0.500039
C25	C	0.404672	0.076938	0.000059
C26	C	0.904672	0.576938	0.500059
C27	C	0.452624	0.014668	0.000415
C28	C	0.952624	0.514668	0.500415
C29	C	0.549305	0.015792	0.000062
C30	C	1.049305	0.515792	0.500062
C31	C	0.572216	0.078939	0.000050
C32	C	1.072216	0.578939	0.500050
C33	C	0.530892	0.109650	-0.087713
C34	C	1.030892	0.609650	0.412287
C35	C	0.434270	0.108086	-0.087780
C36	C	0.934270	0.608086	0.412220
C37	C	0.433882	0.109378	0.086985
C38	C	0.933882	0.609378	0.586985
C39	C	0.530828	0.109364	0.088139
C40	C	1.030828	0.609364	0.588139
C41	C	0.666904	0.080074	0.000041
C42	C	1.166904	0.580074	0.500041
C43	C	0.309984	0.075805	0.000061
C44	C	0.809984	0.575805	0.500061
C45	C	0.995423	-0.026182	0.000078
C46	C	1.495423	0.473818	0.500078
C47	C	0.994297	-0.089404	0.000085
C48	C	1.494297	0.410596	0.500085
C49	C	1.063739	-0.488239	0.000041
C50	C	1.563739	0.011761	0.500041
C51	C	1.062693	-0.547644	0.000033
C52	C	1.562693	-0.047644	0.500033
O53	O	1.127067	-0.584141	0.000005
O54	O	1.627067	-0.084141	0.500005
N55	N	0.985837	-0.570566	0.000028
N56	N	1.485837	-0.070566	0.500028
C57	C	0.910022	-0.534080	0.000020
C58	C	1.410022	-0.034080	0.500020
O59	O	0.844554	-0.559031	0.000013
O60	O	1.344554	-0.059031	0.500013
C61	C	0.911069	-0.474677	0.000020
C62	C	1.411069	0.025323	0.500020
C63	C	0.987930	-0.451758	0.000035
C64	C	1.487930	0.048242	0.500035
C65	C	1.140594	-0.465320	0.000055
C66	C	1.640594	0.034680	0.500055
C67	C	1.141640	-0.405920	0.000063
C68	C	1.641640	0.094080	0.500063
C69	C	1.065830	-0.369439	0.000058
C70	C	1.565830	0.130561	0.500058
C71	C	0.988975	-0.392358	0.000044
C72	C	1.488975	0.107642	0.500044
C73	C	0.835255	-0.438192	0.000006
C74	C	1.335255	0.061808	0.500006
C75	C	0.836308	-0.378785	0.000005
C76	C	1.336308	0.121215	0.500005
C77	C	0.913169	-0.355867	0.000020
C78	C	1.413169	0.144133	0.500020
C79	C	0.914212	-0.296477	0.000048
C80	C	1.414212	0.203523	0.500048
N81	N	0.991068	-0.273555	0.000053
N82	N	1.491068	0.226445	0.500053
C83	C	1.066877	-0.310036	0.000059
C84	C	1.566877	0.189964	0.500059
C85	C	0.907829	-0.658831	0.000017
C86	C	1.407829	-0.158831	0.500017
C87	C	0.906781	-0.718233	0.000023
C88	C	1.406781	-0.218233	0.500023
C89	C	1.059453	-0.731793	0.000035
C90	C	1.559453	-0.231793	0.500035
C91	C	1.060500	-0.672389	0.000036
C92	C	1.560500	-0.172389	0.500036
C93	C	0.984685	-0.635909	0.000023
C94	C	1.484685	-0.135909	0.500023
C95	C	1.069067	-0.185291	0.000078
C96	C	1.569067	0.314709	0.500078
C97	C	1.070106	-0.125885	0.000091
C98	C	1.570106	0.374115	0.500091
C99	C	0.917435	-0.112330	0.000074
C100	C	1.417435	0.387670	0.500074
C101	C	0.916396	-0.171731	0.000066
C102	C	1.416396	0.328269	0.500066
C103	C	0.992219	-0.208210	0.000065
C104	C	1.492219	0.291790	0.500065
O105	O	0.849872	-0.259945	0.000073
O106	O	1.349872	0.240055	0.500073
O107	O	1.132335	-0.285076	0.000053
O108	O	1.632335	0.214924	0.500053
C109	C	1.141561	0.073781	0.000069
C110	C	1.641561	0.573781	0.500069
C111	C	1.234502	0.074905	0.000070
C112	C	1.734502	0.574905	0.500070
C113	C	0.981465	0.182060	0.000037
C114	C	1.481465	0.682060	0.500037
C115	C	0.982591	0.245281	0.000024
C116	C	1.482591	0.745281	0.500024
N117	N	0.988403	0.077946	0.218763
N118	N	1.488403	0.577946	0.718763
N119	N	0.988492	0.077927	-0.218646
N120	N	1.488492	0.577927	0.281354
C121	C	0.988463	0.077933	0.592854
C122	C	1.488463	0.577933	1.092854
C123	C	0.919059	0.124562	0.553673
C124	C	1.419059	0.624562	1.053673
C125	C	0.919217	0.124732	0.446585
C126	C	1.419217	0.624732	0.946585
C127	C	0.988432	0.077939	0.407263
C128	C	1.488432	0.577939	0.907263
C129	C	1.075689	0.090918	0.446104
C130	C	1.575689	0.590918	0.946104
C131	C	1.075298	0.091250	0.553226
C132	C	1.575298	0.591250	1.053226
C133	C	0.971390	0.018188	0.553394
C134	C	1.471390	0.518188	1.053394
C135	C	0.969383	0.018587	0.446267
C136	C	1.469383	0.518587	0.946267
C137	C	0.988421	0.077942	0.302375
C138	C	1.488421	0.577942	0.802375
C139	C	0.988480	0.077932	0.697742
C140	C	1.488480	0.577932	1.197742
H141	H	0.434295	-0.010221	0.063354
H142	H	0.934295	0.489779	0.563354
H143	H	1.130810	-0.214986	0.000074
H144	H	1.630810	0.285014	0.500074
C145	C	1.147147	0.047129	0.588240
C146	C	1.647147	0.547129	1.088240
N147	N	1.201272	0.013905	0.614610
N148	N	1.701272	0.513905	1.114610
C149	C	1.142845	-0.771933	0.000031
C150	C	1.642845	-0.271933	0.500031
N151	N	1.205652	-0.802169	0.000027
N152	N	1.705652	-0.302169	0.500027
H153	H	0.844194	-0.736887	0.000027
H154	H	1.344194	-0.236887	0.500027
C155	C	0.569476	0.080826	-0.175941
C156	C	1.069476	0.580826	0.324059
N157	N	0.598536	0.059111	-0.242392
N158	N	1.098536	0.559111	0.257608
H159	H	0.433250	-0.010111	-0.062166
H160	H	0.933250	0.489889	0.437834
H161	H	1.132698	-0.107228	0.000105
H162	H	1.632698	0.392772	0.500105
C163	C	0.587967	-0.016826	0.085050
C164	C	1.087967	0.483174	0.585050
N165	N	0.617084	-0.041399	0.149063
N166	N	1.117084	0.458601	0.649063
C167	C	0.406358	0.081875	0.176854
C168	C	0.906358	0.581875	0.676854
N169	N	0.385629	0.061153	0.244538
N170	N	0.885629	0.561153	0.744538
C171	C	0.933880	0.184627	0.411939
C172	C	1.433880	0.684627	0.911939
N173	N	0.944930	0.229742	0.385845
N174	N	1.444930	0.729742	0.885845
C175	C	0.752904	-0.338660	-0.000006
C176	C	1.252904	0.161340	0.499994
N177	N	0.690083	-0.308438	-0.000010
N178	N	1.190083	0.191562	0.499990
H179	H	1.128548	0.057860	0.420631
H180	H	1.628548	0.557860	0.920631
C181	C	0.390189	0.169847	-0.093192
C182	C	0.890189	0.669847	0.406808
N183	N	0.356991	0.216364	-0.097278
N184	N	0.856991	0.716364	0.402722
H185	H	0.416162	0.085686	-0.153376
H186	H	0.916162	0.585686	0.346624
C187	C	0.587234	-0.017045	-0.085067
C188	C	1.087234	0.482955	0.414933
N189	N	0.615802	-0.041778	-0.149192
N190	N	1.115802	0.458222	0.350808
H191	H	0.544632	0.156043	-0.090985
H192	H	1.044632	0.656043	0.409015
H193	H	0.855713	-0.082617	0.000073
H194	H	1.355713	0.417383	0.500073
C195	C	0.933509	0.184121	0.590014
C196	C	1.433509	0.684121	1.090014
N197	N	0.944396	0.228981	0.617387
N198	N	1.444396	0.728981	1.117387
C199	C	1.226193	-0.380718	0.000070
C200	C	1.726193	0.119282	0.500070
N201	N	1.289884	-0.361740	0.000071
N202	N	1.789884	0.138260	0.500071
H203	H	0.558317	0.086945	0.153065
H204	H	1.058317	0.586945	0.653065
C205	C	0.390455	0.171401	0.087778
C206	C	0.890455	0.671401	0.587778
N207	N	0.357741	0.218115	0.088369
N208	N	0.857741	0.718115	0.588369
C209	C	0.824421	-0.618706	0.000015
C210	C	1.324421	-0.118706	0.500015
N211	N	0.761599	-0.588488	0.000013
N212	N	1.261599	-0.088488	0.500013
H213	H	1.202331	-0.495018	0.000055
H214	H	1.702331	0.004982	0.500055
C215	C	1.096617	0.149115	0.409851
C216	C	1.596617	0.649115	0.909851
N217	N	1.112373	0.192952	0.382550
N218	N	1.612373	0.692952	0.882550
C219	C	0.551080	0.171572	0.095299
C220	C	1.051080	0.671572	0.595299
N221	N	0.566339	0.218428	0.100691
N222	N	1.066339	0.718428	0.600691
H223	H	1.123087	-0.653734	0.000047
H224	H	1.623087	-0.153734	0.500047
H225	H	0.853809	-0.190392	0.000079
H226	H	1.353809	0.309608	0.500079
C227	C	0.887316	0.001340	0.589924
C228	C	1.387316	0.501340	1.089924
N229	N	0.823986	-0.011343	0.617438
N230	N	1.323986	0.488657	1.117438
C231	C	0.882670	0.005281	0.411979
C232	C	1.382670	0.505281	0.911979
N233	N	0.817356	-0.004739	0.386149
N234	N	1.317356	0.495261	0.886149
H235	H	0.772666	-0.456841	-0.000012
H236	H	1.272666	0.043159	0.499988
C237	C	1.095708	0.150117	0.586958
C238	C	1.595708	0.650117	1.086958
N239	N	1.111074	0.194459	0.612361
N240	N	1.611074	0.694459	1.112361
H241	H	0.854341	0.116999	0.420326
H242	H	1.354341	0.616999	0.920326
C243	C	0.831129	0.114298	0.588528
C244	C	1.331129	0.614298	1.088528
N245	N	0.764899	0.106569	0.614793
N246	N	1.264899	0.606569	1.114793
H247	H	1.016688	-0.017738	0.419504
H248	H	1.516688	0.482262	0.919504
C249	C	1.039769	-0.028690	0.587630
C250	C	1.539769	0.471310	1.087630
N251	N	1.091273	-0.063994	0.613423
N252	N	1.591273	0.436006	1.113423
