data_functionalizedCrystal
_audit_creation_method	'MofGen! by Chris Wilmer'
_symmetry_space_group_name_H-M	'P1'
_symmetry_Int_Tables_number	1
_symmetry_cell_setting	triclinic
loop_
_symmetry_equiv_pos_as_xyz
  x,y,z
_cell_length_a	8.559649
_cell_length_b	19.188924
_cell_length_c	7.681481
_cell_angle_alpha	95.724533
_cell_angle_beta	85.086760
_cell_angle_gamma	76.460314
loop_
_atom_site_label
_atom_site_type_symbol
_atom_site_fract_x
_atom_site_fract_y
_atom_site_fract_z
O1	O	2.105138	-0.016273	0.146399
O2	O	1.639678	0.019799	0.146412
O3	O	1.885848	-0.100597	0.146384
O4	O	1.858968	0.104122	0.146426
O5	O	1.916148	-0.115446	-0.146477
O6	O	1.669978	0.004950	-0.146449
O7	O	2.135437	-0.031122	-0.146463
Zn8	Zn	1.907519	-0.015443	-0.192954
Zn9	Zn	1.867597	0.004120	0.192903
O10	O	1.889268	0.089274	-0.146435
C11	C	1.595279	0.015108	-0.000017
C12	C	1.417841	0.023245	-0.000013
C13	C	1.900130	-0.133987	-0.000048
C14	C	1.897523	-0.211356	-0.000053
C15	C	1.879790	-0.239597	0.159586
C16	C	1.877316	-0.312290	0.159600
C17	C	1.892609	-0.356743	-0.000035
C18	C	1.910335	-0.328493	-0.159695
C19	C	1.912792	-0.255799	-0.159704
N20	N	1.992007	-0.486984	-0.118850
N21	N	1.989675	-0.556040	-0.118830
C22	C	1.885203	-0.575764	-0.000018
N23	N	1.783168	-0.523824	0.118802
N24	N	1.785507	-0.454763	0.118788
C25	C	1.889945	-0.435567	-0.000043
C26	C	1.864784	-0.682826	0.159647
C27	C	1.862301	-0.755519	0.159654
C28	C	1.895337	-0.771723	-0.159646
C29	C	1.897803	-0.699029	-0.159648
C30	C	1.882534	-0.654585	0.000003
C31	C	2.179837	-0.026431	-0.000030
C32	C	2.357273	-0.034568	-0.000022
C33	C	1.874986	0.122664	0.000001
C34	C	1.877591	0.200033	0.000017
N35	N	1.934775	-0.028796	-0.456291
N36	N	1.840353	0.017467	0.456241
H37	H	1.441163	-0.090289	-0.000025
H38	H	1.912257	-0.676037	-0.289644
H39	H	1.907776	-0.807914	-0.289623
H40	H	1.333940	0.078971	0.000008
C41	C	1.842790	-0.786587	0.335261
H42	H	1.843493	-0.836244	0.312406
H43	H	1.929605	-0.781672	0.400845
H44	H	1.743207	-0.761019	0.400863
H45	H	1.743968	0.064688	-0.468552
H46	H	1.867352	-0.203415	0.289587
C47	C	1.857873	-0.343370	0.335209
H48	H	1.849157	-0.306493	0.430288
H49	H	1.763051	-0.361080	0.341901
H50	H	1.949460	-0.381709	0.341787
H51	H	1.922782	-0.364690	-0.289671
C52	C	1.932315	-0.224734	-0.335314
H53	H	1.941076	-0.261618	-0.430390
H54	H	1.840774	-0.186387	-0.341952
H55	H	2.027170	-0.207042	-0.341952
C56	C	1.847970	-0.633934	0.335252
H57	H	1.837030	-0.661165	0.430333
H58	H	1.941437	-0.615564	0.341885
H59	H	1.755041	-0.594915	0.341884
H60	H	2.031179	-0.076016	-0.531508
