data_functionalizedCrystal
_audit_creation_method	'MofGen! by Chris Wilmer'
_symmetry_space_group_name_H-M	'P1'
_symmetry_Int_Tables_number	1
_symmetry_cell_setting	triclinic
loop_
_symmetry_equiv_pos_as_xyz
  x,y,z
_cell_length_a	11.169417
_cell_length_b	21.395361
_cell_length_c	21.395355
_cell_angle_alpha	89.978489
_cell_angle_beta	89.979112
_cell_angle_gamma	90.031958
loop_
_atom_site_label
_atom_site_type_symbol
_atom_site_fract_x
_atom_site_fract_y
_atom_site_fract_z
Zn1	Zn	1.834809	-0.249490	-0.354187
Zn2	Zn	2.334809	0.250510	0.145813
Zn3	Zn	1.834622	-0.354250	-0.249404
Zn4	Zn	2.334622	0.145750	0.250596
Zn5	Zn	1.634090	-0.249493	-0.249431
Zn6	Zn	2.134090	0.250507	0.250569
Zn7	Zn	1.634031	-0.354236	-0.354151
Zn8	Zn	2.134031	0.145764	0.145849
O9	O	1.734388	-0.301867	-0.301793
O10	O	2.234388	0.198133	0.198207
O11	O	2.002734	-0.263392	-0.340291
O12	O	2.502734	0.236608	0.159709
O13	O	1.807967	-0.340361	-0.161730
O14	O	2.307967	0.159639	0.338270
O15	O	1.660818	-0.161814	-0.263353
O16	O	2.160818	0.338186	0.236647
O17	O	2.002596	-0.340358	-0.263308
O18	O	2.502596	0.159642	0.236692
O19	O	1.808286	-0.161813	-0.340317
O20	O	2.308286	0.338187	0.159683
O21	O	1.660637	-0.263396	-0.161749
O22	O	2.160637	0.236604	0.338251
O23	O	1.466132	-0.263382	-0.263318
O24	O	1.966132	0.236618	0.236682
O25	O	1.660718	-0.340335	-0.441834
O26	O	2.160718	0.159665	0.058166
O27	O	1.466089	-0.340337	-0.340256
O28	O	1.966089	0.159663	0.159744
O29	O	1.808228	-0.263378	-0.441860
O30	O	2.308228	0.236622	0.058140
O31	O	1.807910	-0.441926	-0.263273
O32	O	2.307910	0.058074	0.236727
O33	O	1.660537	-0.441916	-0.340230
O34	O	2.160537	0.058084	0.159770
C35	C	1.734229	-0.464655	-0.301758
C36	C	2.234229	0.035345	0.198242
C37	C	1.734271	-0.534296	-0.301764
C38	C	2.234271	-0.034296	0.198236
C39	C	1.422563	-0.301859	-0.301786
C40	C	1.922563	0.198141	0.198214
C41	C	1.289163	-0.301870	-0.301798
C42	C	1.789163	0.198130	0.198202
C43	C	1.811077	-0.566994	-0.261734
C44	C	2.311077	-0.066994	0.238266
C45	C	1.811132	-0.632429	-0.261748
C46	C	2.311132	-0.132429	0.238252
C47	C	1.734361	-0.665164	-0.301786
C48	C	2.234361	-0.165164	0.198214
C49	C	1.657551	-0.632459	-0.341824
C50	C	2.157551	-0.132459	0.158176
C51	C	1.657506	-0.567025	-0.341813
C52	C	2.157506	-0.067025	0.158187
C53	C	1.626297	-0.768881	-0.306699
C54	C	2.126297	-0.268881	0.193301
C55	C	1.626341	-0.834314	-0.306706
C56	C	2.126341	-0.334314	0.193294
C57	C	1.734501	-0.866985	-0.301823
C58	C	2.234501	-0.366985	0.198177
C59	C	1.842622	-0.834216	-0.296920
C60	C	2.342622	-0.334216	0.203080
C61	C	1.842577	-0.768781	-0.296909
C62	C	2.342577	-0.268781	0.203091
C63	C	1.734402	-0.736117	-0.301802
C64	C	2.234402	-0.236117	0.198198
C65	C	1.811374	-0.970635	-0.261805
C66	C	2.311374	-0.470635	0.238195
C67	C	1.811431	-1.036072	-0.261824
C68	C	2.311431	-0.536072	0.238176
C69	C	1.657839	-1.036100	-0.341897
C70	C	2.157839	-0.536100	0.158103
C71	C	1.657792	-0.970665	-0.341881
C72	C	2.157792	-0.470665	0.158119
C73	C	1.734558	-0.937936	-0.301832
C74	C	2.234558	-0.437936	0.198168
C75	C	2.047430	-0.301876	-0.301801
C76	C	2.547430	0.198124	0.198199
C77	C	2.180830	-0.301880	-0.301804
C78	C	2.680830	0.198120	0.198196
C79	C	1.734487	-0.301855	-0.465217
C80	C	2.234487	0.198145	0.034783
C81	C	1.734530	-0.301849	-0.534858
C82	C	2.234530	0.198151	-0.034858
C83	C	1.734579	-0.138444	-0.301842
C84	C	2.234579	0.361556	0.198158
C85	C	1.734661	-0.068803	-0.301863
C86	C	2.234661	0.431197	0.198137
C87	C	1.811335	-0.261776	-0.567586
C88	C	2.311335	0.238224	-0.067586
C89	C	1.811334	-0.261749	-0.633021
C90	C	2.311334	0.238251	-0.133021
C91	C	1.734539	-0.301807	-0.665726
C92	C	2.234539	0.198193	-0.165726
C93	C	1.657719	-0.341882	-0.632990
C94	C	2.157719	0.158118	-0.132990
C95	C	1.657714	-0.341904	-0.567556
C96	C	2.157714	0.158096	-0.067556
C97	C	1.725008	-0.358222	-0.769389
C98	C	2.225008	0.141778	-0.269389
C99	C	1.725021	-0.358202	-0.834822
C100	C	2.225021	0.141798	-0.334822
C101	C	1.734547	-0.301740	-0.867547
C102	C	2.234547	0.198260	-0.367547
C103	C	1.744085	-0.245298	-0.834831
C104	C	2.244085	0.254702	-0.334831
C105	C	1.744080	-0.245319	-0.769397
C106	C	2.244080	0.254681	-0.269397
C107	C	1.734535	-0.301788	-0.736679
C108	C	2.234535	0.198212	-0.236679
C109	C	1.811354	-0.261635	-0.971228
C110	C	2.311354	0.238365	-0.471228
C111	C	1.811344	-0.261607	-1.036664
C112	C	2.311344	0.238393	-0.536664
C113	C	1.657736	-0.341745	-1.036632
C114	C	2.157736	0.158255	-0.536632
C115	C	1.657739	-0.341768	-0.971197
C116	C	2.157739	0.158232	-0.471197
C117	C	1.734555	-0.301713	-0.938498
C118	C	2.234555	0.198287	-0.438498
C119	C	1.734358	-0.301835	-0.139006
C120	C	2.234358	0.198165	0.360994
C121	C	1.734548	-0.301664	-0.069365
C122	C	2.234548	0.198336	0.430635
H123	H	1.873587	-0.540348	-0.229125
H124	H	2.373587	-0.040348	0.270875
C125	C	1.961610	-0.870149	-0.291553
C126	C	2.461610	-0.370149	0.208447
N127	N	2.051228	-0.897217	-0.287512
N128	N	2.551228	-0.397217	0.212488
C129	C	1.573251	-0.385854	-0.935195
C130	C	2.073251	0.114146	-0.435195
N131	N	1.509608	-0.419061	-0.908078
N132	N	2.009608	0.080939	-0.408078
H133	H	1.873887	-0.228971	-1.063310
H134	H	2.373887	0.271029	-0.563310
H135	H	1.751843	-0.199321	-0.861474
H136	H	2.251843	0.300679	-0.361474
H137	H	1.873681	-0.659057	-0.229150
H138	H	2.373681	-0.159057	0.270850
H139	H	1.873883	-0.229160	-0.540967
H140	H	2.373883	0.270840	-0.040967
C141	C	1.895842	-0.217569	-0.935257
C142	C	2.395842	0.282431	-0.435257
N143	N	1.959477	-0.184377	-0.908166
N144	N	2.459477	0.315623	-0.408166
C145	C	1.573261	-0.385809	-1.072604
C146	C	2.073261	0.114191	-0.572604
N147	N	1.509632	-0.418999	-1.099701
N148	N	2.009632	0.081001	-0.599701
C149	C	1.573221	-0.385990	-0.531554
C150	C	2.073221	0.114010	-0.031554
N151	N	1.509581	-0.419198	-0.504437
N152	N	2.009581	0.080802	-0.004437
H153	H	1.717262	-0.404161	-0.861455
H154	H	2.217262	0.095839	-0.361455
C155	C	1.895834	-0.934632	-0.217760
C156	C	2.395834	-0.434632	0.282240
N157	N	1.959455	-0.907515	-0.184587
N158	N	2.459455	-0.407515	0.315413
C159	C	1.895927	-1.072039	-0.217784
C160	C	2.395927	-0.572039	0.282216
N161	N	1.959569	-1.099130	-0.184611
N162	N	2.459569	-0.599130	0.315389
C163	C	1.714551	-0.420339	-0.733398
C164	C	2.214551	0.079661	-0.233398
N165	N	1.706684	-0.467125	-0.706291
N166	N	2.206684	0.032875	-0.206291
H167	H	1.595245	-0.944041	-0.374475
H168	H	2.095245	-0.444041	0.125525
C169	C	1.754555	-0.183233	-0.733412
C170	C	2.254555	0.316767	-0.233412
N171	N	1.762437	-0.136468	-0.706308
N172	N	2.262437	0.363532	-0.206308
H173	H	1.595188	-0.374495	-0.659623
H174	H	2.095188	0.125505	-0.159623
C175	C	1.573025	-0.531056	-0.385860
C176	C	2.073025	-0.031056	0.114140
N177	N	1.509397	-0.503964	-0.419039
N178	N	2.009397	-0.003964	0.080961
H179	H	1.930612	-0.742102	-0.292919
H180	H	2.430612	-0.242102	0.207081
H181	H	1.873875	-0.229114	-0.659673
H182	H	2.373875	0.270886	-0.159673
C183	C	1.507406	-0.870354	-0.312097
C184	C	2.007406	-0.370354	0.187903
N185	N	1.417821	-0.897498	-0.316159
N186	N	1.917821	-0.397498	0.183841
H187	H	1.595336	-1.062753	-0.374499
H188	H	2.095336	-0.562753	0.125501
H189	H	1.595045	-0.659116	-0.374424
H190	H	2.095045	-0.159116	0.125576
C191	C	1.507302	-0.732949	-0.312056
C192	C	2.007302	-0.232949	0.187944
N193	N	1.417676	-0.705886	-0.316086
N194	N	1.917676	-0.205886	0.183914
