data_functionalizedCrystal
_audit_creation_method	'MofGen! by Chris Wilmer'
_symmetry_space_group_name_H-M	'P1'
_symmetry_Int_Tables_number	1
_symmetry_cell_setting	triclinic
loop_
_symmetry_equiv_pos_as_xyz
  x,y,z
_cell_length_a	18.215407
_cell_length_b	18.101395
_cell_length_c	18.101389
_cell_angle_alpha	89.983159
_cell_angle_beta	89.980853
_cell_angle_gamma	90.031552
loop_
_atom_site_label
_atom_site_type_symbol
_atom_site_fract_x
_atom_site_fract_y
_atom_site_fract_z
Zn1	Zn	1.125035	-0.294898	-0.418745
Zn2	Zn	1.375035	-0.044898	-0.168745
Zn3	Zn	1.625035	0.205102	0.081255
Zn4	Zn	1.875035	0.455102	0.331255
Zn5	Zn	1.124932	-0.418724	-0.294906
Zn6	Zn	1.374932	-0.168724	-0.044906
Zn7	Zn	1.624932	0.081276	0.205094
Zn8	Zn	1.874932	0.331276	0.455094
Zn9	Zn	1.001969	-0.294902	-0.294917
Zn10	Zn	1.251969	-0.044902	-0.044917
Zn11	Zn	1.501969	0.205098	0.205083
Zn12	Zn	1.751969	0.455098	0.455083
Zn13	Zn	1.001920	-0.418704	-0.418706
Zn14	Zn	1.251920	-0.168704	-0.168706
Zn15	Zn	1.501920	0.081296	0.081294
Zn16	Zn	1.751920	0.331296	0.331294
O17	O	1.063464	-0.356807	-0.356818
O18	O	1.313464	-0.106807	-0.106818
O19	O	1.563464	0.143193	0.143182
O20	O	1.813464	0.393193	0.393182
O21	O	1.228006	-0.311331	-0.402329
O22	O	1.478006	-0.061331	-0.152329
O23	O	1.728006	0.188669	0.097671
O24	O	1.978006	0.438669	0.347671
O25	O	1.108598	-0.402309	-0.191275
O26	O	1.358598	-0.152309	0.058725
O27	O	1.608598	0.097691	0.308725
O28	O	1.858598	0.347691	0.558725
O29	O	1.018358	-0.191269	-0.311363
O30	O	1.268358	0.058731	-0.061363
O31	O	1.518358	0.308731	0.188637
O32	O	1.768358	0.558731	0.438637
O33	O	1.227930	-0.402305	-0.311345
O34	O	1.477930	-0.152305	-0.061345
O35	O	1.727930	0.097695	0.188655
O36	O	1.977930	0.347695	0.438655
O37	O	1.108774	-0.191266	-0.402339
O38	O	1.358774	0.058734	-0.152339
O39	O	1.608774	0.308734	0.097661
O40	O	1.858774	0.558734	0.347661
O41	O	1.018258	-0.311337	-0.191283
O42	O	1.268258	-0.061337	0.058717
O43	O	1.518258	0.188663	0.308717
O44	O	1.768258	0.438663	0.558717
O45	O	0.898978	-0.311317	-0.311326
O46	O	1.148978	-0.061317	-0.061326
O47	O	1.398978	0.188683	0.188674
O48	O	1.648978	0.438683	0.438674
O49	O	1.018275	-0.402271	-0.522344
O50	O	1.268275	-0.152271	-0.272344
O51	O	1.518275	0.097729	-0.022344
O52	O	1.768275	0.347729	0.227656
O53	O	0.898942	-0.402274	-0.402274
O54	O	1.148942	-0.152274	-0.152274
O55	O	1.398942	0.097726	0.097726
O56	O	1.648942	0.347726	0.347726
O57	O	1.108726	-0.311311	-0.522372
O58	O	1.358726	-0.061311	-0.272372
O59	O	1.608726	0.188689	-0.022372
O60	O	1.858726	0.438689	0.227628
O61	O	1.108550	-0.522354	-0.311308
O62	O	1.358550	-0.272354	-0.061308
O63	O	1.608550	-0.022354	0.188692
O64	O	1.858550	0.227646	0.438692
O65	O	1.018174	-0.522339	-0.402263
O66	O	1.268174	-0.272339	-0.152263
O67	O	1.518174	-0.022339	0.097737
O68	O	1.768174	0.227661	0.347737
C69	C	0.872258	-0.356794	-0.356797
C70	C	1.122258	-0.106794	-0.106797
C71	C	1.372258	0.143206	0.143203
C72	C	1.622258	0.393206	0.393203
C73	C	0.790459	-0.356807	-0.356806
C74	C	1.040459	-0.106807	-0.106806
C75	C	1.290459	0.143193	0.143194
C76	C	1.540459	0.393193	0.393194
C77	C	1.063366	-0.549218	-0.356797
C78	C	1.313366	-0.299218	-0.106797
C79	C	1.563366	-0.049218	0.143203
C80	C	1.813366	0.200782	0.393203
C81	C	1.063391	-0.631532	-0.356812
C82	C	1.313391	-0.381532	-0.106812
C83	C	1.563391	-0.131532	0.143188
C84	C	1.813391	0.118468	0.393188
C85	C	0.602265	-0.404242	-0.404103
C86	C	0.852265	-0.154242	-0.154103
C87	C	1.102265	0.095758	0.095897
C88	C	1.352265	0.345758	0.345897
C89	C	0.525407	-0.404245	-0.404112
C90	C	0.775407	-0.154245	-0.154112
C91	C	1.025407	0.095755	0.095888
C92	C	1.275407	0.345755	0.345888
C93	C	0.525415	-0.309385	-0.309551
C94	C	0.775415	-0.059385	-0.059551
C95	C	1.025415	0.190615	0.190449
C96	C	1.275415	0.440615	0.440449
C97	C	0.602272	-0.309380	-0.309546
C98	C	0.852272	-0.059380	-0.059546
C99	C	1.102272	0.190620	0.190454
C100	C	1.352272	0.440620	0.440454
C101	C	0.640695	-0.356812	-0.356821
C102	C	0.890695	-0.106812	-0.106821
C103	C	1.140695	0.143188	0.143179
C104	C	1.390695	0.393188	0.393179
C105	C	0.486979	-0.356820	-0.356835
C106	C	0.736979	-0.106820	-0.106835
C107	C	0.986979	0.143180	0.143165
C108	C	1.236979	0.393180	0.393165
C109	C	0.403646	-0.356822	-0.356844
C110	C	0.653646	-0.106822	-0.106844
C111	C	0.903646	0.143178	0.143156
C112	C	1.153646	0.393178	0.393156
C113	C	0.724034	-0.356809	-0.356812
C114	C	0.974034	-0.106809	-0.106812
C115	C	1.224034	0.143191	0.143188
C116	C	1.474034	0.393191	0.393188
C117	C	1.063552	-0.930623	-0.356852
C118	C	1.313552	-0.680623	-0.106852
C119	C	1.563552	-0.430623	0.143148
C120	C	1.813552	-0.180623	0.393148
C121	C	1.006822	-0.899319	-0.414221
C122	C	1.256822	-0.649319	-0.164221
C123	C	1.506822	-0.399319	0.085779
C124	C	1.756822	-0.149319	0.335779
C125	C	1.006552	-0.813701	-0.414041
C126	C	1.256552	-0.563701	-0.164041
C127	C	1.506552	-0.313701	0.085959
C128	C	1.756552	-0.063701	0.335959
C129	C	1.063472	-0.782240	-0.356833
C130	C	1.313472	-0.532240	-0.106833
C131	C	1.563472	-0.282240	0.143167
C132	C	1.813472	-0.032240	0.393167
C133	C	1.042475	-0.813377	-0.278783
C134	C	1.292475	-0.563377	-0.028783
C135	C	1.542475	-0.313377	0.221217
C136	C	1.792475	-0.063377	0.471217
C137	C	1.042110	-0.899023	-0.279127
C138	C	1.292110	-0.649023	-0.029127
C139	C	1.542110	-0.399023	0.220873
C140	C	1.792110	-0.149023	0.470873
C141	C	1.141404	-0.898969	-0.376846
C142	C	1.391404	-0.648969	-0.126846
C143	C	1.641404	-0.398969	0.123154
C144	C	1.891404	-0.148969	0.373154
C145	C	1.140946	-0.813319	-0.378558
C146	C	1.390946	-0.563319	-0.128558
C147	C	1.640946	-0.313319	0.121442
C148	C	1.890946	-0.063319	0.371442
C149	C	1.063428	-0.698381	-0.356817
C150	C	1.313428	-0.448381	-0.106817
C151	C	1.563428	-0.198381	0.143183
C152	C	1.813428	0.051619	0.393183
C153	C	1.063594	-1.014482	-0.356862
C154	C	1.313594	-0.764482	-0.106862
C155	C	1.563594	-0.514482	0.143138
C156	C	1.813594	-0.264482	0.393138
C157	C	1.255417	-0.356820	-0.356840
C158	C	1.505417	-0.106820	-0.106840
C159	C	1.755417	0.143180	0.143160
C160	C	2.005417	0.393180	0.393160
C161	C	1.337216	-0.356826	-0.356850
C162	C	1.587216	-0.106826	-0.106850
C163	C	1.837216	0.143174	0.143150
C164	C	2.087216	0.393174	0.393150
C165	C	1.063507	-0.356788	-0.549980
C166	C	1.313507	-0.106788	-0.299980
C167	C	1.563507	0.143212	-0.049980
C168	C	1.813507	0.393212	0.200020
C169	C	1.063525	-0.356780	-0.632295
C170	C	1.313525	-0.106780	-0.382295
C171	C	1.563525	0.143220	-0.132295
C172	C	1.813525	0.393220	0.117705
C173	C	1.063583	-0.163645	-0.356857
C174	C	1.313583	0.086355	-0.106857
C175	C	1.563583	0.336355	0.143143
C176	C	1.813583	0.586355	0.393143
C177	C	1.063634	-0.081331	-0.356873
C178	C	1.313634	0.168669	-0.106873
C179	C	1.563634	0.418669	0.143127
C180	C	1.813634	0.668669	0.393127
C181	C	1.063568	-0.356642	-0.931386
C182	C	1.313568	-0.106642	-0.681386
C183	C	1.563568	0.143358	-0.431386
C184	C	1.813568	0.393358	-0.181386
C185	C	1.006462	-0.413689	-0.900043
C186	C	1.256462	-0.163689	-0.650043
C187	C	1.506462	0.086311	-0.400043
C188	C	1.756462	0.336311	-0.150043
C189	C	1.006616	-0.413953	-0.814424
C190	C	1.256616	-0.163953	-0.564424
C191	C	1.506616	0.086047	-0.314424
C192	C	1.756616	0.336047	-0.064424
C193	C	1.063546	-0.356710	-0.783003
C194	C	1.313546	-0.106710	-0.533003
C195	C	1.563546	0.143290	-0.283003
C196	C	1.813546	0.393290	-0.033003
C197	C	1.141083	-0.377894	-0.814102
C198	C	1.391083	-0.127894	-0.564102
C199	C	1.641083	0.122106	-0.314102
C200	C	1.891083	0.372106	-0.064102
C201	C	1.140765	-0.378268	-0.899747
C202	C	1.390765	-0.128268	-0.649747
C203	C	1.640765	0.121732	-0.399747
C204	C	1.890765	0.371732	-0.149747
C205	C	1.043811	-0.278284	-0.899810
C206	C	1.293811	-0.028284	-0.649810
C207	C	1.543811	0.221716	-0.399810
C208	C	1.793811	0.471716	-0.149810
C209	C	1.042085	-0.278737	-0.814159
C210	C	1.292085	-0.028737	-0.564159
C211	C	1.542085	0.221263	-0.314159
C212	C	1.792085	0.471263	-0.064159
C213	C	1.063538	-0.356748	-0.699144
C214	C	1.313538	-0.106748	-0.449144
C215	C	1.563538	0.143252	-0.199144
C216	C	1.813538	0.393252	0.050856
C217	C	1.063580	-0.356606	-1.015245
C218	C	1.313580	-0.106606	-0.765245
C219	C	1.563580	0.143394	-0.515245
C220	C	1.813580	0.393394	-0.265245
C221	C	1.063464	-0.356772	-0.164408
C222	C	1.313464	-0.106772	0.085592
C223	C	1.563464	0.143228	0.335592
C224	C	1.813464	0.393228	0.585592
C225	C	1.063589	-0.356572	-0.082094
C226	C	1.313589	-0.106572	0.167906
C227	C	1.563589	0.143428	0.417906
C228	C	1.813589	0.393428	0.667906
H229	H	0.633548	-0.442863	-0.442599
H230	H	0.883548	-0.192863	-0.192599
H231	H	1.133548	0.057137	0.057401
H232	H	1.383548	0.307137	0.307401
Cl233	Cl	1.209660	-0.780244	-0.318753
Cl234	Cl	1.459660	-0.530244	-0.068753
Cl235	Cl	1.709660	-0.280244	0.181247
Cl236	Cl	1.959660	-0.030244	0.431247
Cl237	Cl	0.953984	-0.254074	-0.782785
Cl238	Cl	1.203984	-0.004074	-0.532785
Cl239	Cl	1.453984	0.245926	-0.282785
Cl240	Cl	1.703984	0.495926	-0.032785
H241	H	1.019376	-0.471415	-0.921569
H242	H	1.269376	-0.221415	-0.671569
H243	H	1.519376	0.028585	-0.421569
H244	H	1.769376	0.278585	-0.171569
Cl245	Cl	1.026797	-0.503617	-0.782796
Cl246	Cl	1.276797	-0.253617	-0.532796
Cl247	Cl	1.526797	-0.003617	-0.282796
Cl248	Cl	1.776797	0.246383	-0.032796
H249	H	0.494121	-0.442866	-0.442615
H250	H	0.744121	-0.192866	-0.192615
H251	H	0.994121	0.057134	0.057385
H252	H	1.244121	0.307134	0.307385
Cl253	Cl	1.101624	-0.209630	-0.781149
Cl254	Cl	1.351624	0.040370	-0.531149
Cl255	Cl	1.601624	0.290370	-0.281149
Cl256	Cl	1.851624	0.540370	-0.031149
H257	H	1.085404	-0.235781	-0.920081
H258	H	1.335404	0.014219	-0.670081
H259	H	1.585404	0.264219	-0.420081
H260	H	1.835404	0.514219	-0.170081
H261	H	0.494121	-0.270768	-0.271060
H262	H	0.744121	-0.020768	-0.021060
H263	H	0.994121	0.229232	0.228940
H264	H	1.244121	0.479232	0.478940
H265	H	1.019689	-0.792647	-0.471914
H266	H	1.269689	-0.542647	-0.221914
H267	H	1.519689	-0.292647	0.028086
H268	H	1.769689	-0.042647	0.278086
H269	H	0.633562	-0.270752	-0.271043
H270	H	0.883562	-0.020752	-0.021043
H271	H	1.133562	0.229248	0.228957
H272	H	1.383562	0.479248	0.478957
H273	H	0.949468	-0.920903	-0.401143
H274	H	1.199468	-0.670903	-0.151143
H275	H	1.449468	-0.420903	0.098857
H276	H	1.699468	-0.170903	0.348857
Cl277	Cl	0.917459	-0.782160	-0.393597
Cl278	Cl	1.167459	-0.532160	-0.143597
Cl279	Cl	1.417459	-0.282160	0.106403
Cl280	Cl	1.667459	-0.032160	0.356403
Cl281	Cl	1.026897	-0.931062	-0.503864
Cl282	Cl	1.276897	-0.681062	-0.253864
Cl283	Cl	1.526897	-0.431062	-0.003864
Cl284	Cl	1.776897	-0.181062	0.246136
Cl285	Cl	0.917846	-0.393484	-0.781956
Cl286	Cl	1.167846	-0.143484	-0.531956
Cl287	Cl	1.417846	0.106516	-0.281956
Cl288	Cl	1.667846	0.356516	-0.031956
H289	H	0.985201	-0.919063	-0.262190
H290	H	1.235201	-0.669063	-0.012190
H291	H	1.485201	-0.419063	0.237810
H292	H	1.735201	-0.169063	0.487810
H293	H	1.184774	-0.337649	-0.793751
H294	H	1.434774	-0.087649	-0.543751
H295	H	1.684774	0.162351	-0.293751
H296	H	1.934774	0.412351	-0.043751
Cl297	Cl	0.958032	-0.248488	-0.933139
Cl298	Cl	1.208032	0.001512	-0.683139
Cl299	Cl	1.458032	0.251512	-0.433139
Cl300	Cl	1.708032	0.501512	-0.183139
Cl301	Cl	1.103127	-0.930999	-0.210878
Cl302	Cl	1.353127	-0.680999	0.039122
Cl303	Cl	1.603127	-0.430999	0.289122
Cl304	Cl	1.853127	-0.180999	0.539122
Cl305	Cl	1.166621	-0.466704	-0.930604
Cl306	Cl	1.416621	-0.216704	-0.680604
Cl307	Cl	1.666621	0.033296	-0.430604
Cl308	Cl	1.916621	0.283296	-0.180604
H309	H	1.082495	-0.792999	-0.234874
H310	H	1.332495	-0.542999	0.015126
H311	H	1.582495	-0.292999	0.265126
H312	H	1.832495	-0.042999	0.515126
Cl313	Cl	0.955541	-0.780363	-0.252164
Cl314	Cl	1.205541	-0.530363	-0.002164
Cl315	Cl	1.455541	-0.280363	0.247836
Cl316	Cl	1.705541	-0.030363	0.497836
Cl317	Cl	1.170959	-0.932251	-0.463220
Cl318	Cl	1.420959	-0.682251	-0.213220
Cl319	Cl	1.670959	-0.432251	0.036780
Cl320	Cl	1.920959	-0.182251	0.286780
Cl321	Cl	1.165396	-0.781897	-0.467241
Cl322	Cl	1.415396	-0.531897	-0.217241
Cl323	Cl	1.665396	-0.281897	0.032759
Cl324	Cl	1.915396	-0.031897	0.282759
H325	H	1.183670	-0.919211	-0.335062
H326	H	1.433670	-0.669211	-0.085062
H327	H	1.683670	-0.419211	0.164938
H328	H	1.933670	-0.169211	0.414938
H329	H	1.184755	-0.338521	-0.920483
H330	H	1.434755	-0.088521	-0.670483
H331	H	1.684755	0.161479	-0.420483
H332	H	1.934755	0.411479	-0.170483
Cl333	Cl	0.917419	-0.393430	-0.931826
Cl334	Cl	1.167419	-0.143430	-0.681826
Cl335	Cl	1.417419	0.106570	-0.431826
Cl336	Cl	1.667419	0.356570	-0.181826
Cl337	Cl	1.167392	-0.465391	-0.781001
Cl338	Cl	1.417392	-0.215391	-0.531001
Cl339	Cl	1.667392	0.034609	-0.281001
Cl340	Cl	1.917392	0.284609	-0.031001
