data_functionalizedCrystal
_audit_creation_method	'MofGen! by Chris Wilmer'
_symmetry_space_group_name_H-M	'P1'
_symmetry_Int_Tables_number	1
_symmetry_cell_setting	triclinic
loop_
_symmetry_equiv_pos_as_xyz
  x,y,z
_cell_length_a	35.288094
_cell_length_b	35.277682
_cell_length_c	35.277611
_cell_angle_alpha	89.998451
_cell_angle_beta	59.997844
_cell_angle_gamma	60.000244
loop_
_atom_site_label
_atom_site_type_symbol
_atom_site_fract_x
_atom_site_fract_y
_atom_site_fract_z
O1	O	0.271235	-0.260041	-0.594403
O2	O	0.193635	-0.204918	-0.461657
O3	O	0.271234	-0.204917	-0.539277
O4	O	0.193637	-0.260042	-0.516783
O5	O	0.334261	-0.267964	-0.539277
O6	O	0.256663	-0.267964	-0.461657
O7	O	0.334263	-0.323088	-0.594403
Cu8	Cu	0.301218	-0.301283	-0.528030
Cu9	Cu	0.226681	-0.226723	-0.528030
O10	O	0.256664	-0.323088	-0.516783
C11	C	0.387989	-0.094847	-0.551585
C12	C	0.361387	-0.044845	-0.548365
C13	C	0.365397	-0.117868	-0.551905
C14	C	0.456610	-0.163490	-0.551584
C15	C	0.503379	-0.186882	-0.548365
C16	C	0.433914	-0.186407	-0.551905
C17	C	0.387987	-0.163488	-0.551584
C18	C	0.361383	-0.186879	-0.548365
C19	C	0.433916	-0.117870	-0.551905
C20	C	0.339890	-0.205776	-0.545764
C21	C	0.339895	-0.004448	-0.545764
C22	C	0.541162	-0.205780	-0.545763
C23	C	0.312925	-0.229483	-0.542500
C24	C	0.312933	0.046231	-0.542501
C25	C	0.588564	-0.229489	-0.542500
C26	C	0.466065	-0.432016	-0.966568
C27	C	0.511992	-0.477636	-0.989487
C28	C	0.466062	-0.432018	-0.897924
C29	C	0.511990	-0.477637	-0.920947
C30	C	0.534687	-0.500659	-0.966568
C31	C	0.443472	-0.409099	-0.920947
C32	C	0.342487	-0.320827	-1.008484
C33	C	0.317224	-0.299069	-1.030090
C34	C	0.338910	-0.322523	-1.075298
C35	C	0.311515	-0.298937	-1.098724
C36	C	0.385864	-0.367736	-1.098901
C37	C	0.411128	-0.389489	-1.077297
C38	C	0.389437	-0.366032	-1.032087
C39	C	0.687748	-0.666189	-1.077759
C40	C	0.731099	-0.713066	-1.099518
C41	C	0.752844	-0.736584	-1.076064
C42	C	0.799842	-0.787411	-1.099648
C43	C	0.731238	-0.713219	-1.030850
C44	C	0.687895	-0.666343	-1.009095
C45	C	0.666150	-0.642830	-1.032555
C46	C	0.342479	-0.320832	-0.732389
C47	C	0.317209	-0.299077	-0.685509
C48	C	0.338894	-0.322533	-0.661993
C49	C	0.311496	-0.298948	-0.611163
C50	C	0.385844	-0.367744	-0.685357
C51	C	0.411109	-0.389497	-0.732235
C52	C	0.389425	-0.366035	-0.755749
C53	C	0.416832	-0.389624	-1.008663
C54	C	0.438669	-0.408428	-0.989992
C55	C	0.438665	-0.408431	-0.847095
C56	C	0.416826	-0.389628	-0.806580
C57	C	0.581685	-0.551486	-0.990157
C58	C	0.619148	-0.592001	-1.008961
C59	C	0.061850	-0.500375	-0.493889
C60	C	0.015923	-0.477353	-0.493568
C61	C	0.061849	-0.431732	-0.493889
C62	C	0.015922	-0.408814	-0.493568
C63	C	-0.006773	-0.431733	-0.493889
C64	C	0.084441	-0.477352	-0.493568
C65	C	0.185431	-0.665905	-0.506317
C66	C	0.210696	-0.712782	-0.509830
C67	C	0.189012	-0.736298	-0.511594
C68	C	0.216408	-0.787128	-0.515413
C69	C	0.142058	-0.712934	-0.509840
C70	C	0.116794	-0.666059	-0.506320
C71	C	0.138482	-0.642545	-0.504559
C72	C	-0.159831	-0.389820	-0.506316
C73	C	-0.203181	-0.368215	-0.509830
C74	C	-0.224927	-0.323010	-0.511595
C75	C	-0.271924	-0.299583	-0.515412
C76	C	-0.203322	-0.299407	-0.509842
C77	C	-0.159980	-0.321008	-0.506320
C78	C	-0.138234	-0.366219	-0.504560
C79	C	0.185427	-0.389813	-0.506316
C80	C	0.210694	-0.368208	-0.509836
C81	C	0.189009	-0.323001	-0.511600
C82	C	0.216404	-0.299575	-0.515418
C83	C	0.142059	-0.299402	-0.509848
C84	C	0.116796	-0.321008	-0.506330
C85	C	0.138481	-0.366213	-0.504560
C86	C	0.111085	-0.591717	-0.500746
C87	C	0.089247	-0.551202	-0.497705
C88	C	0.089245	-0.408307	-0.497705
C89	C	0.111082	-0.389636	-0.500746
C90	C	-0.053770	-0.408310	-0.497705
C91	C	-0.091233	-0.389640	-0.500746
O92	O	0.712693	-0.260053	-0.516783
O93	O	0.602476	-0.204924	-0.539277
O94	O	0.602473	-0.204927	-0.461657
O95	O	0.712695	-0.260051	-0.594403
O96	O	0.602470	-0.267971	-0.461657
O97	O	0.602473	-0.267969	-0.539277
O98	O	0.712689	-0.323098	-0.516783
Cu99	Cu	0.657581	-0.301290	-0.528030
Cu100	Cu	0.657585	-0.226732	-0.528030
O101	O	0.712692	-0.323096	-0.594403
O102	O	0.193645	0.196111	-0.516784
O103	O	0.271242	0.063368	-0.539278
O104	O	0.193643	0.140986	-0.461658
O105	O	0.271244	0.118494	-0.594404
O106	O	0.256671	0.140986	-0.461657
O107	O	0.334269	0.063369	-0.539277
O108	O	0.256673	0.196112	-0.516784
Cu109	Cu	0.301226	0.129740	-0.528031
Cu110	Cu	0.226689	0.129740	-0.528031
O111	O	0.334271	0.118494	-0.594404
O112	O	0.925433	-0.936918	-1.130628
O113	O	0.815226	-0.804172	-1.075507
O114	O	0.815214	-0.881785	-1.075502
O115	O	0.925445	-0.859305	-1.130633
O116	O	0.815216	-0.881783	-1.138549
O117	O	0.815228	-0.804171	-1.138555
O118	O	0.925435	-0.936916	-1.193676
Cu119	Cu	0.870332	-0.870544	-1.171872
Cu120	Cu	0.870329	-0.870545	-1.097311
O121	O	0.925448	-0.859304	-1.193681
O122	O	0.256673	-0.267958	-1.193372
O123	O	0.334276	-0.323079	-1.138254
O124	O	0.256673	-0.323077	-1.138240
O125	O	0.334277	-0.267960	-1.193386
O126	O	0.193649	-0.260028	-1.075196
O127	O	0.271253	-0.260030	-1.075209
O128	O	0.193650	-0.204908	-1.130328
Cu129	Cu	0.226697	-0.226712	-1.097012
Cu130	Cu	0.301229	-0.301275	-1.171569
O131	O	0.271254	-0.204911	-1.130342
C132	C	0.071299	-0.094838	-0.234802
C133	C	0.024532	-0.044836	-0.211411
C134	C	0.093995	-0.117860	-0.211884
C135	C	0.139919	-0.163482	-0.303443
C136	C	0.166520	-0.186875	-0.353444
C137	C	0.162511	-0.186400	-0.280421
C138	C	0.139922	-0.163481	-0.234802
C139	C	0.166525	-0.186871	-0.211411
C140	C	0.093993	-0.117862	-0.280421
C141	C	0.188019	-0.205768	-0.192514
C142	C	-0.013251	-0.004439	-0.192514
C143	C	0.188011	-0.205774	-0.393841
C144	C	0.214984	-0.229476	-0.168807
C145	C	-0.060652	0.046241	-0.168807
C146	C	0.214972	-0.229483	-0.444519
C147	C	0.387975	-0.163499	-0.234795
C148	C	0.361371	-0.186891	-0.211404
C149	C	0.365384	-0.117880	-0.211875
C150	C	0.456601	-0.163498	-0.303438
C151	C	0.503371	-0.186889	-0.353441
C152	C	0.433906	-0.117879	-0.280414
C153	C	0.387977	-0.094858	-0.234793
C154	C	0.361374	-0.044857	-0.211400
C155	C	0.433904	-0.186417	-0.280416
C156	C	0.339882	-0.004461	-0.192502
C157	C	0.339876	-0.205788	-0.192507
C158	C	0.541157	-0.205785	-0.393838
C159	C	0.312918	0.046218	-0.168792
C160	C	0.312911	-0.229496	-0.168800
C161	C	0.588561	-0.229492	-0.444519
C162	C	0.139909	0.153291	-0.234794
C163	C	0.166510	0.150072	-0.211401
C164	C	0.093981	0.153611	-0.211876
C165	C	0.139913	0.153291	-0.303439
C166	C	0.166518	0.150073	-0.353442
C167	C	0.093985	0.153611	-0.280416
C168	C	0.071288	0.153290	-0.234795
C169	C	0.024518	0.150071	-0.211404
C170	C	0.162502	0.153612	-0.280415
C171	C	-0.013266	0.147469	-0.192507
C172	C	0.188002	0.147470	-0.192503
C173	C	0.188013	0.147471	-0.393839
C174	C	-0.060669	0.144205	-0.168799
C175	C	0.214963	0.144207	-0.168794
C176	C	0.214979	0.144209	-0.444520
C177	C	1.061887	-0.500389	-0.966559
C178	C	1.084490	-0.477373	-0.989474
C179	C	0.993267	-0.431747	-0.897915
C180	C	1.015974	-0.408835	-0.920934
C181	C	1.061906	-0.431756	-0.966554
C182	C	1.015955	-0.477364	-0.920939
C183	C	1.116180	-0.665906	-1.008483
C184	C	1.141284	-0.712781	-1.030090
C185	C	1.188246	-0.736299	-1.075296
C186	C	1.215474	-0.787126	-1.098724
C187	C	1.210100	-0.712940	-1.098895
C188	C	1.184992	-0.666067	-1.077290
C189	C	1.138029	-0.642551	-1.032082
C190	C	1.185526	-0.389863	-1.077730
C191	C	1.210801	-0.368265	-1.099485
C192	C	1.189127	-0.323063	-1.076029
C193	C	1.216532	-0.299643	-1.099609
C194	C	1.142169	-0.299458	-1.030817
C195	C	1.116889	-0.321053	-1.009066
C196	C	1.138575	-0.366261	-1.032528
C197	C	0.840179	-0.389820	-0.732387
C198	C	0.796827	-0.368214	-0.685509
C199	C	0.775088	-0.323011	-0.661991
C200	C	0.728085	-0.299583	-0.611162
C201	C	0.796706	-0.299417	-0.685351
C202	C	0.840058	-0.321024	-0.732228
C203	C	0.861788	-0.366226	-0.755744
C204	C	1.110810	-0.591726	-1.008657
C205	C	1.089111	-0.551214	-0.989984
C206	C	0.946263	-0.408322	-0.847087
C207	C	0.908795	-0.389649	-0.806573
C208	C	1.089315	-0.408340	-0.990138
C209	C	1.111163	-0.389675	-1.008938
O210	O	0.256644	0.196103	-0.138237
O211	O	0.334249	0.063359	-0.193362
O212	O	0.256638	0.140973	-0.193349
O213	O	0.334256	0.118489	-0.138249
O214	O	0.193621	0.140966	-0.130294
O215	O	0.271233	0.063352	-0.130306
O216	O	0.193627	0.196096	-0.075181
Cu217	Cu	0.226676	0.129724	-0.096986
Cu218	Cu	0.301201	0.129731	-0.171557
O219	O	0.271239	0.118482	-0.075194
C220	C	0.534395	0.095603	-0.966570
C221	C	0.511700	0.095283	-0.989488
C222	C	0.465771	0.095603	-0.897925
C223	C	0.443180	0.095282	-0.920947
C224	C	0.465772	0.095603	-0.966568
C225	C	0.511699	0.095282	-0.920948
C226	C	0.687457	0.108032	-1.008490
C227	C	0.730808	0.111546	-1.030096
C228	C	0.752554	0.113310	-1.075305
C229	C	0.799552	0.117129	-1.098731
C230	C	0.730949	0.111556	-1.098906
C231	C	0.687606	0.108036	-1.077301
C232	C	0.665860	0.106274	-1.032091
C233	C	0.411446	0.108031	-1.077756
C234	C	0.386334	0.111545	-1.099514
C235	C	0.339376	0.113310	-1.076059
C236	C	0.312141	0.117127	-1.099642
C237	C	0.317534	0.111556	-1.030845
C238	C	0.342650	0.108034	-1.009091
C239	C	0.389608	0.106275	-1.032552
C240	C	0.411441	0.108028	-0.732390
C241	C	0.386325	0.111548	-0.685511
C242	C	0.339367	0.113311	-0.661994
C243	C	0.312130	0.117129	-0.611163
C244	C	0.317525	0.111559	-0.685357
C245	C	0.342642	0.108042	-0.732235
C246	C	0.389604	0.106273	-0.755749
C247	C	0.618857	0.102461	-1.008666
C248	C	0.581394	0.099420	-0.989994
C249	C	0.438539	0.099419	-0.847096
C250	C	0.416833	0.102459	-0.806580
C251	C	0.438541	0.099420	-0.990155
C252	C	0.416835	0.102460	-1.008958
H253	H	0.328442	-0.099383	-0.552423
F254	F	1.260775	-0.393388	-1.147599
F255	F	0.208512	-0.437926	-0.504439
H256	H	1.202786	-0.647051	-1.096508
F257	F	0.069165	0.154280	-0.304579
H258	H	0.669756	0.106596	-0.971679
H259	H	0.452901	-0.099396	-0.298900
H260	H	1.203184	-0.426670	-1.096837
F261	F	0.458743	-0.093711	-0.552579
F262	F	0.536815	-0.501798	-0.896787
H263	H	0.248923	-0.387427	-0.511264
H264	H	0.449678	0.106591	-0.751533
F265	F	0.536824	-0.501792	-1.038483
F266	F	1.118026	-0.737638	-1.004973
F267	F	0.754098	0.113429	-1.147019
H268	H	1.124517	-0.262651	-1.011720
F269	F	0.458742	-0.235402	-0.552583
F270	F	0.395165	-0.360107	-0.896786
H271	H	0.278980	-0.262266	-0.666488
H272	H	0.278993	-0.262258	-1.010869
F273	F	0.069166	-0.093702	-0.304580
H274	H	0.074998	-0.099375	-0.174399
H275	H	1.078656	-0.301831	-0.972256
H276	H	0.857653	-0.301808	-0.751246
F277	F	0.317083	-0.093725	-0.162879
F278	F	0.319400	-0.295859	-0.960370
F279	F	0.069154	0.154282	-0.162883
H280	H	0.121396	-0.495836	-0.493050
H281	H	0.324816	-0.301727	-0.751531
H282	H	0.452901	-0.223902	-0.298897
H283	H	0.199459	0.154129	-0.298897
F284	F	0.991158	-0.359847	-0.896771
H285	H	0.779232	-0.387430	-0.666490
F286	F	1.132797	-0.501533	-1.038468
F287	F	0.408943	-0.392694	-1.147013
H288	H	0.996956	-0.495846	-0.902458
F289	F	0.319395	0.106176	-0.757097
H290	H	0.124402	-0.262591	-0.511285
F291	F	-0.136693	-0.437933	-0.504439
F292	F	0.863307	-0.437928	-0.757413
F293	F	1.066198	-0.640882	-0.960371
F294	F	1.260076	-0.737970	-1.147006
H295	H	0.279289	0.112993	-0.666207
H296	H	0.203095	-0.646764	-0.504881
F297	F	0.319404	0.106165	-0.960975
F298	F	0.210819	-0.235391	-0.304582
F299	F	0.773572	-0.251307	-0.660321
F300	F	0.394876	0.094606	-0.896787
H301	H	0.530699	0.094765	-1.026973
F302	F	0.461097	-0.437603	-1.102417
F303	F	0.536533	0.094598	-0.896793
F304	F	0.664614	-0.641166	-1.102730
F305	F	0.409572	0.113412	-0.660649
H306	H	0.748396	0.112972	-1.010878
H307	H	0.748686	-0.732086	-1.136329
H308	H	0.670020	0.106606	-1.096521
F309	F	0.754383	-0.738246	-1.005889
F310	F	0.461430	0.106143	-1.102731
H311	H	-0.003075	-0.495836	-0.493043
F312	F	0.267562	0.113428	-1.005883
F313	F	0.664905	-0.641480	-0.960979
F314	F	0.461077	-0.437613	-0.757098
H315	H	-0.220767	-0.387435	-0.511257
H316	H	0.403499	-0.386844	-0.666207
H317	H	-0.003070	-0.371331	-0.493053
F318	F	0.260665	-0.737644	-0.511699
H319	H	0.404120	0.112975	-1.136325
H320	H	0.124405	-0.732084	-0.511273
F321	F	0.066825	-0.641196	-0.504452
H322	H	-0.221034	-0.262597	-0.511273
F323	F	0.066829	-0.295890	-0.504464
F324	F	-0.136993	-0.295887	-0.504451
