data_functionalizedCrystal
_audit_creation_method	'MofGen! by Chris Wilmer'
_symmetry_space_group_name_H-M	'P1'
_symmetry_Int_Tables_number	1
_symmetry_cell_setting	triclinic
loop_
_symmetry_equiv_pos_as_xyz
  x,y,z
_cell_length_a	21.295417
_cell_length_b	17.639504
_cell_length_c	17.640968
_cell_angle_alpha	70.332680
_cell_angle_beta	101.234808
_cell_angle_gamma	78.788029
loop_
_atom_site_label
_atom_site_type_symbol
_atom_site_fract_x
_atom_site_fract_y
_atom_site_fract_z
Zn1	Zn	0.083223	-1.354408	0.721276
Zn2	Zn	0.583223	-0.854408	1.221276
Zn3	Zn	-0.048750	-1.326409	0.583407
Zn4	Zn	0.451250	-0.826409	1.083407
Zn5	Zn	0.029877	-1.188685	0.555535
Zn6	Zn	0.529877	-0.688685	1.055535
Zn7	Zn	-0.048685	-1.216499	0.693288
Zn8	Zn	0.451315	-0.716499	1.193288
O9	O	0.003916	-1.271500	0.638377
O10	O	0.503916	-0.771500	1.138377
O11	O	0.088014	-1.466047	0.726365
O12	O	0.588014	-0.966047	1.226365
O13	O	-0.060673	-1.284782	0.464361
O14	O	0.439327	-0.784782	0.964361
O15	O	0.125063	-1.210745	0.577569
O16	O	0.625063	-0.710745	1.077569
O17	O	-0.008946	-1.445477	0.625073
O18	O	0.491054	-0.945477	1.125073
O19	O	0.164256	-1.332501	0.699339
O20	O	0.664256	-0.832501	1.199339
O21	O	-0.002906	-1.183597	0.443883
O22	O	0.497094	-0.683597	0.943883
O23	O	-0.002843	-1.077021	0.550430
O24	O	0.497157	-0.577021	1.050430
O25	O	-0.008835	-1.258150	0.812350
O26	O	0.491165	-0.758150	1.312350
O27	O	-0.060562	-1.097455	0.651637
O28	O	0.439438	-0.597455	1.151637
O29	O	0.088077	-1.359471	0.832913
O30	O	0.588077	-0.859471	1.332913
O31	O	-0.136851	-1.311752	0.597934
O32	O	0.363149	-0.811752	1.097934
O33	O	-0.136804	-1.231001	0.678664
O34	O	0.363196	-0.731001	1.178664
C35	C	-0.037484	-1.057328	0.594973
C36	C	0.462516	-0.557328	1.094973
C37	C	-0.055207	-0.965708	0.576424
C38	C	0.444793	-0.465708	1.076424
C39	C	0.138648	-0.717978	0.779479
C40	C	0.638648	-0.217978	1.279479
C41	C	0.121976	-0.631884	0.762033
C42	C	0.621976	-0.131884	1.262033
C43	C	0.021116	-0.610456	0.656406
C44	C	0.521116	-0.110456	1.156406
C45	C	0.037778	-0.696550	0.673846
C46	C	0.537778	-0.196550	1.173846
C47	C	0.096546	-0.750305	0.735383
C48	C	0.596546	-0.250305	1.235383
C49	C	-0.004325	-0.728877	0.629750
C50	C	0.495675	-0.228877	1.129750
C51	C	0.012338	-0.814964	0.647186
C52	C	0.512338	-0.314964	1.147186
C53	C	0.071104	-0.868723	0.708718
C54	C	0.571104	-0.368723	1.208718
C55	C	0.113208	-0.836392	0.752819
C56	C	0.613208	-0.336392	1.252819
C57	C	-0.063089	-0.675120	0.568209
C58	C	0.436911	-0.175120	1.068209
C59	C	-0.105192	-0.707447	0.524112
C60	C	0.394808	-0.207447	1.024112
C61	C	-0.088532	-0.793535	0.541552
C62	C	0.411468	-0.293535	1.041552
C63	C	-0.029767	-0.847295	0.603085
C64	C	0.470233	-0.347295	1.103085
C65	C	-0.130637	-0.825867	0.497451
C66	C	0.369363	-0.325867	0.997451
C67	C	-0.113974	-0.911954	0.514887
C68	C	0.386026	-0.411954	1.014887
C69	C	-0.013104	-0.933382	0.620520
C70	C	0.486896	-0.433382	1.120520
C71	C	-0.159666	-1.271383	0.638309
C72	C	0.340334	-0.771383	1.138309
C73	C	-0.229626	-1.271414	0.638323
C74	C	0.270374	-0.771414	1.138323
C75	C	-0.262478	-1.313518	0.596351
C76	C	0.237522	-0.813518	1.096351
C77	C	-0.328209	-1.313561	0.596377
C78	C	0.171791	-0.813561	1.096377
C79	C	-0.361091	-1.271482	0.638364
C80	C	0.138909	-0.771482	1.138364
C81	C	-0.328231	-1.229376	0.680346
C82	C	0.171769	-0.729376	1.180346
C83	C	-0.262498	-1.229341	0.680325
C84	C	0.237502	-0.729341	1.180325
N85	N	-0.477084	-1.200642	0.630034
N86	N	0.022916	-0.700642	1.130034
N87	N	-0.539528	-1.200676	0.630049
N88	N	-0.039528	-0.700676	1.130049
C89	C	-0.559139	-1.271584	0.638430
C90	C	-0.059139	-0.771584	1.138430
N91	N	-0.513950	-1.342455	0.646780
N92	N	-0.013950	-0.842455	1.146780
N93	N	-0.451502	-1.342420	0.646760
N94	N	0.048498	-0.842420	1.146760
C95	C	-0.432367	-1.271515	0.638392
C96	C	0.067633	-0.771515	1.138392
C97	C	-0.663263	-1.313738	0.596484
C98	C	-0.163263	-0.813738	1.096484
C99	C	-0.728995	-1.313783	0.596517
C100	C	-0.228995	-0.813783	1.096517
C101	C	-0.729018	-1.229590	0.680480
C102	C	-0.229018	-0.729590	1.180480
C103	C	-0.663285	-1.229553	0.680453
C104	C	-0.163285	-0.729553	1.180453
C105	C	-0.630413	-1.271625	0.638451
C106	C	-0.130413	-0.771625	1.138451
C107	C	0.168144	-1.271644	0.638467
C108	C	0.668144	-0.771644	1.138467
C109	C	0.238128	-1.271705	0.638506
C110	C	0.738128	-0.771705	1.138506
C111	C	0.045579	-1.315036	0.853377
C112	C	0.545579	-0.815036	1.353377
C113	C	0.063334	-1.333589	0.944997
C114	C	0.563334	-0.833589	1.444997
C115	C	0.045486	-0.486508	0.681947
C116	C	0.545486	0.013492	1.181947
C117	C	0.063223	-0.578130	0.700507
C118	C	0.563223	-0.078130	1.200507
C119	C	-0.037531	-1.228181	0.424223
C120	C	0.462469	-0.728181	0.924223
C121	C	-0.055077	-1.209788	0.332635
C122	C	0.444923	-0.709788	0.832635
C123	C	-0.130559	-1.130875	1.192801
C124	C	0.369441	-0.630875	1.692801
C125	C	-0.113864	-1.148325	1.278895
C126	C	0.386136	-0.648325	1.778895
C127	C	-0.012958	-1.253822	1.300295
C128	C	0.487042	-0.753822	1.800295
C129	C	-0.029643	-1.236378	1.214200
C130	C	0.470357	-0.736378	1.714200
C131	C	-0.088444	-1.174904	1.160459
C132	C	0.411556	-0.674904	1.660459
C133	C	0.012472	-1.280407	1.181858
C134	C	0.512472	-0.780407	1.681858
C135	C	-0.004213	-1.262966	1.095771
C136	C	0.495787	-0.762966	1.595771
C137	C	-0.063012	-1.201497	1.042026
C138	C	0.436988	-0.701497	1.542026
C139	C	-0.105129	-1.157464	1.074372
C140	C	0.394871	-0.657464	1.574372
C141	C	0.071271	-1.341884	1.235601
C142	C	0.571271	-0.841884	1.735601
C143	C	0.113386	-1.385913	1.203260
C144	C	0.613386	-0.885913	1.703260
C145	C	0.096703	-1.368469	1.117171
C146	C	0.596703	-0.868469	1.617171
C147	C	0.037904	-1.307000	1.063425
C148	C	0.537904	-0.807000	1.563425
C149	C	0.138820	-1.412503	1.084824
C150	C	0.638820	-0.912503	1.584824
C151	C	0.122135	-1.395063	0.998737
C152	C	0.622135	-0.895063	1.498737
C153	C	0.021219	-1.289560	0.977338
C154	C	0.521219	-0.789560	1.477338
H155	H	-0.026731	-0.566677	0.606300
H156	H	0.473269	-0.066677	1.106300
C157	C	0.051725	-1.321434	1.359417
C158	C	0.551725	-0.821434	1.859417
N159	N	0.100449	-1.372356	1.403947
N160	N	0.600449	-0.872356	1.903947
H161	H	-0.235750	-1.195054	0.714505
H162	H	0.264250	-0.695054	1.214505
C163	C	-0.226326	-1.359789	0.550136
C164	C	0.273674	-0.859789	1.050136
N165	N	-0.199096	-1.394636	0.515323
N166	N	0.300904	-0.894636	1.015323
H167	H	0.156269	-0.605568	0.797942
H168	H	0.656269	-0.105568	1.297942
C169	C	-0.627141	-1.183254	0.726647
C170	C	-0.127141	-0.683254	1.226647
N171	N	-0.599914	-1.148391	0.761454
N172	N	-0.099914	-0.648391	1.261454
H173	H	0.084852	-1.356084	1.305699
H174	H	0.584852	-0.856084	1.805699
C175	C	-0.364354	-1.359876	0.550197
C176	C	0.135646	-0.859876	1.050197
N177	N	-0.391578	-1.394758	0.515412
N178	N	0.108422	-0.894758	1.015412
C179	C	-0.195276	-0.766725	0.429758
C180	C	0.304724	-0.266725	0.929758
N181	N	-0.243963	-0.722179	0.378771
N182	N	0.256037	-0.222179	0.878771
H183	H	-0.148259	-0.938274	0.478979
H184	H	0.351741	-0.438274	0.978979
H185	H	-0.355007	-1.195116	0.714534
H186	H	0.144993	-0.695116	1.214534
C187	C	-0.765131	-1.360104	0.550341
C188	C	-0.265131	-0.860104	1.050341
N189	N	-0.792350	-1.394991	0.515558
N190	N	-0.292350	-0.894991	1.015558
C191	C	0.051541	-0.992518	0.688219
C192	C	0.551541	-0.492518	1.188219
N193	N	0.100229	-1.037059	0.739207
N194	N	0.600229	-0.537059	1.239207
H195	H	-0.755788	-1.195333	0.714671
H196	H	-0.255788	-0.695333	1.214671
C197	C	0.203500	-1.480121	1.143950
C198	C	0.703500	-0.980121	1.643950
N199	N	0.252219	-1.531049	1.188482
N200	N	0.752219	-1.031049	1.688482
H201	H	0.156430	-1.430914	0.972405
H202	H	0.656430	-0.930914	1.472405
H203	H	-0.148164	-1.112467	1.305223
H204	H	0.351836	-0.612467	1.805223
H205	H	-0.076598	-1.187302	0.971929
H206	H	0.423402	-0.687302	1.471929
C207	C	0.177853	-0.895528	0.820518
C208	C	0.677853	-0.395528	1.320518
N209	N	0.226542	-0.940069	0.871505
N210	N	0.726542	-0.440069	1.371505
H211	H	-0.076644	-0.605020	0.553997
H212	H	0.423356	-0.105020	1.053997
H213	H	-0.153039	-0.663668	0.474007
H214	H	0.346961	-0.163668	0.974007
C215	C	-0.627097	-1.360033	0.550296
C216	C	-0.127097	-0.860033	1.050296
N217	N	-0.599857	-1.394906	0.515510
N218	N	-0.099857	-0.894906	1.015510
H219	H	-0.026652	-1.239482	0.933575
H220	H	0.473348	-0.739482	1.433575
H221	H	0.084671	-0.938819	0.722910
H222	H	0.584671	-0.438819	1.222910
H223	H	-0.152999	-1.107386	1.030609
H224	H	0.347001	-0.607386	1.530609
C225	C	-0.195243	-1.063249	1.133680
C226	C	0.304757	-0.563249	1.633680
N227	N	-0.243962	-1.012318	1.089152
N228	N	0.256038	-0.512318	1.589152
H229	H	0.186501	-0.761750	0.829592
H230	H	0.686501	-0.261750	1.329592
C231	C	0.178069	-1.453526	1.262382
C232	C	0.678069	-0.953526	1.762382
N233	N	0.226793	-1.504448	1.306912
N234	N	0.726793	-1.004448	1.806912
