data_functionalizedCrystal
_audit_creation_method	'MofGen! by Chris Wilmer'
_symmetry_space_group_name_H-M	'P1'
_symmetry_Int_Tables_number	1
_symmetry_cell_setting	triclinic
loop_
_symmetry_equiv_pos_as_xyz
  x,y,z
_cell_length_a	10.654550
_cell_length_b	12.996460
_cell_length_c	10.654550
_cell_angle_alpha	89.999886
_cell_angle_beta	95.515069
_cell_angle_gamma	90.003002
loop_
_atom_site_label
_atom_site_type_symbol
_atom_site_fract_x
_atom_site_fract_y
_atom_site_fract_z
O1	O	1.667845	0.085490	-0.176391
O2	O	2.167845	0.585490	0.323609
O3	O	1.302367	0.085509	-0.193197
O4	O	1.802367	0.585509	0.306803
O5	O	1.493509	0.085492	-0.002054
O6	O	1.993509	0.585492	0.497946
O7	O	1.476703	0.085506	-0.367533
O8	O	1.976703	0.585506	0.132467
O9	O	1.493484	-0.085642	-0.002065
O10	O	1.993484	0.414358	0.497935
O11	O	1.302342	-0.085625	-0.193208
O12	O	1.802342	0.414375	0.306792
O13	O	1.667820	-0.085644	-0.176401
O14	O	2.167820	0.414356	0.323599
Cu15	Cu	1.485079	-0.101260	-0.184806
Cu16	Cu	1.985079	0.398740	0.315194
Cu17	Cu	1.485108	0.101125	-0.184793
Cu18	Cu	1.985108	0.601125	0.315207
O19	O	1.476678	-0.085628	-0.367544
O20	O	1.976678	0.414372	0.132456
C21	C	1.255556	-0.000056	-0.191968
C22	C	1.755556	0.499944	0.308032
C23	C	1.116113	-0.000049	-0.188276
C24	C	1.616113	0.499951	0.311724
C25	C	1.036628	-0.000048	-0.300818
C26	C	1.536628	0.499952	0.199182
C27	C	0.905607	-0.000066	-0.297341
C28	C	1.405607	0.499934	0.202659
C29	C	0.933570	-0.000082	-0.068772
C30	C	1.433570	0.499918	0.431228
C31	C	1.064588	-0.000071	-0.072250
C32	C	1.564588	0.499929	0.427750
N33	N	1.485068	-0.243608	-0.184814
N34	N	1.985068	0.256392	0.315186
C35	C	1.485073	-0.336714	-0.184817
C36	C	1.985073	0.163286	0.315183
C37	C	1.485085	-0.453519	-0.184809
C38	C	1.985085	0.046481	0.315191
C39	C	1.485100	-0.546617	-0.184795
C40	C	1.985100	-0.046617	0.315205
C41	C	1.485114	-0.663430	-0.184788
C42	C	1.985114	-0.163430	0.315212
C43	C	1.714631	-0.000077	-0.177630
C44	C	2.214631	0.499923	0.322370
C45	C	1.854074	-0.000078	-0.181322
C46	C	2.354074	0.499922	0.318678
C47	C	1.492263	-0.000074	0.044738
C48	C	1.992263	0.499926	0.544738
C49	C	1.488571	-0.000072	0.184181
C50	C	1.988571	0.499928	0.684181
N51	N	1.485130	0.243472	-0.184774
N52	N	1.985130	0.743472	0.315226
C53	C	1.477925	-0.000059	-0.414336
C54	C	1.977925	0.499941	0.085664
C55	C	1.481616	-0.000054	-0.553779
C56	C	1.981616	0.499946	-0.053779
C57	C	1.601112	-0.000078	0.263667
C58	C	2.101112	0.499922	0.763667
C59	C	1.597636	-0.000065	0.394688
C60	C	2.097636	0.499935	0.894688
C61	C	1.369066	-0.000046	0.366725
C62	C	1.869066	0.499954	0.866725
C63	C	1.372544	-0.000051	0.235706
C64	C	1.872544	0.499949	0.735706
H65	H	0.840894	-0.000067	-0.388984
H66	H	1.340894	0.499933	0.111016
H67	H	1.695588	-0.000093	0.221720
H68	H	2.195588	0.499907	0.721720
N69	N	1.251159	-0.000057	0.149957
N70	N	1.751159	0.499943	0.649957
H71	H	1.247521	0.063380	0.094971
H72	H	1.747521	0.563380	0.594971
H73	H	1.177195	-0.000092	0.202558
H74	H	1.677195	0.499908	0.702558
H75	H	1.129309	-0.000075	0.019401
H76	H	1.629309	0.499925	0.519401
N77	N	1.092211	-0.000039	-0.425951
N78	N	1.592211	0.499961	0.074049
H79	H	1.145942	0.063406	-0.432486
H80	H	1.645942	0.563406	0.067514
H81	H	1.021904	-0.000083	-0.496646
H82	H	1.521904	0.499917	0.003354
N83	N	0.877996	-0.000111	0.056366
N84	N	1.377996	0.499889	0.556366
H85	H	0.782935	-0.000118	0.041495
H86	H	1.282935	0.499882	0.541495
H87	H	0.906999	0.063326	0.105677
H88	H	1.406999	0.563326	0.605677
H89	H	1.689279	-0.000067	0.459401
H90	H	2.189279	0.499933	0.959401
H91	H	1.274601	-0.000030	0.408693
H92	H	1.774601	0.499970	0.908693
