data_functionalizedCrystal
_audit_creation_method	'MofGen! by Chris Wilmer'
_symmetry_space_group_name_H-M	'P1'
_symmetry_Int_Tables_number	1
_symmetry_cell_setting	triclinic
loop_
_symmetry_equiv_pos_as_xyz
  x,y,z
_cell_length_a	14.519710
_cell_length_b	16.992695
_cell_length_c	16.053802
_cell_angle_alpha	87.258926
_cell_angle_beta	87.414957
_cell_angle_gamma	92.825816
loop_
_atom_site_label
_atom_site_type_symbol
_atom_site_fract_x
_atom_site_fract_y
_atom_site_fract_z
O1	O	1.234891	-0.099500	-0.069412
O2	O	1.568224	0.233834	0.263922
O3	O	1.901558	0.567167	0.597255
O4	O	0.967283	-0.111605	-0.069418
O5	O	1.300616	0.221729	0.263916
O6	O	1.633950	0.555062	0.597249
O7	O	1.100014	0.008592	-0.069408
O8	O	1.433347	0.341925	0.263925
O9	O	1.766680	0.675258	0.597259
O10	O	1.102160	-0.219696	-0.069421
O11	O	1.435493	0.113637	0.263912
O12	O	1.768827	0.446971	0.597245
O13	O	1.092706	0.002003	0.069450
O14	O	1.426039	0.335336	0.402784
O15	O	1.759373	0.668670	0.736117
O16	O	0.959975	-0.118193	0.069441
O17	O	1.293308	0.215140	0.402774
O18	O	1.626642	0.548473	0.736108
O19	O	1.227583	-0.106088	0.069447
O20	O	1.560916	0.227245	0.402780
O21	O	1.894250	0.560579	0.736113
Zn22	Zn	1.092619	-0.113187	0.091491
Zn23	Zn	1.425952	0.220146	0.424824
Zn24	Zn	1.759285	0.553480	0.758157
Zn25	Zn	1.102247	-0.104506	-0.091461
Zn26	Zn	1.435581	0.228827	0.241872
Zn27	Zn	1.768914	0.562161	0.575205
O28	O	1.094852	-0.226285	0.069437
O29	O	1.428186	0.107049	0.402770
O30	O	1.761519	0.440382	0.736104
C31	C	0.929229	-0.114335	0.000011
C32	C	1.262562	0.218999	0.333344
C33	C	1.595896	0.552332	0.666678
C34	C	0.826726	-0.112644	0.000009
C35	C	1.160060	0.220689	0.333342
C36	C	1.493393	0.554023	0.666676
C37	C	1.265637	-0.103358	0.000016
C38	C	1.598971	0.229975	0.333350
C39	C	1.932304	0.563309	0.666683
C40	C	1.368140	-0.105048	0.000013
C41	C	1.701473	0.228285	0.333346
C42	C	2.034807	0.561618	0.666679
C43	C	1.093600	0.034514	0.000021
C44	C	1.426933	0.367847	0.333354
C45	C	1.760266	0.701181	0.666688
C46	C	1.085364	0.121570	0.000021
C47	C	1.418698	0.454903	0.333354
C48	C	1.752031	0.788236	0.666687
C49	C	1.743483	-0.111272	0.000012
C50	C	2.076816	0.222061	0.333345
C51	C	2.410149	0.555395	0.666679
C52	C	1.639051	-0.109544	0.000012
C53	C	1.972384	0.223790	0.333345
C54	C	2.305717	0.557123	0.666679
C55	C	1.555815	-0.108160	0.000012
C56	C	1.889148	0.225173	0.333345
C57	C	2.222481	0.558506	0.666678
C58	C	1.451376	-0.106432	0.000013
C59	C	1.784709	0.226902	0.333347
C60	C	2.118043	0.560235	0.666680
C61	C	1.101266	-0.252207	0.000006
C62	C	1.434600	0.081127	0.333340
C63	C	1.767933	0.414460	0.666673
C64	C	1.109502	-0.339262	0.000001
C65	C	1.442835	-0.005929	0.333335
C66	C	1.776169	0.327405	0.666668
N67	N	1.086054	-0.119111	0.216350
N68	N	1.419388	0.214223	0.549684
N69	N	1.752721	0.547556	0.883017
C70	C	1.164824	0.171698	0.000023
C71	C	1.498158	0.505032	0.333357
C72	C	1.831491	0.838365	0.666690
C73	C	1.157081	0.253496	0.000015
C74	C	1.490414	0.586830	0.333348
C75	C	1.823748	0.920163	0.666682
C76	C	1.069877	0.285163	0.000010
C77	C	1.403211	0.618497	0.333344
C78	C	1.736544	0.951830	0.666677
C79	C	0.990412	0.235028	0.000005
C80	C	1.323745	0.568361	0.333339
C81	C	1.657078	0.901695	0.666672
C82	C	0.998156	0.153232	0.000007
C83	C	1.331489	0.486566	0.333341
C84	C	1.664823	0.819899	0.666674
C85	C	1.037781	0.528807	-0.000002
C86	C	1.371114	0.862140	0.333332
C87	C	1.704447	1.195473	0.666665
C88	C	1.030042	0.610609	-0.000001
C89	C	1.363376	0.943942	0.333332
C90	C	1.696709	1.277276	0.666665
C91	C	1.196713	0.629072	0.000007
C92	C	1.530046	0.962405	0.333340
C93	C	1.863379	1.295738	0.666673
C94	C	1.204449	0.547273	0.000014
C95	C	1.537782	0.880606	0.333347
C96	C	1.871116	1.213940	0.666681
C97	C	1.124984	0.497145	0.000004
C98	C	1.458317	0.830479	0.333338
C99	C	1.791650	1.163812	0.666671
N100	N	1.061960	0.368774	0.000005
N101	N	1.395294	0.702107	0.333338
N102	N	1.728627	1.035440	0.666671
N103	N	1.132902	0.413537	0.000004
N104	N	1.466235	0.746870	0.333337
N105	N	1.799568	1.080204	0.666671
N106	N	1.108819	-0.098576	-0.216321
N107	N	1.442152	0.234757	0.117012
N108	N	1.775485	0.568091	0.450345
C109	C	1.142555	-0.067985	0.260048
C110	C	1.475888	0.265348	0.593382
C111	C	1.809221	0.598681	0.926715
C112	C	1.137972	-0.072137	0.347455
C113	C	1.471305	0.261197	0.680788
C114	C	1.804639	0.594530	1.014121
C115	C	1.076893	-0.127418	0.391162
C116	C	1.410226	0.205916	0.724495
C117	C	1.743560	0.539249	1.057828
C118	C	1.020386	-0.178546	0.347458
C119	C	1.353719	0.154788	0.680791
C120	C	1.687053	0.488121	1.014124
C121	C	1.024965	-0.174390	0.260053
C122	C	1.358298	0.158943	0.593386
C123	C	1.691632	0.492277	0.926719
C124	C	1.056891	-0.145548	0.652570
C125	C	1.390224	0.187785	0.985903
C126	C	1.723557	0.521119	1.319236
C127	C	1.052318	-0.149701	0.739981
C128	C	1.385651	0.183632	1.073314
C129	C	1.718985	0.516965	1.406647
C130	C	1.169903	-0.043291	0.739972
C131	C	1.503237	0.290042	1.073305
C132	C	1.836570	0.623376	1.406639
C133	C	1.174481	-0.039143	0.652565
C134	C	1.507814	0.294190	0.985899
C135	C	1.841147	0.627523	1.319232
C136	C	1.117970	-0.090268	0.608869
C137	C	1.451304	0.243065	0.942202
C138	C	1.784637	0.576398	1.275536
N139	N	1.072209	-0.131664	0.480505
N140	N	1.405542	0.201669	0.813838
N141	N	1.738876	0.535003	1.147172
N142	N	1.122650	-0.086018	0.519527
N143	N	1.455983	0.247316	0.852860
N144	N	1.789317	0.580649	1.186194
H145	H	1.235835	0.145922	0.000032
H146	H	1.569168	0.479255	0.333365
H147	H	1.902501	0.812589	0.666699
F148	F	1.241654	0.306844	0.000019
F149	F	1.574987	0.640178	0.333353
F150	F	1.908320	0.973511	0.666686
H151	H	1.192296	-0.022973	0.224468
H152	H	1.525629	0.310361	0.557801
H153	H	1.858963	0.643694	0.891135
F154	F	0.964826	-0.228803	0.213547
F155	F	1.298159	0.104530	0.546881
F156	F	1.631493	0.437864	0.880214
H157	H	1.010879	-0.187177	0.616999
H158	H	1.344213	0.146156	0.950332
H159	H	1.677546	0.479489	1.283666
H160	H	1.261409	0.669894	0.000013
H161	H	1.594742	1.003228	0.333346
H162	H	1.928075	1.336561	0.666680
F163	F	0.937223	0.644309	-0.000002
F164	F	1.270557	0.977642	0.333331
F165	F	1.603890	1.310975	0.666664
H166	H	1.224216	0.005871	0.616981
H167	H	1.557549	0.339204	0.950314
H168	H	1.890883	0.672538	1.283648
H169	H	1.183978	-0.030506	0.383033
H170	H	1.517312	0.302828	0.716367
H171	H	1.850645	0.636161	1.049700
H172	H	1.215910	-0.001667	0.775558
H173	H	1.549243	0.331667	1.108891
H174	H	1.882577	0.665000	1.442224
F175	F	0.955375	-0.237377	0.393974
F176	F	1.288709	0.095956	0.727308
F177	F	1.622042	0.429290	1.060641
F178	F	0.987306	-0.208544	0.786491
F179	F	1.320640	0.124789	1.119825
F180	F	1.653973	0.458122	1.453158
H181	H	1.275460	0.521496	0.000018
H182	H	1.608793	0.854830	0.333351
H183	H	1.942126	1.188163	0.666685
H184	H	0.973074	0.488002	-0.000009
H185	H	1.306407	0.821335	0.333324
H186	H	1.639741	1.154669	0.666657
H187	H	0.919408	0.260818	-0.000004
H188	H	1.252742	0.594151	0.333330
H189	H	1.586075	0.927485	0.666663
H190	H	0.933451	0.112417	0.000005
H191	H	1.266784	0.445751	0.333338
H192	H	1.600118	0.779084	0.666672
