data_functionalizedCrystal
_audit_creation_method	'MofGen! by Chris Wilmer'
_symmetry_space_group_name_H-M	'P1'
_symmetry_Int_Tables_number	1
_symmetry_cell_setting	triclinic
loop_
_symmetry_equiv_pos_as_xyz
  x,y,z
_cell_length_a	16.109301
_cell_length_b	14.519731
_cell_length_c	15.186229
_cell_angle_alpha	89.995270
_cell_angle_beta	89.999362
_cell_angle_gamma	83.575167
loop_
_atom_site_label
_atom_site_type_symbol
_atom_site_fract_x
_atom_site_fract_y
_atom_site_fract_z
O1	O	1.103344	0.118539	-0.073175
O2	O	1.603344	0.618539	0.426825
O3	O	0.861309	0.133291	-0.073189
O4	O	1.361309	0.633291	0.426811
O5	O	0.988734	-0.008336	-0.073174
O6	O	1.488734	0.491664	0.426826
O7	O	0.975918	0.260165	-0.073190
O8	O	1.475918	0.760165	0.426810
O9	O	0.988726	-0.008338	0.073284
O10	O	1.488726	0.491662	0.573284
O11	O	0.861300	0.133289	0.073268
O12	O	1.361300	0.633289	0.573268
O13	O	1.103335	0.118537	0.073282
O14	O	1.603335	0.618537	0.573282
Zn15	Zn	0.982316	0.125912	0.096529
Zn16	Zn	1.482316	0.625912	0.596529
Zn17	Zn	0.982328	0.125915	-0.096435
Zn18	Zn	1.482328	0.625915	0.403565
O19	O	0.975910	0.260163	0.073267
O20	O	1.475910	0.760163	0.573267
C21	C	0.830328	0.132692	0.000038
C22	C	1.330328	0.632692	0.500038
C23	C	0.738030	0.130901	0.000033
C24	C	1.238030	0.630901	0.500033
C25	C	0.988129	-0.042695	0.000055
C26	C	1.488129	0.457305	0.500055
C27	C	0.986330	-0.145072	0.000056
C28	C	1.486330	0.354928	0.500056
C29	C	0.515901	0.210773	0.000038
C30	C	1.015901	0.710773	0.500038
C31	C	0.429178	0.209083	0.000044
C32	C	0.929178	0.709083	0.500044
C33	C	0.448750	0.041048	0.000050
C34	C	0.948750	0.541048	0.500050
C35	C	0.535471	0.042739	0.000051
C36	C	1.035471	0.542739	0.500051
C37	C	0.569045	0.127605	0.000040
C38	C	1.069045	0.627605	0.500040
C39	C	0.395599	0.124223	0.000045
C40	C	0.895599	0.624223	0.500045
C41	C	0.301570	0.122389	0.000052
C42	C	0.801570	0.622389	0.500052
C43	C	0.663080	0.129439	0.000036
C44	C	1.163080	0.629439	0.500036
C45	C	0.984868	-0.228213	0.000054
C46	C	1.484868	0.271787	0.500054
C47	C	0.983041	-0.332518	0.000047
C48	C	1.483041	0.167482	0.500047
C49	C	0.981591	-0.415654	0.000041
C50	C	1.481591	0.084346	0.500041
C51	C	0.979764	-0.519965	0.000036
C52	C	1.479764	-0.019965	0.500036
C53	C	1.134316	0.119135	0.000054
C54	C	1.634316	0.619135	0.500054
C55	C	1.226614	0.120927	0.000053
C56	C	1.726614	0.620927	0.500053
C57	C	0.976515	0.294523	0.000036
C58	C	1.476515	0.794523	0.500036
C59	C	0.978314	0.396899	0.000030
C60	C	1.478314	0.896899	0.500030
N61	N	0.982315	0.125910	0.228221
N62	N	1.482315	0.625910	0.728221
N63	N	0.982336	0.125910	-0.228128
N64	N	1.482336	0.625910	0.271872
C65	C	1.038758	0.063219	0.453951
C66	C	1.538758	0.563219	0.953951
C67	C	1.038761	0.063217	0.546141
C68	C	1.538761	0.563217	1.046141
C69	C	0.925886	0.188604	0.546136
C70	C	1.425886	0.688604	1.046136
C71	C	0.925880	0.188601	0.453948
C72	C	1.425880	0.688601	0.953948
C73	C	0.982321	0.125910	0.407858
C74	C	1.482321	0.625910	0.907858
C75	C	0.982330	0.125910	0.592235
C76	C	1.482330	0.625910	1.092235
C77	C	0.982332	0.125908	0.692192
C78	C	1.482332	0.625908	1.192192
C79	C	0.982318	0.125910	0.307895
C80	C	1.482318	0.625910	0.807895
H81	H	0.543233	0.279876	0.000036
H82	H	1.043233	0.779876	0.500036
H83	H	0.578743	-0.024991	0.000055
H84	H	1.078743	0.475009	0.500055
H85	H	1.084714	0.012170	0.416427
H86	H	1.584714	0.512170	0.916427
N87	N	0.868229	0.252640	0.593206
N88	N	1.368229	0.752640	1.093206
N89	N	0.791383	0.251347	0.582916
N90	N	1.291383	0.751347	1.082916
H91	H	0.750660	0.296574	0.616158
H92	H	1.250660	0.796574	1.116158
H93	H	1.084716	0.012167	0.583667
H94	H	1.584716	0.512167	1.083667
N95	N	0.868217	0.252642	0.406872
N96	N	1.368217	0.752642	0.906872
N97	N	0.817831	0.308615	0.448032
N98	N	1.317831	0.808615	0.948032
H99	H	0.777105	0.353840	0.414786
H100	H	1.277105	0.853840	0.914786
H101	H	0.385911	0.276807	0.000043
H102	H	0.885911	0.776807	0.500043
N103	N	0.414467	-0.045644	0.000062
N104	N	0.914467	0.454356	0.500062
N105	N	0.430704	-0.101713	0.061800
N106	N	0.930704	0.398287	0.561800
H107	H	0.406494	-0.162942	0.061807
H108	H	0.906494	0.337058	0.561807
