data_functionalizedCrystal
_audit_creation_method	'MofGen! by Chris Wilmer'
_symmetry_space_group_name_H-M	'P1'
_symmetry_Int_Tables_number	1
_symmetry_cell_setting	triclinic
loop_
_symmetry_equiv_pos_as_xyz
  x,y,z
_cell_length_a	8.559649
_cell_length_b	10.654550
_cell_length_c	7.681481
_cell_angle_alpha	84.203385
_cell_angle_beta	94.913240
_cell_angle_gamma	77.131784
loop_
_atom_site_label
_atom_site_type_symbol
_atom_site_fract_x
_atom_site_fract_y
_atom_site_fract_z
O1	O	2.104699	-0.029228	-0.146401
O2	O	1.640212	0.035560	-0.146409
O3	O	1.883136	-0.180677	-0.146398
O4	O	1.861776	0.187009	-0.146412
O5	O	1.913035	-0.207346	0.146461
O6	O	1.670112	0.008891	0.146450
O7	O	2.134598	-0.055897	0.146458
Zn8	Zn	1.907102	-0.027737	0.192952
Zn9	Zn	1.867709	0.007400	-0.192903
O10	O	1.891675	0.160340	0.146447
C11	C	1.595686	0.027135	0.000019
C12	C	1.418468	0.041750	0.000016
C13	C	1.896517	-0.240647	0.000029
C14	C	1.891824	-0.379605	0.000023
C15	C	2.034854	-0.473866	0.000031
C16	C	2.030434	-0.604430	0.000018
C17	C	1.739944	-0.546457	-0.000002
C18	C	1.744364	-0.415896	-0.000003
C19	C	2.182315	-0.437576	0.000056
C20	C	2.325356	-0.531840	0.000066
C21	C	2.320937	-0.662403	0.000054
C22	C	2.173475	-0.698703	0.000032
C23	C	2.179124	-0.047472	0.000026
C24	C	2.356341	-0.062085	0.000018
C25	C	1.878293	0.220311	0.000016
C26	C	1.882985	0.359270	0.000011
N27	N	1.933999	-0.051719	0.456287
N28	N	1.840824	0.031371	-0.456238
H29	H	2.185930	-0.331269	0.000072
O30	O	1.727547	0.132599	0.453866
C31	C	1.803217	0.211320	0.347242
H32	H	1.924705	0.151724	0.319784
H33	H	1.723693	0.249345	0.217537
H34	H	1.822442	0.296545	0.418182
O35	O	1.320217	0.161211	-0.000304
C36	C	1.334538	0.242366	-0.151956
H37	H	1.379982	0.180340	-0.257963
H38	H	1.211717	0.308602	-0.202877
H39	H	1.423493	0.303780	-0.117661
H40	H	2.029129	-0.136528	0.531497
O41	O	2.468462	-0.496367	0.000157
C42	C	2.441694	-0.360914	0.000123
H43	H	2.323134	-0.323224	0.055564
H44	H	2.544813	-0.337554	0.085155
H45	H	2.435491	-0.312436	-0.140373
H46	H	1.438728	-0.162163	0.000012
O47	O	1.596641	-0.581627	-0.000323
C48	C	1.493861	-0.518255	-0.151978
H49	H	1.569235	-0.489666	-0.257989
H50	H	1.419880	-0.586337	-0.202889
H51	H	1.409361	-0.427521	-0.117691
O52	O	2.459792	-0.754109	0.000285
C53	C	2.481427	-0.845168	0.151975
H54	H	2.359821	-0.844169	0.202533
H55	H	2.536309	-0.946138	0.117859
H56	H	2.565645	-0.818832	0.258193
O57	O	2.169002	-0.825512	0.000246
C58	C	2.103379	-0.867067	0.151936
H59	H	2.026278	-0.779513	0.202510
H60	H	2.025539	-0.937058	0.117814
H61	H	2.205252	-0.918231	0.258143
H62	H	1.627896	-0.339145	-0.000007
