data_functionalizedCrystal
_audit_creation_method	'MofGen! by Chris Wilmer'
_symmetry_space_group_name_H-M	'P1'
_symmetry_Int_Tables_number	1
_symmetry_cell_setting	triclinic
loop_
_symmetry_equiv_pos_as_xyz
  x,y,z
_cell_length_a	16.974800
_cell_length_b	15.455313
_cell_length_c	16.109298
_cell_angle_alpha	87.330355
_cell_angle_beta	83.424670
_cell_angle_gamma	89.026089
loop_
_atom_site_label
_atom_site_type_symbol
_atom_site_fract_x
_atom_site_fract_y
_atom_site_fract_z
O1	O	1.049046	-0.001547	0.105985
O2	O	1.549046	0.498453	0.605985
O3	O	0.819610	0.014565	0.118682
O4	O	1.319610	0.514565	0.618682
O5	O	0.940632	0.006072	-0.008682
O6	O	1.440632	0.506072	0.491318
O7	O	0.928023	0.006946	0.233348
O8	O	1.428023	0.506946	0.733348
O9	O	0.933711	-0.137704	-0.001429
O10	O	1.433711	0.362296	0.498571
O11	O	0.812689	-0.129211	0.125935
O12	O	1.312689	0.370789	0.625935
O13	O	1.042125	-0.145324	0.113238
O14	O	1.542125	0.354676	0.613238
Cu15	Cu	0.926775	-0.150395	0.120249
Cu16	Cu	1.426775	0.349605	0.620249
Cu17	Cu	0.934959	0.019637	0.111671
Cu18	Cu	1.434959	0.519637	0.611671
O19	O	0.921103	-0.136831	0.240601
O20	O	1.421103	0.363169	0.740601
C21	C	0.786790	-0.055261	0.121692
C22	C	1.286790	0.444739	0.621692
C23	C	0.699309	-0.049117	0.119848
C24	C	1.199309	0.450883	0.619848
C25	C	0.654442	-0.124605	0.122933
C26	C	1.154442	0.375395	0.622933
C27	C	0.572246	-0.118835	0.121186
C28	C	1.072246	0.381165	0.621186
C29	C	0.534917	-0.037576	0.116360
C30	C	1.034917	0.462424	0.616360
C31	C	0.579790	0.037918	0.113273
C32	C	1.079790	0.537918	0.613273
C33	C	0.661986	0.032147	0.115013
C34	C	1.161986	0.532147	0.615013
C35	C	0.289494	-0.011911	0.110725
C36	C	0.789494	0.488089	0.610725
C37	C	0.207293	-0.006146	0.108987
C38	C	0.707293	0.493854	0.608987
C39	C	0.199754	-0.162899	0.116899
C40	C	0.699754	0.337101	0.616899
C41	C	0.281951	-0.168663	0.118644
C42	C	0.781951	0.331337	0.618644
C43	C	0.326817	-0.093170	0.115552
C44	C	0.826817	0.406830	0.615552
N45	N	0.450899	-0.031675	0.114577
N46	N	0.950899	0.468325	0.614577
N47	N	0.410835	-0.099071	0.117329
N48	N	0.910835	0.400929	0.617329
N49	N	0.921024	-0.269987	0.126281
N50	N	1.421024	0.230013	0.626281
C51	C	0.972457	-0.318991	0.072193
C52	C	1.472457	0.181009	0.572193
C53	C	0.968115	-0.409494	0.076763
C54	C	1.468115	0.090506	0.576763
C55	C	0.912344	-0.450992	0.135425
C56	C	1.412344	0.049008	0.635425
C57	C	0.860906	-0.401982	0.189516
C58	C	1.360906	0.098018	0.689516
C59	C	0.865245	-0.311480	0.184942
C60	C	1.365245	0.188520	0.684942
C61	C	0.893617	-0.721260	0.155148
C62	C	1.393617	-0.221260	0.655148
C63	C	0.889284	-0.811768	0.159720
C64	C	1.389284	-0.311768	0.659720
C65	C	0.996492	-0.819274	0.046965
C66	C	1.496492	-0.319274	0.546965
C67	C	1.000829	-0.728770	0.042399
C68	C	1.500829	-0.228770	0.542399
C69	C	0.949389	-0.679768	0.096487
C70	C	1.449389	-0.179768	0.596487
N71	N	0.907906	-0.543501	0.140100
N72	N	1.407906	-0.043501	0.640100
N73	N	0.953823	-0.587260	0.091808
N74	N	1.453823	-0.087260	0.591808
C75	C	1.074945	-0.075495	0.110227
C76	C	1.574945	0.424505	0.610227
C77	C	1.162426	-0.081634	0.112072
C78	C	1.662426	0.418366	0.612072
C79	C	0.936662	-0.065777	-0.036032
C80	C	1.436662	0.434223	0.463968
C81	C	0.935132	-0.065659	-0.128332
C82	C	1.435132	0.434341	0.371668
N83	N	0.940716	0.139228	0.105632
N84	N	1.440716	0.639228	0.605632
C85	C	0.933911	0.013046	-0.431366
C86	C	1.433911	0.513046	0.068634
C87	C	0.935360	0.012951	-0.344643
C88	C	1.435360	0.512951	0.155357
C89	C	0.927826	-0.143803	-0.336721
C90	C	1.427826	0.356197	0.163279
C91	C	0.926383	-0.143707	-0.423443
C92	C	1.426383	0.356293	0.076557
C93	C	0.929422	-0.065280	-0.470763
C94	C	1.429422	0.434720	0.029237
C95	C	0.932313	-0.065471	-0.297317
C96	C	1.432313	0.434529	0.202683
C97	C	0.933884	-0.065575	-0.203288
C98	C	1.433884	0.434425	0.296712
C99	C	0.927853	-0.065175	-0.564799
C100	C	1.427853	0.434825	-0.064799
C101	C	0.925073	-0.064980	0.267951
C102	C	1.425073	0.435020	0.767951
C103	C	0.926603	-0.065092	0.360251
C104	C	1.426603	0.434908	0.860251
H105	H	0.535721	-0.180306	0.123684
H106	H	1.035721	0.319694	0.623684
H107	H	1.046242	-0.694984	-0.005369
H108	H	1.546242	-0.194984	0.494631
C109	C	0.940296	0.099115	-0.301310
C110	C	1.440296	0.599115	0.198690
N111	N	0.944015	0.164019	-0.268672
N112	N	1.444015	0.664019	0.231328
H113	H	0.925350	-0.207656	-0.298182
H114	H	1.425350	0.292344	0.201818
C115	C	0.921442	-0.229876	-0.466782
C116	C	1.421442	0.270124	0.033218
N117	N	0.917721	-0.294776	-0.499425
N118	N	1.417721	0.205224	0.000575
C119	C	1.033809	-0.273351	0.007658
C120	C	1.533809	0.226649	0.507658
N121	N	1.080020	-0.238978	-0.040954
N122	N	1.580020	0.261022	0.459046
C123	C	0.937271	0.099317	-0.483418
C124	C	1.437271	0.599317	0.016582
N125	N	0.939808	0.164299	-0.522622
N126	N	1.439808	0.664299	-0.022622
C127	C	0.695496	-0.213998	0.128241
C128	C	1.195496	0.286002	0.628241
N129	N	0.726416	-0.281331	0.132235
N130	N	1.226416	0.218669	0.632235
H131	H	0.549391	0.104081	0.109337
H132	H	1.049391	0.604081	0.609337
H133	H	1.038372	-0.859179	0.002928
H134	H	1.538372	-0.359179	0.502928
H135	H	0.326015	0.049561	0.108204
H136	H	0.826015	0.549561	0.608204
C137	C	0.323007	-0.258055	0.123948
C138	C	0.823007	0.241945	0.623948
N139	N	0.353930	-0.325386	0.127944
N140	N	0.853930	0.174614	0.627944
C141	C	0.150396	-0.245937	0.120291
C142	C	0.650396	0.254063	0.620291
N143	N	0.113220	-0.308484	0.122842
N144	N	0.613220	0.191516	0.622842
C145	C	0.799550	-0.447633	0.254039
C146	C	1.299550	0.052367	0.754039
N147	N	0.753335	-0.482017	0.302638
N148	N	1.253335	0.017983	0.802638
C149	C	0.711338	0.115190	0.111621
C150	C	1.211338	0.615190	0.611621
N151	N	0.748510	0.177741	0.109064
N152	N	1.248510	0.677741	0.609064
C153	C	0.166233	0.083250	0.103677
C154	C	0.666233	0.583250	0.603677
N155	N	0.135306	0.150579	0.099680
N156	N	0.635306	0.650579	0.599680
H157	H	1.009995	-0.449392	0.032719
H158	H	1.509995	0.050608	0.532719
H159	H	0.823362	-0.271582	0.228985
H160	H	1.323362	0.228418	0.728985
H161	H	0.843866	-0.845551	0.207494
H162	H	1.343866	-0.345551	0.707494
H163	H	0.851733	-0.681369	0.199190
H164	H	1.351733	-0.181369	0.699190
