data_functionalizedCrystal
_audit_creation_method	'MofGen! by Chris Wilmer'
_symmetry_space_group_name_H-M	'P1'
_symmetry_Int_Tables_number	1
_symmetry_cell_setting	triclinic
loop_
_symmetry_equiv_pos_as_xyz
  x,y,z
_cell_length_a	18.215407
_cell_length_b	18.215405
_cell_length_c	18.215399
_cell_angle_alpha	90.032960
_cell_angle_beta	90.016824
_cell_angle_gamma	90.025333
loop_
_atom_site_label
_atom_site_type_symbol
_atom_site_fract_x
_atom_site_fract_y
_atom_site_fract_z
Zn1	Zn	-1.125050	0.292966	-0.416103
Zn2	Zn	-0.875050	0.542966	-0.166103
Zn3	Zn	-0.625050	0.792966	0.083897
Zn4	Zn	-0.375050	1.042966	0.333897
Zn5	Zn	-1.124965	0.416042	-0.293031
Zn6	Zn	-0.874965	0.666042	-0.043031
Zn7	Zn	-0.624965	0.916042	0.206969
Zn8	Zn	-0.374965	1.166042	0.456969
Zn9	Zn	-1.001989	0.292995	-0.293050
Zn10	Zn	-0.751989	0.542995	-0.043050
Zn11	Zn	-0.501989	0.792995	0.206950
Zn12	Zn	-0.251989	1.042995	0.456950
Zn13	Zn	-1.001949	0.415996	-0.416056
Zn14	Zn	-0.751949	0.665996	-0.166056
Zn15	Zn	-0.501949	0.915996	0.083944
Zn16	Zn	-0.251949	1.165996	0.333944
O17	O	-1.063488	0.354500	-0.354560
O18	O	-0.813488	0.604500	-0.104560
O19	O	-0.563488	0.854500	0.145440
O20	O	-0.313488	1.104500	0.395440
O21	O	-1.228023	0.309299	-0.399788
O22	O	-0.978023	0.559299	-0.149788
O23	O	-0.728023	0.809299	0.100212
O24	O	-0.478023	1.059299	0.350212
O25	O	-1.108633	0.399751	-0.190049
O26	O	-0.858633	0.649751	0.059951
O27	O	-0.608633	0.899751	0.309951
O28	O	-0.358633	1.149751	0.559951
O29	O	-1.018366	0.190007	-0.309401
O30	O	-0.768366	0.440007	-0.059401
O31	O	-0.518366	0.690007	0.190599
O32	O	-0.268366	0.940007	0.440599
O33	O	-1.227961	0.399723	-0.309368
O34	O	-0.977961	0.649723	-0.059368
O35	O	-0.727961	0.899723	0.190632
O36	O	-0.477961	1.149723	0.440632
O37	O	-1.108778	0.189985	-0.399807
O38	O	-0.858778	0.439985	-0.149807
O39	O	-0.608778	0.689985	0.100193
O40	O	-0.358778	0.939985	0.350193
O41	O	-1.018283	0.309349	-0.190063
O42	O	-0.768283	0.559349	0.059937
O43	O	-0.518283	0.809349	0.309937
O44	O	-0.268283	1.059349	0.559937
O45	O	-0.898999	0.309304	-0.309355
O46	O	-0.648999	0.559304	-0.059355
O47	O	-0.398999	0.809304	0.190645
O48	O	-0.148999	1.059304	0.440645
O49	O	-1.018297	0.399644	-0.519046
O50	O	-0.768297	0.649644	-0.269046
O51	O	-0.518297	0.899644	-0.019046
O52	O	-0.268297	1.149644	0.230954
O53	O	-0.898970	0.399672	-0.399727
O54	O	-0.648970	0.649672	-0.149727
O55	O	-0.398970	0.899672	0.100273
O56	O	-0.148970	1.149672	0.350273
O57	O	-1.108739	0.309254	-0.519081
O58	O	-0.858739	0.559254	-0.269081
O59	O	-0.608739	0.809254	-0.019081
O60	O	-0.358739	1.059254	0.230919
O61	O	-1.108594	0.519020	-0.309322
O62	O	-0.858594	0.769020	-0.059322
O63	O	-0.608594	1.019020	0.190678
O64	O	-0.358594	1.269020	0.440678
O65	O	-1.018214	0.518986	-0.399708
O66	O	-0.768214	0.768986	-0.149708
O67	O	-0.518214	1.018986	0.100292
O68	O	-0.268214	1.268986	0.350292
C69	C	-0.872282	0.354487	-0.354539
C70	C	-0.622282	0.604487	-0.104539
C71	C	-0.372282	0.854487	0.145461
C72	C	-0.122282	1.104487	0.395461
C73	C	-0.790483	0.354499	-0.354547
C74	C	-0.540483	0.604499	-0.104547
C75	C	-0.290483	0.854499	0.145453
C76	C	-0.040483	1.104499	0.395453
C77	C	-1.063410	0.545706	-0.354524
C78	C	-0.813410	0.795706	-0.104524
C79	C	-0.563410	1.045706	0.145476
C80	C	-0.313410	1.295706	0.395476
C81	C	-1.063445	0.627505	-0.354534
C82	C	-0.813445	0.877505	-0.104534
C83	C	-0.563445	1.127505	0.145466
C84	C	-0.313445	1.377505	0.395466
C85	C	-1.063523	0.354441	-0.546513
C86	C	-0.813523	0.604441	-0.296513
C87	C	-0.563523	0.854441	-0.046513
C88	C	-0.313523	1.104441	0.203487
C89	C	-1.063538	0.354416	-0.628312
C90	C	-0.813538	0.604416	-0.378312
C91	C	-0.563538	0.854416	-0.128312
C92	C	-0.313538	1.104416	0.121688
C93	C	-1.255441	0.354513	-0.354581
C94	C	-1.005441	0.604513	-0.104581
C95	C	-0.755441	0.854513	0.145419
C96	C	-0.505441	1.104513	0.395419
C97	C	-1.337240	0.354518	-0.354591
C98	C	-1.087240	0.604518	-0.104591
C99	C	-0.837240	0.854518	0.145409
C100	C	-0.587240	1.104518	0.395409
C101	C	-0.602293	0.401628	-0.401545
C102	C	-0.352293	0.651628	-0.151545
C103	C	-0.102293	0.901628	0.098455
C104	C	0.147707	1.151628	0.348455
C105	C	-0.525434	0.401630	-0.401554
C106	C	-0.275434	0.651630	-0.151554
C107	C	-0.025434	0.901630	0.098446
C108	C	0.224566	1.151630	0.348446
C109	C	-0.525436	0.307384	-0.307591
C110	C	-0.275436	0.557384	-0.057591
C111	C	-0.025436	0.807384	0.192409
C112	C	0.224564	1.057384	0.442409
C113	C	-0.602293	0.307379	-0.307586
C114	C	-0.352293	0.557379	-0.057586
C115	C	-0.102293	0.807379	0.192414
C116	C	0.147707	1.057379	0.442414
C117	C	-0.640720	0.354505	-0.354562
C118	C	-0.390720	0.604505	-0.104562
C119	C	-0.140720	0.854505	0.145438
C120	C	0.109280	1.104505	0.395438
C121	C	-0.487003	0.354513	-0.354576
C122	C	-0.237003	0.604513	-0.104576
C123	C	0.012997	0.854513	0.145424
C124	C	0.262997	1.104513	0.395424
C125	C	-0.403670	0.354515	-0.354585
C126	C	-0.153670	0.604515	-0.104585
C127	C	0.096330	0.854515	0.145415
C128	C	0.346330	1.104515	0.395415
C129	C	-0.724059	0.354502	-0.354553
C130	C	-0.474059	0.604502	-0.104553
C131	C	-0.224059	0.854502	0.145447
C132	C	0.025941	1.104502	0.395447
C133	C	-1.063586	0.162547	-0.354611
C134	C	-0.813586	0.412547	-0.104611
C135	C	-0.563586	0.662547	0.145389
C136	C	-0.313586	0.912547	0.395389
C137	C	-1.063628	0.080748	-0.354633
C138	C	-0.813628	0.330748	-0.104633
C139	C	-0.563628	0.580748	0.145367
C140	C	-0.313628	0.830748	0.395367
C141	C	-1.110616	0.815692	-0.307556
C142	C	-0.860616	1.065692	-0.057556
C143	C	-0.610616	1.315692	0.192444
C144	C	-0.360616	1.565692	0.442444
C145	C	-1.110649	0.892551	-0.307574
C146	C	-0.860649	1.142551	-0.057574
C147	C	-0.610649	1.392551	0.192426
C148	C	-0.360649	1.642551	0.442426
C149	C	-1.016455	0.892555	-0.401616
C150	C	-0.766455	1.142555	-0.151616
C151	C	-0.516455	1.392555	0.098384
C152	C	-0.266455	1.642555	0.348384
C153	C	-1.016426	0.815698	-0.401601
C154	C	-0.766426	1.065698	-0.151601
C155	C	-0.516426	1.315698	0.098399
C156	C	-0.266426	1.565698	0.348399
C157	C	-1.063506	0.777268	-0.354567
C158	C	-0.813506	1.027268	-0.104567
C159	C	-0.563506	1.277268	0.145433
C160	C	-0.313506	1.527268	0.395433
C161	C	-1.063567	0.930984	-0.354600
C162	C	-0.813567	1.180984	-0.104600
C163	C	-0.563567	1.430984	0.145400
C164	C	-0.313567	1.680984	0.395400
C165	C	-1.063602	1.014318	-0.354619
C166	C	-0.813602	1.264318	-0.104619
C167	C	-0.563602	1.514318	0.145381
C168	C	-0.313602	1.764318	0.395381
C169	C	-1.063471	0.693929	-0.354548
C170	C	-0.813471	0.943929	-0.104548
C171	C	-0.563471	1.193929	0.145452
C172	C	-0.313471	1.443929	0.395452
C173	C	-1.016532	0.307311	-0.816514
C174	C	-0.766532	0.557311	-0.566514
C175	C	-0.516532	0.807311	-0.316514
C176	C	-0.266532	1.057311	-0.066514
C177	C	-1.016545	0.307297	-0.893373
C178	C	-0.766545	0.557297	-0.643373
C179	C	-0.516545	0.807297	-0.393373
C180	C	-0.266545	1.057297	-0.143373
C181	C	-1.110631	0.401432	-0.893347
C182	C	-0.860631	0.651432	-0.643347
C183	C	-0.610631	0.901432	-0.393347
C184	C	-0.360631	1.151432	-0.143347
C185	C	-1.110614	0.401450	-0.816490
C186	C	-0.860614	0.651450	-0.566490
C187	C	-0.610614	0.901450	-0.316490
C188	C	-0.360614	1.151450	-0.066490
C189	C	-1.063566	0.354386	-0.778075
C190	C	-0.813566	0.604386	-0.528075
C191	C	-0.563566	0.854386	-0.278075
C192	C	-0.313566	1.104386	-0.028075
C193	C	-1.063596	0.354353	-0.931791
C194	C	-0.813596	0.604353	-0.681791
C195	C	-0.563596	0.854353	-0.431791
C196	C	-0.313596	1.104353	-0.181791
C197	C	-1.063610	0.354337	-1.015125
C198	C	-0.813610	0.604337	-0.765125
C199	C	-0.563610	0.854337	-0.515125
C200	C	-0.313610	1.104337	-0.265125
C201	C	-1.063550	0.354402	-0.694736
C202	C	-0.813550	0.604402	-0.444736
C203	C	-0.563550	0.854402	-0.194736
C204	C	-0.313550	1.104402	0.055264
C205	C	-1.063496	0.354505	-0.163353
C206	C	-0.813496	0.604505	0.086647
C207	C	-0.563496	0.854505	0.336647
C208	C	-0.313496	1.104505	0.586647
C209	C	-1.063624	0.354323	-0.081555
C210	C	-0.813624	0.604323	0.168445
C211	C	-0.563624	0.854323	0.418445
C212	C	-0.313624	1.104323	0.668445
H213	H	-0.633578	0.439999	-0.439797
H214	H	-0.383578	0.689999	-0.189797
H215	H	-0.133578	0.939999	0.060203
H216	H	0.116422	1.189999	0.310203
H217	H	-0.978245	0.268965	-0.924666
H218	H	-0.728245	0.518965	-0.674666
H219	H	-0.478245	0.768965	-0.424666
H220	H	-0.228245	1.018965	-0.174666
H221	H	-0.494150	0.440002	-0.439813
H222	H	-0.244150	0.690002	-0.189813
H223	H	0.005850	0.940002	0.060187
H224	H	0.255850	1.190002	0.310187
F225	F	-0.966286	0.774802	-0.451643
F226	F	-0.716286	1.024802	-0.201643
F227	F	-0.466286	1.274802	0.048357
F228	F	-0.216286	1.524802	0.298357
F229	F	-1.160702	0.451518	-0.934237
F230	F	-0.910702	0.701518	-0.684237
F231	F	-0.660702	0.951518	-0.434237
F232	F	-0.410702	1.201518	-0.184237
H233	H	-1.148916	0.439786	-0.785192
H234	H	-0.898916	0.689786	-0.535192
H235	H	-0.648916	0.939786	-0.285192
H236	H	-0.398916	1.189786	-0.035192
H237	H	-0.978123	0.923854	-0.439908
H238	H	-0.728123	1.173854	-0.189908
H239	H	-0.478123	1.423854	0.060092
H240	H	-0.228123	1.673854	0.310092
F241	F	-0.484533	0.257233	-0.257598
F242	F	-0.234533	0.507233	-0.007598
F243	F	0.015467	0.757233	0.242402
F244	F	0.265467	1.007233	0.492402
H245	H	-1.148952	0.784404	-0.269260
H246	H	-0.898952	1.034404	-0.019260
H247	H	-0.648952	1.284404	0.230740
H248	H	-0.398952	1.534404	0.480740
F249	F	-1.160792	0.933440	-0.257541
F250	F	-0.910792	1.183440	-0.007541
F251	F	-0.660792	1.433440	0.242459
F252	F	-0.410792	1.683440	0.492459
F253	F	-0.643192	0.257217	-0.257582
F254	F	-0.393192	0.507217	-0.007582
F255	F	-0.143192	0.757217	0.242418
F256	F	0.106808	1.007217	0.492418
H257	H	-0.978223	0.268989	-0.785239
H258	H	-0.728223	0.518989	-0.535239
H259	H	-0.478223	0.768989	-0.285239
H260	H	-0.228223	1.018989	-0.035239
