data_functionalizedCrystal
_audit_creation_method	'MofGen! by Chris Wilmer'
_symmetry_space_group_name_H-M	'P1'
_symmetry_Int_Tables_number	1
_symmetry_cell_setting	triclinic
loop_
_symmetry_equiv_pos_as_xyz
  x,y,z
_cell_length_a	17.699083
_cell_length_b	15.944551
_cell_length_c	16.776229
_cell_angle_alpha	89.992397
_cell_angle_beta	89.998886
_cell_angle_gamma	83.390877
loop_
_atom_site_label
_atom_site_type_symbol
_atom_site_fract_x
_atom_site_fract_y
_atom_site_fract_z
O1	O	1.004260	0.106222	-0.066178
O2	O	1.504260	0.606222	0.433822
O3	O	0.783905	0.120042	-0.066204
O4	O	1.283905	0.620042	0.433796
O5	O	0.900100	-0.009156	-0.066183
O6	O	1.400100	0.490844	0.433817
O7	O	0.888065	0.235419	-0.066199
O8	O	1.388065	0.735419	0.433801
O9	O	0.900084	-0.009164	0.066393
O10	O	1.400084	0.490836	0.566393
O11	O	0.783890	0.120034	0.066372
O12	O	1.283890	0.620034	0.566372
O13	O	1.004244	0.106214	0.066398
O14	O	1.504244	0.606214	0.566398
Zn15	Zn	0.894065	0.113123	0.087435
Zn16	Zn	1.394065	0.613123	0.587435
Zn17	Zn	0.894085	0.113133	-0.087241
Zn18	Zn	1.394085	0.613133	0.412759
O19	O	0.888050	0.235411	0.066377
O20	O	1.388050	0.735411	0.566377
C21	C	0.755700	0.119542	0.000080
C22	C	1.255700	0.619542	0.500080
C23	C	0.671679	0.118057	0.000071
C24	C	1.171679	0.618057	0.500071
C25	C	0.623187	0.193893	0.000066
C26	C	1.123187	0.693893	0.500066
C27	C	0.544242	0.192492	0.000076
C28	C	1.044242	0.692492	0.500076
C29	C	0.513789	0.115254	0.000086
C30	C	1.013789	0.615254	0.500086
C31	C	0.562287	0.039412	0.000093
C32	C	1.062287	0.539412	0.500093
C33	C	0.641231	0.040814	0.000088
C34	C	1.141231	0.540814	0.500088
C35	C	0.243914	0.033758	0.000113
C36	C	0.743914	0.533758	0.500113
C37	C	0.164964	0.032362	0.000115
C38	C	0.664964	0.532362	0.500115
C39	C	0.146925	0.185436	0.000101
C40	C	0.646925	0.685436	0.500101
C41	C	0.225869	0.186837	0.000096
C42	C	0.725869	0.686837	0.500096
C43	C	0.274360	0.110996	0.000108
C44	C	0.774360	0.610996	0.500108
C45	C	0.359962	0.112516	0.000098
C46	C	0.859962	0.612516	0.500098
C47	C	0.428189	0.113733	0.000090
C48	C	0.928189	0.613733	0.500090
C49	C	0.899593	-0.040453	0.000105
C50	C	1.399593	0.459547	0.500105
C51	C	0.898095	-0.133696	0.000105
C52	C	1.398095	0.366304	0.500105
C53	C	0.822492	-0.348393	0.000085
C54	C	1.322492	0.151607	0.500085
C55	C	0.857592	-0.409488	0.065458
C56	C	1.357592	0.090512	0.565458
C57	C	0.895385	-0.304416	0.000099
C58	C	1.395385	0.195584	0.500099
C59	C	0.857624	-0.409464	-0.065252
C60	C	1.357624	0.090536	0.434748
C61	C	0.892762	-0.469323	0.000089
C62	C	1.392762	0.030677	0.500089
C63	C	0.930505	-0.364283	0.065525
C64	C	1.430505	0.135717	0.565525
C65	C	0.930527	-0.364252	-0.065244
C66	C	1.430527	0.135748	0.434756
C67	C	0.965680	-0.425329	0.000145
C68	C	1.465680	0.074671	0.500145
C69	C	0.896894	-0.209417	0.000105
C70	C	1.396894	0.290583	0.500105
C71	C	0.891259	-0.564321	0.000089
C72	C	1.391259	-0.064321	0.500089
C73	C	1.032450	0.106713	0.000112
C74	C	1.532450	0.606713	0.500112
C75	C	1.116471	0.108199	0.000116
C76	C	1.616471	0.608199	0.500116
C77	C	0.888557	0.266708	0.000087
C78	C	1.388557	0.766708	0.500087
C79	C	0.890055	0.359951	0.000082
C80	C	1.390055	0.859951	0.500082
N81	N	0.894056	0.113115	0.206646
N82	N	1.394056	0.613115	0.706646
N83	N	0.894099	0.113134	-0.206452
N84	N	1.394099	0.613134	0.293548
C85	C	0.945523	0.055930	0.248372
C86	C	1.445523	0.555930	0.748372
C87	C	0.945527	0.055929	0.331824
C88	C	1.445527	0.555929	0.831824
C89	C	0.894068	0.113118	0.373549
C90	C	1.394068	0.613118	0.873549
C91	C	0.842595	0.170306	0.331816
C92	C	1.342595	0.670306	0.831816
C93	C	0.842588	0.170302	0.248366
C94	C	1.342588	0.670302	0.748366
C95	C	0.842623	0.170323	0.668364
C96	C	1.342623	0.670323	1.168364
C97	C	0.842636	0.170324	0.751820
C98	C	1.342636	0.670324	1.251820
C99	C	0.945562	0.055949	0.751822
C100	C	1.445562	0.555949	1.251822
C101	C	0.945555	0.055945	0.668372
C102	C	1.445555	0.555945	1.168372
C103	C	0.894080	0.113130	0.626647
C104	C	1.394080	0.613130	1.126647
C105	C	0.894075	0.113129	0.536158
C106	C	1.394075	0.613129	1.036158
C107	C	0.894076	0.113124	0.464036
C108	C	1.394076	0.613124	0.964036
H109	H	0.504763	0.254246	0.000072
H110	H	1.004763	0.754246	0.500072
H111	H	0.800728	0.216896	0.785791
H112	H	1.300728	0.716896	1.285791
O113	O	0.099742	0.259056	-0.000008
O114	O	0.599742	0.759056	0.499992
C115	C	0.053547	0.262837	-0.068677
C116	C	0.553547	0.762837	0.431323
H117	H	0.049549	0.196174	-0.091559
H118	H	0.549549	0.696174	0.408441
H119	H	-0.005783	0.294248	-0.053233
H120	H	0.494217	0.794248	0.446767
H121	H	0.079518	0.301146	-0.116764
H122	H	0.579518	0.801146	0.383236
H123	H	0.987435	0.009364	0.365798
H124	H	1.487435	0.509364	0.865798
O125	O	0.135471	-0.042724	0.000024
O126	O	0.635471	0.457276	0.500024
C127	C	0.160233	-0.088941	-0.068641
C128	C	0.660233	0.411059	0.431359
H129	H	0.214988	-0.066167	-0.091538
H130	H	0.714988	0.433833	0.408462
H131	H	0.171182	-0.158912	-0.053187
H132	H	0.671182	0.341088	0.446813
H133	H	0.114552	-0.079118	-0.116722
H134	H	0.614552	0.420882	0.383278
H135	H	0.987430	0.009363	0.214406
H136	H	1.487430	0.509363	0.714406
H137	H	0.250659	0.249732	0.000085
H138	H	0.750659	0.749732	0.500085
O139	O	0.291085	-0.039858	0.000008
O140	O	0.791085	0.460142	0.500008
C141	C	0.337273	-0.043637	-0.068667
C142	C	0.837273	0.456363	0.431333
H143	H	0.341275	0.023028	-0.091560
H144	H	0.841275	0.523028	0.408440
H145	H	0.396603	-0.075056	-0.053227
H146	H	0.896603	0.424944	0.446773
H147	H	0.311293	-0.081936	-0.116745
H148	H	0.811293	0.418064	0.383255
O149	O	0.792598	0.225954	0.627963
O150	O	1.292598	0.725954	1.127963
C151	C	0.747172	0.276418	0.682687
C152	C	1.247172	0.776418	1.182687
H153	H	0.778211	0.277324	0.742168
H154	H	1.278211	0.777324	1.242168
H155	H	0.735623	0.343515	0.658568
H156	H	1.235623	0.843515	1.158568
H157	H	0.690952	0.249221	0.691578
H158	H	1.190952	0.749221	1.191578
O159	O	0.532670	-0.035596	-0.000039
O160	O	1.032670	0.464404	0.499961
C161	C	0.487530	-0.040973	-0.068690
C162	C	0.987530	0.459027	0.431310
H163	H	0.506201	0.002884	-0.116685
H164	H	1.006201	0.502884	0.383315
H165	H	0.494612	-0.108682	-0.091732
H166	H	0.994612	0.391318	0.408268
H167	H	0.425276	-0.021472	-0.053166
H168	H	0.925276	0.478528	0.446834
O169	O	0.820945	-0.433462	-0.131209
O170	O	1.320945	0.066538	0.368791
C171	C	0.871106	-0.489441	-0.176813
C172	C	1.371106	0.010559	0.323187
H173	H	0.918387	-0.520513	-0.136856
H174	H	1.418387	-0.020513	0.363144
H175	H	0.838569	-0.540084	-0.204052
H176	H	1.338569	-0.040084	0.295948
H177	H	0.896923	-0.452994	-0.226407
H178	H	1.396923	0.047006	0.273593
O179	O	1.037965	-0.464928	0.000089
O180	O	1.537965	0.035072	0.500089
C181	C	1.076553	-0.440825	-0.068227
C182	C	1.576553	0.059175	0.431773
H183	H	1.048145	-0.377469	-0.090793
H184	H	1.548145	0.122531	0.409207
H185	H	1.138364	-0.434904	-0.052447
H186	H	1.638364	0.065096	0.447553
H187	H	1.074355	-0.490609	-0.116683
H188	H	1.574355	0.009391	0.383317
H189	H	0.987460	0.009380	0.634402
H190	H	1.487460	0.509380	1.134402
H191	H	0.961338	-0.344183	-0.120506
H192	H	1.461338	0.155817	0.379494
H193	H	0.800692	0.216868	0.365793
H194	H	1.300692	0.716868	0.865793
H195	H	0.987473	0.009384	0.785804
H196	H	1.487473	0.509384	1.285804
O197	O	0.688230	-0.032931	0.000053
O198	O	1.188230	0.467069	0.500053
C199	C	0.644426	-0.101405	0.000080
C200	C	1.144426	0.398595	0.500080
H201	H	0.585505	-0.079965	-0.025018
H202	H	1.085505	0.420035	0.474982
H203	H	0.673544	-0.154528	-0.038408
H204	H	1.173544	0.345472	0.461592
H205	H	0.638806	-0.125091	0.063686
H206	H	1.138806	0.374909	0.563686
H207	H	0.826754	-0.429535	0.120718
H208	H	1.326754	0.070465	0.620718
H209	H	0.800678	0.216867	0.214393
H210	H	1.300678	0.716867	0.714393
O211	O	0.750299	-0.308537	0.000291
O212	O	1.250299	0.191463	0.500291
C213	C	0.712134	-0.331459	0.069328
C214	C	1.212134	0.168541	0.569328
H215	H	0.755577	-0.353544	0.117265
H216	H	1.255577	0.146456	0.617265
H217	H	0.673200	-0.274594	0.092135
H218	H	1.173200	0.225406	0.592135
H219	H	0.676765	-0.384773	0.054409
H220	H	1.176765	0.115227	0.554409
H221	H	0.647975	0.256789	0.000058
H222	H	1.147975	0.756789	0.500058
H223	H	0.961304	-0.344360	0.120853
H224	H	1.461304	0.155640	0.620853
