data_functionalizedCrystal
_audit_creation_method	'MofGen! by Chris Wilmer'
_symmetry_space_group_name_H-M	'P1'
_symmetry_Int_Tables_number	1
_symmetry_cell_setting	triclinic
loop_
_symmetry_equiv_pos_as_xyz
  x,y,z
_cell_length_a	14.044220
_cell_length_b	23.532407
_cell_length_c	12.503572
_cell_angle_alpha	93.496478
_cell_angle_beta	86.164750
_cell_angle_gamma	88.018778
loop_
_atom_site_label
_atom_site_type_symbol
_atom_site_fract_x
_atom_site_fract_y
_atom_site_fract_z
O1	O	1.261903	0.134222	-0.089227
O2	O	0.985982	0.129269	-0.089253
O3	O	1.132262	0.049265	-0.089219
O4	O	1.115623	0.214225	-0.089260
O5	O	1.121261	0.055293	0.089420
O6	O	0.974981	0.135296	0.089386
O7	O	1.250902	0.140249	0.089413
Cu8	Cu	1.111937	0.138323	0.105711
Cu9	Cu	1.124947	0.131195	-0.105551
O10	O	1.104622	0.220253	0.089379
C11	C	0.945188	0.130115	0.000063
C12	C	0.840023	0.123648	0.000054
C13	C	0.647472	0.111828	0.000078
C14	C	0.589407	0.157687	0.000072
C15	C	0.482265	0.151110	0.000085
C16	C	0.754624	0.118404	0.000065
C17	C	1.126337	0.031040	0.000103
C18	C	1.125063	-0.032246	0.000111
C19	C	1.203641	-0.427092	0.000060
C20	C	1.202458	-0.486556	0.000051
O21	O	1.275300	-0.519354	0.000019
N22	N	1.115494	-0.513896	0.000044
C23	C	1.029708	-0.481769	0.000034
O24	O	0.955630	-0.510484	0.000026
C25	C	1.030893	-0.422305	0.000034
C26	C	1.117862	-0.394968	0.000053
C27	C	1.290603	-0.399754	0.000077
C28	C	1.291786	-0.340294	0.000087
C29	C	1.206006	-0.308170	0.000080
C30	C	1.119044	-0.335508	0.000063
C31	C	0.945109	-0.390179	0.000016
C32	C	0.946301	-0.330712	0.000016
C33	C	1.033270	-0.303375	0.000035
C34	C	1.034447	-0.243924	0.000066
N35	N	1.121411	-0.216584	0.000074
C36	C	1.207191	-0.248707	0.000081
C37	C	1.027228	-0.606646	0.000031
C38	C	1.026042	-0.666108	0.000038
C39	C	1.198792	-0.670891	0.000053
C40	C	1.199976	-0.611428	0.000054
C41	C	1.114192	-0.579306	0.000038
C42	C	1.209668	-0.123835	0.000103
C43	C	1.210842	-0.064369	0.000118
C44	C	1.038093	-0.059591	0.000097
C45	C	1.036917	-0.119052	0.000088
C46	C	1.122713	-0.151173	0.000087
O47	O	0.961644	-0.211090	0.000095
O48	O	1.281258	-0.219985	0.000075
C49	C	1.291696	0.139403	0.000094
C50	C	1.396861	0.145869	0.000096
C51	C	1.110547	0.238478	0.000054
C52	C	1.111822	0.301763	0.000039
N53	N	1.102793	0.143337	0.254301
N54	N	1.134098	0.126177	-0.254141
C55	C	1.089342	0.150717	0.473413
C56	C	1.147546	0.118799	0.526753
C57	C	1.140062	0.122905	0.648675
C58	C	1.096825	0.146611	0.351480
H59	H	0.620163	0.201888	0.000055
H60	H	0.616718	0.067631	0.000095
H61	H	1.360460	-0.425903	0.000079
O62	O	1.376355	-0.313835	0.000049
C63	C	1.547568	-0.324876	0.000122
C64	C	1.451858	-0.354908	0.000145
H65	H	1.608636	-0.358069	0.000223
H66	H	1.557117	-0.299692	-0.074654
H67	H	1.547798	-0.294624	0.074867
H68	H	1.451561	-0.385187	-0.074549
H69	H	1.442347	-0.380055	0.074971
O70	O	1.295415	-0.037907	0.000084
C71	C	1.466629	-0.048936	0.000161
C72	C	1.370925	-0.078975	0.000177
H73	H	1.527703	-0.082125	0.000259
H74	H	1.476174	-0.023749	-0.074612
H75	H	1.466852	-0.018686	0.074908
H76	H	1.370635	-0.109252	-0.074519
H77	H	1.361418	-0.104125	0.075000
O78	O	0.941479	-0.692570	-0.000016
C79	C	0.770257	-0.681531	0.000032
C80	C	0.865961	-0.651494	0.000076
H81	H	0.709174	-0.648334	0.000129
H82	H	0.769918	-0.711748	-0.074751
H83	H	0.760828	-0.706754	0.074770
H84	H	0.875451	-0.626240	-0.074611
H85	H	0.866256	-0.621310	0.074908
H86	H	1.202998	0.088389	0.480853
O87	O	1.292994	-0.155063	-0.000082
C88	C	1.397612	-0.228105	-0.092583
C89	C	1.303233	-0.192770	-0.092530
H90	H	1.405911	-0.258608	-0.167308
H91	H	1.460003	-0.198373	-0.092636
H92	H	1.396761	-0.253521	-0.017791
H93	H	1.303990	-0.167350	-0.167309
H94	H	1.240883	-0.222532	-0.092421
H95	H	1.270794	-0.589174	0.000068
H96	H	1.033896	0.181126	0.519308
O97	O	1.282193	-0.702045	-0.000093
C98	C	1.435146	-0.727480	-0.092674
C99	C	1.340754	-0.692158	-0.092629
H100	H	1.482510	-0.719508	-0.167493
H101	H	1.473445	-0.714450	-0.017962
H102	H	1.419328	-0.774670	-0.092631
H103	H	1.356488	-0.644959	-0.092711
H104	H	1.302483	-0.705236	-0.167335
O105	O	0.943925	-0.575426	-0.000160
C106	C	0.850706	-0.508609	-0.092674
C107	C	0.945077	-0.543941	-0.092603
H108	H	0.851614	-0.483135	-0.167396
H109	H	0.788322	-0.538345	-0.092747
H110	H	0.842344	-0.478158	-0.017878
H111	H	0.953531	-0.574394	-0.167386
H112	H	1.007413	-0.514172	-0.092474
O113	O	0.860612	-0.416704	-0.000199
C114	C	0.718281	-0.433869	-0.092758
C115	C	0.813965	-0.403811	-0.092657
H116	H	0.680530	-0.423447	-0.167490
H117	H	0.732095	-0.481897	-0.092830
H118	H	0.671350	-0.418483	-0.017973
H119	H	0.860944	-0.419150	-0.167428
H120	H	0.800080	-0.355788	-0.092528
H121	H	0.876442	-0.304561	0.000002
H122	H	0.966098	-0.141310	0.000102
O123	O	0.954809	-0.028361	-0.000104
C124	C	0.861642	0.038472	-0.092641
C125	C	0.955994	0.003123	-0.092549
H126	H	0.862577	0.063945	-0.167364
H127	H	0.799242	0.008749	-0.092725
H128	H	0.853284	0.068924	-0.017846
H129	H	0.964444	-0.027332	-0.167331
H130	H	1.018346	0.032880	-0.092409
