data_functionalizedCrystal
_audit_creation_method	'MofGen! by Chris Wilmer'
_symmetry_space_group_name_H-M	'P1'
_symmetry_Int_Tables_number	1
_symmetry_cell_setting	triclinic
loop_
_symmetry_equiv_pos_as_xyz
  x,y,z
_cell_length_a	10.654549
_cell_length_b	14.853559
_cell_length_c	9.730217
_cell_angle_alpha	89.998938
_cell_angle_beta	89.997559
_cell_angle_gamma	84.059186
loop_
_atom_site_label
_atom_site_type_symbol
_atom_site_fract_x
_atom_site_fract_y
_atom_site_fract_z
O1	O	1.666512	0.126646	-0.114316
O2	O	1.300908	0.138706	-0.114311
O3	O	1.493482	0.001498	-0.114312
O4	O	1.473939	0.263854	-0.114315
O5	O	1.493476	0.001497	0.114268
O6	O	1.300902	0.138704	0.114269
O7	O	1.666506	0.126645	0.114264
Zn8	Zn	1.483703	0.132674	0.150559
Zn9	Zn	1.483711	0.132676	-0.150605
O10	O	1.473933	0.263852	0.114265
C11	C	1.254117	0.137819	-0.000020
C12	C	1.114701	0.135167	-0.000018
C13	C	0.823057	0.294257	-0.000059
C14	C	0.873726	0.377540	-0.000054
C15	C	1.004718	0.380035	-0.000036
C16	C	1.085046	0.299238	-0.000027
C17	C	1.034378	0.215955	-0.000032
C18	C	0.903381	0.213469	-0.000046
C19	C	1.064033	0.051883	-0.000023
C20	C	0.933042	0.049387	-0.000031
C21	C	1.144362	-0.028914	-0.000014
C22	C	1.093694	-0.112199	-0.000009
C23	C	0.962693	-0.114690	-0.000026
C24	C	0.882373	-0.033896	-0.000036
C25	C	1.492595	-0.032096	-0.000025
C26	C	1.489947	-0.132195	-0.000032
C27	C	1.478718	-0.555429	-0.124631
C28	C	1.478711	-0.555425	0.124575
C29	C	1.481209	-0.461379	0.124577
C30	C	1.482460	-0.414353	-0.000028
C31	C	1.481212	-0.461374	-0.124634
C32	C	1.482444	-0.414350	0.249180
C33	C	1.484941	-0.320297	0.249186
C34	C	1.486201	-0.273270	0.124580
C35	C	1.484955	-0.320297	-0.000031
C36	C	1.486205	-0.273271	-0.124636
C37	C	1.484968	-0.320297	-0.249248
C38	C	1.482472	-0.414347	-0.249240
C39	C	1.488697	-0.179220	0.124572
C40	C	1.488700	-0.179215	-0.124638
C41	C	1.713298	0.127532	-0.000030
C42	C	1.852713	0.130184	-0.000041
C43	C	1.474819	0.297447	-0.000025
C44	C	1.477467	0.397545	-0.000027
N45	N	1.483707	0.132673	0.356095
N46	N	1.483717	0.132671	-0.356142
C47	C	1.654300	0.011211	0.356085
C48	C	1.739605	-0.049517	0.428019
C49	C	1.739618	-0.049518	0.571899
C50	C	1.654314	0.011215	0.643847
C51	C	1.569009	0.071943	0.571913
C52	C	1.569008	0.071939	0.428030
C53	C	1.398412	0.193399	0.571923
C54	C	1.398403	0.193405	0.428044
C55	C	1.313109	0.254131	0.643872
C56	C	1.227808	0.314865	0.571937
C57	C	1.227799	0.314864	0.428049
C58	C	1.313099	0.254133	0.356109
H59	H	0.775711	-0.035917	-0.000038
O60	O	0.913330	-0.195538	0.000150
C61	C	0.782705	-0.293607	0.118596
C62	C	0.838494	-0.202006	0.118553
H63	H	0.722210	-0.298873	0.214328
H64	H	0.722049	-0.298891	0.022994
H65	H	0.862643	-0.350903	0.118535
H66	H	0.758637	-0.144656	0.118662
H67	H	0.899183	-0.196800	0.214146
H68	H	1.809057	-0.098967	0.369426
H69	H	1.158354	0.364305	0.630527
H70	H	1.191705	0.301276	-0.000028
O71	O	1.486102	-0.274478	0.370105
C72	C	1.490039	-0.129598	0.480554
C73	C	1.488692	-0.181374	0.343517
H74	H	1.492160	-0.054317	0.459105
H75	H	1.401711	-0.140313	0.542024
H76	H	1.577343	-0.155851	0.541994
H77	H	1.401447	-0.155154	0.281966
H78	H	1.577078	-0.170659	0.282150
O79	O	1.822595	-0.108546	0.641570
C80	C	1.991739	-0.229069	0.626392
C81	C	1.897863	-0.162252	0.547319
H82	H	2.052599	-0.272521	0.550225
H83	H	2.054622	-0.189770	0.693711
H84	H	1.937421	-0.274427	0.693797
H85	H	1.952078	-0.116878	0.479840
H86	H	1.834980	-0.201607	0.480088
H87	H	1.481419	-0.452645	0.350627
H88	H	1.489724	-0.140934	-0.226108
O89	O	1.481200	-0.460160	-0.370156
C90	C	1.477418	-0.605060	-0.480587
C91	C	1.478832	-0.553282	-0.343556
H92	H	1.475530	-0.680360	-0.459129
H93	H	1.390070	-0.578928	-0.542049
H94	H	1.565708	-0.594221	-0.542039
H95	H	1.390602	-0.564098	-0.281993
H96	H	1.566238	-0.579423	-0.282198
O97	O	1.144885	0.373944	0.358389
C98	C	0.975617	0.494375	0.373602
C99	C	1.069470	0.427529	0.452655
H100	H	0.914601	0.537703	0.449783
H101	H	1.029828	0.539847	0.306274
H102	H	0.912881	0.455009	0.306210
H103	H	1.132229	0.466821	0.520123
H104	H	1.015181	0.382057	0.519897
H105	H	0.716395	0.292234	-0.000049
O106	O	0.795516	0.455938	0.000002
C107	C	0.580570	0.524819	-0.000103
C108	C	0.668991	0.435967	-0.000131
H109	H	0.478257	0.508704	-0.000241
H110	H	0.598906	0.565774	0.095582
H111	H	0.599102	0.565766	-0.095739
H112	H	0.650512	0.394948	0.095439
H113	H	0.650637	0.395081	-0.095880
H114	H	1.489676	-0.140934	0.226030
H115	H	1.159106	-0.177977	-0.000011
H116	H	1.045970	0.447851	-0.000030
H117	H	1.251021	-0.026876	-0.000006
H118	H	1.485977	-0.281995	-0.350701
H119	H	1.477715	-0.593722	-0.226088
H120	H	1.654320	0.011203	0.761002
H121	H	1.477685	-0.593719	0.226023
H122	H	1.654309	0.011213	0.238930
H123	H	1.313117	0.254124	0.761026
H124	H	1.313104	0.254130	0.238955
