data_functionalizedCrystal
_audit_creation_method	'MofGen! by Chris Wilmer'
_symmetry_space_group_name_H-M	'P1'
_symmetry_Int_Tables_number	1
_symmetry_cell_setting	triclinic
loop_
_symmetry_equiv_pos_as_xyz
  x,y,z
_cell_length_a	17.699083
_cell_length_b	13.339070
_cell_length_c	16.176319
_cell_angle_alpha	89.996815
_cell_angle_beta	89.998611
_cell_angle_gamma	99.456154
loop_
_atom_site_label
_atom_site_type_symbol
_atom_site_fract_x
_atom_site_fract_y
_atom_site_fract_z
O1	O	1.031106	0.127864	-0.068625
O2	O	0.814244	0.144499	-0.068651
O3	O	0.897786	-0.011021	-0.068639
O4	O	0.947564	0.283384	-0.068637
O5	O	0.897768	-0.011031	0.068855
O6	O	0.814226	0.144489	0.068842
O7	O	1.031088	0.127854	0.068868
Cu8	Cu	0.922655	0.136171	0.081409
Cu9	Cu	0.922677	0.136182	-0.081192
O10	O	0.947546	0.283374	0.068856
C11	C	0.785912	0.143898	0.000092
C12	C	0.701516	0.142110	0.000082
C13	C	0.672191	0.233397	0.000082
C14	C	0.592891	0.231710	0.000093
C15	C	0.542918	0.138736	0.000097
C16	C	0.572248	0.047442	0.000099
C17	C	0.651546	0.049129	0.000094
C18	C	0.252446	0.040635	0.000119
C19	C	0.173143	0.038955	0.000122
C20	C	0.193791	0.223216	0.000118
C21	C	0.273089	0.224904	0.000113
C22	C	0.302412	0.133610	0.000120
C23	C	0.388398	0.135440	0.000110
C24	C	0.456933	0.136906	0.000101
C25	C	0.889369	-0.048694	0.000106
C26	C	0.864305	-0.160935	0.000100
C27	C	1.059185	-0.526207	0.000124
C28	C	1.082736	-0.420752	0.000134
C29	C	1.028130	-0.355792	0.000125
C30	C	0.949970	-0.396298	0.000106
C31	C	0.926417	-0.501763	0.000102
C32	C	0.895362	-0.331349	0.000104
C33	C	0.817202	-0.371855	0.000085
C34	C	0.793652	-0.477310	0.000080
C35	C	0.848258	-0.542269	0.000089
C36	C	0.918915	-0.225884	0.000108
C37	C	0.786147	-0.201441	0.000086
C38	C	0.762596	-0.306895	0.000076
C39	C	1.059420	0.128455	0.000123
C40	C	1.143816	0.130243	0.000128
C41	C	0.955963	0.321047	0.000110
C42	C	0.981027	0.433288	0.000110
N43	N	0.922646	0.136162	0.195775
N44	N	0.922691	0.136183	-0.195557
C45	C	0.959660	0.067326	0.239044
C46	C	0.959663	0.067324	0.325592
C47	C	0.922657	0.136165	0.368867
C48	C	0.885638	0.205005	0.325591
C49	C	0.885631	0.205000	0.239046
C50	C	0.885668	0.205024	0.674620
C51	C	0.885681	0.205025	0.761171
C52	C	0.959701	0.067348	0.761165
C53	C	0.959693	0.067343	0.674620
C54	C	0.922671	0.136179	0.631352
C55	C	0.922667	0.136178	0.537507
C56	C	0.922666	0.136172	0.462710
H57	H	0.132455	-0.036760	0.000126
H58	H	0.855544	0.261085	0.796405
H59	H	0.741682	-0.148550	0.000083
H60	H	0.712875	0.309107	0.000078
Cl61	Cl	0.839111	0.291544	0.379993
Cl62	Cl	1.006240	-0.019194	0.815564
H63	H	1.146374	-0.387780	0.000151
H64	H	0.989798	0.011272	0.203815
H65	H	0.313775	0.300613	0.000106
Cl66	Cl	1.127823	-0.607872	0.000150
Cl67	Cl	0.556029	0.346477	0.000089
Cl68	Cl	0.839132	0.291561	0.620231
H69	H	0.989802	0.011272	0.360821
Cl70	Cl	0.839093	0.291538	0.184650
H71	H	0.169907	0.297552	0.000118
Cl72	Cl	0.664340	-0.357830	0.000050
Cl73	Cl	1.017170	-0.174975	0.000132
Cl74	Cl	1.057739	-0.223219	0.000134
H75	H	0.276310	-0.033702	0.000125
H76	H	0.531553	-0.028259	0.000114
H77	H	0.989830	0.011290	0.639387
Cl78	Cl	0.818654	-0.674847	-0.000023
Cl79	Cl	0.688412	-0.065636	0.000097
H80	H	0.730009	-0.510286	0.000071
