data_functionalizedCrystal
_audit_creation_method	'MofGen! by Chris Wilmer'
_symmetry_space_group_name_H-M	'P1'
_symmetry_Int_Tables_number	1
_symmetry_cell_setting	triclinic
loop_
_symmetry_equiv_pos_as_xyz
  x,y,z
_cell_length_a	14.971482
_cell_length_b	11.026607
_cell_length_c	13.448316
_cell_angle_alpha	89.996104
_cell_angle_beta	89.993798
_cell_angle_gamma	96.099312
loop_
_atom_site_label
_atom_site_type_symbol
_atom_site_fract_x
_atom_site_fract_y
_atom_site_fract_z
O1	O	1.212291	0.158159	-0.082676
O2	O	1.712291	0.658159	0.417324
O3	O	0.954926	0.177106	-0.082680
O4	O	1.454926	0.677106	0.417320
O5	O	1.062278	-0.009051	-0.082675
O6	O	1.562278	0.490949	0.417325
O7	O	1.104939	0.344316	-0.082681
O8	O	1.604939	0.844316	0.417319
O9	O	1.062259	-0.009063	0.082709
O10	O	1.562259	0.490937	0.582709
O11	O	0.954907	0.177094	0.082703
O12	O	1.454907	0.677094	0.582703
O13	O	1.212272	0.158147	0.082708
O14	O	1.712272	0.658147	0.582708
Cu15	Cu	1.083588	0.167620	0.097807
Cu16	Cu	1.583588	0.667620	0.597807
Cu17	Cu	1.083610	0.167633	-0.097779
Cu18	Cu	1.583610	0.667633	0.402221
O19	O	1.104919	0.344304	0.082702
O20	O	1.604919	0.844304	0.582702
C21	C	0.921456	0.176254	0.000011
C22	C	1.421456	0.676254	0.500011
C23	C	0.821752	0.173717	0.000009
C24	C	1.321752	0.673717	0.500009
C25	C	0.774906	0.172516	0.090161
C26	C	1.274906	0.672516	0.590161
C27	C	0.681222	0.170113	0.090162
C28	C	1.181222	0.670113	0.590162
C29	C	0.634388	0.168919	0.000010
C30	C	1.134388	0.668919	0.500010
C31	C	0.681240	0.170117	-0.090148
C32	C	1.181240	0.670117	0.409852
C33	C	0.774922	0.172511	-0.090148
C34	C	1.274922	0.672511	0.409852
C35	C	0.485979	0.165129	-0.090142
C36	C	0.985979	0.665129	0.409858
C37	C	0.392292	0.162737	-0.090142
C38	C	0.892292	0.662737	0.409858
C39	C	0.392280	0.162731	0.090169
C40	C	0.892280	0.662731	0.590169
C41	C	0.485961	0.165125	0.090169
C42	C	0.985961	0.665125	0.590169
C43	C	0.532808	0.166325	0.000009
C44	C	1.032808	0.666325	0.500009
C45	C	1.054399	-0.054279	0.000016
C46	C	1.554399	0.445721	0.500016
C47	C	1.030938	-0.189027	0.000012
C48	C	1.530938	0.310973	0.500012
C49	C	1.095717	-0.262740	0.000011
C50	C	1.595717	0.237260	0.500011
C51	C	1.071471	-0.402009	0.000007
C52	C	1.571471	0.097991	0.500007
C53	C	1.245742	0.158999	0.000014
C54	C	1.745742	0.658999	0.500014
C55	C	1.345445	0.161536	0.000010
C56	C	1.845445	0.661536	0.500010
C57	C	1.112799	0.389532	0.000010
C58	C	1.612799	0.889532	0.500010
C59	C	1.136260	0.524280	0.000007
C60	C	1.636260	1.024280	0.500007
N61	N	1.083578	0.167609	0.235371
N62	N	1.583578	0.667609	0.735371
N63	N	1.083625	0.167634	-0.235343
N64	N	1.583625	0.667634	0.264657
C65	C	1.131138	0.085213	0.287414
C66	C	1.631138	0.585213	0.787414
C67	C	1.131143	0.085212	0.391517
C68	C	1.631143	0.585212	0.891517
C69	C	1.083594	0.167614	0.443575
C70	C	1.583594	0.667614	0.943575
C71	C	1.036028	0.250015	0.391525
C72	C	1.536028	0.750015	0.891525
C73	C	1.036018	0.250009	0.287424
C74	C	1.536018	0.750009	0.787424
C75	C	1.036054	0.250023	0.608505
C76	C	1.536054	0.750023	1.108505
C77	C	1.036065	0.250030	0.712614
C78	C	1.536065	0.750030	1.212614
C79	C	1.131180	0.085226	0.712598
C80	C	1.631180	0.585226	1.212598
C81	C	1.131170	0.085220	0.608497
C82	C	1.631170	0.585220	1.108497
C83	C	1.083605	0.167622	0.556454
C84	C	1.583605	0.667622	1.056454
H85	H	0.813063	0.173491	-0.163559
H86	H	1.313063	0.673491	0.336441
H87	H	1.169128	-0.222743	0.000019
H88	H	1.669128	0.277257	0.500019
N89	N	1.182463	-0.003646	0.447633
N90	N	1.682463	0.496354	0.947633
H91	H	1.139644	-0.057488	0.490841
H92	H	1.639644	0.442512	0.990841
H93	H	1.212584	-0.055743	0.398780
H94	H	1.712584	0.444257	0.898780
H95	H	1.169863	0.018117	0.245034
H96	H	1.669863	0.518117	0.745034
H97	H	1.169908	0.018131	0.754978
H98	H	1.669908	0.518131	1.254978
N99	N	1.233509	-0.422766	0.000001
N100	N	1.733509	0.077234	0.500001
H101	H	1.237048	-0.330783	0.000002
H102	H	1.737048	0.169217	0.500002
H103	H	1.264255	-0.451112	0.061311
H104	H	1.764255	0.048888	0.561311
N105	N	0.984791	0.338915	0.768767
N106	N	1.484791	0.838915	1.268767
H107	H	0.954655	0.391114	0.720004
H108	H	1.454655	0.891114	1.220004
H109	H	0.937765	0.292364	0.811983
H110	H	1.437765	0.792364	1.311983
H111	H	0.957527	-0.229024	0.000004
H112	H	1.457527	0.270976	0.500004
H113	H	1.169893	0.018128	0.566111
H114	H	1.669893	0.518128	1.066111
N115	N	0.984749	0.338892	0.552370
N116	N	1.484749	0.838892	1.052370
H117	H	0.954629	0.391098	0.601143
H118	H	1.454629	0.891098	1.101143
H119	H	1.027637	0.392626	0.509163
H120	H	1.527637	0.892626	1.009163
H121	H	0.354133	0.161754	0.163580
H122	H	0.854133	0.661754	0.663580
N123	N	0.974222	-0.454966	-0.000004
N124	N	1.474222	0.045034	0.499996
H125	H	0.970685	-0.546948	-0.000008
H126	H	1.470685	-0.046948	0.499992
H127	H	0.943461	-0.426638	0.061306
H128	H	1.443461	0.073362	0.561306
N129	N	0.984746	0.338890	0.447679
N130	N	1.484746	0.838890	0.947679
H131	H	1.008915	0.425060	0.429547
H132	H	1.508915	0.925060	0.929547
H133	H	0.919002	0.324663	0.429561
H134	H	1.419002	0.824663	0.929561
N135	N	0.984715	0.338878	0.231294
N136	N	1.484715	0.838878	0.731294
H137	H	1.008886	0.425053	0.249395
H138	H	1.508886	0.925053	0.749395
H139	H	0.991934	0.326264	0.157465
H140	H	1.491934	0.826264	0.657465
H141	H	0.813033	0.173497	0.163573
H142	H	1.313033	0.673497	0.663573
H143	H	0.524092	0.166104	0.163578
H144	H	1.024092	0.666104	0.663578
N145	N	0.630691	0.168813	0.187395
N146	N	1.130691	0.668813	0.687395
H147	H	0.674516	0.169077	0.244506
H148	H	1.174516	0.669077	0.744506
H149	H	0.597173	0.243443	0.191622
H150	H	1.097173	0.743443	0.691622
H151	H	0.524119	0.166107	-0.163559
H152	H	1.024119	0.666107	0.336441
N153	N	0.341774	0.161457	-0.187374
N154	N	0.841774	0.661457	0.312626
H155	H	0.385664	0.162573	-0.244490
H156	H	0.885664	0.662573	0.255510
H157	H	0.298050	0.085280	-0.191293
H158	H	0.798050	0.585280	0.308707
H159	H	0.643100	0.169137	-0.163552
H160	H	1.143100	0.669137	0.336448
