data_functionalizedCrystal
_audit_creation_method	'MofGen! by Chris Wilmer'
_symmetry_space_group_name_H-M	'P1'
_symmetry_Int_Tables_number	1
_symmetry_cell_setting	triclinic
loop_
_symmetry_equiv_pos_as_xyz
  x,y,z
_cell_length_a	19.121063
_cell_length_b	18.101398
_cell_length_c	18.101389
_cell_angle_alpha	89.991407
_cell_angle_beta	87.580609
_cell_angle_gamma	87.536641
loop_
_atom_site_label
_atom_site_type_symbol
_atom_site_fract_x
_atom_site_fract_y
_atom_site_fract_z
Zn1	Zn	-0.279786	-1.119553	0.431097
Zn2	Zn	0.220214	-0.619553	0.931097
Zn3	Zn	-0.397222	-1.114174	0.312531
Zn4	Zn	0.102778	-0.614174	0.812531
Zn5	Zn	-0.279778	-0.995713	0.307292
Zn6	Zn	0.220222	-0.495713	0.807292
Zn7	Zn	-0.397191	-0.990390	0.436352
Zn8	Zn	0.102809	-0.490390	0.936352
O9	O	-0.338494	-1.054958	0.371818
O10	O	0.161506	-0.554958	0.871818
O11	O	-0.295381	-1.222472	0.415362
O12	O	0.204619	-0.722472	0.915362
O13	O	-0.381652	-1.098437	0.208204
O14	O	0.118348	-0.598437	0.708204
O15	O	-0.181494	-1.016619	0.319323
O16	O	0.318506	-0.516619	0.819323
O17	O	-0.381660	-1.218520	0.328252
O18	O	0.118340	-0.718520	0.828252
O19	O	-0.181500	-1.107605	0.410282
O20	O	0.318500	-0.607605	0.910282
O21	O	-0.295367	-1.011404	0.204354
O22	O	0.204633	-0.511404	0.704354
O23	O	-0.295336	-0.891374	0.324419
O24	O	0.204664	-0.391374	0.824419
O25	O	-0.381607	-1.007547	0.539288
O26	O	0.118393	-0.507547	1.039288
O27	O	-0.381599	-0.887464	0.419239
O28	O	0.118401	-0.387464	0.919239
O29	O	-0.295351	-1.102443	0.535427
O30	O	0.204649	-0.602443	1.035427
O31	O	-0.495503	-1.093275	0.333348
O32	O	0.004497	-0.593275	0.833348
O33	O	-0.495480	-1.002331	0.424319
O34	O	0.004520	-0.502331	0.924319
C35	C	-0.338464	-0.862548	0.371831
C36	C	0.161536	-0.362548	0.871831
C37	C	-0.338468	-0.780234	0.371855
C38	C	0.161532	-0.280234	0.871855
C39	C	-0.338506	-0.481141	0.371831
C40	C	0.161494	0.018859	0.871831
C41	C	-0.393043	-0.510019	0.431218
C42	C	0.106957	-0.010019	0.931218
C43	C	-0.392873	-0.595645	0.431443
C44	C	0.107127	-0.095645	0.931443
C45	C	-0.338488	-0.629525	0.371843
C46	C	0.161512	-0.129525	0.871843
C47	C	-0.264514	-0.601793	0.389848
C48	C	0.235486	-0.101793	0.889848
C49	C	-0.264840	-0.516133	0.390269
C50	C	0.235160	-0.016133	0.890269
C51	C	-0.357291	-0.511845	0.294272
C52	C	0.142709	-0.011845	0.794272
C53	C	-0.358915	-0.597422	0.294762
C54	C	0.141085	-0.097422	0.794762
C55	C	-0.338473	-0.713385	0.371848
C56	C	0.161527	-0.213385	0.871848
C57	C	-0.338516	-0.397281	0.371828
C58	C	0.161484	0.102719	0.871828
C59	C	-0.520975	-1.046662	0.379989
C60	C	-0.020975	-0.546662	0.879989
C61	C	-0.599042	-1.043180	0.383509
C62	C	-0.099042	-0.543180	0.883509
C63	C	-0.635706	-1.088932	0.337838
C64	C	-0.135706	-0.588932	0.837838
C65	C	-0.709057	-1.085662	0.341153
C66	C	-0.209057	-0.585662	0.841153
C67	C	-0.745743	-1.036637	0.390136
C68	C	-0.245743	-0.536637	0.890136
C69	C	-0.709074	-0.990884	0.435812
C70	C	-0.209074	-0.490884	0.935812
C71	C	-0.635724	-0.994158	0.432500
C72	C	-0.135724	-0.494158	0.932500
C73	C	-0.967214	-1.024384	0.402507
C74	C	-0.467214	-0.524384	0.902507
C75	C	-1.040570	-1.021112	0.405814
C76	C	-0.540570	-0.521112	0.905814
C77	C	-1.040548	-1.115892	0.311156
C78	C	-0.540548	-0.615892	0.811156
C79	C	-0.967196	-1.119158	0.307845
C80	C	-0.467196	-0.619158	0.807845
C81	C	-0.930533	-1.073408	0.353524
C82	C	-0.430533	-0.573408	0.853524
C83	C	-0.820721	-1.033292	0.393524
C84	C	-0.320721	-0.533292	0.893524
C85	C	-0.855558	-1.076757	0.350139
C86	C	-0.355558	-0.576757	0.850139
C87	C	-0.155300	-1.063306	0.363632
C88	C	0.344700	-0.563306	0.863632
C89	C	-0.077234	-1.066863	0.360143
C90	C	0.422766	-0.566863	0.860143
C91	C	-0.338476	-1.055001	0.564979
C92	C	0.161524	-0.555001	1.064979
C93	C	-0.338469	-1.055020	0.647293
C94	C	0.161531	-0.555020	1.147293
C95	C	-0.338522	-0.248118	0.371810
C96	C	0.161478	0.251882	0.871810
C97	C	-0.338525	-0.330432	0.371820
C98	C	0.161475	0.169568	0.871820
C99	C	-0.338461	-1.054959	0.179406
C100	C	0.161539	-0.554959	0.679406
C101	C	-0.338271	-1.055093	0.097084
C102	C	0.161729	-0.555093	0.597084
C103	C	-0.338337	-1.055069	0.946378
C104	C	0.161663	-0.555069	1.446378
C105	C	-0.392435	-0.995173	0.917475
C106	C	0.107565	-0.495173	1.417475
C107	C	-0.392686	-0.995317	0.831867
C108	C	0.107314	-0.495317	1.331867
C109	C	-0.338402	-1.055044	0.797999
C110	C	0.161598	-0.555044	1.297999
C111	C	-0.358500	-1.132166	0.829986
C112	C	0.141500	-0.632166	1.329986
C113	C	-0.358855	-1.131830	0.915647
C114	C	0.141145	-0.631830	1.415647
C115	C	-0.264021	-1.038525	0.911469
C116	C	0.235979	-0.538525	1.411469
C117	C	-0.264451	-1.036770	0.825838
C118	C	0.235549	-0.536770	1.325838
C119	C	-0.338438	-1.055034	0.714141
C120	C	0.161562	-0.555034	1.214141
C121	C	-0.338303	-1.055083	1.030236
C122	C	0.161697	-0.555083	1.530236
H123	H	-0.448077	-0.486932	0.420474
H124	H	0.051923	0.013068	0.920474
N125	N	-0.377284	-0.622060	0.503620
N126	N	0.122716	-0.122060	1.003620
N127	N	-0.366489	-0.577238	0.553982
N128	N	0.133511	-0.077238	1.053982
H129	H	-0.355477	-0.595893	0.604961
H130	H	0.144523	-0.095893	1.104961
N131	N	-0.212126	-0.492497	0.338167
N132	N	0.287874	0.007503	0.838167
N133	N	-0.163259	-0.455163	0.359417
N134	N	0.336741	0.044837	0.859417
H135	H	-0.126027	-0.438471	0.322624
H136	H	0.373973	0.061529	0.822624
N137	N	-0.929710	-1.169221	0.257807
N138	N	-0.429710	-0.669221	0.757807
N139	N	-0.888714	-1.218220	0.282025
N140	N	-0.388714	-0.718220	0.782025
H141	H	-0.862233	-1.253566	0.246678
H142	H	-0.362233	-0.753566	0.746678
N143	N	-1.077997	-1.162635	0.264512
N144	N	-0.577997	-0.662635	0.764512
N145	N	-1.069754	-1.231335	0.269103
N146	N	-0.569754	-0.731335	0.769103
H147	H	-1.096201	-1.264352	0.236159
H148	H	-0.596201	-0.764352	0.736159
N149	N	-0.746556	-0.940816	0.485849
N150	N	-0.246556	-0.440816	0.985849
N151	N	-0.812047	-0.937899	0.488801
N152	N	-0.312047	-0.437899	0.988801
H153	H	-0.838519	-0.902537	0.524140
H154	H	-0.338519	-0.402537	1.024140
H155	H	-0.380773	-0.489060	0.488423
H156	H	0.119227	0.010940	0.988423
N157	N	-0.244848	-0.491996	0.461275
N158	N	0.255152	0.008004	0.961275
N159	N	-0.230753	-0.538410	0.510175
N160	N	0.269247	-0.038410	1.010175
H161	H	-0.216634	-0.521367	0.560325
H162	H	0.283366	-0.021367	1.060325
N163	N	-0.598269	-0.947434	0.479161
N164	N	-0.098269	-0.447434	0.979161
N165	N	-0.606424	-0.951947	0.547868
N166	N	-0.106424	-0.451947	1.047868
H167	H	-0.579972	-0.918951	0.580827
H168	H	-0.079972	-0.418951	1.080827
N169	N	-0.213462	-1.093299	0.934632
N170	N	0.286538	-0.593299	1.434632
N171	N	-0.202904	-1.101671	1.001855
N172	N	0.297096	-0.601671	1.501855
H173	H	-0.167201	-1.140357	1.018218
H174	H	0.332799	-0.640357	1.518218
H175	H	-0.605841	-1.128850	0.297948
H176	H	-0.105841	-0.628850	0.797948
H177	H	-0.413349	-0.615281	0.281122
H178	H	0.086651	-0.115281	0.781122
N179	N	-0.461114	-1.008404	0.947556
N180	N	0.038886	-0.508404	1.447556
N181	N	-0.488685	-1.068223	0.934877
N182	N	0.011315	-0.568223	1.434877
H183	H	-0.537190	-1.077572	0.956124
H184	H	-0.037190	-0.577572	1.456124
N185	N	-0.858198	-0.983199	0.443540
N186	N	-0.358198	-0.483199	0.943540
N187	N	-0.850063	-0.915229	0.438201
N188	N	-0.350063	-0.415229	0.938201
H189	H	-0.876535	-0.879850	0.473523
H190	H	-0.376535	-0.379850	0.973523
H191	H	-0.447771	-1.005969	0.813856
H192	H	0.052229	-0.505969	1.313856
H193	H	-0.322077	-0.620477	0.248406
H194	H	0.177923	-0.120477	0.748406
H195	H	-1.070437	-0.981199	0.445714
H196	H	-0.570437	-0.481199	0.945714
H197	H	-0.222005	-1.077478	0.802537
H198	H	0.277995	-0.577478	1.302537
H199	H	-0.825686	-1.116676	0.310260
H200	H	-0.325686	-0.616676	0.810260
N201	N	-0.929781	-0.977648	0.449169
N202	N	-0.429781	-0.477648	0.949169
N203	N	-0.962547	-0.933879	0.492897
N204	N	-0.462547	-0.433879	0.992897
H205	H	-0.936109	-0.900868	0.525855
H206	H	-0.436109	-0.400868	1.025855
H207	H	-0.380109	-0.938023	0.810286
H208	H	0.119891	-0.438023	1.310286
H209	H	-0.317566	-0.493371	0.250064
H210	H	0.182434	0.006629	0.750064
N211	N	-0.241058	-0.969423	0.937542
N212	N	0.258942	-0.469423	1.437542
N213	N	-0.279192	-0.931524	0.982175
N214	N	0.220808	-0.431524	1.482175
H215	H	-0.262981	-0.882718	1.000591
H216	H	0.237019	-0.382718	1.500591
N217	N	-0.212163	-0.629691	0.337090
N218	N	0.287837	-0.129691	0.837090
N219	N	-0.228829	-0.670422	0.285509
N220	N	0.271171	-0.170422	0.785509
H221	H	-0.191858	-0.690127	0.248246
H222	H	0.308142	-0.190127	0.748246
N223	N	-0.427010	-1.149893	0.943776
N224	N	0.072990	-0.649893	1.443776
N225	N	-0.462151	-1.105057	0.984397
N226	N	0.037849	-0.605057	1.484397
H227	H	-0.510288	-1.117811	1.004260
H228	H	-0.010288	-0.617811	1.504260
N229	N	-0.746498	-1.132412	0.294508
N230	N	-0.246498	-0.632412	0.794508
N231	N	-0.713735	-1.176184	0.250780
N232	N	-0.213735	-0.676184	0.750780
H233	H	-0.740176	-1.209208	0.217838
H234	H	-0.240176	-0.709208	0.717838
N235	N	-0.244167	-0.629639	0.460053
N236	N	0.255833	-0.129639	0.960053
N237	N	-0.284019	-0.669905	0.496943
N238	N	0.215981	-0.169905	0.996943
H239	H	-0.269653	-0.689572	0.546527
H240	H	0.230347	-0.189572	1.046527
H241	H	-0.410309	-0.487850	0.277272
H242	H	0.089691	0.012150	0.777272
H243	H	-0.412249	-1.146898	0.810953
H244	H	0.087751	-0.646898	1.310953
H245	H	-0.379986	-0.937699	0.937517
H246	H	0.120014	-0.437699	1.437517
N247	N	-0.311570	-1.189487	0.939520
N248	N	0.188430	-0.689487	1.439520
N249	N	-0.278416	-1.229849	0.892919
N250	N	0.221584	-0.729849	1.392919
H251	H	-0.245022	-1.270570	0.909776
H252	H	0.254978	-0.770570	1.409776
H253	H	-0.249295	-0.980031	0.804841
H254	H	0.250705	-0.480031	1.304841
N255	N	-0.461692	-0.618886	0.417767
N256	N	0.038308	-0.118886	0.917767
N257	N	-0.510184	-0.571831	0.407991
N258	N	-0.010184	-0.071831	0.907991
H259	H	-0.558791	-0.588240	0.398335
H260	H	-0.058791	-0.088240	0.898335
N261	N	-0.310620	-1.189467	0.802295
N262	N	0.189380	-0.689467	1.302295
N263	N	-0.261033	-1.174066	0.758571
N264	N	0.238967	-0.674066	1.258571
H265	H	-0.227215	-1.214534	0.739013
H266	H	0.272785	-0.714534	1.239013
