data_functionalizedCrystal
_audit_creation_method	'MofGen! by Chris Wilmer'
_symmetry_space_group_name_H-M	'P1'
_symmetry_Int_Tables_number	1
_symmetry_cell_setting	triclinic
loop_
_symmetry_equiv_pos_as_xyz
  x,y,z
_cell_length_a	21.395362
_cell_length_b	21.295417
_cell_length_c	21.395355
_cell_angle_alpha	90.021451
_cell_angle_beta	90.043940
_cell_angle_gamma	90.046383
loop_
_atom_site_label
_atom_site_type_symbol
_atom_site_fract_x
_atom_site_fract_y
_atom_site_fract_z
Zn1	Zn	0.957860	-0.250415	0.354573
Zn2	Zn	1.457860	0.249585	0.854573
Zn3	Zn	0.957763	-0.355667	0.249790
Zn4	Zn	1.457763	0.144333	0.749790
Zn5	Zn	0.853075	-0.250445	0.249774
Zn6	Zn	1.353075	0.249555	0.749774
Zn7	Zn	0.853045	-0.355680	0.354495
Zn8	Zn	1.353045	0.144320	0.854495
O9	O	0.905436	-0.303052	0.302158
O10	O	1.405436	0.196948	0.802158
O11	O	1.045525	-0.264359	0.340713
O12	O	1.545525	0.235641	0.840713
O13	O	0.943848	-0.341716	0.162110
O14	O	1.443848	0.158284	0.662110
O15	O	0.867029	-0.162351	0.263702
O16	O	1.367029	0.337649	0.763702
O17	O	1.045454	-0.341687	0.263729
O18	O	1.545454	0.158313	0.763729
O19	O	0.944014	-0.162330	0.340697
O20	O	1.444014	0.337670	0.840697
O21	O	0.866934	-0.264409	0.162098
O22	O	1.366934	0.235591	0.662098
O23	O	0.765393	-0.264422	0.263626
O24	O	1.265393	0.235578	0.763626
O25	O	0.866977	-0.341709	0.442183
O26	O	1.366977	0.158291	0.942183
O27	O	0.765371	-0.341738	0.340564
O28	O	1.265371	0.158262	0.840564
O29	O	0.943984	-0.264372	0.442240
O30	O	1.443984	0.235628	0.942240
O31	O	0.943819	-0.443758	0.263653
O32	O	1.443819	0.056242	0.763653
O33	O	0.866883	-0.443767	0.340579
O34	O	1.366883	0.056233	0.840579
C35	C	0.742648	-0.303085	0.302085
C36	C	1.242648	0.196915	0.802085
C37	C	0.673007	-0.303114	0.302069
C38	C	1.173007	0.196886	0.802069
C39	C	0.640299	-0.343426	0.342070
C40	C	1.140299	0.156574	0.842070
C41	C	0.574863	-0.343411	0.342098
C42	C	1.074863	0.156589	0.842098
C43	C	0.542139	-0.303090	0.302114
C44	C	1.042139	0.196910	0.802114
C45	C	0.574855	-0.262771	0.262109
C46	C	1.074855	0.237229	0.762109
C47	C	0.640289	-0.262783	0.262087
C48	C	1.140289	0.237217	0.762087
C49	C	0.438414	-0.298019	0.245709
C50	C	0.938414	0.201981	0.745709
C51	C	0.372981	-0.298011	0.245730
C52	C	0.872981	0.201989	0.745730
C53	C	0.340318	-0.303049	0.302183
C54	C	0.840318	0.196951	0.802183
C55	C	0.373096	-0.308108	0.358616
C56	C	0.873096	0.191892	0.858616
C57	C	0.438530	-0.308120	0.358594
C58	C	0.938530	0.191880	0.858594
C59	C	0.471186	-0.303072	0.302134
C60	C	0.971186	0.196928	0.802134
C61	C	0.236657	-0.343346	0.342218
C62	C	0.736657	0.156654	0.842218
C63	C	0.171221	-0.343326	0.342247
C64	C	0.671221	0.156674	0.842247
C65	C	0.171214	-0.262690	0.262252
C66	C	0.671214	0.237310	0.762252
C67	C	0.236649	-0.262706	0.262229
C68	C	0.736649	0.237294	0.762229
C69	C	0.269367	-0.303038	0.302211
C70	C	0.769367	0.196962	0.802211
C71	C	0.905354	-0.466603	0.302123
C72	C	1.405354	0.033397	0.802123
C73	C	0.905376	-0.536571	0.302129
C74	C	1.405376	-0.036571	0.802129
C75	C	0.945472	-0.569412	0.262115
C76	C	1.445472	-0.069412	0.762115
C77	C	0.945502	-0.635155	0.262129
C78	C	1.445502	-0.135155	0.762129
C79	C	0.905424	-0.668054	0.302151
C80	C	1.405424	-0.168054	0.802151
C81	C	0.865324	-0.635205	0.342173
C82	C	1.365324	-0.135205	0.842173
C83	C	0.865301	-0.569464	0.342162
C84	C	1.365301	-0.069464	0.842162
N85	N	0.850614	-0.771336	0.306903
N86	N	1.350614	-0.271336	0.806903
N87	N	0.850638	-0.833787	0.306910
N88	N	1.350638	-0.333787	0.806910
C89	C	0.905494	-0.866129	0.302187
C90	C	1.405494	-0.366129	0.802187
N91	N	0.960325	-0.833659	0.297445
N92	N	1.460325	-0.333659	0.797445
N93	N	0.960300	-0.771202	0.297435
N94	N	1.460300	-0.271202	0.797435
C95	C	0.905445	-0.739339	0.302167
C96	C	1.405445	-0.239339	0.802167
C97	C	0.945625	-0.970255	0.262186
C98	C	1.445625	-0.470255	0.762186
C99	C	0.945656	-1.035999	0.262204
C100	C	1.445656	-0.535999	0.762204
C101	C	0.865473	-1.036048	0.342245
C102	C	1.365473	-0.536048	0.842245
C103	C	0.865448	-0.970305	0.342230
C104	C	1.365448	-0.470305	0.842230
C105	C	0.905523	-0.937413	0.302197
C106	C	1.405523	-0.437413	0.802197
C107	C	1.068859	-0.303019	0.302231
C108	C	1.568859	0.196981	0.802231
C109	C	1.138501	-0.303005	0.302262
C110	C	1.638501	0.196995	0.802262
C111	C	0.905488	-0.303039	0.465581
C112	C	1.405488	0.196961	0.965581
C113	C	0.905510	-0.303033	0.535223
C114	C	1.405510	0.196967	1.035223
C115	C	0.905535	-0.138861	0.302206
C116	C	1.405535	0.361139	0.802206
C117	C	0.905578	-0.068893	0.302227
C118	C	1.405578	0.431107	0.802227
C119	C	0.905420	-0.303019	0.139370
C120	C	1.405420	0.196981	0.639370
C121	C	0.905519	-0.302847	0.069729
C122	C	1.405519	0.197153	0.569729
C123	C	0.945606	-0.262762	0.567967
C124	C	1.445606	0.237238	1.067967
C125	C	0.945605	-0.262735	0.633402
C126	C	1.445605	0.237265	1.133402
C127	C	0.905515	-0.302991	0.666091
C128	C	1.405515	0.197009	1.166091
C129	C	0.865411	-0.343265	0.633339
C130	C	1.365411	0.156735	1.133339
C131	C	0.865409	-0.343286	0.567905
C132	C	1.365409	0.156714	1.067905
C133	C	0.900539	-0.359672	0.769752
C134	C	1.400539	0.140328	1.269752
C135	C	0.900546	-0.359652	0.835185
C136	C	1.400546	0.140348	1.335185
C137	C	0.905519	-0.302924	0.867912
C138	C	1.405519	0.197076	1.367912
C139	C	0.910498	-0.246215	0.835198
C140	C	1.410498	0.253785	1.335198
C141	C	0.910496	-0.246237	0.769763
C142	C	1.410496	0.253763	1.269763
C143	C	0.905513	-0.302972	0.737043
C144	C	1.405513	0.197028	1.237043
C145	C	0.945616	-0.262620	0.971608
C146	C	1.445616	0.237380	1.471608
C147	C	0.945611	-0.262592	1.037045
C148	C	1.445611	0.237408	1.537045
C149	C	0.865420	-0.343127	1.036981
C150	C	1.365420	0.156873	1.536981
C151	C	0.865422	-0.343150	0.971545
C152	C	1.365422	0.156850	1.471545
C153	C	0.905523	-0.302897	0.938863
C154	C	1.405523	0.197103	1.438863
H155	H	0.548227	-0.376237	0.374675
H156	H	1.048227	0.123763	0.874675
C157	C	0.989107	-0.218911	0.668884
C158	C	1.489107	0.281089	1.168884
C159	C	0.975522	-0.156634	0.652954
C160	C	1.475522	0.343366	1.152954
C161	C	1.015588	-0.116248	0.685619
C162	C	1.515588	0.383752	1.185619
H163	H	0.983405	-0.224581	0.712544
H164	H	1.483405	0.275419	1.212544
H165	H	1.031209	-0.228087	0.658177
H166	H	1.531209	0.271913	1.158177
H167	H	0.933431	-0.147462	0.663665
H168	H	1.433431	0.352538	1.163665
H169	H	0.981228	-0.150945	0.609299
H170	H	1.481228	0.349055	1.109299
H171	H	1.057690	-0.125424	0.674913
H172	H	1.557690	0.374576	1.174913
H173	H	1.009883	-0.121923	0.729278
H174	H	1.509883	0.378077	1.229278
H175	H	1.006380	-0.073989	0.674811
H176	H	1.506380	0.426011	1.174811
C177	C	0.989072	-0.218884	1.072711
C178	C	1.489072	0.281116	1.572711
C179	C	0.980477	-0.227462	1.137012
C180	C	1.480477	0.272538	1.637012
C181	C	1.020495	-0.187200	1.169888
C182	C	1.520495	0.312800	1.669888
H183	H	1.031191	-0.228050	1.062099
H184	H	1.531191	0.271950	1.562099
H185	H	0.979921	-0.176581	1.062014
H186	H	1.479921	0.323419	1.562014
H187	H	0.989633	-0.269754	1.147705
H188	H	1.489633	0.230246	1.647705
H189	H	0.938366	-0.218291	1.147643
H190	H	1.438366	0.281709	1.647643
H191	H	1.011343	-0.144898	1.159190
H192	H	1.511343	0.355102	1.659190
H193	H	1.062611	-0.196370	1.159270
H194	H	1.562611	0.303630	1.659270
H195	H	1.014664	-0.193011	1.213519
H196	H	1.514664	0.306989	1.713519
C197	C	0.822012	-0.934613	0.385747
C198	C	1.322012	-0.434613	0.885747
C199	C	0.857453	-0.896819	0.425956
C200	C	1.357453	-0.396819	0.925956
C201	C	0.817461	-0.863937	0.466062
C202	C	1.317461	-0.363937	0.966062
H203	H	0.794702	-0.908961	0.361813
H204	H	1.294702	-0.408961	0.861813
H205	H	0.798157	-0.963601	0.409622
H206	H	1.298157	-0.463601	0.909622
H207	H	0.881297	-0.867834	0.402084
H208	H	1.381297	-0.367834	0.902084
H209	H	0.884761	-0.922455	0.449904
H210	H	1.384761	-0.422455	0.949904
H211	H	0.793607	-0.892926	0.489936
H212	H	1.293607	-0.392926	0.989936
H213	H	0.790154	-0.838289	0.442123
H214	H	1.290154	-0.338289	0.942123
H215	H	0.841503	-0.838295	0.493352
H216	H	1.341503	-0.338295	0.993352
H217	H	0.346503	-0.312209	0.404586
H218	H	0.846503	0.187791	0.904586
H219	H	0.978105	-0.542633	0.229519
H220	H	1.478105	-0.042633	0.729519
H221	H	0.978259	-0.229985	0.541361
H222	H	1.478259	0.270015	1.041361
C223	C	0.915868	-0.184603	0.734358
C224	C	1.415868	0.315397	1.234358
C225	C	0.920208	-0.134914	0.777017
C226	C	1.420208	0.365086	1.277017
C227	C	0.925146	-0.078127	0.744424
C228	C	1.425146	0.421873	1.244424
H229	H	0.952181	-0.185331	0.708854
H230	H	1.452181	0.314669	1.208854
H231	H	0.879949	-0.179055	0.708821
H232	H	1.379949	0.320945	1.208821
H233	H	0.956123	-0.140460	0.802543
H234	H	1.456123	0.359540	1.302543
H235	H	0.883899	-0.134165	0.802522
H236	H	1.383899	0.365835	1.302522
H237	H	0.889228	-0.072578	0.718887
H238	H	1.389228	0.427422	1.218887
H239	H	0.961460	-0.078861	0.718922
H240	H	1.461460	0.421139	1.218922
H241	H	0.928086	-0.044405	0.773363
H242	H	1.428086	0.455595	1.273363
H243	H	0.144590	-0.376152	0.374825
H244	H	0.644590	0.123848	0.874825
C245	C	0.821790	-0.386756	1.072434
C246	C	1.321790	0.113244	1.572434
C247	C	0.759804	-0.373058	1.056487
C248	C	1.259804	0.126942	1.556487
C249	C	0.719592	-0.413229	1.089145
C250	C	1.219592	0.086771	1.589145
H251	H	0.830851	-0.429076	1.061744
H252	H	1.330851	0.070924	1.561744
H253	H	0.827493	-0.380967	1.116100
H254	H	1.327493	0.119033	1.616100
H255	H	0.754103	-0.378852	1.012831
H256	H	1.254103	0.121148	1.512831
H257	H	0.750723	-0.330746	1.067178
H258	H	1.250723	0.169254	1.567178
H259	H	0.725295	-0.407441	1.132811
H260	H	1.225295	0.092559	1.632811
H261	H	0.728659	-0.455547	1.078452
H262	H	1.228659	0.044453	1.578452
H263	H	0.677530	-0.403937	1.078334
H264	H	1.177530	0.096063	1.578334
H265	H	0.914548	-0.200022	0.861842
H266	H	1.414548	0.299978	1.361842
C267	C	0.821969	-0.386984	0.936025
C268	C	1.321969	0.113016	1.436025
C269	C	0.835584	-0.449260	0.951937
C270	C	1.335584	0.050740	1.451937
C271	C	0.795570	-0.489657	0.919222
C272	C	1.295570	0.010343	1.419222
H273	H	0.779855	-0.377859	0.946692
H274	H	1.279855	0.122141	1.446692
H275	H	0.827713	-0.381275	0.892367
H276	H	1.327713	0.118725	1.392367
H277	H	0.829835	-0.454966	0.995585
H278	H	1.329835	0.045034	1.495585
H279	H	0.877691	-0.458404	0.941268
H280	H	1.377691	0.041596	1.441268
H281	H	0.801313	-0.483948	0.875565
H282	H	1.301313	0.016052	1.375565
H283	H	0.753458	-0.480526	0.929892
H284	H	1.253458	0.019474	1.429892
H285	H	0.804806	-0.531916	0.930009
H286	H	1.304806	-0.031916	1.430009
H287	H	0.978259	-0.943473	0.229590
H288	H	1.478259	-0.443473	0.729590
C289	C	0.821985	-1.071872	0.385633
C290	C	1.321985	-0.571872	0.885633
C291	C	0.830578	-1.136476	0.377071
C292	C	1.330578	-0.636476	0.877071
C293	C	0.790524	-1.169499	0.417027
C294	C	1.290524	-0.669499	0.917027
H295	H	0.831092	-1.061138	0.427765
H296	H	1.331092	-0.561138	0.927765
H297	H	0.779873	-1.061191	0.376404
H298	H	1.279873	-0.561191	0.876404
H299	H	0.872680	-1.147152	0.386304
H300	H	1.372680	-0.647152	0.886304
H301	H	0.821467	-1.147228	0.334947
H302	H	1.321467	-0.647228	0.834947
H303	H	0.748412	-1.158818	0.407798
H304	H	1.248412	-0.658818	0.907798
H305	H	0.799634	-1.158760	0.459156
H306	H	1.299634	-0.658760	0.959156
H307	H	0.796345	-1.213336	0.411219
H308	H	1.296345	-0.713336	0.911219
C309	C	0.675785	-0.387131	0.385590
C310	C	1.175785	0.112869	0.885590
C311	C	0.659957	-0.373501	0.447611
C312	C	1.159957	0.126499	0.947611
C313	C	0.692642	-0.413742	0.487720
C314	C	1.192642	0.086258	0.987720
H315	H	0.665036	-0.429433	0.376428
H316	H	1.165036	0.070567	0.876428
H317	H	0.719447	-0.381362	0.379893
H318	H	1.219447	0.118638	0.879893
H319	H	0.616305	-0.379275	0.453305
H320	H	1.116305	0.120725	0.953305
H321	H	0.670708	-0.331206	0.456792
H322	H	1.170708	0.168794	0.956792
H323	H	0.736304	-0.407974	0.482024
H324	H	1.236304	0.092026	0.982024
H325	H	0.681890	-0.456042	0.478553
H326	H	1.181890	0.043958	0.978553
H327	H	0.681912	-0.404496	0.529806
H328	H	1.181912	0.095504	1.029806
H329	H	0.465215	-0.312237	0.404544
H330	H	0.965215	0.187763	0.904544
H331	H	0.978266	-0.229840	0.944997
H332	H	1.478266	0.270160	1.444997
H333	H	0.548206	-0.229940	0.229555
H334	H	1.048206	0.270060	0.729555
C335	C	0.895103	-0.421281	0.870587
C336	C	1.395103	0.078719	1.370587
C337	C	0.890722	-0.470963	0.827923
C338	C	1.390722	0.029037	1.327923
C339	C	0.885698	-0.527746	0.860511
C340	C	1.385698	-0.027746	1.360511
H341	H	0.930991	-0.426891	0.896140
H342	H	1.430991	0.073109	1.396140
H343	H	0.858770	-0.420491	0.896074
H344	H	1.358770	0.079509	1.396074
H345	H	0.927052	-0.471754	0.802447
H346	H	1.427052	0.028246	1.302447
H347	H	0.854835	-0.465374	0.802368
H348	H	1.354835	0.034626	1.302368
H349	H	0.849364	-0.526955	0.885997
H350	H	1.349364	-0.026955	1.385997
H351	H	0.921587	-0.533349	0.886063
H352	H	1.421587	-0.033349	1.386063
H353	H	0.882719	-0.561461	0.831568
H354	H	1.382719	-0.061461	1.331568
C355	C	0.473956	-0.292653	0.184451
C356	C	0.973956	0.207347	0.684451
C357	C	0.511472	-0.345881	0.176394
C358	C	1.011472	0.154119	0.676394
C359	C	0.544229	-0.340956	0.119978
C360	C	1.044229	0.159044	0.619978
H361	H	0.445140	-0.289671	0.150788
H362	H	0.945140	0.210329	0.650788
H363	H	0.499556	-0.256189	0.185315
H364	H	0.999556	0.243811	0.685315
H365	H	0.485874	-0.382335	0.175524
H366	H	0.985874	0.117665	0.675524
H367	H	0.540300	-0.348872	0.210042
H368	H	1.040300	0.151128	0.710042
H369	H	0.569829	-0.304491	0.120843
H370	H	1.069829	0.195509	0.620843
H371	H	0.515408	-0.337973	0.086320
H372	H	1.015408	0.162027	0.586320
H373	H	0.569691	-0.377066	0.114507
H374	H	1.069691	0.122934	0.614507
C375	C	0.135805	-0.218842	0.218816
C376	C	0.635805	0.281158	0.718816
C377	C	0.178460	-0.183532	0.183787
C378	C	0.678460	0.316468	0.683787
C379	C	0.145862	-0.143124	0.143774
C380	C	0.645862	0.356876	0.643774
H381	H	0.110221	-0.242805	0.191426
H382	H	0.610221	0.257195	0.691426
H383	H	0.110348	-0.191411	0.242830
H384	H	0.610348	0.308589	0.742830
H385	H	0.203906	-0.210960	0.159774
H386	H	0.703906	0.289040	0.659774
H387	H	0.204045	-0.159556	0.211160
H388	H	0.704045	0.340444	0.711160
H389	H	0.120405	-0.115692	0.167788
H390	H	0.620405	0.384308	0.667788
H391	H	0.120279	-0.167092	0.116388
H392	H	0.620279	0.332908	0.616388
H393	H	0.174798	-0.119157	0.120006
H394	H	0.674798	0.380843	0.620006
H395	H	0.666920	-0.229954	0.229513
H396	H	1.166920	0.270046	0.729513
C397	C	0.821787	-0.670808	0.385694
C398	C	1.321787	-0.170808	0.885694
C399	C	0.786676	-0.627972	0.420748
C400	C	1.286676	-0.127972	0.920748
C401	C	0.746570	-0.660745	0.460856
C402	C	1.246570	-0.160745	0.960856
H403	H	0.794451	-0.696500	0.361767
H404	H	1.294451	-0.196500	0.861767
H405	H	0.845737	-0.696397	0.413061
H406	H	1.345737	-0.196397	0.913061
H407	H	0.762727	-0.602393	0.393385
H408	H	1.262727	-0.102393	0.893385
H409	H	0.813995	-0.602278	0.444688
H410	H	1.313995	-0.102278	0.944688
H411	H	0.770521	-0.686335	0.488223
H412	H	1.270521	-0.186335	0.988223
H413	H	0.719239	-0.686436	0.436924
H414	H	1.219239	-0.186436	0.936924
H415	H	0.722747	-0.631686	0.484649
H416	H	1.222747	-0.131686	0.984649
C417	C	0.989323	-1.071543	0.218796
C418	C	1.489323	-0.571543	0.718796
C419	C	1.051285	-1.055415	0.232528
C420	C	1.551285	-0.555415	0.732528
C421	C	1.091541	-1.088126	0.192548
C422	C	1.591541	-0.588126	0.692548
H423	H	0.983716	-1.115423	0.224477
H424	H	1.483716	-0.615423	0.724477
H425	H	0.980212	-1.060780	0.176675
H426	H	1.480212	-0.560780	0.676675
H427	H	1.060393	-1.066182	0.274638
H428	H	1.560393	-0.566182	0.774638
H429	H	1.056912	-1.011541	0.226843
H430	H	1.556912	-0.511541	0.726843
H431	H	1.082430	-1.077363	0.150428
H432	H	1.582430	-0.577363	0.650428
H433	H	1.085928	-1.132004	0.198232
H434	H	1.585928	-0.632004	0.698232
H435	H	1.133586	-1.077183	0.201856
H436	H	1.633586	-0.577183	0.701856
H437	H	0.896322	-0.405855	0.743111
H438	H	1.396322	0.094145	1.243111
C439	C	0.821921	-0.387075	0.668746
C440	C	1.321921	0.112925	1.168746
C441	C	0.835514	-0.449359	0.652821
C442	C	1.335514	0.050641	1.152821
C443	C	0.795455	-0.489733	0.685418
C444	C	1.295455	0.010267	1.185418
H445	H	0.827626	-0.381382	0.712416
H446	H	1.327626	0.118618	1.212416
H447	H	0.779818	-0.377911	0.657980
H448	H	1.279818	0.122089	1.157980
H449	H	0.877607	-0.458520	0.663592
H450	H	1.377607	0.041480	1.163592
H451	H	0.829805	-0.455071	0.609157
H452	H	1.329805	0.044929	1.109157
H453	H	0.753352	-0.480569	0.674652
H454	H	1.253352	0.019431	1.174652
H455	H	0.801163	-0.484035	0.729087
H456	H	1.301163	0.015965	1.229087
H457	H	0.804668	-0.531997	0.674614
H458	H	1.304668	-0.031997	1.174614
H459	H	0.263280	-0.229883	0.229652
H460	H	0.763280	0.270117	0.729652
C461	C	0.821979	-0.387052	0.532269
C462	C	1.321979	0.112948	1.032269
C463	C	0.857432	-0.427394	0.494719
C464	C	1.357432	0.072606	0.994719
C465	C	0.817448	-0.467715	0.461875
C466	C	1.317448	0.032285	0.961875
H467	H	0.798085	-0.411083	0.561034
H468	H	1.298085	0.088917	1.061034
H469	H	0.794705	-0.363003	0.506686
H470	H	1.294705	0.136997	1.006686
H471	H	0.884695	-0.451440	0.520300
H472	H	1.384695	0.048560	1.020300
H473	H	0.881325	-0.403379	0.465943
H474	H	1.381325	0.096621	0.965943
H475	H	0.790174	-0.443666	0.436291
H476	H	1.290174	0.056334	0.936291
H477	H	0.793556	-0.491742	0.490644
H478	H	1.293556	0.008258	0.990644
H479	H	0.841497	-0.495087	0.436389
H480	H	1.341497	0.004913	0.936389
H481	H	0.263297	-0.376183	0.374777
H482	H	0.763297	0.123817	0.874777
H483	H	0.346298	-0.293896	0.199778
H484	H	0.846298	0.206104	0.699778
H485	H	0.978155	-0.661899	0.229545
H486	H	1.478155	-0.161899	0.729545
H487	H	0.832649	-0.542724	0.374747
H488	H	1.332649	-0.042724	0.874747
