data_functionalizedCrystal
_audit_creation_method	'MofGen! by Chris Wilmer'
_symmetry_space_group_name_H-M	'P1'
_symmetry_Int_Tables_number	1
_symmetry_cell_setting	triclinic
loop_
_symmetry_equiv_pos_as_xyz
  x,y,z
_cell_length_a	8.559649
_cell_length_b	14.971486
_cell_length_c	7.088668
_cell_angle_alpha	83.042511
_cell_angle_beta	97.661819
_cell_angle_gamma	103.303603
loop_
_atom_site_label
_atom_site_type_symbol
_atom_site_fract_x
_atom_site_fract_y
_atom_site_fract_z
O1	O	0.222832	-1.179700	0.158767
O2	O	0.247769	-0.917574	0.158818
O3	O	0.002742	-1.071730	0.158786
O4	O	0.467859	-1.025544	0.158799
O5	O	-0.026573	-1.057336	-0.159201
O6	O	0.218455	-0.903180	-0.159169
O7	O	0.193517	-1.165305	-0.159220
Cu8	Cu	0.203309	-1.032928	-0.188229
Cu9	Cu	0.237977	-1.049951	0.187827
O10	O	0.438544	-1.011149	-0.159188
C11	C	0.231998	-0.877130	-0.000169
C12	C	0.228658	-0.778065	-0.000149
C13	C	-0.071438	-1.068033	-0.000205
C14	C	-0.248797	-1.078453	-0.000196
N15	N	0.178925	-1.020961	-0.452727
C16	C	0.512725	-1.014846	-0.000193
C17	C	0.690086	-1.004427	-0.000189
C18	C	0.209289	-1.205750	-0.000229
C19	C	0.212630	-1.304815	-0.000236
C20	C	0.372603	-0.710866	-0.000148
C21	C	0.369451	-0.617783	-0.000176
C22	C	0.222354	-0.591903	-0.000193
C23	C	0.078397	-0.659110	-0.000200
C24	C	0.081549	-0.752190	-0.000185
C25	C	0.071838	-0.465100	-0.000226
C26	C	0.068685	-0.372014	-0.000238
C27	C	0.359740	-0.330694	-0.000218
C28	C	0.362892	-0.423774	-0.000203
C29	C	0.218935	-0.490975	-0.000206
N30	N	0.262349	-1.061926	0.452325
H31	H	-0.226553	-0.933081	-0.000181
Br32	Br	-0.387744	-1.197377	-0.000254
H33	H	0.092473	-0.978532	-0.534410
H34	H	0.482673	-0.444842	-0.000171
H35	H	0.476954	-0.275973	-0.000224
H36	H	0.348797	-1.104364	-0.465982
H37	H	0.492387	-0.731929	-0.000133
H38	H	0.486666	-0.563072	-0.000173
Br39	Br	-0.130955	-0.336888	-0.000324
H40	H	-0.045388	-0.519815	-0.000232
Br41	Br	-0.113814	-0.843391	-0.000203
Br42	Br	-0.121240	-0.623987	-0.000241
