data_functionalizedCrystal
_audit_creation_method	'MofGen! by Chris Wilmer'
_symmetry_space_group_name_H-M	'P1'
_symmetry_Int_Tables_number	1
_symmetry_cell_setting	triclinic
loop_
_symmetry_equiv_pos_as_xyz
  x,y,z
_cell_length_a	20.919309
_cell_length_b	19.377369
_cell_length_c	19.377574
_cell_angle_alpha	82.425876
_cell_angle_beta	104.467167
_cell_angle_gamma	45.771252
loop_
_atom_site_label
_atom_site_type_symbol
_atom_site_fract_x
_atom_site_fract_y
_atom_site_fract_z
Zr1	Zr	0.532191	0.733701	0.063963
O2	O	0.376238	0.895868	-0.026903
O3	O	0.593286	0.579762	0.073300
O4	O	0.537420	0.733248	-0.049706
O5	O	0.461058	0.739870	0.214197
O6	O	0.649449	0.723530	-0.046627
O7	O	0.432104	0.742382	0.096103
O8	O	0.749383	0.448973	0.173407
O9	O	0.361124	1.014427	-0.005837
O10	O	0.686896	0.632780	0.101953
O11	O	0.624898	0.638157	0.187788
O12	O	0.559123	0.818866	0.042965
O13	O	0.497124	0.824244	0.128800
Zr14	Zr	0.757043	0.714195	0.257220
Zr15	Zr	0.710865	0.718202	0.068873
Zr16	Zr	0.578369	0.729694	0.252310
Zr17	Zr	0.508086	0.922790	0.097561
Zr18	Zr	0.781148	0.525106	0.223623
O19	O	0.695948	0.868133	0.247884
O20	O	0.630289	0.873831	-0.019922
O21	O	0.441897	0.890171	0.240903
O22	O	0.912996	0.552028	0.348086
O23	O	0.847337	0.557725	0.080280
O24	O	0.658945	0.574065	0.341105
O25	O	0.828176	0.708026	0.106986
O26	O	0.751814	0.714648	0.370889
O27	O	0.639785	0.724366	0.367811
O28	O	0.857130	0.705514	0.225081
O29	O	0.503145	1.002108	-0.001934
O30	O	0.786089	0.445788	0.323118
O31	O	0.928110	0.433468	0.327020
O32	O	0.891405	0.436653	0.177309
O33	O	0.397829	1.011243	0.143874
O34	O	0.539851	0.998923	0.147776
O35	O	0.730111	0.629030	0.278218
O36	O	0.792110	0.623652	0.192383
O37	O	0.664337	0.809739	0.133395
O38	O	0.602338	0.815116	0.219230
C39	C	0.674769	0.487426	0.118566
C40	C	0.685003	0.407153	0.104303
C41	C	0.557263	0.156834	0.281679
C42	C	0.567008	0.081303	0.268342
C43	C	0.631729	0.075699	0.178737
C44	C	0.621994	0.151227	0.192069
C45	C	0.584759	0.191790	0.243540
C46	C	0.649490	0.186183	0.153930
C47	C	0.639751	0.261709	0.167258
C48	C	0.602515	0.302279	0.218724
C49	C	0.575019	0.267316	0.256868
C50	C	0.686718	0.145625	0.102455
C51	C	0.714215	0.180580	0.064316
C52	C	0.704482	0.256102	0.077648
C53	C	0.667246	0.296672	0.129114
C54	C	0.731977	0.291065	0.039504
C55	C	0.722238	0.366591	0.052832
C56	C	0.657506	0.372198	0.142442
C57	C	0.421124	0.743334	0.154450
C58	C	0.345272	0.749914	0.152366
C59	C	0.376329	0.655872	0.182174
C60	C	0.305055	0.662061	0.180214
C61	C	0.202722	0.762292	0.148442
C62	C	0.171665	0.856341	0.118634
C63	C	0.242940	0.850151	0.120599
C64	C	-0.015820	0.785841	0.140974
C65	C	-0.087095	0.792023	0.139009
C66	C	0.046300	0.597743	0.200591
C67	C	0.117570	0.591562	0.202549
C68	C	0.086508	0.685610	0.172745
C69	C	0.129865	0.768621	0.146436
C70	C	0.159365	0.679281	0.174756
C71	C	0.868110	0.704561	0.166733
C72	C	0.943962	0.697982	0.168817
C73	C	0.586856	0.728960	-0.075002
C74	C	0.567252	0.730661	-0.154960
C75	C	0.614465	0.960469	0.202617
C76	C	0.604231	1.040743	0.216880
C77	C	0.811345	0.709483	-0.409474
C78	C	0.792902	0.711085	-0.484608
C79	C	0.669474	0.721791	-0.487982
C80	C	0.687903	0.720195	-0.412848
C81	C	0.758840	0.714040	-0.373600
C82	C	0.635398	0.724752	-0.376973
C83	C	0.653830	0.723151	-0.301844
C84	C	0.724766	0.716993	-0.262590
C85	C	0.777272	0.712438	-0.298471
C86	C	0.564466	0.730900	-0.416221
C87	C	0.511962	0.735457	-0.380346
C88	C	0.530388	0.733864	-0.305218
C89	C	0.601324	0.727705	-0.265964
C90	C	0.477882	0.738418	-0.269337
C91	C	0.496314	0.736817	-0.194209
C92	C	0.619756	0.726104	-0.190835
C93	C	0.702379	0.718936	0.396185
C94	C	0.721982	0.717235	0.476143
C95	C	0.898263	0.468040	0.124707
C96	C	0.984348	0.381187	0.112529
C97	C	0.732531	0.482414	0.354160
C98	C	0.762368	0.400440	0.419855
C99	C	0.956024	0.463028	0.360301
C100	C	1.061713	0.374474	0.428081
C101	C	0.333210	0.984868	-0.039118
C102	C	0.227521	1.073422	-0.106897
C103	C	0.390971	0.979856	0.196476
C104	C	0.304886	1.066709	0.208654
C105	C	0.556703	0.965481	-0.032977
C106	C	0.526866	1.047456	-0.098672
C107	C	0.969852	0.345165	0.059598
C108	C	1.050725	0.263569	0.048139
C109	C	1.146096	0.217991	0.089615
C110	C	1.160590	0.254021	0.142549
C111	C	1.079715	0.335621	0.154003
C112	C	0.831302	0.357180	0.497918
C113	C	0.859335	0.280167	0.559655
C114	C	0.818437	0.246410	0.543326
C115	C	0.749494	0.289679	0.465256
C116	C	0.721458	0.366696	0.403522
C117	C	1.143715	0.330081	0.415106
C118	C	1.243025	0.246885	0.478787
C119	C	1.260330	0.208079	0.555441
C120	C	1.178318	0.252481	0.568415
C121	C	1.079010	0.335680	0.504736
C122	C	0.145518	1.117824	-0.093921
C123	C	0.046205	1.201043	-0.157598
C124	C	0.028899	1.239853	-0.234251
C125	C	0.110912	1.195447	-0.247226
C126	C	0.210222	1.112234	-0.183549
C127	C	0.319380	1.102739	0.261579
C128	C	0.238498	1.184357	0.273021
C129	C	0.143127	1.229937	0.231542
C130	C	0.128634	1.193903	0.178612
C131	C	0.209513	1.112292	0.167166
C132	C	0.567782	1.081187	-0.082319
C133	C	0.539766	1.158199	-0.144041
C134	C	0.470829	1.201484	-0.222114
C135	C	0.429913	1.167745	-0.238466
C136	C	0.457934	1.090729	-0.176746
H137	H	0.594580	0.363781	0.229572
N138	N	0.995235	0.381027	0.517973
N139	N	0.926140	0.478590	0.501410
H140	H	0.866973	0.510614	0.510760
H141	H	1.309791	0.210742	0.468208
N142	N	0.416801	1.056176	0.303949
N143	N	0.492968	0.957998	0.349438
H144	H	0.561770	0.925119	0.379362
N145	N	0.416123	1.056292	-0.193470
N146	N	0.354573	1.094956	-0.263184
H147	H	0.325039	1.070638	-0.275002
H148	H	0.869102	0.704481	-0.377520
H149	H	1.192424	0.220873	0.630836
H150	H	0.448020	1.264195	-0.272364
N151	N	0.253297	1.221166	0.327085
N152	N	0.201664	1.317212	0.302675
H153	H	0.212116	1.343209	0.340858
N154	N	0.846511	0.706478	-0.521261
N155	N	0.798408	0.781311	-0.586610
H156	H	0.836265	0.778065	-0.612496
N157	N	0.163162	1.078201	-0.015632
N158	N	0.089921	1.117873	-0.004070
H159	H	0.102374	1.089898	0.051221
H160	H	1.129643	0.361664	0.352695
H161	H	0.665330	0.401909	0.339960
N162	N	1.361781	0.123093	0.620475
N163	N	1.434983	0.083469	0.608870
H164	H	1.506636	0.023445	0.654797
N165	N	0.405424	0.744703	-0.309421
N166	N	0.358552	0.748769	-0.277380
H167	H	0.307378	0.753204	-0.305686
H168	H	0.330352	0.585482	0.204488
H169	H	0.200888	0.509943	0.228404
H170	H	0.077279	1.296388	0.240869
H171	H	-0.020560	1.237186	-0.147018
N172	N	-0.072554	1.324856	-0.299283
N173	N	-0.145757	1.364484	-0.287677
H174	H	-0.217410	1.424516	-0.333602
H175	H	0.453561	0.740526	-0.164999
H176	H	-0.170425	0.873648	0.113133
H177	H	0.096808	1.227057	-0.309645
N178	N	1.228723	0.134553	0.077971
N179	N	1.215778	0.102345	0.030756
H180	H	1.274143	0.043381	0.022557
N181	N	0.847108	0.167723	0.606399
N182	N	0.938315	0.076580	0.647361
H183	H	0.958572	0.021003	0.691910
N184	N	1.258018	0.207447	0.184907
N185	N	1.330212	0.134586	0.174671
H186	H	1.399026	0.101684	0.204590
N187	N	0.849889	0.705929	-0.258314
N188	N	0.896867	0.701711	-0.290304
H189	H	0.948213	0.697023	-0.261915
H190	H	0.276988	1.076083	-0.194125
N191	N	0.031219	1.240444	0.136269
N192	N	0.022252	1.182942	0.144740
H193	H	-0.046548	1.215808	0.114842
H194	H	0.454207	0.740465	-0.412309
H195	H	0.217648	0.926730	0.096337
H196	H	0.088340	0.937951	0.092770
N197	N	1.094528	0.372418	0.208068
N198	N	1.121570	0.411686	0.197062
H199	H	1.132037	0.437673	0.235246
N200	N	0.194687	1.075489	0.113114
N201	N	0.167639	1.036233	0.124135
H202	H	0.157160	1.010245	0.085958
H203	H	0.623914	1.045956	-0.018753
N204	N	0.581578	1.192639	-0.127314
N205	N	0.643118	1.153987	-0.057599
H206	H	0.672649	1.178307	-0.045782
N207	N	0.263893	0.576910	0.207198
N208	N	0.306202	0.552872	0.164846
H209	H	0.380030	0.480573	0.187755
N210	N	0.873100	0.391634	0.514622
N211	N	0.934645	0.352991	0.584331
H212	H	0.964168	0.377322	0.596136
N213	N	0.545620	0.732538	-0.492964
N214	N	0.561409	0.660532	-0.503443
H215	H	0.548094	0.661691	-0.557644
N216	N	1.035889	0.226788	-0.005935
N217	N	0.950732	0.267488	-0.042951
H218	H	0.940251	0.241515	-0.081141
N219	N	0.872428	0.391735	0.017221
N220	N	0.800214	0.464597	0.027441
H221	H	0.731407	0.497489	-0.002493
N222	N	0.619470	0.413631	0.195020
N223	N	0.532397	0.462731	0.180882
H224	H	0.505535	0.491994	0.218014
N225	N	0.536983	0.308749	0.309446
N226	N	0.449910	0.357849	0.295307
H227	H	0.423047	0.387112	0.332439
N228	N	0.519242	0.198250	0.334268
N229	N	0.494704	0.167024	0.368326
H230	H	0.467854	0.196273	0.405466
N231	N	0.538908	0.045613	0.307306
N232	N	0.505661	0.081845	0.353255
H233	H	0.485812	0.056642	0.380772
N234	N	0.359500	1.211973	-0.318223
N235	N	0.334494	1.280740	-0.373315
H236	H	0.284760	1.311983	-0.429644
H237	H	0.915474	0.244946	0.623217
N238	N	0.597003	0.728097	-0.528079
N239	N	0.506160	0.806623	-0.544630
H240	H	0.454974	0.811079	-0.572948
N241	N	0.669755	0.034257	0.126162
N242	N	0.678444	-0.033174	0.114265
H243	H	0.705303	-0.062445	0.077134
N244	N	0.752271	0.139125	0.011756
N245	N	0.839351	0.090019	0.025914
H246	H	0.866233	0.060739	-0.011205
N247	N	0.696643	0.068499	0.088818
N248	N	0.620043	0.091707	0.060210
H249	H	0.627049	0.037241	0.050575
H250	H	0.046538	0.850229	0.120568
H251	H	0.716201	0.262183	0.451972
H252	H	0.744627	0.395053	0.021775
N253	N	0.769986	0.249648	-0.013085
N254	N	0.716138	0.262549	-0.073181
H255	H	0.742980	0.233301	-0.110325
N256	N	-0.047564	0.881909	0.110505
N257	N	-0.035012	0.901202	0.054415
H258	H	-0.057435	0.969057	0.032890
N259	N	0.692329	0.719633	-0.150631
N260	N	0.783166	0.641002	-0.134047
H261	H	0.834460	0.636363	-0.105609
N262	N	0.743578	0.715369	-0.185851
N263	N	0.672674	0.792160	-0.176881
H264	H	0.685958	0.791015	-0.122684
H265	H	0.459653	0.574253	0.208050
H266	H	0.071580	0.521174	0.224856
