data_functionalizedCrystal
_audit_creation_method	'MofGen! by Chris Wilmer'
_symmetry_space_group_name_H-M	'P1'
_symmetry_Int_Tables_number	1
_symmetry_cell_setting	triclinic
loop_
_symmetry_equiv_pos_as_xyz
  x,y,z
_cell_length_a	11.026607
_cell_length_b	17.038272
_cell_length_c	9.482900
_cell_angle_alpha	100.012096
_cell_angle_beta	78.636152
_cell_angle_gamma	99.848786
loop_
_atom_site_label
_atom_site_type_symbol
_atom_site_fract_x
_atom_site_fract_y
_atom_site_fract_z
O1	O	1.662374	0.322506	-0.120910
O2	O	1.305163	0.284676	-0.120910
O3	O	1.481644	0.189477	-0.120899
O4	O	1.485893	0.417705	-0.120922
O5	O	1.445807	0.208914	0.120891
O6	O	1.269325	0.304112	0.120880
O7	O	1.626537	0.341943	0.120880
Cu8	Cu	1.444659	0.324802	0.142957
Cu9	Cu	1.487041	0.301816	-0.142988
O10	O	1.450056	0.437141	0.120868
C11	C	1.241313	0.287415	-0.000015
C12	C	1.104451	0.266610	-0.000015
C13	C	1.036577	0.324055	-0.000022
C14	C	0.895123	0.302554	-0.000021
C15	C	1.459863	0.169523	-0.000004
C16	C	1.448341	0.081107	-0.000004
C17	C	1.554125	0.045899	-0.000003
C18	C	1.543294	-0.037179	-0.000016
C19	C	1.426676	-0.085048	-0.000021
C20	C	1.320885	-0.049835	-0.000027
C21	C	1.331719	0.033241	-0.000024
C22	C	1.388403	-0.336201	-0.000041
C23	C	1.377576	-0.419281	-0.000040
C24	C	1.599987	-0.406621	-0.000032
C25	C	1.610809	-0.323543	-0.000020
C26	C	1.505019	-0.288338	-0.000034
C27	C	1.415602	-0.169967	-0.000031
C28	C	1.516096	-0.203421	-0.000034
C29	C	1.690388	0.339203	-0.000018
C30	C	1.827251	0.360008	-0.000028
C31	C	1.471837	0.457095	-0.000030
C32	C	1.483360	0.545511	-0.000039
N33	N	1.414859	0.340969	0.344075
N34	N	1.516850	0.285644	-0.344106
C35	C	1.478242	0.306580	0.416279
C36	C	1.453458	0.320039	0.583695
H37	H	1.057843	0.201507	-0.000046
C38	C	0.890202	0.447957	-0.000045
H39	H	0.977018	0.450872	-0.000056
H40	H	0.853724	0.480409	0.084265
H41	H	0.878718	0.466842	-0.084381
H42	H	1.550851	0.267169	0.354156
C43	C	1.644370	-0.150773	-0.000026
H44	H	1.705828	-0.183637	-0.000031
H45	H	1.640711	-0.111327	0.084292
H46	H	1.665718	-0.124879	-0.084354
C47	C	1.355360	0.373278	0.667603
H48	H	1.351577	0.375345	0.769117
H49	H	1.275900	0.351222	0.642750
H50	H	1.378102	0.426121	0.642722
C51	C	1.614981	0.232428	0.571989
H52	H	1.618787	0.230376	0.470474
H53	H	1.592286	0.179585	0.596854
H54	H	1.694431	0.254514	0.596861
H55	H	1.083189	0.389155	-0.000020
C56	C	0.832171	0.214604	-0.000021
H57	H	0.745358	0.211689	-0.000033
H58	H	0.843655	0.195706	0.084295
H59	H	0.868652	0.182159	-0.084350
H60	H	1.225934	-0.088816	-0.000041
C61	C	1.682406	0.098547	0.000003
H62	H	1.743856	0.065675	-0.000012
H63	H	1.678762	0.137993	0.084320
H64	H	1.703753	0.124440	-0.084325
H65	H	1.342241	0.380373	0.406201
H66	H	1.629434	-0.065841	-0.000012
C67	C	1.739091	-0.270895	-0.000034
H68	H	1.800545	-0.303764	-0.000050
H69	H	1.735449	-0.231447	0.084281
H70	H	1.760431	-0.245004	-0.084365
H71	H	1.302261	-0.307547	-0.000052
H72	H	1.686115	-0.435294	-0.000024
H73	H	1.282604	-0.458253	-0.000021
H74	H	1.245579	0.061906	-0.000025
H75	H	1.320650	-0.208950	-0.000032
