data_functionalizedCrystal
_audit_creation_method	'MofGen! by Chris Wilmer'
_symmetry_space_group_name_H-M	'P1'
_symmetry_Int_Tables_number	1
_symmetry_cell_setting	triclinic
loop_
_symmetry_equiv_pos_as_xyz
  x,y,z
_cell_length_a	19.121414
_cell_length_b	19.120785
_cell_length_c	19.805407
_cell_angle_alpha	92.456682
_cell_angle_beta	87.572606
_cell_angle_gamma	95.004960
loop_
_atom_site_label
_atom_site_type_symbol
_atom_site_fract_x
_atom_site_fract_y
_atom_site_fract_z
Zn1	Zn	1.063652	-0.234355	0.329424
Zn2	Zn	1.058572	-0.352000	0.211601
Zn3	Zn	0.946011	-0.239365	0.220870
Zn4	Zn	0.940939	-0.357012	0.329369
O5	O	1.002293	-0.295683	0.272816
O6	O	1.161441	-0.245767	0.309939
O7	O	1.043637	-0.337058	0.118114
O8	O	0.965865	-0.140230	0.239172
O9	O	1.157709	-0.332200	0.223375
O10	O	1.052295	-0.136549	0.318926
O11	O	0.960939	-0.254306	0.124924
O12	O	0.846875	-0.259165	0.239118
O13	O	0.957221	-0.340742	0.424093
O14	O	0.843149	-0.345600	0.318832
O15	O	1.047377	-0.250626	0.424133
O16	O	1.038719	-0.451136	0.223322
O17	O	0.952295	-0.454817	0.309845
C18	C	0.819482	-0.303470	0.279976
C19	C	0.741274	-0.306819	0.283054
C20	C	0.706454	-0.263322	0.243071
C21	C	0.632968	-0.266475	0.245963
C22	C	0.594305	-0.313120	0.288842
C23	C	0.629130	-0.356622	0.328826
C24	C	0.702614	-0.353472	0.325930
C25	C	0.372335	-0.324887	0.299655
C26	C	0.298846	-0.328031	0.302549
C27	C	0.302690	-0.237885	0.219685
C28	C	0.376175	-0.234737	0.216796
C29	C	0.410994	-0.278241	0.256777
C30	C	0.519191	-0.316342	0.291800
C31	C	0.486106	-0.275022	0.253815
C32	C	0.994425	-0.478508	0.265586
C33	C	0.991123	-0.556719	0.262512
C34	C	0.970174	-0.999162	0.243070
C35	C	0.973278	-0.925675	0.245957
C36	C	1.019799	-0.886957	0.288960
C37	C	1.063213	-0.921730	0.329083
C38	C	1.060105	-0.995216	0.326198
C39	C	1.031429	-0.664978	0.299751
C40	C	1.034536	-0.591487	0.302631
C41	C	0.944599	-0.595437	0.219506
C42	C	0.941498	-0.668924	0.216622
C43	C	0.984910	-0.703691	0.256748
C44	C	1.022974	-0.811841	0.291911
C45	C	0.981730	-0.778805	0.253800
C46	C	1.185819	-0.287866	0.265629
C47	C	1.264026	-0.284535	0.262566
C48	C	1.002300	-0.295684	0.449358
C49	C	1.002302	-0.295685	0.524590
C50	C	1.010212	-0.112143	0.280089
C51	C	1.013587	-0.033930	0.283188
C52	C	1.049241	-0.248769	0.559957
C53	C	1.049235	-0.248767	0.630645
C54	C	1.002293	-0.295685	0.665966
C55	C	0.955350	-0.342603	0.630595
C56	C	0.955353	-0.342601	0.559908
C57	C	0.955336	-0.342612	0.915669
C58	C	0.955337	-0.342612	0.986361
C59	C	1.049218	-0.248778	0.986406
C60	C	1.049221	-0.248776	0.915719
C61	C	1.002275	-0.295691	0.880354
C62	C	1.002281	-0.295692	0.803705
C63	C	1.002290	-0.295688	0.742613
C64	C	1.002280	-0.295697	1.096960
C65	C	1.002273	-0.295692	1.021729
H66	H	0.604621	-0.231059	0.213401
Cl67	Cl	0.424776	-0.176087	0.162896
H68	H	0.597644	-0.394605	0.363735
Cl69	Cl	1.108234	-0.189795	1.030869
H70	H	1.060854	-0.780310	0.326923
H71	H	0.267368	-0.366015	0.337470
H72	H	1.101089	-0.890201	0.364100
H73	H	0.487703	-0.354320	0.326713
H74	H	1.087448	-0.210573	0.886964
Cl75	Cl	0.896320	-0.401598	1.030764
Cl76	Cl	1.108260	-0.189786	0.515560
H77	H	0.737929	-0.225333	0.208160
H78	H	0.937927	-0.897367	0.213290
H79	H	0.274333	-0.202467	0.187134
H80	H	0.917124	-0.380798	0.531114
Cl81	Cl	1.093026	-0.542813	0.356693
Cl82	Cl	0.890024	-0.551726	0.169069
H83	H	0.400675	-0.360311	0.332211
Cl84	Cl	0.896318	-0.401592	0.871219
Cl85	Cl	0.911691	-1.047829	0.189003
H86	H	0.730963	-0.388892	0.358488
Cl87	Cl	1.085999	-0.708675	0.350201
Cl88	Cl	1.114683	-1.038924	0.376636
H89	H	0.903617	-0.700443	0.181604
Cl90	Cl	0.923245	-0.827480	0.199745
Cl91	Cl	0.534712	-0.216386	0.199910
H92	H	1.087458	-0.210565	0.659437
H93	H	0.917127	-0.380802	0.659359
