data_functionalizedCrystal
_audit_creation_method	'MofGen! by Chris Wilmer'
_symmetry_space_group_name_H-M	'P1'
_symmetry_Int_Tables_number	1
_symmetry_cell_setting	triclinic
loop_
_symmetry_equiv_pos_as_xyz
  x,y,z
_cell_length_a	12.759395
_cell_length_b	19.121063
_cell_length_c	12.759387
_cell_angle_alpha	92.402374
_cell_angle_beta	89.981185
_cell_angle_gamma	92.470426
loop_
_atom_site_label
_atom_site_type_symbol
_atom_site_fract_x
_atom_site_fract_y
_atom_site_fract_z
Zn1	Zn	1.588319	-0.279539	-0.611792
Zn2	Zn	1.580679	-0.397009	-0.443587
Zn3	Zn	1.412620	-0.279580	-0.436132
Zn4	Zn	1.405077	-0.396957	-0.619223
O5	O	1.496674	-0.338271	-0.527683
O6	O	1.734326	-0.295127	-0.589490
O7	O	1.558345	-0.381471	-0.295579
O8	O	1.442280	-0.181290	-0.453203
O9	O	1.728713	-0.381431	-0.465910
O10	O	1.571366	-0.181260	-0.582260
O11	O	1.434872	-0.295196	-0.290102
O12	O	1.264598	-0.295145	-0.460409
O13	O	1.429425	-0.381342	-0.765256
O14	O	1.259057	-0.381381	-0.594925
O15	O	1.564052	-0.295076	-0.759796
O16	O	1.551031	-0.495286	-0.473116
O17	O	1.422017	-0.495248	-0.602154
C18	C	1.223707	-0.338263	-0.527665
C19	C	1.106929	-0.338276	-0.527683
C20	C	1.101188	-0.428219	-0.667547
C21	C	1.043456	-0.473196	-0.737482
C22	C	0.933734	-0.473205	-0.737495
C23	C	0.881742	-0.428230	-0.667568
C24	C	0.939473	-0.383253	-0.597633
C25	C	1.049197	-0.383250	-0.597625
C26	C	0.945214	-0.293307	-0.457776
C27	C	1.054936	-0.293301	-0.457755
C28	C	0.893222	-0.248332	-0.387848
C29	C	0.950953	-0.203357	-0.317906
C30	C	1.060682	-0.203351	-0.317895
C31	C	1.112668	-0.248324	-0.387820
C32	C	1.484905	-0.520751	-0.539273
C33	C	1.479967	-0.598817	-0.544267
C34	C	1.544869	-0.635489	-0.479484
C35	C	1.540231	-0.708840	-0.484187
C36	C	1.470684	-0.745517	-0.553667
C37	C	1.405778	-0.708840	-0.618456
C38	C	1.410423	-0.635490	-0.613758
C39	C	1.453302	-0.966986	-0.571214
C40	C	1.448661	-1.040341	-0.575905
C41	C	1.583115	-1.040335	-0.441637
C42	C	1.587749	-0.966984	-0.436941
C43	C	1.522848	-0.930313	-0.501734
C44	C	1.465939	-0.820494	-0.558473
C45	C	1.527599	-0.855338	-0.496932
C46	C	1.770706	-0.338280	-0.527703
C47	C	1.887483	-0.338284	-0.527711
C48	C	1.496749	-0.338199	-0.801712
C49	C	1.496782	-0.338168	-0.918487
C50	C	1.508517	-0.155079	-0.516071
C51	C	1.513563	-0.077013	-0.511123
C52	C	1.368219	-0.248324	-0.912802
C53	C	1.303958	-0.203388	-0.964819
C54	C	1.303991	-0.203362	-1.074539
C55	C	1.368290	-0.248279	-1.132245
C56	C	1.432551	-0.293215	-1.080228
C57	C	1.432513	-0.293234	-0.970505
C58	C	1.561107	-0.383062	-1.085913
C59	C	1.561081	-0.383085	-0.976193
C60	C	1.625406	-0.427978	-1.143619
C61	C	1.689674	-0.472912	-1.091601
C62	C	1.689639	-0.472935	-0.981874
C63	C	1.625342	-0.428020	-0.924176
C64	C	1.496662	-0.338293	-0.254717
C65	C	1.496845	-0.338126	-0.137930
H66	H	0.886729	-0.509825	-0.794448
C67	C	1.654505	-1.080679	-0.370373
N68	N	1.708281	-1.111066	-0.316696
C69	C	0.761045	-0.428231	-0.667603
N70	N	0.670134	-0.428229	-0.667631
H71	H	0.803880	-0.248339	-0.387869
C72	C	1.368309	-0.248257	-1.252940
N73	N	1.368323	-0.248242	-1.343850
C74	C	1.381962	-0.926657	-0.642543
N75	N	1.328244	-0.896280	-0.696291
H76	H	1.742017	-0.509482	-1.138594
C77	C	1.760340	-0.522365	-0.924664
N78	N	1.813598	-0.559594	-0.881577
C79	C	1.339025	-0.595151	-0.685024
N80	N	1.285248	-0.564769	-0.738707
C81	C	1.625434	-0.427953	-1.264314
N82	N	1.625458	-0.427934	-1.355223
H83	H	1.644380	-0.937123	-0.380365
H84	H	1.251662	-0.166772	-1.116891
H85	H	1.625311	-0.428032	-0.834835
C86	C	1.233244	-0.153974	-0.901335
N87	N	1.179985	-0.116753	-0.853521
C88	C	1.100656	-0.522669	-0.814394
N89	N	1.143736	-0.559933	-0.872324
C90	C	1.221885	-0.428214	-0.667537
N91	N	1.312796	-0.428210	-0.667535
C92	C	0.893755	-0.153889	-0.240998
N93	N	0.850669	-0.116629	-0.183067
H94	H	1.349156	-0.738709	-0.675032
C95	C	1.124179	-0.153872	-0.240959
N96	N	1.172000	-0.116603	-0.183008
H97	H	1.202009	-0.248325	-0.387815
H98	H	1.584228	-0.825473	-0.440366
H99	H	1.601497	-0.605631	-0.422902
C100	C	1.611623	-0.749176	-0.412914
N101	N	1.665397	-0.779556	-0.359227
H102	H	1.409311	-0.850365	-0.615041
C103	C	1.372157	-1.080685	-0.652348
N104	N	1.314538	-1.111072	-0.709923
H105	H	1.368194	-0.248334	-0.823461
