data_functionalizedCrystal
_audit_creation_method	'MofGen! by Chris Wilmer'
_symmetry_space_group_name_H-M	'P1'
_symmetry_Int_Tables_number	1
_symmetry_cell_setting	triclinic
loop_
_symmetry_equiv_pos_as_xyz
  x,y,z
_cell_length_a	15.944551
_cell_length_b	10.654550
_cell_length_c	15.021413
_cell_angle_alpha	90.006570
_cell_angle_beta	89.997312
_cell_angle_gamma	83.991834
loop_
_atom_site_label
_atom_site_type_symbol
_atom_site_fract_x
_atom_site_fract_y
_atom_site_fract_z
O1	O	1.115466	0.161953	-0.073931
O2	O	0.871032	0.181921	-0.073952
O3	O	0.998869	-0.010875	-0.073944
O4	O	0.987629	0.354749	-0.073938
O5	O	0.998849	-0.010854	0.074120
O6	O	0.871012	0.181943	0.074112
O7	O	1.115446	0.161974	0.074134
Zn8	Zn	0.993226	0.171962	0.097631
Zn9	Zn	0.993252	0.171934	-0.097450
O10	O	0.987609	0.354770	0.074126
C11	C	0.839723	0.181103	0.000077
C12	C	0.746463	0.178618	0.000069
C13	C	0.998034	-0.057652	0.000085
C14	C	0.995565	-0.197063	0.000076
N15	N	0.993215	0.171980	0.230769
C16	C	0.530880	0.053173	0.000084
C17	C	0.470207	0.111415	-0.072918
C18	C	0.575711	0.174122	0.000079
C19	C	0.470210	0.111464	0.073061
C20	C	0.410773	0.169770	0.000093
C21	C	0.516266	0.232397	-0.072983
C22	C	0.516275	0.232429	0.073062
C23	C	0.455620	0.290759	0.000042
C24	C	0.670728	0.176625	0.000071
C25	C	0.315757	0.167276	0.000096
C26	C	1.146755	0.162792	0.000102
C27	C	1.240015	0.165278	0.000105
C28	C	0.988444	0.401547	0.000095
C29	C	0.990913	0.540958	0.000098
C30	C	0.915645	0.621418	0.000089
C31	C	0.917970	0.752408	0.000075
C32	C	1.070839	0.722467	0.000082
C33	C	1.068513	0.591479	0.000090
C34	C	0.829329	0.949391	-0.051816
C35	C	0.754056	1.029856	-0.051809
C36	C	0.685813	1.000576	0.000074
C37	C	0.692839	0.890834	0.051971
C38	C	0.768113	0.810375	0.051973
C39	C	0.836353	0.839654	0.000069
C40	C	1.157149	0.394495	0.051988
C41	C	1.232423	0.314034	0.051996
C42	C	1.300674	0.343310	0.000118
C43	C	1.293656	0.453055	-0.051766
C44	C	1.218382	0.533516	-0.051773
C45	C	1.150131	0.504231	0.000102
N46	N	0.993270	0.171906	-0.230587
C47	C	0.934601	0.261825	0.529781
C48	C	0.916949	0.148693	0.470418
C49	C	0.993251	0.171928	0.587806
C50	C	1.010845	0.285082	0.470427
C51	C	0.993231	0.171960	0.412382
C52	C	0.975562	0.058739	0.529750
C53	C	1.069491	0.195202	0.529764
C54	C	1.051871	0.081988	0.470428
C55	C	0.993260	0.171911	0.688863
C56	C	0.993222	0.171963	0.311327
H57	H	0.449809	0.060250	-0.134639
H58	H	0.960597	-0.036961	0.555699
N59	N	0.574231	-0.079805	-0.000020
H60	H	0.637367	-0.077199	0.000541
H61	H	0.556716	-0.125907	0.054551
N62	N	0.868878	0.362391	0.564320
H63	H	0.881582	0.447701	0.541815
H64	H	0.811325	0.344539	0.542726
H65	H	0.423043	0.391240	0.000003
H66	H	0.852459	0.580288	0.000099
N67	N	0.775701	0.692021	0.107942
H68	H	0.721048	0.685681	0.140817
H69	H	0.788128	0.615925	0.068156
H70	H	0.449819	0.060295	0.134777
H71	H	0.852468	0.129017	0.444344
N72	N	1.154873	0.221324	0.564337
H73	H	1.179765	0.147466	0.601318
H74	H	1.193428	0.234061	0.512504
H75	H	1.212672	0.622877	-0.094023
H76	H	1.349233	0.476895	-0.094006
H77	H	0.536694	0.283552	0.134785
N78	N	1.154530	0.776962	0.000090
H79	H	1.187529	0.747628	0.054982
H80	H	1.187483	0.747593	-0.054829
H81	H	1.025745	0.380766	0.444386
N82	N	0.543128	0.300090	-0.154833
H83	H	0.572277	0.375669	-0.136322
H84	H	0.583199	0.240763	-0.191107
H85	H	0.637269	0.867012	0.094226
H86	H	0.624525	1.066100	0.000078
N87	N	1.239999	0.195669	0.107961
H88	H	1.185339	0.189322	0.140821
H89	H	1.252438	0.119577	0.068175
N90	N	1.117561	-0.018800	0.436125
H91	H	1.089454	-0.080623	0.398253
H92	H	1.160291	0.021651	0.399144
N93	N	0.746474	1.148215	-0.107783
H94	H	0.801125	1.154550	-0.140663
H95	H	0.699104	1.144934	-0.152079
N96	N	1.083528	0.362912	0.107936
H97	H	1.099399	0.281186	0.140811
H98	H	1.068424	0.432955	0.152237
H99	H	1.361968	0.277791	0.000136
N100	N	0.902913	0.980970	-0.107815
H101	H	0.920669	1.065047	-0.088471
H102	H	0.951618	0.913277	-0.099943
