data_functionalizedCrystal
_audit_creation_method	'MofGen! by Chris Wilmer'
_symmetry_space_group_name_H-M	'P1'
_symmetry_Int_Tables_number	1
_symmetry_cell_setting	triclinic
loop_
_symmetry_equiv_pos_as_xyz
  x,y,z
_cell_length_a	15.944551
_cell_length_b	15.944493
_cell_length_c	10.268362
_cell_angle_alpha	90.000590
_cell_angle_beta	89.999906
_cell_angle_gamma	83.486891
loop_
_atom_site_label
_atom_site_type_symbol
_atom_site_fract_x
_atom_site_fract_y
_atom_site_fract_z
O1	O	1.114502	0.108336	-0.108147
O2	O	0.869949	0.121692	-0.108177
O3	O	0.998929	-0.007264	-0.108172
O4	O	0.985522	0.237292	-0.108152
O5	O	0.998918	-0.007269	0.108428
O6	O	0.869938	0.121687	0.108423
O7	O	1.114490	0.108330	0.108453
Cu8	Cu	0.992213	0.115008	0.128216
Cu9	Cu	0.992226	0.115014	-0.127940
O10	O	0.985511	0.237287	0.108448
C11	C	0.838650	0.121135	0.000119
C12	C	0.745404	0.119473	0.000106
C13	C	0.530565	0.035566	0.000125
C14	C	0.469542	0.074532	-0.106668
C15	C	0.574679	0.116465	0.000121
C16	C	0.469553	0.074546	0.106883
C17	C	0.409767	0.113555	0.000142
C18	C	0.514884	0.155454	-0.106759
C19	C	0.514902	0.155456	0.106888
C20	C	0.453897	0.194481	0.000070
C21	C	0.669681	0.118140	0.000109
C22	C	0.314766	0.111886	0.000145
C23	C	0.998375	-0.038562	0.000122
C24	C	0.996733	-0.131810	0.000106
C25	C	1.072653	-0.367570	0.000140
C26	C	1.031717	-0.418136	-0.106660
C27	C	0.993688	-0.302531	0.000121
C28	C	1.031688	-0.418117	0.106891
C29	C	0.990754	-0.467441	0.000142
C30	C	0.952774	-0.351868	-0.106767
C31	C	0.952756	-0.351846	0.106880
C32	C	0.911763	-0.402379	0.000055
C33	C	0.995381	-0.207531	0.000108
C34	C	0.989055	-0.562438	0.000146
C35	C	1.145790	0.108888	0.000154
C36	C	1.239036	0.110550	0.000158
C37	C	0.986064	0.268584	0.000151
C38	C	0.987707	0.361833	0.000159
N39	N	0.992210	0.115003	0.308382
N40	N	0.992236	0.115013	-0.308106
C41	C	0.992222	0.115013	0.574052
C42	C	0.992213	0.115010	0.426214
H43	H	0.535021	0.189643	0.197183
Cl44	Cl	0.901328	-0.307376	-0.246323
Cl45	Cl	0.438547	0.021694	0.246274
Cl46	Cl	0.901324	-0.307113	0.246279
Cl47	Cl	1.177665	-0.343437	-0.000007
Cl48	Cl	0.402676	0.298244	-0.000010
Cl49	Cl	1.083190	-0.462786	0.246287
H50	H	0.563912	-0.031574	-0.000013
Cl51	Cl	1.083209	-0.462826	-0.246050
Cl52	Cl	0.806669	-0.426262	-0.000044
H53	H	0.534870	0.189647	-0.197142
Cl54	Cl	0.438512	0.021711	-0.246073
