data_functionalizedCrystal
_audit_creation_method	'MofGen! by Chris Wilmer'
_symmetry_space_group_name_H-M	'P1'
_symmetry_Int_Tables_number	1
_symmetry_cell_setting	triclinic
loop_
_symmetry_equiv_pos_as_xyz
  x,y,z
_cell_length_a	29.839134
_cell_length_b	29.839131
_cell_length_c	16.625539
_cell_angle_alpha	90.037107
_cell_angle_beta	89.970864
_cell_angle_gamma	89.966655
loop_
_atom_site_label
_atom_site_type_symbol
_atom_site_fract_x
_atom_site_fract_y
_atom_site_fract_z
Zn1	Zn	0.686744	0.178948	-0.456109
Zn2	Zn	0.686670	0.254076	-0.321251
Zn3	Zn	0.611620	0.178951	-0.321261
Zn4	Zn	0.611575	0.254042	-0.456013
O5	O	0.649152	0.216504	-0.388659
O6	O	0.749601	0.188926	-0.438256
O7	O	0.676703	0.244127	-0.208420
O8	O	0.621635	0.116084	-0.339194
O9	O	0.749547	0.244123	-0.339177
O10	O	0.676828	0.116081	-0.438266
O11	O	0.621564	0.188933	-0.208428
O12	O	0.548747	0.188900	-0.339100
O13	O	0.621558	0.244065	-0.568858
O14	O	0.548714	0.244068	-0.438102
O15	O	0.676784	0.188893	-0.568929
O16	O	0.676660	0.316939	-0.339083
O17	O	0.621487	0.316914	-0.438092
C18	C	0.532430	0.216481	-0.388592
C19	C	0.482495	0.216482	-0.388583
C20	C	0.649073	0.333227	-0.388594
C21	C	0.649080	0.383161	-0.388593
C22	C	0.125913	0.187736	-0.337214
C23	C	0.313586	0.187723	-0.337165
O24	O	0.337854	0.163244	-0.293415
N25	N	0.337050	0.216489	-0.388623
C26	C	0.313593	0.245258	-0.440101
O27	O	0.337857	0.269722	-0.483874
C28	C	0.125921	0.245268	-0.440153
C29	C	0.102459	0.216504	-0.388686
C30	C	0.102451	0.158973	-0.285752
C31	C	0.055535	0.158978	-0.285761
C32	C	0.032082	0.187746	-0.337233
C33	C	0.055544	0.216509	-0.388696
C34	C	0.102465	0.274035	-0.491635
C35	C	0.055544	0.274034	-0.491645
C36	C	0.032082	0.245269	-0.440177
C37	C	-0.014825	0.245282	-0.440177
N38	N	-0.038289	0.216516	-0.388719
C39	C	-0.014836	0.187748	-0.337247
C40	C	0.412124	0.245252	-0.440069
C41	C	0.459042	0.245250	-0.440055
C42	C	0.459031	0.187714	-0.337120
C43	C	0.412112	0.187718	-0.337130
C44	C	0.388660	0.216485	-0.388611
C45	C	-0.113362	0.187761	-0.337271
C46	C	-0.160281	0.187770	-0.337283
C47	C	-0.160267	0.245305	-0.440220
C48	C	-0.113351	0.245297	-0.440206
C49	C	-0.089900	0.216522	-0.388729
O50	O	-0.039123	0.269745	-0.483911
O51	O	-0.039108	0.163281	-0.293494
C52	C	0.172828	0.187730	-0.337204
C53	C	0.196290	0.216493	-0.388667
C54	C	0.172837	0.245261	-0.440139
C55	C	0.243208	0.216491	-0.388653
C56	C	0.266662	0.187723	-0.337181
C57	C	0.243197	0.158957	-0.285723
C58	C	0.196282	0.158962	-0.285732
C59	C	0.196301	0.274027	-0.491597
C60	C	0.243216	0.274020	-0.491582
C61	C	0.266670	0.245252	-0.440110
C62	C	0.677840	0.692768	-0.440331
C63	C	0.677871	0.880441	-0.440384
O64	O	0.702280	0.904675	-0.484317
N65	N	0.649164	0.903946	-0.388765
C66	C	0.620445	0.880530	-0.337133
O67	O	0.596025	0.904829	-0.293235
C68	C	0.620412	0.692858	-0.337085
C69	C	0.649124	0.669355	-0.388701
C70	C	0.706550	0.669266	-0.491943
C71	C	0.706544	0.622350	-0.491927
C72	C	0.677828	0.598937	-0.440297
C73	C	0.649118	0.622440	-0.388684
C74	C	0.591691	0.669443	-0.285457
C75	C	0.591684	0.622522	-0.285451
C76	C	0.620396	0.599019	-0.337068
C77	C	0.620395	0.552112	-0.337038
N78	N	0.649103	0.528607	-0.388656
C79	C	0.677819	0.552020	-0.440286
C80	C	0.620465	0.979061	-0.337161
C81	C	0.620474	1.025979	-0.337172
C82	C	0.677900	1.025887	-0.440424
C83	C	0.677893	0.978968	-0.440408
C84	C	0.649172	0.955556	-0.388780
C85	C	0.677804	0.453494	-0.440246
C86	C	0.677796	0.406574	-0.440222
C87	C	0.620368	0.406670	-0.336974
C88	C	0.620377	0.453586	-0.336994
C89	C	0.649097	0.476996	-0.388637
O90	O	0.595996	0.527849	-0.293134
O91	O	0.702228	0.527713	-0.484190
C92	C	0.677847	0.739684	-0.440348
C93	C	0.649137	0.763186	-0.388735
C94	C	0.620421	0.739774	-0.337105
C95	C	0.649146	0.810104	-0.388746
C96	C	0.677862	0.833517	-0.440375
C97	C	0.706569	0.810012	-0.491994
C98	C	0.706563	0.763097	-0.491977
C99	C	0.591713	0.763278	-0.285486
C100	C	0.591722	0.810194	-0.285507
C101	C	0.620439	0.833607	-0.337136
C102	C	0.766331	0.216528	-0.388726
C103	C	0.816265	0.216538	-0.388755
C104	C	0.649174	0.216475	-0.598968
C105	C	0.649184	0.216462	-0.688589
C106	C	0.649221	1.099326	-0.388748
C107	C	0.649190	1.049392	-0.388801
C108	C	0.649191	0.216452	-0.761371
C109	C	0.649202	0.216435	-0.852680
C110	C	0.649212	0.216420	-0.925456
C111	C	0.649223	0.216403	-1.016771
C112	C	0.649156	0.216501	-0.179168
C113	C	0.649234	0.216388	-0.089547
H114	H	-0.094273	0.164327	-0.295357
N115	N	0.562392	0.834191	-0.232766
N116	N	0.536756	0.813276	-0.186675
H117	H	0.516039	0.830222	-0.149431
H118	H	0.597098	1.045110	-0.295132
N119	N	0.482998	0.274643	-0.492619
N120	N	0.462046	0.300325	-0.538570
H121	H	0.478962	0.321084	-0.575698
H122	H	0.036451	0.297459	-0.533570
H123	H	0.393033	0.268679	-0.481992
N124	N	-0.184229	0.274694	-0.492786
N125	N	-0.210436	0.303303	-0.464326
H126	H	-0.227361	0.324058	-0.501454
N127	N	0.126416	0.303422	-0.544212
N128	N	0.105461	0.329100	-0.590165
H129	H	0.122375	0.349856	-0.627303
N130	N	0.267166	0.129577	-0.233145
N131	N	0.309057	0.129582	-0.233150
H132	H	0.325988	0.108832	-0.196021
H133	H	0.177183	0.135539	-0.243823
H134	H	0.729943	0.743964	-0.534008
N135	N	-0.089390	0.274689	-0.492769
N136	N	-0.110338	0.300376	-0.538717
H137	H	-0.093419	0.321133	-0.575845
H138	H	-0.179382	0.164346	-0.295370
N139	N	0.483000	0.158331	-0.284544
N140	N	0.524890	0.158337	-0.284547
H141	H	0.541821	0.137585	-0.247421
H142	H	0.701282	1.044957	-0.482462
N143	N	0.267172	0.303412	-0.544158
N144	N	0.246220	0.329094	-0.590109
H145	H	0.263137	0.349849	-0.627243
N146	N	0.031580	0.129592	-0.233183
N147	N	0.052534	0.103911	-0.187234
H148	H	0.035619	0.083155	-0.150098
H149	H	0.729952	0.829083	-0.534030
H150	H	0.596989	0.387600	-0.294935
H151	H	0.568329	0.744219	-0.243444
N152	N	0.172355	0.303416	-0.544186
N153	N	0.193315	0.329095	-0.590125
H154	H	0.176405	0.349854	-0.627267
N155	N	0.707132	0.382575	-0.492951
N156	N	0.732768	0.403488	-0.539044
H157	H	0.753486	0.386540	-0.576283
N158	N	0.707141	0.477396	-0.493004
N159	N	0.732771	0.456398	-0.539079
H160	H	0.753492	0.473278	-0.576336
H161	H	0.121542	0.135544	-0.243837
H162	H	0.729923	0.603217	-0.533959
N163	N	0.735886	0.693170	-0.544696
N164	N	0.761514	0.672171	-0.590772
H165	H	0.782237	0.689050	-0.628029
H166	H	0.393013	0.164294	-0.295224
H167	H	0.701273	0.959835	-0.482439
H168	H	0.597076	0.960002	-0.295117
H169	H	0.568310	0.688570	-0.243425
H170	H	0.568295	0.603462	-0.243410
H171	H	0.597001	0.472723	-0.294958
