data_functionalizedCrystal
_audit_creation_method	'MofGen! by Chris Wilmer'
_symmetry_space_group_name_H-M	'P1'
_symmetry_Int_Tables_number	1
_symmetry_cell_setting	triclinic
loop_
_symmetry_equiv_pos_as_xyz
  x,y,z
_cell_length_a	17.038272
_cell_length_b	7.088929
_cell_length_c	17.038274
_cell_angle_alpha	96.682291
_cell_angle_beta	88.888328
_cell_angle_gamma	96.660609
loop_
_atom_site_label
_atom_site_type_symbol
_atom_site_fract_x
_atom_site_fract_y
_atom_site_fract_z
O1	O	1.041238	-0.158812	-0.178065
O2	O	1.541238	0.341188	0.321935
O3	O	0.813424	-0.158867	-0.175360
O4	O	1.313424	0.341133	0.324640
O5	O	0.925980	-0.158787	-0.062804
O6	O	1.425980	0.341213	0.437196
O7	O	0.928683	-0.158892	-0.290621
O8	O	1.428683	0.341108	0.209379
O9	O	0.941019	0.159199	-0.047726
O10	O	1.441019	0.659199	0.452274
O11	O	0.828464	0.159119	-0.160282
O12	O	1.328464	0.659119	0.339718
O13	O	1.056278	0.159174	-0.162987
O14	O	1.556278	0.659174	0.337013
Cu15	Cu	0.943744	0.188181	-0.160257
Cu16	Cu	1.443744	0.688181	0.339743
Cu17	Cu	0.925958	-0.187874	-0.178089
Cu18	Cu	1.425958	0.312126	0.321911
O19	O	0.943722	0.159094	-0.275542
O20	O	1.443722	0.659094	0.224458
C21	C	0.791651	0.000120	-0.165358
C22	C	1.291651	0.500120	0.334642
C23	C	0.704366	0.000101	-0.158011
C24	C	1.204366	0.500101	0.341989
N25	N	0.956259	0.452678	-0.147715
N26	N	1.456259	0.952678	0.352285
N27	N	0.913449	-0.452371	-0.190626
N28	N	1.413449	0.047629	0.309374
C29	C	0.658756	0.000071	-0.225476
C30	C	1.158756	0.500071	0.274524
C31	C	0.576745	0.000101	-0.218566
C32	C	1.076745	0.500101	0.281434
C33	C	0.540346	0.000146	-0.144190
C34	C	1.040346	0.500146	0.355810
C35	C	0.585963	0.000182	-0.076720
C36	C	1.085963	0.500182	0.423280
C37	C	0.667973	0.000166	-0.083630
C38	C	1.167973	0.500166	0.416370
C39	C	0.292961	0.000209	-0.119777
C40	C	0.792961	0.500209	0.380223
C41	C	0.210945	0.000219	-0.112871
C42	C	0.710945	0.500219	0.387129
C43	C	0.201733	0.000142	-0.254718
C44	C	0.701733	0.500142	0.245282
C45	C	0.283744	0.000114	-0.261622
C46	C	0.783744	0.500114	0.238378
C47	C	0.329355	0.000160	-0.194151
C48	C	0.829355	0.500160	0.305849
C49	C	0.456518	0.000171	-0.137125
C50	C	0.956518	0.500171	0.362875
C51	C	0.413182	0.000149	-0.201216
C52	C	0.913182	0.500149	0.298784
C53	C	1.078051	0.000183	-0.172989
C54	C	1.578051	0.500183	0.327011
C55	C	1.165335	0.000189	-0.180337
C56	C	1.665335	0.500189	0.319663
C57	C	0.931037	0.000215	-0.025972
C58	C	1.431037	0.500215	0.474028
C59	C	0.923690	0.000241	0.061313
C60	C	1.423690	0.500241	0.561313
C61	C	0.991155	0.000275	0.106924
C62	C	1.491155	0.500275	0.606924
C63	C	0.984246	0.000283	0.188936
C64	C	1.484246	0.500283	0.688936
C65	C	0.909872	0.000270	0.225336
C66	C	1.409872	0.500270	0.725336
C67	C	0.842402	0.000230	0.179719
C68	C	1.342402	0.500230	0.679719
C69	C	0.849311	0.000209	0.097708
C70	C	1.349311	0.500209	0.597708
C71	C	0.885464	0.000320	0.472727
C72	C	1.385464	0.500320	0.972727
C73	C	0.878560	0.000346	0.554744
C74	C	1.378560	0.500346	1.054744
C75	C	1.020405	0.000395	0.563955
C76	C	1.520405	0.500395	1.063955
C77	C	1.027308	0.000386	0.481943
C78	C	1.527308	0.500386	0.981943
C79	C	0.959837	0.000336	0.436332
C80	C	1.459837	0.500336	0.936332
C81	C	0.902809	0.000283	0.309166
C82	C	1.402809	0.500283	0.809166
C83	C	0.966900	0.000309	0.352503
C84	C	1.466900	0.500309	0.852503
C85	C	0.938669	0.000171	0.687629
C86	C	1.438669	0.500171	1.187629
C87	C	0.946025	0.000380	0.600355
C88	C	1.446025	0.500380	1.100355
H89	H	0.539612	0.000074	-0.273503
H90	H	1.039612	0.500074	0.226497
H91	H	1.000637	0.534366	-0.103251
H92	H	1.500637	1.034366	0.396749
H93	H	0.181312	0.000254	-0.052303
H94	H	0.681312	0.500254	0.447697
O95	O	0.337139	0.000160	-0.054162
O96	O	0.837139	0.500160	0.445838
C97	C	0.287425	0.000246	0.012964
C98	C	0.787425	0.500246	0.512964
H99	H	0.224765	-0.059965	-0.005760
H100	H	0.724765	0.440035	0.494240
H101	H	0.309969	-0.092046	0.056196
H102	H	0.809969	0.407954	0.556196
H103	H	0.287340	0.152813	0.042736
H104	H	0.787340	0.652813	0.542736
O105	O	0.770122	-0.000126	0.215025
O106	O	1.270122	0.499874	0.715025
C107	C	0.720871	-0.164811	0.184355
C108	C	1.220871	0.335189	0.684355
H109	H	0.758824	-0.279910	0.159044
H110	H	1.258824	0.220090	0.659044
H111	H	0.681546	-0.220085	0.233577
H112	H	1.181546	0.279915	0.733577
H113	H	0.682419	-0.127607	0.135645
H114	H	1.182419	0.372393	0.635645
H115	H	1.051719	0.000297	0.077293
H116	H	1.551719	0.500297	0.577293
H117	H	0.794373	0.000181	0.060572
H118	H	1.294373	0.500181	0.560572
H119	H	0.688386	0.000033	-0.286040
H120	H	1.188386	0.500033	0.213960
H121	H	1.087871	0.000396	0.452311
H122	H	1.587871	0.500396	0.952311
H123	H	0.313374	0.000055	-0.322188
H124	H	0.813374	0.500055	0.177812
O125	O	1.049867	0.000413	0.233130
O126	O	1.549867	0.500413	0.733130
C127	C	1.116990	0.000389	0.183414
C128	C	1.616990	0.500389	0.683414
H129	H	1.103967	0.060566	0.126460
H130	H	1.603967	0.560566	0.626460
H131	H	1.168959	0.092741	0.214713
H132	H	1.668959	0.592741	0.714713
H133	H	1.132324	-0.152155	0.168870
H134	H	1.632324	0.347845	0.668870
O135	O	1.085857	0.000341	0.608374
O136	O	1.585857	0.500341	1.108374
C137	C	1.063818	0.000405	0.688567
C138	C	1.563818	0.500405	1.188567
H139	H	0.999076	-0.059806	0.692954
H140	H	1.499076	0.440194	1.192954
H141	H	1.102119	-0.091899	0.718295
H142	H	1.602119	0.408101	1.218295
H143	H	1.072437	0.152965	0.719298
H144	H	1.572437	0.652965	1.219298
O145	O	0.550554	-0.000112	-0.004505
O146	O	1.050554	0.499888	0.495495
C147	C	0.495580	-0.164768	-0.004078
C148	C	0.995580	0.335232	0.495922
H149	H	0.512230	-0.279898	-0.051864
H150	H	1.012230	0.220102	0.448136
H151	H	0.496107	-0.220016	0.056105
H152	H	0.996107	0.279984	0.556105
H153	H	0.433951	-0.127536	-0.016131
H154	H	0.933951	0.372464	0.483869
H155	H	0.817994	0.000367	0.584380
H156	H	1.317994	0.500367	1.084380
H157	H	0.830523	0.000280	0.435600
H158	H	1.330523	0.500280	0.935600
H159	H	1.027453	0.000277	0.322860
H160	H	1.527453	0.500277	0.822860
H161	H	0.164589	0.000108	-0.309648
H162	H	0.664589	0.500108	0.190352
H163	H	0.842253	0.000277	0.338813
H164	H	1.342253	0.500277	0.838813
H165	H	0.442822	0.000123	-0.261772
H166	H	0.942822	0.500123	0.238228
O167	O	0.712353	-0.000068	-0.018165
O168	O	1.212353	0.499932	0.481835
C169	C	0.752253	-0.164784	-0.025717
C170	C	1.252253	0.335216	0.474283
H171	H	0.757936	-0.219724	-0.090932
H172	H	1.257936	0.280276	0.409068
H173	H	0.813627	-0.127737	0.001194
H174	H	1.313627	0.372263	0.501194
H175	H	0.717461	-0.280081	0.006479
H176	H	1.217461	0.219919	0.506479
O177	O	0.421104	-0.000139	-0.064913
O178	O	0.921104	0.499861	0.435087
C179	C	0.366124	-0.164788	-0.064497
C180	C	0.866124	0.335212	0.435503
H181	H	0.382776	-0.279917	-0.112282
H182	H	0.882776	0.220083	0.387718
H183	H	0.366640	-0.220046	-0.004314
H184	H	0.866640	0.279954	0.495686
H185	H	0.304499	-0.127544	-0.076558
H186	H	0.804499	0.372456	0.423442
H187	H	0.869080	0.465951	-0.235093
H188	H	1.369080	0.965951	0.264907
