data_functionalizedCrystal
_audit_creation_method	'MofGen! by Chris Wilmer'
_symmetry_space_group_name_H-M	'P1'
_symmetry_Int_Tables_number	1
_symmetry_cell_setting	triclinic
loop_
_symmetry_equiv_pos_as_xyz
  x,y,z
_cell_length_a	27.731994
_cell_length_b	27.732048
_cell_length_c	26.210047
_cell_angle_alpha	89.999521
_cell_angle_beta	89.997128
_cell_angle_gamma	82.631595
loop_
_atom_site_label
_atom_site_type_symbol
_atom_site_fract_x
_atom_site_fract_y
_atom_site_fract_z
O1	O	0.640948	0.057385	-0.042362
O2	O	0.500151	0.066158	-0.042379
O3	O	0.574923	-0.008626	-0.042360
O4	O	0.566177	0.132169	-0.042381
O5	O	0.574908	-0.008614	0.042498
O6	O	0.500137	0.066170	0.042479
O7	O	0.640934	0.057397	0.042496
Cu8	Cu	0.570534	0.061784	0.050236
Cu9	Cu	0.570551	0.061771	-0.050119
O10	O	0.566162	0.132181	0.042477
C11	C	0.482137	0.065984	0.000047
C12	C	0.428480	0.065442	0.000041
C13	C	0.095754	0.062032	0.046317
C14	C	-0.105904	0.059971	0.046324
O15	O	-0.131984	0.059689	0.085663
N16	N	-0.131111	0.059708	0.000067
C17	C	-0.105900	0.059958	-0.046193
O18	O	-0.131967	0.059683	-0.085537
C19	C	0.095758	0.062016	-0.046199
C20	C	0.120961	0.062283	0.000060
C21	C	0.120958	0.062299	0.092573
C22	C	0.171369	0.062817	0.092571
C23	C	0.196576	0.063068	0.046313
C24	C	0.171372	0.062802	0.000058
C25	C	0.120968	0.062263	-0.092459
C26	C	0.171386	0.062776	-0.092457
C27	C	0.196590	0.063043	-0.046197
C28	C	0.246991	0.063571	-0.046201
N29	N	0.272198	0.063833	0.000055
C30	C	0.246991	0.063582	0.046312
C31	C	-0.211773	0.058878	-0.046187
C32	C	-0.262188	0.058365	-0.046186
C33	C	-0.262188	0.058376	0.046331
C34	C	-0.211774	0.058894	0.046329
C35	C	-0.186566	0.059141	0.000069
C36	C	0.352858	0.064670	0.046305
C37	C	0.403273	0.065190	0.046298
C38	C	0.403269	0.065176	-0.046218
C39	C	0.352858	0.064659	-0.046213
C40	C	0.327654	0.064404	0.000053
O41	O	0.273102	0.063848	-0.085520
O42	O	0.273067	0.063847	0.085650
C43	C	0.045343	0.061514	0.046319
C44	C	0.020139	0.061247	0.000064
C45	C	0.045346	0.061499	-0.046193
C46	C	-0.030275	0.060734	0.000065
C47	C	-0.055483	0.060482	0.046323
C48	C	-0.030276	0.060745	0.092579
C49	C	0.020135	0.061263	0.092577
C50	C	0.020139	0.061236	-0.092449
C51	C	-0.030272	0.060719	-0.092443
C52	C	-0.055479	0.060468	-0.046186
C53	C	0.574732	-0.026627	0.000070
C54	C	0.574179	-0.080282	0.000074
C55	C	0.614884	-0.419105	0.000053
C56	C	0.612833	-0.620764	0.000046
O57	O	0.650055	-0.652027	0.000028
N58	N	0.568496	-0.639879	0.000041
C59	C	0.524670	-0.608576	0.000034
O60	O	0.486912	-0.629462	0.000024
C61	C	0.526721	-0.406918	0.000038
C62	C	0.571061	-0.387805	0.000048
C63	C	0.659220	-0.399992	0.000063
C64	C	0.659732	-0.349580	0.000068
C65	C	0.615908	-0.318281	0.000062
C66	C	0.571573	-0.337394	0.000053
C67	C	0.482895	-0.375615	0.000028
C68	C	0.483412	-0.325198	0.000027
C69	C	0.527751	-0.306086	0.000037
C70	C	0.528262	-0.255683	0.000052
N71	N	0.572598	-0.236567	0.000057
C72	C	0.616421	-0.267867	0.000062
C73	C	0.523596	-0.714450	0.000033
C74	C	0.523083	-0.764864	0.000033
C75	C	0.611246	-0.777049	0.000044
C76	C	0.611759	-0.726633	0.000048
C77	C	0.567932	-0.695335	0.000038
C78	C	0.617494	-0.161998	0.000073
C79	C	0.618002	-0.111581	0.000079
C80	C	0.529839	-0.099401	0.000066
C81	C	0.529331	-0.149813	0.000062
C82	C	0.573162	-0.181111	0.000063
O83	O	0.491060	-0.224391	0.000064
O84	O	0.654174	-0.246971	0.000061
C85	C	0.614372	-0.469517	0.000049
C86	C	0.570036	-0.488629	0.000039
C87	C	0.526213	-0.457330	0.000034
C88	C	0.569523	-0.539043	0.000039
C89	C	0.613346	-0.570343	0.000044
C90	C	0.657683	-0.551228	0.000049
C91	C	0.658195	-0.500816	0.000054
C92	C	0.481876	-0.476445	0.000029
C93	C	0.481367	-0.526857	0.000025
C94	C	0.525191	-0.558157	0.000030
C95	C	0.658949	0.057571	0.000068
C96	C	0.712605	0.058114	0.000071
C97	C	0.566353	0.150182	0.000046
C98	C	0.566906	0.203837	0.000038
N99	N	0.570526	0.061794	0.120820
N100	N	0.570563	0.061757	-0.120703
C101	C	0.603656	0.028664	0.473342
C102	C	0.603667	0.028657	0.687001
O103	O	0.631818	0.000491	0.714630
N104	N	0.570554	0.061760	0.713714
C105	C	0.537433	0.094865	0.687008
O106	O	0.509265	0.123018	0.714632
C107	C	0.537421	0.094869	0.473351
C108	C	0.570539	0.061767	0.446641
C109	C	0.636772	-0.004436	0.446632
C110	C	0.636771	-0.004432	0.393221
C111	C	0.603654	0.028671	0.366519
C112	C	0.570538	0.061771	0.393229
C113	C	0.504298	0.127971	0.446647
C114	C	0.504297	0.127969	0.393229
C115	C	0.537416	0.094867	0.366519
C116	C	0.537420	0.094878	0.313117
N117	N	0.570533	0.061775	0.286404
C118	C	0.603650	0.028672	0.313105
C119	C	0.537443	0.094861	0.799182
C120	C	0.537446	0.094861	0.852596
C121	C	0.603680	0.028652	0.852585
C122	C	0.603678	0.028655	0.799169
C123	C	0.570556	0.061758	0.772469
C124	C	0.603645	0.028682	0.200937
C125	C	0.603643	0.028690	0.147521
C126	C	0.537408	0.094897	0.147537
C127	C	0.537412	0.094891	0.200949
C128	C	0.570533	0.061780	0.227647
O129	O	0.509281	0.123026	0.285454
O130	O	0.631807	0.000516	0.285473
C131	C	0.603658	0.028660	0.526754
C132	C	0.570542	0.061760	0.553464
C133	C	0.537425	0.094863	0.526762
C134	C	0.570546	0.061759	0.606878
C135	C	0.603663	0.028656	0.633579
C136	C	0.636776	-0.004447	0.606866
C137	C	0.636775	-0.004443	0.553455
C138	C	0.504311	0.127966	0.553475
C139	C	0.504316	0.127960	0.606887
C140	C	0.537433	0.094857	0.633588
H141	H	0.100439	0.062093	0.130243
Br142	Br	0.492466	0.139823	0.111291
Br143	Br	-0.177574	0.059256	0.109112
H144	H	-0.191254	0.059079	-0.083860
Br145	Br	0.459367	0.172891	0.643130
Br146	Br	0.678181	-0.085646	0.000094
Br147	Br	-0.296408	0.058035	0.109109
H148	H	0.694908	-0.425472	0.000065
Br149	Br	0.670720	-0.819536	0.000050
H150	H	-0.050789	0.060505	-0.130116
Br151	Br	0.671935	-0.700701	0.000063
Br152	Br	0.648624	-0.016273	0.888833
H153	H	0.493226	-0.165375	0.000068
H154	H	0.446789	-0.391167	0.000016
H155	H	0.191907	0.062977	-0.130128
Br156	Br	-0.296388	0.058014	-0.108969
Br157	Br	0.086776	0.061899	-0.155244
Br158	Br	0.492506	0.139794	0.888839
H159	H	0.477343	0.154922	0.531739
H160	H	0.423791	0.065410	0.083970
H161	H	0.630614	0.001735	0.125775
Br162	Br	0.681717	-0.049360	0.356977
Br163	Br	-0.064496	0.060407	0.155356
Br164	Br	0.648627	-0.016271	0.762926
Br165	Br	0.676980	-0.204466	0.000074
Br166	Br	0.422395	-0.433975	0.000019
H167	H	0.494160	-0.073908	0.000064
Br168	Br	0.462906	-0.790795	0.000031
Br169	Br	0.318650	0.064306	-0.108993
H170	H	0.423802	0.065383	-0.083880
H171	H	0.040652	0.061481	0.130246
H172	H	0.332341	0.064467	0.083978
H173	H	0.487905	-0.688970	0.000026
H174	H	0.694301	-0.485260	0.000062
H175	H	0.040658	0.061439	-0.130118
H176	H	0.663740	-0.031395	0.468368
H177	H	0.693365	-0.576720	0.000055
Br178	Br	0.648595	-0.016255	0.237162
H179	H	0.510470	0.121819	0.777446
H180	H	0.477324	0.154925	0.371492
H181	H	0.695837	-0.334024	0.000074
H182	H	0.445258	-0.542413	0.000021
H183	H	0.477329	0.154926	0.468387
H184	H	0.663743	-0.031400	0.628615
H185	H	0.447722	-0.299716	0.000019
Br186	Br	0.205566	0.063178	0.155354
Br187	Br	0.492470	0.139823	0.237197
Br188	Br	0.681724	-0.049369	0.517213
