data_functionalizedCrystal
_audit_creation_method	'MofGen! by Chris Wilmer'
_symmetry_space_group_name_H-M	'P1'
_symmetry_Int_Tables_number	1
_symmetry_cell_setting	triclinic
loop_
_symmetry_equiv_pos_as_xyz
  x,y,z
_cell_length_a	14.971486
_cell_length_b	14.971494
_cell_length_c	13.448316
_cell_angle_alpha	89.995115
_cell_angle_beta	89.998199
_cell_angle_gamma	83.615843
loop_
_atom_site_label
_atom_site_type_symbol
_atom_site_fract_x
_atom_site_fract_y
_atom_site_fract_z
O1	O	1.186951	0.116564	-0.082574
O2	O	0.926551	0.130523	-0.082600
O3	O	1.063726	-0.006656	-0.082584
O4	O	1.049776	0.253743	-0.082590
O5	O	1.063709	-0.006664	0.082800
O6	O	0.926534	0.130515	0.082784
O7	O	1.186934	0.116556	0.082810
Cu8	Cu	1.056732	0.123534	0.097898
Cu9	Cu	1.056753	0.123544	-0.097688
O10	O	1.049758	0.253735	0.082794
C11	C	0.893218	0.129895	0.000088
C12	C	0.793921	0.128024	0.000078
C13	C	0.736698	0.208613	0.000078
C14	C	0.643398	0.206850	0.000092
C15	C	0.607323	0.124497	0.000101
C16	C	0.664554	0.043902	0.000104
C17	C	0.757851	0.045666	0.000096
C18	C	0.470091	0.040231	0.000118
C19	C	0.376787	0.038466	0.000124
C20	C	0.355638	0.201415	0.000114
C21	C	0.448936	0.203179	0.000106
C22	C	0.506160	0.122583	0.000108
C23	C	1.063093	-0.039985	0.000106
C24	C	1.061219	-0.139281	0.000102
C25	C	1.060350	-0.185921	-0.090050
C26	C	1.058584	-0.279221	-0.090052
C27	C	1.057693	-0.325879	0.000100
C28	C	1.058559	-0.279232	0.090259
C29	C	1.060319	-0.185933	0.090259
C30	C	1.054893	-0.473695	0.090252
C31	C	1.053135	-0.567000	0.090252
C32	C	1.053158	-0.566982	-0.090059
C33	C	1.054918	-0.473684	-0.090059
C34	C	1.055786	-0.427043	0.000100
C35	C	1.220267	0.117184	0.000120
C36	C	1.319564	0.119055	0.000123
C37	C	1.050392	0.287064	0.000101
C38	C	1.052266	0.386360	0.000100
N39	N	1.056724	0.123527	0.235462
N40	N	1.056768	0.123545	-0.235252
C41	C	1.117484	0.062809	0.287510
C42	C	1.117490	0.062808	0.391613
C43	C	1.056739	0.123530	0.443667
C44	C	0.995973	0.184251	0.391612
C45	C	0.995963	0.184247	0.287510
C46	C	0.995997	0.184257	0.608592
C47	C	0.996007	0.184263	0.712700
C48	C	1.117524	0.062819	0.712694
C49	C	1.117515	0.062814	0.608593
C50	C	1.056749	0.123536	0.556545
H51	H	0.635174	-0.023152	0.000125
H52	H	1.052402	-0.604985	0.163661
H53	H	0.804442	-0.019958	0.000096
F54	F	1.061242	-0.136296	0.186211
H55	H	1.061080	-0.147940	-0.163463
F56	F	0.530991	-0.045549	0.000123
H57	H	0.946503	0.233689	0.434000
F58	F	0.582501	0.292624	0.000088
F59	F	1.055818	-0.424059	0.186210
H60	H	1.052449	-0.604961	-0.163470
H61	H	0.946512	0.233701	0.566218
H62	H	0.946485	0.233688	0.245134
F63	F	0.775082	0.296265	0.000062
H64	H	0.478304	0.270238	0.000090
H65	H	0.946537	0.233708	0.755077
F66	F	0.294735	0.287191	0.000114
F67	F	1.057601	-0.328890	0.186205
H68	H	0.347418	-0.028593	0.000132
F69	F	1.057660	-0.328854	-0.186004
H70	H	1.167001	0.013377	0.755078
H71	H	1.166959	0.013366	0.245134
F72	F	1.055874	-0.424029	-0.186008
H73	H	1.166965	0.013367	0.433990
H74	H	1.166987	0.013374	0.566211
