data_functionalizedCrystal
_audit_creation_method	'MofGen! by Chris Wilmer'
_symmetry_space_group_name_H-M	'P1'
_symmetry_Int_Tables_number	1
_symmetry_cell_setting	triclinic
loop_
_symmetry_equiv_pos_as_xyz
  x,y,z
_cell_length_a	19.188928
_cell_length_b	14.971486
_cell_length_c	13.448316
_cell_angle_alpha	90.006811
_cell_angle_beta	90.023464
_cell_angle_gamma	83.378970
loop_
_atom_site_label
_atom_site_type_symbol
_atom_site_fract_x
_atom_site_fract_y
_atom_site_fract_z
O1	O	-0.926507	-0.111661	-0.083077
O2	O	-0.723244	-0.126695	-0.082995
O3	O	-0.830324	0.011051	-0.083031
O4	O	-0.819428	-0.249407	-0.083041
O5	O	-0.830310	0.011059	0.082353
O6	O	-0.723231	-0.126687	0.082389
O7	O	-0.926494	-0.111652	0.082307
Cu8	Cu	-0.824861	-0.119169	0.097449
Cu9	Cu	-0.824877	-0.119179	-0.098137
O10	O	-0.819414	-0.249398	0.082343
C11	C	-0.697225	-0.126205	-0.000292
C12	C	-0.619716	-0.124744	-0.000261
N13	N	-0.824855	-0.119161	0.235013
C14	C	-0.829830	0.044377	-0.000339
C15	C	-0.828370	0.143667	-0.000340
C16	C	-0.575052	-0.205569	-0.000276
C17	C	-0.502223	-0.204197	-0.000282
C18	C	-0.474062	-0.121995	-0.000292
C19	C	-0.518736	-0.041160	-0.000271
C20	C	-0.591563	-0.042534	-0.000255
N21	N	-0.365884	-0.059166	-0.056609
N22	N	-0.296701	-0.057866	-0.056626
C23	C	-0.254640	-0.117849	-0.000337
N24	N	-0.284374	-0.179195	0.055957
N25	N	-0.353563	-0.180498	0.055969
C26	C	-0.395095	-0.120496	-0.000309
C27	C	-0.131007	-0.197192	-0.000358
C28	C	-0.058178	-0.195816	-0.000358
C29	C	-0.074692	-0.032777	-0.000356
C30	C	-0.147519	-0.034155	-0.000347
C31	C	-0.175672	-0.116365	-0.000352
C32	C	0.047487	-0.112146	-0.000380
C33	C	-0.030021	-0.113614	-0.000366
C34	C	-0.819908	-0.282725	-0.000351
C35	C	-0.821369	-0.382014	-0.000357
C36	C	-0.891276	0.201225	-0.000364
C37	C	-0.889900	0.294517	-0.000374
C38	C	-0.825616	0.330249	-0.000351
C39	C	-0.762705	0.272684	-0.000330
C40	C	-0.764082	0.179393	-0.000327
C41	C	-0.759840	0.467131	-0.000332
C42	C	-0.758462	0.560428	-0.000333
C43	C	-0.885657	0.582255	-0.000379
C44	C	-0.887034	0.488964	-0.000376
C45	C	-0.824123	0.431405	-0.000353
N46	N	-0.824889	-0.119179	-0.235701
C47	C	-0.872285	-0.058192	0.287037
C48	C	-0.872289	-0.058191	0.391141
C49	C	-0.824867	-0.119165	0.443218
C50	C	-0.777432	-0.180137	0.391186
C51	C	-0.777425	-0.180132	0.287085
C52	C	-0.777451	-0.180143	0.608166
C53	C	-0.777459	-0.180148	0.712275
C54	C	-0.872315	-0.058201	0.712222
C55	C	-0.872308	-0.058197	0.608121
C56	C	-0.824874	-0.119171	0.556096
H57	H	-0.597969	-0.272510	-0.000283
O58	O	-0.923460	0.007558	0.447244
H59	H	-0.914523	0.077263	0.427275
O60	O	-0.953516	0.644326	-0.000406
H61	H	-0.955947	0.687336	-0.067822
H62	H	-0.738802	-0.229779	0.244727
O63	O	-0.689131	0.598974	-0.000325
H64	H	-0.645615	0.543278	-0.000327
H65	H	-0.943623	0.172140	-0.000377
H66	H	-0.910937	-0.008555	0.754586
O67	O	-0.923453	0.007567	0.551945
H68	H	-0.956432	0.049972	0.605608
H69	H	-0.738842	-0.229798	0.754670
O70	O	-0.691987	0.405044	-0.000297
H71	H	-0.647055	0.445561	-0.000268
H72	H	-0.465851	-0.270016	-0.000292
H73	H	-0.627929	0.023285	-0.000243
H74	H	-0.738823	-0.229791	0.565811
O75	O	-0.696230	0.117313	-0.000291
H76	H	-0.693816	0.074284	-0.067700
O77	O	-0.726286	-0.245904	0.447355
H78	H	-0.735236	-0.315601	0.427344
O79	O	-0.195696	0.053024	-0.000342
H80	H	-0.229239	0.056303	0.067078
O81	O	-0.161381	-0.285855	-0.000344
H82	H	-0.118085	-0.341829	-0.000337
H83	H	-0.495802	0.025769	-0.000293
O84	O	-0.693371	0.311222	-0.000294
H85	H	-0.689706	0.353206	-0.067693
H86	H	-0.021812	-0.261637	-0.000365
H87	H	-0.051764	0.034153	-0.000426
H88	H	-0.941124	0.341378	-0.000392
H89	H	-0.910904	-0.008544	0.244643
O90	O	-0.956366	0.450418	-0.000413
H91	H	-0.999881	0.506114	-0.000444
