data_functionalizedCrystal
_audit_creation_method	'MofGen! by Chris Wilmer'
_symmetry_space_group_name_H-M	'P1'
_symmetry_Int_Tables_number	1
_symmetry_cell_setting	triclinic
loop_
_symmetry_equiv_pos_as_xyz
  x,y,z
_cell_length_a	15.944499
_cell_length_b	11.792241
_cell_length_c	10.868271
_cell_angle_alpha	89.999844
_cell_angle_beta	89.998169
_cell_angle_gamma	96.164488
loop_
_atom_site_label
_atom_site_type_symbol
_atom_site_fract_x
_atom_site_fract_y
_atom_site_fract_z
O1	O	0.115126	-1.505932	0.102193
O2	O	0.448460	-1.172598	0.435527
O3	O	0.781793	-0.839265	0.768860
O4	O	0.126992	-1.175490	0.102221
O5	O	0.460325	-0.842157	0.435554
O6	O	0.793658	-0.508823	0.768888
O7	O	-0.001178	-1.349765	0.102208
O8	O	0.332155	-1.016432	0.435542
O9	O	0.665489	-0.683098	0.768875
O10	O	0.243296	-1.331657	0.102206
O11	O	0.576629	-0.998323	0.435539
O12	O	0.909963	-0.664990	0.768873
O13	O	-0.001174	-1.349749	-0.102436
O14	O	0.332159	-1.016416	0.230897
O15	O	0.665493	-0.683083	0.564230
O16	O	0.126996	-1.175474	-0.102424
O17	O	0.460329	-0.842141	0.230910
O18	O	0.793662	-0.508807	0.564243
O19	O	0.115130	-1.505916	-0.102451
O20	O	0.448464	-1.172583	0.230882
O21	O	0.781797	-0.839249	0.564215
Zn22	Zn	0.121064	-1.340693	-0.134929
Zn23	Zn	0.454397	-1.007359	0.198404
Zn24	Zn	0.787730	-0.674026	0.531737
Zn25	Zn	0.121058	-1.340713	0.134699
Zn26	Zn	0.454392	-1.007380	0.468032
Zn27	Zn	0.787725	-0.674047	0.801366
O28	O	0.243300	-1.331641	-0.102439
O29	O	0.576633	-0.998307	0.230895
O30	O	0.909967	-0.664974	0.564228
C31	C	0.126248	-1.133197	-0.000098
C32	C	0.459582	-0.799864	0.333236
C33	C	0.792915	-0.466531	0.666569
C34	C	0.124017	-1.007203	-0.000087
C35	C	0.457351	-0.673869	0.333247
C36	C	0.790684	-0.340536	0.666580
C37	C	-0.032474	-1.349016	-0.000111
C38	C	0.300859	-1.015682	0.333223
C39	C	0.634193	-0.682349	0.666556
C40	C	-0.125732	-1.346793	-0.000101
C41	C	0.207601	-1.013460	0.333232
C42	C	0.540934	-0.680126	0.666566
C43	C	0.115874	-1.548208	-0.000130
C44	C	0.449207	-1.214875	0.333203
C45	C	0.782540	-0.881542	0.666537
C46	C	0.118104	-1.674203	-0.000133
C47	C	0.451438	-1.340870	0.333200
C48	C	0.784771	-1.007537	0.666534
C49	C	-0.416811	-1.448042	-0.000116
C50	C	-0.083478	-1.114709	0.333217
C51	C	0.249855	-0.781376	0.666550
C52	C	-0.356022	-1.395403	-0.101017
C53	C	-0.022688	-1.062069	0.232316
C54	C	0.310645	-0.728736	0.565650
C55	C	-0.461405	-1.338718	-0.000115
C56	C	-0.128072	-1.005385	0.333218
C57	C	0.205261	-0.672051	0.666552
C58	C	-0.356032	-1.395389	0.100747
C59	C	-0.022699	-1.062056	0.434080
C60	C	0.310635	-0.728722	0.767413
C61	C	-0.296479	-1.342691	-0.000106
C62	C	0.036855	-1.009358	0.333227
C63	C	0.370188	-0.676025	0.666561
C64	C	-0.401844	-1.286048	-0.101099
C65	C	-0.068510	-0.952714	0.232235
C66	C	0.264823	-0.619381	0.565568
C67	C	-0.401861	-1.286049	0.100756
C68	C	-0.068527	-0.952716	0.434089
C69	C	0.264806	-0.619383	0.767422
C70	C	-0.341089	-1.233330	-0.000170
C71	C	-0.007755	-0.899997	0.333164
C72	C	0.325578	-0.566663	0.666497
C73	C	-0.556416	-1.336432	-0.000121
C74	C	-0.223082	-1.003099	0.333212
C75	C	0.110251	-0.669765	0.666546
C76	C	-0.201469	-1.344969	-0.000109
C77	C	0.131864	-1.011635	0.333225
C78	C	0.465197	-0.678302	0.666558
C79	C	0.274596	-1.332390	-0.000117
C80	C	0.607929	-0.999057	0.333216
C81	C	0.941263	-0.665723	0.666550
C82	C	0.367854	-1.334613	-0.000118
C83	C	0.701188	-1.001279	0.333215
C84	C	1.034521	-0.667946	0.666548
N85	N	0.121067	-1.340687	-0.318943
N86	N	0.454400	-1.007353	0.014390
N87	N	0.787734	-0.674020	0.347723
C88	C	0.119915	-0.776525	-0.000122
C89	C	0.453249	-0.443192	0.333211
C90	C	0.786582	-0.109859	0.666545
C91	C	0.122195	-0.904891	-0.000103
C92	C	0.455528	-0.571558	0.333231
C93	C	0.788861	-0.238224	0.666564
C94	C	0.121067	-1.340695	-0.430281
C95	C	0.454401	-1.007362	-0.096948
C96	C	0.787734	-0.674029	0.236386
C97	C	0.121059	-1.340710	-0.569959
C98	C	0.454393	-1.007377	-0.236625
C99	C	0.787726	-0.674044	0.096708
N100	N	0.121048	-1.340728	0.318713
N101	N	0.454382	-1.007395	0.652046
N102	N	0.787715	-0.674062	0.985380
H103	H	-0.449732	-1.538771	-0.000221
H104	H	-0.116398	-1.205437	0.333113
H105	H	0.216935	-0.872104	0.666446
H106	H	-0.422183	-1.239853	0.186069
H107	H	-0.088850	-0.906520	0.519402
H108	H	0.244483	-0.573187	0.852735
H109	H	-0.335721	-1.441637	-0.186326
H110	H	-0.002387	-1.108304	0.147007
H111	H	0.330946	-0.774971	0.480341
H112	H	-0.422032	-1.239839	-0.186491
H113	H	-0.088699	-0.906505	0.146842
H114	H	0.244634	-0.573172	0.480175
H115	H	-0.308316	-1.142523	-0.000221
H116	H	0.025017	-0.809190	0.333112
H117	H	0.358351	-0.475856	0.666446
H118	H	-0.335745	-1.441655	0.186042
H119	H	-0.002411	-1.108321	0.519375
H120	H	0.330922	-0.774988	0.852709
