data_functionalizedCrystal
_audit_creation_method	'MofGen! by Chris Wilmer'
_symmetry_space_group_name_H-M	'P1'
_symmetry_Int_Tables_number	1
_symmetry_cell_setting	triclinic
loop_
_symmetry_equiv_pos_as_xyz
  x,y,z
_cell_length_a	10.654550
_cell_length_b	19.188930
_cell_length_c	9.730223
_cell_angle_alpha	89.993564
_cell_angle_beta	89.996251
_cell_angle_gamma	83.814841
loop_
_atom_site_label
_atom_site_type_symbol
_atom_site_fract_x
_atom_site_fract_y
_atom_site_fract_z
O1	O	1.665759	0.098059	-0.114420
O2	O	1.300083	0.107401	-0.114400
O3	O	1.493474	0.001144	-0.114384
O4	O	1.472368	0.204317	-0.114436
O5	O	1.493471	0.001146	0.114196
O6	O	1.300081	0.107404	0.114180
O7	O	1.665757	0.098061	0.114160
Zn8	Zn	1.482918	0.102733	0.150462
Zn9	Zn	1.482921	0.102730	-0.150702
O10	O	1.472366	0.204319	0.114144
C11	C	1.253298	0.106717	-0.000107
C12	C	1.113898	0.104664	-0.000098
C13	C	1.033089	0.167227	-0.000134
C14	C	0.902109	0.165295	-0.000157
C15	C	0.932761	0.038231	-0.000114
C16	C	1.063738	0.040164	-0.000081
C17	C	1.083249	0.231728	-0.000151
C18	C	1.002438	0.294296	-0.000189
C19	C	0.871458	0.292363	-0.000212
C20	C	0.821289	0.227863	-0.000198
C21	C	1.492789	-0.024871	-0.000090
C22	C	1.490737	-0.102389	-0.000078
C23	C	1.604213	-0.146570	-0.000078
C24	C	1.602285	-0.219407	-0.000099
C25	C	1.486876	-0.248058	-0.000094
C26	C	1.373386	-0.203867	-0.000102
C27	C	1.375316	-0.131032	-0.000094
N28	N	1.398658	-0.356639	0.077701
N29	N	1.396832	-0.425830	0.077696
C30	C	1.481052	-0.467505	-0.000121
N31	N	1.567186	-0.437377	-0.077917
N32	N	1.569016	-0.368180	-0.077906
C33	C	1.484770	-0.327034	-0.000104
C34	C	1.592445	-0.590665	-0.000147
C35	C	1.590513	-0.663502	-0.000177
C36	C	1.361610	-0.647960	-0.000166
C37	C	1.363545	-0.575125	-0.000149
C38	C	1.478966	-0.546481	-0.000133
C39	C	1.712541	0.098746	-0.000136
C40	C	1.851941	0.100798	-0.000154
C41	C	1.473051	0.230334	-0.000153
C42	C	1.475102	0.307852	-0.000174
N43	N	1.482925	0.102735	0.355998
N44	N	1.482924	0.102722	-0.356238
C45	C	1.568581	0.055700	0.427932
C46	C	1.568577	0.055692	0.571815
C47	C	1.397260	0.149759	0.571818
C48	C	1.397258	0.149764	0.427938
C49	C	1.654248	0.008672	0.355992
C50	C	1.739911	-0.038367	0.427925
C51	C	1.739908	-0.038375	0.571808
C52	C	1.654242	0.008655	0.643758
H53	H	1.129536	-0.010780	-0.000055
C54	C	1.303040	0.201498	0.348800
H55	H	1.315300	0.194759	0.252808
H56	H	1.316405	0.248168	0.372366
H57	H	1.219275	0.193472	0.372389
H58	H	1.809649	-0.076680	0.630375
C59	C	1.731170	-0.115066	-0.000084
H60	H	1.798476	-0.151816	-0.000101
H61	H	1.736687	-0.086980	0.079624
H62	H	1.736678	-0.086974	-0.079808
C63	C	1.727109	-0.268019	-0.000090
H64	H	1.709425	-0.315498	-0.000104
H65	H	1.774442	-0.259281	0.079625
H66	H	1.774459	-0.259272	-0.079807
C67	C	1.250488	-0.082430	-0.000081
H68	H	1.181475	-0.109922	-0.000075
H69	H	1.246484	-0.053683	-0.079783
H70	H	1.246486	-0.053705	0.079649
H71	H	1.189898	0.233309	-0.000138
H72	H	1.654238	0.008639	0.760917
C73	C	1.303018	0.201479	0.650953
H74	H	1.251989	0.229485	0.587504
H75	H	1.348003	0.230779	0.707090
H76	H	1.250895	0.176072	0.707072
H77	H	1.267641	-0.671287	-0.000168
C78	C	1.057619	0.365241	-0.000203
H79	H	1.147199	0.357433	-0.000197
H80	H	1.029840	0.391032	0.079493
H81	H	1.029873	0.391022	-0.079938
C82	C	0.782570	0.361183	-0.000252
H83	H	0.831207	0.399871	-0.000268
H84	H	0.730816	0.363077	0.079445
H85	H	0.730863	0.363065	-0.079987
H86	H	1.682922	-0.699475	-0.000185
C87	C	1.238721	-0.526522	-0.000126
H88	H	1.169709	-0.554016	-0.000114
H89	H	1.234713	-0.497777	-0.079830
H90	H	1.234721	-0.497797	0.079601
C91	C	0.677215	0.225734	-0.000213
H92	H	0.658913	0.178361	-0.000195
H93	H	0.641937	0.248760	-0.079932
H94	H	0.641913	0.248760	0.079499
H95	H	0.891902	-0.014283	-0.000125
H96	H	1.686428	-0.567342	-0.000140
C97	C	1.246439	-0.235380	-0.000091
H98	H	1.261540	-0.285086	-0.000081
H99	H	1.199730	-0.220246	-0.079799
H100	H	1.199733	-0.220256	0.079633
H101	H	1.809651	-0.076661	0.369336
H102	H	1.654261	0.008676	0.238835
