data_functionalizedCrystal
_audit_creation_method	'MofGen! by Chris Wilmer'
_symmetry_space_group_name_H-M	'P1'
_symmetry_Int_Tables_number	1
_symmetry_cell_setting	triclinic
loop_
_symmetry_equiv_pos_as_xyz
  x,y,z
_cell_length_a	18.050591
_cell_length_b	18.050590
_cell_length_c	18.050582
_cell_angle_alpha	90.023337
_cell_angle_beta	90.020922
_cell_angle_gamma	90.014558
loop_
_atom_site_label
_atom_site_type_symbol
_atom_site_fract_x
_atom_site_fract_y
_atom_site_fract_z
Zn1	Zn	1.135342	-0.295786	0.420027
Zn2	Zn	1.635342	0.204214	0.920027
Zn3	Zn	1.135274	-0.419969	0.295836
Zn4	Zn	1.635274	0.080031	0.795836
Zn5	Zn	1.011162	-0.295789	0.295839
Zn6	Zn	1.511162	0.204211	0.795839
Zn7	Zn	1.011131	-0.419930	0.419971
Zn8	Zn	1.511131	0.080070	0.919971
O9	O	1.073227	-0.357868	0.357918
O10	O	1.573227	0.142132	0.857918
O11	O	1.239258	-0.312274	0.403576
O12	O	1.739258	0.187726	0.903576
O13	O	1.118795	-0.403514	0.191912
O14	O	1.618795	0.096486	0.691912
O15	O	1.027676	-0.191864	0.312337
O16	O	1.527676	0.308136	0.812337
O17	O	1.239208	-0.403511	0.312332
O18	O	1.739208	0.096489	0.812332
O19	O	1.118911	-0.191862	0.403578
O20	O	1.618911	0.308138	0.903578
O21	O	1.027610	-0.312279	0.191914
O22	O	1.527610	0.187721	0.691914
O23	O	0.907233	-0.312241	0.312283
O24	O	1.407233	0.187759	0.812283
O25	O	1.027623	-0.403444	0.523903
O26	O	1.527623	0.096556	1.023903
O27	O	0.907210	-0.403447	0.403482
O28	O	1.407210	0.096553	0.903482
O29	O	1.118881	-0.312236	0.523945
O30	O	1.618881	0.187764	1.023945
O31	O	1.118765	-0.523888	0.312278
O32	O	1.618765	-0.023888	0.812278
O33	O	1.027557	-0.523860	0.403480
O34	O	1.527557	-0.023860	0.903480
C35	C	0.880275	-0.357841	0.357877
C36	C	1.380275	0.142159	0.857877
C37	C	0.797729	-0.357847	0.357877
C38	C	1.297729	0.142153	0.857877
C39	C	0.598269	-0.308191	0.308397
C40	C	1.098269	0.191809	0.808397
C41	C	0.548861	-0.375927	0.290120
C42	C	1.048861	0.124073	0.790120
C43	C	0.646599	-0.357869	0.357911
C44	C	1.146599	0.142131	0.857911
C45	C	0.548925	-0.290157	0.376186
C46	C	1.048925	0.209843	0.876186
C47	C	0.500614	-0.357885	0.357942
C48	C	1.000614	0.142115	0.857942
C49	C	0.598278	-0.425641	0.339598
C50	C	1.098278	0.074359	0.839598
C51	C	0.598346	-0.339825	0.425696
C52	C	1.098346	0.160175	0.925696
C53	C	0.548961	-0.407607	0.407445
C54	C	1.048961	0.092393	0.907445
C55	C	0.730697	-0.357859	0.357891
C56	C	1.230697	0.142141	0.857891
C57	C	0.416517	-0.357903	0.357962
C58	C	0.916517	0.142097	0.857962
C59	C	1.073170	-0.550820	0.357889
C60	C	1.573170	-0.050820	0.857889
C61	C	1.073214	-0.633366	0.357901
C62	C	1.573214	-0.133366	0.857901
C63	C	1.122916	-0.832806	0.308375
C64	C	1.622916	-0.332806	0.808375
C65	C	1.141051	-0.882145	0.376157
C66	C	1.641051	-0.382145	0.876157
C67	C	1.073256	-0.784497	0.357930
C68	C	1.573256	-0.284497	0.857930
C69	C	1.055196	-0.882238	0.290179
C70	C	1.555196	-0.382238	0.790179
C71	C	1.073298	-0.930482	0.357953
C72	C	1.573298	-0.430482	0.857953
C73	C	1.091426	-0.832749	0.425748
C74	C	1.591426	-0.332749	0.925748
C75	C	1.005539	-0.832838	0.339725
C76	C	1.505539	-0.332838	0.839725
C77	C	1.023649	-0.882155	0.407554
C78	C	1.523649	-0.382155	0.907554
C79	C	1.073233	-0.700398	0.357916
C80	C	1.573233	-0.200398	0.857916
C81	C	1.073320	-1.014578	0.357975
C82	C	1.573320	-0.514578	0.857975
C83	C	1.266933	-0.357897	0.357960
C84	C	1.766933	0.142103	0.857960
C85	C	1.349479	-0.357909	0.357978
C86	C	1.849479	0.142091	0.857978
C87	C	1.073256	-0.357835	0.551624
C88	C	1.573256	0.142165	1.051624
C89	C	1.073269	-0.357821	0.634170
C90	C	1.573269	0.142179	1.134170
C91	C	1.073305	-0.164163	0.357964
C92	C	1.573305	0.335837	0.857964
C93	C	1.073338	-0.081617	0.357984
C94	C	1.573338	0.418383	0.857984
C95	C	1.073241	-0.357848	0.164966
C96	C	1.573241	0.142152	0.664966
C97	C	1.073372	-0.357652	0.082421
C98	C	1.573372	0.142348	0.582421
C99	C	1.023681	-0.407353	0.833598
C100	C	1.523681	0.092647	1.333598
C101	C	1.091439	-0.425511	0.882996
C102	C	1.591439	0.074489	1.382996
C103	C	1.073305	-0.357765	0.785300
C104	C	1.573305	0.142235	1.285300
C105	C	1.005584	-0.339586	0.882984
C106	C	1.505584	0.160414	1.382984
C107	C	1.073335	-0.357711	0.931285
C108	C	1.573335	0.142289	1.431285
C109	C	1.141099	-0.375958	0.833611
C110	C	1.641099	0.124042	1.333611
C111	C	1.055199	-0.290002	0.833594
C112	C	1.555199	0.209998	1.333594
C113	C	1.123004	-0.308134	0.882970
C114	C	1.623004	0.191866	1.382970
C115	C	1.073287	-0.357797	0.701202
C116	C	1.573287	0.142203	1.201202
C117	C	1.073360	-0.357679	1.015382
C118	C	1.573360	0.142321	1.515382
H119	H	0.620100	-0.324530	0.482990
H120	H	1.120100	0.175470	0.982990
N121	N	1.212903	-0.909338	0.395500
N122	N	1.712903	-0.409338	0.895500
N123	N	1.220970	-0.948909	0.451739
N124	N	1.720970	-0.448909	0.951739
H125	H	1.271716	-0.968113	0.465397
H126	H	1.771716	-0.468113	0.965397
H127	H	0.948301	-0.324232	0.904672
H128	H	1.448301	0.175768	1.404672
N129	N	0.625426	-0.255538	0.255819
N130	N	1.125426	0.244462	0.755819
N131	N	0.580960	-0.218360	0.217935
N132	N	1.080960	0.281640	0.717935
H133	H	0.600139	-0.181175	0.180801
H134	H	1.100139	0.318825	0.680801
N135	N	0.521603	-0.395086	0.218221
N136	N	1.021603	0.104914	0.718221
N137	N	0.537394	-0.355612	0.163579
N138	N	1.037394	0.144388	0.663579
H139	H	0.518148	-0.369139	0.112798
H140	H	1.018148	0.130861	0.612798
H141	H	1.106662	-0.811103	0.483104
H142	H	1.606662	-0.311103	0.983104
H143	H	1.106771	-0.482794	0.904696
H144	H	1.606771	0.017206	1.404696
N145	N	1.212980	-0.395294	0.806513
N146	N	1.712980	0.104706	1.306513
N147	N	1.224562	-0.398459	0.738317
N148	N	1.724562	0.101541	1.238317
H149	H	1.275327	-0.412113	0.719176
H150	H	1.775327	0.087887	1.219176
N151	N	1.175730	-0.255501	0.909989
N152	N	1.675730	0.244499	1.409989
N153	N	1.242758	-0.262316	0.894014
N154	N	1.742758	0.237684	1.394014
H155	H	1.279998	-0.225146	0.913097
H156	H	1.779998	0.274854	1.413097
H157	H	1.164925	-0.811136	0.266510
H158	H	1.664925	-0.311136	0.766510
N159	N	0.970980	-0.909178	0.460184
N160	N	1.470980	-0.409178	0.960184
N161	N	0.918211	-0.948810	0.439147
N162	N	1.418211	-0.448810	0.939147
H163	H	0.881013	-0.967894	0.476317
H164	H	1.381013	-0.467894	0.976317
N165	N	1.035934	-0.218161	0.806357
N166	N	1.535934	0.281839	1.306357
N167	N	0.974458	-0.190492	0.822145
N168	N	1.474458	0.309508	1.322145
H169	H	0.960844	-0.139753	0.802909
H170	H	1.460844	0.360247	1.302909
N171	N	0.933704	-0.805637	0.320350
N172	N	1.433704	-0.305637	0.820350
N173	N	0.925858	-0.765157	0.264731
N174	N	1.425858	-0.265157	0.764731
H175	H	0.875123	-0.745945	0.251038
H176	H	1.375123	-0.245945	0.751038
N177	N	0.625365	-0.497504	0.320143
N178	N	1.125365	0.002496	0.820143
N179	N	0.693560	-0.509087	0.316965
N180	N	1.193560	-0.009087	0.816965
H181	H	0.712693	-0.559839	0.303223
H182	H	1.212693	-0.059839	0.803223
H183	H	0.527446	-0.449673	0.449330
H184	H	1.027446	0.050327	0.949330
H185	H	0.527208	-0.232894	0.391604
H186	H	1.027208	0.267106	0.891604
N187	N	1.036009	-0.909493	0.218285
N188	N	1.536009	-0.409493	0.718285
N189	N	1.022832	-0.865095	0.166818
N190	N	1.522832	-0.365095	0.666818
H191	H	1.009287	-0.884341	0.116040
H192	H	1.509287	-0.384341	0.616040
H193	H	0.981754	-0.449342	0.811921
H194	H	1.481754	0.050658	1.311921
