data_functionalizedCrystal
_audit_creation_method	'MofGen! by Chris Wilmer'
_symmetry_space_group_name_H-M	'P1'
_symmetry_Int_Tables_number	1
_symmetry_cell_setting	triclinic
loop_
_symmetry_equiv_pos_as_xyz
  x,y,z
_cell_length_a	12.759401
_cell_length_b	15.299816
_cell_length_c	12.759401
_cell_angle_alpha	80.324359
_cell_angle_beta	90.005677
_cell_angle_gamma	80.350755
loop_
_atom_site_label
_atom_site_type_symbol
_atom_site_fract_x
_atom_site_fract_y
_atom_site_fract_z
Zn1	Zn	1.678439	-0.359227	0.666445
Zn2	Zn	2.178439	0.140773	1.166445
Zn3	Zn	1.708730	-0.510019	0.521182
Zn4	Zn	2.208730	-0.010019	1.021182
Zn5	Zn	1.502778	-0.359213	0.490782
Zn6	Zn	2.002778	0.140787	0.990782
Zn7	Zn	1.533086	-0.510012	0.696822
Zn8	Zn	2.033086	-0.010012	1.196822
O9	O	1.605758	-0.434618	0.593808
O10	O	2.105758	0.065382	1.093808
O11	O	1.829480	-0.379239	0.647186
O12	O	2.329480	0.120761	1.147186
O13	O	1.681403	-0.490011	0.370128
O14	O	2.181403	0.009989	0.870128
O15	O	1.500719	-0.232998	0.488648
O16	O	2.000719	0.267002	0.988648
O17	O	1.851735	-0.490024	0.540462
O18	O	2.351735	0.009976	1.040462
O19	O	1.629777	-0.233008	0.617708
O20	O	2.129777	0.266992	1.117708
O21	O	1.530091	-0.379214	0.347793
O22	O	2.030091	0.120786	0.847793
O23	O	1.359776	-0.379208	0.518103
O24	O	1.859776	0.120792	1.018103
O25	O	1.552374	-0.490013	0.839814
O26	O	2.052374	0.009987	1.339814
O27	O	1.382042	-0.490000	0.669480
O28	O	1.882042	0.010000	1.169480
O29	O	1.659165	-0.379232	0.817497
O30	O	2.159165	0.120768	1.317497
O31	O	1.710791	-0.636235	0.569917
O32	O	2.210791	-0.136235	1.069917
O33	O	1.581746	-0.636230	0.698959
O34	O	2.081746	-0.136230	1.198959
C35	C	1.332788	-0.434602	0.593790
C36	C	1.832788	0.065398	1.093790
C37	C	1.216014	-0.434617	0.593812
C38	C	1.716014	0.065383	1.093812
C39	C	1.149586	-0.377035	0.649507
C40	C	1.649586	0.122965	1.149507
C41	C	1.039864	-0.377044	0.649516
C42	C	1.539864	0.122956	1.149516
C43	C	1.063009	-0.492225	0.538132
C44	C	1.563009	0.007775	1.038132
C45	C	1.172729	-0.492211	0.538118
C46	C	1.672729	0.007789	1.038118
C47	C	1.652873	-0.668959	0.641056
C48	C	2.152873	-0.168959	1.141056
C49	C	1.673124	-0.769211	0.661304
C50	C	2.173124	-0.269211	1.161304
C51	C	1.461704	-1.052082	0.449449
C52	C	1.961704	-0.552082	0.949449
C53	C	1.442671	-0.957890	0.430428
C54	C	1.942671	-0.457890	0.930428
C55	C	1.500283	-0.910716	0.488145
C56	C	2.000283	-0.410716	0.988145
C57	C	1.576931	-0.957743	0.564887
C58	C	2.076931	-0.457743	1.064887
C59	C	1.595960	-1.051944	0.583916
C60	C	2.095960	-0.551944	1.083916
C61	C	1.634539	-0.910577	0.622612
C62	C	2.134539	-0.410577	1.122612
C63	C	1.711186	-0.957604	0.699355
C64	C	2.211186	-0.457604	1.199355
C65	C	1.730212	-1.051796	0.718380
C66	C	2.230212	-0.551796	1.218380
C67	C	1.672601	-1.098971	0.660663
C68	C	2.172601	-0.598971	1.160663
C69	C	1.615510	-0.816376	0.603583
C70	C	2.115510	-0.316376	1.103583
C71	C	1.749765	-0.816238	0.738050
C72	C	2.249765	-0.316238	1.238050
C73	C	1.768798	-0.910430	0.757072
C74	C	2.268798	-0.410430	1.257072
C75	C	1.879795	-0.434634	0.593827
C76	C	2.379795	0.065366	1.093827
C77	C	1.996573	-0.434641	0.593835
C78	C	2.496573	0.065359	1.093835
C79	C	1.605771	-0.434624	0.867842
C80	C	2.105771	0.065376	1.367842
C81	C	1.605777	-0.434626	0.984620
C82	C	2.105777	0.065374	1.484620
C83	C	1.558489	-0.199361	0.546398
C84	C	2.058489	0.300639	1.046398
C85	C	1.538345	-0.099109	0.526195
C86	C	2.038345	0.400891	1.026195
C87	C	1.661376	-0.376952	1.027864
C88	C	2.161376	0.123048	1.527864
C89	C	1.661367	-0.376950	1.137588
C90	C	2.161367	0.123050	1.637588
C91	C	1.550157	-0.492305	1.160814
C92	C	2.050157	0.007695	1.660814
C93	C	1.550161	-0.492302	1.051091
C94	C	2.050161	0.007698	1.551091
C95	C	1.605749	-0.434631	1.320843
C96	C	2.105749	0.065369	1.820843
C97	C	1.605763	-0.434628	1.204066
C98	C	2.105763	0.065372	1.704066
H99	H	1.553102	-0.778095	0.541099
H100	H	2.053102	-0.278095	1.041099
N101	N	1.490196	-0.554508	1.004427
N102	N	1.990196	-0.054508	1.504427
H103	H	1.434151	-0.517838	0.951510
H104	H	1.934151	-0.017838	1.451510
H105	H	1.455032	-0.591042	1.063239
H106	H	1.955032	-0.091042	1.563239
N107	N	1.721329	-0.314733	1.184217
N108	N	2.221329	0.185267	1.684217
H109	H	1.799213	-0.328746	1.167959
H110	H	2.299213	0.171254	1.667959
H111	H	1.712805	-0.323503	1.263799
H112	H	2.212805	0.176497	1.763799
H113	H	1.831205	-0.948732	0.819557
H114	H	2.331205	-0.448732	1.319557
H115	H	0.985781	-0.330154	0.694867
H116	H	1.485781	0.169846	1.194867
N117	N	1.196276	-0.314919	0.709573
N118	N	1.696276	0.185081	1.209573
H119	H	1.137540	-0.278442	0.744855
H120	H	1.637540	0.221558	1.244855
H121	H	1.233382	-0.273114	0.658455
H122	H	1.733382	0.226886	1.158455
N123	N	1.811905	-0.765370	0.800316
N124	N	2.311905	-0.265370	1.300316
H125	H	1.788222	-0.698562	0.776615
H126	H	2.288222	-0.198562	1.276615
H127	H	1.890268	-0.781784	0.787347
H128	H	2.390268	-0.281784	1.287347
N129	N	1.490156	-0.554496	1.232506
N130	N	1.990156	-0.054496	1.732506
H131	H	1.498584	-0.545745	1.308577
H132	H	1.998584	-0.045745	1.808577
H133	H	1.519433	-0.618918	1.226319
H134	H	2.019433	-0.118918	1.726319
N135	N	1.244392	-0.554322	0.478050
N136	N	1.744392	-0.054322	0.978050
H137	H	1.282513	-0.517590	0.422025
H138	H	1.782513	-0.017590	0.922025
H139	H	1.200260	-0.590804	0.442843
H140	H	1.700260	-0.090804	0.942843
N141	N	1.016311	-0.554338	0.478068
N142	N	1.516311	-0.054338	0.978068
H143	H	0.979219	-0.596201	0.529129
H144	H	1.479219	-0.096201	1.029129
H145	H	1.075094	-0.590754	0.442779
H146	H	1.575094	-0.090754	0.942779
N147	N	1.479760	-0.809124	0.467632
N148	N	1.979760	-0.309124	0.967632
H149	H	1.422465	-0.786490	0.410257
H150	H	1.922465	-0.286490	0.910257
H151	H	1.547304	-0.786461	0.443830
H152	H	2.047304	-0.286461	0.943830
N153	N	1.360013	-0.907170	0.347658
N154	N	1.860013	-0.407170	0.847658
H155	H	1.326408	-0.951345	0.313977
H156	H	1.826408	-0.451345	0.813977
H157	H	1.394923	-0.868074	0.291179
H158	H	1.894923	-0.368074	0.791179
H159	H	1.688097	-1.175669	0.676142
H160	H	2.188097	-0.675669	1.176142
N161	N	1.721360	-0.314750	0.956166
N162	N	2.221360	0.185250	1.456166
H163	H	1.692097	-0.250303	0.962264
H164	H	2.192097	0.249697	1.462264
H165	H	1.712909	-0.323582	0.880132
H166	H	2.212909	0.176418	1.380132
N167	N	1.399574	-1.102960	0.387203
N168	N	1.899574	-0.602960	0.887203
H169	H	1.423261	-1.169768	0.410904
H170	H	1.923261	-0.669768	0.910904
H171	H	1.412664	-1.086509	0.308860
H172	H	1.912664	-0.586509	0.808860
H173	H	1.792620	-1.090083	0.780873
H174	H	2.292620	-0.590083	1.280873
