data_functionalizedCrystal
_audit_creation_method	'MofGen! by Chris Wilmer'
_symmetry_space_group_name_H-M	'P1'
_symmetry_Int_Tables_number	1
_symmetry_cell_setting	triclinic
loop_
_symmetry_equiv_pos_as_xyz
  x,y,z
_cell_length_a	13.032831
_cell_length_b	13.897447
_cell_length_c	13.033109
_cell_angle_alpha	97.154634
_cell_angle_beta	76.665514
_cell_angle_gamma	82.824382
loop_
_atom_site_label
_atom_site_type_symbol
_atom_site_fract_x
_atom_site_fract_y
_atom_site_fract_z
Zn1	Zn	1.700091	-0.678105	-0.806414
Zn2	Zn	1.677419	-0.815942	-0.628799
Zn3	Zn	1.499917	-0.631188	-0.606307
Zn4	Zn	1.522433	-0.815857	-0.783843
O5	O	1.599965	-0.735273	-0.706341
O6	O	1.845719	-0.716059	-0.801712
O7	O	1.634961	-0.771835	-0.477183
O8	O	1.526536	-0.502442	-0.632885
O9	O	1.829062	-0.817328	-0.671219
O10	O	1.673603	-0.536911	-0.779903
O11	O	1.504551	-0.636097	-0.460659
O12	O	1.354268	-0.636015	-0.610999
O13	O	1.564912	-0.817183	-0.935469
O14	O	1.370811	-0.771690	-0.741433
O15	O	1.695436	-0.715977	-0.952052
O16	O	1.656794	-0.950901	-0.649332
O17	O	1.542927	-0.950839	-0.763242
C18	C	1.324000	-0.698753	-0.671327
C19	C	1.205945	-0.683156	-0.656372
C20	C	1.599876	-0.985873	-0.706305
C21	C	1.599939	-1.093098	-0.706338
C22	C	1.161512	-0.743413	-0.714145
C23	C	1.039495	-0.727295	-0.698691
C24	C	1.599993	-1.180178	-0.706369
C25	C	1.600071	-1.289424	-0.706405
C26	C	1.877008	-0.771937	-0.741492
C27	C	1.995066	-0.787560	-0.756472
C28	C	1.635215	-0.771804	-0.983377
C29	C	1.650236	-0.787371	-1.101433
C30	C	1.600087	-0.483702	-0.706403
C31	C	1.600139	-0.376497	-0.706430
C32	C	1.592409	-0.727151	-1.145890
C33	C	1.607933	-0.743239	-1.267907
C34	C	1.564913	-0.698823	-0.430390
C35	C	1.550098	-0.683011	-0.312361
H36	H	1.213804	-0.806932	-0.775052
H37	H	1.153653	-0.619631	-0.595474
H38	H	1.531404	-0.663688	-1.093618
C39	C	0.968859	-0.641472	-0.616408
N40	N	0.915655	-0.576833	-0.554434
C41	C	1.065700	-0.873383	-0.838756
N42	N	1.118902	-0.938024	-0.900730
H43	H	1.711236	-0.850839	-1.153704
H44	H	1.668937	-0.806712	-1.320175
H45	H	1.489090	-0.619541	-1.260094
