data_functionalizedCrystal
_audit_creation_method	'MofGen! by Chris Wilmer'
_symmetry_space_group_name_H-M	'P1'
_symmetry_Int_Tables_number	1
_symmetry_cell_setting	triclinic
loop_
_symmetry_equiv_pos_as_xyz
  x,y,z
_cell_length_a	13.897449
_cell_length_b	16.120444
_cell_length_c	13.897441
_cell_angle_alpha	87.133622
_cell_angle_beta	90.020733
_cell_angle_gamma	92.927816
loop_
_atom_site_label
_atom_site_type_symbol
_atom_site_fract_x
_atom_site_fract_y
_atom_site_fract_z
Zn1	Zn	1.455175	-0.331853	0.564829
Zn2	Zn	1.955175	0.168147	1.064829
Zn3	Zn	1.446864	-0.471285	0.411701
Zn4	Zn	1.946864	0.028715	0.911701
Zn5	Zn	1.293862	-0.331893	0.403549
Zn6	Zn	1.793862	0.168107	0.903549
Zn7	Zn	1.285645	-0.471230	0.572950
Zn8	Zn	1.785645	0.028770	1.072950
O9	O	1.370386	-0.401565	0.488257
O10	O	1.870386	0.098435	0.988257
O11	O	1.589054	-0.350355	0.544528
O12	O	2.089054	0.149645	1.044528
O13	O	1.426529	-0.452834	0.275640
O14	O	1.926529	0.047166	0.775640
O15	O	1.322178	-0.215222	0.418133
O16	O	1.822178	0.284778	0.918133
O17	O	1.582948	-0.452796	0.432026
O18	O	2.082948	0.047204	0.932026
O19	O	1.440694	-0.215192	0.536624
O20	O	1.940694	0.284808	1.036624
O21	O	1.314119	-0.350423	0.269651
O22	O	1.814119	0.149577	0.769651
O23	O	1.157791	-0.350370	0.426008
O24	O	1.657791	0.149630	0.926008
O25	O	1.308172	-0.452702	0.706852
O26	O	1.808172	0.047298	1.206852
O27	O	1.151753	-0.452741	0.550466
O28	O	1.651753	0.047259	1.050466
O29	O	1.432726	-0.350302	0.700885
O30	O	1.932726	0.149698	1.200885
O31	O	1.418561	-0.587944	0.439902
O32	O	1.918561	-0.087944	0.939902
O33	O	1.300114	-0.587904	0.558371
O34	O	1.800114	-0.087904	1.058371
C35	C	1.119773	-0.401554	0.488235
C36	C	1.619773	0.098446	0.988235
C37	C	1.012558	-0.401570	0.488249
C38	C	1.512558	0.098430	0.988249
C39	C	0.816263	-0.401573	0.488275
C40	C	1.316263	0.098427	0.988275
C41	C	0.925495	-0.401568	0.488258
C42	C	1.425495	0.098432	0.988258
C43	C	1.357570	-0.618174	0.500923
C44	C	1.857570	-0.118174	1.000923
C45	C	1.352175	-0.710840	0.506374
C46	C	1.852175	-0.210840	1.006374
C47	C	1.398608	-0.921783	0.460189
C48	C	1.898608	-0.421783	0.960189
C49	C	1.342344	-0.880497	0.516336
C50	C	1.842344	-0.380497	1.016336
C51	C	1.347816	-0.786091	0.510791
C52	C	1.847816	-0.286091	1.010791
C53	C	1.393137	-1.016197	0.465732
C54	C	1.893137	-0.516197	0.965732
C55	C	1.621979	-0.401577	0.488281
C56	C	2.121979	0.098423	0.988281
C57	C	1.729192	-0.401582	0.488291
C58	C	2.229192	0.098418	0.988291
C59	C	1.370459	-0.401492	0.739846
C60	C	1.870459	0.098508	1.239846
C61	C	1.370490	-0.401460	0.847058
C62	C	1.870490	0.098540	1.347058
C63	C	1.383279	-0.184111	0.475563
C64	C	1.883279	0.315889	0.975563
C65	C	1.388773	-0.091445	0.470154
C66	C	1.888773	0.408555	0.970154
C67	C	1.370373	-0.401579	0.237644
C68	C	1.870373	0.098421	0.737644
C69	C	1.370543	-0.401375	0.130418
C70	C	1.870543	0.098625	0.630418
C71	C	1.370520	-0.401404	1.043350
C72	C	1.870520	0.098596	1.543350
C73	C	1.370500	-0.401438	0.934120
C74	C	1.870500	0.098562	1.434120
H75	H	1.290065	-0.916052	0.568569
H76	H	1.790065	-0.416052	1.068569
H77	H	1.450882	-0.886231	0.407958
H78	H	1.950882	-0.386231	0.907958
