data_functionalizedCrystal
_audit_creation_method	'MofGen! by Chris Wilmer'
_symmetry_space_group_name_H-M	'P1'
_symmetry_Int_Tables_number	1
_symmetry_cell_setting	triclinic
loop_
_symmetry_equiv_pos_as_xyz
  x,y,z
_cell_length_a	16.109301
_cell_length_b	15.538191
_cell_length_c	14.586319
_cell_angle_alpha	89.999456
_cell_angle_beta	89.999213
_cell_angle_gamma	65.366787
loop_
_atom_site_label
_atom_site_type_symbol
_atom_site_fract_x
_atom_site_fract_y
_atom_site_fract_z
O1	O	1.066616	0.121093	-0.076175
O2	O	0.820010	0.136163	-0.076189
O3	O	0.991317	-0.008516	-0.076184
O4	O	0.895309	0.265773	-0.076180
O5	O	0.991309	-0.008518	0.076297
O6	O	0.820002	0.136161	0.076292
O7	O	1.066608	0.121091	0.076306
Cu8	Cu	0.943304	0.128626	0.090221
Cu9	Cu	0.943314	0.128629	-0.090105
O10	O	0.895301	0.265770	0.076300
C11	C	0.789215	0.135552	0.000050
C12	C	0.697472	0.133722	0.000044
C13	C	0.450596	0.215316	0.000056
C14	C	0.364396	0.213589	0.000062
C15	C	0.436032	0.041932	0.000056
C16	C	0.522229	0.043660	0.000056
C17	C	0.529508	0.130355	0.000052
C18	C	0.357111	0.126900	0.000057
C19	C	0.263649	0.125027	0.000063
C20	C	0.622975	0.132228	0.000047
C21	C	1.001358	-0.043615	0.000054
C22	C	1.031279	-0.148198	0.000047
C23	C	0.734025	-0.435898	0.000050
C24	C	0.762161	-0.534172	0.000053
C25	C	0.920419	-0.556664	0.000062
C26	C	0.892297	-0.458389	0.000054
C27	C	0.799099	-0.398013	0.000049
C28	C	0.957370	-0.420505	0.000053
C29	C	0.929249	-0.322239	0.000049
C30	C	0.836055	-0.261857	0.000047
C31	C	0.770978	-0.299747	0.000046
C32	C	1.050568	-0.480882	0.000064
C33	C	1.115641	-0.442998	0.000063
C34	C	1.087520	-0.344730	0.000053
C35	C	0.994326	-0.284349	0.000051
C36	C	1.152598	-0.306840	0.000055
C37	C	1.124477	-0.208574	0.000052
C38	C	0.966206	-0.186083	0.000048
C39	C	1.097403	0.121703	0.000065
C40	C	1.189147	0.123533	0.000065
C41	C	0.885260	0.300870	0.000060
C42	C	0.855340	0.405453	0.000062
N43	N	0.943304	0.128624	0.217053
N44	N	0.943324	0.128624	-0.216937
C45	C	1.019171	0.064581	0.452062
C46	C	1.019174	0.064579	0.548043
C47	C	0.867450	0.192669	0.548048
C48	C	0.867445	0.192666	0.452069
C49	C	0.943310	0.128623	0.404078
C50	C	0.943318	0.128624	0.596039
C51	C	0.943320	0.128622	0.700106
C52	C	0.943307	0.128624	0.300004
H53	H	0.586487	-0.025530	0.000056
H54	H	1.080946	0.012429	0.587109
C55	C	0.458606	0.310677	0.000061
C56	C	0.417208	0.381237	0.079247
C57	C	0.425215	0.476601	0.079255
C58	C	0.474618	0.501403	0.000077
C59	C	0.516019	0.430841	-0.079115
C60	C	0.508012	0.335478	-0.079123
H61	H	0.380634	0.362878	0.137864
H62	H	0.394567	0.528835	0.137878
H63	H	0.480545	0.571997	0.000083
H64	H	0.552593	0.449200	-0.137733
H65	H	0.538660	0.283243	-0.137747
C66	C	0.428021	-0.053428	0.000049
C67	C	0.333210	-0.055335	0.000042
C68	C	0.325203	-0.150697	0.000031
C69	C	0.412007	-0.244154	0.000028
C70	C	0.506826	-0.242251	0.000036
C71	C	0.514833	-0.146888	0.000046
H72	H	0.268946	0.013851	0.000044
H73	H	0.255011	-0.152105	0.000025
H74	H	0.406080	-0.314747	0.000020
H75	H	0.571090	-0.311437	0.000033
H76	H	0.585024	-0.145480	0.000052
C77	C	1.022934	-0.623082	0.000063
C78	C	1.064032	-0.693730	0.079242
C79	C	1.166548	-0.760147	0.079239
C80	C	1.227965	-0.755917	0.000057
C81	C	1.186868	-0.685266	-0.079129
C82	C	1.084352	-0.618849	-0.079126
H83	H	1.018566	-0.696864	0.137864
H84	H	1.196970	-0.812447	0.137858
H85	H	1.303853	-0.805083	0.000054
H86	H	1.232333	-0.682132	-0.137750
H87	H	1.053929	-0.566549	-0.137745
C88	C	0.863687	-0.119656	0.000032
C89	C	0.802276	-0.123887	-0.079155
C90	C	0.699763	-0.057460	-0.079172
C91	C	0.658661	0.013198	-0.000001
C92	C	0.720072	0.017431	0.079193
C93	C	0.822585	-0.048996	0.079210
H94	H	0.832703	-0.176194	-0.137768
H95	H	0.654303	-0.060594	-0.137797
H96	H	0.582774	0.062371	-0.000013
H97	H	0.689645	0.069738	0.137806
H98	H	0.868045	-0.045862	0.137835
C99	C	1.102616	-0.005871	0.399272
C100	C	1.186058	-0.076320	0.452059
C101	C	1.269505	-0.146777	0.399272
C102	C	1.269508	-0.146785	0.293698
C103	C	1.186062	-0.076334	0.240905
C104	C	1.102616	-0.005877	0.293692
H105	H	1.186059	-0.076316	0.530216
H106	H	1.331277	-0.198929	0.438353
H107	H	1.331280	-0.198941	0.254622
H108	H	1.186062	-0.076337	0.162748
H109	H	1.040844	0.046276	0.254611
H110	H	0.805683	0.244813	0.587132
C111	C	0.783993	0.263117	0.399278
C112	C	0.700564	0.333598	0.452059
C113	C	0.617115	0.404042	0.399267
C114	C	0.617096	0.404006	0.293694
C115	C	0.700528	0.333523	0.240906
C116	C	0.783976	0.263078	0.293698
H117	H	0.700576	0.333627	0.530217
H118	H	0.555353	0.456219	0.438345
H119	H	0.555322	0.456153	0.254614
H120	H	0.700516	0.333493	0.162749
H121	H	0.845738	0.210902	0.254620
H122	H	0.300146	0.282773	0.000067
H123	H	0.813161	-0.181843	0.000050
H124	H	0.695087	-0.250585	0.000035
H125	H	0.658134	-0.386736	0.000039
H126	H	0.709164	-0.565012	0.000068
H127	H	1.073460	-0.560896	0.000059
H128	H	1.191523	-0.492169	0.000071
H129	H	1.228479	-0.356012	0.000068
H130	H	1.177466	-0.177729	0.000052
