data_functionalizedCrystal
_audit_creation_method	'MofGen! by Chris Wilmer'
_symmetry_space_group_name_H-M	'P1'
_symmetry_Int_Tables_number	1
_symmetry_cell_setting	triclinic
loop_
_symmetry_equiv_pos_as_xyz
  x,y,z
_cell_length_a	12.827893
_cell_length_b	17.077402
_cell_length_c	17.077396
_cell_angle_alpha	89.970216
_cell_angle_beta	90.017613
_cell_angle_gamma	89.977146
loop_
_atom_site_label
_atom_site_type_symbol
_atom_site_fract_x
_atom_site_fract_y
_atom_site_fract_z
Zn1	Zn	1.597598	0.312509	0.443796
Zn2	Zn	2.097598	0.812509	0.943796
Zn3	Zn	1.597474	0.443784	0.312527
Zn4	Zn	2.097474	0.943784	0.812527
Zn5	Zn	1.422845	0.312536	0.312548
Zn6	Zn	1.922845	0.812536	0.812548
Zn7	Zn	1.422802	0.443736	0.443755
Zn8	Zn	1.922802	0.943736	0.943755
O9	O	1.510180	0.378141	0.378157
O10	O	2.010180	0.878141	0.878157
O11	O	1.743818	0.329931	0.426391
O12	O	2.243818	0.829931	0.926391
O13	O	1.574275	0.426404	0.202683
O14	O	2.074275	0.926404	0.702683
O15	O	1.446096	0.202685	0.329985
O16	O	1.946096	0.702685	0.829985
O17	O	1.743727	0.426378	0.329948
O18	O	2.243727	0.926378	0.829948
O19	O	1.574486	0.202665	0.426412
O20	O	2.074486	0.702665	0.926412
O21	O	1.445976	0.329977	0.202699
O22	O	1.945976	0.829977	0.702699
O23	O	1.276603	0.329931	0.329945
O24	O	1.776603	0.829931	0.829945
O25	O	1.446023	0.426298	0.553607
O26	O	1.946023	0.926298	1.053607
O27	O	1.276572	0.426324	0.426342
O28	O	1.776572	0.926324	0.926342
O29	O	1.574445	0.329885	0.553638
O30	O	2.074445	0.829885	1.053638
O31	O	1.574234	0.553624	0.329909
O32	O	2.074234	1.053624	0.829909
O33	O	1.445903	0.553590	0.426321
O34	O	1.945903	1.053590	0.926321
C35	C	1.510079	0.582089	0.378125
C36	C	2.010079	1.082089	0.878125
C37	C	1.510131	0.669339	0.378138
C38	C	2.010131	1.169339	0.878138
C39	C	1.238670	0.378126	0.378142
C40	C	1.738670	0.878126	0.878142
C41	C	1.122517	0.378138	0.378154
C42	C	1.622517	0.878138	0.878154
C43	C	1.510243	0.378083	0.582901
C44	C	2.010243	0.878083	1.082901
C45	C	1.510270	0.378059	0.670151
C46	C	2.010270	0.878059	1.170151
C47	C	0.950676	0.330391	0.330552
C48	C	1.450676	0.830391	0.830552
C49	C	1.070726	0.330377	0.330538
C50	C	1.570726	0.830377	0.830538
C51	C	1.782750	0.378157	0.378172
C52	C	2.282750	0.878157	0.878172
C53	C	1.898903	0.378164	0.378179
C54	C	2.398903	0.878164	0.878179
C55	C	1.510309	0.173397	0.378205
C56	C	2.010309	0.673397	0.878205
C57	C	1.510365	0.086147	0.378226
C58	C	2.010365	0.586147	0.878226
C59	C	1.577022	0.710321	0.327990
C60	C	2.077022	1.210321	0.827990
C61	C	1.577073	0.792301	0.328010
C62	C	2.077073	1.292301	0.828010
C63	C	1.510227	0.833298	0.378175
C64	C	2.010227	1.333298	0.878175
C65	C	1.443334	0.792310	0.428328
C66	C	1.943334	1.292310	0.928328
C67	C	1.443289	0.710331	0.428312
C68	C	1.943289	1.210331	0.928312
C69	C	1.443431	0.963180	0.428358
C70	C	1.943431	1.463180	0.928358
C71	C	1.443474	1.045165	0.428374
C72	C	1.943474	1.545165	0.928374
C73	C	1.577215	1.045150	0.328056
C74	C	2.077215	1.545150	0.828056
C75	C	1.577170	0.963171	0.328040
C76	C	2.077170	1.463171	0.828040
C77	C	1.510275	0.922189	0.378193
C78	C	2.010275	1.422189	0.878193
C79	C	1.510177	0.378142	0.174209
C80	C	2.010177	0.878142	0.674209
C81	C	1.510352	0.377946	0.086959
C82	C	2.010352	0.877946	0.586959
C83	C	1.577142	0.327853	0.711158
C84	C	2.077142	0.827853	1.211158
C85	C	1.577154	0.327826	0.793138
C86	C	2.077154	0.827826	1.293138
C87	C	1.510300	0.378011	0.834110
C88	C	2.010300	0.878011	1.334110
C89	C	1.443420	0.428219	0.793097
C90	C	1.943420	0.928219	1.293097
C91	C	1.443403	0.428241	0.711118
C92	C	1.943403	0.928241	1.211118
C93	C	1.443463	0.428172	0.963968
C94	C	1.943463	0.928172	1.463968
C95	C	1.443481	0.428152	1.045952
C96	C	1.943481	0.928152	1.545952
C97	C	1.577213	0.327758	1.045988
C98	C	2.077213	0.827758	1.545988
C99	C	1.577196	0.327779	0.964009
C100	C	2.077196	0.827779	1.464009
C101	C	1.510318	0.377989	0.923001
C102	C	2.010318	0.877989	1.423001
H103	H	0.906123	0.289499	0.289790
H104	H	1.406123	0.789499	0.789790
H105	H	1.115249	0.289480	0.289760
H106	H	1.615249	0.789480	0.789760
H107	H	1.389039	0.469015	1.079309
H108	H	1.889039	0.969015	1.579309
Br109	Br	1.352649	0.907562	0.496427
Br110	Br	1.852649	1.407562	0.996427
H111	H	1.078000	0.419043	0.418929
H112	H	1.578000	0.919043	0.918929
Br113	Br	1.352681	0.496323	0.848701
Br114	Br	1.852681	0.996323	1.348701
H115	H	0.943455	0.419049	0.418947
H116	H	1.443455	0.919049	0.918947
Br117	Br	1.667736	0.654690	0.259898
Br118	Br	2.167736	1.154690	0.759898
H119	H	1.631541	0.825665	0.287174
H120	H	2.131541	1.325665	0.787174
H121	H	1.631610	0.286945	0.826523
H122	H	2.131610	0.786945	1.326523
H123	H	1.631594	0.929792	0.287188
H124	H	2.131594	1.429792	0.787188
Br125	Br	1.352513	0.654712	0.496378
Br126	Br	1.852513	1.154712	0.996378
H127	H	1.388912	0.825696	0.469177
H128	H	1.888912	1.325696	0.969177
H129	H	1.631666	0.286874	1.079380
H130	H	2.131666	0.786874	1.579380
Br131	Br	1.667987	1.100768	0.259981
Br132	Br	2.167987	1.600768	0.759981
H133	H	1.389063	1.078542	0.469237
H134	H	1.889063	1.578542	0.969237
Br135	Br	1.667886	0.259747	0.655561
Br136	Br	2.167886	0.759747	1.155561
H137	H	1.631641	0.286919	0.930652
H138	H	2.131641	0.786919	1.430652
Br139	Br	1.352695	0.496312	0.908315
Br140	Br	1.852695	0.996312	1.408315
Br141	Br	1.352639	0.496376	0.655465
Br142	Br	1.852639	0.996376	1.155465
