data_functionalizedCrystal
_audit_creation_method	'MofGen! by Chris Wilmer'
_symmetry_space_group_name_H-M	'P1'
_symmetry_Int_Tables_number	1
_symmetry_cell_setting	triclinic
loop_
_symmetry_equiv_pos_as_xyz
  x,y,z
_cell_length_a	21.395362
_cell_length_b	16.959454
_cell_length_c	21.395355
_cell_angle_alpha	90.012996
_cell_angle_beta	90.043940
_cell_angle_gamma	90.035955
loop_
_atom_site_label
_atom_site_type_symbol
_atom_site_fract_x
_atom_site_fract_y
_atom_site_fract_z
Zn1	Zn	0.957906	-0.314438	0.354610
Zn2	Zn	1.291239	0.018895	0.687943
Zn3	Zn	1.624572	0.352229	1.021276
Zn4	Zn	0.957828	-0.446599	0.249842
Zn5	Zn	1.291161	-0.113266	0.583176
Zn6	Zn	1.624494	0.220068	0.916509
Zn7	Zn	0.853121	-0.314475	0.249811
Zn8	Zn	1.186454	0.018858	0.583144
Zn9	Zn	1.519787	0.352192	0.916478
Zn10	Zn	0.853109	-0.446615	0.354547
Zn11	Zn	1.186443	-0.113282	0.687880
Zn12	Zn	1.519776	0.220052	1.021214
O13	O	0.905491	-0.380532	0.302202
O14	O	1.238824	-0.047198	0.635536
O15	O	1.572158	0.286135	0.968869
O16	O	1.045573	-0.331947	0.340751
O17	O	1.378907	0.001386	0.674085
O18	O	1.712240	0.334719	1.007418
O19	O	0.943910	-0.429081	0.162160
O20	O	1.277244	-0.095748	0.495494
O21	O	1.610577	0.237586	0.828827
O22	O	0.867058	-0.203859	0.263726
O23	O	1.200391	0.129474	0.597059
O24	O	1.533725	0.462808	0.930392
O25	O	1.045516	-0.429045	0.263779
O26	O	1.378849	-0.095712	0.597113
O27	O	1.712183	0.237621	0.930446
O28	O	0.944043	-0.203832	0.340721
O29	O	1.277377	0.129501	0.674054
O30	O	1.610710	0.462835	1.007388
O31	O	0.866982	-0.332010	0.162137
O32	O	1.200316	0.001323	0.495470
O33	O	1.533649	0.334657	0.828804
O34	O	0.765441	-0.332026	0.263665
O35	O	1.098775	0.001308	0.596998
O36	O	1.432108	0.334641	0.930332
O37	O	0.867039	-0.429073	0.442233
O38	O	1.200372	-0.095740	0.775567
O39	O	1.533705	0.237594	1.108900
O40	O	0.765433	-0.429109	0.340614
O41	O	1.098766	-0.095775	0.673948
O42	O	1.432100	0.237558	1.007281
O43	O	0.944032	-0.331963	0.442279
O44	O	1.277366	0.001370	0.775613
O45	O	1.610699	0.334704	1.108946
O46	O	0.943899	-0.557212	0.263718
O47	O	1.277232	-0.223879	0.597052
O48	O	1.610566	0.109455	0.930385
O49	O	0.866963	-0.557224	0.340645
O50	O	1.200296	-0.223891	0.673978
O51	O	1.533630	0.109443	1.007311
C52	C	0.742703	-0.380574	0.302130
C53	C	1.076037	-0.047240	0.635463
C54	C	1.409370	0.286093	0.968796
C55	C	0.673062	-0.380610	0.302114
C56	C	1.006395	-0.047277	0.635447
C57	C	1.339729	0.286056	0.968780
C58	C	0.640361	-0.431228	0.342121
C59	C	0.973694	-0.097895	0.675454
C60	C	1.307028	0.235438	1.008788
C61	C	0.574925	-0.431209	0.342149
C62	C	0.908259	-0.097876	0.675482
C63	C	1.241592	0.235458	1.008816
C64	C	0.542194	-0.380580	0.302158
C65	C	0.875527	-0.047247	0.635491
C66	C	1.208860	0.286087	0.968825
C67	C	0.574903	-0.329952	0.262148
C68	C	0.908236	0.003381	0.595481
C69	C	1.241569	0.336715	0.928815
C70	C	0.640337	-0.329967	0.262126
C71	C	0.973670	0.003366	0.595459
C72	C	1.307003	0.336699	0.928792
C73	C	0.438468	-0.374212	0.245752
C74	C	0.771801	-0.040879	0.579086
C75	C	1.105135	0.292454	0.912419
C76	C	0.373035	-0.374203	0.245774
C77	C	0.706368	-0.040869	0.579107
C78	C	1.039702	0.292464	0.912440
C79	C	0.340373	-0.380528	0.302227
C80	C	0.673706	-0.047195	0.635561
C81	C	1.007040	0.286138	0.968894
C82	C	0.373152	-0.386881	0.358661
C83	C	0.706485	-0.053547	0.691995
C84	C	1.039819	0.279786	1.025328
C85	C	0.438586	-0.386896	0.358639
C86	C	0.771919	-0.053562	0.691972
C87	C	1.105253	0.279771	1.025306
C88	C	0.471241	-0.380557	0.302178
C89	C	0.804575	-0.047224	0.635512
C90	C	1.137908	0.286109	0.968845
C91	C	0.236719	-0.431128	0.342268
C92	C	0.570053	-0.097795	0.675602
C93	C	0.903386	0.235539	1.008935
C94	C	0.171283	-0.431103	0.342297
C95	C	0.504616	-0.097770	0.675631
C96	C	0.837949	0.235563	1.008964
C97	C	0.171261	-0.329850	0.262291
C98	C	0.504595	0.003483	0.595624
C99	C	0.837928	0.336816	0.928958
C100	C	0.236697	-0.329871	0.262267
C101	C	0.570030	0.003462	0.595601
C102	C	0.903363	0.336795	0.928934
C103	C	0.269422	-0.380514	0.302255
C104	C	0.602755	-0.047181	0.635589
C105	C	0.936088	0.286152	0.968922
C106	C	0.905438	-0.585898	0.302192
C107	C	1.238772	-0.252565	0.635525
C108	C	1.572105	0.080769	0.968858
C109	C	0.905473	-0.673755	0.302208
C110	C	1.238807	-0.340421	0.635542
C111	C	1.572140	-0.007088	0.968875
C112	C	0.865488	-1.045266	0.342254
C113	C	1.198822	-0.711933	0.675587
C114	C	1.532155	-0.378600	1.008920
C115	C	0.945668	-1.045194	0.262215
C116	C	1.279001	-0.711861	0.595548
C117	C	1.612335	-0.378527	0.928882
C118	C	0.945646	-0.962648	0.262209
C119	C	1.278979	-0.629315	0.595543
C120	C	1.612313	-0.295981	0.928876
C121	C	0.905544	-0.921407	0.302226
C122	C	1.238877	-0.588074	0.635559
C123	C	1.572211	-0.254741	0.968892
C124	C	0.865464	-0.962713	0.342248
C125	C	1.198797	-0.629379	0.675581
C126	C	1.532131	-0.296046	1.008914
C127	C	0.985721	-0.921337	0.222184
C128	C	1.319054	-0.588003	0.555517
C129	C	1.652388	-0.254670	0.888850
C130	C	0.985700	-0.838786	0.222176
C131	C	1.319033	-0.505452	0.555509
C132	C	1.652367	-0.172119	0.888842
C133	C	0.945601	-0.797544	0.262196
C134	C	1.278934	-0.464210	0.595529
C135	C	1.612267	-0.130877	0.928862
C136	C	0.905520	-0.838854	0.302220
C137	C	1.238853	-0.505521	0.635553
C138	C	1.572186	-0.172187	0.968886
C139	C	0.865418	-0.797613	0.342236
C140	C	1.198751	-0.464280	0.675569
C141	C	1.532084	-0.130947	1.008903
C142	C	0.825339	-0.838922	0.382264
C143	C	1.158672	-0.505589	0.715597
C144	C	1.492006	-0.172256	1.048931
C145	C	0.825365	-0.921471	0.382268
C146	C	1.158698	-0.588137	0.715601
C147	C	1.492031	-0.254804	1.048934
C148	C	0.945575	-0.714995	0.262192
C149	C	1.278909	-0.381662	0.595525
C150	C	1.612242	-0.048328	0.928859
C151	C	0.865393	-0.715060	0.342230
C152	C	1.198726	-0.381727	0.675564
C153	C	1.532060	-0.048393	1.008897
C154	C	1.068914	-0.380490	0.302276
C155	C	1.402248	-0.047157	0.635609
C156	C	1.735581	0.286176	0.968942
C157	C	1.138555	-0.380473	0.302307
C158	C	1.471889	-0.047139	0.635640
C159	C	1.805222	0.286194	0.968974
C160	C	0.905543	-0.380516	0.465626
C161	C	1.238876	-0.047182	0.798959
C162	C	1.572210	0.286151	1.132292
C163	C	0.905565	-0.380509	0.535267
C164	C	1.238898	-0.047176	0.868600
C165	C	1.572232	0.286158	1.201934
C166	C	0.905561	-0.174363	0.302227
C167	C	1.238894	0.158970	0.635560
C168	C	1.572227	0.492303	0.968894
C169	C	0.905590	-0.086507	0.302237
C170	C	1.238924	0.246826	0.635571
C171	C	1.572257	0.580160	0.968904
C172	C	0.905475	-0.380491	0.139415
C173	C	1.238808	-0.047157	0.472748
C174	C	1.572142	0.286176	0.806082
C175	C	0.905574	-0.380275	0.069774
C176	C	1.238908	-0.046941	0.403107
C177	C	1.572241	0.286392	0.736441
C178	C	0.945654	-0.329942	0.568005
C179	C	1.278987	0.003392	0.901339
C180	C	1.612320	0.336725	1.234672
C181	C	0.945653	-0.329908	0.633441
C182	C	1.278986	0.003426	0.966774
C183	C	1.612320	0.336759	1.300107
C184	C	0.905570	-0.380455	0.666135
C185	C	1.238903	-0.047122	0.999469
C186	C	1.572237	0.286212	1.332802
C187	C	0.865473	-0.431026	0.633389
C188	C	1.198807	-0.097692	0.966723
C189	C	1.532140	0.235641	1.300056
C190	C	0.865471	-0.431053	0.567955
C191	C	1.198804	-0.097719	0.901289
C192	C	1.532138	0.235614	1.234622
C193	C	0.900604	-0.451628	0.769805
C194	C	1.233938	-0.118295	1.103138
C195	C	1.567271	0.215039	1.436471
C196	C	0.900611	-0.451602	0.835238
C197	C	1.233945	-0.118269	1.168571
C198	C	1.567278	0.215064	1.501904
C199	C	0.905574	-0.380371	0.867956
C200	C	1.238907	-0.047038	1.201290
C201	C	1.572240	0.286295	1.534623
C202	C	0.910543	-0.309164	0.835234
C203	C	1.243876	0.024169	1.168567
C204	C	1.577209	0.357503	1.501901
C205	C	0.910540	-0.309191	0.769800
C206	C	1.243874	0.024142	1.103133
C207	C	1.577207	0.357476	1.436466
C208	C	0.905568	-0.380431	0.737088
C209	C	1.238901	-0.047098	1.070421
C210	C	1.572234	0.286236	1.403755
C211	C	0.945664	-0.329763	0.971647
C212	C	1.278997	0.003570	1.304980
C213	C	1.612330	0.336904	1.638314
C214	C	0.945659	-0.329728	1.037084
C215	C	1.278992	0.003606	1.370417
C216	C	1.612325	0.336939	1.703750
C217	C	0.865482	-0.430853	1.037031
C218	C	1.198816	-0.097520	1.370365
C219	C	1.532149	0.235814	1.703698
C220	C	0.865484	-0.430881	0.971596
C221	C	1.198817	-0.097548	1.304929
C222	C	1.532151	0.235785	1.638263
C223	C	0.905578	-0.380337	0.938908
C224	C	1.238912	-0.047004	1.272241
C225	C	1.572245	0.286329	1.605574
H226	H	0.144659	-0.472321	0.374880
H227	H	0.477992	-0.138988	0.708213
H228	H	0.811325	0.194346	1.041547
H229	H	0.978313	-1.078777	0.229632
H230	H	1.311647	-0.745444	0.562965
H231	H	1.644980	-0.412110	0.896299
F232	F	0.473223	-0.367481	0.185662
F233	F	0.806556	-0.034148	0.518996
F234	F	1.139890	0.299186	0.852329
H235	H	1.018365	-0.954921	0.189600
H236	H	1.351698	-0.621587	0.522933
H237	H	1.685032	-0.288254	0.856267
F238	F	1.028359	-0.794829	0.179579
F239	F	1.361692	-0.461496	0.512913
F240	F	1.695025	-0.128162	0.846246
F241	F	0.782658	-0.795022	0.424848
F242	F	1.115992	-0.461688	0.758181
F243	F	1.449325	-0.128355	1.091515
F244	F	0.136430	-0.275963	0.219733
F245	F	0.469763	0.057371	0.553066
F246	F	0.803097	0.390704	0.886399
F247	F	0.540066	-0.276066	0.219590
F248	F	0.873400	0.057267	0.552923
F249	F	1.206733	0.390601	0.886256
F250	F	0.822818	-0.484705	0.936752
F251	F	1.156151	-0.151372	1.270085
F252	F	1.489484	0.181961	1.603419
H253	H	0.465272	-0.392066	0.404590
H254	H	0.798605	-0.058732	0.737923
H255	H	1.131939	0.274601	1.071256
H256	H	0.832835	-0.472179	0.660014
H257	H	1.166169	-0.138846	0.993347
H258	H	1.499502	0.194487	1.326680
F259	F	0.988221	-0.671035	0.219589
F260	F	1.321554	-0.337702	0.552922
F261	F	1.654887	-0.004368	0.886255
F262	F	0.895337	-0.527449	0.734990
F263	F	1.228670	-0.194115	1.068323
F264	F	1.562003	0.139218	1.401656
F265	F	0.988312	-0.276072	0.668290
F266	F	1.321646	0.057261	1.001623
F267	F	1.654979	0.390595	1.334957
H268	H	0.978301	-0.288784	0.541395
H269	H	1.311634	0.044549	0.874728
H270	H	1.644968	0.377883	1.208061
F271	F	0.895328	-0.527387	0.870057
F272	F	1.228662	-0.194054	1.203391
F273	F	1.561995	0.139279	1.536724
H274	H	0.667002	-0.472465	0.374683
H275	H	1.000335	-0.139132	0.708016
H276	H	1.333668	0.194202	1.041350
F277	F	0.540115	-0.485086	0.384732
F278	F	0.873449	-0.151752	0.718065
F279	F	1.206782	0.181581	1.051399
H280	H	0.914584	-0.251211	0.743160
H281	H	1.247918	0.082122	1.076493
H282	H	1.581251	0.415455	1.409826
F283	F	0.915827	-0.233349	0.870050
F284	F	1.249160	0.099985	1.203383
F285	F	1.582493	0.433318	1.536716
H286	H	0.978303	-0.288545	1.063738
H287	H	1.311636	0.044788	1.397071
H288	H	1.644969	0.378121	1.730405
H289	H	0.666962	-0.288746	0.229547
H290	H	1.000295	0.044588	0.562880
H291	H	1.333628	0.377921	0.896213
F292	F	0.988332	-0.275968	0.936856
F293	F	1.321666	0.057366	1.270189
F294	F	1.654999	0.390699	1.603522
F295	F	0.822801	-0.484876	0.533112
F296	F	1.156134	-0.151542	0.866445
F297	F	1.489468	0.181791	1.199779
F298	F	0.271501	-0.275998	0.219684
F299	F	0.604834	0.057336	0.553017
F300	F	0.938167	0.390669	0.886351
F301	F	0.822839	-1.089229	0.384855
F302	F	1.156172	-0.755896	0.718188
F303	F	1.489505	-0.422563	1.051521
H304	H	0.832839	-0.472002	1.063651
H305	H	1.166173	-0.138668	1.396984
H306	H	1.499506	0.194665	1.730317
H307	H	0.346351	-0.369035	0.199822
H308	H	0.679685	-0.035702	0.533155
H309	H	1.013018	0.297631	0.866488
H310	H	0.346560	-0.392030	0.404632
H311	H	0.679893	-0.058697	0.737965
H312	H	1.013227	0.274636	1.071298
F313	F	0.271550	-0.485022	0.384829
F314	F	0.604883	-0.151689	0.718163
F315	F	0.938217	0.181644	1.051496
H316	H	0.792734	-0.955112	0.414855
H317	H	1.126067	-0.621778	0.748189
H318	H	1.459401	-0.288445	1.081522
F319	F	0.822713	-0.671175	0.384825
F320	F	1.156047	-0.337842	0.718159
F321	F	1.489380	-0.004508	1.051492
