data_functionalizedCrystal
_audit_creation_method	'MofGen! by Chris Wilmer'
_symmetry_space_group_name_H-M	'P1'
_symmetry_Int_Tables_number	1
_symmetry_cell_setting	triclinic
loop_
_symmetry_equiv_pos_as_xyz
  x,y,z
_cell_length_a	11.792240
_cell_length_b	17.038272
_cell_length_c	10.268362
_cell_angle_alpha	90.001146
_cell_angle_beta	90.014630
_cell_angle_gamma	92.347513
loop_
_atom_site_label
_atom_site_type_symbol
_atom_site_fract_x
_atom_site_fract_y
_atom_site_fract_z
O1	O	-0.246565	1.038457	-0.108184
O2	O	0.086768	1.371790	0.225149
O3	O	0.420101	1.705123	0.558483
O4	O	-0.242650	0.810809	-0.108221
O5	O	0.090683	1.144142	0.225112
O6	O	0.424017	1.477475	0.558445
O7	O	-0.079921	0.930157	-0.108162
O8	O	0.253412	1.263490	0.225171
O9	O	0.586746	1.596824	0.558504
O10	O	-0.409294	0.919108	-0.108243
O11	O	-0.075961	1.252441	0.225090
O12	O	0.257373	1.585775	0.558424
O13	O	-0.079913	0.930146	0.108438
O14	O	0.253420	1.263480	0.441772
O15	O	0.586754	1.596813	0.775105
O16	O	-0.242642	0.810798	0.108379
O17	O	0.090691	1.144131	0.441713
O18	O	0.424025	1.477465	0.775046
O19	O	-0.246557	1.038446	0.108417
O20	O	0.086776	1.371779	0.441750
O21	O	0.420110	1.705113	0.775083
Cu22	Cu	-0.244599	0.924621	0.128175
Cu23	Cu	0.088735	1.257954	0.461509
Cu24	Cu	0.422068	1.591288	0.794842
Cu25	Cu	-0.244608	0.924633	-0.127980
Cu26	Cu	0.088725	1.257967	0.205353
Cu27	Cu	0.422058	1.591300	0.538687
O28	O	-0.409286	0.919098	0.108357
O29	O	-0.075953	1.252431	0.441691
O30	O	0.257381	1.585764	0.775024
C31	C	-0.239085	0.781659	0.000075
C32	C	0.094248	1.114993	0.333408
C33	C	0.427582	1.448326	0.666741
C34	C	-0.228461	0.694819	0.000062
C35	C	0.104872	1.028153	0.333396
C36	C	0.438205	1.361486	0.666729
C37	C	-0.037565	0.929458	0.000145
C38	C	0.295768	1.262791	0.333479
C39	C	0.629101	1.596124	0.666812
C40	C	0.088630	0.927380	0.000167
C41	C	0.421964	1.260714	0.333500
C42	C	0.755297	1.594047	0.666834
C43	C	0.319677	0.923561	0.000187
C44	C	0.653011	1.256894	0.333521
C45	C	0.986344	1.590227	0.666854
C46	C	0.191106	0.925683	0.000176
C47	C	0.524440	1.259016	0.333509
C48	C	0.857773	1.592350	0.666842
C49	C	0.548358	0.919797	0.000093
C50	C	0.881692	1.253130	0.333427
C51	C	1.215025	1.586464	0.666760
C52	C	0.422163	0.921874	0.000201
C53	C	0.755496	1.255208	0.333535
C54	C	1.088829	1.588541	0.666868
C55	C	-0.326001	0.645136	0.000039
C56	C	0.007332	0.978470	0.333373
C57	C	0.340666	1.311803	0.666706
C58	C	-0.316012	0.563542	0.000060
C59	C	0.017321	0.896875	0.333393
C60	C	0.350655	1.230208	0.666726
C61	C	-0.208482	0.531632	0.000094
C62	C	0.124851	0.864965	0.333427
C63	C	0.458185	1.198298	0.666760
C64	C	-0.110935	0.581321	0.000121
C65	C	0.222398	0.914654	0.333454
C66	C	0.555732	1.247988	0.666787
C67	C	-0.120925	0.662914	0.000110
C68	C	0.212408	0.996248	0.333443
C69	C	0.545742	1.329581	0.666776
C70	C	-0.173189	0.285718	0.000137
C71	C	0.160144	0.619051	0.333471
C72	C	0.493478	0.952384	0.666804
C73	C	-0.163206	0.204118	0.000144
C74	C	0.170127	0.537452	0.333478
C75	C	0.503461	0.870785	0.666811
C76	C	-0.368284	0.186344	0.000086
C77	C	-0.034951	0.519678	0.333419
C78	C	0.298383	0.853011	0.666753
C79	C	-0.378265	0.267940	0.000067
C80	C	-0.044931	0.601273	0.333400
C81	C	0.288402	0.934607	0.666734
C82	C	-0.280718	0.317622	0.000101
C83	C	0.052616	0.650955	0.333434
C84	C	0.385949	0.984289	0.666767
C85	C	-0.198269	0.448229	0.000111
C86	C	0.135064	0.781562	0.333444
C87	C	0.468398	1.114896	0.666777
C88	C	-0.290932	0.401023	0.000093
C89	C	0.042402	0.734357	0.333427
C90	C	0.375735	1.067690	0.666760
C91	C	-0.250122	1.067595	0.000118
C92	C	0.083211	1.400929	0.333451
C93	C	0.416545	1.734262	0.666784
C94	C	-0.260746	1.154435	0.000122
C95	C	0.072587	1.487768	0.333455
C96	C	0.405921	1.821102	0.666788
N97	N	-0.244592	0.924618	0.308341
N98	N	0.088742	1.257951	0.641674
N99	N	0.422075	1.591285	0.975008
N100	N	-0.244607	0.924643	-0.308146
N101	N	0.088726	1.257976	0.025187
N102	N	0.422060	1.591309	0.358521
C103	C	-0.244606	0.924630	0.574012
C104	C	0.088728	1.257963	0.907345
C105	C	0.422061	1.591296	1.240678
C106	C	-0.244601	0.924621	0.426174
C107	C	0.088732	1.257954	0.759507
C108	C	0.422066	1.591287	1.092840
H109	H	-0.413563	0.671111	0.000011
H110	H	-0.080230	1.004444	0.333344
H111	H	0.253103	1.337777	0.666677
C112	C	-0.571994	0.176973	0.000022
C113	C	-0.238661	0.510306	0.333356
C114	C	0.094672	0.843640	0.666689
C115	C	-0.475504	0.131733	0.000057
C116	C	-0.142171	0.465066	0.333390
C117	C	0.191162	0.798400	0.666723
H118	H	-0.638189	0.143257	-0.000001
H119	H	-0.304856	0.476590	0.333332
H120	H	0.028478	0.809923	0.666665
H121	H	-0.571622	0.209168	0.075549
H122	H	-0.238289	0.542501	0.408882
H123	H	0.095044	0.875835	0.742215
H124	H	-0.571617	0.209166	-0.075519
H125	H	-0.238283	0.542500	0.257815
H126	H	0.095050	0.875833	0.591148
H127	H	-0.475877	0.099544	0.075603
H128	H	-0.142544	0.432877	0.408937
H129	H	0.190789	0.766210	0.742270
H130	H	-0.475877	0.099524	-0.075477
H131	H	-0.142543	0.432858	0.257856
H132	H	0.190790	0.766191	0.591189
H133	H	-0.075638	0.178141	0.000171
H134	H	0.257695	0.511474	0.333504
H135	H	0.591029	0.844808	0.666838
H136	H	-0.041497	0.703366	0.000127
H137	H	0.291836	1.036699	0.333461
H138	H	0.625169	1.370033	0.666794
H139	H	-0.395440	0.523092	0.000040
H140	H	-0.062106	0.856426	0.333373
H141	H	0.271227	1.189759	0.666706
C142	C	-0.421120	0.482458	-0.111312
C143	C	-0.087787	0.815791	0.222022
C144	C	0.245547	1.149125	0.555355
C145	C	-0.409129	0.436094	0.000047
C146	C	-0.075796	0.769427	0.333380
C147	C	0.257538	1.102760	0.666713
H148	H	-0.494094	0.504109	-0.111347
H149	H	-0.160761	0.837442	0.221987
H150	H	0.172573	1.170775	0.555320
H151	H	-0.364461	0.523719	-0.111282
H152	H	-0.031128	0.857052	0.222051
H153	H	0.302206	1.190386	0.555384
H154	H	-0.412955	0.450984	-0.186829
H155	H	-0.079622	0.784317	0.146505
H156	H	0.253711	1.117651	0.479838
H157	H	-0.417285	0.467569	0.075564
H158	H	-0.083952	0.800902	0.408898
H159	H	0.249381	1.134236	0.742231
H160	H	-0.465804	0.394827	0.000029
H161	H	-0.132471	0.728160	0.333363
H162	H	0.200862	1.061494	0.666696
C163	C	0.066935	0.571353	-0.111174
C164	C	0.400268	0.904686	0.222159
C165	C	0.733601	1.238019	0.555493
C166	C	0.007266	0.546249	0.000156
C167	C	0.340599	0.879582	0.333489
C168	C	0.673933	1.212916	0.666822
H169	H	0.139910	0.549705	-0.111149
H170	H	0.473244	0.883038	0.222184
H171	H	0.806577	1.216371	0.555517
H172	H	0.026440	0.554322	-0.186702
H173	H	0.359773	0.887656	0.146631
H174	H	0.693106	1.220989	0.479964
H175	H	0.074936	0.627058	-0.111159
H176	H	0.408269	0.960391	0.222174
H177	H	0.741603	1.293725	0.555507
H178	H	-0.000743	0.490544	0.000136
H179	H	0.332591	0.823877	0.333469
H180	H	0.665924	1.157210	0.666803
H181	H	0.047771	0.563275	0.075703
H182	H	0.381104	0.896608	0.409037
H183	H	0.714437	1.229941	0.742370
H184	H	-0.093758	0.326160	0.000166
H185	H	0.239575	0.659493	0.333499
H186	H	0.572908	0.992826	0.666832
H187	H	-0.110718	0.422239	0.000175
H188	H	0.222616	0.755572	0.333508
H189	H	0.555949	1.088905	0.666842
C190	C	-0.508463	0.349345	-0.111388
C191	C	-0.175130	0.682679	0.221945
C192	C	0.158204	1.016012	0.555279
C193	C	-0.496476	0.302997	-0.000011
C194	C	-0.163143	0.636330	0.333322
C195	C	0.170191	0.969663	0.666656
H196	H	-0.581448	0.370979	-0.111454
H197	H	-0.248115	0.704312	0.221879
H198	H	0.085218	1.037645	0.555212
H199	H	-0.451823	0.390619	-0.111354
H200	H	-0.118490	0.723952	0.221980
H201	H	0.214843	1.057286	0.555313
H202	H	-0.500264	0.317866	-0.186892
H203	H	-0.166931	0.651199	0.146441
H204	H	0.166402	0.984532	0.479774
H205	H	-0.504666	0.334478	0.075494
H206	H	-0.171333	0.667811	0.408827
H207	H	0.162000	1.001145	0.742160
H208	H	-0.553132	0.261717	-0.000034
H209	H	-0.219799	0.595051	0.333300
H210	H	0.113535	0.928384	0.666633
