data_functionalizedCrystal
_audit_creation_method	'MofGen! by Chris Wilmer'
_symmetry_space_group_name_H-M	'P1'
_symmetry_Int_Tables_number	1
_symmetry_cell_setting	triclinic
loop_
_symmetry_equiv_pos_as_xyz
  x,y,z
_cell_length_a	19.288864
_cell_length_b	16.109298
_cell_length_c	17.766277
_cell_angle_alpha	90.000182
_cell_angle_beta	89.976755
_cell_angle_gamma	83.298218
loop_
_atom_site_label
_atom_site_type_symbol
_atom_site_fract_x
_atom_site_fract_y
_atom_site_fract_z
O1	O	0.921600	0.103715	-0.062827
O2	O	0.719373	0.117706	-0.062774
O3	O	0.826043	-0.010340	-0.062807
O4	O	0.814930	0.231760	-0.062794
O5	O	0.826024	-0.010344	0.062381
O6	O	0.719353	0.117702	0.062414
O7	O	0.921581	0.103711	0.062362
Cu8	Cu	0.820465	0.110706	0.073819
Cu9	Cu	0.820488	0.110711	-0.074231
O10	O	0.814911	0.231757	0.062395
C11	C	0.693485	0.117254	-0.000173
C12	C	0.616379	0.115902	-0.000154
C13	C	0.825583	-0.041315	-0.000216
C14	C	0.824235	-0.133606	-0.000224
C15	C	0.571861	0.191034	-0.000161
C16	C	0.499411	0.189764	-0.000170
C17	C	0.471482	0.113359	-0.000186
C18	C	0.516009	0.038218	-0.000174
C19	C	0.588458	0.039489	-0.000158
C20	C	0.363084	0.053297	-0.044073
C21	C	0.290636	0.052029	-0.044094
C22	C	0.248027	0.109433	-0.000231
C23	C	0.277872	0.168121	0.043642
C24	C	0.350321	0.169393	0.043658
C25	C	0.392924	0.111971	-0.000202
C26	C	0.124950	0.183193	-0.000247
C27	C	0.052499	0.181920	-0.000251
C28	C	0.069099	0.030372	-0.000262
C29	C	0.141548	0.031647	-0.000251
C30	C	0.169469	0.108060	-0.000247
C31	C	0.819845	-0.432658	-0.068448
C32	C	0.821121	-0.345942	-0.068453
C33	C	0.821110	-0.345932	0.068034
C34	C	0.819839	-0.432647	0.068039
C35	C	0.819203	-0.476007	-0.000204
C36	C	0.821751	-0.302576	-0.000215
C37	C	0.823135	-0.208556	-0.000220
C38	C	0.817820	-0.570034	-0.000199
C39	C	0.947468	0.104163	-0.000241
C40	C	1.024575	0.105514	-0.000265
C41	C	0.815370	0.262732	-0.000198
C42	C	0.816718	0.355023	-0.000195
N43	N	0.820455	0.110703	0.177949
N44	N	0.820504	0.110708	-0.178362
C45	C	0.862562	0.161004	0.217321
C46	C	0.862572	0.161002	0.296123
C47	C	0.820463	0.110708	0.335550
C48	C	0.778354	0.060396	0.296168
C49	C	0.778349	0.060394	0.217368
C50	C	0.757846	0.108605	0.460425
C51	C	0.757849	0.108613	0.539224
C52	C	0.820478	0.110710	0.578596
C53	C	0.883105	0.112816	0.539160
C54	C	0.883100	0.112814	0.460359
C55	C	0.820464	0.110704	0.420995
C56	C	0.862600	0.161012	0.703414
C57	C	0.862613	0.161003	0.782217
C58	C	0.778388	0.060402	0.782261
C59	C	0.778382	0.060406	0.703459
C60	C	0.820487	0.110715	0.664040
H61	H	0.463158	0.250947	-0.000174
H62	H	0.821627	-0.310617	0.123595
H63	H	0.821645	-0.310651	-0.124024
H64	H	0.374618	0.217175	0.079384
H65	H	0.046360	-0.031839	-0.000322
C66	C	0.634039	0.104464	0.531372
C67	C	0.689010	0.106314	0.582568
H68	H	0.591540	0.103044	0.558131
H69	H	0.630810	0.153001	0.500632
H70	H	0.642482	0.056082	0.500639
H71	H	0.680569	0.154699	0.613297
H72	H	0.692238	0.057772	0.613321
C73	C	0.817896	-0.565589	-0.129047
C74	C	0.819151	-0.480322	-0.143459
H75	H	0.817465	-0.595011	-0.175357
H76	H	0.858162	-0.586288	-0.101024
H77	H	0.777201	-0.573295	-0.100993
H78	H	0.859849	-0.472616	-0.171507
H79	H	0.778881	-0.459617	-0.171493
H80	H	0.819318	-0.467943	0.123614
H81	H	0.934103	0.114528	0.571215
H82	H	0.266341	0.004245	-0.079821
H83	H	0.744103	0.019451	0.814361
H84	H	0.934093	0.114527	0.428254
H85	H	0.744091	0.019449	0.671402
H86	H	0.896850	0.201966	0.185231
C87	C	0.945811	0.260457	0.288173
C88	C	0.908856	0.216301	0.339413
H89	H	0.974381	0.294600	0.314898
H90	H	0.974286	0.222112	0.257428
H91	H	0.913828	0.294618	0.257449
H92	H	0.940840	0.182136	0.370133
H93	H	0.880380	0.254651	0.370171
C94	C	0.945858	0.260444	0.711283
C95	C	0.908888	0.216300	0.660079
H96	H	0.974437	0.294573	0.684529
H97	H	0.913889	0.294610	0.742033
H98	H	0.974331	0.222084	0.742003
H99	H	0.880412	0.254660	0.629362
H100	H	0.940861	0.182132	0.629315
H101	H	0.896906	0.201962	0.814273
H102	H	0.243181	0.214865	0.079360
H103	H	0.706842	0.106903	0.428375
H104	H	0.744069	0.019445	0.328274
C105	C	0.662006	0.028105	0.193175
C106	C	0.732054	0.005106	0.174088
H107	H	0.633424	-0.006024	0.166451
H108	H	0.655991	0.020902	0.245741
H109	H	0.649094	0.085033	0.180264
H110	H	0.744967	-0.051821	0.187003
H111	H	0.738072	0.012301	0.121510
C112	C	0.548170	0.340704	-0.000149
C113	C	0.602551	0.275026	-0.000144
H114	H	0.567120	0.392556	-0.000132
H115	H	0.520286	0.337058	-0.043810
H116	H	0.520231	0.337046	0.043502
H117	H	0.630487	0.278681	-0.043798
H118	H	0.630446	0.278674	0.043522
H119	H	0.147684	0.245413	-0.000233
H120	H	0.177796	-0.029534	-0.000249
C121	C	0.043373	0.331845	-0.000256
C122	C	0.003561	0.264512	-0.000260
H123	H	0.013158	0.382833	-0.000267
H124	H	0.071951	0.329194	0.043401
H125	H	0.072000	0.329179	-0.043911
H126	H	-0.025063	0.267175	0.043398
H127	H	-0.025029	0.267165	-0.043922
H128	H	0.493265	-0.023992	-0.000197
C129	C	0.391270	0.000689	-0.168158
C130	C	0.409920	-0.009800	-0.092296
H131	H	0.420189	-0.038259	-0.197926
H132	H	0.343859	-0.008474	-0.174442
H133	H	0.397126	0.055911	-0.183555
H134	H	0.404059	-0.065021	-0.076897
H135	H	0.457342	-0.000643	-0.086007
C136	C	0.597587	-0.110436	-0.000173
C137	C	0.637396	-0.043101	-0.000158
H138	H	0.627802	-0.161423	-0.000180
H139	H	0.568965	-0.107784	0.043477
H140	H	0.569003	-0.107772	-0.043836
H141	H	0.665977	-0.045762	0.043507
H142	H	0.666030	-0.045754	-0.043813
