data_functionalizedCrystal
_audit_creation_method	'MofGen! by Chris Wilmer'
_symmetry_space_group_name_H-M	'P1'
_symmetry_Int_Tables_number	1
_symmetry_cell_setting	triclinic
loop_
_symmetry_equiv_pos_as_xyz
  x,y,z
_cell_length_a	19.805407
_cell_length_b	19.805404
_cell_length_c	19.805399
_cell_angle_alpha	90.027110
_cell_angle_beta	90.017803
_cell_angle_gamma	90.026910
loop_
_atom_site_label
_atom_site_type_symbol
_atom_site_fract_x
_atom_site_fract_y
_atom_site_fract_z
Zn1	Zn	1.034721	-0.269527	0.382690
Zn2	Zn	1.368054	0.063806	0.716023
Zn3	Zn	1.701387	0.397139	1.049357
Zn4	Zn	1.034629	-0.382716	0.269503
Zn5	Zn	1.367963	-0.049382	0.602836
Zn6	Zn	1.701296	0.283951	0.936169
Zn7	Zn	0.921535	-0.269541	0.269518
Zn8	Zn	1.254869	0.063793	0.602851
Zn9	Zn	1.588202	0.397126	0.936185
Zn10	Zn	0.921493	-0.382674	0.382653
Zn11	Zn	1.254826	-0.049341	0.715986
Zn12	Zn	1.588159	0.283992	1.049319
O13	O	0.978094	-0.326115	0.326091
O14	O	1.311428	0.007219	0.659424
O15	O	1.644761	0.340552	0.992757
O16	O	1.129425	-0.284554	0.367684
O17	O	1.462758	0.048780	0.701018
O18	O	1.796092	0.382113	1.034351
O19	O	1.019607	-0.367726	0.174788
O20	O	1.352940	-0.034392	0.508121
O21	O	1.686273	0.298941	0.841455
O22	O	0.936606	-0.174822	0.284552
O23	O	1.269939	0.158511	0.617886
O24	O	1.603272	0.491844	0.951219
O25	O	1.129358	-0.367713	0.284526
O26	O	1.462691	-0.034379	0.617859
O27	O	1.796025	0.298954	0.951193
O28	O	1.019763	-0.174813	0.367699
O29	O	1.353096	0.158521	0.701033
O30	O	1.686429	0.491854	1.034366
O31	O	0.936517	-0.284576	0.174799
O32	O	1.269850	0.048757	0.508133
O33	O	1.603184	0.382090	0.841466
O34	O	0.826813	-0.284536	0.284516
O35	O	1.160146	0.048797	0.617850
O36	O	1.493480	0.382130	0.951183
O37	O	0.936533	-0.367642	0.477374
O38	O	1.269866	-0.034309	0.810708
O39	O	1.603200	0.299024	1.144041
O40	O	0.826782	-0.367655	0.367636
O41	O	1.160115	-0.034322	0.700969
O42	O	1.493448	0.299011	1.034303
O43	O	1.019721	-0.284514	0.477402
O44	O	1.353054	0.048820	0.810735
O45	O	1.686388	0.382153	1.144068
O46	O	1.019565	-0.477427	0.284490
O47	O	1.352899	-0.144094	0.617824
O48	O	1.686232	0.189240	0.951157
O49	O	0.936444	-0.477397	0.367621
O50	O	1.269778	-0.144063	0.700955
O51	O	1.603111	0.189270	1.034288
C52	C	0.802238	-0.326093	0.326074
C53	C	1.135572	0.007240	0.659408
C54	C	1.468905	0.340573	0.992741
C55	C	0.727006	-0.326101	0.326083
C56	C	1.060340	0.007233	0.659417
C57	C	1.393673	0.340566	0.992750
C58	C	0.691698	-0.282876	0.369450
C59	C	1.025031	0.050457	0.702783
C60	C	1.358365	0.383790	1.036116
C61	C	0.621009	-0.282880	0.369452
C62	C	0.954343	0.050453	0.702786
C63	C	1.287676	0.383787	1.036119
C64	C	0.585631	-0.326112	0.326092
C65	C	0.918964	0.007222	0.659425
C66	C	1.252298	0.340555	0.992758
C67	C	0.620944	-0.369338	0.282720
C68	C	0.954278	-0.036005	0.616054
C69	C	1.287611	0.297329	0.949387
C70	C	0.691631	-0.369330	0.282715
C71	C	1.024965	-0.035997	0.616048
C72	C	1.358298	0.297336	0.949382
C73	C	0.335871	-0.369368	0.282741
C74	C	0.669204	-0.036035	0.616074
C75	C	1.002538	0.297298	0.949408
C76	C	0.265179	-0.369374	0.282751
C77	C	0.598512	-0.036041	0.616085
C78	C	0.931846	0.297293	0.949418
C79	C	0.265249	-0.282918	0.369479
C80	C	0.598582	0.050416	0.702812
C81	C	0.931916	0.383749	1.036145
C82	C	0.335936	-0.282910	0.369473
C83	C	0.669269	0.050423	0.702806
C84	C	1.002603	0.383756	1.036140
C85	C	0.371243	-0.326134	0.326100
C86	C	0.704577	0.007200	0.659433
C87	C	1.037910	0.340533	0.992766
C88	C	0.447892	-0.326128	0.326097
C89	C	0.781225	0.007205	0.659430
C90	C	1.114559	0.340538	0.992763
C91	C	0.508984	-0.326121	0.326098
C92	C	0.842317	0.007213	0.659431
C93	C	1.175650	0.340546	0.992764
C94	C	0.978009	-0.501971	0.326065
C95	C	1.311342	-0.168637	0.659398
C96	C	1.644675	0.164696	0.992731
C97	C	0.978034	-0.577203	0.326076
C98	C	1.311367	-0.243869	0.659410
C99	C	1.644700	0.089464	0.992743
C100	C	1.021542	-1.038987	0.282899
C101	C	1.354875	-0.705653	0.616233
C102	C	1.688208	-0.372320	0.949566
C103	C	1.021510	-0.968298	0.282886
C104	C	1.354843	-0.634965	0.616219
C105	C	1.688177	-0.301632	0.949553
C106	C	0.978183	-0.932964	0.326127
C107	C	1.311517	-0.599631	0.659460
C108	C	1.644850	-0.266298	0.992793
C109	C	0.934880	-0.968322	0.369378
C110	C	1.268214	-0.634989	0.702712
C111	C	1.601547	-0.301656	1.036045
C112	C	0.934909	-1.039009	0.369388
C113	C	1.268243	-0.705676	0.702721
C114	C	1.601576	-0.372343	1.036054
C115	C	0.934763	-0.683249	0.369341
C116	C	1.268096	-0.349916	0.702675
C117	C	1.601429	-0.016582	1.036008
C118	C	0.934739	-0.612557	0.369330
C119	C	1.268072	-0.279224	0.702663
C120	C	1.601405	0.054110	1.035997
C121	C	1.021363	-0.612538	0.282840
C122	C	1.354697	-0.279205	0.616173
C123	C	1.688030	0.054129	0.949506
C124	C	1.021392	-0.683225	0.282849
C125	C	1.354726	-0.349892	0.616182
C126	C	1.688059	-0.016558	0.949516
C127	C	0.978087	-0.718577	0.326098
C128	C	1.311421	-0.385244	0.659431
C129	C	1.644754	-0.051910	0.992765
C130	C	0.978121	-0.795225	0.326111
C131	C	1.311455	-0.461892	0.659444
C132	C	1.644788	-0.128559	0.992777
C133	C	0.978152	-0.856317	0.326118
C134	C	1.311485	-0.522984	0.659451
C135	C	1.644819	-0.189650	0.992784
C136	C	1.154637	-0.326136	0.326108
C137	C	1.487970	0.007197	0.659441
C138	C	1.821304	0.340530	0.992774
C139	C	1.229869	-0.326146	0.326115
C140	C	1.563202	0.007188	0.659448
C141	C	1.896536	0.340521	0.992782
C142	C	0.978132	-0.326072	0.502634
C143	C	1.311466	0.007261	0.835967
C144	C	1.644799	0.340595	1.169300
C145	C	0.978149	-0.326054	0.577866
C146	C	1.311482	0.007280	0.911199
C147	C	1.644815	0.340613	1.244532
C148	C	0.978199	-0.149572	0.326132
C149	C	1.311532	0.183762	0.659465
C150	C	1.644866	0.517095	0.992798
C151	C	0.978244	-0.074340	0.326149
C152	C	1.311577	0.258994	0.659483
C153	C	1.644910	0.592327	0.992816
C154	C	0.978096	-0.326108	0.150235
C155	C	1.311429	0.007225	0.483568
C156	C	1.644762	0.340558	0.816901
C157	C	0.978211	-0.325936	0.075003
C158	C	1.311544	0.007398	0.408337
C159	C	1.644877	0.340731	0.741670
C160	C	1.021466	-0.282767	0.613225
C161	C	1.354799	0.050567	0.946558
C162	C	1.688132	0.383900	1.279892
C163	C	1.021473	-0.282747	0.683914
C164	C	1.354806	0.050586	1.017247
C165	C	1.688139	0.383920	1.350580
C166	C	0.978165	-0.326018	0.719241
C167	C	1.311499	0.007315	1.052575
C168	C	1.644832	0.340648	1.385908
C169	C	0.934844	-0.369308	0.683877
C170	C	1.268177	-0.035974	1.017210
C171	C	1.601510	0.297359	1.350544
C172	C	0.934834	-0.369323	0.613190
C173	C	1.268167	-0.035990	0.946523
C174	C	1.601500	0.297343	1.279856
C175	C	0.934882	-0.369244	0.968950
C176	C	1.268215	-0.035911	1.302284
C177	C	1.601548	0.297422	1.635617
C178	C	0.934896	-0.369227	1.039642
C179	C	1.268230	-0.035894	1.372976
C180	C	1.601563	0.297440	1.706309
C181	C	1.021521	-0.282668	1.039674
C182	C	1.354854	0.050665	1.373007
C183	C	1.688187	0.383999	1.706341
C184	C	1.021511	-0.282684	0.968987
C185	C	1.354844	0.050650	1.302320
C186	C	1.688177	0.383983	1.635654
C187	C	0.978187	-0.325970	0.933629
C188	C	1.311520	0.007363	1.266962
C189	C	1.644853	0.340697	1.600295
C190	C	0.978179	-0.325990	0.856980
C191	C	1.311512	0.007343	1.190314
C192	C	1.644846	0.340677	1.523647
C193	C	0.978176	-0.326002	0.795888
C194	C	1.311510	0.007331	1.129222
C195	C	1.644843	0.340664	1.462555
H196	H	0.236493	-0.247721	0.404793
H197	H	0.569827	0.085613	0.738126
H198	H	0.903160	0.418946	1.071460
H199	H	0.899655	-1.067793	0.404610
H200	H	1.232988	-0.734459	0.737943
H201	H	1.566322	-0.401126	1.071276
C202	C	0.800085	-0.244477	0.407957
C203	C	1.133419	0.088856	0.741291
C204	C	1.466752	0.422189	1.074624
C205	C	0.730584	-0.235355	0.417115
C206	C	1.063917	0.097978	0.750449
C207	C	1.397250	0.431311	1.083782
H208	H	0.824089	-0.215140	0.437388
H209	H	1.157422	0.118193	0.770721
H210	H	1.490755	0.451526	1.104054
H211	H	0.811653	-0.234509	0.362503
H212	H	1.144986	0.098824	0.695836
H213	H	1.478320	0.432158	1.029170
H214	H	0.811650	-0.289968	0.417783
H215	H	1.144983	0.043365	0.751116
H216	H	1.478317	0.376699	1.084449
H217	H	0.719018	-0.189866	0.407285
H218	H	1.052352	0.143468	0.740618
H219	H	1.385685	0.476801	1.073952
H220	H	0.719011	-0.245319	0.462580
H221	H	1.052345	0.088014	0.795913
H222	H	1.385678	0.421348	1.129247
C223	C	0.901843	-0.483830	1.061370
C224	C	1.235177	-0.150496	1.394704
C225	C	1.568510	0.182837	1.728037
C226	C	0.887285	-0.416792	1.078474
C227	C	1.220618	-0.083459	1.411807
C228	C	1.553951	0.249874	1.745140
H229	H	0.872449	-0.513192	1.085340
H230	H	1.205782	-0.179859	1.418674
H231	H	1.539115	0.153475	1.752007
H232	H	0.947310	-0.493738	1.072961
H233	H	1.280643	-0.160405	1.406295
H234	H	1.613977	0.172929	1.739628
H235	H	0.895633	-0.490024	1.014210
H236	H	1.228967	-0.156691	1.347543
H237	H	1.562300	0.176642	1.680877
H238	H	0.893500	-0.410596	1.125633
H239	H	1.226833	-0.077263	1.458967
H240	H	1.560166	0.256070	1.792300
H241	H	0.841807	-0.406881	1.066887
H242	H	1.175141	-0.073547	1.400220
H243	H	1.508474	0.259786	1.733554
C244	C	0.896351	-0.407779	0.504815
C245	C	1.229685	-0.074446	0.838148
C246	C	1.563018	0.258888	1.171481
C247	C	0.887219	-0.416906	0.574319
C248	C	1.220552	-0.083572	0.907652
C249	C	1.553885	0.249761	1.240986
H250	H	0.866950	-0.437151	0.480820
H251	H	1.200283	-0.103818	0.814153
H252	H	1.533616	0.229515	1.147486
H253	H	0.941815	-0.417697	0.493238
H254	H	1.275148	-0.084363	0.826572
H255	H	1.608482	0.248970	1.159905
H256	H	0.886472	-0.362300	0.493249
H257	H	1.219805	-0.028967	0.826582
H258	H	1.553138	0.304366	1.159915
H259	H	0.897103	-0.462384	0.585886
H260	H	1.230437	-0.129050	0.919219
H261	H	1.563770	0.204283	1.252552
H262	H	0.841745	-0.406993	0.585900
H263	H	1.175078	-0.073660	0.919233
H264	H	1.508411	0.259674	1.252567
H265	H	0.236376	-0.404580	0.247439
H266	H	0.569709	-0.071247	0.580773
H267	H	0.903042	0.262087	0.914106
C268	C	1.030794	-0.533099	0.191781
C269	C	1.364127	-0.199766	0.525114
C270	C	1.697460	0.133568	0.858447
C271	C	1.068960	-0.573678	0.235290
C272	C	1.402293	-0.240345	0.568623
C273	C	1.735626	0.092989	0.901957
H274	H	1.060179	-0.509114	0.162426
H275	H	1.393512	-0.175780	0.495759
H276	H	1.726845	0.157553	0.829092
H277	H	1.004992	-0.501941	0.217530
H278	H	1.338326	-0.168608	0.550863
H279	H	1.671659	0.164725	0.884197
H280	H	1.001334	-0.560726	0.165871
H281	H	1.334667	-0.227392	0.499204
H282	H	1.668000	0.105941	0.832537
H283	H	1.098416	-0.546051	0.261204
H284	H	1.431750	-0.212717	0.594537
H285	H	1.765083	0.120616	0.927871
H286	H	1.094772	-0.604839	0.209538
H287	H	1.428106	-0.271506	0.542872
H288	H	1.761439	0.061827	0.876205
C289	C	0.328692	-0.454831	0.197017
C290	C	0.662025	-0.121498	0.530350
C291	C	0.995358	0.211836	0.863684
C292	C	0.374675	-0.416882	0.235069
C293	C	0.708008	-0.083549	0.568403
C294	C	1.041341	0.249784	0.901736
H295	H	0.352651	-0.484168	0.167588
H296	H	0.685984	-0.150834	0.500922
H297	H	1.019318	0.182499	0.834255
H298	H	0.301122	-0.425309	0.171186
H299	H	0.634455	-0.091976	0.504519
H300	H	0.967788	0.241358	0.837852
H301	H	0.301124	-0.480761	0.226472
H302	H	0.634457	-0.147428	0.559806
H303	H	0.967790	0.185905	0.893139
H304	H	0.402239	-0.390948	0.205614
H305	H	0.735573	-0.057615	0.538947
H306	H	1.068906	0.275719	0.872281
H307	H	0.402256	-0.446408	0.260903
H308	H	0.735590	-0.113075	0.594236
H309	H	1.068923	0.220259	0.927569
C310	C	0.820213	-0.402255	0.705617
C311	C	1.153547	-0.068922	1.038950
C312	C	1.486880	0.264411	1.372284
C313	C	0.887238	-0.416872	0.722707
C314	C	1.220571	-0.083539	1.056041
C315	C	1.553904	0.249794	1.389374
H316	H	0.790825	-0.431620	0.729592
H317	H	1.124158	-0.098286	1.062925
H318	H	1.457492	0.235047	1.396259
H319	H	0.814012	-0.408461	0.658463
H320	H	1.147346	-0.075128	0.991797
H321	H	1.480679	0.258206	1.325130
H322	H	0.810346	-0.356773	0.717217
H323	H	1.143679	-0.023440	1.050550
H324	H	1.477012	0.309893	1.383884
H325	H	0.897107	-0.462353	0.711103
H326	H	1.230440	-0.129020	1.044436
H327	H	1.563774	0.204313	1.377770
H328	H	0.893442	-0.410672	0.769872
H329	H	1.226775	-0.077339	1.103205
H330	H	1.560109	0.255994	1.436538
C331	C	0.628179	-0.197426	0.455186
C332	C	0.961512	0.135908	0.788519
C333	C	1.294845	0.469241	1.121853
C334	C	0.582198	-0.235368	0.417124
C335	C	0.915532	0.097965	0.750457
C336	C	1.248865	0.431299	1.083791
H337	H	0.604217	-0.168095	0.484619
H338	H	0.937550	0.165238	0.817953
H339	H	1.270884	0.498571	1.151286
H340	H	0.655747	-0.171495	0.425742
H341	H	0.989081	0.161838	0.759075
H342	H	1.322414	0.495172	1.092409
H343	H	0.655748	-0.226957	0.481019
H344	H	0.989081	0.106376	0.814352
H345	H	1.322415	0.439710	1.147686
H346	H	0.554632	-0.205837	0.391287
H347	H	0.887966	0.127497	0.724620
H348	H	1.221299	0.460830	1.057954
H349	H	0.554618	-0.261301	0.446572
H350	H	0.887951	0.072033	0.779905
H351	H	1.221285	0.405366	1.113238
C352	C	0.849099	-0.619672	0.454821
C353	C	1.182432	-0.286339	0.788155
C354	C	1.515766	0.046995	1.121488
C355	C	0.887106	-0.573716	0.416860
C356	C	1.220440	-0.240383	0.750194
C357	C	1.553773	0.092951	1.083527
H358	H	0.819693	-0.595691	0.484160
H359	H	1.153027	-0.262358	0.817493
H360	H	1.486360	0.070975	1.150826
H361	H	0.878580	-0.647201	0.480744
H362	H	1.211913	-0.313868	0.814078
H363	H	1.545246	0.019465	1.147411
H364	H	0.823239	-0.647283	0.425302
H365	H	1.156572	-0.313949	0.758636
H366	H	1.489906	0.019384	1.091969
H367	H	0.912970	-0.546108	0.446379
H368	H	1.246303	-0.212775	0.779713
H369	H	1.579637	0.120559	1.113046
H370	H	0.857622	-0.546175	0.390935
H371	H	1.190955	-0.212842	0.724269
H372	H	1.524289	0.120492	1.057602
H373	H	0.364738	-0.247709	0.404784
H374	H	0.698071	0.085625	0.738117
H375	H	1.031405	0.418958	1.071451
H376	H	0.592133	-0.404535	0.247412
H377	H	0.925467	-0.071201	0.580745
H378	H	1.258800	0.262132	0.914079
C379	C	0.896339	-0.791609	0.407768
C380	C	1.229673	-0.458276	0.741101
C381	C	1.563006	-0.124943	1.074435
C382	C	0.887171	-0.722103	0.416888
C383	C	1.220504	-0.388769	0.750221
C384	C	1.553838	-0.055436	1.083555
H385	H	0.866955	-0.815596	0.437122
H386	H	1.200288	-0.482263	0.770456
H387	H	1.533622	-0.148930	1.103789
H388	H	0.941810	-0.803145	0.417714
H389	H	1.275144	-0.469811	0.751047
H390	H	1.608477	-0.136478	1.084381
H391	H	0.886459	-0.803226	0.362283
H392	H	1.219792	-0.469892	0.695617
H393	H	1.553125	-0.136559	1.028950
H394	H	0.897057	-0.710485	0.462372
H395	H	1.230390	-0.377152	0.795705
H396	H	1.563723	-0.043818	1.129038
H397	H	0.841689	-0.710562	0.406947
H398	H	1.175023	-0.377229	0.740280
H399	H	1.508356	-0.043896	1.073613
C400	C	0.684467	-0.454800	0.196995
C401	C	1.017800	-0.121467	0.530328
C402	C	1.351133	0.211867	0.863661
C403	C	0.730445	-0.416849	0.235050
C404	C	1.063779	-0.083515	0.568383
C405	C	1.397112	0.249818	0.901716
H406	H	0.708430	-0.484138	0.167570
H407	H	1.041763	-0.150805	0.500903
H408	H	1.375096	0.182529	0.834237
H409	H	0.656899	-0.425280	0.171159
H410	H	0.990232	-0.091947	0.504492
H411	H	1.323566	0.241387	0.837826
H412	H	0.656896	-0.480729	0.226448
H413	H	0.990230	-0.147396	0.559782
H414	H	1.323563	0.185937	0.893115
H415	H	0.758013	-0.390915	0.205596
H416	H	1.091346	-0.057582	0.538929
H417	H	1.424679	0.275751	0.872263
H418	H	0.758025	-0.446372	0.260887
H419	H	1.091358	-0.113039	0.594221
H420	H	1.424691	0.220294	0.927554
H421	H	1.056827	-1.067751	0.247691
H422	H	1.390161	-0.734417	0.581025
H423	H	1.723494	-0.401084	0.914358
H424	H	1.056734	-0.247532	0.584466
H425	H	1.390067	0.085802	0.917800
H426	H	1.723400	0.419135	1.251133
H427	H	0.899615	-0.404501	0.940170
H428	H	1.232948	-0.071167	1.273504
H429	H	1.566281	0.262166	1.606837
C430	C	0.925396	-0.888785	0.460406
C431	C	1.258729	-0.555451	0.793739
C432	C	1.592062	-0.222118	1.127072
C433	C	0.887257	-0.929483	0.416912
C434	C	1.220590	-0.596150	0.750245
C435	C	1.553924	-0.262816	1.083579
H436	H	0.895995	-0.864811	0.489755
H437	H	1.229328	-0.531478	0.823088
H438	H	1.562662	-0.198144	1.156421
H439	H	0.951172	-0.857616	0.434645
H440	H	1.284506	-0.524283	0.767978
H441	H	1.617839	-0.190950	1.101311
H442	H	0.954878	-0.916329	0.486323
H443	H	1.288211	-0.582996	0.819656
H444	H	1.621544	-0.249662	1.152989
H445	H	0.857778	-0.901938	0.390991
H446	H	1.191112	-0.568605	0.724324
H447	H	1.524445	-0.235271	1.057658
H448	H	0.861469	-0.960655	0.442676
H449	H	1.194802	-0.627321	0.776009
H450	H	1.528135	-0.293988	1.109342
H451	H	1.056778	-0.247450	0.940227
H452	H	1.390112	0.085883	1.273560
H453	H	1.723445	0.419217	1.606893
C454	C	1.054558	-0.946588	0.168305
C455	C	1.387891	-0.613254	0.501639
C456	C	1.721225	-0.279921	0.834972
C457	C	1.069111	-0.929443	0.235347
C458	C	1.402445	-0.596109	0.568681
C459	C	1.735778	-0.262776	0.902014
H460	H	1.083950	-0.922603	0.138957
H461	H	1.417284	-0.589270	0.472290
H462	H	1.750617	-0.255936	0.805624
H463	H	1.009090	-0.935043	0.158355
H464	H	1.342424	-0.601710	0.491688
H465	H	1.675757	-0.268376	0.825021
H466	H	1.060775	-0.993745	0.162136
H467	H	1.394108	-0.660412	0.495469
H468	H	1.727442	-0.327078	0.828803
H469	H	1.062889	-0.882286	0.241518
H470	H	1.396223	-0.548952	0.574851
H471	H	1.729556	-0.215619	0.908185
H472	H	1.114590	-0.940983	0.245301
H473	H	1.447923	-0.607649	0.578635
H474	H	1.781257	-0.274316	0.911968
C475	C	1.107012	-0.676105	0.197346
C476	C	1.440345	-0.342771	0.530680
C477	C	1.773679	-0.009438	0.864013
C478	C	1.069016	-0.722064	0.235315
C479	C	1.402349	-0.388730	0.568648
C480	C	1.735683	-0.055397	0.901982
H481	H	1.136408	-0.700083	0.167997
H482	H	1.469742	-0.366749	0.501330
H483	H	1.803075	-0.033416	0.834663
H484	H	1.132875	-0.648496	0.226855
H485	H	1.466208	-0.315163	0.560188
H486	H	1.799542	0.018170	0.893521
H487	H	1.077519	-0.648573	0.171429
H488	H	1.410852	-0.315239	0.504762
H489	H	1.744185	0.018094	0.838095
H490	H	1.098509	-0.749592	0.261237
H491	H	1.431843	-0.416259	0.594570
H492	H	1.765176	-0.082926	0.927903
H493	H	1.043151	-0.749683	0.205803
H494	H	1.376484	-0.416350	0.539136
H495	H	1.709818	-0.083017	0.872470
C496	C	1.107108	-0.197198	0.676845
C497	C	1.440442	0.136136	1.010178
C498	C	1.773775	0.469469	1.343511
C499	C	1.069093	-0.235169	0.722781
C500	C	1.402426	0.098165	1.056114
C501	C	1.735760	0.431498	1.389447
H502	H	1.136511	-0.167827	0.700841
H503	H	1.469844	0.165506	1.034174
H504	H	1.803178	0.498840	1.367508
H505	H	1.077633	-0.171308	0.649277
H506	H	1.410966	0.162025	0.982610
H507	H	1.744300	0.495359	1.315944
H508	H	1.132972	-0.226708	0.649270
H509	H	1.466305	0.106625	0.982604
H510	H	1.799639	0.439958	1.315937
H511	H	1.043225	-0.205658	0.750352
H512	H	1.376559	0.127675	1.083685
H513	H	1.709892	0.461009	1.417018
H514	H	1.098572	-0.261060	0.750360
H515	H	1.431906	0.072273	1.083693
H516	H	1.765239	0.405607	1.417027
C517	C	1.059999	-0.244193	1.148047
C518	C	1.393332	0.089141	1.481381
C519	C	1.726666	0.422474	1.814714
C520	C	1.069137	-0.235077	1.078542
C521	C	1.402470	0.098256	1.411876
C522	C	1.735803	0.431590	1.745209
H523	H	1.089392	-0.214810	1.172040
H524	H	1.422726	0.118523	1.505373
H525	H	1.756059	0.451857	1.838706
H526	H	1.069881	-0.289662	1.159622
H527	H	1.403214	0.043671	1.492955
H528	H	1.736548	0.377005	1.826288
H529	H	1.014527	-0.234276	1.159618
H530	H	1.347861	0.099057	1.492952
H531	H	1.681194	0.432390	1.826285
H532	H	1.114607	-0.244998	1.066970
H533	H	1.447941	0.088335	1.400304
H534	H	1.781274	0.421668	1.733637
H535	H	1.059259	-0.189597	1.066963
H536	H	1.392593	0.143736	1.400296
H537	H	1.725926	0.477069	1.733630
