data_functionalizedCrystal
_audit_creation_method	'MofGen! by Chris Wilmer'
_symmetry_space_group_name_H-M	'P1'
_symmetry_Int_Tables_number	1
_symmetry_cell_setting	triclinic
loop_
_symmetry_equiv_pos_as_xyz
  x,y,z
_cell_length_a	16.625548
_cell_length_b	12.645330
_cell_length_c	12.645323
_cell_angle_alpha	90.028979
_cell_angle_beta	90.021582
_cell_angle_gamma	90.013714
loop_
_atom_site_label
_atom_site_type_symbol
_atom_site_fract_x
_atom_site_fract_y
_atom_site_fract_z
Zn1	Zn	1.232744	-0.421980	0.599425
Zn2	Zn	1.732744	0.078020	1.099425
Zn3	Zn	1.232668	-0.599274	0.422158
Zn4	Zn	1.732668	-0.099274	0.922158
Zn5	Zn	1.097903	-0.422028	0.422170
Zn6	Zn	1.597903	0.077972	0.922170
Zn7	Zn	1.097899	-0.599205	0.599374
Zn8	Zn	1.597899	-0.099205	1.099374
O9	O	1.165303	-0.510622	0.510782
O10	O	1.665303	-0.010622	1.010782
O11	O	1.345566	-0.445507	0.575926
O12	O	1.845566	0.054493	1.075926
O13	O	1.214761	-0.575811	0.273812
O14	O	1.714761	-0.075811	0.773812
O15	O	1.115823	-0.273675	0.445709
O16	O	1.615823	0.226325	0.945709
O17	O	1.345510	-0.575764	0.445689
O18	O	1.845510	-0.075764	0.945689
O19	O	1.214890	-0.273639	0.575937
O20	O	1.714890	0.226361	1.075937
O21	O	1.115750	-0.445590	0.273821
O22	O	1.615750	0.054410	0.773821
O23	O	0.985070	-0.445523	0.445660
O24	O	1.485070	0.054477	0.945660
O25	O	1.115816	-0.575647	0.747728
O26	O	1.615816	-0.075647	1.247728
O27	O	0.985067	-0.575694	0.575851
O28	O	1.485067	-0.075694	1.075851
O29	O	1.214886	-0.445440	0.747765
O30	O	1.714886	0.054560	1.247765
O31	O	1.214757	-0.747612	0.445640
O32	O	1.714757	-0.247612	0.945640
O33	O	1.115743	-0.747562	0.575840
O34	O	1.615743	-0.247562	1.075840
C35	C	0.955812	-0.510607	0.510752
C36	C	1.455812	-0.010607	1.010752
C37	C	0.866191	-0.510626	0.510764
C38	C	1.366191	-0.010626	1.010764
C39	C	0.538016	-0.510633	0.510810
C40	C	1.038016	-0.010633	1.010810
C41	C	0.629324	-0.510628	0.510794
C42	C	1.129324	-0.010628	1.010794
C43	C	0.702101	-0.510630	0.510786
C44	C	1.202101	-0.010630	1.010786
C45	C	0.793415	-0.510624	0.510772
C46	C	1.293415	-0.010624	1.010772
C47	C	1.165263	-0.786052	0.510757
C48	C	1.665263	-0.286052	1.010757
C49	C	1.165319	-0.903882	0.510781
C50	C	1.665319	-0.403882	1.010781
C51	C	1.227509	-1.071433	0.428706
C52	C	1.727509	-0.571433	0.928706
C53	C	1.227712	-0.948873	0.428907
C54	C	1.727712	-0.448873	0.928907
C55	C	1.188364	-0.948259	0.622526
C56	C	1.688364	-0.448259	1.122526
C57	C	1.188858	-1.070858	0.622091
C58	C	1.688858	-0.570858	1.122091
C59	C	1.080060	-1.071212	0.482213
C60	C	1.580060	-0.571212	0.982213
C61	C	1.080469	-0.948608	0.479707
C62	C	1.580469	-0.448608	0.979707
C63	C	1.375612	-0.510638	0.510812
C64	C	1.875612	-0.010638	1.010812
C65	C	1.465233	-0.510645	0.510825
C66	C	1.965233	-0.010645	1.010825
C67	C	1.165359	-0.510530	0.787287
C68	C	1.665359	-0.010530	1.287287
C69	C	1.165383	-0.510492	0.905117
C70	C	1.665383	-0.010492	1.405117
C71	C	1.165366	-0.234117	0.510830
C72	C	1.665366	0.265883	1.010830
C73	C	1.165392	-0.116287	0.510851
C74	C	1.665392	0.383713	1.010851
C75	C	1.165294	-0.510637	0.235352
C76	C	1.665294	-0.010637	0.735352
C77	C	1.165426	-0.510377	0.117522
C78	C	1.665426	-0.010377	0.617522
C79	C	1.103062	-0.592388	0.949976
C80	C	1.603062	-0.092388	1.449976
C81	C	1.102843	-0.592080	1.072536
C82	C	1.602843	-0.092080	1.572536
C83	C	1.142657	-0.398594	1.073024
C84	C	1.642657	0.101406	1.573024
C85	C	1.142180	-0.399134	0.950425
C86	C	1.642180	0.100866	1.450425
C87	C	1.250639	-0.539377	0.950307
C88	C	1.750639	-0.039377	1.450307
C89	C	1.250207	-0.541775	1.072913
C90	C	1.750207	-0.041775	1.572913
H91	H	1.213271	-1.100989	0.345607
H92	H	1.713271	-0.600989	0.845607
C93	C	1.316279	-0.467060	1.114263
C94	C	1.816279	0.032940	1.614263
H95	H	1.292919	-0.415505	1.159471
H96	H	1.792919	0.084495	1.659471
H97	H	1.355091	-0.506708	1.152556
H98	H	1.855091	-0.006708	1.652556
H99	H	1.341580	-0.432848	1.056262
H100	H	1.841580	0.067152	1.556262
C101	C	1.058006	-0.366125	0.911782
C102	C	1.558006	0.133875	1.411782
H103	H	1.056974	-0.366159	0.836664
H104	H	1.556974	0.133841	1.336664
H105	H	1.019129	-0.414664	0.937732
H106	H	1.519129	0.085336	1.437732
H107	H	1.045991	-0.297173	0.937100
H108	H	1.545991	0.202827	1.437100
C109	C	1.129097	-0.908921	0.707425
C110	C	1.629097	-0.408921	1.207425
H111	H	1.144135	-0.936702	0.774362
H112	H	1.644135	-0.436702	1.274362
H113	H	1.130291	-0.833860	0.710048
H114	H	1.630291	-0.333860	1.210048
H115	H	1.076290	-0.931960	0.690246
H116	H	1.576290	-0.431960	1.190246
C117	C	1.313368	-0.458811	0.911116
C118	C	1.813368	0.041189	1.411116
H119	H	1.364760	-0.476673	0.938689
H120	H	1.864760	0.023327	1.438689
H121	H	1.315226	-0.460042	0.836045
H122	H	1.815226	0.039958	1.336045
H123	H	1.298818	-0.390006	0.934453
H124	H	1.798818	0.109994	1.434453
H125	H	1.250033	-0.917469	0.647188
H126	H	1.750033	-0.417469	1.147188
C127	C	1.202106	-0.313857	1.112391
C128	C	1.702106	0.186143	1.612391
H129	H	1.241432	-0.345975	1.156425
H130	H	1.741432	0.154025	1.656425
H131	H	1.227781	-0.281670	1.053529
H132	H	1.727781	0.218330	1.553529
H133	H	1.173778	-0.261655	1.151530
H134	H	1.673778	0.238345	1.651530
C135	C	1.312434	-1.112928	0.454011
C136	C	1.812434	-0.612928	0.954011
H137	H	1.310201	-1.157465	0.514421
H138	H	1.810201	-0.657465	1.014421
H139	H	1.332271	-1.151964	0.395361
H140	H	1.832271	-0.651964	0.895361
H141	H	1.347223	-1.054945	0.467885
H142	H	1.847223	-0.554945	0.967885
C143	C	1.273119	-1.109378	0.654846
C144	C	1.773119	-0.609378	1.154846
H145	H	1.306727	-1.050101	0.668288
H146	H	1.806727	-0.550101	1.168288
H147	H	1.269027	-1.151173	0.717012
H148	H	1.769027	-0.651173	1.217012
H149	H	1.295595	-1.150610	0.599427
H150	H	1.795595	-0.650610	1.099427
H151	H	1.145597	-1.100524	0.685403
H152	H	1.645597	-0.600524	1.185403
C153	C	1.018204	-0.566835	0.908368
C154	C	1.518204	-0.066835	1.408368
H155	H	1.020590	-0.506471	0.863780
H156	H	1.520590	-0.006471	1.363780
H157	H	0.998233	-0.625453	0.869361
H158	H	1.498233	-0.125453	1.369361
H159	H	0.983440	-0.552793	0.966301
H160	H	1.483440	-0.052793	1.466301
H161	H	1.059104	-1.102225	0.402148
H162	H	1.559104	-0.602225	0.902148
C163	C	1.056987	-0.909435	0.368621
C164	C	1.556987	-0.409435	0.868621
H165	H	1.098711	-0.865998	0.341288
H166	H	1.598711	-0.365998	0.841288
H167	H	1.049166	-0.968399	0.323190
H168	H	1.549166	-0.468399	0.823190
H169	H	1.008601	-0.869714	0.372861
H170	H	1.508601	-0.369714	0.872861
H171	H	1.031691	-0.917993	0.535150
H172	H	1.531691	-0.417993	1.035150
C173	C	1.122013	-0.704745	0.910146
C174	C	1.622013	-0.204745	1.410146
H175	H	1.168099	-0.702720	0.865796
H176	H	1.668099	-0.202720	1.365796
H177	H	1.132211	-0.749693	0.968803
H178	H	1.632211	-0.249693	1.468803
H179	H	1.077420	-0.731133	0.871238
H180	H	1.577420	-0.231133	1.371238
C181	C	1.017562	-1.110244	0.563138
C182	C	1.517562	-0.610244	1.063138
H183	H	1.043299	-1.153817	0.614120
H184	H	1.543299	-0.653817	1.114120
H185	H	0.993778	-1.051198	0.597479
H186	H	1.493778	-0.551198	1.097479
H187	H	0.977068	-1.149775	0.527773
H188	H	1.477068	-0.649775	1.027773
H189	H	1.081043	-0.373698	1.103727
H190	H	1.581043	0.126302	1.603727
C191	C	1.200836	-0.313847	0.910330
C192	C	1.700836	0.186153	1.410330
H193	H	1.224847	-0.279018	0.968972
H194	H	1.724847	0.220982	1.468972
H195	H	1.241514	-0.346082	0.868584
H196	H	1.741514	0.153918	1.368584
H197	H	1.172319	-0.263801	0.868714
H198	H	1.672319	0.236199	1.368714
H199	H	1.271405	-0.619541	0.919388
H200	H	1.771405	-0.119541	1.419388
H201	H	1.117058	-0.674958	1.102623
H202	H	1.617058	-0.174958	1.602623
H203	H	1.290914	-0.919463	0.447849
H204	H	1.790914	-0.419463	0.947849
H205	H	1.039682	-0.572901	1.101863
H206	H	1.539682	-0.072901	1.601863
C207	C	1.273424	-0.652899	1.112216
C208	C	1.773424	-0.152899	1.612216
H209	H	1.324766	-0.671441	1.084965
H210	H	1.824766	-0.171441	1.584965
H211	H	1.275250	-0.653091	1.187300
H212	H	1.775250	-0.153091	1.687300
H213	H	1.234582	-0.702724	1.088620
H214	H	1.734582	-0.202724	1.588620
C215	C	1.208244	-0.908340	0.316975
C216	C	1.708244	-0.408340	0.816975
H217	H	1.200143	-0.966802	0.270969
H218	H	1.700143	-0.466802	0.770969
H219	H	1.160824	-0.866505	0.319128
H220	H	1.660824	-0.366505	0.819128
H221	H	1.251773	-0.866722	0.291760
H222	H	1.751773	-0.366722	0.791760
