data_functionalizedCrystal
_audit_creation_method	'MofGen! by Chris Wilmer'
_symmetry_space_group_name_H-M	'P1'
_symmetry_Int_Tables_number	1
_symmetry_cell_setting	triclinic
loop_
_symmetry_equiv_pos_as_xyz
  x,y,z
_cell_length_a	12.759401
_cell_length_b	16.625546
_cell_length_c	16.625539
_cell_angle_alpha	89.971468
_cell_angle_beta	89.984732
_cell_angle_gamma	90.023993
loop_
_atom_site_label
_atom_site_type_symbol
_atom_site_fract_x
_atom_site_fract_y
_atom_site_fract_z
Zn1	Zn	1.606151	-0.320982	-0.455859
Zn2	Zn	1.606036	-0.455821	-0.321021
Zn3	Zn	1.430467	-0.321010	-0.321044
Zn4	Zn	1.430418	-0.455780	-0.455816
O5	O	1.518268	-0.388398	-0.388435
O6	O	1.753157	-0.338875	-0.437982
O7	O	1.582718	-0.437967	-0.208192
O8	O	1.453841	-0.208174	-0.338955
O9	O	1.753072	-0.437940	-0.338917
O10	O	1.582915	-0.208153	-0.438003
O11	O	1.453729	-0.338921	-0.208208
O12	O	1.283439	-0.338882	-0.338913
O13	O	1.453757	-0.437870	-0.568654
O14	O	1.283403	-0.437897	-0.437929
O15	O	1.582867	-0.338835	-0.568686
O16	O	1.582671	-0.568648	-0.338875
O17	O	1.453645	-0.568618	-0.437907
C18	C	1.245300	-0.388388	-0.388419
C19	C	1.128524	-0.388404	-0.388431
C20	C	1.073670	-0.440039	-0.439908
C21	C	0.963946	-0.440042	-0.439924
C22	C	0.963939	-0.336772	-0.336980
C23	C	1.073661	-0.336765	-0.336968
C24	C	1.518168	-0.597889	-0.388401
C25	C	1.518222	-0.687510	-0.388414
C26	C	1.518405	-1.015686	-0.388498
C27	C	1.518351	-0.924377	-0.388477
C28	C	1.518313	-0.851601	-0.388455
C29	C	1.518260	-0.760287	-0.388435
C30	C	1.792301	-0.388409	-0.388452
C31	C	1.909078	-0.388413	-0.388459
C32	C	1.518319	-0.388345	-0.598744
C33	C	1.518341	-0.388322	-0.688365
C34	C	1.518396	-0.178089	-0.388487
C35	C	1.518451	-0.088468	-0.388509
C36	C	1.518358	-0.388305	-0.761148
C37	C	1.518383	-0.388275	-0.852456
C38	C	1.518408	-0.388246	-0.925233
C39	C	1.518434	-0.388217	-1.016547
C40	C	1.518277	-0.388393	-0.178944
C41	C	1.518459	-0.388189	-0.089324
H42	H	1.118323	-0.294712	-0.295050
H43	H	1.118337	-0.482085	-0.481814
H44	H	0.919256	-0.294731	-0.295079
C45	C	0.903609	-0.496846	-0.496546
C46	C	0.828127	-0.560105	-0.461500
C47	C	0.767791	-0.616911	-0.518126
C48	C	0.782936	-0.610458	-0.609799
C49	C	0.858421	-0.547197	-0.644849
C50	C	0.918757	-0.490391	-0.588223
H51	H	0.816913	-0.564884	-0.393635
H52	H	0.711911	-0.663741	-0.492179
H53	H	0.738271	-0.652509	-0.651717
H54	H	0.869635	-0.542418	-0.712715
H55	H	0.974636	-0.443561	-0.614171
