data_functionalizedCrystal
_audit_creation_method	'MofGen! by Chris Wilmer'
_symmetry_space_group_name_H-M	'P1'
_symmetry_Int_Tables_number	1
_symmetry_cell_setting	triclinic
loop_
_symmetry_equiv_pos_as_xyz
  x,y,z
_cell_length_a	19.805407
_cell_length_b	12.594516
_cell_length_c	12.594510
_cell_angle_alpha	89.967330
_cell_angle_beta	90.021753
_cell_angle_gamma	89.973268
loop_
_atom_site_label
_atom_site_type_symbol
_atom_site_fract_x
_atom_site_fract_y
_atom_site_fract_z
Zn1	Zn	1.034749	0.423646	0.601890
Zn2	Zn	1.368082	0.756979	0.935224
Zn3	Zn	1.701415	1.090312	1.268557
Zn4	Zn	1.034659	0.601675	0.423917
Zn5	Zn	1.367992	0.935008	0.757250
Zn6	Zn	1.701325	1.268342	1.090584
Zn7	Zn	0.921559	0.423711	0.423917
Zn8	Zn	1.254892	0.757044	0.757251
Zn9	Zn	1.588226	1.090378	1.090584
Zn10	Zn	0.921526	0.601583	0.601845
Zn11	Zn	1.254860	0.934916	0.935179
Zn12	Zn	1.588193	1.268249	1.268512
O13	O	0.978123	0.512654	0.512893
O14	O	1.311457	0.845987	0.846226
O15	O	1.644790	1.179320	1.179559
O16	O	1.129453	0.447273	0.578301
O17	O	1.462787	0.780606	0.911634
O18	O	1.796120	1.113940	1.244967
O19	O	1.019632	0.578134	0.274971
O20	O	1.352965	0.911467	0.608305
O21	O	1.686298	1.244800	0.941638
O22	O	0.936625	0.274756	0.447545
O23	O	1.269959	0.608090	0.780878
O24	O	1.603292	0.941423	1.114212
O25	O	1.129387	0.578070	0.447545
O26	O	1.462721	0.911404	0.780878
O27	O	1.796054	1.244737	1.114211
O28	O	1.019785	0.274709	0.578301
O29	O	1.353119	0.608042	0.911634
O30	O	1.686452	0.941375	1.244968
O31	O	0.936538	0.447384	0.274971
O32	O	1.269871	0.780717	0.608305
O33	O	1.603205	1.114051	0.941638
O34	O	0.826838	0.447295	0.447501
O35	O	1.160172	0.780628	0.780834
O36	O	1.493505	1.113961	1.114168
O37	O	0.936569	0.577913	0.750797
O38	O	1.269903	0.911246	1.084130
O39	O	1.603236	1.244580	1.417464
O40	O	0.826814	0.577976	0.578224
O41	O	1.160147	0.911310	0.911557
O42	O	1.493481	1.244643	1.244890
O43	O	1.019754	0.447184	0.750830
O44	O	1.353087	0.780517	1.084164
O45	O	1.686420	1.113850	1.417497
O46	O	1.019600	0.750609	0.447501
O47	O	1.352933	1.083942	0.780834
O48	O	1.686267	1.417275	1.114167
O49	O	0.936482	0.750541	0.578224
O50	O	1.269815	1.083874	0.911557
O51	O	1.603149	1.417207	1.244890
C52	C	0.802267	0.512633	0.512858
C53	C	1.135601	0.845967	0.846191
C54	C	1.468934	1.179300	1.179525
C55	C	0.727035	0.512650	0.512869
C56	C	1.060369	0.845983	0.846202
C57	C	1.393702	1.179317	1.179535
C58	C	0.691696	0.580799	0.580826
C59	C	1.025030	0.914132	0.914159
C60	C	1.358363	1.247465	1.247493
C61	C	0.621008	0.580800	0.580841
C62	C	0.954341	0.914134	0.914174
C63	C	1.287674	1.247467	1.247508
C64	C	0.585660	0.512658	0.512893
C65	C	0.918993	0.845992	0.846226
C66	C	1.252326	1.179325	1.179559
C67	C	0.621004	0.444503	0.444932
C68	C	0.954337	0.777836	0.778266
C69	C	1.287670	1.111169	1.111599
C70	C	0.691691	0.444496	0.444923
C71	C	1.025024	0.777829	0.778257
C72	C	1.358357	1.111163	1.111590
C73	C	0.335930	0.444526	0.444967
C74	C	0.669264	0.777859	0.778301
C75	C	1.002597	1.111193	1.111634
C76	C	0.265238	0.444540	0.444979
C77	C	0.598572	0.777873	0.778313
C78	C	0.931905	1.111207	1.111646
C79	C	0.265247	0.580830	0.580885
C80	C	0.598581	0.914164	0.914218
C81	C	0.931914	1.247497	1.247552
C82	C	0.335934	0.580824	0.580876
C83	C	0.669268	0.914157	0.914209
C84	C	1.002601	1.247491	1.247543
C85	C	0.371272	0.512665	0.512920
C86	C	0.704606	0.845998	0.846254
C87	C	1.037939	1.179331	1.179587
C88	C	0.447921	0.512662	0.512906
C89	C	0.781254	0.845995	0.846240
C90	C	1.114587	1.179329	1.179573
C91	C	0.509012	0.512666	0.512900
C92	C	0.842346	0.845999	0.846234
C93	C	1.175679	1.179332	1.179567
C94	C	0.978046	0.789195	0.512880
C95	C	1.311379	1.122528	0.846214
C96	C	1.644713	1.455861	1.179547
C97	C	0.978075	0.907500	0.512911
C98	C	1.311408	1.240833	0.846244
C99	C	1.644742	1.574167	1.179577
C100	C	0.932855	0.976755	0.583961
C101	C	1.266188	1.310088	0.917294
C102	C	1.599521	1.643422	1.250627
C103	C	0.916355	1.047631	0.486837
C104	C	1.249688	1.380964	0.820170
C105	C	1.583022	1.714297	1.153503
C106	C	0.994611	1.047423	0.610050
C107	C	1.327945	1.380757	0.943383
C108	C	1.661278	1.714090	1.276717
C109	C	0.961543	0.976818	0.415735
C110	C	1.294876	1.310151	0.749069
C111	C	1.628210	1.643484	1.082402
C112	C	1.039828	0.976604	0.539014
C113	C	1.373161	1.309937	0.872348
C114	C	1.706495	1.643271	1.205681
C115	C	1.023352	1.047448	0.441823
C116	C	1.356685	1.380781	0.775157
C117	C	1.690018	1.714114	1.108490
C118	C	1.154666	0.512675	0.512928
C119	C	1.487999	0.846008	0.846261
C120	C	1.821333	1.179341	1.179594
C121	C	1.229898	0.512684	0.512943
C122	C	1.563231	0.846017	0.846276
C123	C	1.896565	1.179350	1.179609
C124	C	0.978168	0.512531	0.790514
C125	C	1.311501	0.845864	1.123847
C126	C	1.644835	1.179197	1.457180
C127	C	0.978187	0.512478	0.908819
C128	C	1.311520	0.845812	1.242152
C129	C	1.644854	1.179145	1.575486
C130	C	0.978189	1.235033	0.512926
C131	C	1.311523	1.568366	0.846260
C132	C	1.644856	1.901699	1.179593
C133	C	0.978141	1.116727	0.512937
C134	C	1.311475	1.450061	0.846270
C135	C	1.644808	1.783394	1.179604
C136	C	0.978118	0.512699	0.236352
C137	C	1.311451	0.846032	0.569685
C138	C	1.644784	1.179366	0.903018
C139	C	0.978230	0.512452	0.118047
C140	C	1.311563	0.845785	0.451380
C141	C	1.644896	1.179118	0.784713
C142	C	1.023444	0.441369	0.978090
C143	C	1.356778	0.774703	1.311424
C144	C	1.690111	1.108036	1.644757
C145	C	0.961715	0.415317	1.048879
C146	C	1.295049	0.748650	1.382213
C147	C	1.628382	1.081983	1.715546
C148	C	1.039952	0.538457	1.048829
C149	C	1.373285	0.871790	1.382163
C150	C	1.706619	1.205123	1.715496
C151	C	0.916425	0.486376	0.978050
C152	C	1.249759	0.819709	1.311383
C153	C	1.583092	1.153042	1.644717
C154	C	0.994703	0.609561	0.977993
C155	C	1.328037	0.942894	1.311327
C156	C	1.661370	1.276227	1.644660
C157	C	0.932932	0.583545	1.048751
C158	C	1.266265	0.916878	1.382084
C159	C	1.599599	1.250212	1.715417
H160	H	0.720472	0.636291	0.636154
H161	H	1.053805	0.969625	0.969487
H162	H	1.387138	1.302958	1.302821
H163	H	0.592238	0.636295	0.636177
H164	H	0.925571	0.969628	0.969511
H165	H	1.258905	1.302961	1.302844
H166	H	1.061649	0.381200	0.947061
H167	H	1.394983	0.714533	1.280394
H168	H	1.728316	1.047866	1.613727
Br169	Br	0.938178	0.925346	0.278790
Br170	Br	1.271511	1.258680	0.612124
Br171	Br	1.604845	1.592013	0.945457
Br172	Br	1.017877	1.099126	0.746950
Br173	Br	1.351211	1.432459	1.080283
Br174	Br	1.684544	1.765792	1.413617
H175	H	0.894633	0.643668	1.079581
H176	H	1.227967	0.977002	1.412914
H177	H	1.561300	1.310335	1.746247
Br178	Br	1.017994	0.746382	0.926055
Br179	Br	1.351327	1.079716	1.259388
Br180	Br	1.684661	1.413049	1.592722
H181	H	0.947760	0.333205	1.080017
H182	H	1.281093	0.666538	1.413350
H183	H	1.614427	0.999872	1.746683
Br184	Br	1.087141	1.098858	0.341589
Br185	Br	1.420475	1.432191	0.674922
Br186	Br	1.753808	1.765525	1.008255
H187	H	0.236467	0.636325	0.636222
H188	H	0.569800	0.969658	0.969555
H189	H	0.903133	1.302992	1.302888
H190	H	0.864194	0.464297	0.947090
H191	H	1.197528	0.797630	1.280423
H192	H	1.530861	1.130963	1.613757
Br193	Br	1.126799	0.924567	0.575853
Br194	Br	1.460132	1.257900	0.909186
Br195	Br	1.793466	1.591233	1.242519
H196	H	1.092168	0.560438	1.079923
H197	H	1.425501	0.893772	1.413257
H198	H	1.758834	1.227105	1.746590
Br199	Br	0.383904	0.673312	0.673088
Br200	Br	0.717237	1.006645	1.006422
Br201	Br	1.050570	1.339978	1.339755
H202	H	0.236460	0.389044	0.389647
H203	H	0.569793	0.722377	0.722981
H204	H	0.903126	1.055711	1.056314
H205	H	0.364694	0.389035	0.389626
H206	H	0.698027	0.722368	0.722959
H207	H	1.031360	1.055701	1.056292
Br208	Br	0.573032	0.352013	0.352725
Br209	Br	0.906365	0.685346	0.686059
Br210	Br	1.239699	1.018679	1.019392
Br211	Br	0.829362	1.099625	0.450040
Br212	Br	1.162695	1.432958	0.783373
Br213	Br	1.496028	1.766291	1.116706
Br214	Br	0.739652	0.352000	0.352698
Br215	Br	1.072985	0.685333	0.686031
Br216	Br	1.406319	1.018666	1.019365
Br217	Br	0.869025	0.925015	0.683965
Br218	Br	1.202358	1.258348	1.017298
Br219	Br	1.535692	1.591682	1.350631
