data_functionalizedCrystal
_audit_creation_method	'MofGen! by Chris Wilmer'
_symmetry_space_group_name_H-M	'P1'
_symmetry_Int_Tables_number	1
_symmetry_cell_setting	triclinic
loop_
_symmetry_equiv_pos_as_xyz
  x,y,z
_cell_length_a	21.395362
_cell_length_b	18.215405
_cell_length_c	21.395355
_cell_angle_alpha	89.980149
_cell_angle_beta	89.956060
_cell_angle_gamma	90.040762
loop_
_atom_site_label
_atom_site_type_symbol
_atom_site_fract_x
_atom_site_fract_y
_atom_site_fract_z
Zn1	Zn	0.957885	-0.292758	-0.354580
Zn2	Zn	1.207885	-0.042758	-0.104580
Zn3	Zn	1.457885	0.207242	0.145420
Zn4	Zn	1.707885	0.457242	0.395420
Zn5	Zn	0.957798	-0.415806	-0.249800
Zn6	Zn	1.207798	-0.165806	0.000200
Zn7	Zn	1.457798	0.084194	0.250200
Zn8	Zn	1.707798	0.334194	0.500200
Zn9	Zn	0.853100	-0.292792	-0.249781
Zn10	Zn	1.103100	-0.042792	0.000219
Zn11	Zn	1.353100	0.207208	0.250219
Zn12	Zn	1.603100	0.457208	0.500219
Zn13	Zn	0.853080	-0.415821	-0.354505
Zn14	Zn	1.103080	-0.165821	-0.104505
Zn15	Zn	1.353080	0.084179	0.145495
Zn16	Zn	1.603080	0.334179	0.395495
O17	O	0.905466	-0.354294	-0.302166
O18	O	1.155466	-0.104294	-0.052166
O19	O	1.405466	0.145706	0.197834
O20	O	1.655466	0.395706	0.447834
O21	O	1.045551	-0.309060	-0.340720
O22	O	1.295551	-0.059060	-0.090720
O23	O	1.545551	0.190940	0.159280
O24	O	1.795551	0.440940	0.409280
O25	O	0.943882	-0.399496	-0.162119
O26	O	1.193882	-0.149496	0.087881
O27	O	1.443882	0.100504	0.337881
O28	O	1.693882	0.350504	0.587881
O29	O	0.867045	-0.189803	-0.263706
O30	O	1.117045	0.060197	-0.013706
O31	O	1.367045	0.310197	0.236294
O32	O	1.617045	0.560197	0.486294
O33	O	1.045487	-0.399463	-0.263739
O34	O	1.295487	-0.149463	-0.013739
O35	O	1.545487	0.100537	0.236261
O36	O	1.795487	0.350537	0.486261
O37	O	0.944030	-0.189778	-0.340702
O38	O	1.194030	0.060222	-0.090702
O39	O	1.444030	0.310222	0.159298
O40	O	1.694030	0.560222	0.409298
O41	O	0.866960	-0.309118	-0.162106
O42	O	1.116960	-0.059118	0.087894
O43	O	1.366960	0.190882	0.337894
O44	O	1.616960	0.440882	0.587894
O45	O	0.765419	-0.309133	-0.263634
O46	O	1.015419	-0.059133	-0.013634
O47	O	1.265419	0.190867	0.236366
O48	O	1.515419	0.440867	0.486366
O49	O	0.867010	-0.399488	-0.442193
O50	O	1.117010	-0.149488	-0.192193
O51	O	1.367010	0.100512	0.057807
O52	O	1.617010	0.350512	0.307807
O53	O	0.765404	-0.399522	-0.340573
O54	O	1.015404	-0.149522	-0.090573
O55	O	1.265404	0.100478	0.159427
O56	O	1.515404	0.350478	0.409427
O57	O	0.944010	-0.309074	-0.442248
O58	O	1.194010	-0.059074	-0.192248
O59	O	1.444010	0.190926	0.057752
O60	O	1.694010	0.440926	0.307752
O61	O	0.943862	-0.518792	-0.263666
O62	O	1.193862	-0.268792	-0.013666
O63	O	1.443862	-0.018792	0.236334
O64	O	1.693862	0.231208	0.486334
O65	O	0.866926	-0.518803	-0.340592
O66	O	1.116926	-0.268803	-0.090592
O67	O	1.366926	-0.018803	0.159408
O68	O	1.616926	0.231197	0.409408
C69	C	0.742678	-0.354333	-0.302094
C70	C	0.992678	-0.104333	-0.052094
C71	C	1.242678	0.145667	0.197906
C72	C	1.492678	0.395667	0.447906
C73	C	0.673037	-0.354367	-0.302077
C74	C	0.923037	-0.104367	-0.052077
C75	C	1.173037	0.145633	0.197923
C76	C	1.423037	0.395633	0.447923
C77	C	0.640332	-0.401495	-0.342080
C78	C	0.890332	-0.151495	-0.092080
C79	C	1.140332	0.098505	0.157920
C80	C	1.390332	0.348505	0.407920
C81	C	0.574897	-0.401477	-0.342108
C82	C	0.824897	-0.151477	-0.092108
C83	C	1.074897	0.098523	0.157892
C84	C	1.324897	0.348523	0.407892
C85	C	0.542168	-0.354339	-0.302122
C86	C	0.792168	-0.104339	-0.052122
C87	C	1.042168	0.145661	0.197878
C88	C	1.292168	0.395661	0.447878
C89	C	0.574881	-0.307202	-0.262117
C90	C	0.824881	-0.057202	-0.012117
C91	C	1.074881	0.192798	0.237883
C92	C	1.324881	0.442798	0.487883
C93	C	0.640315	-0.307216	-0.262094
C94	C	0.890315	-0.057216	-0.012094
C95	C	1.140315	0.192784	0.237906
C96	C	1.390315	0.442784	0.487906
C97	C	0.438443	-0.348410	-0.245717
C98	C	0.688443	-0.098410	0.004283
C99	C	0.938443	0.151590	0.254283
C100	C	1.188443	0.401590	0.504283
C101	C	0.373010	-0.348401	-0.245738
C102	C	0.623010	-0.098401	0.004262
C103	C	0.873010	0.151599	0.254262
C104	C	1.123010	0.401599	0.504262
C105	C	0.340348	-0.354291	-0.302191
C106	C	0.590348	-0.104291	-0.052191
C107	C	0.840348	0.145709	0.197809
C108	C	1.090348	0.395709	0.447809
C109	C	0.373126	-0.360205	-0.358625
C110	C	0.623126	-0.110205	-0.108625
C111	C	0.873126	0.139795	0.141375
C112	C	1.123126	0.389795	0.391375
C113	C	0.438560	-0.360219	-0.358602
C114	C	0.688560	-0.110219	-0.108602
C115	C	0.938560	0.139781	0.141398
C116	C	1.188560	0.389781	0.391398
C117	C	0.471216	-0.354318	-0.302142
C118	C	0.721216	-0.104318	-0.052142
C119	C	0.971216	0.145682	0.197858
C120	C	1.221216	0.395682	0.447858
C121	C	0.236691	-0.401402	-0.342228
C122	C	0.486691	-0.151402	-0.092228
C123	C	0.736691	0.098598	0.157772
C124	C	0.986691	0.348598	0.407772
C125	C	0.171254	-0.401379	-0.342256
C126	C	0.421254	-0.151379	-0.092256
C127	C	0.671254	0.098621	0.157744
C128	C	0.921254	0.348621	0.407744
C129	C	0.171239	-0.307107	-0.262260
C130	C	0.421239	-0.057107	-0.012260
C131	C	0.671239	0.192893	0.237740
C132	C	0.921239	0.442893	0.487740
C133	C	0.236675	-0.307127	-0.262236
C134	C	0.486675	-0.057127	-0.012236
C135	C	0.736675	0.192873	0.237764
C136	C	0.986675	0.442873	0.487764
C137	C	0.269396	-0.354278	-0.302219
C138	C	0.519396	-0.104278	-0.052219
C139	C	0.769396	0.145722	0.197781
C140	C	1.019396	0.395722	0.447781
C141	C	0.905399	-0.545500	-0.302136
C142	C	1.155399	-0.295500	-0.052136
C143	C	1.405399	-0.045500	0.197864
C144	C	1.655399	0.204500	0.447864
C145	C	0.905428	-0.627299	-0.302144
C146	C	1.155428	-0.377299	-0.052144
C147	C	1.405428	-0.127299	0.197856
C148	C	1.655428	0.122701	0.447856
C149	C	0.945583	-0.815463	-0.262163
C150	C	1.195583	-0.565463	-0.012163
C151	C	1.445583	-0.315463	0.237837
C152	C	1.695583	-0.065463	0.487837
C153	C	0.945611	-0.892322	-0.262178
C154	C	1.195611	-0.642322	-0.012178
C155	C	1.445611	-0.392322	0.237822
C156	C	1.695611	-0.142322	0.487822
C157	C	0.865428	-0.892373	-0.342215
C158	C	1.115428	-0.642373	-0.092215
C159	C	1.365428	-0.392373	0.157785
C160	C	1.615428	-0.142373	0.407785
C161	C	0.865404	-0.815516	-0.342203
C162	C	1.115404	-0.565516	-0.092203
C163	C	1.365404	-0.315516	0.157797
C164	C	1.615404	-0.065516	0.407797
C165	C	0.905480	-0.777063	-0.302173
C166	C	1.155480	-0.527063	-0.052173
C167	C	1.405480	-0.277063	0.197827
C168	C	1.655480	-0.027063	0.447827
C169	C	0.905533	-0.930779	-0.302200
C170	C	1.155533	-0.680779	-0.052200
C171	C	1.405533	-0.430779	0.197800
C172	C	1.655533	-0.180779	0.447800
C173	C	0.905563	-1.014112	-0.302217
C174	C	1.155563	-0.764112	-0.052217
C175	C	1.405563	-0.514112	0.197783
C176	C	1.655563	-0.264112	0.447783
C177	C	0.905451	-0.693724	-0.302157
C178	C	1.155451	-0.443724	-0.052157
C179	C	1.405451	-0.193724	0.197843
C180	C	1.655451	0.056276	0.447843
C181	C	1.068889	-0.354256	-0.302240
C182	C	1.318889	-0.104256	-0.052240
C183	C	1.568889	0.145744	0.197760
C184	C	1.818889	0.395744	0.447760
C185	C	1.138530	-0.354239	-0.302271
C186	C	1.388530	-0.104239	-0.052271
C187	C	1.638530	0.145761	0.197729
C188	C	1.888530	0.395761	0.447729
C189	C	0.905518	-0.354279	-0.465590
C190	C	1.155518	-0.104279	-0.215590
C191	C	1.405518	0.145721	0.034410
C192	C	1.655518	0.395721	0.284410
C193	C	0.905540	-0.354273	-0.535231
C194	C	1.155540	-0.104273	-0.285231
C195	C	1.405540	0.145727	-0.035231
C196	C	1.655540	0.395727	0.214769
C197	C	0.905549	-0.162341	-0.302210
C198	C	1.155549	0.087659	-0.052210
C199	C	1.405549	0.337659	0.197790
C200	C	1.655549	0.587659	0.447790
C201	C	0.905585	-0.080542	-0.302229
C202	C	1.155585	0.169458	-0.052229
C203	C	1.405585	0.419458	0.197771
C204	C	1.655585	0.669458	0.447771
C205	C	0.945632	-0.307192	-0.567974
C206	C	1.195632	-0.057192	-0.317974
C207	C	1.445632	0.192808	-0.067974
C208	C	1.695632	0.442808	0.182026
C209	C	0.945631	-0.307161	-0.633409
C210	C	1.195631	-0.057161	-0.383409
C211	C	1.445631	0.192839	-0.133409
C212	C	1.695631	0.442839	0.116591
C213	C	0.905545	-0.354223	-0.666099
C214	C	1.155545	-0.104223	-0.416099
C215	C	1.405545	0.145777	-0.166099
C216	C	1.655545	0.395777	0.083901
C217	C	0.865445	-0.401307	-0.633349
C218	C	1.115445	-0.151307	-0.383349
C219	C	1.365445	0.098693	-0.133349
C220	C	1.615445	0.348693	0.116651
C221	C	0.865442	-0.401332	-0.567914
C222	C	1.115442	-0.151332	-0.317914
C223	C	1.365442	0.098668	-0.067914
C224	C	1.615442	0.348668	0.182086
C225	C	0.900574	-0.420488	-0.769762
C226	C	1.150574	-0.170488	-0.519762
C227	C	1.400574	0.079512	-0.269762
C228	C	1.650574	0.329512	-0.019762
C229	C	0.900581	-0.420465	-0.835195
C230	C	1.150581	-0.170465	-0.585195
C231	C	1.400581	0.079535	-0.335195
C232	C	1.650581	0.329535	-0.085195
C233	C	0.905548	-0.354145	-0.867920
C234	C	1.155548	-0.104145	-0.617920
C235	C	1.405548	0.145855	-0.367920
C236	C	1.655548	0.395855	-0.117920
C237	C	0.910522	-0.287847	-0.835205
C238	C	1.160522	-0.037847	-0.585205
C239	C	1.410522	0.212153	-0.335205
C240	C	1.660522	0.462153	-0.085205
C241	C	0.910520	-0.287872	-0.769770
C242	C	1.160520	-0.037872	-0.519770
C243	C	1.410520	0.212128	-0.269770
C244	C	1.660520	0.462128	-0.019770
C245	C	0.905542	-0.354200	-0.737052
C246	C	1.155542	-0.104200	-0.487052
C247	C	1.405542	0.145800	-0.237052
C248	C	1.655542	0.395800	0.012948
C249	C	0.945642	-0.307026	-0.971616
C250	C	1.195642	-0.057026	-0.721616
C251	C	1.445642	0.192974	-0.471616
C252	C	1.695642	0.442974	-0.221616
C253	C	0.945637	-0.306993	-1.037052
C254	C	1.195637	-0.056993	-0.787052
C255	C	1.445637	0.193007	-0.537052
C256	C	1.695637	0.443007	-0.287052
C257	C	0.865454	-0.401146	-1.036990
C258	C	1.115454	-0.151146	-0.786990
C259	C	1.365454	0.098854	-0.536990
C260	C	1.615454	0.348854	-0.286990
C261	C	0.865455	-0.401172	-0.971555
C262	C	1.115455	-0.151172	-0.721555
C263	C	1.365455	0.098828	-0.471555
C264	C	1.615455	0.348828	-0.221555
C265	C	0.905553	-0.354113	-0.938872
C266	C	1.155553	-0.104113	-0.688872
C267	C	1.405553	0.145887	-0.438872
C268	C	1.655553	0.395887	-0.188872
C269	C	0.905450	-0.354256	-0.139379
C270	C	1.155450	-0.104256	0.110621
C271	C	1.405450	0.145744	0.360621
C272	C	1.655450	0.395744	0.610621
C273	C	0.905549	-0.354055	-0.069738
C274	C	1.155549	-0.104055	0.180262
C275	C	1.405549	0.145945	0.430262
C276	C	1.655549	0.395945	0.680262
H277	H	0.263334	-0.439792	-0.374787
H278	H	0.513334	-0.189792	-0.124787
H279	H	0.763334	0.060208	0.125213
H280	H	1.013334	0.310208	0.375213
H281	H	0.832747	-0.784248	-0.374787
H282	H	1.082747	-0.534248	-0.124787
H283	H	1.332747	-0.284248	0.125213
H284	H	1.582747	-0.034248	0.375213
H285	H	0.832812	-0.439515	-0.944895
H286	H	1.082812	-0.189515	-0.694895
H287	H	1.332812	0.060485	-0.444895
H288	H	1.582812	0.310485	-0.194895
H289	H	0.978278	-0.268818	-0.660074
H290	H	1.228278	-0.018818	-0.410074
H291	H	1.478278	0.231182	-0.160074
H292	H	1.728278	0.481182	0.089926
H293	H	0.978217	-0.784156	-0.229569
H294	H	1.228217	-0.534156	0.020431
H295	H	1.478217	-0.284156	0.270431
H296	H	1.728217	-0.034156	0.520431
H297	H	0.548264	-0.439854	-0.374685
H298	H	0.798264	-0.189854	-0.124685
H299	H	1.048264	0.060146	0.125315
H300	H	1.298264	0.310146	0.375315
F301	F	0.822780	-0.451391	-0.668140
F302	F	1.072780	-0.201391	-0.418140
F303	F	1.322780	0.048609	-0.168140
F304	F	1.572780	0.298609	0.081860
F305	F	0.822777	-0.933304	-0.384814
F306	F	1.072777	-0.683304	-0.134814
F307	F	1.322777	-0.433304	0.115186
F308	F	1.572777	-0.183304	0.365186
H309	H	0.346534	-0.365000	-0.404594
H310	H	0.596534	-0.115000	-0.154594
H311	H	0.846534	0.135000	0.095406
H312	H	1.096534	0.385000	0.345406
F313	F	0.988296	-0.933187	-0.219595
F314	F	1.238296	-0.683187	0.030405
F315	F	1.488296	-0.433187	0.280405
F316	F	1.738296	-0.183187	0.530405
H317	H	0.914568	-0.233843	-0.861848
H318	H	1.164568	0.016157	-0.611848
H319	H	1.414568	0.266157	-0.361848
H320	H	1.664568	0.516157	-0.111848
F321	F	0.540048	-0.257031	-0.219563
F322	F	0.790048	-0.007031	0.030437
F323	F	1.040048	0.242969	0.280437
F324	F	1.290048	0.492969	0.530437
H325	H	0.914568	-0.233890	-0.743136
H326	H	1.164568	0.016110	-0.493136
H327	H	1.414568	0.266110	-0.243136
H328	H	1.664568	0.516110	0.006864
H329	H	0.978288	-0.268704	-0.945003
H330	H	1.228288	-0.018704	-0.695003
H331	H	1.478288	0.231296	-0.445003
H332	H	1.728288	0.481296	-0.195003
H333	H	0.978282	-0.268872	-0.541367
H334	H	1.228282	-0.018872	-0.291367
H335	H	1.478282	0.231128	-0.041367
H336	H	1.728282	0.481128	0.208633
F337	F	0.675122	-0.257054	-0.219516
F338	F	0.925122	-0.007054	0.030484
F339	F	1.175122	0.242946	0.280484
F340	F	1.425122	0.492946	0.530484
H341	H	0.978283	-0.268650	-1.063711
H342	H	1.228283	-0.018650	-0.813711
H343	H	1.478283	0.231350	-0.563711
H344	H	1.728283	0.481350	-0.313711
F345	F	0.822785	-0.451228	-1.071777
F346	F	1.072785	-0.201228	-0.821777
F347	F	1.322785	0.048772	-0.571777
F348	F	1.572785	0.298772	-0.321777
H349	H	0.896362	-0.474480	-0.743122
H350	H	1.146362	-0.224480	-0.493122
H351	H	1.396362	0.025520	-0.243122
H352	H	1.646362	0.275520	0.006878
H353	H	0.666970	-0.439889	-0.374638
H354	H	0.916970	-0.189889	-0.124638
H355	H	1.166970	0.060111	0.125362
H356	H	1.416970	0.310111	0.375362
F357	F	0.895293	-0.491024	-0.870007
F358	F	1.145293	-0.241024	-0.620007
F359	F	1.395293	0.008976	-0.370007
F360	F	1.645293	0.258976	-0.120007
H361	H	0.832791	-0.439669	-0.541255
H362	H	1.082791	-0.189669	-0.291255
H363	H	1.332791	0.060331	-0.041255
H364	H	1.582791	0.310331	0.208745
H365	H	0.465246	-0.365033	-0.404553
H366	H	0.715246	-0.115033	-0.154553
H367	H	0.965246	0.134967	0.095447
H368	H	1.215246	0.384967	0.345447
H369	H	0.144592	-0.268723	-0.229705
H370	H	0.394592	-0.018723	0.020295
H371	H	0.644592	0.231277	0.270295
H372	H	0.894592	0.481277	0.520295
F373	F	0.136448	-0.451538	-0.384839
F374	F	0.386448	-0.201538	-0.134839
F375	F	0.636448	0.048462	0.115161
F376	F	0.886448	0.298462	0.365161
H377	H	0.263303	-0.268754	-0.229659
H378	H	0.513303	-0.018754	0.020341
H379	H	0.763303	0.231246	0.270341
H380	H	1.013303	0.481246	0.520341
H381	H	0.346327	-0.343590	-0.199787
H382	H	0.596327	-0.093590	0.050213
H383	H	0.846327	0.156410	0.300213
H384	H	1.096327	0.406410	0.550213
H385	H	0.465031	-0.343611	-0.199743
H386	H	0.715031	-0.093611	0.050257
H387	H	0.965031	0.156389	0.300257
H388	H	1.215031	0.406389	0.550257
