data_functionalizedCrystal
_audit_creation_method	'MofGen! by Chris Wilmer'
_symmetry_space_group_name_H-M	'P1'
_symmetry_Int_Tables_number	1
_symmetry_cell_setting	triclinic
loop_
_symmetry_equiv_pos_as_xyz
  x,y,z
_cell_length_a	12.645331
_cell_length_b	12.645330
_cell_length_c	12.759387
_cell_angle_alpha	89.970586
_cell_angle_beta	89.981578
_cell_angle_gamma	90.018103
loop_
_atom_site_label
_atom_site_type_symbol
_atom_site_fract_x
_atom_site_fract_y
_atom_site_fract_z
Zn1	Zn	1.620736	-0.421972	-0.593957
Zn2	Zn	1.620616	-0.599274	-0.418281
Zn3	Zn	1.443449	-0.422026	-0.418300
Zn4	Zn	1.443432	-0.599195	-0.593927
O5	O	1.532058	-0.510617	-0.506116
O6	O	1.769067	-0.445502	-0.570658
O7	O	1.597071	-0.575817	-0.271263
O8	O	1.467023	-0.273672	-0.441621
O9	O	1.768979	-0.575765	-0.441590
O10	O	1.597275	-0.273632	-0.570676
O11	O	1.466907	-0.445594	-0.271276
O12	O	1.295099	-0.445518	-0.441593
O13	O	1.466995	-0.575630	-0.740952
O14	O	1.295087	-0.575683	-0.570625
O15	O	1.597259	-0.445425	-0.740974
O16	O	1.597055	-0.747611	-0.441561
O17	O	1.466879	-0.747553	-0.570607
C18	C	1.256628	-0.510598	-0.506108
C19	C	1.138798	-0.510616	-0.506130
C20	C	1.093944	-0.592643	-0.587185
C21	C	0.971384	-0.592980	-0.586944
C22	C	0.970844	-0.540464	-0.395273
C23	C	1.093442	-0.541043	-0.395742
C24	C	1.093652	-0.398568	-0.534962
C25	C	0.971047	-0.399187	-0.537403
C26	C	1.531981	-0.786046	-0.506102
C27	C	1.532045	-0.903877	-0.506130
C28	C	1.450488	-1.071448	-0.587563
C29	C	1.450071	-0.948889	-0.587302
C30	C	1.501798	-0.948480	-0.395410
C31	C	1.501301	-1.071078	-0.395904
C32	C	1.644346	-1.070963	-0.534520
C33	C	1.643658	-0.948356	-0.536941
C34	C	1.808563	-0.510636	-0.506125
C35	C	1.926393	-0.510644	-0.506129
C36	C	1.532138	-0.510513	-0.780150
C37	C	1.532172	-0.510469	-0.896927
C38	C	1.532165	-0.234111	-0.506154
C39	C	1.532210	-0.116281	-0.506170
C40	C	1.667826	-0.374895	-0.896969
C41	C	1.735667	-0.307092	-0.951851
C42	C	1.735693	-0.307054	-1.061573
C43	C	1.667868	-0.374823	-1.116415
C44	C	1.600026	-0.442625	-1.061533
C45	C	1.600010	-0.442659	-0.951809
C46	C	1.464369	-0.578192	-1.061490
C47	C	1.464347	-0.578238	-0.951769
C48	C	1.396544	-0.645961	-1.116332
C49	C	1.328706	-0.713771	-1.061450
C50	C	1.328684	-0.713807	-0.951722
C51	C	1.396506	-0.646040	-0.896887
C52	C	1.532039	-0.510644	-0.233149
C53	C	1.532211	-0.510389	-0.116373
H54	H	0.941999	-0.376692	-0.618987
H55	H	0.941701	-0.482554	-0.333222
H56	H	1.367876	-1.102351	-0.569022
H57	H	1.123112	-0.483852	-0.333278
H58	H	1.707751	-0.917709	-0.481975
H59	H	1.396499	-0.646068	-0.807545
H60	H	1.671936	-1.101800	-0.613885
H61	H	1.559433	-0.919326	-0.333108
H62	H	1.468995	-0.918728	-0.669401
H63	H	1.469239	-1.100853	-0.669932
H64	H	0.940114	-0.621465	-0.370489
H65	H	1.558240	-1.100740	-0.333192
H66	H	1.396566	-0.645921	-1.205674
H67	H	0.940422	-0.334848	-0.482717
H68	H	1.790887	-0.251914	-0.907187
H69	H	1.366939	-0.919656	-0.568520
H70	H	0.942026	-0.676015	-0.567816
H71	H	1.124608	-0.371323	-0.614436
H72	H	1.273483	-0.768937	-1.106111
H73	H	1.667886	-0.374776	-1.205756
H74	H	1.124721	-0.675199	-0.568288
H75	H	1.419328	-1.099772	-0.371887
H76	H	1.122660	-0.337460	-0.475931
H77	H	1.420681	-0.917871	-0.370958
H78	H	1.666467	-0.919198	-0.618426
H79	H	1.705230	-1.099955	-0.475238
H80	H	1.273428	-0.769009	-0.907043
H81	H	1.790929	-0.251836	-1.106258
H82	H	1.667821	-0.374930	-0.807628
H83	H	0.941332	-0.574377	-0.669129
H84	H	1.123463	-0.574254	-0.669625
H85	H	1.122006	-0.622934	-0.371373
