data_functionalizedCrystal
_audit_creation_method	'MofGen! by Chris Wilmer'
_symmetry_space_group_name_H-M	'P1'
_symmetry_Int_Tables_number	1
_symmetry_cell_setting	triclinic
loop_
_symmetry_equiv_pos_as_xyz
  x,y,z
_cell_length_a	11.169417
_cell_length_b	16.959453
_cell_length_c	11.169409
_cell_angle_alpha	89.962728
_cell_angle_beta	89.980487
_cell_angle_gamma	90.021237
loop_
_atom_site_label
_atom_site_type_symbol
_atom_site_fract_x
_atom_site_fract_y
_atom_site_fract_z
Zn1	Zn	1.834882	-0.314591	-0.678492
Zn2	Zn	1.834737	-0.446798	-0.477791
Zn3	Zn	1.634168	-0.314640	-0.477827
Zn4	Zn	1.634141	-0.446734	-0.678437
O5	O	1.734482	-0.380691	-0.578137
O6	O	2.002812	-0.332135	-0.651876
O7	O	1.808082	-0.429314	-0.309846
O8	O	1.660864	-0.204023	-0.504483
O9	O	2.002706	-0.429267	-0.504422
O10	O	1.808328	-0.203987	-0.651911
O11	O	1.660724	-0.332218	-0.309872
O12	O	1.466215	-0.332157	-0.504431
O13	O	1.660820	-0.429158	-0.846394
O14	O	1.466195	-0.429206	-0.651818
O15	O	1.808303	-0.332073	-0.846434
O16	O	1.808056	-0.557400	-0.504370
O17	O	1.660679	-0.557354	-0.651783
C18	C	1.422657	-0.380680	-0.578123
C19	C	1.289257	-0.380695	-0.578146
C20	C	1.734382	-0.586057	-0.578093
C21	C	1.734449	-0.673914	-0.578114
C22	C	1.811365	-1.045312	-0.655047
C23	C	1.657935	-1.045467	-0.501405
C24	C	1.657890	-0.962921	-0.501377
C25	C	1.734583	-0.921567	-0.578187
C26	C	1.811320	-0.962759	-0.655024
C27	C	1.581146	-0.921723	-0.424550
C28	C	1.581097	-0.839172	-0.424520
C29	C	1.657797	-0.797816	-0.501325
C30	C	1.734538	-0.839013	-0.578164
C31	C	1.811231	-0.797659	-0.654974
C32	C	1.887979	-0.838855	-0.731809
C33	C	1.888020	-0.921403	-0.731829
C34	C	1.657756	-0.715268	-0.501304
C35	C	1.811186	-0.715106	-0.654952
C36	C	2.047524	-0.380702	-0.578151
C37	C	2.180924	-0.380707	-0.578157
C38	C	1.734574	-0.380603	-0.891179
C39	C	1.734614	-0.380566	-1.024579
C40	C	1.734615	-0.174523	-0.578207
C41	C	1.734672	-0.086666	-0.578237
C42	C	1.734459	-0.380721	-0.266312
C43	C	1.734653	-0.380536	-0.132913
H44	H	1.873644	-0.681440	-0.717495
N45	N	1.970691	-0.794240	-0.814648
H46	H	2.056464	-0.808566	-0.796086
H47	H	1.951917	-0.808584	-0.900357
N48	N	1.498341	-0.794741	-0.341640
H49	H	1.442677	-0.760487	-0.390347
H50	H	1.449846	-0.833515	-0.293001
N51	N	1.970790	-0.965834	-0.814696
H52	H	1.959175	-1.024402	-0.803057
H53	H	1.952057	-0.951365	-0.900391
H54	H	1.595263	-0.681730	-0.438752
H55	H	1.873855	-1.078857	-0.717600
N56	N	1.575225	-1.090065	-0.418558
H57	H	1.519598	-1.124316	-0.467288
H58	H	1.624143	-1.124275	-0.363015
N59	N	1.498441	-0.966323	-0.341700
H60	H	1.510127	-1.024868	-0.353365
H61	H	1.517170	-0.951924	-0.256002
