data_functionalizedCrystal
_audit_creation_method	'MofGen! by Chris Wilmer'
_symmetry_space_group_name_H-M	'P1'
_symmetry_Int_Tables_number	1
_symmetry_cell_setting	triclinic
loop_
_symmetry_equiv_pos_as_xyz
  x,y,z
_cell_length_a	12.759401
_cell_length_b	12.759399
_cell_length_c	21.395356
_cell_angle_alpha	89.976567
_cell_angle_beta	89.978166
_cell_angle_gamma	90.014407
loop_
_atom_site_label
_atom_site_type_symbol
_atom_site_fract_x
_atom_site_fract_y
_atom_site_fract_z
Zn1	Zn	1.606272	-0.418313	-0.354251
Zn2	Zn	2.106272	0.081687	0.145749
Zn3	Zn	1.606159	-0.594005	-0.249481
Zn4	Zn	2.106159	-0.094005	0.250519
Zn5	Zn	1.430568	-0.418339	-0.249491
Zn6	Zn	1.930568	0.081661	0.250509
Zn7	Zn	1.430561	-0.593948	-0.354224
Zn8	Zn	1.930561	-0.093948	0.145776
O9	O	1.518390	-0.506151	-0.301862
O10	O	2.018390	-0.006151	0.198138
O11	O	1.753278	-0.441632	-0.340360
O12	O	2.253278	0.058368	0.159640
O13	O	1.582822	-0.570738	-0.161804
O14	O	2.082822	-0.070738	0.338196
O15	O	1.453926	-0.271314	-0.263402
O16	O	1.953926	0.228686	0.236598
O17	O	1.753195	-0.570713	-0.263386
O18	O	2.253195	-0.070713	0.236614
O19	O	1.583015	-0.271295	-0.340369
O20	O	2.083015	0.228705	0.159631
O21	O	1.453816	-0.441676	-0.161811
O22	O	1.953816	0.058324	0.338189
O23	O	1.283546	-0.441621	-0.263377
O24	O	1.783546	0.058379	0.236623
O25	O	1.453914	-0.570615	-0.441906
O26	O	1.953914	-0.070615	0.058094
O27	O	1.283541	-0.570640	-0.340324
O28	O	1.783541	-0.070640	0.159676
O29	O	1.583008	-0.441576	-0.441925
O30	O	2.083008	0.058424	0.058075
O31	O	1.582816	-0.741019	-0.263360
O32	O	2.082816	-0.241019	0.236640
O33	O	1.453805	-0.740977	-0.340315
O34	O	1.953805	-0.240977	0.159685
C35	C	1.245423	-0.506128	-0.301849
C36	C	1.745423	-0.006128	0.198151
C37	C	1.128646	-0.506143	-0.301858
C38	C	1.628646	-0.006143	0.198142
C39	C	0.964025	-0.438899	-0.261875
C40	C	1.464025	0.061101	0.238125
C41	C	1.073749	-0.438874	-0.261865
C42	C	1.573749	0.061126	0.238135
C43	C	1.073814	-0.573433	-0.341868
C44	C	1.573814	-0.073433	0.158132
C45	C	0.964092	-0.573452	-0.341880
C46	C	1.464092	-0.073452	0.158120
C47	C	1.223688	-0.314894	-0.239591
C48	C	1.723688	0.185106	0.260409
C49	C	1.278517	-0.247616	-0.199575
C50	C	1.778517	0.252384	0.300425
C51	C	1.242849	-0.231356	-0.138460
C52	C	1.742849	0.268644	0.361540
C53	C	1.152355	-0.282389	-0.117348
C54	C	1.652355	0.217611	0.382652
C55	C	1.097532	-0.349674	-0.157360
C56	C	1.597532	0.150326	0.342640
C57	C	1.133198	-0.365915	-0.218484
C58	C	1.633198	0.134085	0.281516
C59	C	0.814150	-0.697433	-0.364149
C60	C	1.314150	-0.197433	0.135851
C61	C	0.759326	-0.764725	-0.404158
C62	C	1.259326	-0.264725	0.095842
C63	C	0.794991	-0.780996	-0.465274
C64	C	1.294991	-0.280996	0.034726
C65	C	0.885489	-0.729982	-0.486384
C66	C	1.385489	-0.229982	0.013616
C67	C	0.940314	-0.662690	-0.446375
C68	C	1.440314	-0.162690	0.053625
C69	C	0.904641	-0.646417	-0.385259
C70	C	1.404641	-0.146417	0.114741
C71	C	1.518326	-0.779119	-0.301847
C72	C	2.018326	-0.279119	0.198153
C73	C	1.518394	-0.895895	-0.301862
C74	C	2.018394	-0.395895	0.198138
C75	C	1.585647	-0.950744	-0.261837
C76	C	2.085647	-0.450744	0.238163
C77	C	1.585715	-1.060468	-0.261859
C78	C	2.085715	-0.560468	0.238141
C79	C	1.451268	-1.060485	-0.341931
C80	C	1.951268	-0.560485	0.158069
C81	C	1.451206	-0.950763	-0.341912
C82	C	1.951206	-0.450763	0.158088
C83	C	1.709722	-1.210344	-0.239562
C84	C	2.209722	-0.710344	0.260438
C85	C	1.776966	-1.265196	-0.199528
C86	C	2.276966	-0.765196	0.300472
C87	C	1.793127	-1.229643	-0.138394
C88	C	2.293127	-0.729643	0.361606
C89	C	1.742030	-1.139239	-0.117283
C90	C	2.242030	-0.639239	0.382717
C91	C	1.674778	-1.084392	-0.157314
C92	C	2.174778	-0.584392	0.342686
C93	C	1.658637	-1.119944	-0.218456
C94	C	2.158637	-0.619944	0.281544
C95	C	1.327197	-0.800885	-0.364202
C96	C	1.827197	-0.300885	0.135798
C97	C	1.259939	-0.746036	-0.404231
C98	C	1.759939	-0.246036	0.095769
C99	C	1.243767	-0.781587	-0.465365
C100	C	1.743767	-0.281587	0.034635
C101	C	1.294847	-0.871995	-0.486474
C102	C	1.794847	-0.371995	0.013526
C103	C	1.362104	-0.926844	-0.446446
C104	C	1.862104	-0.426844	0.053554
C105	C	1.378278	-0.891286	-0.385312
C106	C	1.878278	-0.391286	0.114688
C107	C	1.792423	-0.506176	-0.301875
C108	C	2.292423	-0.006176	0.198125
C109	C	1.909200	-0.506186	-0.301880
C110	C	2.409200	-0.006186	0.198120
C111	C	1.518473	-0.506086	-0.465285
C112	C	2.018473	-0.006086	0.034715
C113	C	1.518508	-0.506058	-0.534926
C114	C	2.018508	-0.006058	-0.034926
C115	C	1.518483	-0.232118	-0.301890
C116	C	2.018483	0.267882	0.198110
C117	C	1.518523	-0.115341	-0.301902
C118	C	2.018523	0.384659	0.198098
C119	C	1.451353	-0.438849	-0.567633
C120	C	1.951353	0.061151	-0.067633
C121	C	1.451349	-0.438829	-0.633069
C122	C	1.951349	0.061171	-0.133069
C123	C	1.518520	-0.506009	-0.665795
C124	C	2.018520	-0.006009	-0.165795
C125	C	1.585680	-0.573231	-0.633080
C126	C	2.085680	-0.073231	-0.133080
C127	C	1.585674	-0.573256	-0.567646
C128	C	2.085674	-0.073256	-0.067646
C129	C	1.613182	-0.514270	-0.769480
C130	C	2.113182	-0.014270	-0.269480
C131	C	1.613190	-0.514237	-0.834912
C132	C	2.113190	-0.014237	-0.334912
C133	C	1.518537	-0.505938	-0.867615
C134	C	2.018537	-0.005938	-0.367615
C135	C	1.423874	-0.497648	-0.834877
C136	C	1.923874	0.002352	-0.334877
C137	C	1.423868	-0.497673	-0.769443
C138	C	1.923868	0.002327	-0.269443
C139	C	1.518533	-0.505989	-0.736747
C140	C	2.018533	-0.005989	-0.236747
C141	C	1.451372	-0.438703	-0.971275
C142	C	1.951372	0.061297	-0.471275
C143	C	1.451367	-0.438691	-1.036712
C144	C	1.951367	0.061309	-0.536712
C145	C	1.585707	-0.573088	-1.036721
C146	C	2.085707	-0.073088	-0.536721
C147	C	1.585703	-0.573105	-0.971286
C148	C	2.085703	-0.073105	-0.471286
C149	C	1.518537	-0.505907	-0.938567
C150	C	2.018537	-0.005907	-0.438567
C151	C	1.518368	-0.506140	-0.139074
C152	C	2.018368	-0.006140	0.360926
C153	C	1.518537	-0.505872	-0.069433
C154	C	2.018537	-0.005872	0.430567
H155	H	1.118520	-0.628200	-0.374434
H156	H	1.618520	-0.128200	0.125566
H157	H	1.218354	-0.672417	-0.387040
H158	H	1.718354	-0.172417	0.112960
C159	C	1.039862	-0.606569	-0.469599
C160	C	1.539862	-0.106569	0.030401
N161	N	1.114841	-0.564299	-0.487092
N162	N	1.614841	-0.064299	0.012908
H163	H	1.755185	-1.110305	-0.067500
H164	H	2.255185	-0.610305	0.432500
C165	C	0.924724	-0.747879	-0.553615
C166	C	1.424724	-0.247879	-0.053615
N167	N	0.954273	-0.761363	-0.604255
N168	N	1.454273	-0.261363	-0.104255
H169	H	1.396681	-0.383987	-0.944633
H170	H	1.896681	0.116013	-0.444633
C171	C	1.659575	-0.647174	-0.531667
C172	C	2.159575	-0.147174	-0.031667
N173	N	1.715248	-0.702842	-0.504567
N174	N	2.215248	-0.202842	-0.004567
C175	C	1.344983	-0.761770	-0.296950
C176	C	1.844983	-0.261770	0.203050
N177	N	1.358373	-0.732309	-0.246295
N178	N	1.858373	-0.232309	0.253705
H179	H	0.750347	-0.835799	-0.497847
H180	H	1.250347	-0.335799	0.002153
H181	H	0.685639	-0.806266	-0.386964
H182	H	1.185639	-0.306266	0.113036
H183	H	1.396673	-0.383964	-1.063340
H184	H	1.896673	0.116036	-0.563340
C185	C	1.418301	-1.026290	-0.469670
C186	C	1.918301	-0.526290	0.030330
N187	N	1.460631	-1.101190	-0.487163
N188	N	1.960631	-0.601190	0.012837
C189	C	0.997990	-0.405803	-0.134141
C190	C	1.497990	0.094197	0.365859
N191	N	0.923008	-0.448072	-0.116652
N192	N	1.423008	0.051928	0.383348
H193	H	0.919335	-0.384122	-0.229307
H194	H	1.419335	0.115878	0.270693
H195	H	1.640401	-0.627784	-1.063366
H196	H	2.140401	-0.127784	-0.563366
C197	C	1.113130	-0.264502	-0.050114
C198	C	1.613130	0.235498	0.449886
N199	N	1.083582	-0.251026	0.000526
N200	N	1.583582	0.248974	0.500526
H201	H	1.396657	-0.384135	-0.540997
H202	H	1.896657	0.115865	-0.040997
H203	H	1.640357	-0.906074	-0.229227
H204	H	2.140357	-0.406074	0.270773
C205	C	1.262929	-0.332771	-0.306822
C206	C	1.762929	0.167229	0.193178
N207	N	1.292492	-0.346239	-0.357460
N208	N	1.792492	0.153761	0.142540
C209	C	0.774912	-0.679542	-0.296916
C210	C	1.274912	-0.179542	0.203084
N211	N	0.745359	-0.666073	-0.246275
N212	N	1.245359	-0.166073	0.253725
C213	C	1.377475	-0.364885	-0.669053
C214	C	1.877475	0.135115	-0.169053
N215	N	1.321835	-0.309188	-0.696155
N216	N	1.821835	0.190812	-0.196155
H217	H	1.633178	-1.010785	-0.140126
H218	H	2.133178	-0.510785	0.359874
H219	H	1.287498	-0.176576	-0.105880
H220	H	1.787498	0.323424	0.394120
H221	H	1.281679	-0.900942	-0.536255
H222	H	1.781679	-0.400942	-0.036255
C223	C	1.659617	-0.647006	-0.935307
C224	C	2.159617	-0.147006	-0.435307
N225	N	1.715301	-0.702663	-0.908208
N226	N	2.215301	-0.202663	-0.408208
H227	H	1.640370	-0.627930	-0.659729
H228	H	2.140370	-0.127930	-0.159729
C229	C	1.319740	-0.488566	-0.733434
C230	C	1.819740	0.011434	-0.233434
N231	N	1.241308	-0.481711	-0.706311
N232	N	1.741308	0.018289	-0.206311
C233	C	1.867039	-1.290027	-0.094344
C234	C	2.367039	-0.790027	0.405656
N235	N	1.922693	-1.335527	-0.061163
N236	N	2.422693	-0.835527	0.438837
C237	C	1.319745	-0.488528	-0.870845
C238	C	1.819745	0.011472	-0.370845
N239	N	1.241319	-0.481661	-0.897940
N240	N	1.741319	0.018339	-0.397940
H241	H	1.818570	-1.338804	-0.216722
H242	H	2.318570	-0.838804	0.283278
H243	H	1.690271	-0.520982	-0.861563
H244	H	2.190271	-0.020982	-0.361563
H245	H	1.696581	-1.239293	-0.289344
H246	H	2.196581	-0.739293	0.210656
C247	C	1.377353	-1.120849	-0.385976
C248	C	1.877353	-0.620849	0.114024
N249	N	1.321674	-1.166314	-0.419150
N250	N	1.821674	-0.666314	0.080850
H251	H	1.690267	-0.521019	-0.742858
H252	H	2.190267	-0.021019	-0.242858
C253	C	1.378047	-0.191466	-0.222805
C254	C	1.878047	0.308534	0.277195
N255	N	1.453010	-0.149172	-0.240300
N256	N	1.953010	0.350828	0.259700
C257	C	1.169776	-0.721250	-0.509395
C258	C	1.669776	-0.221250	-0.009395
N259	N	1.114051	-0.675805	-0.542559
N260	N	1.614051	-0.175805	-0.042559
