data_functionalizedCrystal
_audit_creation_method	'MofGen! by Chris Wilmer'
_symmetry_space_group_name_H-M	'P1'
_symmetry_Int_Tables_number	1
_symmetry_cell_setting	triclinic
loop_
_symmetry_equiv_pos_as_xyz
  x,y,z
_cell_length_a	19.288864
_cell_length_b	13.448316
_cell_length_c	14.971487
_cell_angle_alpha	90.005515
_cell_angle_beta	96.624676
_cell_angle_gamma	89.978852
loop_
_atom_site_label
_atom_site_type_symbol
_atom_site_fract_x
_atom_site_fract_y
_atom_site_fract_z
O1	O	0.921715	-0.083009	-0.111581
O2	O	1.255048	0.250324	0.221752
O3	O	1.588382	0.583657	0.555086
O4	O	0.719503	-0.082941	-0.126633
O5	O	1.052837	0.250392	0.206700
O6	O	1.386170	0.583726	0.540034
O7	O	0.826029	-0.082972	0.011122
O8	O	1.159362	0.250361	0.344456
O9	O	1.492695	0.583694	0.677789
O10	O	0.815190	-0.082978	-0.249336
O11	O	1.148523	0.250355	0.083997
O12	O	1.481856	0.583689	0.417330
O13	O	0.826014	0.082412	0.011130
O14	O	1.159348	0.415745	0.344463
O15	O	1.492681	0.749078	0.677796
O16	O	0.719489	0.082443	-0.126626
O17	O	1.052822	0.415776	0.206708
O18	O	1.386156	0.749109	0.540041
O19	O	0.921700	0.082375	-0.111574
O20	O	1.255034	0.415708	0.221760
O21	O	1.588367	0.749041	0.555093
Cu22	Cu	0.820593	0.097509	-0.119099
Cu23	Cu	1.153927	0.430843	0.214234
Cu24	Cu	1.487260	0.764176	0.547568
Cu25	Cu	0.820611	-0.098076	-0.119108
Cu26	Cu	1.153944	0.235257	0.214226
Cu27	Cu	1.487277	0.568591	0.547559
O28	O	0.815175	0.082406	-0.249329
O29	O	1.148508	0.415739	0.084004
O30	O	1.481842	0.749072	0.417338
C31	C	0.693618	-0.000240	-0.126145
C32	C	1.026951	0.333093	0.207188
C33	C	1.360285	0.666426	0.540522
C34	C	0.616510	-0.000214	-0.124691
C35	C	0.949843	0.333119	0.208642
C36	C	1.283176	0.666452	0.541975
N37	N	0.820586	0.235074	-0.119092
N38	N	1.153920	0.568407	0.214241
N39	N	1.487253	0.901740	0.547574
C40	C	0.825537	-0.000281	0.044448
C41	C	1.158870	0.333052	0.377781
C42	C	1.492203	0.666386	0.711115
C43	C	0.824084	-0.000283	0.143737
C44	C	1.157417	0.333050	0.477071
C45	C	1.490750	0.666383	0.810404
C46	C	0.572077	-0.000232	-0.205520
C47	C	0.905411	0.333102	0.127814
C48	C	1.238744	0.666435	0.461147
C49	C	0.499626	-0.000243	-0.204154
C50	C	0.832959	0.333091	0.129179
C51	C	1.166292	0.666424	0.462513
C52	C	0.471610	-0.000256	-0.121955
C53	C	0.804943	0.333077	0.211378
C54	C	1.138277	0.666410	0.544712
C55	C	0.516052	-0.000233	-0.041116
C56	C	0.849386	0.333100	0.292218
C57	C	1.182719	0.666433	0.625551
C58	C	0.588502	-0.000212	-0.042484
C59	C	0.921836	0.333121	0.290849
C60	C	1.255169	0.666454	0.624183
C61	C	0.363142	-0.058230	-0.057340
C62	C	0.696476	0.275104	0.275994
C63	C	1.029809	0.608437	0.609327
C64	C	0.290693	-0.058257	-0.055975
C65	C	0.624027	0.275077	0.277358
C66	C	0.957360	0.608410	0.610692
C67	C	0.248151	-0.000316	-0.117732
C68	C	0.581484	0.333017	0.215602
C69	C	0.914817	0.666350	0.548935
C70	C	0.278064	0.057638	-0.180868
C71	C	0.611398	0.390971	0.152465
C72	C	0.944731	0.724305	0.485799
C73	C	0.350514	0.057659	-0.182236
C74	C	0.683847	0.390992	0.151097
C75	C	1.017181	0.724326	0.484430
C76	C	0.393051	-0.000278	-0.120462
C77	C	0.726384	0.333055	0.212871
C78	C	1.059718	0.666388	0.546204
C79	C	0.125157	-0.000344	-0.197085
C80	C	0.458491	0.332989	0.136249
C81	C	0.791824	0.666322	0.469582
C82	C	0.052705	-0.000349	-0.195715
C83	C	0.386038	0.332984	0.137618
C84	C	0.719371	0.666318	0.470951
C85	C	0.069133	-0.000350	-0.032675
C86	C	0.402466	0.332984	0.300659
C87	C	0.735800	0.666317	0.633992
C88	C	0.141584	-0.000335	-0.034046
C89	C	0.474917	0.332999	0.299287
C90	C	0.808251	0.666332	0.632620
C91	C	0.169591	-0.000337	-0.116254
C92	C	0.502925	0.332997	0.217080
C93	C	0.836258	0.666330	0.550413
C94	C	0.947586	-0.000328	-0.112062
C95	C	1.280919	0.333005	0.221272
C96	C	1.614252	0.666338	0.554605
C97	C	1.024694	-0.000361	-0.113516
C98	C	1.358027	0.332972	0.219818
C99	C	1.691361	0.666306	0.553151
C100	C	0.867770	0.287100	-0.058120
C101	C	1.201103	0.620434	0.275214
C102	C	1.534437	0.953767	0.608547
C103	C	0.867774	0.391204	-0.058120
C104	C	1.201107	0.724537	0.275214
C105	C	1.534440	1.057870	0.608547
C106	C	0.820596	0.443278	-0.119097
C107	C	1.153930	0.776612	0.214236
C108	C	1.487263	1.109945	0.547569
C109	C	0.773407	0.391245	-0.180073
C110	C	1.106741	0.724578	0.153260
C111	C	1.440074	1.057911	0.486594
C112	C	0.773401	0.287143	-0.180068
C113	C	1.106734	0.620477	0.153265
C114	C	1.440068	0.953810	0.486599
C115	C	0.773425	0.608225	-0.180080
C116	C	1.106759	0.941558	0.153253
C117	C	1.440092	1.274891	0.486586
C118	C	0.773432	0.712333	-0.180087
C119	C	1.106766	1.045666	0.153247
C120	C	1.440099	1.379000	0.486580
C121	C	0.867798	0.712285	-0.058132
C122	C	1.201131	1.045618	0.275202
C123	C	1.534464	1.378952	0.608535
C124	C	0.867791	0.608184	-0.058127
C125	C	1.201125	0.941517	0.275206
C126	C	1.534458	1.274850	0.608540
C127	C	0.820603	0.556157	-0.119104
C128	C	1.153937	0.889490	0.214229
C129	C	1.487270	1.222824	0.547563
N130	N	0.820616	0.764360	-0.119114
N131	N	1.153949	1.097693	0.214220
N132	N	1.487283	1.431026	0.547553
C133	C	0.886665	-0.000305	0.201301
C134	C	1.219998	0.333029	0.534634
C135	C	1.553331	0.666362	0.867968
C136	C	0.885295	-0.000316	0.294593
C137	C	1.218629	0.333017	0.627926
C138	C	1.551962	0.666351	0.961260
C139	C	0.821344	-0.000299	0.330319
C140	C	1.154678	0.333035	0.663653
C141	C	1.488011	0.666368	0.996986
C142	C	0.758759	-0.000280	0.272748
C143	C	1.092092	0.333053	0.606082
C144	C	1.425426	0.666386	0.939415
C145	C	0.760129	-0.000276	0.179458
C146	C	1.093462	0.333057	0.512792
C147	C	1.426796	0.666390	0.846125
C148	C	0.755908	-0.000287	0.467195
C149	C	1.089241	0.333047	0.800529
C150	C	1.422574	0.666380	1.133862
C151	C	0.754537	-0.000289	0.560492
C152	C	1.087871	0.333044	0.893825
C153	C	1.421204	0.666378	1.227159
C154	C	0.881074	-0.000326	0.582330
C155	C	1.214407	0.333007	0.915663
C156	C	1.547741	0.666340	1.248997
C157	C	0.882444	-0.000322	0.489040
C158	C	1.215777	0.333011	0.822373
C159	C	1.549111	0.666344	1.155707
C160	C	0.819858	-0.000302	0.431475
C161	C	1.153192	0.333031	0.764809
C162	C	1.486525	0.666365	1.098142
C163	C	0.815667	-0.000292	0.717345
C164	C	1.149000	0.333041	1.050678
C165	C	1.482333	0.666374	1.384012
C166	C	0.817118	-0.000310	0.618056
C167	C	1.150452	0.333023	0.951389
C168	C	1.483785	0.666356	1.284722
H169	H	0.594876	-0.000235	-0.272459
H170	H	0.928209	0.333098	0.060874
H171	H	1.261542	0.666431	0.394207
Cl172	Cl	0.927086	0.221646	0.018539
Cl173	Cl	1.260419	0.554979	0.351872
Cl174	Cl	1.593752	0.888313	0.685206
Cl175	Cl	0.927120	0.777693	0.018522
Cl176	Cl	1.260453	1.111026	0.351856
Cl177	Cl	1.593786	1.444360	0.685189
H178	H	0.706689	-0.000273	0.301844
H179	H	1.040022	0.333061	0.635178
H180	H	1.373356	0.666394	0.968511
Cl181	Cl	0.681452	-0.000253	0.107092
Cl182	Cl	1.014786	0.333080	0.440425
Cl183	Cl	1.348119	0.666414	0.773758
H184	H	0.374867	0.104851	-0.233641
H185	H	0.708200	0.438184	0.099692
H186	H	1.041533	0.771517	0.433025
Cl187	Cl	0.714119	0.777791	-0.256746
Cl188	Cl	1.047452	1.111124	0.076587
Cl189	Cl	1.380786	1.444457	0.409921
Cl190	Cl	0.714100	0.542824	-0.256737
Cl191	Cl	1.047433	0.876157	0.076596
Cl192	Cl	1.380766	1.209490	0.409929
H193	H	0.906194	0.433563	-0.008470
H194	H	1.239527	0.766896	0.324863
H195	H	1.572860	1.100230	0.658196
Cl196	Cl	0.959754	-0.000357	0.654696
Cl197	Cl	1.293087	0.332976	0.988030
Cl198	Cl	1.626420	0.666310	1.321363
H199	H	0.938741	-0.000313	0.172220
H200	H	1.272074	0.333021	0.505554
H201	H	1.605407	0.666354	0.838887
H202	H	0.704944	-0.000273	0.420328
H203	H	1.038277	0.333061	0.753661
H204	H	1.371610	0.666394	1.086995
H205	H	0.243427	0.104819	-0.231156
H206	H	0.576760	0.438153	0.102178
H207	H	0.910094	0.771486	0.435511
H208	H	0.046324	-0.000422	0.034253
H209	H	0.379657	0.332911	0.367587
H210	H	0.712990	0.666245	0.700920
H211	H	0.463442	-0.000254	-0.269976
H212	H	0.796775	0.333079	0.063357
H213	H	1.130108	0.666413	0.396690
H214	H	0.936255	-0.000331	0.341458
H215	H	1.269588	0.333002	0.674791
H216	H	1.602922	0.666335	1.008125
Cl217	Cl	0.160370	-0.000337	-0.300429
Cl218	Cl	0.493703	0.332996	0.032905
Cl219	Cl	0.827037	0.666330	0.366238
Cl220	Cl	0.674141	-0.000266	0.605404
Cl221	Cl	1.007474	0.333067	0.938738
Cl222	Cl	1.340808	0.666400	1.272071
Cl223	Cl	0.197445	-0.000319	0.067573
Cl224	Cl	0.530779	0.333015	0.400906
Cl225	Cl	0.864112	0.666348	0.734240
Cl226	Cl	0.927104	0.542716	0.018525
Cl227	Cl	1.260437	0.876049	0.351859
Cl228	Cl	1.593771	1.209383	0.685192
H229	H	0.016528	-0.000357	-0.261539
H230	H	0.349861	0.332976	0.071795
H231	H	0.683194	0.666309	0.405128
H232	H	0.266343	-0.105451	-0.004569
H233	H	0.599677	0.227883	0.328764
H234	H	0.933010	0.561216	0.662098
H235	H	0.397775	-0.105417	-0.007048
H236	H	0.731109	0.227916	0.326285
H237	H	1.064442	0.561249	0.659618
H238	H	0.734979	0.244784	-0.229717
H239	H	1.068312	0.578117	0.103616
H240	H	1.401645	0.911451	0.436949
Cl241	Cl	0.714094	0.456708	-0.256728
Cl242	Cl	1.047428	0.790041	0.076605
Cl243	Cl	1.380761	1.123374	0.409939
H244	H	0.493237	-0.000258	0.025811
H245	H	0.826571	0.333075	0.359145
H246	H	1.159904	0.666409	0.692478
Cl247	Cl	0.962841	-0.000349	0.444128
Cl248	Cl	1.296174	0.332984	0.777461
Cl249	Cl	1.629507	0.666318	1.110794
H250	H	0.624680	-0.000199	0.023339
H251	H	0.958013	0.333135	0.356672
H252	H	1.291347	0.666468	0.690005
