data_functionalizedCrystal
_audit_creation_method	'MofGen! by Chris Wilmer'
_symmetry_space_group_name_H-M	'P1'
_symmetry_Int_Tables_number	1
_symmetry_cell_setting	triclinic
loop_
_symmetry_equiv_pos_as_xyz
  x,y,z
_cell_length_a	14.044220
_cell_length_b	10.908937
_cell_length_c	9.482900
_cell_angle_alpha	83.036371
_cell_angle_beta	79.809077
_cell_angle_gamma	103.362583
loop_
_atom_site_label
_atom_site_type_symbol
_atom_site_fract_x
_atom_site_fract_y
_atom_site_fract_z
O1	O	0.161475	1.705365	-0.120940
O2	O	0.088769	1.339831	-0.120932
O3	O	0.262241	1.517110	-0.120929
O4	O	-0.011996	1.528085	-0.120942
O5	O	0.226889	1.481114	0.120863
O6	O	0.053417	1.303835	0.120860
O7	O	0.126123	1.669368	0.120852
Cu8	Cu	0.086542	1.483315	0.142934
Cu9	Cu	0.128350	1.525884	-0.143013
O10	O	-0.047349	1.492089	0.120849
C11	C	0.064299	1.274770	-0.000035
C12	C	0.044064	1.134536	-0.000032
C13	C	0.096996	0.932134	-0.000056
C14	C	0.117908	1.077070	-0.000037
C15	C	-0.064230	1.514891	-0.000048
C16	C	-0.167196	1.529219	-0.000054
C17	C	-0.355730	1.555412	-0.000048
C18	C	-0.429381	1.453794	-0.000045
C19	C	-0.534287	1.468368	-0.000041
C20	C	-0.250813	1.540840	-0.000051
C21	C	0.279122	1.494309	-0.000035
C22	C	0.382090	1.479982	-0.000039
C23	C	0.150594	1.734430	-0.000048
C24	C	0.170830	1.874665	-0.000060
N25	N	0.057138	1.453383	0.344053
N26	N	0.157763	1.555825	-0.344133
C27	C	0.119681	1.517046	0.416253
C28	C	0.095211	1.492152	0.583670
H29	H	0.249526	0.932766	-0.000059
N30	N	-0.409636	1.330931	-0.000045
N31	N	-0.323205	1.319108	-0.000044
H32	H	-0.309255	1.232339	-0.000040
N33	N	-0.375475	1.678268	-0.000053
N34	N	-0.461909	1.690079	-0.000049
H35	H	-0.475867	1.776844	-0.000049
H36	H	0.018303	0.874037	-0.000075
N37	N	0.216635	1.149959	-0.000039
N38	N	0.233484	1.267593	-0.000030
H39	H	0.303208	1.319075	-0.000032
N40	N	-0.054668	1.061653	-0.000015
N41	N	-0.099561	0.971736	0.101906
H42	H	-0.169290	0.920261	0.101926
H43	H	0.191346	1.589976	0.354127
H44	H	0.023547	1.419208	0.645794
N45	N	0.247671	1.647314	0.577926
N46	N	0.267426	1.667404	0.442038
H47	H	0.330923	1.732016	0.386989
N48	N	-0.032772	1.361902	0.421980
N49	N	-0.116024	1.376307	0.405095
H50	H	-0.179526	1.311696	0.460128
