data_functionalizedCrystal
_audit_creation_method	'MofGen! by Chris Wilmer'
_symmetry_space_group_name_H-M	'P1'
_symmetry_Int_Tables_number	1
_symmetry_cell_setting	triclinic
loop_
_symmetry_equiv_pos_as_xyz
  x,y,z
_cell_length_a	13.032831
_cell_length_b	12.594516
_cell_length_c	12.594509
_cell_angle_alpha	90.027875
_cell_angle_beta	97.192636
_cell_angle_gamma	82.816889
loop_
_atom_site_label
_atom_site_type_symbol
_atom_site_fract_x
_atom_site_fract_y
_atom_site_fract_z
Zn1	Zn	1.597771	-0.630685	0.808169
Zn2	Zn	1.597676	-0.808683	0.630179
Zn3	Zn	1.423004	-0.608092	0.607631
Zn4	Zn	1.423000	-0.785982	0.785555
O5	O	1.510363	-0.708360	0.707883
O6	O	1.744001	-0.673252	0.803458
O7	O	1.574468	-0.782119	0.478237
O8	O	1.446229	-0.462148	0.634261
O9	O	1.743932	-0.804027	0.672690
O10	O	1.574629	-0.478747	0.781595
O11	O	1.446137	-0.634746	0.461672
O12	O	1.276761	-0.612733	0.612333
O13	O	1.446221	-0.765336	0.937505
O14	O	1.276757	-0.743429	0.743052
O15	O	1.574624	-0.651240	0.954119
O16	O	1.574464	-0.954612	0.650762
O17	O	1.446130	-0.937934	0.764916
C18	C	1.238840	-0.673167	0.672793
C19	C	1.122681	-0.658137	0.657806
C20	C	1.070920	-0.716205	0.715705
C21	C	0.950863	-0.700672	0.700217
C22	C	1.510314	-0.984895	0.707859
C23	C	1.510389	-1.103210	0.707896
C24	C	1.580271	-1.181506	0.645894
C25	C	1.605810	-1.255511	0.746341
C26	C	1.484981	-1.240021	0.607528
C27	C	1.535977	-1.175663	0.808400
C28	C	1.415104	-1.160161	0.669516
C29	C	1.440606	-1.234129	0.770025
C30	C	1.782946	-0.743692	0.743112
C31	C	1.899105	-0.758748	0.758124
C32	C	1.510433	-0.708276	0.985513
C33	C	1.510463	-0.708240	1.103823
C34	C	1.510440	-0.430749	0.707935
C35	C	1.510473	-0.312448	0.707957
C36	C	1.510353	-0.708375	0.431341
C37	C	1.510526	-0.708137	0.313059
C38	C	1.440646	-0.770259	1.164042
C39	C	1.536006	-0.808618	1.247146
C40	C	1.415177	-0.669826	1.231528
C41	C	1.605873	-0.746657	1.185375
C42	C	1.484979	-0.607811	1.169742
C43	C	1.580405	-0.646142	1.252822
H44	H	1.639378	-1.158112	0.593516
H45	H	1.686427	-1.296989	0.778835
H46	H	1.334510	-1.118663	0.636996
H47	H	0.943666	-0.819960	0.819171
H48	H	1.557421	-1.147402	0.893367
C49	C	1.659081	-0.575989	1.304189
C50	C	1.607546	-0.492705	1.358653
C51	C	1.679987	-0.428053	1.405968
H52	H	1.709529	-0.617709	1.353244
H53	H	1.692721	-0.546888	1.250273
H54	H	1.573923	-0.521805	1.412562
H55	H	1.557104	-0.450959	1.309621
H56	H	1.713627	-0.398952	1.352053
H57	H	1.730431	-0.469782	1.455019
H58	H	1.645029	-0.371532	1.442919
C59	C	1.564620	-0.921771	1.292475
C60	C	1.483054	-0.950206	1.344645
C61	C	1.509371	-1.054429	1.386422
H62	H	1.576149	-0.969998	1.235927
H63	H	1.626269	-0.924948	1.341994
H64	H	1.421423	-0.947038	1.295131
H65	H	1.471513	-0.902006	1.401208
H66	H	1.571020	-1.057606	1.435940
H67	H	1.520901	-1.102647	1.329867
H68	H	1.454038	-1.073732	1.421832
H69	H	1.078115	-0.596918	0.596775
H70	H	1.334568	-0.637380	1.252210
C71	C	0.891595	-0.619122	0.618664
C72	C	0.918046	-0.645557	0.516706
C73	C	0.863481	-0.570453	0.441556
H74	H	0.818783	-0.619455	0.618918
H75	H	0.909469	-0.549904	0.636586
H76	H	0.900165	-0.714757	0.498789
H77	H	0.990848	-0.645216	0.516417
H78	H	0.881355	-0.501235	0.459478
H79	H	0.790672	-0.570792	0.441820
H80	H	0.881427	-0.588374	0.372371
H81	H	1.381545	-1.257332	0.822554
C82	C	1.455944	-0.494661	1.124530
C83	C	1.356026	-0.454890	1.147402
C84	C	1.329225	-0.350665	1.105752
H85	H	1.504768	-0.450177	1.156079
H86	H	1.456702	-0.495429	1.049200
H87	H	1.355275	-0.454115	1.222717
H88	H	1.307180	-0.499344	1.115853
H89	H	1.329983	-0.351432	1.030422
H90	H	1.378055	-0.306190	1.137305
H91	H	1.261425	-0.323670	1.121256
H92	H	1.463457	-1.268403	0.522622
H93	H	1.381650	-0.822807	1.125368
H94	H	1.686505	-0.779199	1.164827
H95	H	1.115486	-0.777415	0.776744
