data_functionalizedCrystal
_audit_creation_method	'MofGen! by Chris Wilmer'
_symmetry_space_group_name_H-M	'P1'
_symmetry_Int_Tables_number	1
_symmetry_cell_setting	triclinic
loop_
_symmetry_equiv_pos_as_xyz
  x,y,z
_cell_length_a	12.759401
_cell_length_b	16.625545
_cell_length_c	12.759393
_cell_angle_alpha	90.033904
_cell_angle_beta	90.018496
_cell_angle_gamma	90.025719
loop_
_atom_site_label
_atom_site_type_symbol
_atom_site_fract_x
_atom_site_fract_y
_atom_site_fract_z
Zn1	Zn	1.606176	-0.320951	0.593964
Zn2	Zn	2.106176	0.179049	1.093964
Zn3	Zn	1.606037	-0.455807	0.418277
Zn4	Zn	2.106037	0.044193	0.918277
Zn5	Zn	1.430478	-0.320993	0.418304
Zn6	Zn	1.930478	0.179007	0.918304
Zn7	Zn	1.430433	-0.455745	0.593919
Zn8	Zn	1.930433	0.044255	1.093919
O9	O	1.518281	-0.388374	0.506116
O10	O	2.018281	0.111626	1.006116
O11	O	1.753179	-0.338848	0.570667
O12	O	2.253179	0.161152	1.070667
O13	O	1.582709	-0.437968	0.271260
O14	O	2.082709	0.062032	0.771260
O15	O	1.453862	-0.208155	0.441636
O16	O	1.953862	0.291845	0.941636
O17	O	1.753077	-0.437927	0.441590
O18	O	2.253077	0.062073	0.941590
O19	O	1.582946	-0.208124	0.570693
O20	O	2.082946	0.291876	1.070693
O21	O	1.453727	-0.338920	0.271279
O22	O	1.953727	0.161080	0.771279
O23	O	1.283451	-0.338860	0.441591
O24	O	1.783451	0.161140	0.941591
O25	O	1.453786	-0.437821	0.740946
O26	O	1.953786	0.062179	1.240946
O27	O	1.283418	-0.437862	0.570615
O28	O	1.783418	0.062138	1.070615
O29	O	1.582903	-0.338788	0.740979
O30	O	2.082903	0.161212	1.240979
O31	O	1.582666	-0.568632	0.441546
O32	O	2.082666	-0.068632	0.941546
O33	O	1.453651	-0.568586	0.570589
O34	O	1.953651	-0.068586	1.070589
C35	C	1.245314	-0.388359	0.506102
C36	C	1.745314	0.111641	1.006102
C37	C	1.128537	-0.388372	0.506120
C38	C	1.628537	0.111628	1.006120
C39	C	1.073686	-0.440005	0.573192
C40	C	1.573686	0.059995	1.073192
C41	C	0.963962	-0.440015	0.573203
C42	C	1.463962	0.059985	1.073203
C43	C	0.963950	-0.336758	0.439063
C44	C	1.463950	0.163242	0.939063
C45	C	1.073672	-0.336744	0.439058
C46	C	1.573672	0.163256	0.939058
C47	C	1.128550	-0.491634	0.640255
C48	C	1.628550	0.008366	1.140255
C49	C	1.073699	-0.543271	0.707331
C50	C	1.573699	-0.043271	1.207331
C51	C	0.963975	-0.543282	0.707342
C52	C	1.463975	-0.043282	1.207342
C53	C	0.909102	-0.491654	0.640278
C54	C	1.409102	0.008346	1.140278
C55	C	1.518167	-0.597865	0.506083
C56	C	2.018167	-0.097865	1.006083
C57	C	1.518214	-0.687486	0.506104
C58	C	2.018214	-0.187486	1.006104
C59	C	1.518255	-0.760268	0.506125
C60	C	2.018255	-0.260268	1.006125
C61	C	1.518316	-0.851577	0.506148
C62	C	2.018316	-0.351577	1.006148
C63	C	1.518371	-0.924353	0.506161
C64	C	2.018371	-0.424353	1.006161
C65	C	1.518431	-1.015668	0.506183
C66	C	2.018431	-0.515668	1.006183
C67	C	1.792314	-0.388390	0.506131
C68	C	2.292314	0.111610	1.006131
C69	C	1.909091	-0.388396	0.506137
C70	C	2.409091	0.111604	1.006137
C71	C	1.518355	-0.388293	0.780149
C72	C	2.018355	0.111707	1.280149
C73	C	1.518386	-0.388258	0.896926
C74	C	2.018386	0.111742	1.396926
C75	C	1.518424	-0.178065	0.506172
C76	C	2.018424	0.321935	1.006172
C77	C	1.518485	-0.088444	0.506196
C78	C	2.018485	0.411556	1.006196
C79	C	1.518268	-0.388397	0.233149
C80	C	2.018268	0.111603	0.733149
C81	C	1.518441	-0.388204	0.116372
C82	C	2.018441	0.111796	0.616372
C83	C	1.585627	-0.336687	0.951807
C84	C	2.085627	0.163313	1.451807
C85	C	1.585652	-0.336657	1.061531
C86	C	2.085652	0.163343	1.561531
C87	C	1.451192	-0.439778	1.061484
C88	C	1.951192	0.060222	1.561484
C89	C	1.451163	-0.439803	0.951761
C90	C	1.951163	0.060197	1.451761
C91	C	1.652850	-0.285142	0.896972
C92	C	2.152850	0.214858	1.396972
C93	C	1.720097	-0.233567	0.951853
C94	C	2.220097	0.266433	1.451853
C95	C	1.720122	-0.233538	1.061577
C96	C	2.220122	0.266462	1.561577
C97	C	1.652900	-0.285084	1.116420
C98	C	2.152900	0.214916	1.616420
H99	H	1.118383	-0.585299	0.761939
H100	H	1.618383	-0.085299	1.261939
O101	O	1.792597	-0.177977	0.892702
O102	O	2.292597	0.322023	1.392702
H103	H	1.774625	-0.114686	0.913770
H104	H	2.274625	0.385314	1.413770
O105	O	1.792647	-0.177915	1.120777
O106	O	2.292647	0.322085	1.620777
H107	H	1.839388	-0.142084	1.064209
H108	H	2.339388	0.357916	1.564209
H109	H	1.652913	-0.285046	1.205765
H110	H	2.152913	0.214954	1.705765
O111	O	1.246895	-0.491624	0.640244
O112	O	1.746895	0.008376	1.140244
H113	H	1.275778	-0.507847	0.560958
H114	H	1.775778	-0.007847	1.060958
O115	O	0.904765	-0.281082	0.366731
O116	O	1.404765	0.218918	0.866731
H117	H	0.961342	-0.245169	0.320095
H118	H	1.461342	0.254831	0.820095
H119	H	0.819757	-0.491660	0.640301
H120	H	1.319757	0.008340	1.140301
H121	H	1.396394	-0.481784	0.907076
H122	H	1.896394	0.018216	1.407076
O123	O	0.904807	-0.599057	0.779572
O124	O	1.404807	-0.099057	1.279572
H125	H	0.961395	-0.634988	0.826154
H126	H	1.461395	-0.134988	1.326154
O127	O	1.132846	-0.281063	0.366710
O128	O	1.632846	0.218937	0.866710
H129	H	1.076264	-0.245175	0.320064
H130	H	1.576264	0.254825	0.820064
O131	O	1.652816	-0.285172	0.778628
O132	O	2.152816	0.214828	1.278628
H133	H	1.710849	-0.240663	0.749715
H134	H	2.210849	0.259337	1.249715
H135	H	1.396463	-0.481744	1.106145
H136	H	1.896463	0.018256	1.606145
