data_functionalizedCrystal
_audit_creation_method	'MofGen! by Chris Wilmer'
_symmetry_space_group_name_H-M	'P1'
_symmetry_Int_Tables_number	1
_symmetry_cell_setting	triclinic
loop_
_symmetry_equiv_pos_as_xyz
  x,y,z
_cell_length_a	10.686496
_cell_length_b	10.685972
_cell_length_c	10.686551
_cell_angle_alpha	98.409768
_cell_angle_beta	90.362041
_cell_angle_gamma	90.350149
loop_
_atom_site_label
_atom_site_type_symbol
_atom_site_fract_x
_atom_site_fract_y
_atom_site_fract_z
Zn1	Zn	0.279300	-2.018959	-0.889979
Zn2	Zn	0.504991	-2.021258	-0.696484
Zn3	Zn	0.313967	-1.793262	-0.664321
Zn4	Zn	0.504864	-1.825371	-0.892379
O5	O	0.400780	-1.914712	-0.785791
O6	O	0.294783	-2.195699	-0.876767
O7	O	0.494213	-1.978538	-0.515796
O8	O	0.135024	-1.808801	-0.679790
O9	O	0.460598	-2.197388	-0.734607
O10	O	0.109554	-1.974621	-0.845580
O11	O	0.353868	-1.811030	-0.492166
O12	O	0.353745	-1.621086	-0.682117
O13	O	0.460381	-1.863526	-1.068482
O14	O	0.493996	-1.644677	-0.849671
O15	O	0.294660	-2.005755	-1.066718
O16	O	0.679318	-2.009673	-0.736935
O17	O	0.679225	-1.865755	-0.880858
C18	C	0.427619	-1.587134	-0.762665
C19	C	0.439129	-1.446999	-0.752804
C20	C	0.724472	-1.941484	-0.812677
C21	C	0.862936	-1.953055	-0.824229
C22	C	1.075824	-1.887822	-0.758818
C23	C	0.937360	-1.876232	-0.747294
C24	C	0.373830	-1.243569	-0.809000
C25	C	0.362325	-1.383705	-0.818874
C26	C	0.373639	-1.937966	-1.114623
C27	C	0.362073	-1.947876	-1.254752
C28	C	0.427720	-1.891614	-0.458235
C29	C	0.438915	-1.881920	-0.318094
H30	H	0.895149	-1.801614	-0.672590
C31	C	0.620021	-1.867891	-1.182528
C32	C	0.539674	-1.795456	-1.246584
H33	H	0.682220	-1.814509	-1.138368
H34	H	0.658985	-1.930335	-1.241731
H35	H	0.573345	-1.907939	-1.124025
H36	H	0.586348	-1.755415	-1.305095
H37	H	0.500707	-1.732989	-1.187374
H38	H	0.905154	-2.027686	-0.898930
C39	C	0.608528	-1.461658	-0.607107
C40	C	0.539794	-1.375430	-0.666244
H41	H	0.670667	-1.417471	-0.553665
H42	H	0.647566	-1.520858	-0.669499
H43	H	0.553963	-1.505108	-0.558034
H44	H	0.594359	-1.331986	-0.715325
H45	H	0.500755	-1.316207	-0.603844
C46	C	0.180946	-1.961913	-1.390306
C47	C	0.261302	-2.034345	-1.326255
H48	H	0.118731	-2.015295	-1.434440
H49	H	0.227603	-1.921881	-1.448818
H50	H	0.141992	-1.899453	-1.331092
H51	H	0.300263	-2.096800	-1.385471
H52	H	0.214638	-2.074397	-1.267737
C53	C	0.269363	-1.584898	-0.898782
C54	C	0.261667	-1.455271	-0.905431
H55	H	0.207225	-1.629083	-0.952227
H56	H	0.256237	-1.598885	-0.814086
H57	H	0.349846	-1.614639	-0.925546
H58	H	0.181187	-1.425527	-0.878658
H59	H	0.274783	-1.441276	-0.990146
