data_functionalizedCrystal
_audit_creation_method	'MofGen! by Chris Wilmer'
_symmetry_space_group_name_H-M	'P1'
_symmetry_Int_Tables_number	1
_symmetry_cell_setting	triclinic
loop_
_symmetry_equiv_pos_as_xyz
  x,y,z
_cell_length_a	10.654550
_cell_length_b	10.654558
_cell_length_c	9.730223
_cell_angle_alpha	89.998542
_cell_angle_beta	89.996251
_cell_angle_gamma	84.486531
loop_
_atom_site_label
_atom_site_type_symbol
_atom_site_fract_x
_atom_site_fract_y
_atom_site_fract_z
O1	O	1.667839	0.176393	-0.114403
O2	O	1.302361	0.193199	-0.114381
O3	O	1.493498	0.002057	-0.114383
O4	O	1.476702	0.367534	-0.114401
O5	O	1.493496	0.002062	0.114196
O6	O	1.302359	0.193203	0.114198
O7	O	1.667837	0.176397	0.114176
Zn8	Zn	1.485097	0.184801	0.150479
Zn9	Zn	1.485100	0.184795	-0.150684
O10	O	1.476700	0.367539	0.114178
C11	C	1.255562	0.191967	-0.000089
C12	C	1.116119	0.188275	-0.000080
C13	C	1.492261	-0.044738	-0.000094
C14	C	1.488566	-0.184181	-0.000095
C15	C	1.036636	0.300816	-0.000106
C16	C	0.905615	0.297340	-0.000129
C17	C	0.933572	0.068771	-0.000107
C18	C	1.064590	0.072249	-0.000074
C19	C	1.020494	0.432779	-0.000124
C20	C	0.889473	0.429302	-0.000148
C21	C	1.486826	-0.249700	0.124498
C22	C	1.483364	-0.380723	0.124486
C23	C	1.483376	-0.380695	-0.124725
C24	C	1.486847	-0.249676	-0.124711
C25	C	1.552066	-0.568775	0.274161
C26	C	1.550305	-0.634295	0.398761
C27	C	1.477963	-0.582803	0.508780
C28	C	1.407353	-0.465788	0.494205
C29	C	1.409103	-0.400273	0.369603
C30	C	1.481473	-0.451767	0.259588
C31	C	1.418134	-0.061620	-0.274377
C32	C	1.419875	0.003898	-0.398981
C33	C	1.492209	-0.047591	-0.509012
C34	C	1.562801	-0.164608	-0.494450
C35	C	1.561060	-0.230126	-0.369846
C36	C	1.488729	-0.178628	-0.259815
C37	C	1.714636	0.177629	-0.000119
C38	C	1.854079	0.181321	-0.000137
C39	C	1.477936	0.414334	-0.000114
C40	C	1.481632	0.553777	-0.000122
N41	N	1.485105	0.184805	0.356016
N42	N	1.485103	0.184781	-0.356221
C43	C	1.569762	0.100196	0.427941
C44	C	1.569759	0.100181	0.571824
C45	C	1.400437	0.269394	0.571844
C46	C	1.400435	0.269402	0.427964
C47	C	1.667523	0.002506	0.427931
C48	C	1.667519	0.002491	0.571814
H49	H	1.129301	-0.019393	-0.000033
C50	C	0.833085	0.496455	-0.129385
H51	H	0.744174	0.494104	-0.129387
H52	H	0.867888	0.455033	-0.209096
H53	H	0.852388	0.581669	-0.129383
H54	H	1.646077	-0.094026	0.388883
C55	C	0.827755	0.483213	0.133134
H56	H	0.739193	0.478972	0.128568
H57	H	0.844864	0.568557	0.143639
H58	H	0.861118	0.435356	0.209419
H59	H	0.891601	-0.025694	-0.000123
H60	H	1.056152	0.474796	-0.098814
H61	H	1.331500	0.338270	0.630439
C62	C	1.494123	0.024480	-0.646074
H63	H	1.441723	0.101547	-0.638995
H64	H	1.463845	-0.025374	-0.717512
H65	H	1.577993	0.041749	-0.666256
H66	H	1.618536	-0.325414	-0.358000
C67	C	1.331451	-0.271565	0.353565
H68	H	1.288115	-0.250276	0.436937
H69	H	1.272098	-0.276053	0.281309
H70	H	1.386251	-0.208949	0.332582
C71	C	1.488731	-0.177661	0.261569
H72	H	1.487211	-0.235453	0.335769
H73	H	1.416978	-0.117611	0.266763
H74	H	1.563204	-0.135493	0.266748
C75	C	1.627974	-0.763001	0.414802
H76	H	1.616553	-0.794651	0.504760
H77	H	1.714700	-0.753322	0.400411
H78	H	1.600557	-0.820443	0.349140
C79	C	1.327769	-0.409155	0.615227
H80	H	1.336847	-0.464928	0.691525
H81	H	1.241617	-0.397360	0.588793
H82	H	1.355768	-0.330239	0.640044
C83	C	1.790704	0.043814	0.367624
H84	H	1.845563	0.062197	0.440331
H85	H	1.772195	0.116946	0.312674
H86	H	1.830363	-0.022236	0.312674
C87	C	1.307305	0.362464	0.348850
H88	H	1.256890	0.412850	0.412310
H89	H	1.254641	0.316796	0.292723
H90	H	1.352935	0.415180	0.292724
C91	C	1.626298	-0.120733	0.632112
H92	H	1.627691	-0.116534	0.729623
H93	H	1.682479	-0.189878	0.601962
H94	H	1.543271	-0.131788	0.601970
C95	C	1.631679	-0.625395	0.153154
H96	H	1.622633	-0.569608	0.076866
H97	H	1.603709	-0.704313	0.128318
H98	H	1.717829	-0.637173	0.179625
C99	C	1.797886	0.031565	0.624576
H100	H	1.797881	0.031542	0.722213
H101	H	1.815772	0.112004	0.592049
H102	H	1.860432	-0.030935	0.592031
C103	C	1.060128	0.502513	0.129092
H104	H	0.987519	0.528820	0.182222
H105	H	1.100914	0.574172	0.102515
H106	H	1.116389	0.447555	0.182270
C107	C	1.342303	0.132660	-0.414973
H108	H	1.353714	0.164312	-0.504933
H109	H	1.369796	0.190046	-0.349306
H110	H	1.255556	0.123063	-0.400558
C111	C	1.338549	-0.004987	-0.153349
H112	H	1.296736	0.074074	-0.179878
H113	H	1.391957	0.006520	-0.077127
H114	H	1.277825	-0.060618	-0.128400
H115	H	1.476530	-0.636159	0.610232
H116	H	1.481973	-0.434037	-0.226182
H117	H	1.621684	-0.206543	-0.584053
