data_functionalizedCrystal
_audit_creation_method	'MofGen! by Chris Wilmer'
_symmetry_space_group_name_H-M	'P1'
_symmetry_Int_Tables_number	1
_symmetry_cell_setting	triclinic
loop_
_symmetry_equiv_pos_as_xyz
  x,y,z
_cell_length_a	14.971486
_cell_length_b	27.731993
_cell_length_c	26.809956
_cell_angle_alpha	89.997216
_cell_angle_beta	89.995860
_cell_angle_gamma	83.117261
loop_
_atom_site_label
_atom_site_type_symbol
_atom_site_fract_x
_atom_site_fract_y
_atom_site_fract_z
O1	O	0.106182	0.641438	0.041346
O2	O	0.606182	1.141438	0.541346
O3	O	0.122416	0.500716	0.041376
O4	O	0.622416	1.000716	0.541376
O5	O	-0.015962	0.574849	0.041357
O6	O	0.484038	1.074849	0.541357
O7	O	0.244560	0.567305	0.041365
O8	O	0.744560	1.067305	0.541365
O9	O	-0.015941	0.574835	-0.041603
O10	O	0.484059	1.074835	0.458397
O11	O	0.122437	0.500702	-0.041583
O12	O	0.622437	1.000702	0.458417
O13	O	0.106203	0.641424	-0.041614
O14	O	0.606203	1.141424	0.458386
Zn15	Zn	0.114323	0.571061	-0.054770
Zn16	Zn	0.614323	1.071061	0.445230
Zn17	Zn	0.114296	0.571079	0.054533
Zn18	Zn	0.614296	1.071079	0.554533
O19	O	0.244581	0.567291	-0.041594
O20	O	0.744581	1.067291	0.458406
C21	C	0.122093	0.482700	-0.000100
C22	C	0.622093	0.982700	0.499900
C23	C	0.121090	0.429039	-0.000088
C24	C	0.621090	0.929039	0.499912
C25	C	0.113805	0.045853	0.045109
C26	C	0.613805	0.545853	0.545109
C27	C	0.117630	0.247528	0.045122
C28	C	0.617630	0.747528	0.545122
O29	O	0.118079	0.273610	0.083582
O30	O	0.618079	0.773610	0.583582
N31	N	0.118120	0.272743	-0.000098
N32	N	0.618120	0.772743	0.499902
C33	C	0.117648	0.247536	-0.045324
C34	C	0.617648	0.747536	0.454676
O35	O	0.118143	0.273611	-0.083787
O36	O	0.618143	0.773611	0.416213
C37	C	0.113817	0.045863	-0.045338
C38	C	0.613817	0.545863	0.454662
C39	C	0.113336	0.020650	-0.000115
C40	C	0.613336	0.520650	0.499885
C41	C	0.113323	0.020640	0.090328
C42	C	0.613323	0.520640	0.590328
C43	C	0.112372	-0.029776	0.090324
C44	C	0.612372	0.470224	0.590324
C45	C	0.111903	-0.054979	0.045101
C46	C	0.611903	0.445021	0.545101
C47	C	0.112384	-0.029766	-0.000118
C48	C	0.612384	0.470234	0.499882
C49	C	0.113338	0.020657	-0.090564
C50	C	0.613338	0.520657	0.409436
C51	C	0.112378	-0.029764	-0.090563
C52	C	0.612378	0.470236	0.409437
C53	C	0.111897	-0.054977	-0.045340
C54	C	0.611897	0.445023	0.454660
C55	C	0.110964	-0.105386	-0.045346
C56	C	0.610964	0.394614	0.454654
N57	N	0.110474	-0.130600	-0.000125
N58	N	0.610474	0.369400	0.499875
C59	C	0.110943	-0.105397	0.045098
C60	C	0.610943	0.394603	0.545098
C61	C	0.119661	0.353418	-0.045314
C62	C	0.619661	0.853418	0.454686
C63	C	0.120620	0.403836	-0.045311
C64	C	0.620620	0.903836	0.454689
C65	C	0.120601	0.403824	0.045136
C66	C	0.620601	0.903824	0.545136
C67	C	0.119648	0.353405	0.045132
C68	C	0.619648	0.853405	0.545132
C69	C	0.119171	0.328203	-0.000094
C70	C	0.619171	0.828203	0.499906
C71	C	0.108946	-0.211275	0.045086
C72	C	0.608946	0.288725	0.545086
C73	C	0.107999	-0.261696	0.045078
C74	C	0.607999	0.238304	0.545078
C75	C	0.108014	-0.261679	-0.045368
C76	C	0.608014	0.238321	0.454632
C77	C	0.108966	-0.211263	-0.045361
C78	C	0.608966	0.288737	0.454639
C79	C	0.109429	-0.186062	-0.000129
C80	C	0.609429	0.313938	0.499871
O81	O	0.110504	-0.131498	-0.083785
O82	O	0.610504	0.368502	0.416215
O83	O	0.110428	-0.131480	0.083554
O84	O	0.610428	0.368520	0.583554
C85	C	0.114756	0.096269	0.045112
C86	C	0.614756	0.596269	0.545112
C87	C	0.115238	0.121482	-0.000107
C88	C	0.615238	0.621482	0.499893
C89	C	0.114769	0.096279	-0.045330
C90	C	0.614769	0.596279	0.454670
C91	C	0.116198	0.171900	-0.000104
C92	C	0.616198	0.671900	0.499896
C93	C	0.116667	0.197103	0.045119
C94	C	0.616667	0.697103	0.545119
C95	C	0.116177	0.171888	0.090340
C96	C	0.616177	0.671888	0.590340
C97	C	0.115226	0.121472	0.090336
C98	C	0.615226	0.621472	0.590336
C99	C	0.115259	0.121494	-0.090550
C100	C	0.615259	0.621494	0.409450
C101	C	0.116211	0.171910	-0.090543
C102	C	0.616211	0.671910	0.409457
C103	C	0.116680	0.197113	-0.045319
C104	C	0.616680	0.697113	0.454681
C105	C	-0.049271	0.574505	-0.000123
C106	C	0.450729	1.074505	0.499877
C107	C	-0.148551	0.573494	-0.000122
C108	C	0.351449	1.073494	0.499878
C109	C	-0.206481	0.617045	-0.000132
C110	C	0.293519	1.117045	0.499868
C111	C	-0.299765	0.616092	-0.000127
C112	C	0.200235	1.116092	0.499873
C113	C	-0.335118	0.571587	-0.000115
C114	C	0.164882	1.071587	0.499885
C115	C	-0.277181	0.528033	-0.000104
C116	C	0.222819	1.028033	0.499896
C117	C	-0.183899	0.528986	-0.000106
C118	C	0.316101	1.028986	0.499894
C119	C	-0.471612	0.526049	-0.000102
C120	C	0.028388	1.026049	0.499898
C121	C	-0.564900	0.525096	-0.000101
C122	C	-0.064900	1.025096	0.499899
C123	C	-0.587477	0.613155	-0.000123
C124	C	-0.087477	1.113155	0.499877
C125	C	-0.494195	0.614108	-0.000124
C126	C	0.005805	1.114108	0.499876
C127	C	-0.436265	0.570553	-0.000114
C128	C	0.063735	1.070553	0.499886
C129	C	0.277890	0.567636	-0.000113
C130	C	0.777890	1.067636	0.499887
C131	C	0.377171	0.568647	-0.000111
C132	C	0.877171	1.068647	0.499889
C133	C	0.106526	0.659440	-0.000137
C134	C	0.606526	1.159440	0.499863
C135	C	0.107529	0.713101	-0.000145
C136	C	0.607529	1.213101	0.499855
N137	N	0.114342	0.571052	-0.129366
N138	N	0.614342	1.071052	0.370634
C139	C	0.053037	0.603901	-0.474001
C140	C	0.553037	1.103901	0.025999
C141	C	0.053023	0.603913	-0.682878
C142	C	0.553023	1.103913	-0.182878
O143	O	0.000905	0.631823	-0.709889
O144	O	0.500905	1.131823	-0.209889
N145	N	0.114276	0.571082	-0.708993
N146	N	0.614276	1.071082	-0.208993
C147	C	0.175532	0.538244	-0.682885
C148	C	0.675532	1.038244	-0.182885
O149	O	0.227625	0.510316	-0.709890
O150	O	0.727625	1.010316	-0.209890
C151	C	0.175541	0.538231	-0.474008
C152	C	0.675541	1.038231	0.025992
C153	C	0.114291	0.571067	-0.447896
C154	C	0.614291	1.071067	0.052104
C155	C	-0.008209	0.636734	-0.447889
C156	C	0.491791	1.136734	0.052111
C157	C	-0.008202	0.636733	-0.395672
C158	C	0.491798	1.136733	0.104328
C159	C	0.053052	0.603898	-0.369568
C160	C	0.553052	1.103898	0.130432
C161	C	0.114298	0.571065	-0.395680
C162	C	0.614298	1.071065	0.104320
C163	C	0.236793	0.505391	-0.447901
C164	C	0.736793	1.005391	0.052099
C165	C	0.236788	0.505389	-0.395679
C166	C	0.736788	1.005389	0.104321
C167	C	0.175537	0.538226	-0.369567
C168	C	0.675537	1.038226	0.130433
C169	C	0.175559	0.538229	-0.317359
C170	C	0.675559	1.038229	0.182641
N171	N	0.114306	0.571060	-0.291245
N172	N	0.614306	1.071060	0.208755
C173	C	0.053053	0.603895	-0.317349
C174	C	0.553053	1.103895	0.182651
C175	C	0.175525	0.538254	-0.792548
C176	C	0.675525	1.038254	-0.292548
C177	C	0.175524	0.538258	-0.844767
C178	C	0.675524	1.038258	-0.344767
C179	C	0.053013	0.603926	-0.844757
C180	C	0.553013	1.103926	-0.344757
C181	C	0.053019	0.603924	-0.792537
C182	C	0.553019	1.103924	-0.292537
C183	C	0.114272	0.571085	-0.766434
C184	C	0.614272	1.071085	-0.266434
C185	C	0.053073	0.603889	-0.207691
C186	C	0.553073	1.103889	0.292309
C187	C	0.053088	0.603886	-0.155470
C188	C	0.553088	1.103886	0.344530
C189	C	0.175595	0.538217	-0.155485
C190	C	0.675595	1.038217	0.344515
C191	C	0.175584	0.538221	-0.207701
C192	C	0.675584	1.038221	0.292299
C193	C	0.114315	0.571059	-0.233803
C194	C	0.614315	1.071059	0.266197
O195	O	0.227643	0.510330	-0.290316
O196	O	0.727643	1.010330	0.209684
O197	O	0.000955	0.631811	-0.290335
O198	O	0.500955	1.131811	0.209665
C199	C	0.053030	0.603903	-0.526217
C200	C	0.553030	1.103903	-0.026217
C201	C	0.114276	0.571070	-0.552329
C202	C	0.614276	1.071070	-0.052329
C203	C	0.175530	0.538235	-0.526225
C204	C	0.675530	1.038235	-0.026225
C205	C	0.114275	0.571073	-0.604548
C206	C	0.614275	1.071073	-0.104548
C207	C	0.053022	0.603908	-0.630652
C208	C	0.553022	1.103908	-0.130652
C209	C	-0.008231	0.636739	-0.604537
C210	C	0.491769	1.136739	-0.104537
C211	C	-0.008224	0.636737	-0.552321
C212	C	0.491776	1.136737	-0.052321
C213	C	0.236782	0.505404	-0.552339
C214	C	0.736782	1.005404	-0.052339
C215	C	0.236771	0.505409	-0.604556
C216	C	0.736771	1.005409	-0.104556
C217	C	0.175517	0.538243	-0.630660
C218	C	0.675517	1.038243	-0.130660
N219	N	0.114270	0.571092	0.129129
N220	N	0.614270	1.071092	0.629129
H221	H	0.114834	0.100948	0.127161
H222	H	0.614834	0.600948	0.627161
H223	H	0.113702	0.041155	0.127156
H224	H	0.613702	0.541155	0.627156
Cl225	Cl	-0.372587	0.670844	-0.000140
Cl226	Cl	0.127413	1.170844	0.499860
H227	H	-0.424446	0.490582	-0.000092
H228	H	0.075554	0.990582	0.499908
Cl229	Cl	0.313782	0.464127	-0.637376
Cl230	Cl	0.813782	0.964127	-0.137376
Cl231	Cl	0.111773	-0.061443	-0.147423
Cl232	Cl	0.611773	0.438557	0.352577
H233	H	0.003139	0.630662	-0.866020
H234	H	0.503139	1.130662	-0.366020
Cl235	Cl	0.113942	0.052341	-0.147419
Cl236	Cl	0.613942	0.552341	0.352581
H237	H	-0.465414	0.650347	-0.000137
H238	H	0.034586	1.150347	0.499863
Cl239	Cl	-0.321625	0.472084	-0.000083
Cl240	Cl	0.178375	0.972084	0.499917
Cl241	Cl	-0.162047	0.672996	-0.000151
Cl242	Cl	0.337953	1.172996	0.499849
Cl243	Cl	0.107396	-0.293389	0.101934
Cl244	Cl	0.607396	0.206611	0.601934
H245	H	0.109375	-0.190735	-0.082185
H246	H	0.609375	0.309265	0.417815
Cl247	Cl	-0.660303	0.667909	-0.000133
Cl248	Cl	-0.160303	1.167909	0.499867
H249	H	-0.593681	0.488856	-0.000100
H250	H	-0.093681	0.988856	0.499900
Cl251	Cl	-0.111073	0.474234	-0.000091
Cl252	Cl	0.388927	0.974234	0.499909
Cl253	Cl	0.121192	0.435517	0.101987
Cl254	Cl	0.621192	0.935517	0.601987
Cl255	Cl	0.121243	0.435525	-0.102165
Cl256	Cl	0.621243	0.935525	0.397835
Cl257	Cl	-0.023917	0.645170	-0.122646
Cl258	Cl	0.476083	1.145170	0.377354
Cl259	Cl	0.111758	-0.061464	0.147179
Cl260	Cl	0.611758	0.438536	0.647179
Cl261	Cl	-0.023950	0.645173	-0.240496
Cl262	Cl	0.476050	1.145173	0.259504
H263	H	0.225468	0.511488	-0.228962
H264	H	0.725468	1.011488	0.271038
Cl265	Cl	0.119040	0.321714	0.101986
Cl266	Cl	0.619040	0.821714	0.601986
Cl267	Cl	0.107426	-0.293373	-0.102217
Cl268	Cl	0.607426	0.206627	0.397783
Cl269	Cl	-0.085230	0.678018	-0.519502
Cl270	Cl	0.414770	1.178018	-0.019502
Cl271	Cl	-0.085211	0.678011	-0.362851
Cl272	Cl	0.414789	1.178011	0.137149
H273	H	-0.058093	0.663472	-0.469138
H274	H	0.441907	1.163472	0.030862
H275	H	0.116564	0.192417	0.127162
H276	H	0.616564	0.692417	0.627162
Cl277	Cl	0.119075	0.321742	-0.102176
Cl278	Cl	0.619075	0.821742	0.397824
Cl279	Cl	0.114679	0.089817	-0.147408
Cl280	Cl	0.614679	0.589817	0.352592
Cl281	Cl	0.313796	0.464102	-0.362867
Cl282	Cl	0.813796	0.964102	0.137133
H283	H	0.116610	0.192433	-0.127371
H284	H	0.616610	0.692433	0.372629
H285	H	0.003143	0.630662	-0.771280
H286	H	0.503143	1.130662	-0.271280
H287	H	-0.058103	0.663476	-0.625800
H288	H	0.441897	1.163476	-0.125800
H289	H	0.225409	0.511525	-0.866024
H290	H	0.725409	1.011525	-0.366024
Cl291	Cl	0.252538	0.496968	-0.759738
Cl292	Cl	0.752538	0.996968	-0.259738
Cl293	Cl	0.109531	-0.179601	0.101949
Cl294	Cl	0.609531	0.320399	0.601949
H295	H	0.286661	0.478666	-0.531089
H296	H	0.786661	0.978666	-0.031089
Cl297	Cl	0.313795	0.464108	-0.480717
Cl298	Cl	0.813795	0.964108	0.019283
H299	H	0.225470	0.511485	-0.134223
H300	H	0.725470	1.011485	0.365777
