data_functionalizedCrystal
_audit_creation_method	'MofGen! by Chris Wilmer'
_symmetry_space_group_name_H-M	'P1'
_symmetry_Int_Tables_number	1
_symmetry_cell_setting	triclinic
loop_
_symmetry_equiv_pos_as_xyz
  x,y,z
_cell_length_a	27.731994
_cell_length_b	27.732048
_cell_length_c	26.809956
_cell_angle_alpha	89.975675
_cell_angle_beta	89.985586
_cell_angle_gamma	82.631595
loop_
_atom_site_label
_atom_site_type_symbol
_atom_site_fract_x
_atom_site_fract_y
_atom_site_fract_z
O1	O	0.640954	0.057401	-0.041414
O2	O	0.500157	0.066174	-0.041431
O3	O	0.574929	-0.008610	-0.041412
O4	O	0.566183	0.132185	-0.041432
O5	O	0.574902	-0.008630	0.041547
O6	O	0.500131	0.066154	0.041528
O7	O	0.640928	0.057381	0.041545
Zn8	Zn	0.570525	0.061764	0.054708
Zn9	Zn	0.570560	0.061791	-0.054594
O10	O	0.566156	0.132165	0.041527
C11	C	0.482137	0.065984	0.000046
C12	C	0.428480	0.065442	0.000040
C13	C	0.574732	-0.026627	0.000069
C14	C	0.574179	-0.080282	0.000073
C15	C	0.095747	0.062015	0.045281
C16	C	-0.105911	0.059953	0.045287
O17	O	-0.131996	0.059657	0.083746
N18	N	-0.131111	0.059708	0.000066
C19	C	-0.105894	0.059975	-0.045160
O20	O	-0.131954	0.059715	-0.083623
C21	C	0.095764	0.062034	-0.045165
C22	C	0.120961	0.062283	0.000059
C23	C	0.120945	0.062264	0.090501
C24	C	0.171356	0.062782	0.090499
C25	C	0.196570	0.063051	0.045277
C26	C	0.171372	0.062801	0.000057
C27	C	0.120981	0.062297	-0.090390
C28	C	0.171399	0.062811	-0.090388
C29	C	0.196596	0.063060	-0.045164
C30	C	0.246997	0.063588	-0.045167
N31	N	0.272198	0.063833	0.000054
C32	C	0.246984	0.063565	0.045276
C33	C	-0.211767	0.058896	-0.045154
C34	C	-0.262181	0.058382	-0.045152
C35	C	-0.262195	0.058359	0.045294
C36	C	-0.211780	0.058876	0.045293
C37	C	-0.186566	0.059141	0.000067
C38	C	0.352851	0.064653	0.045268
C39	C	0.403266	0.065173	0.045262
C40	C	0.403276	0.065193	-0.045184
C41	C	0.352865	0.064676	-0.045179
C42	C	0.327654	0.064404	0.000052
O43	O	0.273114	0.063880	-0.083606
O44	O	0.273055	0.063815	0.083733
C45	C	0.045336	0.061497	0.045283
C46	C	0.020139	0.061247	0.000063
C47	C	0.045353	0.061516	-0.045160
C48	C	-0.030275	0.060734	0.000064
C49	C	-0.055489	0.060465	0.045286
C50	C	-0.030289	0.060710	0.090507
C51	C	0.020122	0.061228	0.090505
C52	C	0.020153	0.061271	-0.090381
C53	C	-0.030259	0.060753	-0.090375
C54	C	-0.055473	0.060485	-0.045153
C55	C	0.614884	-0.419105	0.000052
C56	C	0.612833	-0.620764	0.000045
O57	O	0.650055	-0.652027	0.000028
N58	N	0.568496	-0.639879	0.000040
C59	C	0.524670	-0.608576	0.000033
O60	O	0.486912	-0.629462	0.000024
C61	C	0.526721	-0.406918	0.000037
C62	C	0.571060	-0.387806	0.000047
C63	C	0.659220	-0.399992	0.000061
C64	C	0.659732	-0.349580	0.000066
C65	C	0.615908	-0.318281	0.000061
C66	C	0.571573	-0.337394	0.000052
C67	C	0.482895	-0.375615	0.000027
C68	C	0.483412	-0.325198	0.000027
C69	C	0.527751	-0.306086	0.000037
C70	C	0.528262	-0.255683	0.000051
N71	N	0.572598	-0.236568	0.000056
C72	C	0.616421	-0.267867	0.000061
C73	C	0.523596	-0.714450	0.000032
C74	C	0.523083	-0.764864	0.000032
C75	C	0.611246	-0.777049	0.000043
C76	C	0.611759	-0.726633	0.000047
C77	C	0.567932	-0.695335	0.000037
C78	C	0.617494	-0.161998	0.000071
C79	C	0.618002	-0.111581	0.000078
C80	C	0.529839	-0.099401	0.000064
C81	C	0.529331	-0.149813	0.000060
C82	C	0.573162	-0.181111	0.000062
O83	O	0.491060	-0.224391	0.000063
O84	O	0.654174	-0.246971	0.000060
C85	C	0.614372	-0.469517	0.000047
C86	C	0.570036	-0.488629	0.000038
C87	C	0.526213	-0.457330	0.000033
C88	C	0.569523	-0.539044	0.000038
C89	C	0.613346	-0.570343	0.000043
C90	C	0.657683	-0.551228	0.000048
C91	C	0.658195	-0.500816	0.000052
C92	C	0.481876	-0.476445	0.000028
C93	C	0.481367	-0.526858	0.000024
C94	C	0.525191	-0.558157	0.000029
C95	C	0.658949	0.057571	0.000067
C96	C	0.712605	0.058113	0.000070
C97	C	0.566353	0.150182	0.000045
C98	C	0.566906	0.203837	0.000037
N99	N	0.570505	0.061746	0.129304
N100	N	0.570584	0.061805	-0.129190
C101	C	0.541454	0.032657	0.526198
C102	C	0.541431	0.032644	0.317320
O103	O	0.516699	0.007871	0.290329
N104	N	0.570524	0.061753	0.291183
C105	C	0.599628	0.090866	0.317268
O106	O	0.624376	0.115621	0.290244
C107	C	0.599653	0.090876	0.526145
C108	C	0.570554	0.061768	0.552280
C109	C	0.512358	0.003552	0.552333
C110	C	0.512362	0.003557	0.604549
C111	C	0.541462	0.032668	0.630631
C112	C	0.570558	0.061774	0.604496
C113	C	0.628758	0.119985	0.552229
C114	C	0.628763	0.119984	0.604451
C115	C	0.599664	0.090877	0.630586
C116	C	0.599662	0.090891	0.682794
N117	N	0.570569	0.061781	0.708931
C118	C	0.541469	0.032670	0.682850
C119	C	0.599612	0.090859	0.207605
C120	C	0.599605	0.090857	0.155386
C121	C	0.541409	0.032635	0.155442
C122	C	0.541413	0.032639	0.207662
C123	C	0.570518	0.061749	0.233742
C124	C	0.541479	0.032685	0.792508
C125	C	0.541484	0.032694	0.844729
C126	C	0.599682	0.090915	0.844668
C127	C	0.599675	0.090907	0.792452
C128	C	0.570572	0.061788	0.766373
O129	O	0.624386	0.115647	0.709818
O130	O	0.516732	0.007911	0.709883
C131	C	0.541450	0.032652	0.473982
C132	C	0.570546	0.061757	0.447847
C133	C	0.599646	0.090868	0.473928
C134	C	0.570539	0.061755	0.395628
C135	C	0.541439	0.032644	0.369547
C136	C	0.512346	0.003535	0.395684
C137	C	0.512350	0.003540	0.447900
C138	C	0.628739	0.119978	0.447791
C139	C	0.628732	0.119970	0.395575
C140	C	0.599632	0.090859	0.369493
H141	H	0.423779	0.065378	0.082091
H142	H	0.040633	0.061432	0.127331
C143	C	0.325463	0.064509	-0.094261
C144	C	0.290771	0.105819	-0.096914
C145	C	0.265527	0.105681	-0.142124
H146	H	0.309656	0.036139	-0.096184
H147	H	0.347680	0.064772	-0.121210
H148	H	0.268556	0.105553	-0.069973
H149	H	0.306564	0.134196	-0.095000
H150	H	0.287745	0.105943	-0.169073
H151	H	0.249723	0.077309	-0.144043
H152	H	0.241989	0.133711	-0.143932
H153	H	-0.050770	0.060554	-0.127205
H154	H	0.694908	-0.425472	0.000064
H155	H	0.647863	-0.711076	0.000054
H156	H	0.423814	0.065414	-0.082003
H157	H	0.646929	-0.802541	0.000047
H158	H	0.517719	0.008937	0.228937
H159	H	0.446789	-0.391167	0.000016
C160	C	0.509826	0.001173	0.873129
C161	C	0.476864	0.030717	0.903094
C162	C	0.447691	0.001697	0.929256
H163	H	0.529747	-0.021220	0.893546
H164	H	0.492468	-0.016156	0.850130
H165	H	0.494221	0.048037	0.926090
H166	H	0.456933	0.053109	0.882690
H167	H	0.430333	-0.015631	0.906257
H168	H	0.467615	-0.020694	0.949670
H169	H	0.425320	0.021739	0.949587
H170	H	0.445258	-0.542413	0.000020
H171	H	0.332329	0.064436	0.082099
H172	H	-0.050827	0.060494	0.127329
H173	H	0.100475	0.062093	-0.127217
H174	H	0.493226	-0.165375	0.000066
H175	H	0.652465	0.143689	0.625684
H176	H	-0.282733	0.058141	0.082116
H177	H	0.040677	0.061488	-0.127207
H178	H	0.446189	-0.450966	0.000023
C179	C	0.482246	-0.065437	0.000158
C180	C	0.455510	-0.074027	0.042837
C181	C	0.411667	-0.042744	0.042939
H182	H	0.464004	-0.071155	-0.028743
H183	H	0.488883	-0.032668	0.000186
H184	H	0.448871	-0.106788	0.042805
H185	H	0.473737	-0.068306	0.071745
H186	H	0.418305	-0.009975	0.042967
H187	H	0.393431	-0.048464	0.014036
H188	H	0.393524	-0.048564	0.071898
C189	C	0.660380	0.151590	0.367293
C190	C	0.685873	0.177073	0.401318
C191	C	0.715039	0.206197	0.375286
H192	H	0.640460	0.174019	0.346914
H193	H	0.682799	0.131628	0.346939
H194	H	0.663457	0.197034	0.421663
H195	H	0.705802	0.154657	0.421699
H196	H	0.737458	0.186234	0.354931
H197	H	0.695115	0.228622	0.354907
H198	H	0.732343	0.223487	0.398367
C199	C	0.631131	0.122502	0.235982
C200	C	0.601584	0.155441	0.265966
C201	C	0.630601	0.184594	0.292117
H202	H	0.648462	0.139882	0.212991
H203	H	0.653522	0.102551	0.256382
H204	H	0.579201	0.175389	0.245568
H205	H	0.584253	0.138074	0.288966
H206	H	0.652992	0.164644	0.312517
H207	H	0.647931	0.201972	0.269122
H208	H	0.610558	0.206944	0.312467
H209	H	0.447722	-0.299716	0.000018
H210	H	0.191925	0.063026	-0.127217
H211	H	0.488661	-0.020157	0.531103
C212	C	0.666195	-0.090926	0.000061
C213	C	0.704462	-0.129131	0.000049
C214	C	0.748862	-0.110124	0.000025
H215	H	0.668290	-0.071533	0.028984
H216	H	0.668263	-0.071514	-0.028879
H217	H	0.702395	-0.148534	0.028986
H218	H	0.702383	-0.148527	-0.028872
H219	H	0.750930	-0.090712	-0.028914
H220	H	0.750951	-0.090731	0.028949
H221	H	0.774831	-0.136042	0.000013
C222	C	0.198625	0.063022	0.139653
C223	C	0.165747	0.062662	0.179251
C224	C	0.190848	0.062875	0.224541
H225	H	0.214396	0.091414	0.141605
H226	H	0.222181	0.035011	0.141565
H227	H	0.142200	0.090671	0.177340
H228	H	0.149976	0.034273	0.177316
H229	H	0.214404	0.034864	0.226453
H230	H	0.206617	0.091266	0.226488
H231	H	0.168545	0.062626	0.251414
H232	H	0.488655	-0.020162	0.469175
H233	H	0.517713	0.008932	0.134197
H234	H	0.486977	-0.780420	0.000033
H235	H	0.487905	-0.688970	0.000025
H236	H	0.694301	-0.485260	0.000060
C237	C	-0.289445	0.058093	-0.094306
C238	C	-0.256565	0.058425	-0.133906
C239	C	-0.281660	0.058150	-0.179194
H240	H	-0.313011	0.086084	-0.096263
H241	H	-0.305200	0.029682	-0.096210
H242	H	-0.240818	0.086833	-0.132003
H243	H	-0.232998	0.030436	-0.131965
H244	H	-0.297414	0.029739	-0.181098
H245	H	-0.305225	0.086141	-0.181147
H246	H	-0.259354	0.058370	-0.206069
H247	H	0.693365	-0.576720	0.000054
C248	C	0.665067	-0.195997	-0.000027
C249	C	0.667376	-0.225270	-0.042715
C250	C	0.711195	-0.256590	-0.042822
H251	H	0.666738	-0.215975	0.028868
H252	H	0.691556	-0.177404	-0.000047
H253	H	0.640894	-0.243860	-0.042691
H254	H	0.665713	-0.205305	-0.071617
H255	H	0.737684	-0.237998	-0.042842
H256	H	0.712862	-0.276565	-0.013925
H257	H	0.712769	-0.276453	-0.071787
C258	C	0.660400	0.151503	0.476128
C259	C	0.693370	0.121968	0.506102
C260	C	0.722548	0.150996	0.532206
H261	H	0.640484	0.173901	0.496534
H262	H	0.677753	0.168825	0.453094
H263	H	0.676019	0.104654	0.529134
H264	H	0.713296	0.099570	0.485710
H265	H	0.739901	0.168318	0.509171
H266	H	0.702629	0.173393	0.552608
H267	H	0.744925	0.130960	0.552543
H268	H	-0.191268	0.059080	0.082118
C269	C	0.480801	-0.028055	0.367270
C270	C	0.487038	-0.021833	0.315947
C271	C	0.457995	-0.050930	0.289755
H272	H	0.447643	-0.018868	0.375773
H273	H	0.490036	-0.061205	0.375810
H274	H	0.477801	0.011310	0.307411
H275	H	0.520190	-0.031023	0.307430
H276	H	0.467230	-0.084080	0.298295
H277	H	0.424839	-0.041740	0.298261
H278	H	0.462226	-0.046716	0.254929
C279	C	0.631246	0.122479	0.127104
C280	C	0.656740	0.147961	0.161129
C281	C	0.685900	0.177090	0.135097
H282	H	0.611322	0.144908	0.106728
H283	H	0.653665	0.102521	0.106747
H284	H	0.634323	0.167919	0.181478
H285	H	0.676672	0.125545	0.181506
H286	H	0.708319	0.157132	0.114739
H287	H	0.665973	0.199516	0.114721
H288	H	0.703204	0.194380	0.158178
C289	C	0.631315	0.122528	0.764164
C290	C	0.656807	0.148017	0.798184
C291	C	0.685966	0.177143	0.772148
H292	H	0.611391	0.144953	0.743784
H293	H	0.653735	0.102567	0.743809
H294	H	0.634389	0.167976	0.818530
H295	H	0.676739	0.125604	0.818566
H296	H	0.708387	0.157182	0.751794
H297	H	0.666039	0.199565	0.751769
H298	H	0.703269	0.194437	0.795227
H299	H	0.517781	0.008973	0.771280
H300	H	0.100421	0.062044	0.127329
H301	H	0.695837	-0.334024	0.000072
C302	C	0.480759	-0.028102	0.632832
C303	C	0.455287	-0.053607	0.598808
C304	C	0.426176	-0.082784	0.624841
H305	H	0.458325	-0.008189	0.653204
H306	H	0.500729	-0.050515	0.653194
H307	H	0.435319	-0.031197	0.578455
H308	H	0.477709	-0.073529	0.578435
H309	H	0.446145	-0.105197	0.645203
H310	H	0.403744	-0.062867	0.645213
H311	H	0.408892	-0.100095	0.601760
H312	H	-0.191243	0.059111	-0.081984
H313	H	0.652454	0.143687	0.530959
H314	H	0.623373	0.114617	0.865913
