data_functionalizedCrystal
_audit_creation_method	'MofGen! by Chris Wilmer'
_symmetry_space_group_name_H-M	'P1'
_symmetry_Int_Tables_number	1
_symmetry_cell_setting	triclinic
loop_
_symmetry_equiv_pos_as_xyz
  x,y,z
_cell_length_a	6.817900
_cell_length_b	15.866870
_cell_length_c	14.125465
_cell_angle_alpha	113.228420
_cell_angle_beta	100.398878
_cell_angle_gamma	102.655915
loop_
_atom_site_label
_atom_site_type_symbol
_atom_site_fract_x
_atom_site_fract_y
_atom_site_fract_z
V1	V	-4.011086	-0.131684	-0.346677
O2	O	-3.978431	0.007174	-0.291722
O3	O	-3.982395	-0.261921	-0.390814
O4	O	-3.946868	-0.129287	-0.476657
O5	O	-4.014203	-0.126378	-0.205284
V6	V	-4.494210	-0.115118	-0.324116
O7	O	-4.273220	-0.168021	-0.396168
O8	O	-4.682273	-0.078781	-0.274625
O9	O	-4.299695	0.015119	-0.279979
O10	O	-4.644262	-0.253977	-0.379072
O11	O	-4.608490	-0.120424	-0.465510
O12	O	-4.335221	-0.117516	-0.194136
C13	C	-3.832702	-0.293681	-0.397345
C14	C	-3.890424	-0.400149	-0.434299
C15	C	-3.921038	-0.683174	-0.091525
C16	C	-3.975283	-0.783222	-0.126281
C17	C	-4.038973	-0.810065	-0.312008
C18	C	-3.984723	-0.710017	-0.277268
C19	C	-3.925761	-0.646580	-0.167026
C20	C	-3.989445	-0.673422	-0.352768
C21	C	-3.935210	-0.573384	-0.318031
C22	C	-3.876253	-0.509940	-0.207793
C23	C	-3.871526	-0.546541	-0.132288
C24	C	-4.048422	-0.736862	-0.463011
C25	C	-4.053145	-0.700267	-0.538511
C26	C	-3.998894	-0.600227	-0.503774
C27	C	-3.939937	-0.536783	-0.393536
C28	C	-4.003621	-0.563626	-0.579279
C29	C	-3.949386	-0.463587	-0.544541
C30	C	-3.885702	-0.436744	-0.358798
C31	C	-3.787383	-0.124492	-0.506846
C32	C	-3.816292	-0.123394	-0.613411
C33	C	-3.869280	-0.121380	-0.808519
C34	C	-4.055384	-0.125420	-0.862273
C35	C	-4.084869	-0.124299	-0.970839
C36	C	-3.839787	-0.122501	-0.699944
C37	C	-4.112731	0.046874	-0.273447
C38	C	-4.034246	0.153341	-0.236501
C39	C	-4.158049	-0.122313	-0.163944
C40	C	-4.108378	-0.123406	-0.057376
H41	H	-3.837657	-0.385088	-0.269027
N42	N	-3.817708	-0.402039	-0.170320
H43	H	-3.779630	-0.367407	-0.089027
H44	H	-3.941147	-0.386588	-0.202922
H45	H	-3.732108	-0.117082	-0.844033
H46	H	-4.192575	-0.129729	-0.826763
H47	H	-3.823480	-0.494885	-0.042516
N48	N	-3.857430	-0.614744	0.027381
H49	H	-3.976904	-0.629593	0.057499
H50	H	-3.823760	-0.545847	0.037835
N51	N	-3.970199	-0.822694	-0.044843
H52	H	-3.924620	-0.767324	0.030263
H53	H	-3.867352	-0.860307	-0.050767
H54	H	-4.092584	-0.818319	-0.491291
N55	N	-4.102570	-0.878503	-0.430904
H56	H	-3.983095	-0.863658	-0.461023
H57	H	-4.231056	-0.870244	-0.469820
N58	N	-4.116779	-0.768705	-0.657408
H59	H	-4.016757	-0.807507	-0.671525
H60	H	-4.111577	-0.730283	-0.699900
N61	N	-4.067274	-0.632065	-0.698176
H62	H	-3.967263	-0.670873	-0.712300
H63	H	-4.062077	-0.593645	-0.740670
N64	N	-3.954486	-0.424108	-0.625968
H65	H	-4.000063	-0.479475	-0.701076
H66	H	-3.809409	-0.379874	-0.611158
