data_functionalizedCrystal
_audit_creation_method	'MofGen! by Chris Wilmer'
_symmetry_space_group_name_H-M	'P1'
_symmetry_Int_Tables_number	1
_symmetry_cell_setting	triclinic
loop_
_symmetry_equiv_pos_as_xyz
  x,y,z
_cell_length_a	17.038272
_cell_length_b	15.944551
_cell_length_c	15.021413
_cell_angle_alpha	90.002826
_cell_angle_beta	90.004029
_cell_angle_gamma	92.694853
loop_
_atom_site_label
_atom_site_type_symbol
_atom_site_fract_x
_atom_site_fract_y
_atom_site_fract_z
O1	O	0.100827	-1.121728	-0.073940
O2	O	0.600827	-0.621728	0.426060
O3	O	0.113259	-0.878066	-0.073962
O4	O	0.613259	-0.378066	0.426038
O5	O	-0.006773	-0.998449	-0.073944
O6	O	0.493227	-0.498449	0.426056
O7	O	0.220859	-1.001345	-0.073958
O8	O	0.720859	-0.501345	0.426042
O9	O	-0.006755	-0.998429	0.074120
O10	O	0.493245	-0.498429	0.574120
O11	O	0.113277	-0.878046	0.074102
O12	O	0.613277	-0.378046	0.574102
O13	O	0.100844	-1.121708	0.074125
O14	O	0.600844	-0.621708	0.574125
Zn15	Zn	0.107063	-0.999874	0.097622
Zn16	Zn	0.607063	-0.499874	0.597622
Zn17	Zn	0.107041	-0.999900	-0.097459
Zn18	Zn	0.607041	-0.499900	0.402541
O19	O	0.220876	-1.001326	0.074107
O20	O	0.720876	-0.501326	0.574107
C21	C	-0.035893	-0.995805	0.000088
C22	C	0.464107	-0.495805	0.500088
C23	C	-0.122688	-0.987945	0.000087
C24	C	0.377312	-0.487945	0.500087
C25	C	0.112752	-0.846725	0.000067
C26	C	0.612752	-0.346725	0.500067
C27	C	0.111205	-0.753369	0.000059
C28	C	0.611205	-0.253369	0.500059
C29	C	0.101352	-1.153049	0.000093
C30	C	0.601352	-0.653049	0.500093
C31	C	0.102899	-1.246405	0.000096
C32	C	0.602899	-0.746405	0.500096
C33	C	-0.172781	-1.060103	0.000094
C34	C	0.327219	-0.560103	0.500094
C35	C	-0.254334	-1.052713	0.000085
C36	C	0.245666	-0.552713	0.500085
C37	C	-0.285792	-0.973165	0.000075
C38	C	0.214208	-0.473165	0.500075
C39	C	-0.235693	-0.901002	0.000065
C40	C	0.264307	-0.401002	0.500065
C41	C	-0.154142	-0.908393	0.000068
C42	C	0.345858	-0.408393	0.500068
C43	C	-0.531558	-0.947056	0.000061
C44	C	-0.031558	-0.447056	0.500061
C45	C	-0.613115	-0.939671	0.000060
C46	C	-0.113115	-0.439671	0.500060
C47	C	-0.631751	-1.091383	0.000079
C48	C	-0.131751	-0.591383	0.500079
C49	C	-0.550197	-1.098766	0.000087
C50	C	-0.050197	-0.598766	0.500087
C51	C	-0.500105	-1.026603	0.000072
C52	C	-0.000105	-0.526603	0.500072
C53	C	-0.369152	-0.965610	0.000069
C54	C	0.130848	-0.465610	0.500069
C55	C	-0.416747	-1.034159	0.000073
C56	C	0.083253	-0.534159	0.500073
C57	C	0.249997	-1.003969	0.000073
C58	C	0.749997	-0.503969	0.500073
C59	C	0.336792	-1.011829	0.000068
C60	C	0.836792	-0.511829	0.500068
N61	N	0.107078	-0.999863	0.230759
N62	N	0.607078	-0.499863	0.730759
C63	C	0.033105	-0.532936	0.000081
C64	C	0.533105	-0.032936	0.500081
C65	C	0.069363	-0.474515	-0.072924
C66	C	0.569363	0.025485	0.427076
C67	C	0.108405	-0.582443	0.000070
C68	C	0.608405	-0.082443	0.500070
C69	C	0.069398	-0.474519	0.073055
C70	C	0.569398	0.025481	0.573055
C71	C	0.105696	-0.417337	0.000084
C72	C	0.605696	0.082663	0.500084
C73	C	0.144684	-0.525252	-0.072996
C74	C	0.644684	-0.025252	0.427004
C75	C	0.144709	-0.525262	0.073049
C76	C	0.644709	-0.025262	0.573049
C77	C	0.181022	-0.466862	0.000026
C78	C	0.681022	0.033138	0.500026
C79	C	0.109964	-0.677557	0.000061
C80	C	0.609964	-0.177557	0.500061
C81	C	0.104143	-0.322225	0.000087
C82	C	0.604143	0.177775	0.500087
N83	N	0.107019	-0.999917	-0.230597
N84	N	0.607019	-0.499917	0.269403
C85	C	0.162555	-0.944187	0.470434
C86	C	0.662555	-0.444187	0.970434
C87	C	0.177734	-1.021171	0.529775
C88	C	0.677734	-0.521171	1.029775
C89	C	0.107059	-0.999883	0.412366
C90	C	0.607059	-0.499883	0.912366
C91	C	0.091897	-0.922921	0.529768
C92	C	0.591897	-0.422921	1.029768
C93	C	0.107041	-0.999896	0.587790
C94	C	0.607041	-0.499896	1.087790
C95	C	0.122273	-1.076908	0.470400
C96	C	0.622273	-0.576908	0.970400
C97	C	0.036405	-0.978606	0.470388
C98	C	0.536405	-0.478606	0.970388
C99	C	0.051554	-1.055643	0.529702
C100	C	0.551554	-0.555643	1.029702
C101	C	0.107070	-0.999875	0.311309
C102	C	0.607070	-0.499875	0.811309
C103	C	0.107029	-0.999913	0.688846
C104	C	0.607029	-0.499913	1.188846
H105	H	-0.147175	-1.124879	0.000108
H106	H	0.352825	-0.624879	0.500108
C107	C	0.139691	-1.164864	0.435327
C108	C	0.639691	-0.664864	0.935327
H109	H	0.139620	-1.164315	0.372085
H110	H	0.639620	-0.664315	0.872085
H111	H	0.100499	-1.204469	0.456092
H112	H	0.600499	-0.704469	0.956092
H113	H	0.189717	-1.180063	0.456156
H114	H	0.689717	-0.680063	0.956156
H115	H	0.004613	-1.102803	0.555561
H116	H	0.504613	-0.602803	1.055561
H117	H	0.037542	-0.452150	0.134774
H118	H	0.537542	0.047850	0.634774
H119	H	-0.672544	-1.150134	0.000090
H120	H	-0.172544	-0.650134	0.500090
H121	H	0.209524	-0.897140	0.444412
H122	H	0.709524	-0.397140	0.944412
C123	C	0.187710	-0.555525	0.156422
C124	C	0.687710	-0.055525	0.656422
H125	H	0.232215	-0.585235	0.138886
H126	H	0.732215	-0.085235	0.638886
H127	H	0.153145	-0.591541	0.190202
H128	H	0.653145	-0.091541	0.690202
H129	H	0.204310	-0.508461	0.191612
H130	H	0.704310	-0.008461	0.691612
H131	H	0.237476	-1.039179	0.555860
H132	H	0.737476	-0.539179	1.055860
H133	H	-0.023318	-0.960575	0.444282
H134	H	0.476682	-0.460575	0.944282
C135	C	0.074573	-0.834990	0.564987
C136	C	0.574573	-0.334990	1.064987
H137	H	0.114057	-0.795485	0.544681
H138	H	0.614057	-0.295485	1.044681
H139	H	0.074212	-0.835737	0.628219
H140	H	0.574212	-0.335737	1.128219
H141	H	0.024766	-0.819493	0.543767
H142	H	0.524766	-0.319493	1.043767
H143	H	-0.295117	-1.111472	0.000093
H144	H	0.204883	-0.611472	0.500093
C145	C	-0.515598	-1.186269	0.000087
C146	C	-0.015598	-0.686269	0.500087
H147	H	-0.557113	-1.228187	0.000081
H148	H	-0.057113	-0.728187	0.500081
H149	H	-0.484168	-1.192302	0.051719
H150	H	0.015832	-0.692302	0.551719
H151	H	-0.484178	-1.192306	-0.051554
H152	H	0.015822	-0.692306	0.448446
C153	C	-0.647718	-0.852165	0.000034
C154	C	-0.147718	-0.352165	0.500034
H155	H	-0.606206	-0.810245	0.000014
H156	H	-0.106206	-0.310245	0.500014
H157	H	-0.679142	-0.846113	0.051664
H158	H	-0.179142	-0.346113	0.551664
H159	H	-0.679146	-0.846150	-0.051609
H160	H	-0.179146	-0.346150	0.448391
H161	H	-0.490782	-0.888296	0.000049
H162	H	0.009218	-0.388296	0.500049
H163	H	0.037507	-0.452139	-0.134642
H164	H	0.537507	0.047861	0.365358
C165	C	-0.051318	-0.571932	-0.000024
C166	C	0.448682	-0.071932	0.499976
H167	H	-0.077951	-0.554619	-0.051963
H168	H	0.422049	-0.054619	0.448037
H169	H	-0.078346	-0.553841	0.051308
H170	H	0.421654	-0.053841	0.551308
H171	H	-0.049734	-0.631408	0.000494
H172	H	0.450266	-0.131408	0.500494
H173	H	-0.261313	-0.836233	0.000051
H174	H	0.238687	-0.336233	0.500051
H175	H	0.176503	-0.547520	-0.134784
H176	H	0.676503	-0.047520	0.365216
C177	C	0.265527	-0.428093	-0.000033
C178	C	0.765527	0.071907	0.499967
H179	H	0.292140	-0.445510	-0.051940
H180	H	0.792140	0.054490	0.448060
H181	H	0.292479	-0.446236	0.051332
H182	H	0.792479	0.053764	0.551332
H183	H	0.264091	-0.368604	0.000453
H184	H	0.764091	0.131396	0.500453
H185	H	-0.391130	-1.098927	0.000061
H186	H	0.108870	-0.598927	0.500061
C187	C	-0.099040	-0.829020	0.000062
C188	C	0.400960	-0.329020	0.500062
H189	H	-0.129454	-0.780585	0.000063
H190	H	0.370546	-0.280585	0.500063
H191	H	-0.066842	-0.828757	-0.051571
H192	H	0.433158	-0.328757	0.448429
H193	H	-0.066837	-0.828742	0.051702
H194	H	0.433163	-0.328742	0.551702
H195	H	-0.394774	-0.900842	0.000062
H196	H	0.105226	-0.400842	0.500062
