data_functionalizedCrystal
_audit_creation_method	'MofGen! by Chris Wilmer'
_symmetry_space_group_name_H-M	'P1'
_symmetry_Int_Tables_number	1
_symmetry_cell_setting	triclinic
loop_
_symmetry_equiv_pos_as_xyz
  x,y,z
_cell_length_a	6.817900
_cell_length_b	16.418049
_cell_length_c	14.858572
_cell_angle_alpha	95.075873
_cell_angle_beta	104.524003
_cell_angle_gamma	103.389670
loop_
_atom_site_label
_atom_site_type_symbol
_atom_site_fract_x
_atom_site_fract_y
_atom_site_fract_z
V1	V	-4.037872	-0.116414	-0.290289
V2	V	-3.537872	0.383586	0.209711
O3	O	-4.025632	0.005052	-0.284426
O4	O	-3.525632	0.505052	0.215574
O5	O	-3.988873	-0.230307	-0.288628
O6	O	-3.488873	0.269693	0.211372
O7	O	-3.994518	-0.114861	-0.416746
O8	O	-3.494518	0.385139	0.083254
O9	O	-4.019948	-0.111194	-0.155421
O10	O	-3.519948	0.388806	0.344579
V11	V	-4.520924	-0.101857	-0.274118
V12	V	-4.020924	0.398143	0.225882
O13	O	-4.300165	-0.148345	-0.325761
O14	O	-3.800165	0.351655	0.174239
O15	O	-4.708829	-0.069925	-0.238647
O16	O	-4.208829	0.430075	0.261353
O17	O	-4.346717	0.012037	-0.275780
O18	O	-3.846717	0.512037	0.224220
O19	O	-4.650562	-0.223322	-0.279981
O20	O	-4.150562	0.276678	0.220019
O21	O	-4.656246	-0.107077	-0.408987
O22	O	-4.156246	0.392923	0.091013
O23	O	-4.341072	-0.103410	-0.147661
O24	O	-3.841072	0.396590	0.352339
C25	C	-3.833565	-0.258065	-0.284132
C26	C	-3.333565	0.241935	0.215868
C27	C	-3.874823	-0.351175	-0.283617
C28	C	-3.374823	0.148825	0.216383
C29	C	-4.151994	-0.569671	-0.287100
C30	C	-3.651994	-0.069671	0.212900
C31	C	-4.190749	-0.657160	-0.286624
C32	C	-3.690749	-0.157160	0.213376
C33	C	-3.826160	-0.648599	-0.277313
C34	C	-3.326160	-0.148599	0.222687
C35	C	-3.787412	-0.561113	-0.277796
C36	C	-3.287412	-0.061113	0.222204
C37	C	-3.950333	-0.521651	-0.282685
C38	C	-3.450333	-0.021651	0.217315
C39	C	-4.027837	-0.696625	-0.281726
C40	C	-3.527837	-0.196625	0.218274
C41	C	-4.069856	-0.791484	-0.281210
C42	C	-3.569856	-0.291484	0.218790
C43	C	-3.908314	-0.426786	-0.283203
C44	C	-3.408314	0.073214	0.216797
C45	C	-3.840765	-0.110800	-0.447559
C46	C	-3.340765	0.389200	0.052441
C47	C	-3.886598	-0.110285	-0.550940
C48	C	-3.386598	0.389715	-0.050940
C49	C	-4.054347	-0.108399	-0.929503
C50	C	-3.554347	0.391601	-0.429503
C51	C	-4.007666	-0.108924	-0.824175
C52	C	-3.507666	0.391076	-0.324175
C53	C	-3.970474	-0.109343	-0.740225
C54	C	-3.470474	0.390657	-0.240225
C55	C	-3.923790	-0.109866	-0.634890
C56	C	-3.423790	0.390134	-0.134890
C57	C	-4.165367	0.039789	-0.280273
C58	C	-3.665367	0.539789	0.219727
C59	C	-4.103347	0.132900	-0.280794
C60	C	-3.603347	0.632900	0.219206
C61	C	-4.158167	-0.107473	-0.116844
C62	C	-3.658167	0.392527	0.383156
C63	C	-4.091573	-0.107985	-0.013461
C64	C	-3.591573	0.392015	0.486539
H65	H	-4.284658	-0.537544	-0.291080
H66	H	-3.784658	-0.037544	0.208920
O67	O	-4.386490	-0.703873	-0.290773
O68	O	-3.886490	-0.203873	0.209227
C69	C	-4.600411	-0.796047	-0.214614
C70	C	-4.100411	-0.296047	0.285386
C71	C	-4.378611	-0.743198	-0.209810
C72	C	-3.878611	-0.243198	0.290190
H73	H	-4.594123	-0.827841	-0.149154
H74	H	-4.094123	-0.327841	0.350846
H75	H	-4.661194	-0.846573	-0.279987
H76	H	-4.161194	-0.346573	0.220013
H77	H	-4.710159	-0.752797	-0.218233
H78	H	-4.210159	-0.252797	0.281767
H79	H	-4.268705	-0.786381	-0.206155
H80	H	-3.768705	-0.286381	0.293845
H81	H	-4.318001	-0.692665	-0.144446
H82	H	-3.818001	-0.192665	0.355554
O83	O	-3.591524	-0.514354	-0.273381
O84	O	-3.091524	-0.014354	0.226619
C85	C	-3.294716	-0.399128	-0.187514
C86	C	-2.794716	0.100872	0.312486
C87	C	-3.516552	-0.452001	-0.192408
C88	C	-3.016552	0.047999	0.307592
H89	H	-3.234016	-0.348716	-0.122042
H90	H	-2.734016	0.151284	0.377958
H91	H	-3.300846	-0.367192	-0.252873
H92	H	-2.800846	0.132808	0.247127
H93	H	-3.184991	-0.442382	-0.183974
H94	H	-2.684991	0.057618	0.316026
H95	H	-3.626401	-0.408805	-0.195916
H96	H	-3.126401	0.091195	0.304084
H97	H	-3.510255	-0.483946	-0.127049
H98	H	-3.010255	0.016054	0.372951
H99	H	-3.693520	-0.680739	-0.273331
H100	H	-3.193520	-0.180739	0.226669
