data_functionalizedCrystal
_audit_creation_method	'MofGen! by Chris Wilmer'
_symmetry_space_group_name_H-M	'P1'
_symmetry_Int_Tables_number	1
_symmetry_cell_setting	triclinic
loop_
_symmetry_equiv_pos_as_xyz
  x,y,z
_cell_length_a	16.120530
_cell_length_b	16.120484
_cell_length_c	13.897441
_cell_angle_alpha	92.866498
_cell_angle_beta	87.083121
_cell_angle_gamma	90.167327
loop_
_atom_site_label
_atom_site_type_symbol
_atom_site_fract_x
_atom_site_fract_y
_atom_site_fract_z
Zn1	Zn	1.254474	-0.395582	-0.642096
Zn2	Zn	1.587808	-0.062249	-0.308763
Zn3	Zn	1.921141	0.271085	0.024570
Zn4	Zn	1.247317	-0.534648	-0.488526
Zn5	Zn	1.580651	-0.201314	-0.155192
Zn6	Zn	1.913984	0.132019	0.178141
Zn7	Zn	1.115414	-0.388556	-0.472251
Zn8	Zn	1.448747	-0.055222	-0.138918
Zn9	Zn	1.782080	0.278111	0.194416
Zn10	Zn	1.108327	-0.527535	-0.641214
Zn11	Zn	1.441660	-0.194202	-0.307880
Zn12	Zn	1.774993	0.139132	0.025453
O13	O	1.181383	-0.461580	-0.561022
O14	O	1.514716	-0.128247	-0.227688
O15	O	1.848050	0.205087	0.105645
O16	O	1.369891	-0.419947	-0.628905
O17	O	1.703224	-0.086613	-0.295572
O18	O	2.036557	0.246720	0.037761
O19	O	1.229791	-0.515304	-0.351386
O20	O	1.563124	-0.181971	-0.018052
O21	O	1.896458	0.151362	0.315281
O22	O	1.139822	-0.273125	-0.488340
O23	O	1.473155	0.060209	-0.155007
O24	O	1.806488	0.393542	0.178327
O25	O	1.364632	-0.522118	-0.516078
O26	O	1.697966	-0.188784	-0.182744
O27	O	2.031299	0.144549	0.150589
O28	O	1.241989	-0.278287	-0.613124
O29	O	1.575322	0.055046	-0.279791
O30	O	1.908656	0.388380	0.053542
O31	O	1.132882	-0.407971	-0.339429
O32	O	1.466215	-0.074638	-0.006095
O33	O	1.799549	0.258696	0.327238
O34	O	0.998108	-0.401074	-0.487484
O35	O	1.331441	-0.067741	-0.154151
O36	O	1.664775	0.265592	0.179183
O37	O	1.127743	-0.509995	-0.776312
O38	O	1.461076	-0.176662	-0.442979
O39	O	1.794409	0.156671	-0.109646
O40	O	0.992901	-0.503182	-0.611620
O41	O	1.326235	-0.169849	-0.278287
O42	O	1.659568	0.163485	0.055046
O43	O	1.235117	-0.413050	-0.776961
O44	O	1.568450	-0.079716	-0.443627
O45	O	1.901783	0.253617	-0.110294
O46	O	1.222919	-0.650067	-0.515222
O47	O	1.556252	-0.316734	-0.181888
O48	O	1.889585	0.016600	0.151445
O49	O	1.120803	-0.644842	-0.627401
O50	O	1.454136	-0.311508	-0.294068
O51	O	1.787469	0.021825	0.039266
C52	C	0.965332	-0.450595	-0.547691
C53	C	1.298666	-0.117261	-0.214358
C54	C	1.631999	0.216072	0.118976
C55	C	0.872904	-0.445915	-0.542012
C56	C	1.206237	-0.112582	-0.208679
C57	C	1.539571	0.220752	0.124655
C58	C	0.703677	-0.437352	-0.531651
C59	C	1.037010	-0.104018	-0.198318
C60	C	1.370343	0.229315	0.135016
C61	C	0.659927	-0.485870	-0.590466
C62	C	0.993260	-0.152536	-0.257133
C63	C	1.326593	0.180797	0.076200
C64	C	0.565763	-0.481105	-0.584701
C65	C	0.899096	-0.147772	-0.251368
C66	C	1.232430	0.185561	0.081965
C67	C	0.797849	-0.442115	-0.537415
C68	C	1.131182	-0.108782	-0.204081
C69	C	1.464516	0.224551	0.129252
C70	C	1.170338	-0.677627	-0.573004
C71	C	1.503671	-0.344294	-0.239671
C72	C	1.837004	-0.010960	0.093663
C73	C	1.165688	-0.770057	-0.578167
C74	C	1.499022	-0.436723	-0.244834
C75	C	1.832355	-0.103390	0.088500
C76	C	1.157205	-0.939287	-0.587613
C77	C	1.490538	-0.605954	-0.254280
C78	C	1.823872	-0.272621	0.079053
C79	C	1.205710	-0.983040	-0.534455
C80	C	1.539043	-0.649707	-0.201122
C81	C	1.872377	-0.316373	0.132212
C82	C	1.200990	-1.077206	-0.539711
C83	C	1.534323	-0.743872	-0.206378
C84	C	1.867656	-0.410539	0.126956
C85	C	1.161924	-0.845113	-0.582359
C86	C	1.495258	-0.511780	-0.249025
C87	C	1.828591	-0.178446	0.084308
C88	C	1.398277	-0.472609	-0.574405
C89	C	1.731611	-0.139276	-0.241072
C90	C	2.064944	0.194057	0.092261
C91	C	1.490705	-0.477309	-0.580108
C92	C	1.824038	-0.143976	-0.246775
C93	C	2.157371	0.189358	0.086558
C94	C	1.181437	-0.461513	-0.812614
C95	C	1.514771	-0.128180	-0.479281
C96	C	1.848104	0.205154	-0.145947
C97	C	1.181461	-0.461484	-0.919828
C98	C	1.514794	-0.128151	-0.586494
C99	C	1.848127	0.205182	-0.253161
C100	C	1.192494	-0.244691	-0.549015
C101	C	1.525828	0.088643	-0.215682
C102	C	1.859161	0.421976	0.117651
C103	C	1.197229	-0.152265	-0.543899
C104	C	1.530562	0.181068	-0.210565
C105	C	1.863896	0.514401	0.122768
C106	C	1.181479	-0.461462	-1.006897
C107	C	1.514812	-0.128128	-0.673564
C108	C	1.848146	0.205205	-0.340231
C109	C	1.181505	-0.461425	-1.116129
C110	C	1.514838	-0.128092	-0.782796
C111	C	1.848171	0.205241	-0.449463
C112	C	1.181380	-0.461590	-0.310408
C113	C	1.514713	-0.128256	0.022926
C114	C	1.848046	0.205077	0.356259
C115	C	1.181529	-0.461392	-0.203192
C116	C	1.514863	-0.128059	0.130142
C117	C	1.848196	0.205275	0.463475
H118	H	0.670415	-0.392240	-0.476971
H119	H	1.003748	-0.058907	-0.143638
H120	H	1.337082	0.274427	0.189695
H121	H	0.693190	-0.530985	-0.645151
H122	H	1.026524	-0.197651	-0.311818
H123	H	1.359857	0.135682	0.021516
C124	C	1.096311	-0.984222	-0.654414
C125	C	1.429644	-0.650888	-0.321081
C126	C	1.762978	-0.317555	0.012253
N127	N	1.050442	-1.018076	-0.704722
N128	N	1.383776	-0.684742	-0.371389
N129	N	1.717109	-0.351409	-0.038056
C130	C	1.266594	-0.938105	-0.467632
C131	C	1.599927	-0.604771	-0.134299
C132	C	1.933260	-0.271438	0.199035
N133	N	1.312446	-0.904256	-0.417299
N134	N	1.645779	-0.570922	-0.083965
N135	N	1.979113	-0.237589	0.249368
