data_functionalizedCrystal
_audit_creation_method	'MofGen! by Chris Wilmer'
_symmetry_space_group_name_H-M	'P1'
_symmetry_Int_Tables_number	1
_symmetry_cell_setting	triclinic
loop_
_symmetry_equiv_pos_as_xyz
  x,y,z
_cell_length_a	9.065218
_cell_length_b	15.944551
_cell_length_c	7.540329
_cell_angle_alpha	89.995457
_cell_angle_beta	89.996962
_cell_angle_gamma	84.257312
loop_
_atom_site_label
_atom_site_type_symbol
_atom_site_fract_x
_atom_site_fract_y
_atom_site_fract_z
O1	O	1.957520	0.123161	-0.147492
O2	O	2.290853	0.456494	0.185842
O3	O	2.624186	0.789827	0.519175
O4	O	1.527999	0.133263	-0.147494
O5	O	1.861332	0.466596	0.185839
O6	O	2.194665	0.799930	0.519172
O7	O	1.754488	0.006026	-0.147477
O8	O	2.087822	0.339359	0.185856
O9	O	2.421155	0.672692	0.519190
O10	O	1.731030	0.250398	-0.147509
O11	O	2.064363	0.583731	0.185824
O12	O	2.397697	0.917064	0.519158
O13	O	1.754475	0.006024	0.147488
O14	O	2.087808	0.339358	0.480821
O15	O	2.421142	0.672691	0.814155
O16	O	1.527985	0.133261	0.147471
O17	O	1.861319	0.466595	0.480804
O18	O	2.194652	0.799928	0.814137
O19	O	1.957506	0.123159	0.147473
O20	O	2.290840	0.456492	0.480807
O21	O	2.624173	0.789826	0.814140
Cu22	Cu	1.742744	0.128210	0.174405
Cu23	Cu	2.076078	0.461543	0.507738
Cu24	Cu	2.409411	0.794877	0.841071
Cu25	Cu	1.742760	0.128212	-0.174426
Cu26	Cu	2.076094	0.461545	0.158908
Cu27	Cu	2.409427	0.794879	0.492241
O28	O	1.731016	0.250396	0.147456
O29	O	2.064350	0.583729	0.480789
O30	O	2.397683	0.917063	0.814123
C31	C	1.473028	0.132291	-0.000012
C32	C	1.806361	0.465625	0.333321
C33	C	2.139695	0.798958	0.666655
C34	C	1.309253	0.129388	-0.000013
C35	C	1.642586	0.462722	0.333321
C36	C	1.975920	0.796055	0.666654
C37	C	1.753508	-0.025276	0.000006
C38	C	2.086841	0.308057	0.333339
C39	C	2.420174	0.641390	0.666673
C40	C	1.750588	-0.118544	0.000007
C41	C	2.083922	0.214789	0.333340
C42	C	2.417255	0.548122	0.666673
C43	C	1.603221	-0.334518	-0.000019
C44	C	1.936554	-0.001184	0.333315
C45	C	2.269887	0.332149	0.666648
C46	C	1.671647	-0.395017	0.145418
C47	C	2.004980	-0.061684	0.478751
C48	C	2.338313	0.271649	0.812084
C49	C	1.745306	-0.289310	-0.000007
C50	C	2.078640	0.044023	0.333327
C51	C	2.411973	0.377356	0.666660
C52	C	1.671693	-0.394999	-0.145395
C53	C	2.005027	-0.061666	0.187938
C54	C	2.338360	0.271668	0.521272
C55	C	1.740194	-0.454262	-0.000028
C56	C	2.073527	-0.120928	0.333306
C57	C	2.406861	0.212405	0.666639
C58	C	1.813771	-0.348582	0.145549
C59	C	2.147105	-0.015248	0.478883
C60	C	2.480438	0.318085	0.812216
C61	C	1.813798	-0.348557	-0.145394
C62	C	2.147132	-0.015224	0.187940
C63	C	2.480465	0.318110	0.521273
C64	C	1.882327	-0.409038	0.000078
C65	C	2.215661	-0.075705	0.333411
C66	C	2.548994	0.257629	0.666745
C67	C	1.748247	-0.194286	0.000007
C68	C	2.081581	0.139048	0.333340
C69	C	2.414914	0.472381	0.666673
C70	C	1.737264	-0.549285	-0.000029
C71	C	2.070597	-0.215952	0.333305
C72	C	2.403931	0.117382	0.666638
C73	C	2.012477	0.124131	-0.000013
C74	C	2.345810	0.457464	0.333321
C75	C	2.679143	0.790797	0.666654
C76	C	2.176252	0.127034	-0.000024
C77	C	2.509585	0.460367	0.333310
C78	C	2.842919	0.793700	0.666643
C79	C	1.731997	0.281698	-0.000031
C80	C	2.065330	0.615032	0.333303
C81	C	2.398664	0.948365	0.666636
C82	C	1.734917	0.374966	-0.000043
C83	C	2.068250	0.708300	0.333290
C84	C	2.401583	1.041633	0.666623
N85	N	1.742744	0.128208	0.419753
N86	N	2.076077	0.461541	0.753087
N87	N	2.409411	0.794875	1.086420
N88	N	1.742773	0.128207	-0.419774
N89	N	2.076106	0.461541	-0.086441
N90	N	2.409439	0.794874	0.246893
H91	H	1.485283	-0.302103	0.000126
H92	H	1.818616	0.031230	0.333459
H93	H	2.151950	0.364563	0.666793
H94	H	1.611544	-0.415582	0.268371
H95	H	1.944878	-0.082248	0.601705
H96	H	2.278211	0.251085	0.935038
H97	H	2.000369	-0.441303	0.000161
H98	H	2.333702	-0.107969	0.333494
H99	H	2.667035	0.225364	0.666827
H100	H	1.873849	-0.327971	-0.268354
H101	H	2.207182	0.005362	0.064979
H102	H	2.540515	0.338696	0.398313
H103	H	1.873812	-0.328137	0.268639
H104	H	2.207145	0.005196	0.601972
H105	H	2.540478	0.338530	0.935306
H106	H	1.611584	-0.415530	-0.268358
H107	H	1.944917	-0.082197	0.064975
H108	H	2.278251	0.251136	0.398308
