data_functionalizedCrystal
_audit_creation_method	'MofGen! by Chris Wilmer'
_symmetry_space_group_name_H-M	'P1'
_symmetry_Int_Tables_number	1
_symmetry_cell_setting	triclinic
loop_
_symmetry_equiv_pos_as_xyz
  x,y,z
_cell_length_a	17.640112
_cell_length_b	16.625546
_cell_length_c	17.639306
_cell_angle_alpha	101.183476
_cell_angle_beta	87.804122
_cell_angle_gamma	101.247770
loop_
_atom_site_label
_atom_site_type_symbol
_atom_site_fract_x
_atom_site_fract_y
_atom_site_fract_z
Zn1	Zn	1.247740	-0.103639	-0.195064
Zn2	Zn	1.221995	-0.217609	-0.068086
Zn3	Zn	1.095092	-0.114279	-0.093716
Zn4	Zn	1.120706	-0.269937	-0.220656
O5	O	1.171383	-0.176366	-0.144380
O6	O	1.350599	-0.092405	-0.156783
O7	O	1.183666	-0.186456	0.034780
O8	O	1.115396	-0.000027	-0.107176
O9	O	1.331683	-0.176139	-0.063493
O10	O	1.227546	0.007790	-0.181636
O11	O	1.090432	-0.110540	0.015949
O12	O	0.992216	-0.161280	-0.131992
O13	O	1.159051	-0.265324	-0.323527
O14	O	1.011035	-0.275641	-0.225254
O15	O	1.252383	-0.143145	-0.304724
O16	O	1.208503	-0.337391	-0.088308
O17	O	1.134087	-0.375836	-0.200401
C18	C	0.974070	-0.225294	-0.184182
C19	C	0.889662	-0.246248	-0.201227
C20	C	0.563036	-0.017169	-0.014897
C21	C	0.483724	-0.036877	-0.030923
C22	C	0.503340	-0.156075	-0.127870
C23	C	0.582656	-0.136376	-0.111854
C24	C	0.612497	-0.066922	-0.055366
C25	C	0.632117	-0.186129	-0.152323
C26	C	0.711426	-0.166433	-0.136305
C27	C	0.741273	-0.096984	-0.079818
C28	C	0.691805	-0.047226	-0.039348
C29	C	0.602274	-0.255585	-0.208807
C30	C	0.651735	-0.305338	-0.249276
C31	C	0.731046	-0.285639	-0.233262
C32	C	0.760893	-0.216190	-0.176775
C33	C	0.780513	-0.335397	-0.273733
C34	C	0.859821	-0.315701	-0.257715
C35	C	0.840201	-0.196495	-0.160758
C36	C	1.171305	-0.385870	-0.144363
C37	C	1.171346	-0.475483	-0.144367
C38	C	1.171494	-0.803639	-0.144419
C39	C	1.171451	-0.712337	-0.144407
C40	C	1.171419	-0.639564	-0.144393
C41	C	1.171378	-0.548256	-0.144382
C42	C	1.369467	-0.127248	-0.104424
C43	C	1.453878	-0.106317	-0.087397
C44	C	1.211446	-0.208885	-0.342449
C45	C	1.228519	-0.222742	-0.426855
C46	C	1.171486	0.033958	-0.144410
C47	C	1.171530	0.123585	-0.144423
C48	C	1.041980	-0.070719	-0.753492
C49	C	1.058040	-0.083753	-0.832800
C50	C	1.155115	-0.162796	-0.813174
C51	C	1.139066	-0.149766	-0.733862
C52	C	1.082498	-0.103727	-0.704028
C53	C	1.179584	-0.182774	-0.684398
C54	C	1.163533	-0.169748	-0.605093
C55	C	1.106966	-0.123713	-0.575253
C56	C	1.066447	-0.090701	-0.624723
C57	C	1.236148	-0.228817	-0.714234
C58	C	1.276666	-0.261825	-0.664770
C59	C	1.260620	-0.248794	-0.585463
C60	C	1.204052	-0.202760	-0.555623
C61	C	1.301138	-0.281807	-0.535993
C62	C	1.285088	-0.268781	-0.456689
C63	C	1.188001	-0.189734	-0.476319
C64	C	1.131520	-0.143905	0.052927
C65	C	1.114594	-0.129784	0.137361
H66	H	0.756203	-0.391950	-0.319719
H67	H	1.141945	-0.152234	-0.452025
Br68	Br	0.603544	0.077097	0.061760
H69	H	0.627427	-0.361889	-0.295266
Br70	Br	0.416597	0.030646	0.024014
Br71	Br	0.926951	-0.383227	-0.312633
H72	H	0.479032	-0.212626	-0.173860
Br73	Br	1.257932	-0.246495	-0.821863
H74	H	0.537695	-0.271619	-0.221846
Br75	Br	1.085172	-0.106044	-0.467626
Br76	Br	0.989685	-0.028205	-0.584224
Br77	Br	0.848905	-0.070256	-0.058071
H78	H	1.318091	-0.295646	-0.416411
H79	H	0.716106	0.009340	0.006639
H80	H	0.995924	-0.033219	-0.729198
H81	H	0.864501	-0.139929	-0.114771
H82	H	1.201171	-0.200284	-0.837477
H83	H	1.322722	-0.299313	-0.689073
Br84	Br	1.003069	-0.038919	-0.899925
Br85	Br	1.377895	-0.344300	-0.576495
