data_functionalizedCrystal
_audit_creation_method	'MofGen! by Chris Wilmer'
_symmetry_space_group_name_H-M	'P1'
_symmetry_Int_Tables_number	1
_symmetry_cell_setting	triclinic
loop_
_symmetry_equiv_pos_as_xyz
  x,y,z
_cell_length_a	14.560438
_cell_length_b	18.426585
_cell_length_c	14.560438
_cell_angle_alpha	60.001940
_cell_angle_beta	90.001034
_cell_angle_gamma	59.999724
loop_
_atom_site_label
_atom_site_type_symbol
_atom_site_fract_x
_atom_site_fract_y
_atom_site_fract_z
Zr1	Zr	0.884745	0.794363	-0.120495
O2	O	0.738094	0.945763	-0.267135
O3	O	0.929702	0.642964	-0.075547
O4	O	0.929696	0.794366	-0.267144
O5	O	0.738103	0.794359	0.075602
O6	O	1.080834	0.794368	-0.267145
O7	O	0.738100	0.794361	-0.075538
O8	O	1.080844	0.523537	0.075587
O9	O	0.738093	1.065189	-0.267130
O10	O	1.061667	0.705238	-0.056372
O11	O	0.948877	0.705235	0.056424
O12	O	0.948870	0.883491	-0.169157
O13	O	0.836080	0.883488	-0.056362
Zr14	Zr	1.125799	0.794363	0.120555
Zr15	Zr	1.125793	0.794367	-0.120497
Zr16	Zr	0.884751	0.794360	0.120557
Zr17	Zr	0.884743	0.984835	-0.120486
Zr18	Zr	1.125800	0.603892	0.120546
O19	O	1.080842	0.945763	0.075607
O20	O	1.080833	0.945767	-0.267138
O21	O	0.738102	0.945758	0.075610
O22	O	1.272450	0.642964	0.267196
O23	O	1.272441	0.642968	-0.075549
O24	O	0.929710	0.642959	0.267198
O25	O	1.272440	0.794368	-0.075542
O26	O	1.080848	0.794361	0.267204
O27	O	0.929709	0.794359	0.267205
O28	O	1.272444	0.794366	0.075599
O29	O	0.929694	1.065192	-0.267131
O30	O	1.080849	0.523535	0.267191
O31	O	1.272450	0.523537	0.267190
O32	O	1.272446	0.523540	0.075586
O33	O	0.738098	1.065187	-0.075526
O34	O	0.929699	1.065189	-0.075527
O35	O	1.061673	0.705235	0.169218
O36	O	1.174463	0.705238	0.056422
O37	O	1.061666	0.883491	-0.056363
O38	O	0.948876	0.883488	0.056432
C39	C	0.703757	0.794359	0.000032
C40	C	0.601426	0.794358	0.000033
C41	C	1.005273	0.556113	0.000019
C42	C	1.005274	0.475252	0.000015
C43	C	0.612226	0.701313	0.058902
C44	C	0.516072	0.701318	0.058902
C45	C	0.398319	0.887421	-0.058843
C46	C	0.494473	0.887415	-0.058837
C47	C	1.005268	0.179143	0.000048
C48	C	1.005266	0.261530	0.000041
C49	C	1.005270	0.327196	0.000031
C50	C	1.005270	0.409586	0.000026
C51	C	1.306786	0.794367	0.000028
C52	C	1.409117	0.794369	0.000027
C53	C	1.005264	0.794367	-0.301489
C54	C	1.005261	0.794369	-0.403822
C55	C	1.005270	1.032614	0.000041
C56	C	1.005270	1.113474	0.000045
C57	C	0.946384	0.887413	-0.510771
C58	C	0.946397	0.887409	-0.606920
C59	C	1.064167	0.701306	-0.489157
C60	C	1.064159	0.701312	-0.393011
C61	C	1.005279	0.794359	0.301550
C62	C	1.005282	0.794358	0.403883
C63	C	1.306788	0.556117	0.000017
C64	C	1.409119	0.475258	0.000012
C65	C	1.005281	0.556109	0.301538
C66	C	1.005284	0.475247	0.403867
C67	C	1.306795	0.556113	0.301536
C68	C	1.409130	0.475252	0.403864
C69	C	0.703748	1.032614	-0.301476
C70	C	0.601414	1.113474	-0.403804
C71	C	0.703756	1.032610	0.000044
C72	C	0.601424	1.113469	0.000048
C73	C	1.005262	1.032618	-0.301478
C74	C	1.005259	1.113480	-0.403807
C75	C	1.398297	0.437286	-0.058877
C76	C	1.494440	0.361321	-0.058904
C77	C	1.601403	0.323324	-0.000034
C78	C	1.612223	0.361304	0.058857
C79	C	1.516082	0.437273	0.058877
C80	C	1.064164	0.437274	0.510810
C81	C	1.064162	0.361306	0.606968
C82	C	1.005287	0.323309	0.596182
C83	C	0.946400	0.361290	0.489228
C84	C	0.946396	0.437261	0.393072
C85	C	1.516072	0.437281	0.393041
C86	C	1.612235	0.361315	0.489180
C87	C	1.601454	0.323316	0.596142
C88	C	1.494500	0.361295	0.606963
C89	C	1.398339	0.437265	0.510825
C90	C	0.494471	1.151455	-0.392981
C91	C	0.398308	1.227444	-0.489120
C92	C	0.409090	1.265447	-0.596082
C93	C	0.516044	1.227463	-0.606903
C94	C	0.612204	1.151480	-0.510765
C95	C	0.612246	1.151449	0.058928
C96	C	0.516104	1.227435	0.058928
C97	C	0.409140	1.265434	0.000055
C98	C	0.398321	1.227451	-0.058832
C99	C	0.494462	1.151471	-0.058838
C100	C	1.064146	1.151453	-0.392985
C101	C	1.064165	1.227421	-0.489125
C102	C	1.005290	1.265419	-0.596086
C103	C	0.946402	1.227438	-0.606906
C104	C	0.946390	1.151466	-0.510767
H105	H	0.699309	0.625540	0.106850
H106	H	0.898466	0.330340	0.480462
C107	C	1.788660	0.213786	0.205672
C108	C	1.729805	0.319518	0.123577
H109	H	1.861249	0.187986	0.245635
H110	H	1.795958	0.180318	0.170583
H111	H	1.748693	0.201350	0.256486
H112	H	1.769768	0.331954	0.072758
H113	H	1.722512	0.352997	0.158667
H114	H	0.898454	0.963175	-0.694000
C115	C	1.053933	0.593356	-0.216575
C116	C	1.128872	0.599027	-0.275441
H117	H	1.093885	0.530214	-0.143993
H118	H	0.998233	0.597222	-0.256537
H119	H	1.018873	0.648779	-0.209256
H120	H	1.163926	0.543608	-0.282768
H121	H	1.184593	0.595151	-0.235470
C122	C	1.589496	0.244873	-0.111230
C123	C	1.482530	0.319573	-0.123629
H124	H	1.582138	0.219106	-0.151193
H125	H	1.629454	0.190334	-0.033783
H126	H	1.629431	0.274526	-0.140326
H127	H	1.442598	0.289918	-0.094526
H128	H	1.442555	0.374122	-0.201091
C129	C	1.368485	0.368893	0.713757
C130	C	1.482658	0.319525	0.724541
H131	H	1.361180	0.343107	0.786348
H132	H	1.333429	0.356431	0.673820
H133	H	1.333422	0.440624	0.673805
H134	H	1.517721	0.247795	0.764487
H135	H	1.517730	0.331979	0.764496
H136	H	1.679678	0.261465	-0.000058
H137	H	1.311211	0.468222	-0.106830
C138	C	0.642127	0.517366	0.175274
C139	C	0.527945	0.599040	0.123607
H140	H	0.649457	0.454223	0.215216
H141	H	0.677184	0.521229	0.226095
H142	H	0.677173	0.521250	0.119545
H143	H	0.492901	0.595161	0.179336
H144	H	0.492875	0.595175	0.072782
H145	H	0.311228	0.963184	-0.106774
H146	H	0.485635	1.120550	-0.106782
C147	C	1.116399	0.618655	-0.584247
C148	C	1.128894	0.599020	-0.477274
H149	H	1.156353	0.555504	-0.576904
H150	H	1.145441	0.656899	-0.624234
H151	H	1.038927	0.656865	-0.624142
H152	H	1.206366	0.560816	-0.437382
H153	H	1.099856	0.560759	-0.437270
H154	H	1.524872	0.468209	0.305956
C155	C	1.586898	0.398554	0.237795
C156	C	1.527992	0.478991	0.123632
H157	H	1.594250	0.424308	0.277774
H158	H	1.659447	0.347885	0.246187
H159	H	1.546932	0.368927	0.266850
H160	H	1.567962	0.508613	0.094575
H161	H	1.455429	0.529678	0.115234
H162	H	0.485670	0.963187	-0.106772
H163	H	0.524936	1.258348	0.106885
H164	H	0.898425	0.963186	-0.519581
C165	C	1.180524	0.429671	0.636868
C166	C	1.128865	0.479046	0.522687
H167	H	1.220456	0.455469	0.644205
H168	H	1.231354	0.357952	0.671922
H169	H	1.124790	0.442125	0.671910
H170	H	1.184600	0.466587	0.487647
H171	H	1.078031	0.550782	0.487618
H172	H	1.112119	0.330391	0.694045
H173	H	1.005300	0.261448	0.674487
H174	H	1.699313	0.330401	0.480349
H175	H	0.699279	1.120557	-0.519591
H176	H	0.699332	1.120516	0.106877
H177	H	0.898453	0.468169	0.305999
H178	H	1.679763	0.261457	0.674414
H179	H	1.311265	0.468171	0.519654
H180	H	0.485671	1.120517	-0.305896
H181	H	0.311231	1.258358	-0.480287
H182	H	0.898433	1.120557	-0.519595
H183	H	0.330780	1.327317	-0.674354
H184	H	0.524809	1.258415	-0.694003
H185	H	0.330865	1.327301	0.000069
C186	C	0.198652	1.343919	-0.111073
C187	C	0.280740	1.269219	-0.123532
H188	H	0.126062	1.369697	-0.151007
H189	H	0.207093	1.398452	-0.140156
H190	H	0.207120	1.314263	-0.033605
H191	H	0.272276	1.298877	-0.201000
H192	H	0.272294	1.214677	-0.094455
C193	C	1.051776	1.312219	-0.765869
C194	C	1.005305	1.348933	-0.701757
H195	H	1.051792	1.363778	-0.831099
H196	H	1.008276	1.295054	-0.787630
H197	H	1.126787	1.252935	-0.722361
H198	H	0.930291	1.408213	-0.745263
H199	H	1.048805	1.366112	-0.679998
C200	C	1.180566	1.159071	-0.286247
C201	C	1.128875	1.109691	-0.275420
H202	H	1.220537	1.133284	-0.213668
H203	H	1.124856	1.230791	-0.326190
H204	H	1.231376	1.146611	-0.326211
H205	H	1.078058	1.122157	-0.235463
H206	H	1.184592	1.037955	-0.235460
C207	C	1.116486	1.343869	-0.584178
C208	C	1.128890	1.269167	-0.477215
H209	H	1.156450	1.369634	-0.576820
H210	H	1.039036	1.398409	-0.624131
H211	H	1.145578	1.314218	-0.624117
H212	H	1.099790	1.298820	-0.437279
H213	H	1.206355	1.214617	-0.437245
H214	H	0.898468	1.258388	-0.694007
