data_functionalizedCrystal
_audit_creation_method	'MofGen! by Chris Wilmer'
_symmetry_space_group_name_H-M	'P1'
_symmetry_Int_Tables_number	1
_symmetry_cell_setting	triclinic
loop_
_symmetry_equiv_pos_as_xyz
  x,y,z
_cell_length_a	19.288859
_cell_length_b	12.811487
_cell_length_c	17.766277
_cell_angle_alpha	95.426172
_cell_angle_beta	89.989768
_cell_angle_gamma	83.591934
loop_
_atom_site_label
_atom_site_type_symbol
_atom_site_fract_x
_atom_site_fract_y
_atom_site_fract_z
O1	O	0.922005	0.130900	-0.053673
O2	O	0.719832	0.148569	-0.052465
O3	O	0.826005	-0.013079	-0.063496
O4	O	0.815833	0.292548	-0.042641
O5	O	0.825986	-0.013087	0.061692
O6	O	0.719813	0.148561	0.072723
O7	O	0.921987	0.130892	0.071515
Cu8	Cu	0.820898	0.139726	0.083550
Cu9	Cu	0.820920	0.139735	-0.064499
O10	O	0.815814	0.292540	0.082547
C11	C	0.693943	0.147998	0.010091
C12	C	0.616831	0.146294	0.009975
C13	C	0.825425	-0.052184	-0.003572
C14	C	0.823718	-0.168691	-0.011527
C15	C	0.053204	0.229619	0.015660
C16	C	0.125658	0.231229	0.015766
C17	C	0.169894	0.136381	0.009295
C18	C	0.141670	0.039916	0.002699
C19	C	0.069217	0.038309	0.002586
C20	C	0.290807	0.065641	0.048330
C21	C	0.363259	0.067252	0.048448
C22	C	0.393365	0.141333	0.009641
C23	C	0.351009	0.213821	-0.029273
C24	C	0.278556	0.212214	-0.029387
C25	C	0.248459	0.138113	0.009417
C26	C	0.500144	0.239537	0.016347
C27	C	0.572600	0.241143	0.016448
C28	C	0.588611	0.049828	0.003388
C29	C	0.516156	0.048225	0.003279
C30	C	0.471926	0.143083	0.009763
C31	C	0.820502	-0.387646	0.110018
C32	C	0.818898	-0.497116	0.102547
C33	C	0.818910	-0.497103	-0.033939
C34	C	0.820514	-0.387633	-0.026468
C35	C	0.821309	-0.332909	0.045513
C36	C	0.822908	-0.223436	0.052983
C37	C	0.822926	-0.223426	-0.083503
C38	C	0.821322	-0.332896	-0.090973
C39	C	0.947875	0.131463	0.008958
C40	C	1.024988	0.133167	0.009069
C41	C	0.816394	0.331645	0.022621
C42	C	0.818101	0.448153	0.030571
N43	N	0.820888	0.139718	0.187680
N44	N	0.820936	0.139735	-0.168630
C45	C	0.867916	0.068175	0.222184
C46	C	0.867920	0.068171	0.300986
C47	C	0.820902	0.139727	0.345281
C48	C	0.773865	0.211275	0.310767
C49	C	0.773857	0.211271	0.231967
C50	C	0.812078	0.235358	0.476645
C51	C	0.812090	0.235364	0.555444
C52	C	0.820921	0.139739	0.588328
C53	C	0.829754	0.044105	0.542403
C54	C	0.829747	0.044101	0.463603
C55	C	0.820905	0.139739	0.430728
C56	C	0.867957	0.068185	0.708278
C57	C	0.867956	0.068179	0.787081
C58	C	0.773903	0.211292	0.796861
C59	C	0.773901	0.211290	0.718059
C60	C	0.820931	0.139737	0.673773
H61	H	0.017196	0.306860	0.020936
C62	C	0.818004	-0.557323	0.173503
H63	H	0.818702	-0.509048	0.217440
H64	H	0.857832	-0.608226	0.172866
H65	H	0.776916	-0.591825	0.173986
C66	C	0.818039	-0.557312	-0.113109
H67	H	0.816965	-0.630346	-0.108316
H68	H	0.858758	-0.547564	-0.140489
H69	H	0.777842	-0.531179	-0.139362
C70	C	0.821370	-0.327440	0.189190
H71	H	0.822436	-0.254404	0.184400
H72	H	0.861556	-0.353576	0.215449
H73	H	0.780640	-0.337185	0.216561
H74	H	0.906250	0.009915	0.815174
C75	C	0.839463	-0.061088	0.578565
H76	H	0.838193	-0.047393	0.632072
H77	H	0.883158	-0.098690	0.563078
H78	H	0.803014	-0.102068	0.562863
H79	H	0.735560	0.269531	0.203873
H80	H	0.148636	0.309774	0.021141
C81	C	0.485113	-0.057871	-0.003967
H82	H	0.435627	-0.045244	-0.003114
H83	H	0.500267	-0.096922	0.037022
H84	H	0.500286	-0.096898	-0.050294
C85	C	0.823782	-0.163235	0.132156
H86	H	0.824846	-0.090198	0.127370
H87	H	0.863972	-0.189374	0.158409
H88	H	0.783056	-0.172984	0.159532
C89	C	0.231965	0.291934	-0.072194
H90	H	0.184504	0.280367	-0.066698
H91	H	0.244620	0.282979	-0.124272
H92	H	0.238020	0.361641	-0.052012
H93	H	0.735618	0.269551	0.832926
C94	C	0.820444	-0.393097	-0.170146
H95	H	0.819368	-0.466132	-0.165358
H96	H	0.861162	-0.383349	-0.197528
H97	H	0.780246	-0.366956	-0.196392
H98	H	0.735609	0.269551	0.689965
H99	H	0.397739	0.008233	0.080139
C100	C	0.919663	-0.010501	0.173472
H101	H	0.912935	-0.000244	0.121599
H102	H	0.911947	-0.080534	0.181604
H103	H	0.966043	0.000764	0.187152
C104	C	0.802379	0.340555	0.605954
H105	H	0.797108	0.397504	0.575085
H106	H	0.842085	0.346230	0.637066
H107	H	0.761943	0.342833	0.636863
H108	H	0.823575	-0.178846	-0.136028
H109	H	0.906249	0.009919	0.672218
C110	C	0.257693	-0.015846	0.091025
H111	H	0.208478	-0.006428	0.085380
H112	H	0.268787	-0.006359	0.143138
H113	H	0.275381	-0.085028	0.070882
C114	C	0.839452	-0.061085	0.413086
H115	H	0.844807	-0.118037	0.443950
H116	H	0.879826	-0.063304	0.382098
H117	H	0.799695	-0.066813	0.382054
H118	H	0.735581	0.269535	0.346836
C119	C	0.802359	0.340549	0.440476
H120	H	0.803612	0.326851	0.386969
H121	H	0.838800	0.381540	0.456171
H122	H	0.758658	0.378141	0.455968
C123	C	0.384118	0.295280	-0.071996
H124	H	0.433336	0.285840	-0.066374
H125	H	0.366443	0.364472	-0.051878
H126	H	0.373013	0.285755	-0.124109
H127	H	0.464130	0.316776	0.021624
C128	C	0.603637	0.347246	0.023700
H129	H	0.566917	0.403505	0.027552
H130	H	0.631576	0.351864	-0.019639
H131	H	0.631561	0.351834	0.067676
C132	C	0.190327	-0.064414	-0.004416
H133	H	0.237519	-0.049643	-0.003397
H134	H	0.181753	-0.103976	-0.050773
H135	H	0.181731	-0.103982	0.036544
C136	C	0.919655	-0.010523	0.338954
H137	H	0.912920	-0.000275	0.392227
H138	H	0.966039	0.000701	0.326791
H139	H	0.911912	-0.080551	0.321273
H140	H	0.624627	-0.027399	-0.001887
H141	H	0.046245	-0.040236	-0.002782
