data_functionalizedCrystal
_audit_creation_method	'MofGen! by Chris Wilmer'
_symmetry_space_group_name_H-M	'P1'
_symmetry_Int_Tables_number	1
_symmetry_cell_setting	triclinic
loop_
_symmetry_equiv_pos_as_xyz
  x,y,z
_cell_length_a	19.288840
_cell_length_b	19.288855
_cell_length_c	17.766277
_cell_angle_alpha	89.991046
_cell_angle_beta	90.016585
_cell_angle_gamma	96.870871
loop_
_atom_site_label
_atom_site_type_symbol
_atom_site_fract_x
_atom_site_fract_y
_atom_site_fract_z
O1	O	0.921361	-0.086566	0.062724
O2	O	1.421361	0.413434	0.562724
O3	O	0.719098	-0.098273	0.062699
O4	O	1.219098	0.401727	0.562699
O5	O	0.826077	0.008712	0.062702
O6	O	1.326077	0.508712	0.562702
O7	O	0.814381	-0.193551	0.062721
O8	O	1.314381	0.306449	0.562721
O9	O	0.826059	0.008717	-0.062486
O10	O	1.326059	0.508717	0.437514
O11	O	0.719079	-0.098268	-0.062490
O12	O	1.219079	0.401732	0.437510
O13	O	0.921342	-0.086561	-0.062464
O14	O	1.421342	0.413439	0.437536
Cu15	Cu	0.820209	-0.092414	-0.073908
Cu16	Cu	1.320209	0.407586	0.426092
Cu17	Cu	0.820231	-0.092420	0.074142
Cu18	Cu	1.320231	0.407580	0.574142
O19	O	0.814363	-0.193546	-0.062468
O20	O	1.314363	0.306454	0.437532
C21	C	0.825693	0.034591	0.000107
C22	C	1.325693	0.534591	0.500107
C23	C	0.824566	0.111695	0.000104
C24	C	1.324566	0.611695	0.500104
C25	C	0.693211	-0.097897	0.000101
C26	C	1.193211	0.402103	0.500101
C27	C	0.616107	-0.096775	0.000091
C28	C	1.116107	0.403225	0.500091
C29	C	0.579914	-0.096239	0.068333
C30	C	1.079914	0.403761	0.568333
C31	C	0.507467	-0.095177	0.068342
C32	C	1.007467	0.404823	0.568342
C33	C	0.471218	-0.094637	0.000105
C34	C	0.971218	0.405363	0.500105
C35	C	0.507419	-0.095177	-0.068146
C36	C	1.007419	0.404823	0.431854
C37	C	0.579864	-0.096246	-0.068153
C38	C	1.079864	0.403754	0.431847
C39	C	0.361884	-0.052256	-0.052167
C40	C	0.861884	0.447744	0.447833
C41	C	0.289441	-0.051183	-0.052157
C42	C	0.789441	0.448817	0.447843
C43	C	0.247774	-0.091343	0.000125
C44	C	0.747774	0.408657	0.500125
C45	C	0.278560	-0.132566	0.052409
C46	C	0.778560	0.367434	0.552409
C47	C	0.351005	-0.133635	0.052402
C48	C	0.851005	0.366365	0.552402
C49	C	0.392664	-0.093478	0.000105
C50	C	0.892664	0.406522	0.500105
C51	C	0.133026	-0.089656	0.068381
C52	C	0.633026	0.410344	0.568381
C53	C	0.060577	-0.088598	0.068388
C54	C	0.560577	0.411402	0.568388
C55	C	0.060532	-0.088591	-0.068102
C56	C	0.560532	0.411409	0.431898
C57	C	0.132978	-0.089656	-0.068107
C58	C	0.632978	0.410344	0.431893
C59	C	0.169221	-0.090185	0.000137
C60	C	0.669221	0.409815	0.500137
C61	C	0.947228	-0.086937	0.000135
C62	C	1.447228	0.413063	0.500135
C63	C	1.024333	-0.088059	0.000150
C64	C	1.524333	0.411941	0.500150
N65	N	0.820198	-0.092409	-0.178038
N66	N	1.320198	0.407591	0.321962
C67	C	0.824051	0.147902	0.068344
C68	C	1.324051	0.647902	0.568344
C69	C	0.822983	0.220348	0.068349
C70	C	1.322983	0.720348	0.568349
C71	C	0.822444	0.256586	0.000110
C72	C	1.322444	0.756586	0.500110
C73	C	0.822956	0.220369	-0.068139
C74	C	1.322956	0.720369	0.431861
C75	C	0.824017	0.147923	-0.068142
C76	C	1.324017	0.647923	0.431858
C77	C	0.861439	0.376823	-0.052161
C78	C	1.361439	0.876823	0.447839
C79	C	0.860382	0.449268	-0.052155
C80	C	1.360382	0.949268	0.447845
C81	C	0.819168	0.480031	0.000116
C82	C	1.319168	0.980031	0.500116
C83	C	0.779020	0.438343	0.052395
C84	C	1.279020	0.938343	0.552395
C85	C	0.780081	0.365897	0.052392
C86	C	1.280081	0.865897	0.552392
C87	C	0.821293	0.335141	0.000106
C88	C	1.321293	0.835141	0.500106
C89	C	0.817493	0.594793	0.068366
C90	C	1.317493	1.094793	0.568366
C91	C	0.816421	0.667240	0.068368
C92	C	1.316421	1.167240	0.568368
C93	C	0.816401	0.667260	-0.068122
C94	C	1.316401	1.167260	0.431878
C95	C	0.817466	0.594814	-0.068122
C96	C	1.317466	1.094814	0.431878
C97	C	0.818016	0.558585	0.000124
C98	C	1.318016	1.058585	0.500124
C99	C	0.814749	0.780575	0.000127
C100	C	1.314749	1.280575	0.500127
C101	C	0.815881	0.703472	0.000129
C102	C	1.315881	1.203472	0.500129
C103	C	0.867584	-0.045059	-0.217423
C104	C	1.367584	0.454941	0.282577
C105	C	0.867588	-0.045056	-0.296225
C106	C	1.367588	0.454944	0.203775
C107	C	0.820213	-0.092414	-0.335639
C108	C	1.320213	0.407586	0.164361
C109	C	0.772818	-0.139768	-0.296244
C110	C	1.272818	0.360232	0.203756
C111	C	0.772811	-0.139765	-0.217444
C112	C	1.272811	0.360235	0.282556
C113	C	0.810912	-0.155703	-0.460472
C114	C	1.310912	0.344297	0.039528
C115	C	0.810924	-0.155707	-0.539271
C116	C	1.310924	0.344293	-0.039271
C117	C	0.820232	-0.092423	-0.578685
C118	C	1.320232	0.407577	-0.078685
C119	C	0.829542	-0.029132	-0.539291
C120	C	1.329542	0.470868	-0.039291
C121	C	0.829534	-0.029130	-0.460491
C122	C	1.329534	0.470870	0.039509
C123	C	0.820215	-0.092422	-0.421084
C124	C	1.320215	0.407578	0.078916
C125	C	0.867624	-0.045066	-0.703516
C126	C	1.367624	0.454934	-0.203516
C127	C	0.867624	-0.045062	-0.782320
C128	C	1.367624	0.454938	-0.282320
C129	C	0.772857	-0.139779	-0.782337
C130	C	1.272857	0.360221	-0.282337
C131	C	0.772854	-0.139777	-0.703535
C132	C	1.272854	0.360223	-0.203535
C133	C	0.820242	-0.092421	-0.664129
C134	C	1.320242	0.407579	-0.164129
N135	N	0.820247	-0.092420	0.178272
N136	N	1.320247	0.407580	0.678272
H137	H	0.609418	-0.096669	0.123903
H138	H	1.109418	0.403331	0.623903
H139	H	0.376067	-0.167203	0.094972
H140	H	0.876067	0.332797	0.594972
Br141	Br	0.222021	-0.187074	0.123367
Br142	Br	0.722021	0.312926	0.623367
H143	H	0.837120	0.022400	-0.571381
H144	H	1.337120	0.522400	-0.071381
Br145	Br	0.822281	0.269498	0.160967
Br146	Br	1.322281	0.769498	0.660967
Br147	Br	0.708554	-0.204045	-0.835820
Br148	Br	1.208554	0.295955	-0.335820
Br149	Br	0.815714	0.716380	0.160988
Br150	Br	1.315714	1.216380	0.660988
Br151	Br	0.182216	-0.090379	0.160995
Br152	Br	0.682216	0.409621	0.660995
H153	H	0.477901	-0.094739	-0.123705
H154	H	0.977901	0.405261	0.376295
Br155	Br	0.798297	-0.241600	-0.592726
Br156	Br	1.298297	0.258400	-0.092726
Br157	Br	0.822216	0.269545	-0.160750
Br158	Br	1.322216	0.769545	0.339250
Br159	Br	0.815663	0.716430	-0.160734
Br160	Br	1.315663	1.216430	0.339266
H161	H	0.031018	-0.088156	-0.123662
H162	H	0.531018	0.411844	0.376338
H163	H	0.895000	0.351782	-0.094732
H164	H	1.395000	0.851782	0.405268
H165	H	0.817892	0.565334	-0.123690
H166	H	1.317892	1.065334	0.376310
H167	H	0.747389	0.331957	0.094957
H168	H	1.247389	0.831957	0.594957
H169	H	0.031109	-0.088166	0.123961
H170	H	0.531109	0.411834	0.623961
H171	H	0.824434	0.118443	-0.123713
H172	H	1.324434	0.618443	0.376287
H173	H	0.162448	-0.090088	-0.123677
H174	H	0.662448	0.409912	0.376323
Br175	Br	0.931891	0.019210	-0.163944
Br176	Br	1.431891	0.519210	0.336056
H177	H	0.906208	-0.006503	-0.671431
H178	H	1.406208	0.493497	-0.171431
Br179	Br	0.842162	0.056760	-0.407029
Br180	Br	1.342162	0.556760	0.092971
Br181	Br	0.931932	0.019210	-0.835776
Br182	Br	1.431932	0.519210	-0.335776
Br183	Br	0.247665	0.004745	-0.123128
Br184	Br	0.747665	0.504745	0.376872
Br185	Br	0.824794	0.098737	0.160963
Br186	Br	1.324794	0.598737	0.660963
H187	H	0.734223	-0.178324	-0.185375
H188	H	1.234223	0.321676	0.314625
H189	H	0.893076	0.483206	-0.094721
H190	H	1.393076	0.983206	0.405279
Br191	Br	0.628987	-0.096975	-0.160775
Br192	Br	1.128987	0.403025	0.339225
H193	H	0.906177	-0.006497	-0.328299
H194	H	1.406177	0.493503	0.171701
H195	H	0.477992	-0.094741	0.123915
H196	H	0.977992	0.405259	0.623915
H197	H	0.395804	-0.019552	-0.094745
H198	H	0.895804	0.480448	0.405255
Br199	Br	0.708544	-0.204043	-0.650077
Br200	Br	1.208544	0.295957	-0.150077
Br201	Br	0.798349	-0.241599	-0.406989
Br202	Br	1.298349	0.258401	0.093011
Br203	Br	0.708517	-0.204036	-0.349731
Br204	Br	1.208517	0.295964	0.150269
H205	H	0.817937	0.565294	0.123936
H206	H	1.317937	1.065294	0.623936
Br207	Br	0.723080	0.480083	0.123338
Br208	Br	1.223080	0.980083	0.623338
