data_functionalizedCrystal
_audit_creation_method	'MofGen! by Chris Wilmer'
_symmetry_space_group_name_H-M	'P1'
_symmetry_Int_Tables_number	1
_symmetry_cell_setting	triclinic
loop_
_symmetry_equiv_pos_as_xyz
  x,y,z
_cell_length_a	13.897448
_cell_length_b	10.686220
_cell_length_c	13.897449
_cell_angle_alpha	85.635580
_cell_angle_beta	90.009266
_cell_angle_gamma	94.399460
loop_
_atom_site_label
_atom_site_type_symbol
_atom_site_fract_x
_atom_site_fract_y
_atom_site_fract_z
Zn1	Zn	-0.270883	1.928937	0.432426
Zn2	Zn	-0.020883	2.178937	0.682426
Zn3	Zn	0.229117	2.428937	0.932426
Zn4	Zn	0.479117	2.678937	1.182426
Zn5	Zn	-0.432149	1.928860	0.271132
Zn6	Zn	-0.182149	2.178860	0.521132
Zn7	Zn	0.067851	2.428860	0.771132
Zn8	Zn	0.317851	2.678860	1.021132
Zn9	Zn	-0.283257	1.717978	0.283498
Zn10	Zn	-0.033257	1.967978	0.533498
Zn11	Zn	0.216743	2.217978	0.783498
Zn12	Zn	0.466743	2.467978	1.033498
Zn13	Zn	-0.444534	1.717892	0.444738
Zn14	Zn	-0.194534	1.967892	0.694738
Zn15	Zn	0.055466	2.217892	0.944738
Zn16	Zn	0.305466	2.467892	1.194738
O17	O	-0.357706	1.823417	0.357949
O18	O	-0.107706	2.073417	0.607949
O19	O	0.142294	2.323417	0.857949
O20	O	0.392294	2.573417	1.107949
O21	O	-0.281914	2.105504	0.400702
O22	O	-0.031914	2.355504	0.650702
O23	O	0.218086	2.605504	0.900702
O24	O	0.468086	2.855504	1.150702
O25	O	-0.412394	1.900890	0.137791
O26	O	-0.162394	2.150890	0.387791
O27	O	0.087606	2.400890	0.637791
O28	O	0.337606	2.650890	0.887791
O29	O	-0.146630	1.746030	0.303276
O30	O	0.103370	1.996030	0.553276
O31	O	0.353370	2.246030	0.803276
O32	O	0.603370	2.496030	1.053276
O33	O	-0.400395	2.105448	0.282200
O34	O	-0.150395	2.355448	0.532200
O35	O	0.099605	2.605448	0.782200
O36	O	0.349605	2.855448	1.032200
O37	O	-0.137539	1.901021	0.412693
O38	O	0.112461	2.151021	0.662693
O39	O	0.362461	2.401021	0.912693
O40	O	0.612461	2.651021	1.162693
O41	O	-0.303003	1.745956	0.146876
O42	O	-0.053003	1.995956	0.396876
O43	O	0.196997	2.245956	0.646876
O44	O	0.446997	2.495956	0.896876
O45	O	-0.315012	1.541389	0.315215
O46	O	-0.065012	1.791389	0.565215
O47	O	0.184988	2.041389	0.815215
O48	O	0.434988	2.291389	1.065215
O49	O	-0.421504	1.745884	0.578087
O50	O	-0.171504	1.995884	0.828087
O51	O	0.078496	2.245884	1.078087
O52	O	0.328496	2.495884	1.328087
O53	O	-0.433502	1.541326	0.433677
O54	O	-0.183502	1.791326	0.683677
O55	O	0.066498	2.041326	0.933677
O56	O	0.316498	2.291326	1.183677
O57	O	-0.293923	1.900937	0.569041
O58	O	-0.043923	2.150937	0.819041
O59	O	0.206077	2.400937	1.069041
O60	O	0.456077	2.650937	1.319041
O61	O	-0.568778	1.900807	0.294139
O62	O	-0.318778	2.150807	0.544139
O63	O	-0.068778	2.400807	0.794139
O64	O	0.181222	2.650807	1.044139
O65	O	-0.577877	1.745810	0.421687
O66	O	-0.327877	1.995810	0.671687
O67	O	-0.077877	2.245810	0.921687
O68	O	0.172123	2.495810	1.171687
C69	C	-0.376945	1.495573	0.377125
C70	C	-0.126945	1.745573	0.627125
C71	C	0.123055	1.995573	0.877125
C72	C	0.373055	2.245573	1.127125
C73	C	-0.385198	1.355320	0.385351
C74	C	-0.135198	1.605320	0.635351
C75	C	0.114802	1.855320	0.885351
C76	C	0.364802	2.105320	1.135351
C77	C	-0.608326	1.823325	0.357926
C78	C	-0.358326	2.073325	0.607926
C79	C	-0.108326	2.323325	0.857926
C80	C	0.141674	2.573325	1.107926
C81	C	-0.715535	1.823401	0.357942
C82	C	-0.465535	2.073401	0.607942
C83	C	-0.215535	2.323401	0.857942
C84	C	0.034465	2.573401	1.107942
C85	C	-0.911822	1.823533	0.357995
C86	C	-0.661822	2.073533	0.607995
C87	C	-0.411822	2.323533	0.857995
C88	C	-0.161822	2.573533	1.107995
C89	C	-0.802595	1.823456	0.357969
C90	C	-0.552595	2.073456	0.607969
C91	C	-0.302595	2.323456	0.857969
C92	C	-0.052595	2.573456	1.107969
C93	C	-0.106106	1.823544	0.357990
C94	C	0.143894	2.073544	0.607990
C95	C	0.393894	2.323544	0.857990
C96	C	0.643894	2.573544	1.107990
C97	C	0.001112	1.823598	0.358008
C98	C	0.251112	2.073598	0.608008
C99	C	0.501112	2.323598	0.858008
C100	C	0.751112	2.573598	1.108008
C101	C	-0.357715	1.823409	0.609542
C102	C	-0.107715	2.073409	0.859542
C103	C	0.142285	2.323409	1.109542
C104	C	0.392285	2.573409	1.359542
C105	C	-0.357719	1.823406	0.716756
C106	C	-0.107719	2.073406	0.966756
C107	C	0.142281	2.323406	1.216756
C108	C	0.392281	2.573406	1.466756
C109	C	-0.338393	2.152541	0.338699
C110	C	-0.088393	2.402541	0.588699
C111	C	0.161607	2.652541	0.838699
C112	C	0.411607	2.902541	1.088699
C113	C	-0.330163	2.292793	0.330495
C114	C	-0.080163	2.542793	0.580495
C115	C	0.169837	2.792793	0.830495
C116	C	0.419837	3.042793	1.080495
C117	C	-0.357722	1.823403	0.803826
C118	C	-0.107722	2.073403	1.053826
C119	C	0.142278	2.323403	1.303826
C120	C	0.392278	2.573403	1.553826
C121	C	-0.357718	1.823402	0.913059
C122	C	-0.107718	2.073402	1.163059
C123	C	0.142282	2.323402	1.413059
C124	C	0.392282	2.573402	1.663059
C125	C	-0.357718	1.823412	1.107335
C126	C	-0.107718	2.073412	1.357335
C127	C	0.142282	2.323412	1.607335
C128	C	0.392282	2.573412	1.857335
C129	C	-0.357709	1.823408	1.000121
C130	C	-0.107709	2.073408	1.250121
C131	C	0.142291	2.323408	1.500121
C132	C	0.392291	2.573408	1.750121
H133	H	-0.438640	1.301548	0.438607
H134	H	-0.188640	1.551548	0.688607
H135	H	0.061360	1.801548	0.938607
H136	H	0.311360	2.051548	1.188607
H137	H	-0.276731	1.346559	0.277237
H138	H	-0.026731	1.596559	0.527237
H139	H	0.223269	1.846559	0.777237
H140	H	0.473269	2.096559	1.027237
