data_functionalizedCrystal
_audit_creation_method	'MofGen! by Chris Wilmer'
_symmetry_space_group_name_H-M	'P1'
_symmetry_Int_Tables_number	1
_symmetry_cell_setting	triclinic
loop_
_symmetry_equiv_pos_as_xyz
  x,y,z
_cell_length_a	11.792241
_cell_length_b	10.654550
_cell_length_c	9.730223
_cell_angle_alpha	90.004253
_cell_angle_beta	89.999084
_cell_angle_gamma	84.339173
loop_
_atom_site_label
_atom_site_type_symbol
_atom_site_fract_x
_atom_site_fract_y
_atom_site_fract_z
O1	O	-1.507304	-0.172135	-0.114156
O2	O	-1.177004	-0.189875	-0.114188
O3	O	-1.349749	0.001756	-0.114163
O4	O	-1.334560	-0.363766	-0.114181
O5	O	-1.349737	0.001761	0.114417
O6	O	-1.176993	-0.189870	0.114392
O7	O	-1.507293	-0.172130	0.114424
Zn8	Zn	-1.342141	-0.180999	0.150700
Zn9	Zn	-1.342156	-0.181006	-0.150464
O10	O	-1.334549	-0.363761	0.114399
C11	C	-1.348628	0.048553	0.000127
C12	C	-1.345291	0.187987	0.000124
C13	C	-1.134705	-0.188758	0.000098
C14	C	-1.008684	-0.185423	0.000086
C15	C	-1.549592	-0.173247	0.000135
C16	C	-1.675614	-0.176582	0.000138
C17	C	-0.777958	-0.179290	0.000126
C18	C	-0.906351	-0.182697	0.000104
C19	C	-1.335670	-0.410558	0.000106
C20	C	-1.339006	-0.549992	0.000100
N21	N	-1.342140	-0.180994	0.356236
C22	C	-1.447000	0.267760	0.000133
C23	C	-1.443859	0.398772	0.000116
C24	C	-1.237290	0.370225	0.000086
C25	C	-1.240433	0.239215	0.000094
N26	N	-1.342167	-0.181002	-0.356000
C27	C	-1.418657	-0.096175	0.428173
C28	C	-1.418668	-0.096176	0.572056
C29	C	-1.265641	-0.265824	0.572052
C30	C	-1.265625	-0.265816	0.428172
H31	H	-1.532383	0.226055	0.000155
H32	H	-1.480974	-0.027108	0.630624
C33	C	-1.555739	0.486518	0.000135
H34	H	-1.618634	0.437240	0.000165
H35	H	-1.558819	0.538210	-0.079578
H36	H	-1.558796	0.538225	0.079854
C37	C	-1.181455	-0.359124	0.349036
H38	H	-1.135899	-0.409655	0.412483
H39	H	-1.133853	-0.313588	0.292921
H40	H	-1.222694	-0.411709	0.292896
H41	H	-1.151917	0.411951	0.000064
C42	C	-1.128550	0.151453	0.000076
H43	H	-1.145443	0.066093	0.000068
H44	H	-1.085584	0.167058	0.079776
H45	H	-1.085611	0.167054	-0.079655
C46	C	-1.502809	-0.002864	0.349048
H47	H	-1.548373	0.047658	0.412504
H48	H	-1.550403	-0.048387	0.292904
H49	H	-1.461556	0.049728	0.292939
C50	C	-1.181493	-0.359132	0.651186
H51	H	-1.192469	-0.347000	0.747179
H52	H	-1.105635	-0.344930	0.627624
H53	H	-1.194482	-0.443045	0.627586
