data_functionalizedCrystal
_audit_creation_method	'MofGen! by Chris Wilmer'
_symmetry_space_group_name_H-M	'P1'
_symmetry_Int_Tables_number	1
_symmetry_cell_setting	triclinic
loop_
_symmetry_equiv_pos_as_xyz
  x,y,z
_cell_length_a	6.817900
_cell_length_b	12.908942
_cell_length_c	17.110486
_cell_angle_alpha	96.442765
_cell_angle_beta	99.060439
_cell_angle_gamma	100.860556
loop_
_atom_site_label
_atom_site_type_symbol
_atom_site_fract_x
_atom_site_fract_y
_atom_site_fract_z
V1	V	-3.963551	-0.145539	-0.246281
O2	O	-3.966044	0.007317	-0.242046
O3	O	-3.902251	-0.288890	-0.244161
O4	O	-3.893627	-0.143159	-0.353891
O5	O	-3.974728	-0.139424	-0.131556
V6	V	-4.451640	-0.127272	-0.232612
O7	O	-4.214795	-0.185608	-0.276265
O8	O	-4.650594	-0.087203	-0.202627
O9	O	-4.289734	0.016079	-0.234732
O10	O	-4.566544	-0.280128	-0.236847
O11	O	-4.557860	-0.133388	-0.347337
O12	O	-4.298357	-0.129653	-0.125001
C13	C	-3.744810	-0.323841	-0.240163
C14	C	-3.775833	-0.441031	-0.239147
C15	C	-4.195818	-0.671977	-0.245119
C16	C	-4.224976	-0.782088	-0.244164
C17	C	-3.863312	-0.771368	-0.236289
C18	C	-3.834154	-0.661257	-0.237244
C19	C	-4.000414	-0.611565	-0.241657
C20	C	-3.971252	-0.501450	-0.242606
C21	C	-3.609592	-0.490734	-0.234737
C22	C	-3.638750	-0.600845	-0.233783
C23	C	-3.733809	-0.137944	-0.380134
C24	C	-3.757837	-0.136946	-0.468103
C25	C	-3.949938	-0.141739	-0.513447
C26	C	-3.972503	-0.140801	-0.596103
C27	C	-3.802966	-0.135078	-0.633415
C28	C	-3.610848	-0.130282	-0.588065
C29	C	-3.588283	-0.131212	-0.505410
C30	C	-3.862047	-0.131998	-0.882779
C31	C	-3.884628	-0.131071	-0.965441
C32	C	-4.246282	-0.141588	-0.973473
C33	C	-4.223702	-0.142525	-0.890816
C34	C	-4.031586	-0.137723	-0.845473
C35	C	-3.826027	-0.134122	-0.717903
C36	C	-4.008525	-0.138671	-0.760986
C37	C	-4.110517	0.051023	-0.238727
C38	C	-4.058731	0.168213	-0.239748
C39	C	-4.121518	-0.134871	-0.098754
C40	C	-4.076730	-0.135863	-0.010784
H41	H	-3.503394	-0.641320	-0.230192
N42	N	-3.398816	-0.425574	-0.230995
H43	H	-3.405565	-0.348278	-0.232267
H44	H	-3.341409	-0.452650	-0.278359
N45	N	-4.179714	-0.145977	-0.644998
H46	H	-4.216901	-0.211465	-0.686958
H47	H	-4.177257	-0.080135	-0.671931
H48	H	-4.088001	-0.146406	-0.483075
N49	N	-4.191367	-0.144846	-0.720739
H50	H	-4.294104	-0.212627	-0.744360
H51	H	-4.254436	-0.081295	-0.729399
H52	H	-3.687994	-0.129466	-0.748292
H53	H	-3.746559	-0.126407	-0.995817
N54	N	-3.654846	-0.126815	-0.833879
H55	H	-3.550877	-0.123052	-0.870061
H56	H	-3.657352	-0.192613	-0.806890
H57	H	-4.331190	-0.631514	-0.248700
N58	N	-3.684023	-0.824985	-0.231521
H59	H	-3.616344	-0.813666	-0.279212
H60	H	-3.732336	-0.903884	-0.231416
N61	N	-3.427975	-0.124106	-0.628299
H62	H	-3.409515	-0.057846	-0.654931
H63	H	-3.449148	-0.189177	-0.669858
N64	N	-4.150570	-0.447855	-0.247377
H65	H	-4.102454	-0.368933	-0.247456
H66	H	-4.218172	-0.459269	-0.199681
N67	N	-3.381086	-0.126036	-0.456499
H68	H	-3.277107	-0.122270	-0.492676
H69	H	-3.383598	-0.191834	-0.429511
H70	H	-4.384090	-0.831272	-0.246984
H71	H	-4.361762	-0.147184	-0.860443
N72	N	-4.453483	-0.146763	-1.022377
H73	H	-4.442060	-0.145304	-1.080401
H74	H	-4.508734	-0.083575	-1.002197
