data_functionalizedCrystal
_audit_creation_method	'MofGen! by Chris Wilmer'
_symmetry_space_group_name_H-M	'P1'
_symmetry_Int_Tables_number	1
_symmetry_cell_setting	triclinic
loop_
_symmetry_equiv_pos_as_xyz
  x,y,z
_cell_length_a	16.959455
_cell_length_b	12.594516
_cell_length_c	16.959447
_cell_angle_alpha	89.973903
_cell_angle_beta	89.977004
_cell_angle_gamma	90.015193
loop_
_atom_site_label
_atom_site_type_symbol
_atom_site_fract_x
_atom_site_fract_y
_atom_site_fract_z
Zn1	Zn	1.208415	-0.423805	-0.447060
Zn2	Zn	1.708415	0.076195	0.052940
Zn3	Zn	1.208336	-0.601812	-0.314891
Zn4	Zn	1.708336	-0.101812	0.185109
Zn5	Zn	1.076237	-0.423839	-0.314884
Zn6	Zn	1.576237	0.076161	0.185116
Zn7	Zn	1.076212	-0.601732	-0.447016
Zn8	Zn	1.576212	-0.101732	0.052984
O9	O	1.142300	-0.512797	-0.380963
O10	O	1.642300	-0.012797	0.119037
O11	O	1.319015	-0.447437	-0.429549
O12	O	1.819015	0.052563	0.070451
O13	O	1.190790	-0.578251	-0.204279
O14	O	1.690790	-0.078251	0.295721
O15	O	1.093814	-0.274888	-0.332432
O16	O	1.593814	0.225112	0.167568
O17	O	1.318957	-0.578218	-0.332446
O18	O	1.818957	-0.078218	0.167554
O19	O	1.190925	-0.274864	-0.429542
O20	O	1.690925	0.225136	0.070458
O21	O	1.093738	-0.447495	-0.204274
O22	O	1.593738	0.052505	0.295726
O23	O	0.965623	-0.447418	-0.332389
O24	O	1.465623	0.052582	0.167611
O25	O	1.093772	-0.578082	-0.557633
O26	O	1.593772	-0.078082	-0.057633
O27	O	0.965605	-0.578115	-0.429467
O28	O	1.465605	-0.078115	0.070533
O29	O	1.190900	-0.447360	-0.557665
O30	O	1.690900	0.052640	-0.057665
O31	O	1.190766	-0.750747	-0.332403
O32	O	1.690766	-0.250747	0.167597
O33	O	1.093695	-0.750689	-0.429474
O34	O	1.593695	-0.250689	0.070526
C35	C	0.936934	-0.512762	-0.380923
C36	C	1.436934	-0.012762	0.119077
C37	C	0.849077	-0.512773	-0.380925
C38	C	1.349077	-0.012773	0.119075
C39	C	0.477561	-0.580827	-0.330375
C40	C	0.977561	-0.080827	0.169625
C41	C	0.477642	-0.444855	-0.431647
C42	C	0.977642	0.055145	0.068353
C43	C	0.560188	-0.444838	-0.431627
C44	C	1.060188	0.055162	0.068373
C45	C	0.601424	-0.512817	-0.380982
C46	C	1.101424	-0.012817	0.119018
C47	C	0.560114	-0.580814	-0.330356
C48	C	1.060114	-0.080814	0.169644
C49	C	0.601505	-0.376849	-0.482258
C50	C	1.101505	0.123151	0.017742
C51	C	0.684055	-0.376830	-0.482242
C52	C	1.184055	0.123170	0.017758
C53	C	0.725293	-0.444805	-0.431592
C54	C	1.225293	0.055195	0.068408
C55	C	0.683978	-0.512804	-0.380963
C56	C	1.183978	-0.012804	0.119037
C57	C	0.725213	-0.580783	-0.330318
C58	C	1.225213	-0.080783	0.169682
C59	C	0.683900	-0.648778	-0.279684
C60	C	1.183900	-0.148778	0.220316
C61	C	0.601351	-0.648789	-0.279706
C62	C	1.101351	-0.148789	0.220294
C63	C	0.807841	-0.444794	-0.431570
C64	C	1.307841	0.055206	0.068430
C65	C	0.807767	-0.580770	-0.330298
C66	C	1.307767	-0.080770	0.169702
C67	C	1.142241	-0.789338	-0.380952
C68	C	1.642241	-0.289338	0.119048
C69	C	1.142287	-0.907643	-0.380974
C70	C	1.642287	-0.407643	0.119026
C71	C	1.089534	-1.047667	-0.433744
C72	C	1.589534	-0.547667	0.066256
C73	C	1.161593	-0.976761	-0.453143
C74	C	1.661593	-0.476761	0.046857
C75	C	1.070235	-0.976978	-0.361610
C76	C	1.570235	-0.476978	0.138390
C77	C	1.214514	-1.047523	-0.400439
C78	C	1.714514	-0.547523	0.099561
C79	C	1.123107	-1.047746	-0.308873
C80	C	1.623107	-0.547746	0.191127
C81	C	1.195217	-0.976872	-0.328244
C82	C	1.695217	-0.476872	0.171756
C83	C	1.348468	-0.512833	-0.381003
C84	C	1.848468	-0.012833	0.118997
C85	C	1.436325	-0.512848	-0.381020
C86	C	1.936325	-0.012848	0.118980
C87	C	1.142342	-0.512708	-0.587131
C88	C	1.642342	-0.012708	-0.087131
C89	C	1.142360	-0.512671	-0.674988
C90	C	1.642360	-0.012671	-0.174988
C91	C	1.142381	-0.235176	-0.380991
C92	C	1.642381	0.264824	0.119009
C93	C	1.142416	-0.116871	-0.381003
C94	C	1.642416	0.383129	0.118997
C95	C	1.091899	-0.444480	-1.046467
C96	C	1.591899	0.055520	-0.546467
C97	C	1.192960	-0.580638	-1.046460
C98	C	1.692960	-0.080638	-0.546460
C99	C	1.192947	-0.580662	-0.963914
C100	C	1.692947	-0.080662	-0.463914
C101	C	1.142408	-0.512596	-0.922641
C102	C	1.642408	-0.012596	-0.422641
C103	C	1.091882	-0.444505	-0.963913
C104	C	1.591882	0.055495	-0.463913
C105	C	1.243466	-0.648760	-0.922636
C106	C	1.743466	-0.148760	-0.422636
C107	C	1.243453	-0.648788	-0.840085
C108	C	1.743453	-0.148788	-0.340085
C109	C	1.192918	-0.580716	-0.798810
C110	C	1.692918	-0.080716	-0.298810
C111	C	1.142391	-0.512621	-0.840087
C112	C	1.642391	-0.012621	-0.340087
C113	C	1.091852	-0.444555	-0.798814
C114	C	1.591852	0.055445	-0.298814
C115	C	1.041328	-0.376454	-0.840090
C116	C	1.541328	0.123546	-0.340090
C117	C	1.041347	-0.376432	-0.922638
C118	C	1.541347	0.123568	-0.422638
C119	C	1.192899	-0.580737	-0.716261
C120	C	1.692899	-0.080737	-0.216261
C121	C	1.091835	-0.444580	-0.716260
C122	C	1.591835	0.055420	-0.216260
C123	C	1.142303	-0.512808	-0.175596
C124	C	1.642303	-0.012808	0.324404
C125	C	1.142438	-0.512546	-0.087740
C126	C	1.642438	-0.012546	0.412260
H127	H	0.443919	-0.636184	-0.289148
H128	H	0.943919	-0.136184	0.210852
H129	H	1.239934	-0.945984	-0.283630
H130	H	1.739934	-0.445984	0.216370
H131	H	1.000212	-0.320990	-0.956252
H132	H	1.500212	0.179010	-0.456252
N133	N	0.989450	-0.935934	-0.339891
N134	N	1.489450	-0.435934	0.160109
H135	H	0.974506	-0.962867	-0.285808
H136	H	1.474506	-0.462867	0.214192
H137	H	0.990176	-0.855750	-0.339584
H138	H	1.490176	-0.355750	0.160416
N139	N	1.030449	-1.088859	-0.492882
N140	N	1.530449	-0.588859	0.007118
H141	H	0.989414	-1.133083	-0.464834
H142	H	1.489414	-0.633083	0.035166
H143	H	1.004004	-1.027017	-0.520044
H144	H	1.504004	-0.527017	-0.020044
H145	H	1.050683	-0.389146	-0.682661
H146	H	1.550683	0.110854	-0.182661
N147	N	0.556790	-0.722134	-0.225111
N148	N	1.056790	-0.222134	0.274889
H149	H	0.595437	-0.765198	-0.193023
H150	H	1.095437	-0.265198	0.306977
H151	H	0.522517	-0.678758	-0.188595
H152	H	1.022517	-0.178758	0.311405
H153	H	1.050767	-0.389031	-1.080077
H154	H	1.550767	0.110969	-0.580077
H155	H	1.000176	-0.321039	-0.806474
H156	H	1.500176	0.178961	-0.306474
H157	H	0.841335	-0.636124	-0.289054
H158	H	1.341335	-0.136124	0.210946
N159	N	0.433172	-0.371544	-0.486274
N160	N	0.933172	0.128456	0.013726
H161	H	0.374608	-0.381873	-0.478605
H162	H	0.874608	0.118127	0.021395
H163	H	0.447598	-0.295504	-0.474062
H164	H	0.947598	0.204496	0.025938
H165	H	0.567924	-0.321511	-0.523496
H166	H	1.067924	0.178489	-0.023496
N167	N	1.247457	-0.654064	-1.090972
N168	N	1.747457	-0.154064	-0.590972
H169	H	1.239797	-0.643721	-1.149529
H170	H	1.739797	-0.143721	-0.649529
H171	H	1.303913	-0.637518	-1.076564
H172	H	1.803913	-0.137518	-0.576564
H173	H	1.284603	-0.704188	-0.956247
H174	H	1.784603	-0.204188	-0.456247
H175	H	1.284592	-0.704241	-0.806485
H176	H	1.784592	-0.204241	-0.306485
N177	N	1.247380	-0.654188	-0.671744
N178	N	1.747380	-0.154188	-0.171744
H179	H	1.279393	-0.697306	-0.710420
H180	H	1.779393	-0.197306	-0.210420
H181	H	1.283970	-0.610885	-0.637510
H182	H	1.783970	-0.110885	-0.137510
H183	H	0.717686	-0.321464	-0.523470
H184	H	1.217686	0.178536	-0.023470
H185	H	0.717485	-0.704132	-0.238453
H186	H	1.217485	-0.204132	0.261547
H187	H	1.275520	-1.078384	-0.416900
H188	H	1.775520	-0.578384	0.083100
N189	N	1.183167	-0.935459	-0.533922
N190	N	1.683167	-0.435459	-0.033922
H191	H	1.143239	-0.961205	-0.573738
H192	H	1.643239	-0.461205	-0.073738
H193	H	1.183473	-0.855278	-0.533110
H194	H	1.683473	-0.355278	-0.033110
H195	H	1.106804	-1.078947	-0.247904
H196	H	1.606804	-0.578947	0.252096
N197	N	0.852402	-0.371475	-0.486180
N198	N	1.352402	0.128525	0.013820
H199	H	0.813753	-0.328418	-0.518269
H200	H	1.313753	0.171582	-0.018269
H201	H	0.886636	-0.322154	-0.454062
H202	H	1.386636	0.177846	0.045938
