data_functionalizedCrystal
_audit_creation_method	'MofGen! by Chris Wilmer'
_symmetry_space_group_name_H-M	'P1'
_symmetry_Int_Tables_number	1
_symmetry_cell_setting	triclinic
loop_
_symmetry_equiv_pos_as_xyz
  x,y,z
_cell_length_a	16.109293
_cell_length_b	14.750779
_cell_length_c	16.109304
_cell_angle_alpha	102.636153
_cell_angle_beta	96.539546
_cell_angle_gamma	102.634495
loop_
_atom_site_label
_atom_site_type_symbol
_atom_site_fract_x
_atom_site_fract_y
_atom_site_fract_z
O1	O	-1.085069	0.079894	0.124895
O2	O	-0.585069	0.579894	0.624895
O3	O	-0.843010	0.079878	0.138197
O4	O	-0.343010	0.579878	0.638197
O5	O	-0.970688	0.079887	0.010515
O6	O	-0.470688	0.579887	0.510515
O7	O	-0.957391	0.079885	0.252577
O8	O	-0.457391	0.579885	0.752577
O9	O	-1.006781	-0.079761	-0.025575
O10	O	-0.506781	0.420239	0.474425
O11	O	-0.879103	-0.079770	0.102107
O12	O	-0.379103	0.420230	0.602107
O13	O	-1.121162	-0.079754	0.088805
O14	O	-0.621162	0.420246	0.588805
Zn15	Zn	-1.005863	-0.105110	0.089726
Zn16	Zn	-0.505863	0.394890	0.589726
Zn17	Zn	-0.958309	0.105233	0.137276
Zn18	Zn	-0.458309	0.605233	0.637276
O19	O	-0.993484	-0.079763	0.216487
O20	O	-0.493484	0.420237	0.716487
C21	C	-0.830082	0.000052	0.119614
C22	C	-0.330082	0.500052	0.619614
C23	C	-0.737788	0.000047	0.118000
C24	C	-0.237788	0.500047	0.618000
N25	N	-1.038324	-0.248663	0.057273
N26	N	-0.538324	0.251337	0.557273
C27	C	-0.545119	-0.086974	0.094600
C28	C	-0.045119	0.413026	0.594600
C29	C	-0.458399	-0.086973	0.093076
C30	C	0.041601	0.413027	0.593076
C31	C	-0.419059	0.087084	0.132428
C32	C	0.080941	0.587084	0.632428
C33	C	-0.505779	0.087082	0.133945
C34	C	-0.005779	0.587082	0.633945
C35	C	-0.568807	0.000050	0.115035
C36	C	-0.068807	0.500050	0.615035
C37	C	-0.395366	0.000053	0.111993
C38	C	0.104634	0.500053	0.611993
C39	C	-0.301340	0.000054	0.110341
C40	C	0.198660	0.500054	0.610341
C41	C	-0.662840	0.000048	0.116685
C42	C	-0.162840	0.500048	0.616685
C43	C	-0.835198	-0.600495	0.260320
C44	C	-0.335198	-0.100495	0.760320
C45	C	-0.857950	-0.700993	0.237585
C46	C	-0.357950	-0.200993	0.737585
C47	C	-0.971032	-0.700948	0.124564
C48	C	-0.471032	-0.200948	0.624564
C49	C	-0.948287	-0.600448	0.147287
C50	C	-0.448287	-0.100448	0.647287
C51	C	-0.880369	-0.550230	0.215166
C52	C	-0.380369	-0.050230	0.715166
C53	C	-0.993458	-0.550183	0.102133
C54	C	-0.493458	-0.050183	0.602133
C55	C	-0.970717	-0.449692	0.124858
C56	C	-0.470717	0.050308	0.624858
C57	C	-0.902804	-0.399466	0.192736
C58	C	-0.402804	0.100534	0.692736
C59	C	-0.857628	-0.449739	0.237891
C60	C	-0.357628	0.050261	0.737891
C61	C	-1.061379	-0.600403	0.034258
C62	C	-0.561379	-0.100403	0.534258
C63	C	-1.106551	-0.550137	-0.010895
C64	C	-0.606551	-0.050137	0.489105
C65	C	-1.083806	-0.449645	0.011825
C66	C	-0.583806	0.050355	0.511825
C67	C	-1.015893	-0.399419	0.079703
C68	C	-0.515893	0.100581	0.579703
C69	C	-1.128982	-0.399372	-0.033330
C70	C	-0.628982	0.100628	0.466670
C71	C	-1.106241	-0.298881	-0.010606
C72	C	-0.606241	0.201119	0.489394
C73	C	-0.993152	-0.298928	0.102427
C74	C	-0.493152	0.201072	0.602427
C75	C	-0.134091	0.000066	0.107394
C76	C	0.365909	0.500066	0.607394
C77	C	-0.226385	0.000056	0.109028
C78	C	0.273615	0.500056	0.609028
C79	C	-0.988195	0.000065	-0.038504
C80	C	-0.488195	0.500065	0.461496
C81	C	-0.986577	0.000071	-0.130798
C82	C	-0.486577	0.500071	0.369202
N83	N	-0.925855	0.248787	0.169722
N84	N	-0.425855	0.748787	0.669722
C85	C	-0.963170	0.087092	-0.323463
C86	C	-0.463170	0.587092	0.176537
C87	C	-0.961644	0.087091	-0.410183
C88	C	-0.461644	0.587091	0.089817
C89	C	-1.000999	-0.086966	-0.449528
C90	C	-0.500999	0.413034	0.050472
C91	C	-1.002519	-0.086964	-0.362808
C92	C	-0.502519	0.413036	0.137192
C93	C	-0.983608	0.000068	-0.299778
C94	C	-0.483608	0.500068	0.200222
C95	C	-0.980562	0.000065	-0.473218
C96	C	-0.480562	0.500065	0.026782
C97	C	-0.978908	0.000063	-0.567244
C98	C	-0.478908	0.500063	-0.067244
C99	C	-0.985261	0.000070	-0.205746
C100	C	-0.485261	0.500070	0.294254
C101	C	-0.975977	0.000061	0.265507
C102	C	-0.475977	0.500061	0.765507
C103	C	-0.977593	0.000061	0.357802
C104	C	-0.477593	0.500061	0.857802
H105	H	-0.596436	-0.157841	0.079201
H106	H	-0.096436	0.342159	0.579201
H107	H	-0.884292	-0.317640	0.211240
H108	H	-0.384292	0.182360	0.711240
F109	F	-1.178833	-0.603592	-0.083134
F110	F	-0.678833	-0.103592	0.416866
F111	F	-0.939890	0.179714	-0.435386
F112	F	-0.439890	0.679714	0.064614
H113	H	-1.019158	-0.157834	-0.343526
H114	H	-0.519158	0.342166	0.156474
F115	F	-0.433194	-0.179597	0.071326
F116	F	0.066806	0.320403	0.571326
F117	F	-0.530990	0.179710	0.155691
F118	F	-0.030990	0.679710	0.655691
H119	H	-0.367731	0.157942	0.147825
H120	H	0.132269	0.657942	0.647825
F121	F	-1.201270	-0.452829	-0.105563
F122	F	-0.701270	0.047171	0.394437
F123	F	-0.920858	-0.245480	0.174665
F124	F	-0.420858	0.254520	0.674665
F125	F	-0.785335	-0.396290	0.310129
F126	F	-0.285335	0.103710	0.810129
H127	H	-0.779887	-0.559605	0.315589
H128	H	-0.279887	-0.059605	0.815589
F129	F	-0.809866	-0.754482	0.285654
F130	F	-0.309866	-0.254482	0.785654
H131	H	-1.026333	-0.741847	0.069298
H132	H	-0.526333	-0.241847	0.569298
H133	H	-1.079895	-0.682229	0.015762
H134	H	-0.579895	-0.182229	0.515762
F135	F	-1.021124	-0.179586	-0.516615
F136	F	-0.521124	0.320414	-0.016615
F137	F	-1.154321	-0.245385	-0.058663
F138	F	-0.654321	0.254615	0.441337
H139	H	-0.947770	0.157959	-0.272145
H140	H	-0.447770	0.657959	0.227855
