data_functionalizedCrystal
_audit_creation_method	'MofGen! by Chris Wilmer'
_symmetry_space_group_name_H-M	'P1'
_symmetry_Int_Tables_number	1
_symmetry_cell_setting	triclinic
loop_
_symmetry_equiv_pos_as_xyz
  x,y,z
_cell_length_a	18.266242
_cell_length_b	9.065218
_cell_length_c	9.065218
_cell_angle_alpha	94.984115
_cell_angle_beta	90.003214
_cell_angle_gamma	89.990991
loop_
_atom_site_label
_atom_site_type_symbol
_atom_site_fract_x
_atom_site_fract_y
_atom_site_fract_z
O1	O	0.060880	-1.960411	0.216357
O2	O	0.060880	-1.531126	0.234103
O3	O	0.060878	-1.754642	0.010588
O4	O	0.060881	-1.736895	0.439872
O5	O	-0.060884	-1.754603	0.010581
O6	O	-0.060882	-1.531088	0.234096
O7	O	-0.060882	-1.960372	0.216350
Zn8	Zn	-0.080214	-1.745724	0.225222
Zn9	Zn	0.080212	-1.745775	0.225231
O10	O	-0.060881	-1.736857	0.439865
C11	C	-0.000001	-1.476120	0.232394
C12	C	-0.000000	-1.312277	0.227294
C13	C	-0.000001	-1.752917	-0.044403
C14	C	0.000002	-1.747817	-0.208245
N15	N	-0.189701	-1.745700	0.225215
C16	C	-0.228004	-1.836373	0.315964
C17	C	-0.304648	-1.836397	0.315960
C18	C	-0.342988	-1.745721	0.225224
C19	C	-0.304677	-1.655042	0.134457
C20	C	-0.228033	-1.655031	0.134452
N21	N	-0.463341	-1.616428	0.219467
N22	N	-0.536149	-1.616442	0.219480
C23	C	-0.573911	-1.745751	0.225230
N24	N	-0.536114	-1.875046	0.230995
N25	N	-0.463299	-1.875030	0.230990
C26	C	-0.426095	-1.745724	0.225218
C27	C	-0.695320	-1.836458	0.315979
C28	C	-0.771966	-1.836486	0.315965
C29	C	-0.771993	-1.655117	0.134471
C30	C	-0.695348	-1.655103	0.134477
C31	C	-0.657016	-1.745771	0.225239
N32	N	0.189699	-1.745810	0.225227
C33	C	0.000000	-2.015378	0.218059
C34	C	0.000004	-2.179221	0.223158
C35	C	0.000001	-1.738582	0.494855
C36	C	0.000002	-1.743681	0.658698
H37	H	-0.335840	-1.910235	0.389862
N38	N	-0.188861	-1.928972	0.408703
N39	N	-0.223075	-2.009911	0.489739
H40	H	-0.195430	-2.075304	0.555245
N41	N	-0.656221	-1.562482	0.041774
N42	N	-0.664783	-1.578313	-0.095493
H43	H	-0.637150	-1.512897	-0.160972
H44	H	-0.335898	-1.581215	0.060578
N45	N	-0.656152	-1.929107	0.408634
N46	N	-0.613375	-2.025872	0.352344
H47	H	-0.585710	-2.091310	0.417773
H48	H	-0.803209	-1.581288	0.060590
N49	N	-0.811078	-1.929111	0.408694
N50	N	-0.802508	-1.913253	0.545959
H51	H	-0.830129	-1.978671	0.611456
N52	N	-0.188916	-1.562407	0.041732
N53	N	-0.223152	-1.481463	-0.039292
H54	H	-0.195525	-1.416045	-0.104779
