data_functionalizedCrystal
_audit_creation_method	'MofGen! by Chris Wilmer'
_symmetry_space_group_name_H-M	'P1'
_symmetry_Int_Tables_number	1
_symmetry_cell_setting	triclinic
loop_
_symmetry_equiv_pos_as_xyz
  x,y,z
_cell_length_a	18.760487
_cell_length_b	17.052862
_cell_length_c	17.052862
_cell_angle_alpha	61.493325
_cell_angle_beta	90.033923
_cell_angle_gamma	70.288255
loop_
_atom_site_label
_atom_site_type_symbol
_atom_site_fract_x
_atom_site_fract_y
_atom_site_fract_z
Zr1	Zr	0.826075	0.816831	-0.199988
O2	O	0.747361	0.944711	-0.328161
O3	O	0.832875	0.666110	-0.145793
O4	O	0.871068	0.783920	-0.306584
O5	O	0.698753	0.860826	-0.057488
O6	O	0.988365	0.783941	-0.306516
O7	O	0.709167	0.826901	-0.167370
O8	O	0.920043	0.573201	-0.018891
O9	O	0.767075	1.071566	-0.345113
O10	O	0.944250	0.736578	-0.140634
O11	O	0.848941	0.761881	-0.058681
O12	O	0.893909	0.900587	-0.247992
O13	O	0.798600	0.925889	-0.166039
Zr14	Zr	0.996540	0.870970	-0.024631
Zr15	Zr	1.013149	0.816864	-0.199880
Zr16	Zr	0.809466	0.870937	-0.024739
Zr17	Zr	0.857517	1.019150	-0.227026
Zr18	Zr	0.965099	0.668650	0.002407
O19	O	0.989741	1.021690	-0.078826
O20	O	1.013357	0.944758	-0.328007
O21	O	0.723745	1.021644	-0.078980
O22	O	1.075254	0.743090	0.103542
O23	O	1.098870	0.666157	-0.145639
O24	O	0.809259	0.743043	0.103388
O25	O	1.123862	0.826974	-0.167131
O26	O	0.951547	0.903881	0.081965
O27	O	0.834251	0.903860	0.081897
O28	O	1.113448	0.860899	-0.057249
O29	O	0.915774	1.071593	-0.345028
O30	O	0.906841	0.616208	0.120409
O31	O	1.055540	0.616234	0.120495
O32	O	1.068742	0.573227	-0.018805
O33	O	0.753873	1.114574	-0.205814
O34	O	0.902572	1.114600	-0.205728
O35	O	0.928706	0.787214	0.023373
O36	O	1.024015	0.761912	-0.058580
O37	O	0.973674	0.925920	-0.165938
O38	O	0.878366	0.951222	-0.083985
C39	C	0.871979	0.590829	-0.078489
C40	C	0.858631	0.504939	-0.067011
C41	C	0.677306	0.843859	-0.112444
C42	C	0.597888	0.843845	-0.112490
C43	C	1.020006	0.210004	-0.205783
C44	C	1.032546	0.290704	-0.216573
C45	C	0.989069	0.344267	-0.179184
C46	C	0.933049	0.317121	-0.131002
C47	C	0.920504	0.236417	-0.120216
C48	C	0.889566	0.370680	-0.093617
C49	C	0.833547	0.343534	-0.045435
C50	C	0.821005	0.262837	-0.034651
C51	C	0.864482	0.209275	-0.072041
C52	C	0.902111	0.451384	-0.104402
C53	C	0.802609	0.477797	-0.018836
C54	C	0.790070	0.397096	-0.008046
C55	C	0.235764	0.929559	-0.168207
C56	C	0.288325	0.758331	-0.056124
C57	C	0.362953	0.758308	-0.056194
C58	C	0.373990	0.843911	-0.112273
C59	C	0.310399	0.929538	-0.168281
C60	C	0.426551	0.672681	-0.000194
C61	C	0.501185	0.672654	-0.000262
C62	C	0.512222	0.758260	-0.056337
C63	C	0.448625	0.843890	-0.112346
C64	C	0.459662	0.929493	-0.168425
C65	C	0.396065	1.015126	-0.224430
C66	C	0.321436	1.015143	-0.224355
C67	C	0.586851	0.758242	-0.056412
C68	C	0.534297	0.929472	-0.168498
C69	C	1.145309	0.843942	-0.112175
C70	C	1.224727	0.843956	-0.112129
C71	C	0.932083	0.776221	-0.331519
C72	C	0.939134	0.753252	-0.405917
C73	C	0.950636	1.096972	-0.146130
C74	C	0.963984	1.182862	-0.157608
C75	C	0.853889	1.030955	-0.839795
C76	C	0.847259	1.052539	-0.769896
C77	C	0.870228	0.977719	-0.678899
C78	C	0.899826	0.881311	-0.657805
C79	C	0.906450	0.859725	-0.727710
C80	C	0.922789	0.806489	-0.566814
C81	C	0.952388	0.710081	-0.545720
C82	C	0.959011	0.688499	-0.615620
C83	C	0.936043	0.763319	-0.706617
C84	C	0.916165	0.828076	-0.496909
C85	C	0.968727	0.656846	-0.384824
C86	C	0.975356	0.635262	-0.454722
C87	C	0.890532	0.911579	0.106900
C88	C	0.883481	0.934549	0.181298
C89	C	1.105981	0.590870	-0.078354
C90	C	1.172051	0.504994	-0.066830
C91	C	0.851204	0.658508	0.140720
C92	C	0.830805	0.595588	0.226596
C93	C	1.085205	0.658549	0.140855
C94	C	1.144224	0.595643	0.226777
C95	C	0.737410	1.029251	-0.365474
C96	C	0.678391	1.092158	-0.451396
C97	C	0.716635	1.096930	-0.146264
C98	C	0.650565	1.182806	-0.157788
C99	C	0.971412	1.029293	-0.365339
C100	C	0.991810	1.092213	-0.451215
C101	C	1.161442	0.451440	-0.104257
C102	C	1.223518	0.370757	-0.093447
C103	C	1.296201	0.343625	-0.045204
C104	C	1.306809	0.397188	-0.007777
C105	C	1.244735	0.477874	-0.018593
C106	C	0.862861	0.579266	0.309763
C107	C	0.843692	0.520159	0.390458
C108	C	0.792471	0.477369	0.387984
C109	C	0.760411	0.493697	0.304808
C110	C	0.779576	0.552808	0.224115
C111	C	1.221699	0.552894	0.224348
C112	C	1.277163	0.493796	0.305072
C113	C	1.255151	0.477443	0.388225
C114	C	1.177669	0.520199	0.390652
C115	C	1.122207	0.579302	0.309927
C116	C	0.600918	1.134917	-0.448968
C117	C	0.545458	1.194040	-0.529696
C118	C	0.567471	1.210397	-0.612849
C119	C	0.644952	1.167635	-0.615275
C120	C	0.700411	1.108519	-0.534549
C121	C	0.661175	1.236367	-0.120370
C122	C	0.599105	1.317067	-0.131202
C123	C	0.526422	1.344200	-0.179448
C124	C	0.515813	1.290635	-0.216871
C125	C	0.577885	1.209941	-0.206044
C126	C	1.043034	1.134985	-0.448712
C127	C	1.062216	1.194097	-0.529393
C128	C	1.030169	1.210441	-0.612578
C129	C	0.978942	1.167661	-0.615078
C130	C	0.959765	1.108545	-0.534397
H131	H	0.947723	0.473479	-0.143633
H132	H	0.952853	1.180978	-0.682818
N133	N	1.077619	1.117352	-0.358998
H134	H	1.057706	1.073410	-0.308258
H135	H	1.062602	1.180977	-0.360768
H136	H	0.552961	0.602926	0.045340
H137	H	0.864828	0.995299	-0.621988
N138	N	1.153939	0.502543	0.480346
H139	H	1.115158	0.471066	0.491358
H140	H	1.129959	0.566153	0.478608
H141	H	1.214866	0.327154	-0.123927
N142	N	0.829113	1.111648	-0.937933
H143	H	0.786745	1.106492	-0.969450
H144	H	0.874675	1.106475	-0.969338
H145	H	0.941441	0.745751	-0.763539
N146	N	0.507645	1.274145	-0.699911
H147	H	0.533339	1.278021	-0.752961
H148	H	0.482156	1.341056	-0.708822
N149	N	1.256187	0.535628	0.021781
H150	H	1.243581	0.604513	-0.028315
H151	H	1.311657	0.506108	0.053987
N152	N	1.245463	0.570521	0.134674
H153	H	1.232056	0.641982	0.092919
H154	H	1.217290	0.546867	0.105696
N155	N	0.729648	0.367811	0.043913
H156	H	0.677420	0.422436	0.013198
H157	H	0.742807	0.352799	0.108276
H158	H	0.569234	1.166333	-0.236514
N159	N	0.610567	1.374830	-0.090841
H160	H	0.597973	1.443708	-0.140946
H161	H	0.666036	1.345302	-0.058628
H162	H	0.767205	0.521410	0.011607
N163	N	0.918110	0.625408	0.312444
H164	H	0.935501	0.606094	0.377381
H165	H	0.891315	0.698034	0.274451
H166	H	0.662867	1.180962	-0.682988
N167	N	1.363150	0.256599	-0.033544
H168	H	1.345393	0.226794	-0.064576
H169	H	1.383140	0.207596	0.033413
N170	N	1.385204	0.367919	0.044254
H171	H	1.422911	0.308676	0.045424
H172	H	1.381254	0.352968	0.108591
N173	N	1.038643	0.625385	0.312560
H174	H	1.006840	0.665306	0.248810
H175	H	1.033992	0.668347	0.339005
N176	N	1.050858	1.274211	-0.699588
H177	H	1.002574	1.330788	-0.742222
H178	H	1.075712	1.235677	-0.729396
N179	N	0.745013	0.570430	0.134398
H180	H	0.714556	0.641891	0.092639
H181	H	0.709689	0.534308	0.145130
H182	H	0.582980	1.121602	-0.381267
N183	N	0.771817	0.413605	0.475028
H184	H	0.787416	0.346650	0.484032
H185	H	0.714294	0.441762	0.471230
N186	N	0.815345	1.156513	-0.792643
H187	H	0.801804	1.200636	-0.860894
H188	H	0.855403	1.169200	-0.766056
N189	N	1.360722	0.447677	0.302432
H190	H	1.378562	0.375038	0.340373
H191	H	1.393290	0.470163	0.327630
H192	H	0.475886	1.409909	-0.188258
N193	N	0.990943	0.584517	-0.592868
H194	H	0.957344	0.550822	-0.556218
H195	H	1.045229	0.550953	-0.556216
H196	H	0.869806	0.506873	0.458175
N197	N	0.705171	0.447536	0.302148
H198	H	0.697904	0.407609	0.365892
H199	H	0.726905	0.404565	0.275728
N200	N	0.993500	0.576138	-0.286682
H201	H	0.984816	0.604441	-0.245601
H202	H	1.050081	0.534988	-0.274405
H203	H	0.482373	1.228848	-0.527703
H204	H	1.300319	0.429316	0.453949
H205	H	0.763492	1.073702	-0.536536
N206	N	1.002597	0.431298	-0.190801
H207	H	0.953428	0.490736	-0.224140
H208	H	1.044709	0.440282	-0.226967
H209	H	0.892064	0.906572	-0.514092
N210	N	0.655438	0.665889	0.003982
H211	H	0.650112	0.641167	0.069664
H212	H	0.704358	0.678931	-0.004647
N213	N	1.083054	0.480691	-0.156293
H214	H	1.044155	0.478752	-0.115174
H215	H	1.085838	0.434493	-0.178353
H216	H	0.999454	0.556765	-0.437559
H217	H	0.720351	1.214284	-0.081079
N218	N	1.117455	1.240244	-0.526683
H219	H	1.124748	1.280173	-0.590412
H220	H	1.168844	1.188163	-0.487484
H221	H	0.918052	1.073726	-0.536448
N222	N	1.092959	0.319986	-0.268541
H223	H	1.118599	0.273811	-0.290590
H224	H	1.132991	0.318086	-0.227338
N225	N	1.066884	0.152248	-0.246122
H226	H	1.050431	0.097011	-0.231982
H227	H	1.123464	0.125768	-0.219152
H228	H	0.456628	1.312740	-0.256154
N229	N	0.850959	0.122227	-0.060396
H230	H	0.887006	0.092415	-0.091389
H231	H	0.795730	0.142847	-0.088533
H232	H	0.775384	0.240744	0.004573
H233	H	0.543273	0.999184	-0.214156
H234	H	0.405062	1.084822	-0.270094
H235	H	0.269651	1.084861	-0.269951
H236	H	0.279333	0.688636	-0.010471
N237	N	0.167178	1.021919	-0.228604
H238	H	0.118222	1.008950	-0.220048
H239	H	0.172572	1.046595	-0.294260
H240	H	0.417558	0.602987	0.045462
