data_functionalizedCrystal
_audit_creation_method	'MofGen! by Chris Wilmer'
_symmetry_space_group_name_H-M	'P1'
_symmetry_Int_Tables_number	1
_symmetry_cell_setting	triclinic
loop_
_symmetry_equiv_pos_as_xyz
  x,y,z
_cell_length_a	17.038272
_cell_length_b	16.992694
_cell_length_c	15.455313
_cell_angle_alpha	92.857794
_cell_angle_beta	92.858370
_cell_angle_gamma	89.110110
loop_
_atom_site_label
_atom_site_type_symbol
_atom_site_fract_x
_atom_site_fract_y
_atom_site_fract_z
O1	O	0.163265	-1.054714	-0.072022
O2	O	0.663265	-0.554714	0.427978
O3	O	0.161438	-0.826308	-0.072048
O4	O	0.661438	-0.326308	0.427952
O5	O	0.048451	-0.939153	-0.072029
O6	O	0.548451	-0.439153	0.427971
O7	O	0.276252	-0.941869	-0.072042
O8	O	0.776252	-0.441869	0.427958
O9	O	0.054884	-0.932698	0.072232
O10	O	0.554884	-0.432698	0.572232
O11	O	0.167870	-0.819853	0.072213
O12	O	0.667870	-0.319853	0.572213
O13	O	0.169698	-1.048259	0.072239
O14	O	0.669698	-0.548259	0.572239
Cu15	Cu	0.169371	-0.933466	0.085398
Cu16	Cu	0.669371	-0.433466	0.585398
Cu17	Cu	0.161764	-0.941100	-0.085207
Cu18	Cu	0.661764	-0.441100	0.414793
O19	O	0.282684	-0.935414	0.072219
O20	O	0.782684	-0.435414	0.572219
C21	C	0.162304	-0.793711	0.000079
C22	C	0.662304	-0.293711	0.500079
C23	C	0.155293	-0.706200	0.000070
C24	C	0.655293	-0.206200	0.500070
C25	C	0.022384	-0.933456	0.000102
C26	C	0.522384	-0.433456	0.500102
C27	C	-0.064871	-0.926089	0.000101
C28	C	0.435129	-0.426089	0.500101
C29	C	0.168831	-1.080856	0.000109
C30	C	0.668831	-0.580856	0.500109
C31	C	0.175842	-1.168367	0.000113
C32	C	0.675842	-0.668367	0.500113
C33	C	-0.110741	-0.993729	0.000109
C34	C	0.389259	-0.493729	0.500109
C35	C	-0.192726	-0.986802	0.000100
C36	C	0.307274	-0.486802	0.500100
C37	C	-0.228840	-0.912235	0.000089
C38	C	0.271160	-0.412235	0.500089
C39	C	-0.182964	-0.844590	0.000078
C40	C	0.317036	-0.344590	0.500078
C41	C	-0.100981	-0.851518	0.000080
C42	C	0.399019	-0.351518	0.500080
C43	C	-0.476134	-0.887761	0.000074
C44	C	0.023866	-0.387761	0.500074
C45	C	-0.558124	-0.880838	0.000074
C46	C	-0.058124	-0.380838	0.500074
C47	C	-0.567881	-1.023051	0.000095
C48	C	-0.067881	-0.523051	0.500095
C49	C	-0.485895	-1.029972	0.000103
C50	C	0.014105	-0.529972	0.500103
C51	C	-0.440026	-0.962327	0.000087
C52	C	0.059974	-0.462327	0.500087
C53	C	-0.312642	-0.905153	0.000082
C54	C	0.187358	-0.405153	0.500082
C55	C	-0.356226	-0.969410	0.000087
C56	C	0.143774	-0.469410	0.500087
C57	C	0.308751	-0.941110	0.000087
C58	C	0.808751	-0.441110	0.500087
C59	C	0.396006	-0.948478	0.000082
C60	C	0.896006	-0.448478	0.500082
N61	N	0.174722	-0.928103	0.205393
N62	N	0.674722	-0.428103	0.705393
C63	C	0.222933	-0.660471	0.000066
C64	C	0.722933	-0.160471	0.500066
C65	C	0.216342	-0.578245	0.000079
C66	C	0.716342	-0.078245	0.500079
C67	C	0.142110	-0.541748	0.000088
C68	C	0.642110	-0.041748	0.500088
C69	C	0.074465	-0.587482	0.000094
C70	C	0.574465	-0.087482	0.500094
C71	C	0.081058	-0.669707	0.000088
C72	C	0.581058	-0.169707	0.500088
C73	C	0.114789	-0.296326	0.000113
C74	C	0.614789	0.203674	0.500113
C75	C	0.108202	-0.214095	0.000117
C76	C	0.608202	0.285905	0.500117
C77	C	0.250079	-0.204863	0.000103
C78	C	0.750079	0.295137	0.500103
C79	C	0.256665	-0.287091	0.000091
C80	C	0.756665	0.212909	0.500091
C81	C	0.189020	-0.332818	0.000102
C82	C	0.689020	0.167182	0.500102
N83	N	0.135371	-0.457699	0.000098
N84	N	0.635371	0.042301	0.500098
N85	N	0.195760	-0.416865	0.000098
N86	N	0.695760	0.083135	0.500098
N87	N	0.156408	-0.946469	-0.205202
N88	N	0.656408	-0.446469	0.294798
C89	C	0.126741	-0.976063	0.250795
C90	C	0.626741	-0.476063	0.750795
C91	C	0.130795	-0.972014	0.341602
C92	C	0.630795	-0.472014	0.841602
C93	C	0.182835	-0.920010	0.387005
C94	C	0.682835	-0.420010	0.887005
C95	C	0.230817	-0.872045	0.341597
C96	C	0.730817	-0.372045	0.841597
C97	C	0.226759	-0.876090	0.250791
C98	C	0.726759	-0.376090	0.750791
C99	C	0.200332	-0.902549	0.658584
C100	C	0.700332	-0.402549	1.158584
C101	C	0.204388	-0.898510	0.749396
C102	C	0.704388	-0.398510	1.249396
C103	C	0.104365	-0.998479	0.749395
C104	C	0.604365	-0.498479	1.249395
C105	C	0.100314	-1.002522	0.658588
C106	C	0.600314	-0.502522	1.158588
C107	C	0.148294	-0.954554	0.613187
C108	C	0.648294	-0.454554	1.113187
N109	N	0.186981	-0.915872	0.479825
N110	N	0.686981	-0.415872	0.979825
N111	N	0.144143	-0.958688	0.520369
N112	N	0.644143	-0.458688	1.020369
H113	H	-0.230070	-1.041882	0.000109
H114	H	0.269930	-0.541882	0.500109
H115	H	0.273186	-0.829697	0.378569
H116	H	0.773186	-0.329697	0.878569
H117	H	-0.456497	-1.090692	0.000112
H118	H	0.043503	-0.590692	0.500112
C119	C	-0.128629	-1.133602	0.000114
C120	C	0.371371	-0.633602	0.500114
C121	C	-0.071049	-1.075697	0.000115
C122	C	0.428951	-0.575697	0.500115
H123	H	-0.104125	-1.184207	0.000109
H124	H	0.395875	-0.684207	0.500109
H125	H	-0.158159	-1.125695	0.050418
H126	H	0.341841	-0.625695	0.550418
H127	H	-0.162644	-1.130183	-0.050196
H128	H	0.337356	-0.630183	0.449804
H129	H	-0.037036	-1.079112	0.050429
H130	H	0.462964	-0.579112	0.550429
H131	H	-0.041505	-1.083607	-0.050194
H132	H	0.458495	-0.583607	0.449806
C133	C	-0.697888	-1.075581	0.000091
C134	C	-0.197888	-0.575581	0.500091
C135	C	-0.618301	-1.097403	0.000099
C136	C	-0.118301	-0.597403	0.500099
H137	H	-0.729014	-1.121486	0.000085
H138	H	-0.229014	-0.621486	0.500085
H139	H	-0.707077	-1.042988	0.050392
H140	H	-0.207077	-0.542988	0.550392
H141	H	-0.711550	-1.047479	-0.050222
H142	H	-0.211550	-0.547479	0.449778
H143	H	-0.604638	-1.125500	0.050416
H144	H	-0.104638	-0.625500	0.550416
H145	H	-0.609108	-1.130009	-0.050207
H146	H	-0.109108	-0.630009	0.449793
C147	C	-0.540251	-0.740957	0.000027
C148	C	-0.040251	-0.240957	0.500027
C149	C	-0.597823	-0.798868	0.000048
C150	C	-0.097823	-0.298868	0.500048
H151	H	-0.564761	-0.690356	0.000005
H152	H	-0.064761	-0.190356	0.500005
H153	H	-0.506239	-0.744354	0.050333
H154	H	-0.006239	-0.244354	0.550333
H155	H	-0.510716	-0.748880	-0.050282
H156	H	-0.010716	-0.248880	0.449718
H157	H	-0.627354	-0.790949	0.050360
H158	H	-0.127354	-0.290949	0.550360
H159	H	-0.631848	-0.795469	-0.050264
H160	H	-0.131848	-0.295469	0.449736
H161	H	-0.212375	-0.783876	0.000063
H162	H	0.287625	-0.283876	0.500063
H163	H	-0.438798	-0.832680	0.000062
H164	H	0.061202	-0.332680	0.500062
H165	H	0.057940	-1.044869	0.621622
H166	H	0.557940	-0.544869	1.121622
C167	C	0.342586	-0.681212	-0.074102
C168	C	0.842586	-0.181212	0.425898
C169	C	0.304534	-0.700582	0.000055
C170	C	0.804534	-0.200582	0.500055
H171	H	0.392966	-0.705969	-0.074103
H172	H	0.892966	-0.205969	0.425897
H173	H	0.312279	-0.698834	-0.124399
H174	H	0.812279	-0.198834	0.375601
H175	H	0.348331	-0.625695	-0.074089
H176	H	0.848331	-0.125695	0.425911
H177	H	0.298784	-0.756099	0.000038
H178	H	0.798784	-0.256099	0.500038
H179	H	0.334849	-0.682964	0.050365
H180	H	0.834849	-0.182964	0.550365
C181	C	-0.099566	-0.710252	0.000066
C182	C	0.400434	-0.210252	0.500066
C183	C	-0.050557	-0.777166	0.000074
C184	C	0.449443	-0.277166	0.500074
H185	H	-0.068435	-0.664350	0.000064
H186	H	0.431565	-0.164350	0.500064
H187	H	-0.133985	-0.712760	-0.050237
H188	H	0.366015	-0.212760	0.449763
H189	H	-0.129506	-0.708260	0.050378
H190	H	0.370494	-0.208260	0.550378
H191	H	-0.020621	-0.779161	-0.050241
H192	H	0.479379	-0.279161	0.449759
H193	H	-0.016124	-0.774657	0.050382
H194	H	0.483876	-0.274657	0.550382
H195	H	0.271422	-0.541016	0.000075
H196	H	0.771422	-0.041016	0.500075
H197	H	0.265828	-0.837035	0.213825
H198	H	0.765828	-0.337035	0.713825
H199	H	0.047750	-0.184383	0.000123
H200	H	0.547750	0.315617	0.500123
C201	C	0.028275	-1.074464	0.259925
C202	C	0.528275	-0.574464	0.759925
C203	C	0.069536	-1.033227	0.200892
C204	C	0.569536	-0.533227	0.700892
H205	H	-0.007047	-1.109750	0.229117
H206	H	0.492953	-0.609750	0.729117
H207	H	0.064325	-1.103387	0.295329
H208	H	0.564325	-0.603387	0.795329
H209	H	-0.000447	-1.038218	0.295354
H210	H	0.499553	-0.538218	0.795354
H211	H	0.098262	-1.069472	0.165466
H212	H	0.598262	-0.569472	0.665466
H213	H	0.033481	-1.004302	0.165473
H214	H	0.533481	-0.504302	0.665473
C215	C	0.029575	-0.977447	0.443723
C216	C	0.529575	-0.477447	0.943723
C217	C	0.078054	-1.024739	0.391502
C218	C	0.578054	-0.524739	0.891502
H219	H	-0.002990	-1.010001	0.474522
H220	H	0.497010	-0.510001	0.974522
H221	H	0.061143	-0.945905	0.483760
H222	H	0.561143	-0.445905	0.983760
H223	H	-0.002314	-0.944372	0.408299
H224	H	0.497686	-0.444372	0.908299
H225	H	0.109948	-1.057811	0.426928
H226	H	0.609948	-0.557811	0.926928
H227	H	0.046483	-1.056295	0.351461
H228	H	0.546483	-0.556295	0.851461
H229	H	-0.326819	-1.030124	0.000077
H230	H	0.173181	-0.530124	0.500077
C231	C	-0.027388	-1.034401	0.777364
C232	C	0.472612	-0.534401	1.277364
C233	C	0.051618	-1.051192	0.799302
C234	C	0.551618	-0.551192	1.299302
H235	H	-0.059954	-1.066947	0.808172
H236	H	0.440046	-0.566947	1.308172
H237	H	-0.038552	-0.980625	0.792256
H238	H	0.461448	-0.480625	1.292256
H239	H	-0.037242	-1.044256	0.716784
H240	H	0.462758	-0.544256	1.216784
H241	H	0.061473	-1.041332	0.859881
H242	H	0.561473	-0.541332	1.359881
H243	H	0.062786	-1.104980	0.784416
H244	H	0.562786	-0.604980	1.284416
C245	C	0.302833	-0.800074	0.740280
C246	C	0.802833	-0.300074	1.240280
C247	C	0.261582	-0.841330	0.799305
C248	C	0.761582	-0.341330	1.299305
H249	H	0.338134	-0.764771	0.771094
H250	H	0.838134	-0.264771	1.271094
H251	H	0.331569	-0.836300	0.704857
H252	H	0.831569	-0.336300	1.204857
H253	H	0.266769	-0.771160	0.704869
H254	H	0.766769	-0.271160	1.204869
H255	H	0.297646	-0.870249	0.834712
H256	H	0.797646	-0.370249	1.334712
H257	H	0.232845	-0.805098	0.834743
H258	H	0.732845	-0.305098	1.334743
H259	H	0.239400	-0.863493	0.621625
H260	H	0.739400	-0.363493	1.121625
C261	C	-0.045185	-0.566727	0.074266
C262	C	0.454815	-0.066727	0.574266
C263	C	-0.007133	-0.547367	0.000104
C264	C	0.492867	-0.047367	0.500104
H265	H	-0.095559	-0.541959	0.074270
H266	H	0.404441	-0.041959	0.574270
H267	H	-0.050937	-0.622235	0.074259
H268	H	0.449063	-0.122235	0.574259
H269	H	-0.014868	-0.549103	0.124566
H270	H	0.485132	-0.049103	0.624566
H271	H	-0.037447	-0.564997	-0.050196
H272	H	0.462553	-0.064997	0.449804
H273	H	-0.001384	-0.491847	0.000104
H274	H	0.498616	0.008153	0.500104
H275	H	0.059707	-0.333548	0.000122
H276	H	0.559707	0.166452	0.500122
C277	C	-0.402490	-0.818188	-0.074081
C278	C	0.097510	-0.318188	0.425919
C279	C	-0.352346	-0.823190	0.000079
C280	C	0.147654	-0.323190	0.500079
H281	H	-0.427006	-0.767589	-0.074079
H282	H	0.072994	-0.267589	0.425921
H283	H	-0.372947	-0.826084	-0.124377
H284	H	0.127053	-0.326084	0.375623
H285	H	-0.441533	-0.857491	-0.074072
H286	H	0.058467	-0.357491	0.425928
H287	H	-0.313299	-0.783890	0.000067
H288	H	0.186701	-0.283890	0.500067
H289	H	-0.381891	-0.815286	0.050388
H290	H	0.118109	-0.315286	0.550388
H291	H	0.025978	-0.706939	0.000090
H292	H	0.525978	-0.206939	0.500090
C293	C	0.343068	-0.377476	-0.074124
C294	C	0.843068	0.122524	0.425876
C295	C	0.338269	-0.327191	0.000054
C296	C	0.838269	0.172809	0.500054
H297	H	0.393452	-0.402224	-0.074159
H298	H	0.893452	0.097776	0.425841
H299	H	0.303744	-0.416485	-0.074108
H300	H	0.803744	0.083515	0.425892
H301	H	0.335277	-0.347817	-0.124413
H302	H	0.835277	0.152183	0.375587
H303	H	0.346055	-0.356851	0.050343
H304	H	0.846055	0.143149	0.550343
H305	H	0.377606	-0.288177	0.000046
H306	H	0.877606	0.211823	0.500046
C307	C	0.390979	-0.203999	0.000085
C308	C	0.890979	0.296001	0.500085
C309	C	0.324432	-0.154600	0.000096
C310	C	0.824432	0.345400	0.500096
H311	H	0.436882	-0.172967	0.000078
H312	H	0.936882	0.327033	0.500078
H313	H	0.392842	-0.234016	0.050388
H314	H	0.892842	0.265984	0.550388
H315	H	0.388348	-0.238508	-0.050227
H316	H	0.888348	0.261492	0.449773
H317	H	0.327060	-0.120094	0.050412
H318	H	0.827060	0.379906	0.550412
H319	H	0.322569	-0.124569	-0.050211
H320	H	0.822569	0.375431	0.449789
