data_functionalizedCrystal
_audit_creation_method	'MofGen! by Chris Wilmer'
_symmetry_space_group_name_H-M	'P1'
_symmetry_Int_Tables_number	1
_symmetry_cell_setting	triclinic
loop_
_symmetry_equiv_pos_as_xyz
  x,y,z
_cell_length_a	12.827893
_cell_length_b	12.827892
_cell_length_c	12.827885
_cell_angle_alpha	89.970214
_cell_angle_beta	89.980728
_cell_angle_gamma	90.015362
loop_
_atom_site_label
_atom_site_type_symbol
_atom_site_fract_x
_atom_site_fract_y
_atom_site_fract_z
Zn1	Zn	1.597670	-0.415983	-0.590849
Zn2	Zn	1.597564	-0.590761	-0.416109
Zn3	Zn	1.422911	-0.416034	-0.416122
Zn4	Zn	1.422896	-0.590683	-0.590809
O5	O	1.510260	-0.503365	-0.503472
O6	O	1.743892	-0.439179	-0.567680
O7	O	1.574357	-0.567637	-0.269875
O8	O	1.446144	-0.269791	-0.439322
O9	O	1.743814	-0.567587	-0.439300
O10	O	1.574538	-0.269754	-0.567693
O11	O	1.446041	-0.439266	-0.269884
O12	O	1.276673	-0.439190	-0.439284
O13	O	1.446118	-0.567455	-0.737050
O14	O	1.276662	-0.567504	-0.567625
O15	O	1.574524	-0.439104	-0.737080
O16	O	1.574343	-0.736986	-0.439261
O17	O	1.446016	-0.736929	-0.567612
C18	C	1.238750	-0.503345	-0.503452
C19	C	1.122597	-0.503362	-0.503469
C20	C	1.070835	-0.566954	-0.566878
C21	C	0.950784	-0.566973	-0.566896
C22	C	1.510195	-0.774875	-0.503454
C23	C	1.510262	-0.891028	-0.503481
C24	C	1.573838	-0.942807	-0.440039
C25	C	1.573910	-1.062857	-0.440066
C26	C	1.782830	-0.503386	-0.503493
C27	C	1.898983	-0.503395	-0.503502
C28	C	1.510331	-0.503265	-0.776043
C29	C	1.510362	-0.503222	-0.892196
C30	C	1.510354	-0.230795	-0.503514
C31	C	1.510394	-0.114642	-0.503531
C32	C	1.573907	-0.439697	-0.943995
C33	C	1.573940	-0.439652	-1.064045
C34	C	1.510249	-0.503390	-0.231962
C35	C	1.510422	-0.503138	-0.115810
H36	H	1.628220	-0.898262	-0.385708
C37	C	1.131024	-0.640489	-0.640204
C38	C	1.206056	-0.722399	-0.594704
C39	C	1.266243	-0.795935	-0.668033
C40	C	1.251398	-0.787562	-0.786862
C41	C	1.176363	-0.705649	-0.832368
C42	C	1.116176	-0.632113	-0.759039
H43	H	1.217048	-0.728600	-0.506734
H44	H	1.321790	-0.856572	-0.634346
H45	H	1.295953	-0.841998	-0.841144
H46	H	1.165371	-0.699448	-0.920337
H47	H	1.060629	-0.571476	-0.792726
C48	C	1.647446	-1.123002	-0.366685
C49	C	1.647412	-1.243047	-0.366816
C50	C	1.720951	-1.303195	-0.293432
C51	C	1.794524	-1.243297	-0.219917
C52	C	1.794560	-1.123244	-0.219784
C53	C	1.721021	-1.063097	-0.293167
H54	H	1.592947	-1.287394	-0.421238
H55	H	1.720924	-1.392065	-0.293532
H56	H	1.848961	-1.287821	-0.165595
H57	H	1.849025	-1.078898	-0.165361
H58	H	1.721048	-0.974226	-0.293068
C59	C	1.436855	-1.054504	-0.576915
C60	C	1.354860	-0.979546	-0.531476
C61	C	1.281321	-0.919399	-0.604860
C62	C	1.289777	-0.934210	-0.723682
C63	C	1.371776	-1.009170	-0.769128
C64	C	1.445315	-1.069317	-0.695744
H65	H	1.348597	-0.968580	-0.443511
H66	H	1.220620	-0.863908	-0.571217
H67	H	1.235340	-0.889685	-0.778005
H68	H	1.378040	-1.020137	-0.857093
H69	H	1.506016	-1.124808	-0.729386
C70	C	0.959103	-0.429837	-0.430155
C71	C	1.034196	-0.347902	-0.475632
C72	C	1.094325	-0.274344	-0.402286
C73	C	1.079360	-0.282720	-0.283462
C74	C	1.004264	-0.364657	-0.237978
C75	C	0.944135	-0.438216	-0.311325
H76	H	1.045277	-0.341699	-0.563599
H77	H	1.149917	-0.213688	-0.435956
H78	H	1.123871	-0.228267	-0.229166
H79	H	0.993183	-0.370860	-0.150012
H80	H	0.888543	-0.498871	-0.277654
C81	C	0.890658	-0.640529	-0.640240
C82	C	0.770612	-0.640442	-0.640154
C83	C	0.710483	-0.714001	-0.713500
C84	C	0.770400	-0.787646	-0.786933
C85	C	0.890452	-0.787735	-0.787022
C86	C	0.950581	-0.714176	-0.713676
H87	H	0.726252	-0.585924	-0.585792
H88	H	0.621612	-0.713935	-0.713434
H89	H	0.725889	-0.842098	-0.841228
H90	H	0.934812	-0.842253	-0.841384
H91	H	1.039452	-0.714243	-0.713742
H92	H	1.078036	-0.448927	-0.449199
C93	C	1.647377	-0.366269	-0.883848
C94	C	1.602036	-0.284320	-0.808792
C95	C	1.675509	-0.210890	-0.748647
C96	C	1.794322	-0.219410	-0.763558
C97	C	1.839669	-0.301363	-0.838617
C98	C	1.766196	-0.374793	-0.898762
H99	H	1.514078	-0.278010	-0.797751
H100	H	1.641940	-0.150223	-0.693083
H101	H	1.848711	-0.165053	-0.719035
H102	H	1.927627	-0.307673	-0.849657
H103	H	1.799765	-0.435460	-0.954325
C104	C	1.436917	-0.576618	-1.055648
C105	C	1.354936	-0.531290	-0.980587
C106	C	1.281431	-0.604769	-0.920416
C107	C	1.289907	-0.723576	-0.935306
C108	C	1.371892	-0.768910	-1.010370
C109	C	1.445396	-0.695431	-1.070540
H110	H	1.348658	-0.443336	-0.969562
H111	H	1.220741	-0.571209	-0.864849
H112	H	1.235495	-0.777970	-0.890764
H113	H	1.378169	-0.856864	-1.021395
H114	H	1.506087	-0.728991	-1.126108
H115	H	1.455890	-0.935576	-0.557819
H116	H	1.628348	-0.385270	-1.108591
H117	H	1.455975	-0.557567	-0.936725
