data_functionalizedCrystal
_audit_creation_method	'MofGen! by Chris Wilmer'
_symmetry_space_group_name_H-M	'P1'
_symmetry_Int_Tables_number	1
_symmetry_cell_setting	triclinic
loop_
_symmetry_equiv_pos_as_xyz
  x,y,z
_cell_length_a	19.805405
_cell_length_b	16.959455
_cell_length_c	19.805399
_cell_angle_alpha	90.022224
_cell_angle_beta	89.970699
_cell_angle_gamma	89.975408
loop_
_atom_site_label
_atom_site_type_symbol
_atom_site_fract_x
_atom_site_fract_y
_atom_site_fract_z
Zn1	Zn	-0.269512	-1.208374	-0.382759
Zn2	Zn	0.063822	-0.875040	-0.049426
Zn3	Zn	0.397155	-0.541707	0.283907
Zn4	Zn	-0.382700	-1.208274	-0.269568
Zn5	Zn	-0.049367	-0.874941	0.063766
Zn6	Zn	0.283967	-0.541608	0.397099
Zn7	Zn	-0.269527	-1.076195	-0.269579
Zn8	Zn	0.063807	-0.742862	0.063755
Zn9	Zn	0.397140	-0.409528	0.397088
Zn10	Zn	-0.382660	-1.076152	-0.382709
Zn11	Zn	-0.049327	-0.742819	-0.049376
Zn12	Zn	0.284006	-0.409486	0.283957
O13	O	-0.326100	-1.142249	-0.326154
O14	O	0.007234	-0.808916	0.007180
O15	O	0.340567	-0.475582	0.340513
O16	O	-0.284537	-1.318971	-0.367761
O17	O	0.048797	-0.985638	-0.034427
O18	O	0.382130	-0.652305	0.298906
O19	O	-0.367710	-1.190730	-0.174853
O20	O	-0.034377	-0.857397	0.158481
O21	O	0.298956	-0.524063	0.491814
O22	O	-0.174808	-1.093788	-0.284618
O23	O	0.158525	-0.760455	0.048715
O24	O	0.491858	-0.427122	0.382049
O25	O	-0.367696	-1.318898	-0.284599
O26	O	-0.034362	-0.985565	0.048734
O27	O	0.298971	-0.652232	0.382067
O28	O	-0.174797	-1.190899	-0.367771
O29	O	0.158536	-0.857566	-0.034438
O30	O	0.491870	-0.524233	0.298895
O31	O	-0.284562	-1.093692	-0.174861
O32	O	0.048771	-0.760358	0.158473
O33	O	0.382104	-0.427025	0.491806
O34	O	-0.284524	-0.965578	-0.284569
O35	O	0.048809	-0.632245	0.048764
O36	O	0.382143	-0.298912	0.382097
O37	O	-0.367628	-1.093716	-0.477433
O38	O	-0.034295	-0.760382	-0.144099
O39	O	0.299038	-0.427049	0.189234
O40	O	-0.367643	-0.965547	-0.367686
O41	O	-0.034309	-0.632214	-0.034353
O42	O	0.299024	-0.298880	0.298981
O43	O	-0.284498	-1.190858	-0.477469
O44	O	0.048835	-0.857525	-0.144136
O45	O	0.382168	-0.524191	0.189197
O46	O	-0.477411	-1.190689	-0.284551
O47	O	-0.144078	-0.857355	0.048783
O48	O	0.189255	-0.524022	0.382116
O49	O	-0.477382	-1.093619	-0.367675
O50	O	-0.144049	-0.760286	-0.034342
O51	O	0.189284	-0.426952	0.298991
C52	C	-0.326081	-0.936883	-0.326124
C53	C	0.007252	-0.603549	0.007210
C54	C	0.340585	-0.270216	0.340543
C55	C	-0.326090	-0.849026	-0.326127
C56	C	0.007244	-0.515693	0.007206
C57	C	0.340577	-0.182359	0.340540
C58	C	-0.501956	-1.142160	-0.326121
C59	C	-0.168622	-0.808827	0.007212
C60	C	0.164711	-0.475493	0.340546
C61	C	-0.577188	-1.142194	-0.326130
C62	C	-0.243854	-0.808861	0.007204
C63	C	0.089479	-0.475527	0.340537
C64	C	-0.282751	-0.807745	-0.282920
C65	C	0.050582	-0.474411	0.050413
C66	C	0.383915	-0.141078	0.383747
C67	C	-0.369432	-0.807754	-0.369341
C68	C	-0.036099	-0.474420	-0.036008
C69	C	0.297235	-0.141087	0.297325
C70	C	-0.369439	-0.725208	-0.369348
C71	C	-0.036106	-0.391874	-0.036015
C72	C	0.297228	-0.058541	0.297318
C73	C	-0.326101	-0.683927	-0.326141
C74	C	0.007233	-0.350593	0.007192
C75	C	0.340566	-0.017260	0.340525
C76	C	-0.282755	-0.725191	-0.282927
C77	C	0.050578	-0.391858	0.050406
C78	C	0.383911	-0.058525	0.383740
C79	C	-0.412779	-0.683937	-0.412566
C80	C	-0.079445	-0.350603	-0.079233
C81	C	0.253888	-0.017270	0.254100
C82	C	-0.412787	-0.601386	-0.412576
C83	C	-0.079453	-0.268052	-0.079242
C84	C	0.253880	0.065281	0.254091
C85	C	-0.369451	-0.560103	-0.369365
C86	C	-0.036118	-0.226770	-0.036031
C87	C	0.297216	0.106563	0.297302
C88	C	-0.326105	-0.601373	-0.326148
C89	C	0.007229	-0.268040	0.007185
C90	C	0.340562	0.065294	0.340518
C91	C	-0.282766	-0.560092	-0.282941
C92	C	0.050567	-0.226759	0.050392
C93	C	0.383900	0.106575	0.383725
C94	C	-0.239423	-0.601360	-0.239721
C95	C	0.093911	-0.268027	0.093612
C96	C	0.427244	0.065306	0.426946
C97	C	-0.239420	-0.683909	-0.239716
C98	C	0.093914	-0.350575	0.093617
C99	C	0.427247	-0.017242	0.426950
C100	C	-0.369454	-0.477555	-0.369370
C101	C	-0.036121	-0.144221	-0.036036
C102	C	0.297213	0.189112	0.297297
C103	C	-0.282770	-0.477538	-0.282949
C104	C	0.050563	-0.144205	0.050385
C105	C	0.383896	0.189128	0.383718
C106	C	-0.612525	-1.192787	-0.282892
C107	C	-0.279191	-0.859454	0.050441
C108	C	0.054142	-0.526121	0.383775
C109	C	-0.683213	-1.192821	-0.282907
C110	C	-0.349880	-0.859488	0.050426
C111	C	-0.016546	-0.526154	0.383760
C112	C	-0.718563	-1.142257	-0.326157
C113	C	-0.385230	-0.808923	0.007177
C114	C	-0.051897	-0.475590	0.340510
C115	C	-0.683222	-1.091661	-0.369399
C116	C	-0.349888	-0.758328	-0.036066
C117	C	-0.016555	-0.424995	0.297268
C118	C	-0.612534	-1.091632	-0.369387
C119	C	-0.279201	-0.758299	-0.036054
C120	C	0.054132	-0.424966	0.297280
C121	C	-0.968295	-1.091778	-0.369449
C122	C	-0.634961	-0.758445	-0.036116
C123	C	-0.301628	-0.425111	0.297217
C124	C	-1.038987	-1.091809	-0.369457
C125	C	-0.705654	-0.758476	-0.036123
C126	C	-0.372320	-0.425142	0.297210
C127	C	-1.038973	-1.192966	-0.282969
C128	C	-0.705640	-0.859633	0.050364
C129	C	-0.372307	-0.526300	0.383697
C130	C	-0.968286	-1.192937	-0.282957
C131	C	-0.634953	-0.859604	0.050376
C132	C	-0.301620	-0.526271	0.383710
C133	C	-0.932951	-1.142345	-0.326202
C134	C	-0.599617	-0.809012	0.007132
C135	C	-0.266284	-0.475679	0.340465
C136	C	-0.856302	-1.142311	-0.326186
C137	C	-0.522969	-0.808977	0.007147
C138	C	-0.189636	-0.475644	0.340481
C139	C	-0.795210	-1.142287	-0.326170
C140	C	-0.461877	-0.808954	0.007164
C141	C	-0.128544	-0.475620	0.340497
C142	C	-0.149557	-1.142360	-0.326201
C143	C	0.183776	-0.809026	0.007132
C144	C	0.517110	-0.475693	0.340465
C145	C	-0.074325	-1.142407	-0.326222
C146	C	0.259008	-0.809074	0.007112
C147	C	0.592342	-0.475740	0.340445
C148	C	-0.326057	-1.142293	-0.502697
C149	C	0.007276	-0.808960	-0.169363
C150	C	0.340610	-0.475627	0.163970
C151	C	-0.326039	-1.142312	-0.577929
C152	C	0.007294	-0.808979	-0.244595
C153	C	0.340628	-0.475645	0.088738
C154	C	-0.326116	-0.348417	-0.326176
C155	C	0.007217	-0.015084	0.007158
C156	C	0.340551	0.318250	0.340491
C157	C	-0.326116	-0.436274	-0.326163
C158	C	0.007218	-0.102940	0.007171
C159	C	0.340551	0.230393	0.340504
C160	C	-0.282751	-1.192895	-0.613293
C161	C	0.050582	-0.859562	-0.279960
C162	C	0.383916	-0.526229	0.053374
C163	C	-0.282731	-1.192903	-0.683982
C164	C	0.050602	-0.859570	-0.350648
C165	C	0.383935	-0.526237	-0.017315
C166	C	-0.326004	-1.142332	-0.719304
C167	C	0.007330	-0.808998	-0.385971
C168	C	0.340663	-0.475665	-0.052638
C169	C	-0.369293	-1.091743	-0.683935
C170	C	-0.035960	-0.758410	-0.350602
C171	C	0.297373	-0.425076	-0.017268
C172	C	-0.369309	-1.091731	-0.613248
C173	C	-0.035976	-0.758398	-0.279914
C174	C	0.297358	-0.425065	0.053419
C175	C	-0.369230	-1.091787	-0.969008
C176	C	-0.035897	-0.758454	-0.635675
C177	C	0.297436	-0.425121	-0.302342
C178	C	-0.369213	-1.091805	-1.039701
C179	C	-0.035879	-0.758471	-0.706367
C180	C	0.297454	-0.425138	-0.373034
C181	C	-0.282653	-1.192960	-1.039742
C182	C	0.050681	-0.859626	-0.706409
C183	C	0.384014	-0.526293	-0.373076
C184	C	-0.282668	-1.192948	-0.969055
C185	C	0.050665	-0.859615	-0.635722
C186	C	0.383998	-0.526281	-0.302388
C187	C	-0.325955	-1.142357	-0.933692
C188	C	0.007378	-0.809023	-0.600358
C189	C	0.340711	-0.475690	-0.267025
C190	C	-0.325975	-1.142347	-0.857043
C191	C	0.007358	-0.809014	-0.523710
C192	C	0.340691	-0.475681	-0.190377
C193	C	-0.325988	-1.142344	-0.795951
C194	C	0.007346	-0.809011	-0.462618
C195	C	0.340679	-0.475678	-0.129285
C196	C	-0.326093	-1.142250	-0.150298
C197	C	0.007240	-0.808917	0.183036
C198	C	0.340573	-0.475583	0.516369
C199	C	-0.325921	-1.142384	-0.075066
C200	C	0.007412	-0.809051	0.258267
C201	C	0.340746	-0.475718	0.591600
H202	H	-0.247479	-0.443933	-0.247763
H203	H	0.085854	-0.110600	0.085571
H204	H	0.419187	0.222734	0.418904
Cl205	Cl	-0.467269	-0.735836	-0.466867
Cl206	Cl	-0.133936	-0.402503	-0.133534
Cl207	Cl	0.199397	-0.069169	0.199799
H208	H	-0.712009	-1.050495	-0.404617
H209	H	-0.378676	-0.717161	-0.071283
H210	H	-0.045343	-0.383828	0.262050
Cl211	Cl	-0.923850	-1.256507	-0.228584
Cl212	Cl	-0.590516	-0.923173	0.104749
Cl213	Cl	-0.257183	-0.589840	0.438082
H214	H	-0.404487	-1.050604	-0.940224
H215	H	-0.071154	-0.717271	-0.606891
H216	H	0.262179	-0.383938	-0.273557
Cl217	Cl	-0.228352	-1.256479	-0.568894
Cl218	Cl	0.104982	-0.923146	-0.235561
Cl219	Cl	0.438315	-0.589812	0.097772
H220	H	-0.404739	-0.443958	-0.404563
H221	H	-0.071406	-0.110624	-0.071230
H222	H	0.261927	0.222709	0.262103
Cl223	Cl	-0.228269	-1.256529	-0.924653
Cl224	Cl	0.105064	-0.923195	-0.591320
Cl225	Cl	0.438398	-0.589862	-0.257986
Cl226	Cl	-0.423616	-1.028223	-1.084105
Cl227	Cl	-0.090282	-0.694889	-0.750772
Cl228	Cl	0.243051	-0.361556	-0.417439
H229	H	-0.404552	-1.050533	-0.584455
H230	H	-0.071218	-0.717200	-0.251122
H231	H	0.262115	-0.383867	0.082212
H232	H	-1.067752	-1.234164	-0.247760
H233	H	-0.734419	-0.900831	0.085573
H234	H	-0.401085	-0.567497	0.418907
H235	H	-0.939530	-1.050583	-0.404659
H236	H	-0.606197	-0.717249	-0.071326
H237	H	-0.272863	-0.383916	0.262007
Cl238	Cl	-0.568091	-1.256353	-0.228513
Cl239	Cl	-0.234758	-0.923019	0.104820
Cl240	Cl	0.098576	-0.589686	0.438153
Cl241	Cl	-0.228267	-0.859622	-0.228587
Cl242	Cl	0.105067	-0.526289	0.104746
Cl243	Cl	0.438400	-0.192955	0.438080
H244	H	-0.448080	-0.567792	-0.447767
H245	H	-0.114747	-0.234459	-0.114434
H246	H	0.218586	0.098875	0.218899
H247	H	-1.067767	-1.050635	-0.404681
H248	H	-0.734434	-0.717301	-0.071347
H249	H	-0.401101	-0.383968	0.261986
H250	H	-0.404524	-1.050564	-0.712700
H251	H	-0.071191	-0.717230	-0.379367
H252	H	0.262143	-0.383897	-0.046034
H253	H	-0.204133	-0.567738	-0.204545
H254	H	0.129200	-0.234405	0.128788
H255	H	0.462533	0.098928	0.462122
H256	H	-0.404713	-0.841370	-0.404521
H257	H	-0.071380	-0.508036	-0.071188
H258	H	0.261953	-0.174703	0.262145
Cl259	Cl	-0.568111	-1.028029	-0.423748
Cl260	Cl	-0.234777	-0.694696	-0.090414
Cl261	Cl	0.098556	-0.361363	0.242919
H262	H	-0.247404	-1.234151	-1.068543
H263	H	0.085930	-0.900818	-0.735210
H264	H	0.419263	-0.567484	-0.401877
Cl265	Cl	-0.184932	-0.735793	-0.185392
Cl266	Cl	0.148401	-0.402460	0.147942
Cl267	Cl	0.481735	-0.069127	0.481275
H268	H	-0.247484	-1.234095	-0.712772
H269	H	0.085850	-0.900762	-0.379439
H270	H	0.419183	-0.567429	-0.046105
Cl271	Cl	-0.727634	-1.256429	-0.228551
Cl272	Cl	-0.394300	-0.923096	0.104783
Cl273	Cl	-0.060967	-0.589763	0.438116
