data_functionalizedCrystal
_audit_creation_method	'MofGen! by Chris Wilmer'
_symmetry_space_group_name_H-M	'P1'
_symmetry_Int_Tables_number	1
_symmetry_cell_setting	triclinic
loop_
_symmetry_equiv_pos_as_xyz
  x,y,z
_cell_length_a	15.995350
_cell_length_b	15.995292
_cell_length_c	15.186229
_cell_angle_alpha	89.999448
_cell_angle_beta	90.000289
_cell_angle_gamma	83.480495
loop_
_atom_site_label
_atom_site_type_symbol
_atom_site_fract_x
_atom_site_fract_y
_atom_site_fract_z
O1	O	1.110962	0.107928	-0.073148
O2	O	1.610962	0.607928	0.426852
O3	O	0.867184	0.121256	-0.073165
O4	O	1.367184	0.621256	0.426835
O5	O	0.995762	-0.007299	-0.073157
O6	O	1.495762	0.492701	0.426843
O7	O	0.982384	0.236483	-0.073155
O8	O	1.482384	0.736483	0.426845
O9	O	0.995753	-0.007300	0.073300
O10	O	1.495753	0.492700	0.573300
O11	O	0.867175	0.121255	0.073292
O12	O	1.367175	0.621255	0.573292
O13	O	1.110953	0.107927	0.073310
O14	O	1.610953	0.607927	0.573310
Zn15	Zn	0.989063	0.114590	0.096554
Zn16	Zn	1.489063	0.614590	0.596554
Zn17	Zn	0.989074	0.114593	-0.096410
Zn18	Zn	1.489074	0.614593	0.403590
O19	O	0.982375	0.236482	0.073302
O20	O	1.482375	0.736482	0.573302
C21	C	0.835985	0.120704	0.000061
C22	C	1.335985	0.620704	0.500061
C23	C	0.743035	0.119053	0.000054
C24	C	1.243035	0.619053	0.500054
C25	C	0.405288	0.113120	0.000073
C26	C	0.905288	0.613120	0.500073
C27	C	0.452742	0.021566	0.000399
C28	C	0.952742	0.521566	0.500399
C29	C	0.549431	0.023218	0.000063
C30	C	1.049431	0.523218	0.500063
C31	C	0.572848	0.116063	0.000064
C32	C	1.072848	0.616063	0.500064
C33	C	0.531757	0.161222	-0.083566
C34	C	1.031757	0.661222	0.416434
C35	C	0.435121	0.158922	-0.083630
C36	C	0.935121	0.658922	0.416370
C37	C	0.434772	0.160811	0.082919
C38	C	0.934772	0.660811	0.582919
C39	C	0.531718	0.160789	0.084018
C40	C	1.031718	0.660789	0.584018
C41	C	0.667546	0.117731	0.000056
C42	C	1.167546	0.617731	0.500056
C43	C	0.310591	0.111455	0.000075
C44	C	0.810591	0.611455	0.500075
C45	C	0.995213	-0.038495	0.000069
C46	C	1.495213	0.461505	0.500069
C47	C	0.993581	-0.131448	0.000062
C48	C	1.493581	0.368552	0.500062
C49	C	0.987580	-0.469186	0.000070
C50	C	1.487580	0.030814	0.500070
C51	C	1.080384	-0.445874	0.000404
C52	C	1.580384	0.054126	0.500404
C53	C	1.082148	-0.349199	0.000071
C54	C	1.582148	0.150801	0.500071
C55	C	0.990557	-0.301631	0.000067
C56	C	1.490557	0.198369	0.500067
C57	C	0.944165	-0.330731	-0.083568
C58	C	1.444165	0.169269	0.416432
C59	C	0.943047	-0.427521	-0.083635
C60	C	1.443047	0.072479	0.416365
C61	C	0.941142	-0.427380	0.082914
C62	C	1.441142	0.072620	0.582914
C63	C	0.944581	-0.330888	0.084017
C64	C	1.444581	0.169112	0.584017
C65	C	0.992235	-0.206934	0.000062
C66	C	1.492235	0.293066	0.500062
C67	C	0.985899	-0.563882	0.000069
C68	C	1.485899	-0.063882	0.500069
C69	C	1.142152	0.108479	0.000081
C70	C	1.642152	0.608479	0.500081
C71	C	1.235102	0.110130	0.000082
C72	C	1.735102	0.610130	0.500082
C73	C	0.982924	0.267678	0.000073
C74	C	1.482924	0.767678	0.500073
C75	C	0.984556	0.360631	0.000074
C76	C	1.484556	0.860631	0.500074
N77	N	0.989061	0.114588	0.228247
N78	N	1.489061	0.614588	0.728247
N79	N	0.989082	0.114588	-0.228102
N80	N	1.489082	0.614588	0.271898
C81	C	1.046015	0.057683	0.453973
C82	C	1.546015	0.557683	0.953973
C83	C	1.046018	0.057681	0.546163
C84	C	1.546018	0.557681	1.046163
C85	C	0.932122	0.171496	0.546165
C86	C	1.432122	0.671496	1.046165
C87	C	0.932116	0.171493	0.453977
C88	C	1.432116	0.671493	0.953977
C89	C	0.989067	0.114588	0.407883
C90	C	1.489067	0.614588	0.907883
C91	C	0.989076	0.114589	0.592261
C92	C	1.489076	0.614589	1.092261
C93	C	0.989079	0.114587	0.692217
C94	C	1.489079	0.614587	1.192217
C95	C	0.989064	0.114588	0.307921
C96	C	1.489064	0.614588	0.807921
H97	H	0.414239	0.130879	0.146309
H98	H	0.914239	0.630879	0.646309
H99	H	1.092388	0.011343	0.583687
H100	H	1.592388	0.511343	1.083687
C101	C	1.128710	-0.483703	0.081429
C102	C	1.628710	0.016297	0.581429
N103	N	1.165109	-0.512203	0.142460
N104	N	1.665109	-0.012203	0.642460
C105	C	0.869478	0.234087	0.596876
C106	C	1.369478	0.734087	1.096876
N107	N	0.822293	0.281231	0.635071
N108	N	1.322293	0.781231	1.135071
H109	H	0.559038	0.127824	0.145888
H110	H	1.059038	0.627824	0.645888
H111	H	0.975184	-0.454337	-0.146151
H112	H	1.475184	0.045663	0.353849
H113	H	0.547069	0.228495	0.089071
H114	H	1.047069	0.728495	0.589071
C115	C	0.391842	0.252002	0.083688
C116	C	0.891842	0.752002	0.583688
N117	N	0.359502	0.320684	0.084261
N118	N	0.859502	0.820684	0.584261
H119	H	1.115960	-0.474891	-0.059233
H120	H	1.615960	0.025109	0.440767
H121	H	1.118703	-0.330793	-0.059982
H122	H	1.618703	0.169207	0.440018
C123	C	0.853114	-0.287673	-0.087780
C124	C	1.353114	0.212327	0.412220
N125	N	0.784536	-0.255239	-0.090952
N126	N	1.284536	0.244761	0.409048
H127	H	1.118482	-0.330174	0.060022
H128	H	1.618482	0.169826	0.560022
C129	C	1.108656	-0.004921	0.403274
C130	C	1.608656	0.495079	0.903274
N131	N	1.155836	-0.052079	0.365089
N132	N	1.655836	0.447921	0.865089
C133	C	0.427716	-0.027877	0.081420
C134	C	0.927716	0.472123	0.581420
N135	N	0.408859	-0.065119	0.142447
N136	N	0.908859	0.434881	0.642447
C137	C	0.869504	0.234134	0.403275
C138	C	1.369504	0.734134	0.903275
N139	N	0.822360	0.281325	0.365087
N140	N	1.322360	0.781325	0.865087
C141	C	0.570096	0.118847	-0.167652
C142	C	1.070096	0.618847	0.332348
N143	N	0.598971	0.086924	-0.230984
N144	N	1.098971	0.586924	0.269016
H145	H	0.875003	-0.442071	-0.087427
H146	H	1.375003	0.057929	0.412573
C147	C	0.987701	-0.303638	-0.167650
C148	C	1.487701	0.196362	0.332350
N149	N	1.020499	-0.283236	-0.230979
N150	N	1.520499	0.216764	0.269021
H151	H	0.970365	-0.455470	0.146309
H152	H	1.470365	0.044530	0.646309
H153	H	0.577864	-0.012279	0.060013
H154	H	1.077864	0.487721	0.560013
H155	H	0.433159	-0.014862	-0.059246
H156	H	0.933159	0.485138	0.440754
H157	H	0.872831	-0.441371	0.083475
H158	H	1.372831	0.058629	0.583475
C159	C	0.990198	-0.305779	0.167606
C160	C	1.490198	0.194221	0.667606
N161	N	1.024551	-0.286852	0.230565
N162	N	1.524551	0.213148	0.730565
C163	C	0.587084	-0.025056	-0.081072
C164	C	1.087084	0.474944	0.418928
N165	N	0.615444	-0.061416	-0.142187
N166	N	1.115444	0.438584	0.357813
H167	H	0.402859	0.226139	-0.087424
H168	H	0.902859	0.726139	0.412576
C169	C	0.410401	0.114426	-0.168083
C170	C	0.910401	0.614426	0.331917
N171	N	0.391786	0.080906	-0.231692
N172	N	0.891786	0.580906	0.268308
H173	H	0.877729	-0.297918	0.089065
H174	H	1.377729	0.202082	0.589065
C175	C	0.550824	0.253370	-0.087772
C176	C	1.050824	0.753370	0.412228
N177	N	0.565187	0.322777	-0.090939
N178	N	1.065187	0.822777	0.409061
