data_functionalizedCrystal
_audit_creation_method	'MofGen! by Chris Wilmer'
_symmetry_space_group_name_H-M	'P1'
_symmetry_Int_Tables_number	1
_symmetry_cell_setting	triclinic
loop_
_symmetry_equiv_pos_as_xyz
  x,y,z
_cell_length_a	10.723024
_cell_length_b	16.109301
_cell_length_c	15.186229
_cell_angle_alpha	90.002891
_cell_angle_beta	90.000907
_cell_angle_gamma	96.035325
loop_
_atom_site_label
_atom_site_type_symbol
_atom_site_fract_x
_atom_site_fract_y
_atom_site_fract_z
O1	O	0.160384	-1.104078	-0.073171
O2	O	0.180344	-0.862133	-0.073184
O3	O	-0.011286	-0.988686	-0.073174
O4	O	0.352014	-0.977524	-0.073181
O5	O	-0.011275	-0.988671	0.073283
O6	O	0.180355	-0.862118	0.073273
O7	O	0.160395	-1.104063	0.073287
Zn8	Zn	0.170377	-0.983088	0.096533
Zn9	Zn	0.170362	-0.983108	-0.096431
O10	O	0.352025	-0.977510	0.073276
C11	C	-0.057770	-0.987866	0.000054
C12	C	-0.196292	-0.985436	0.000050
C13	C	0.179541	-0.831146	0.000043
C14	C	0.177117	-0.738836	0.000037
C15	C	0.161198	-1.135050	0.000058
C16	C	0.163622	-1.227359	0.000057
C17	C	-0.272213	-1.056249	0.000053
C18	C	-0.415383	-1.053739	0.000050
C19	C	0.398508	-0.978329	0.000047
C20	C	0.537031	-0.980759	0.000044
N21	N	0.170386	-0.983081	0.228226
C22	C	0.285190	-0.517200	0.000045
C23	C	0.282903	-0.430466	0.000051
C24	C	0.055540	-0.449003	0.000052
C25	C	0.057829	-0.535735	0.000052
C26	C	0.172658	-0.569831	0.000045
C27	C	0.168081	-0.396365	0.000050
C28	C	0.165600	-0.302324	0.000056
C29	C	0.175139	-0.663877	0.000040
N30	N	0.170343	-0.983122	-0.228123
C31	C	0.246071	-1.033950	0.453950
C32	C	0.246062	-1.033959	0.546140
C33	C	0.094649	-0.932250	0.546146
C34	C	0.094652	-0.932246	0.453958
C35	C	0.170371	-0.983095	0.407862
C36	C	0.170358	-0.983108	0.592240
C37	C	0.170348	-0.983117	0.692196
C38	C	0.170379	-0.983087	0.307900
H39	H	-0.231219	-1.118732	0.000062
C40	C	0.329352	-1.089892	0.403248
N41	N	0.392077	-1.132032	0.365062
C42	C	0.329361	-1.089889	0.596832
N43	N	0.392112	-1.132014	0.635013
C44	C	-0.374849	-0.898856	0.000040
N45	N	-0.308467	-0.837167	0.000035
H46	H	0.033004	-0.890851	0.583688
C47	C	-0.503511	-1.135638	0.000054
N48	N	-0.569893	-1.197327	0.000055
C49	C	0.411505	-0.554702	0.000048
N50	N	0.506649	-0.582946	0.000054
H51	H	-0.037950	-0.421231	0.000063
C52	C	0.011373	-0.876298	0.403259
N53	N	-0.051352	-0.834160	0.365072
C54	C	0.406698	-0.372575	0.000056
N55	N	0.499947	-0.328972	0.000062
C56	C	-0.065973	-0.593633	0.000052
N57	N	-0.159216	-0.637241	0.000054
H58	H	-0.237286	-0.922953	0.000041
