data_functionalizedCrystal
_audit_creation_method	'MofGen! by Chris Wilmer'
_symmetry_space_group_name_H-M	'P1'
_symmetry_Int_Tables_number	1
_symmetry_cell_setting	triclinic
loop_
_symmetry_equiv_pos_as_xyz
  x,y,z
_cell_length_a	16.120530
_cell_length_b	12.827892
_cell_length_c	12.827885
_cell_angle_alpha	89.970214
_cell_angle_beta	87.081295
_cell_angle_gamma	87.111104
loop_
_atom_site_label
_atom_site_type_symbol
_atom_site_fract_x
_atom_site_fract_y
_atom_site_fract_z
Zn1	Zn	1.274619	-0.497099	-0.671825
Zn2	Zn	1.274534	-0.671871	-0.497080
Zn3	Zn	1.135196	-0.488277	-0.488241
Zn4	Zn	1.135185	-0.662925	-0.662927
O5	O	1.204884	-0.580043	-0.580018
O6	O	1.391274	-0.527718	-0.656068
O7	O	1.256020	-0.647568	-0.349669
O8	O	1.153731	-0.343213	-0.512619
O9	O	1.391212	-0.656122	-0.527683
O10	O	1.256164	-0.349695	-0.647497
O11	O	1.153649	-0.512683	-0.343176
O12	O	1.018528	-0.504008	-0.503991
O13	O	1.153712	-0.640876	-0.810346
O14	O	1.018520	-0.632322	-0.632332
O15	O	1.256154	-0.519044	-0.816883
O16	O	1.256009	-0.816917	-0.519055
O17	O	1.153630	-0.810345	-0.640902
C18	C	1.204831	-0.851549	-0.579997
C19	C	1.204885	-0.967706	-0.580027
C20	C	0.988274	-0.566238	-0.566237
C21	C	0.895607	-0.560357	-0.560366
C22	C	1.255606	-1.022712	-0.519808
C23	C	1.255663	-1.142766	-0.519838
C24	C	0.725944	-0.549596	-0.549657
C25	C	0.684664	-0.610566	-0.610456
C26	C	0.590258	-0.604579	-0.604497
C27	C	0.820359	-0.555582	-0.555614
C28	C	1.422339	-0.593902	-0.593854
C29	C	1.515006	-0.599808	-0.599750
C30	C	1.204941	-0.579946	-0.852592
C31	C	1.204966	-0.579905	-0.968747
C32	C	1.204959	-0.307477	-0.580065
C33	C	1.204991	-0.191326	-0.580084
C34	C	1.154325	-0.513148	-1.017320
C35	C	1.154350	-0.513104	-1.137372
C36	C	1.204874	-0.580067	-0.308508
C37	C	1.205011	-0.579824	-0.192364
H38	H	1.299084	-1.190057	-0.468279
H39	H	1.298991	-0.980928	-0.468233
C40	C	1.146322	-1.127454	-0.649741
C41	C	1.080906	-1.048334	-0.600146
C42	C	1.022237	-0.984453	-0.669802
C43	C	1.028984	-0.999693	-0.789054
C44	C	1.094402	-1.078817	-0.838655
C45	C	1.153071	-1.142698	-0.768999
H46	H	1.075909	-1.037049	-0.511863
H47	H	0.973809	-0.925880	-0.633083
H48	H	0.985553	-0.952405	-0.840618
H49	H	1.099399	-1.090101	-0.926938
H50	H	1.201498	-1.201270	-0.805717
H51	H	0.720225	-0.667260	-0.666985
H52	H	1.161507	-1.009493	-0.631610
H53	H	0.690385	-0.492907	-0.493133
C54	C	1.095725	-0.435979	-0.953441
C55	C	1.095783	-0.436135	-0.833399
C56	C	1.037180	-0.358965	-0.769523
C57	C	0.978519	-0.281639	-0.825689
C58	C	0.978459	-0.281479	-0.945737
C59	C	1.037062	-0.358649	-1.009613
H60	H	1.139210	-0.493380	-0.791816
H61	H	1.037225	-0.359084	-0.680655
H62	H	0.935137	-0.224513	-0.778404
H63	H	0.935032	-0.224235	-0.987320
H64	H	1.037017	-0.358531	-1.098481
H65	H	1.110998	-0.455946	-1.179155
H66	H	1.248372	-0.636976	-1.150588
H67	H	1.248337	-0.637026	-1.016040
