data_functionalizedCrystal
_audit_creation_method	'MofGen! by Chris Wilmer'
_symmetry_space_group_name_H-M	'P1'
_symmetry_Int_Tables_number	1
_symmetry_cell_setting	triclinic
loop_
_symmetry_equiv_pos_as_xyz
  x,y,z
_cell_length_a	9.730217
_cell_length_b	16.109301
_cell_length_c	16.109295
_cell_angle_alpha	83.460334
_cell_angle_beta	89.999867
_cell_angle_gamma	90.001310
loop_
_atom_site_label
_atom_site_type_symbol
_atom_site_fract_x
_atom_site_fract_y
_atom_site_fract_z
O1	O	0.114193	-1.103126	-0.106866
O2	O	0.614193	-0.603126	0.393134
O3	O	0.114214	-0.861064	-0.120165
O4	O	0.614214	-0.361064	0.379835
O5	O	0.114205	-0.988747	0.007516
O6	O	0.614205	-0.488747	0.507516
O7	O	0.114202	-0.975443	-0.234547
O8	O	0.614202	-0.475443	0.265453
O9	O	-0.114375	-0.988743	0.007517
O10	O	0.385625	-0.488743	0.507517
O11	O	-0.114366	-0.861060	-0.120164
O12	O	0.385634	-0.361060	0.379836
O13	O	-0.114387	-1.103122	-0.106865
O14	O	0.385613	-0.603122	0.393135
Zn15	Zn	-0.150668	-0.982091	-0.113514
Zn16	Zn	0.349332	-0.482091	0.386486
Zn17	Zn	0.150496	-0.982096	-0.113516
Zn18	Zn	0.650496	-0.482096	0.386484
O19	O	-0.114378	-0.975439	-0.234546
O20	O	0.385622	-0.475439	0.265454
C21	C	-0.000073	-0.830087	-0.119626
C22	C	0.499927	-0.330087	0.380374
C23	C	-0.000065	-0.737792	-0.118011
C24	C	0.499935	-0.237792	0.381989
N25	N	-0.356205	-0.982093	-0.113513
N26	N	0.143795	-0.482093	0.386487
C27	C	-0.000082	-0.988207	0.038491
C28	C	0.499918	-0.488207	0.538491
C29	C	-0.000071	-0.986594	0.130787
C30	C	0.499929	-0.486594	0.630787
C31	C	-0.356204	-1.095202	-0.000484
C32	C	0.143796	-0.595202	0.499516
C33	C	-0.428143	-1.151763	0.056028
C34	C	0.071857	-0.651763	0.556028
C35	C	-0.572023	-1.151771	0.056029
C36	C	-0.072023	-0.651771	0.556029
C37	C	-0.643966	-1.095212	-0.000487
C38	C	-0.143966	-0.595212	0.499513
C39	C	-0.572027	-1.038651	-0.056999
C40	C	-0.072027	-0.538651	0.443001
C41	C	-0.428144	-1.038651	-0.056995
C42	C	0.071856	-0.538651	0.443005
C43	C	-0.572029	-0.925539	-0.170023
C44	C	-0.072029	-0.425539	0.329977
C45	C	-0.428149	-0.925534	-0.170029
C46	C	0.071851	-0.425534	0.329971
C47	C	-0.643972	-0.868980	-0.226539
C48	C	-0.143972	-0.368980	0.273461
C49	C	-0.572033	-0.812422	-0.283056
C50	C	-0.072033	-0.312422	0.216944
C51	C	-0.428145	-0.812417	-0.283055
C52	C	0.071855	-0.312417	0.216945
C53	C	-0.356210	-0.868973	-0.226541
C54	C	0.143790	-0.368973	0.273459
N55	N	0.356032	-0.982100	-0.113511
N56	N	0.856032	-0.482100	0.386489
C57	C	-0.000096	-1.134099	-0.107404
C58	C	0.499904	-0.634099	0.392596
C59	C	-0.000096	-1.226394	-0.109019
C60	C	0.499904	-0.726394	0.390981
C61	C	-0.000082	-0.515518	-0.190019
C62	C	0.499918	-0.015518	0.309981
C63	C	-0.000090	-0.428798	-0.188495
C64	C	0.499910	0.071202	0.311505
C65	C	-0.000083	-0.448675	-0.037006
C66	C	0.499917	0.051325	0.462994
C67	C	-0.000084	-0.535394	-0.038531
C68	C	0.499916	-0.035394	0.461469
C69	C	-0.000076	-0.568813	-0.115040
C70	C	0.499924	-0.068813	0.384960
C71	C	-0.000084	-0.395374	-0.111991
C72	C	0.499916	0.104626	0.388009
C73	C	-0.000094	-0.301348	-0.110338
C74	C	0.499906	0.198652	0.389662
C75	C	-0.000069	-0.662845	-0.116693
C76	C	0.499931	-0.162845	0.383307
C77	C	-0.000027	-1.058606	0.353060
C78	C	0.499973	-0.558606	0.853060
C79	C	-0.000004	-1.057084	0.439780
C80	C	0.499996	-0.557084	0.939780
C81	C	0.000002	-0.905595	0.419906
C82	C	0.500002	-0.405595	0.919906
C83	C	-0.000011	-0.907118	0.333187
C84	C	0.499989	-0.407118	0.833187
C85	C	-0.000033	-0.983626	0.299766
C86	C	0.499967	-0.483626	0.799766
C87	C	0.000003	-0.980580	0.473206
C88	C	0.500003	-0.480580	0.973206
C89	C	0.000028	-0.978929	0.567232
C90	C	0.500028	-0.478929	1.067232
C91	C	-0.000055	-0.985277	0.205734
C92	C	0.499945	-0.485277	0.705734
C93	C	-0.000055	-0.975984	0.734479
C94	C	0.499945	-0.475984	1.234479
C95	C	0.000042	-0.977612	0.642186
C96	C	0.500042	-0.477612	1.142186
H97	H	-0.239049	-1.095208	-0.000485
H98	H	0.260951	-0.595208	0.499515
H99	H	-0.000098	-0.421454	0.025285
H100	H	0.499902	0.078546	0.525285
Cl101	Cl	-0.337697	-1.222860	0.127077
Cl102	Cl	0.162303	-0.722860	0.627077
Cl103	Cl	0.000028	-0.809418	0.461927
Cl104	Cl	0.500028	-0.309418	0.961927
H105	H	-0.630596	-1.197824	0.102049
H106	H	-0.130596	-0.697824	0.602049
H107	H	-0.000084	-0.578789	0.022530
H108	H	0.499916	-0.078789	0.522530
Cl109	Cl	-0.000080	-0.557527	-0.286201
Cl110	Cl	0.499920	-0.057527	0.213799
Cl111	Cl	0.000005	-1.151349	0.506775
Cl112	Cl	0.500005	-0.651349	1.006775
H113	H	-0.000012	-0.846056	0.289793
H114	H	0.499988	-0.346056	0.789793
Cl115	Cl	-0.000099	-0.361802	-0.282759
Cl116	Cl	0.499901	0.138198	0.217241
H117	H	-0.761127	-0.868986	-0.226533
H118	H	-0.261127	-0.368986	0.273467
Cl119	Cl	-0.000051	-1.154787	0.311048
Cl120	Cl	0.499949	-0.654787	0.811048
H121	H	-0.761121	-1.095215	-0.000476
H122	H	-0.261121	-0.595215	0.499524
H123	H	-0.630619	-0.766372	-0.329064
H124	H	-0.130619	-0.266372	0.170936
H125	H	-0.369579	-0.766355	-0.329071
H126	H	0.130421	-0.266355	0.170929
H127	H	-0.239055	-0.868977	-0.226538
H128	H	0.260945	-0.368977	0.273462
