data_functionalizedCrystal
_audit_creation_method	'MofGen! by Chris Wilmer'
_symmetry_space_group_name_H-M	'P1'
_symmetry_Int_Tables_number	1
_symmetry_cell_setting	triclinic
loop_
_symmetry_equiv_pos_as_xyz
  x,y,z
_cell_length_a	14.044220
_cell_length_b	10.723024
_cell_length_c	9.198806
_cell_angle_alpha	89.997736
_cell_angle_beta	89.998828
_cell_angle_gamma	91.171626
loop_
_atom_site_label
_atom_site_type_symbol
_atom_site_fract_x
_atom_site_fract_y
_atom_site_fract_z
O1	O	1.259663	-0.301050	0.120731
O2	O	1.592997	0.032283	0.454064
O3	O	1.926330	0.365617	0.787398
O4	O	0.983623	-0.290187	0.120768
O5	O	1.316957	0.043147	0.454101
O6	O	1.650290	0.376480	0.787435
O7	O	1.128011	-0.114679	0.120743
O8	O	1.461344	0.218654	0.454077
O9	O	1.794677	0.551987	0.787410
O10	O	1.115276	-0.476557	0.120756
O11	O	1.448609	-0.143224	0.454089
O12	O	1.781943	0.190109	0.787422
O13	O	1.128000	-0.114677	-0.121042
O14	O	1.461333	0.218657	0.212292
O15	O	1.794667	0.551990	0.545625
O16	O	0.983613	-0.290184	-0.121017
O17	O	1.316946	0.043149	0.212316
O18	O	1.650279	0.376483	0.545650
O19	O	1.259653	-0.301047	-0.121054
O20	O	1.592986	0.032286	0.212279
O21	O	1.926319	0.365619	0.545613
Cu22	Cu	1.121632	-0.295615	-0.143112
Cu23	Cu	1.454965	0.037718	0.190221
Cu24	Cu	1.788298	0.371051	0.523554
Cu25	Cu	1.121644	-0.295619	0.142826
Cu26	Cu	1.454978	0.037715	0.476160
Cu27	Cu	1.788311	0.371048	0.809493
O28	O	1.115265	-0.476555	-0.121029
O29	O	1.448599	-0.143222	0.212304
O30	O	1.781932	0.190112	0.545637
C31	C	0.948273	-0.285430	-0.000120
C32	C	1.281606	0.047903	0.333214
C33	C	1.614939	0.381237	0.666547
C34	C	0.842955	-0.271245	-0.000106
C35	C	1.176288	0.062088	0.333228
C36	C	1.509621	0.395421	0.666561
N37	N	1.121630	-0.295613	-0.344226
N38	N	1.454963	0.037720	-0.010893
N39	N	1.788296	0.371053	0.322440
C40	C	1.127079	-0.068086	-0.000147
C41	C	1.460412	0.265248	0.333186
C42	C	1.793745	0.598581	0.666519
C43	C	1.124306	0.070746	-0.000142
C44	C	1.457639	0.404079	0.333191
C45	C	1.790973	0.737413	0.666525
C46	C	0.650125	-0.245313	-0.000135
C47	C	0.983458	0.088020	0.333198
C48	C	1.316791	0.421353	0.666531
C49	C	0.593146	-0.345915	-0.000138
C50	C	0.926479	-0.012582	0.333195
C51	C	1.259812	0.320752	0.666529
C52	C	0.485848	-0.331486	-0.000155
C53	C	0.819182	0.001847	0.333179
C54	C	1.152515	0.335181	0.666512
C55	C	0.757432	-0.259740	-0.000119
C56	C	1.090765	0.073593	0.333215
C57	C	1.424099	0.406926	0.666548
C58	C	1.295003	-0.305804	-0.000163
C59	C	1.628337	0.027529	0.333170
C60	C	1.961670	0.360863	0.666504
C61	C	1.400321	-0.319989	-0.000168
C62	C	1.733655	0.013345	0.333166
C63	C	2.066988	0.346678	0.666499
C64	C	1.116197	-0.523149	-0.000135
C65	C	1.449531	-0.189815	0.333198
C66	C	1.782864	0.143518	0.666531
C67	C	1.118970	-0.661980	-0.000131
C68	C	1.452304	-0.328647	0.333202
C69	C	1.785637	0.004687	0.666535
C70	C	1.205097	0.137646	-0.000151
C71	C	1.538431	0.470979	0.333183
C72	C	1.871764	0.804313	0.666516
C73	C	1.202234	0.281136	-0.000145
C74	C	1.535567	0.614469	0.333188
C75	C	1.868900	0.947802	0.666522
C76	C	1.182403	-0.221765	-0.583838
C77	C	1.515737	0.111569	-0.250504
C78	C	1.849070	0.444902	0.082829
C79	C	1.182391	-0.221765	-0.416425
C80	C	1.515724	0.111569	-0.083092
C81	C	1.849058	0.444902	0.250241
N82	N	1.121654	-0.295612	0.343940
N83	N	1.454987	0.037722	0.677274
N84	N	1.788321	0.371055	1.010607
H85	H	0.624947	-0.442880	-0.000128
H86	H	0.958281	-0.109546	0.333206
H87	H	1.291614	0.223787	0.666539
F88	F	0.608560	-0.118582	-0.000144
F89	F	0.941894	0.214752	0.333189
F90	F	1.275227	0.548085	0.666523
F91	F	1.292639	0.356305	-0.000165
F92	F	1.625973	0.689638	0.333168
F93	F	1.959306	1.022972	0.666501
H94	H	1.053017	0.119700	-0.000123
H95	H	1.386351	0.453034	0.333210
H96	H	1.719684	0.786367	0.666544
H97	H	1.276386	0.088691	-0.000169
H98	H	1.609719	0.422025	0.333164
H99	H	1.943053	0.755358	0.666497
F100	F	1.028561	0.262858	-0.000132
F101	F	1.361894	0.596192	0.333201
F102	F	1.695227	0.929525	0.666535
H103	H	1.234427	-0.158545	-0.645943
H104	H	1.567760	0.174788	-0.312609
H105	H	1.901093	0.508122	0.020724
F106	F	1.250370	-0.139118	-0.335250
F107	F	1.583703	0.194216	-0.001916
F108	F	1.917036	0.527549	0.331417
H109	H	1.069638	-0.358840	-0.593953
H110	H	1.402971	-0.025507	-0.260620
H111	H	1.736305	0.307826	0.072714
F112	F	1.053639	-0.378251	-0.425393
F113	F	1.386972	-0.044917	-0.092060
F114	F	1.720306	0.288416	0.241274
