data_functionalizedCrystal
_audit_creation_method	'MofGen! by Chris Wilmer'
_symmetry_space_group_name_H-M	'P1'
_symmetry_Int_Tables_number	1
_symmetry_cell_setting	triclinic
loop_
_symmetry_equiv_pos_as_xyz
  x,y,z
_cell_length_a	20.919309
_cell_length_b	14.628931
_cell_length_c	14.628931
_cell_angle_alpha	120.000000
_cell_angle_beta	90.001005
_cell_angle_gamma	57.441313
loop_
_atom_site_label
_atom_site_type_symbol
_atom_site_fract_x
_atom_site_fract_y
_atom_site_fract_z
Zr1	Zr	0.641765	0.929155	0.084266
O2	O	0.535394	1.131698	0.236144
O3	O	0.674374	0.734820	0.037708
O4	O	0.674374	0.925525	0.228413
O5	O	0.535394	0.940994	-0.104994
O6	O	0.784004	0.913324	0.222316
O7	O	0.535394	0.940993	0.045438
O8	O	0.784003	0.572188	-0.118822
O9	O	0.535395	1.282130	0.236144
O10	O	0.770096	0.802607	0.013300
O11	O	0.688281	0.811713	-0.094414
O12	O	0.688281	1.036243	0.130117
O13	O	0.606466	1.045349	0.022402
Zr14	Zr	0.816612	0.909696	-0.165380
Zr15	Zr	0.816612	0.909696	0.074541
Zr16	Zr	0.641765	0.929155	-0.155655
Zr17	Zr	0.641766	1.169076	0.084267
Zr18	Zr	0.816611	0.669775	-0.165380
O19	O	0.784003	1.104031	-0.118821
O20	O	0.784004	1.104030	0.222316
O21	O	0.535394	1.131699	-0.104993
O22	O	0.922983	0.707153	-0.317257
O23	O	0.922983	0.707152	0.023880
O24	O	0.674373	0.734821	-0.303429
O25	O	0.922983	0.897857	0.023880
O26	O	0.784003	0.913326	-0.309527
O27	O	0.674373	0.925527	-0.303429
O28	O	0.922983	0.897858	-0.126552
O29	O	0.674374	1.266663	0.228414
O30	O	0.784003	0.572188	-0.309527
O31	O	0.922982	0.556721	-0.317257
O32	O	0.922983	0.556720	-0.126552
O33	O	0.535394	1.282131	0.045439
O34	O	0.674374	1.266663	0.037708
O35	O	0.770096	0.802608	-0.211230
O36	O	0.851911	0.793502	-0.103516
O37	O	0.770096	1.027138	0.013301
O38	O	0.688281	1.036244	-0.094414
C39	C	0.729188	0.619320	-0.040557
C40	C	0.729188	0.517467	-0.040557
C41	C	0.688603	0.371310	-0.093990
C42	C	0.688602	0.476580	-0.093991
C43	C	0.510482	0.943766	-0.028392
C44	C	0.436255	0.952027	-0.024263
C45	C	0.444088	0.833955	-0.083295
C46	C	0.374341	0.841725	-0.079413
C47	C	0.296762	0.967568	-0.016493
C48	C	0.288931	1.085648	0.042541
C49	C	0.358677	1.077877	0.038652
C50	C	0.084037	0.997133	-0.001706
C51	C	0.014289	1.004896	0.002182
C52	C	0.099704	0.760971	-0.119774
C53	C	0.169447	0.753211	-0.123652
C54	C	0.161611	0.871292	-0.064624
C55	C	0.225468	0.975513	-0.012520
C56	C	0.232904	0.863345	-0.068604
C57	C	0.947895	0.895085	-0.052721
C58	C	1.022122	0.886824	-0.056850
C59	C	0.729189	0.919425	0.259548
C60	C	0.729189	0.919424	0.361401
C61	C	0.729189	1.219531	-0.040556
C62	C	0.729189	1.321384	-0.040556
C63	C	0.688603	1.035324	0.464759
C64	C	0.688602	1.035326	0.570030
C65	C	0.729188	0.919426	0.659338
C66	C	0.729188	0.919427	0.557486
C67	C	0.947895	0.594980	-0.052722
C68	C	1.022121	0.484866	-0.056851
C69	C	0.729188	0.619321	-0.340662
C70	C	0.729188	0.517469	-0.442515
C71	C	0.947894	0.594981	-0.352827
C72	C	1.022121	0.484867	-0.458808
C73	C	0.510483	1.243870	0.271713
C74	C	0.436256	1.353984	0.377695
C75	C	0.510482	1.243871	-0.028392
C76	C	0.436256	1.353985	-0.024263
C77	C	0.729189	1.219530	0.259548
C78	C	0.729189	1.321382	0.361401
C79	C	1.014272	0.437908	0.002197
C80	C	1.084010	0.334459	-0.001659
C81	C	1.161595	0.277962	-0.064571
C82	C	1.169443	0.324930	-0.123621
C83	C	1.099706	0.428384	-0.119757
C84	C	1.099693	0.428403	-0.452353
C85	C	1.169444	0.324952	-0.551925
C86	C	1.161620	0.277961	-0.657951
C87	C	1.084040	0.334436	-0.664404
C88	C	1.014292	0.437891	-0.564833
C89	C	0.358684	1.410460	0.371239
C90	C	0.288933	1.513940	0.470811
C91	C	0.296757	1.560936	0.576838
C92	C	0.374337	1.504455	0.583291
C93	C	0.444085	1.400983	0.483720
C94	C	0.444105	1.400953	-0.083301
C95	C	0.374367	1.504429	-0.079418
C96	C	0.296782	1.560929	-0.016503
C97	C	0.288934	1.513957	0.042542
C98	C	0.358671	1.410489	0.038665
C99	C	0.769773	0.467543	-0.545873
C100	C	0.769774	0.362273	-0.651145
H101	H	0.763939	0.356568	0.005185
H102	H	0.763933	0.820196	0.468826
H103	H	0.951105	0.483906	0.053441
C104	C	0.318241	0.724922	-0.137809
N105	N	0.382523	0.620661	-0.189928
C106	C	0.776131	0.785372	0.347137
N107	N	0.811487	0.684400	0.336391
C108	C	0.641668	1.169375	0.479022
N109	N	0.606317	1.270346	0.489768
H110	H	0.804516	0.502739	-0.556425
H111	H	0.694444	0.364291	-0.549941
H112	H	1.077604	0.296231	0.046427
H113	H	0.694438	0.482283	-0.431962
H114	H	0.225771	1.559910	0.465535
H115	H	1.218373	0.193723	-0.067709
C116	C	0.529442	1.338828	-0.152510
N117	N	0.593717	1.292048	-0.204636
H118	H	0.352299	1.372202	0.284916
C119	C	0.641659	0.534558	-0.155796
N120	N	0.606301	0.578227	-0.202351
C121	C	1.254795	0.262759	-0.192829
N122	N	1.319084	0.215921	-0.244964
H123	H	1.218421	0.193720	-0.739020
C124	C	0.220077	1.674740	-0.012255
N125	N	0.162305	1.760459	-0.009064
C126	C	1.108354	0.480013	-0.184732
N127	N	1.114874	0.518893	-0.233676
C128	C	0.254782	0.614774	-0.192870
N129	N	0.319057	0.510501	-0.245004
C130	C	0.220022	1.674750	0.686359
N131	N	0.162223	1.760469	0.768847
H132	H	0.507252	0.731480	-0.134537
C133	C	0.776134	0.459495	0.021249
N134	N	0.811494	0.415822	0.067800
C135	C	1.254774	0.262837	-0.544801
N136	N	1.319042	0.216051	-0.539432
H137	H	0.077646	1.093283	0.046379
C138	C	0.203592	1.224077	0.111758
N139	N	0.139313	1.328345	0.163900
C140	C	-0.071051	1.143339	0.071394
N141	N	-0.135328	1.247609	0.123520
C142	C	1.075449	0.282720	-0.781045
N143	N	1.068980	0.243756	-0.868902
C144	C	0.928964	0.499989	-0.571953
N145	N	0.864696	0.546758	-0.577325
H146	H	0.804522	0.319353	-0.739807
H147	H	1.106078	0.466647	-0.366030
C148	C	0.350058	1.207765	0.103594
N149	N	0.343563	1.305602	0.152510
H150	H	0.380697	1.542733	0.669629
C151	C	0.203582	1.576104	0.111727
N152	N	0.139293	1.622905	0.163826
H153	H	0.352269	1.372252	0.086738
H154	H	0.653861	0.336113	-0.139742
H155	H	0.507246	1.355001	0.488989
H156	H	0.380773	1.542656	-0.127505
H157	H	0.106075	0.664837	-0.167833
H158	H	0.162296	1.077975	0.038709
H159	H	0.380725	0.745579	-0.127485
H160	H	0.653851	1.134552	0.658694
