data_functionalizedCrystal
_audit_creation_method	'MofGen! by Chris Wilmer'
_symmetry_space_group_name_H-M	'P1'
_symmetry_Int_Tables_number	1
_symmetry_cell_setting	triclinic
loop_
_symmetry_equiv_pos_as_xyz
  x,y,z
_cell_length_a	10.540535
_cell_length_b	15.625950
_cell_length_c	14.185197
_cell_angle_alpha	122.253706
_cell_angle_beta	104.654474
_cell_angle_gamma	84.377552
loop_
_atom_site_label
_atom_site_type_symbol
_atom_site_fract_x
_atom_site_fract_y
_atom_site_fract_z
O1	O	0.283886	1.281577	0.382618
O2	O	0.271604	0.996369	0.278900
O3	O	0.093707	1.145485	0.333137
O4	O	0.461784	1.132461	0.328381
O5	O	0.149668	1.185508	0.514532
O6	O	0.327565	1.036392	0.460295
O7	O	0.339847	1.321600	0.564013
Cu8	Cu	0.338816	1.182650	0.528717
Cu9	Cu	0.272636	1.135319	0.314196
O10	O	0.517744	1.172484	0.509776
C11	C	0.074285	1.164521	0.423480
C12	C	-0.066961	1.161603	0.422421
C13	C	0.294590	0.979860	0.356317
C14	C	0.279691	0.871040	0.316745
C15	C	-0.114757	1.052731	0.382822
C16	C	-0.261804	1.049565	0.381274
C17	C	-0.303111	1.188485	0.337085
C18	C	-0.156130	1.190787	0.337860
C19	C	-0.092466	1.237885	0.544723
C20	C	-0.238914	1.233146	0.544232
C21	C	0.383239	0.622105	0.680855
C22	C	0.369248	0.519839	0.643619
C23	C	0.308249	0.476259	0.445888
C24	C	0.322241	0.578522	0.483106
C25	C	0.359735	0.651439	0.600591
C26	C	0.298737	0.607856	0.402843
C27	C	0.312721	0.710112	0.440060
C28	C	0.350209	0.783034	0.557539
C29	C	0.373719	0.753695	0.637808
C30	C	0.261234	0.534939	0.285359
C31	C	0.237730	0.564272	0.205096
C32	C	0.251723	0.666529	0.242312
C33	C	0.289211	0.739451	0.359791
C34	C	0.228213	0.695868	0.162043
C35	C	0.242197	0.798124	0.199260
C36	C	0.303195	0.841707	0.397008
C37	C	0.537166	1.153448	0.419430
C38	C	0.678410	1.156364	0.420483
C39	C	0.316861	1.338109	0.486594
C40	C	0.331758	1.446927	0.526159
N41	N	0.385363	1.215948	0.679602
N42	N	0.226079	1.102029	0.163314
C43	C	0.089367	1.004262	0.970239
C44	C	0.124615	1.029471	1.084432
C45	C	0.292330	1.149409	1.128027
C46	C	0.257091	1.124214	1.013837
C47	C	0.155610	1.051638	0.934951
C48	C	0.323334	1.171590	0.978549
C49	C	0.288102	1.146392	0.864367
C50	C	0.186628	1.073818	0.785474
C51	C	0.120378	1.026441	0.820769
C52	C	0.424821	1.244160	1.057435
C53	C	0.491064	1.291536	1.022147
C54	C	0.455827	1.266344	0.907965
C55	C	0.354352	1.193769	0.829072
C56	C	0.522076	1.313721	0.872670
C57	C	0.486845	1.288523	0.758488
C58	C	0.319120	1.168571	0.714890
H59	H	-0.054199	1.027277	0.441742
H60	H	0.604711	1.372805	0.936913
O61	O	0.021775	0.956006	0.743998
C62	C	0.004910	0.943913	0.635648
H63	H	0.044846	1.014947	0.647137
H64	H	0.060221	0.875787	0.581062
C65	C	-0.191226	0.839530	0.561397
C66	C	-0.142186	0.926779	0.575509
H67	H	-0.281960	0.828956	0.524297
H68	H	-0.179861	0.847673	0.634393
H69	H	-0.145121	0.782768	0.515912
H70	H	-0.188279	0.983540	0.621004
H71	H	-0.153561	0.918644	0.502519
O72	O	0.219164	0.826692	0.121345
C73	C	0.116759	0.894872	0.140726
H74	H	0.053880	0.883633	0.188240
H75	H	0.160124	0.975892	0.194647
C76	C	0.108486	0.888892	-0.033483
C77	C	0.031251	0.875081	0.024866
H78	H	0.055743	0.876688	-0.104949
H79	H	0.177482	0.842960	-0.046539
H80	H	0.144619	0.956408	0.011463
H81	H	-0.004867	0.807562	-0.020074
H82	H	-0.037753	0.921001	0.037912
O83	O	0.459054	1.268831	1.168422
C84	C	0.441989	1.372892	1.241333
H85	H	0.445708	1.414296	1.195853
H86	H	0.342845	1.383400	1.263802
C87	C	0.547684	1.365588	1.407920
C88	C	0.552263	1.416442	1.352064
H89	H	0.615701	1.392452	1.476226
H90	H	0.559177	1.295479	1.358800
H91	H	0.465058	1.374349	1.426633
H92	H	0.634881	1.407670	1.333339
H93	H	0.540786	1.486551	1.401184
O94	O	-0.009372	0.933906	0.893611
C95	C	-0.109556	0.978496	0.849069
H96	H	-0.103620	1.063979	0.911803
H97	H	-0.096815	0.961323	0.763228
C98	C	-0.251511	0.829934	0.754576
C99	C	-0.244228	0.934926	0.831632
H100	H	-0.334583	0.803055	0.743814
H101	H	-0.184014	0.799891	0.784581
H102	H	-0.240886	0.815637	0.683050
H103	H	-0.254835	0.949221	0.903160
H104	H	-0.311730	0.964970	0.801639
H105	H	0.070667	0.990883	1.113154
H106	H	-0.143670	1.136576	0.246800
O107	O	-0.249589	1.205718	0.618280
C108	C	-0.175017	1.275189	0.729095
H109	H	-0.095234	1.314376	0.722122
H110	H	-0.241790	1.334221	0.781104
C111	C	-0.209120	1.170267	0.797872
C112	C	-0.111123	1.218391	0.789307
H113	H	-0.169712	1.135233	0.835016
H114	H	-0.259365	1.123465	0.723215
H115	H	-0.264757	1.219469	0.841210
H116	H	-0.055499	1.169188	0.745957
H117	H	-0.060867	1.265183	0.863958
O118	O	0.364001	0.882380	0.593825
C119	C	0.494101	0.918177	0.656712
H120	H	0.540092	0.868537	0.691748
H121	H	0.553409	0.915322	0.598184
C122	C	0.437484	1.089163	0.714111
C123	C	0.493968	1.028198	0.757151
H124	H	0.437405	1.157030	0.776063
H125	H	0.349834	1.065046	0.671739
H126	H	0.486915	1.086772	0.665337
H127	H	0.444528	1.030580	0.805912
H128	H	0.581609	1.052318	0.799533
H129	H	0.374960	1.208498	1.192270
H130	H	-0.029304	1.221208	0.610754
O131	O	-0.120656	1.284797	0.367025
C132	C	-0.197924	1.306884	0.286320
H133	H	-0.237218	1.233186	0.202106
H134	H	-0.283616	1.353584	0.320659
C135	C	-0.065231	1.457999	0.368969
C136	C	-0.113483	1.367481	0.265532
H137	H	-0.013147	1.495381	0.356148
H138	H	-0.013176	1.443121	0.423344
H139	H	-0.136651	1.496903	0.397574
H140	H	-0.042064	1.328573	0.236937
H141	H	-0.165524	1.382354	0.211151
H142	H	-0.272684	1.022942	0.439729
O143	O	0.589541	1.362148	1.098713
C144	C	0.557110	1.455229	1.106918
H145	H	0.482743	1.440798	1.025424
H146	H	0.512922	1.505029	1.184139
C147	C	0.773175	1.526853	1.221746
C148	C	0.681843	1.509128	1.121649
H149	H	0.850116	1.560104	1.230838
H150	H	0.795024	1.464144	1.216222
H151	H	0.736335	1.568349	1.286085
H152	H	0.718678	1.467622	1.057311
H153	H	0.660004	1.571831	1.127162
H154	H	-0.277971	1.312476	0.579108
H155	H	0.207196	0.504891	0.109439
H156	H	-0.098327	0.995291	0.293850
H157	H	0.197672	0.636487	0.066388
H158	H	0.540791	1.327098	0.729756
H159	H	-0.061776	1.318207	0.574860
H160	H	0.404269	0.813067	0.733475
H161	H	-0.317614	0.990373	0.291183
H162	H	0.333746	0.901079	0.492675
O163	O	-0.372809	1.123066	0.228576
C164	C	-0.328378	1.024443	0.191283
H165	H	-0.223828	1.029093	0.242308
H166	H	-0.395252	0.981215	0.205274
C167	C	-0.459147	0.963112	0.000050
C168	C	-0.330733	0.968824	0.062713
H169	H	-0.460605	0.928801	-0.079259
H170	H	-0.489086	1.029556	0.025175
H171	H	-0.514862	0.927092	0.011722
H172	H	-0.275025	1.004855	0.051052
H173	H	-0.300785	0.902385	0.037583
H174	H	0.413789	0.681477	0.776522
O175	O	0.392192	0.491513	0.721745
C176	C	0.428245	0.577805	0.833417
H177	H	0.469007	0.640536	0.829588
H178	H	0.338426	0.604937	0.871251
C179	C	0.483835	0.473627	0.914168
C180	C	0.533909	0.550672	0.909466
H181	H	0.549008	0.456890	0.961081
H182	H	0.459540	0.415490	0.838933
H183	H	0.408985	0.496247	0.945693
H184	H	0.608747	0.528046	0.877928
H185	H	0.558219	0.608804	0.984698
O186	O	0.247487	0.435573	0.249012
C187	C	0.209352	0.377506	0.128109
H188	H	0.160449	0.427881	0.094950
H189	H	0.299596	0.344095	0.092288
C190	C	0.171910	0.229290	0.129948
C191	C	0.111837	0.291160	0.089222
H192	H	0.111764	0.176025	0.105959
H193	H	0.197608	0.268409	0.211402
H194	H	0.247112	0.201458	0.100094
H195	H	0.036647	0.319001	0.119088
H196	H	0.086125	0.252043	0.007771
O197	O	0.220666	1.098000	0.638110
C198	C	0.270077	1.017074	0.547944
H199	H	0.362566	1.044443	0.542164
H200	H	0.294632	0.953242	0.565197
C201	C	0.052347	0.944320	0.441053
C202	C	0.165937	0.977936	0.433948
H203	H	-0.011892	0.920173	0.370735
H204	H	0.019057	0.998838	0.501801
H205	H	0.072827	0.891130	0.455434
H206	H	0.145459	1.031132	0.419581
H207	H	0.199222	0.923425	0.373195
H208	H	-0.343537	1.266269	0.362102
H209	H	0.157949	1.053298	0.692499
H210	H	0.277716	0.416878	0.350231
