data_functionalizedCrystal
_audit_creation_method	'MofGen! by Chris Wilmer'
_symmetry_space_group_name_H-M	'P1'
_symmetry_Int_Tables_number	1
_symmetry_cell_setting	triclinic
loop_
_symmetry_equiv_pos_as_xyz
  x,y,z
_cell_length_a	11.169417
_cell_length_b	11.169416
_cell_length_c	11.169409
_cell_angle_alpha	90.028030
_cell_angle_beta	90.019824
_cell_angle_gamma	90.013967
loop_
_atom_site_label
_atom_site_type_symbol
_atom_site_fract_x
_atom_site_fract_y
_atom_site_fract_z
Zn1	Zn	-1.834939	0.477682	-0.678579
Zn2	Zn	-1.584939	0.727682	-0.428579
Zn3	Zn	-1.334939	0.977682	-0.178579
Zn4	Zn	-1.084939	1.227682	0.071421
Zn5	Zn	-1.834819	0.678422	-0.477911
Zn6	Zn	-1.584819	0.928422	-0.227911
Zn7	Zn	-1.334819	1.178422	0.022089
Zn8	Zn	-1.084819	1.428422	0.272089
Zn9	Zn	-1.634225	0.477755	-0.477913
Zn10	Zn	-1.384225	0.727755	-0.227913
Zn11	Zn	-1.134225	0.977755	0.022087
Zn12	Zn	-0.884225	1.227755	0.272087
Zn13	Zn	-1.634223	0.678325	-0.678556
Zn14	Zn	-1.384223	0.928325	-0.428556
Zn15	Zn	-1.134223	1.178325	-0.178556
Zn16	Zn	-0.884223	1.428325	0.071444
O17	O	-1.734552	0.578046	-0.578239
O18	O	-1.484552	0.828046	-0.328239
O19	O	-1.234552	1.078046	-0.078239
O20	O	-0.984552	1.328046	0.171761
O21	O	-2.002873	0.504321	-0.651968
O22	O	-1.752873	0.754321	-0.401968
O23	O	-1.502873	1.004321	-0.151968
O24	O	-1.252873	1.254321	0.098032
O25	O	-1.808161	0.651875	-0.309961
O26	O	-1.558161	0.901875	-0.059961
O27	O	-1.308161	1.151875	0.190039
O28	O	-1.058161	1.401875	0.440039
O29	O	-1.660902	0.309796	-0.504542
O30	O	-1.410902	0.559796	-0.254542
O31	O	-1.160902	0.809796	-0.004542
O32	O	-0.910902	1.059796	0.245458
O33	O	-2.002785	0.651804	-0.504538
O34	O	-1.752785	0.901804	-0.254538
O35	O	-1.502785	1.151804	-0.004538
O36	O	-1.252785	1.401804	0.245462
O37	O	-1.808365	0.309742	-0.651971
O38	O	-1.558365	0.559742	-0.401971
O39	O	-1.308365	0.809742	-0.151971
O40	O	-1.058365	1.059742	0.098029
O41	O	-1.660785	0.504445	-0.309963
O42	O	-1.410785	0.754445	-0.059963
O43	O	-1.160785	1.004445	0.190037
O44	O	-0.910785	1.254445	0.440037
O45	O	-1.466275	0.504351	-0.504520
O46	O	-1.216275	0.754351	-0.254520
O47	O	-0.966275	1.004351	-0.004520
O48	O	-0.716275	1.254351	0.245480
O49	O	-1.660898	0.651637	-0.846508
O50	O	-1.410898	0.901637	-0.596508
O51	O	-1.160898	1.151637	-0.346508
O52	O	-0.910898	1.401637	-0.096508
O53	O	-1.466274	0.651708	-0.651931
O54	O	-1.216274	0.901708	-0.401931
O55	O	-0.966274	1.151708	-0.151931
O56	O	-0.716274	1.401708	0.098069
O57	O	-1.808363	0.504226	-0.846525
O58	O	-1.558363	0.754226	-0.596525
O59	O	-1.308363	1.004226	-0.346525
O60	O	-1.058363	1.254226	-0.096525
O61	O	-1.808158	0.846359	-0.504516
O62	O	-1.558158	1.096359	-0.254516
O63	O	-1.308158	1.346359	-0.004516
O64	O	-1.058158	1.596359	0.245484
O65	O	-1.660781	0.846287	-0.651929
O66	O	-1.410781	1.096287	-0.401929
O67	O	-1.160781	1.346287	-0.151929
O68	O	-0.910781	1.596287	0.098071
C69	C	-1.422727	0.578028	-0.578224
C70	C	-1.172727	0.828028	-0.328224
C71	C	-0.922727	1.078028	-0.078224
C72	C	-0.672727	1.328028	0.171776
C73	C	-1.289327	0.578049	-0.578246
C74	C	-1.039327	0.828049	-0.328246
C75	C	-0.789327	1.078049	-0.078246
C76	C	-0.539327	1.328049	0.171754
C77	C	-1.734489	0.889871	-0.578246
C78	C	-1.484489	1.139871	-0.328246
C79	C	-1.234489	1.389871	-0.078246
C80	C	-0.984489	1.639871	0.171754
C81	C	-1.734572	1.023271	-0.578289
C82	C	-1.484572	1.273271	-0.328289
C83	C	-1.234572	1.523271	-0.078289
C84	C	-0.984572	1.773271	0.171711
C85	C	-1.734644	0.577913	-0.891282
C86	C	-1.484644	0.827913	-0.641282
C87	C	-1.234644	1.077913	-0.391282
C88	C	-0.984644	1.327913	-0.141282
C89	C	-1.734683	0.577856	-1.024682
C90	C	-1.484683	0.827856	-0.774682
C91	C	-1.234683	1.077856	-0.524682
C92	C	-0.984683	1.327856	-0.274682
C93	C	-2.047594	0.578065	-0.578256
C94	C	-1.797594	0.828065	-0.328256
C95	C	-1.547594	1.078065	-0.078256
C96	C	-1.297594	1.328065	0.171744
C97	C	-2.180994	0.578073	-0.578263
C98	C	-1.930994	0.828073	-0.328263
C99	C	-1.680994	1.078073	-0.078263
C100	C	-1.430994	1.328073	0.171737
C101	C	-1.734635	1.265004	-0.578272
C102	C	-1.484635	1.515004	-0.328272
C103	C	-1.234635	1.765004	-0.078272
C104	C	-0.984635	2.015004	0.171728
C105	C	-1.734640	1.131604	-0.578317
C106	C	-1.484640	1.381604	-0.328317
C107	C	-1.234640	1.631604	-0.078317
C108	C	-0.984640	1.881604	0.171683
C109	C	-1.734529	0.578092	-0.266415
C110	C	-1.484529	0.828092	-0.016415
C111	C	-1.234529	1.078092	0.233585
C112	C	-0.984529	1.328092	0.483585
C113	C	-1.734722	0.577811	-0.133015
C114	C	-1.484722	0.827811	0.116985
C115	C	-1.234722	1.077811	0.366985
C116	C	-0.984722	1.327811	0.616985
