data_functionalizedCrystal
_audit_creation_method	'MofGen! by Chris Wilmer'
_symmetry_space_group_name_H-M	'P1'
_symmetry_Int_Tables_number	1
_symmetry_cell_setting	triclinic
loop_
_symmetry_equiv_pos_as_xyz
  x,y,z
_cell_length_a	10.654549
_cell_length_b	9.730217
_cell_length_c	14.519731
_cell_angle_alpha	90.004058
_cell_angle_beta	84.087886
_cell_angle_gamma	90.004417
loop_
_atom_site_label
_atom_site_type_symbol
_atom_site_fract_x
_atom_site_fract_y
_atom_site_fract_z
O1	O	1.666603	0.114305	0.129559
O2	O	1.301008	0.114299	0.141895
O3	O	1.493485	0.114312	0.001540
O4	O	1.474127	0.114292	0.269914
O5	O	1.493474	-0.114268	0.001523
O6	O	1.300997	-0.114281	0.141878
O7	O	1.666593	-0.114275	0.129542
Zn8	Zn	1.483793	-0.150570	0.135707
Zn9	Zn	1.483808	0.150594	0.135730
O10	O	1.474116	-0.114288	0.269896
C11	C	1.254214	0.000008	0.140980
C12	C	1.114796	0.000007	0.138267
C13	C	1.492573	0.000027	-0.032833
C14	C	1.489855	0.000044	-0.135227
C15	C	0.823264	0.000033	0.301007
C16	C	0.873991	0.000021	0.386200
C17	C	1.004984	0.000003	0.388752
C18	C	1.085256	0.000001	0.306102
C19	C	1.034529	0.000013	0.220908
C20	C	0.903531	0.000027	0.218365
C21	C	1.064070	0.000019	0.053074
C22	C	0.933076	0.000027	0.050520
C23	C	1.144341	0.000017	-0.029577
C24	C	1.093615	0.000019	-0.114772
C25	C	0.962613	0.000036	-0.117321
C26	C	0.882349	0.000039	-0.034674
C27	C	1.713387	0.000019	0.130457
C28	C	1.852805	0.000029	0.133170
N29	N	1.483793	-0.356107	0.135690
N30	N	1.483818	0.356131	0.135739
C31	C	1.654566	0.643867	0.011640
C32	C	1.739965	0.571914	-0.050370
C33	C	1.739986	0.428034	-0.050345
C34	C	1.654596	0.356104	0.011695
C35	C	1.569197	0.428057	0.073704
C36	C	1.569188	0.571940	0.073675
C37	C	1.398419	0.428084	0.197749
C38	C	1.398402	0.571964	0.197730
C39	C	1.313029	0.356154	0.259789
C40	C	1.227634	0.428107	0.321804
C41	C	1.227618	0.571996	0.321778
C42	C	1.313003	0.643917	0.259740
C43	C	1.475028	-0.000001	0.304269
C44	C	1.477746	-0.000008	0.406664
C45	C	1.479955	-0.000002	0.489819
C46	C	1.482715	0.000011	0.594142
C47	C	1.484905	0.000022	0.677293
C48	C	1.487664	0.000033	0.781623
H49	H	0.716600	0.000024	0.298937
H50	H	1.654569	0.761021	0.011621
C51	C	1.910871	0.266250	-0.068933
C52	C	1.833854	0.348935	-0.118508
H53	H	1.968814	0.217414	-0.111017
H54	H	1.956019	0.322413	-0.030189
H55	H	1.860010	0.202829	-0.031983
H56	H	1.884714	0.412363	-0.155453
H57	H	1.788703	0.292767	-0.157269
C58	C	1.405963	0.850004	0.192158
C59	C	1.312986	0.802072	0.259707
H60	H	1.405945	0.947643	0.192132
H61	H	1.486194	0.817488	0.205455
H62	H	1.388791	0.817403	0.133072
H63	H	1.330163	0.834664	0.318794
H64	H	1.232736	0.834601	0.246415
H65	H	0.921320	0.000053	-0.186696
C66	C	1.340050	0.117510	-0.071599
C67	C	1.288331	0.000005	-0.026771
H68	H	1.428943	0.117503	-0.069862
H69	H	1.321332	0.117507	-0.134158
H70	H	1.304961	0.197212	-0.041168
H71	H	1.323413	-0.079697	-0.057207
H72	H	1.307060	-0.000004	0.035799
C73	C	1.159150	0.117534	-0.257034
C74	C	1.181851	0.000025	-0.205611
H75	H	1.213634	0.117539	-0.313112
H76	H	1.073888	0.117523	-0.270748
H77	H	1.174554	0.197233	-0.222119
H78	H	1.166438	-0.079675	-0.240524
H79	H	1.267133	0.000023	-0.191900
H80	H	1.046285	-0.000009	0.458124
C81	C	1.058810	0.557556	0.444398
C82	C	1.133745	0.651081	0.389945
H83	H	1.000863	0.606380	0.486486
H84	H	1.013667	0.501414	0.405639
H85	H	1.111083	0.501462	0.478013
H86	H	1.081473	0.707170	0.356325
H87	H	1.178891	0.707247	0.428709
C88	C	0.702766	0.117574	-0.084008
C89	C	0.738359	0.000060	-0.037477
H90	H	0.613872	0.117584	-0.085740
H91	H	0.726958	0.197262	-0.052428
H92	H	0.743317	0.117559	-0.145419
H93	H	0.697815	0.000080	0.023937
H94	H	0.714154	-0.079647	-0.069055
C95	C	1.406045	0.150029	0.192298
C96	C	1.313052	0.197999	0.259821
H97	H	1.406062	0.052390	0.192327
H98	H	1.388869	0.182529	0.133202
H99	H	1.486275	0.182619	0.205583
H100	H	1.232820	0.165417	0.246532
H101	H	1.330219	0.165484	0.318930
C102	C	0.857946	0.000022	0.552361
C103	C	0.785756	0.000028	0.477048
H104	H	0.803474	0.000039	0.608445
H105	H	0.909634	-0.079692	0.549861
H106	H	0.909672	0.079730	0.549860
H107	H	0.734036	-0.079686	0.479545
H108	H	0.734046	0.079751	0.479549
C109	C	1.256819	-0.000013	0.401136
C110	C	1.229246	-0.000010	0.308906
H111	H	1.345714	-0.000028	0.402864
H112	H	1.221745	0.079697	0.431546
H113	H	1.221714	-0.079726	0.431542
H114	H	1.264344	0.079709	0.278501
H115	H	1.264336	-0.079728	0.278484
C116	C	1.815885	0.792464	-0.105414
C117	C	1.833896	0.650981	-0.118509
H118	H	1.873899	0.841270	-0.147463
H119	H	1.732133	0.816053	-0.116180
H120	H	1.829432	0.816024	-0.043720
H121	H	1.820340	0.627420	-0.180201
H122	H	1.917668	0.627383	-0.107750
H123	H	1.654607	0.238949	0.011703
H124	H	1.158109	0.369533	0.372309
