data_functionalizedCrystal
_audit_creation_method	'MofGen! by Chris Wilmer'
_symmetry_space_group_name_H-M	'P1'
_symmetry_Int_Tables_number	1
_symmetry_cell_setting	triclinic
loop_
_symmetry_equiv_pos_as_xyz
  x,y,z
_cell_length_a	10.723024
_cell_length_b	11.792241
_cell_length_c	9.198806
_cell_angle_alpha	89.996670
_cell_angle_beta	89.996352
_cell_angle_gamma	84.330643
loop_
_atom_site_label
_atom_site_type_symbol
_atom_site_fract_x
_atom_site_fract_y
_atom_site_fract_z
O1	O	1.656767	0.159192	-0.120884
O2	O	1.293574	0.174430	-0.120889
O3	O	1.483984	0.001660	-0.120876
O4	O	1.466357	0.331962	-0.120897
O5	O	1.483969	0.001659	0.120909
O6	O	1.293559	0.174430	0.120896
O7	O	1.656751	0.159192	0.120901
Cu8	Cu	1.475154	0.166811	0.142976
Cu9	Cu	1.475172	0.166811	-0.142963
O10	O	1.466341	0.331962	0.120889
C11	C	1.247070	0.173321	0.000003
C12	C	1.108524	0.170003	0.000002
C13	C	1.033286	0.266676	-0.000005
C14	C	0.890091	0.263249	-0.000007
C15	C	1.482869	-0.040634	0.000016
C16	C	1.479555	-0.166655	0.000015
C17	C	1.473461	-0.397380	-0.000010
C18	C	1.476847	-0.268988	0.000004
C19	C	1.703256	0.160301	0.000006
C20	C	1.841801	0.163619	-0.000002
C21	C	1.467456	0.374255	-0.000007
C22	C	1.470770	0.500276	-0.000015
N23	N	1.475150	0.166810	0.344090
N24	N	1.475185	0.166803	-0.344077
C25	C	1.555099	0.093948	0.416292
C26	C	1.555118	0.093944	0.583704
H27	H	1.066928	0.084701	-0.000030
O28	O	1.636723	0.019365	0.657610
C29	C	1.615331	-0.093105	0.620563
H30	H	1.567299	-0.093322	0.510023
H31	H	1.552792	-0.128487	0.706211
C32	C	1.800324	-0.167609	0.749487
C33	C	1.741339	-0.167876	0.613714
H34	H	1.878050	-0.213733	0.745268
H35	H	1.814734	-0.091836	0.774451
H36	H	1.748195	-0.197091	0.820845
H37	H	1.793461	-0.138381	0.542362
H38	H	1.726941	-0.243645	0.588737
H39	H	1.406739	0.229190	0.593841
H40	H	1.074882	0.351978	-0.000002
H41	H	1.623528	0.031567	0.354171
O42	O	1.393384	0.241269	0.417965
C43	C	1.319066	0.309036	0.318327
H44	H	1.317102	0.262591	0.209790
H45	H	1.360404	0.393577	0.302184
C46	C	1.187108	0.388642	0.511217
C47	C	1.184688	0.331593	0.377913
H48	H	1.104219	0.402562	0.547973
H49	H	1.237180	0.342990	0.578346
H50	H	1.221562	0.459087	0.497746
H51	H	1.150249	0.261145	0.391389
H52	H	1.134607	0.377235	0.310787
H53	H	0.906445	0.080854	-0.000005
O54	O	0.812794	0.361881	0.000047
C55	C	0.687031	0.336502	0.000005
H56	H	0.681554	0.247294	0.045787
H57	H	0.649428	0.340469	-0.115994
C58	C	0.614573	0.533492	0.038584
C59	C	0.607846	0.423929	0.094825
H60	H	0.565726	0.587423	0.097067
H61	H	0.699302	0.550591	0.038606
H62	H	0.583240	0.536781	-0.058081
H63	H	0.639193	0.420637	0.191481
H64	H	0.523120	0.406831	0.094821
