data_functionalizedCrystal
_audit_creation_method	'MofGen! by Chris Wilmer'
_symmetry_space_group_name_H-M	'P1'
_symmetry_Int_Tables_number	1
_symmetry_cell_setting	triclinic
loop_
_symmetry_equiv_pos_as_xyz
  x,y,z
_cell_length_a	19.805407
_cell_length_b	18.050590
_cell_length_c	19.805399
_cell_angle_alpha	90.027426
_cell_angle_beta	90.020409
_cell_angle_gamma	90.020493
loop_
_atom_site_label
_atom_site_type_symbol
_atom_site_fract_x
_atom_site_fract_y
_atom_site_fract_z
Zn1	Zn	1.034773	-0.295638	0.382736
Zn2	Zn	1.534773	0.204362	0.882736
Zn3	Zn	1.034703	-0.419830	0.269548
Zn4	Zn	1.534703	0.080170	0.769548
Zn5	Zn	0.921587	-0.295663	0.269558
Zn6	Zn	1.421587	0.204337	0.769558
Zn7	Zn	0.921566	-0.419795	0.382693
Zn8	Zn	1.421566	0.080205	0.882693
O9	O	0.978157	-0.357732	0.326134
O10	O	1.478157	0.142268	0.826134
O11	O	1.129480	-0.312117	0.367734
O12	O	1.629480	0.187883	0.867734
O13	O	1.019678	-0.403384	0.174832
O14	O	1.519678	0.096616	0.674832
O15	O	0.936639	-0.191735	0.284594
O16	O	1.436639	0.308265	0.784594
O17	O	1.129429	-0.403360	0.284576
O18	O	1.629429	0.096640	0.784576
O19	O	1.019796	-0.191717	0.367745
O20	O	1.519796	0.308283	0.867745
O21	O	0.936572	-0.312159	0.174840
O22	O	1.436572	0.187841	0.674840
O23	O	0.826868	-0.312125	0.284553
O24	O	1.326868	0.187875	0.784553
O25	O	0.936604	-0.403300	0.477415
O26	O	1.436604	0.096700	0.977415
O27	O	0.826853	-0.403324	0.367672
O28	O	1.326853	0.096676	0.867672
O29	O	1.019776	-0.312083	0.477446
O30	O	1.519776	0.187917	0.977446
O31	O	1.019657	-0.523750	0.284534
O32	O	1.519657	-0.023750	0.784534
O33	O	0.936536	-0.523724	0.367661
O34	O	1.436536	-0.023724	0.867661
C35	C	0.802301	-0.357724	0.326109
C36	C	1.302301	0.142276	0.826109
C37	C	0.727069	-0.357739	0.326115
C38	C	1.227069	0.142261	0.826115
C39	C	0.265308	-0.310310	0.369527
C40	C	0.765308	0.189690	0.869527
C41	C	0.335997	-0.310311	0.369522
C42	C	0.835997	0.189689	0.869522
C43	C	0.371308	-0.357743	0.326155
C44	C	0.871308	0.142257	0.826155
C45	C	0.335926	-0.405181	0.282796
C46	C	0.835926	0.094819	0.782796
C47	C	0.265239	-0.405183	0.282805
C48	C	0.765239	0.094817	0.782805
C49	C	0.621000	-0.405176	0.282760
C50	C	1.121000	0.094824	0.782760
C51	C	0.691692	-0.405169	0.282753
C52	C	1.191692	0.094831	0.782753
C53	C	0.691757	-0.310304	0.369477
C54	C	1.191757	0.189696	0.869477
C55	C	0.621070	-0.310306	0.369486
C56	C	1.121070	0.189694	0.869486
C57	C	0.585695	-0.357747	0.326129
C58	C	1.085695	0.142253	0.826129
C59	C	0.509047	-0.357746	0.326136
C60	C	1.009047	0.142254	0.826136
C61	C	0.447955	-0.357741	0.326145
C62	C	0.947955	0.142259	0.826145
C63	C	0.978105	-0.550684	0.326107
C64	C	1.478105	-0.050684	0.826107
C65	C	0.978145	-0.633230	0.326118
C66	C	1.478145	-0.133230	0.826118
C67	C	1.023440	-0.832667	0.280976
C68	C	1.523440	-0.332667	0.780976
C69	C	1.039973	-0.882000	0.342751
C70	C	1.539973	-0.382000	0.842751
C71	C	0.978183	-0.784360	0.326145
C72	C	1.478183	-0.284360	0.826145
C73	C	0.961720	-0.882108	0.264397
C74	C	1.461720	-0.382108	0.764397
C75	C	0.978222	-0.930345	0.326165
C76	C	1.478222	-0.430345	0.826165
C77	C	0.994748	-0.832606	0.387952
C78	C	1.494748	-0.332606	0.887952
C79	C	0.916466	-0.832709	0.309557
C80	C	1.416466	-0.332709	0.809557
C81	C	0.932975	-0.882020	0.371374
C82	C	1.432975	-0.382020	0.871374
C83	C	0.978163	-0.700262	0.326132
C84	C	1.478163	-0.200262	0.826132
C85	C	0.978242	-1.014441	0.326185
C86	C	1.478242	-0.514441	0.826185
C87	C	1.154700	-0.357740	0.326158
C88	C	1.654700	0.142260	0.826158
C89	C	1.229932	-0.357743	0.326169
C90	C	1.729932	0.142257	0.826169
C91	C	0.978195	-0.357685	0.502676
C92	C	1.478195	0.142315	1.002676
C93	C	0.978211	-0.357665	0.577908
C94	C	1.478211	0.142335	1.077908
C95	C	0.978228	-0.164026	0.326175
C96	C	1.478228	0.335974	0.826175
C97	C	0.978258	-0.081480	0.326193
C98	C	1.478258	0.418520	0.826193
C99	C	0.978158	-0.357725	0.150278
C100	C	1.478158	0.142275	0.650278
C101	C	0.978273	-0.357535	0.075046
C102	C	1.478273	0.142465	0.575046
C103	C	1.021520	-0.310166	0.613270
C104	C	1.521520	0.189834	1.113270
C105	C	1.021527	-0.310144	0.683958
C106	C	1.521527	0.189856	1.183958
C107	C	0.978228	-0.357626	0.719284
C108	C	1.478228	0.142374	1.219284
C109	C	0.934915	-0.405128	0.683917
C110	C	1.434915	0.094872	1.183917
C111	C	0.934905	-0.405145	0.613230
C112	C	1.434905	0.094855	1.113230
C113	C	0.934953	-0.405058	0.968991
C114	C	1.434953	0.094942	1.468991
C115	C	0.934968	-0.405039	1.039683
C116	C	1.434968	0.094961	1.539683
C117	C	1.021575	-0.310058	1.039719
C118	C	1.521575	0.189942	1.539719
C119	C	1.021565	-0.310075	0.969032
C120	C	1.521565	0.189925	1.469032
C121	C	0.978250	-0.357573	0.933672
C122	C	1.478250	0.142427	1.433672
C123	C	0.978242	-0.357595	0.857023
C124	C	1.478242	0.142405	1.357023
C125	C	0.978239	-0.357609	0.795931
C126	C	1.478239	0.142391	1.295931
H127	H	0.592324	-0.271679	0.404797
H128	H	1.092324	0.228321	0.904797
O129	O	0.374156	-0.259141	0.416276
O130	O	0.874156	0.240859	0.916276
H131	H	0.337726	-0.226149	0.446423
H132	H	0.837726	0.273851	0.946423
H133	H	1.056843	-0.271379	1.068518
H134	H	1.556843	0.228621	1.568518
H135	H	0.864271	-0.811040	0.295495
H136	H	1.364271	-0.311040	0.795495
O137	O	1.109129	-0.910684	0.361355
O138	O	1.609129	-0.410684	0.861355
H139	H	1.105479	-0.944469	0.408024
H140	H	1.605479	-0.444469	0.908024
O141	O	1.074142	-0.803963	0.230421
O142	O	1.574142	-0.303963	0.730421
H143	H	1.073341	-0.742479	0.230513
H144	H	1.573341	-0.242479	0.730513
H145	H	0.236563	-0.271681	0.404837
H146	H	0.736563	0.228319	0.904837
O147	O	0.888257	-0.456250	1.077783
O148	O	1.388257	0.043750	1.577783
H149	H	0.895548	-0.448261	1.132877
H150	H	1.395548	0.051739	1.632877
O151	O	0.374013	-0.456336	0.236020
O152	O	0.874013	0.043664	0.736020
H153	H	0.360442	-0.514641	0.247538
H154	H	0.860442	-0.014641	0.747538
H155	H	0.899693	-0.443745	0.940209
H156	H	1.399693	0.056255	1.440209
O157	O	0.729910	-0.259138	0.416249
O158	O	1.229910	0.240862	0.916249
H159	H	0.784996	-0.267108	0.408966
H160	H	1.284996	0.232892	0.908966
H161	H	0.592206	-0.443803	0.247454
H162	H	1.092206	0.056197	0.747454
O163	O	0.888211	-0.456337	0.722019
O164	O	1.388211	0.043663	1.222019
H165	H	0.858089	-0.489364	0.685552
H166	H	1.358089	0.010636	1.185552
O167	O	1.013303	-0.803936	0.457154
O168	O	1.513303	-0.303936	0.957154
H169	H	1.013168	-0.742449	0.456595
H170	H	1.513168	-0.242449	0.956595
O171	O	1.068267	-0.258860	0.930934
O172	O	1.568267	0.241140	1.430934
H173	H	1.102690	-0.292111	0.898733
H174	H	1.602690	0.207889	1.398733
H175	H	0.899632	-0.443816	0.584440
H176	H	1.399632	0.056184	1.084440
H177	H	0.720440	-0.443796	0.247438
H178	H	1.220440	0.056204	0.747438
H179	H	0.236436	-0.443810	0.247500
H180	H	0.736436	0.056190	0.747500
H181	H	0.894719	-0.903554	0.409625
H182	H	1.394719	-0.403554	0.909625
O183	O	0.943242	-0.910907	0.195219
O184	O	1.443242	-0.410907	0.695219
H185	H	0.980867	-0.891131	0.157814
H186	H	1.480867	-0.391131	0.657814
H187	H	1.056781	-0.271502	0.584513
H188	H	1.556781	0.228498	1.084513
O189	O	1.068242	-0.258918	0.722101
O190	O	1.568242	0.241082	1.222101
H191	H	1.098356	-0.225912	0.685662
H192	H	1.598356	0.274088	1.185662
