data_functionalizedCrystal
_audit_creation_method	'MofGen! by Chris Wilmer'
_symmetry_space_group_name_H-M	'P1'
_symmetry_Int_Tables_number	1
_symmetry_cell_setting	triclinic
loop_
_symmetry_equiv_pos_as_xyz
  x,y,z
_cell_length_a	11.792254
_cell_length_b	11.792241
_cell_length_c	9.198806
_cell_angle_alpha	90.003595
_cell_angle_beta	90.003910
_cell_angle_gamma	84.196007
loop_
_atom_site_label
_atom_site_type_symbol
_atom_site_fract_x
_atom_site_fract_y
_atom_site_fract_z
O1	O	1.506900	0.155634	0.120892
O2	O	2.006900	0.655634	0.620892
O3	O	1.176560	0.171652	0.120895
O4	O	1.676560	0.671652	0.620895
O5	O	1.349746	-0.001527	0.120883
O6	O	1.849746	0.498473	0.620883
O7	O	1.333714	0.328813	0.120904
O8	O	1.833714	0.828813	0.620904
O9	O	1.349733	-0.001528	-0.120902
O10	O	1.849733	0.498472	0.379098
O11	O	1.176547	0.171651	-0.120890
O12	O	1.676547	0.671651	0.379110
O13	O	1.506886	0.155633	-0.120893
O14	O	2.006886	0.655633	0.379107
Cu15	Cu	1.341715	0.163642	-0.142968
Cu16	Cu	1.841715	0.663642	0.357032
Cu17	Cu	1.341731	0.163643	0.142970
Cu18	Cu	1.841731	0.663643	0.642970
O19	O	1.333700	0.328812	-0.120881
O20	O	1.833700	0.828812	0.379119
C21	C	1.134263	0.170642	0.000003
C22	C	1.634263	0.670642	0.500003
C23	C	1.008250	0.167622	0.000004
C24	C	1.508250	0.667622	0.500004
C25	C	1.348732	-0.043819	-0.000009
C26	C	1.848732	0.456181	0.499991
C27	C	1.345718	-0.169832	-0.000007
C28	C	1.845718	0.330168	0.499993
C29	C	0.905913	0.165168	0.000010
C30	C	1.405913	0.665168	0.500010
C31	C	0.777527	0.162100	0.000011
C32	C	1.277527	0.662100	0.500011
C33	C	1.340175	-0.400545	0.000017
C34	C	1.840175	0.099455	0.500017
C35	C	1.343255	-0.272160	0.000004
C36	C	1.843255	0.227840	0.500004
C37	C	1.549183	0.156643	0.000002
C38	C	2.049183	0.656643	0.500002
C39	C	1.675196	0.159663	0.000011
C40	C	2.175196	0.659663	0.500011
C41	C	1.334714	0.371104	0.000014
C42	C	1.834714	0.871104	0.500014
C43	C	1.337728	0.497118	0.000022
C44	C	1.837728	0.997118	0.500022
N45	N	1.341712	0.163640	-0.344082
N46	N	1.841712	0.663640	0.155918
C47	C	1.407736	0.229300	-0.416277
C48	C	1.907736	0.729300	0.083723
C49	C	1.407753	0.229298	-0.583689
C50	C	1.907753	0.729298	-0.083689
N51	N	1.341743	0.163636	0.344084
N52	N	1.841743	0.663636	0.844084
H53	H	1.464253	0.285509	-0.354145
H54	H	1.964253	0.785509	0.145855
H55	H	1.464273	0.285518	-0.645775
H56	H	1.964273	0.785518	-0.145775
C57	C	1.265429	0.087632	-0.572055
C58	C	1.765429	0.587632	-0.072055
N59	N	1.207971	0.030364	-0.508880
N60	N	1.707971	0.530364	-0.008880
H61	H	1.285202	0.107422	-0.406214
H62	H	1.785202	0.607422	0.093786
