data_functionalizedCrystal
_audit_creation_method	'MofGen! by Chris Wilmer'
_symmetry_space_group_name_H-M	'P1'
_symmetry_Int_Tables_number	1
_symmetry_cell_setting	triclinic
loop_
_symmetry_equiv_pos_as_xyz
  x,y,z
_cell_length_a	6.817900
_cell_length_b	11.102188
_cell_length_c	12.908943
_cell_angle_alpha	94.412855
_cell_angle_beta	100.860631
_cell_angle_gamma	108.603875
loop_
_atom_site_label
_atom_site_type_symbol
_atom_site_fract_x
_atom_site_fract_y
_atom_site_fract_z
V1	V	-4.022079	-0.174252	-0.328682
O2	O	-3.982824	0.010006	-0.322425
O3	O	-3.999459	-0.347083	-0.326434
O4	O	-3.959852	-0.170856	-0.472032
O5	O	-4.022705	-0.167442	-0.175820
V6	V	-4.504159	-0.152298	-0.310398
O7	O	-4.286505	-0.222412	-0.368789
O8	O	-4.689930	-0.104138	-0.270292
O9	O	-4.303573	0.020533	-0.312646
O10	O	-4.660810	-0.336556	-0.316655
O11	O	-4.620929	-0.159109	-0.463261
O12	O	-4.343179	-0.155694	-0.167049
C13	C	-3.851178	-0.389238	-0.321249
C14	C	-3.913878	-0.530525	-0.320367
C15	C	-3.909436	-0.579219	-0.223415
C16	C	-3.968371	-0.711974	-0.222590
C17	C	-4.036181	-0.747332	-0.415677
C18	C	-3.977261	-0.614579	-0.416501
C19	C	-3.800655	-0.164441	-0.506972
C20	C	-3.831231	-0.162807	-0.624161
C21	C	-4.253820	-0.172350	-0.855107
C22	C	-4.282559	-0.170816	-0.965217
C23	C	-3.917446	-0.158196	-0.954491
C24	C	-3.888707	-0.159730	-0.844381
C25	C	-4.056903	-0.166809	-0.794694
C26	C	-4.028166	-0.168352	-0.684583
C27	C	-3.663052	-0.155723	-0.673858
C28	C	-3.691791	-0.154189	-0.783968
C29	C	-4.115196	0.062681	-0.317829
C30	C	-4.031734	0.203967	-0.318718
C31	C	-4.165720	-0.162113	-0.132103
C32	C	-4.114381	-0.163741	-0.014913
H33	H	-4.087790	-0.815784	-0.493946
H34	H	-3.964751	-0.751613	-0.143643
N35	N	-3.841050	-0.488557	-0.119732
H36	H	-3.847175	-0.539554	-0.058189
H37	H	-3.939275	-0.437077	-0.119434
N38	N	-3.982059	-0.562049	-0.521076
H39	H	-4.031136	-0.635438	-0.581851
H40	H	-3.834922	-0.503356	-0.522045
H41	H	-4.165124	-0.174122	-0.644130
H42	H	-4.390778	-0.178127	-0.814653
N43	N	-4.494940	-0.176779	-1.030378
H44	H	-4.597119	-0.181493	-0.982189
H45	H	-4.552964	-0.255518	-1.086539
N46	N	-3.736059	-0.150536	-1.008101
H47	H	-3.701752	-0.070510	-1.043298
H48	H	-3.778111	-0.228766	-1.063745
N49	N	-3.450653	-0.149760	-0.608700
H50	H	-3.457965	-0.151812	-0.531406
H51	H	-3.337811	-0.067636	-0.615360
H52	H	-3.554856	-0.148421	-0.824438
