data_functionalizedCrystal
_audit_creation_method	'MofGen! by Chris Wilmer'
_symmetry_space_group_name_H-M	'P1'
_symmetry_Int_Tables_number	1
_symmetry_cell_setting	triclinic
loop_
_symmetry_equiv_pos_as_xyz
  x,y,z
_cell_length_a	12.759401
_cell_length_b	12.645330
_cell_length_c	12.759401
_cell_angle_alpha	90.008188
_cell_angle_beta	90.005232
_cell_angle_gamma	90.019217
loop_
_atom_site_label
_atom_site_type_symbol
_atom_site_fract_x
_atom_site_fract_y
_atom_site_fract_z
Zn1	Zn	1.606082	-0.422162	0.594031
Zn2	Zn	1.606012	-0.599399	0.418356
Zn3	Zn	1.430429	-0.422155	0.418366
Zn4	Zn	1.430363	-0.599389	0.593993
O5	O	1.518221	-0.510776	0.506186
O6	O	1.753093	-0.445681	0.570739
O7	O	1.582718	-0.575888	0.271336
O8	O	1.453786	-0.273808	0.441689
O9	O	1.753042	-0.575895	0.441671
O10	O	1.582838	-0.273814	0.570749
O11	O	1.453718	-0.445667	0.271344
O12	O	1.283399	-0.445658	0.441652
O13	O	1.453674	-0.575879	0.741019
O14	O	1.283351	-0.575871	0.570684
O15	O	1.582774	-0.445671	0.741047
O16	O	1.582655	-0.747745	0.441634
O17	O	1.453607	-0.747738	0.570674
C18	C	1.245254	-0.510763	0.506165
C19	C	1.128477	-0.510783	0.506181
C20	C	1.518145	-0.786206	0.506172
C21	C	1.518208	-0.904036	0.506200
C22	C	1.073618	-0.578688	0.573263
C23	C	0.963894	-0.578692	0.573284
C24	C	0.963898	-0.442883	0.439133
C25	C	1.073620	-0.442875	0.439118
C26	C	1.437358	-1.071640	0.587630
C27	C	1.436945	-0.949080	0.587368
C28	C	1.488263	-0.948598	0.395478
C29	C	1.487769	-1.071197	0.395973
C30	C	1.629497	-1.071131	0.534595
C31	C	1.628815	-0.948524	0.537016
C32	C	1.792254	-0.510790	0.506208
C33	C	1.909031	-0.510796	0.506217
C34	C	1.518225	-0.510775	0.780220
C35	C	1.518226	-0.510774	0.896996
C36	C	1.518327	-0.234271	0.506224
C37	C	1.518372	-0.116441	0.506240
C38	C	1.585431	-0.442986	1.061605
C39	C	1.585440	-0.442986	0.951881
C40	C	1.451006	-0.578575	0.951841
C41	C	1.451003	-0.578579	1.061563
C42	C	1.518211	-0.510796	1.233219
C43	C	1.518214	-0.510779	1.116442
H44	H	1.118279	-0.633981	0.627873
Cl45	Cl	1.669948	-0.357758	0.882948
H46	H	1.545400	-0.919420	0.333180
Cl47	Cl	1.671680	-1.118783	0.657132
Cl48	Cl	1.366502	-0.663819	1.130506
H49	H	1.118288	-0.387571	0.384492
Cl50	Cl	1.465861	-0.902556	0.714125
H51	H	1.455918	-1.101075	0.669999
H52	H	0.919220	-0.387596	0.384531
Cl53	Cl	1.310961	-1.119365	0.559021
H54	H	1.640158	-0.387778	1.106285
Cl55	Cl	0.894932	-0.664061	0.657620
H56	H	1.396284	-0.633774	0.907144
H57	H	1.354561	-0.919842	0.568583
H58	H	1.651398	-0.919397	0.618502
H59	H	1.406537	-1.099883	0.371952
H60	H	1.544217	-1.100834	0.333263
H61	H	1.407877	-0.917982	0.371023
Cl62	Cl	1.726915	-0.901169	0.452164
H63	H	1.689854	-1.100100	0.475316
