data_functionalizedCrystal
_audit_creation_method	'MofGen! by Chris Wilmer'
_symmetry_space_group_name_H-M	'P1'
_symmetry_Int_Tables_number	1
_symmetry_cell_setting	triclinic
loop_
_symmetry_equiv_pos_as_xyz
  x,y,z
_cell_length_a	27.732048
_cell_length_b	13.262390
_cell_length_c	11.804365
_cell_angle_alpha	62.657606
_cell_angle_beta	101.725897
_cell_angle_gamma	83.571259
loop_
_atom_site_label
_atom_site_type_symbol
_atom_site_fract_x
_atom_site_fract_y
_atom_site_fract_z
O1	O	0.007110	1.519151	-0.591057
O2	O	0.024633	1.190484	-0.484613
O3	O	-0.054795	1.365020	-0.541117
O4	O	0.086538	1.344615	-0.534554
O5	O	-0.033905	1.319072	-0.328186
O6	O	0.045524	1.144535	-0.271682
O7	O	0.028001	1.473203	-0.378126
Cu8	Cu	0.038670	1.304674	-0.305462
Cu9	Cu	0.013964	1.359013	-0.557277
O10	O	0.107429	1.298667	-0.321622
C11	C	0.036017	1.125474	-0.364533
C12	C	0.038810	1.000222	-0.323968
C13	C	0.001122	0.747357	-0.673914
C14	C	-0.001504	0.865038	-0.712030
C15	C	0.008574	0.898840	-0.615018
C16	C	0.021279	0.814949	-0.479883
C17	C	0.023901	0.697257	-0.441764
C18	C	0.031354	0.848740	-0.382867
C19	C	0.044058	0.764849	-0.247733
C20	C	0.046681	0.647169	-0.209620
C21	C	0.036602	0.613367	-0.306632
C22	C	0.028731	0.966432	-0.420987
C23	C	0.051511	0.916332	-0.188836
C24	C	0.054137	0.798651	-0.150720
C25	C	-0.062345	1.341617	-0.434509
C26	C	-0.115965	1.340324	-0.434080
C27	C	-0.457324	1.435357	-0.464919
C28	C	-0.658857	1.430573	-0.463387
O29	O	-0.692439	1.517473	-0.491583
N30	N	-0.675217	1.327076	-0.429867
C31	C	-0.641190	1.224771	-0.396736
O32	O	-0.659731	1.136634	-0.368203
C33	C	-0.439659	1.229558	-0.398278
C34	C	-0.423301	1.333058	-0.431787
C35	C	-0.440965	1.538849	-0.498427
C36	C	-0.390584	1.540042	-0.498803
C37	C	-0.356561	1.437743	-0.465671
C38	C	-0.372920	1.334251	-0.432163
C39	C	-0.405634	1.127256	-0.365157
C40	C	-0.355249	1.128462	-0.365549
C41	C	-0.338891	1.231962	-0.399058
C42	C	-0.288516	1.233146	-0.399407
N43	N	-0.272156	1.336642	-0.432927
C44	C	-0.306179	1.438941	-0.466059
C45	C	-0.746998	1.222264	-0.395926
C46	C	-0.797380	1.221067	-0.395538
C47	C	-0.815044	1.426870	-0.462191
C48	C	-0.764659	1.428064	-0.462570
C49	C	-0.730638	1.325760	-0.429446
C50	C	-0.200374	1.441439	-0.466845
C51	C	-0.149987	1.442622	-0.467212
C52	C	-0.132329	1.236822	-0.400566
C53	C	-0.182710	1.235636	-0.400191
C54	C	-0.216733	1.337955	-0.433338
O55	O	-0.254909	1.146296	-0.371241
O56	O	-0.287631	1.527071	-0.494616
C57	C	-0.507705	1.434163	-0.464543
C58	C	-0.524063	1.330671	-0.431036
C59	C	-0.490040	1.228373	-0.397904
C60	C	-0.574446	1.329474	-0.430648
C61	C	-0.608468	1.431772	-0.463780
C62	C	-0.592109	1.535268	-0.497300
C63	C	-0.541728	1.536462	-0.497675
C64	C	-0.506400	1.124877	-0.364384
C65	C	-0.556782	1.123691	-0.364009
C66	C	-0.590805	1.225990	-0.397141
C67	C	0.114979	1.322071	-0.428233
C68	C	0.168597	1.323365	-0.428670
C69	C	0.016616	1.538213	-0.498209
C70	C	0.013823	1.663467	-0.538783
N71	N	0.056046	1.266463	-0.128351
N72	N	-0.003416	1.397233	-0.734391
C73	C	-0.045152	1.488992	0.173557
C74	C	-0.058299	1.517897	0.039538
C75	C	-0.029714	1.455041	-0.002441
C76	C	0.012020	1.363275	0.089613
C77	C	0.025171	1.334372	0.223643
C78	C	0.040609	1.300421	0.047645
C79	C	0.082344	1.208655	0.139699
C80	C	0.095492	1.179757	0.273716
C81	C	0.066907	1.242613	0.315695
C82	C	0.027458	1.329323	-0.086385
C83	C	0.097782	1.174704	-0.036299
C84	C	0.110929	1.145798	0.097720
H85	H	0.064481	0.730331	-0.040691
H86	H	0.121059	1.123522	-0.070476
H87	H	0.059717	0.943852	-0.109840
H88	H	-0.068420	1.540167	0.207745
Br89	Br	-0.578973	0.983211	-0.318518
Br90	Br	0.011489	1.080271	-0.604377
Br91	Br	-0.012584	0.701485	-0.805560
Br92	Br	-0.018749	0.978883	-0.895419
Br93	Br	-0.700832	1.083410	-0.350970
H94	H	-0.468663	1.622158	-0.525414
Br95	Br	-0.638291	1.674099	-0.542254
Br96	Br	-0.742465	1.568532	-0.508045
Br97	Br	0.040171	0.453649	-0.254907
Br98	Br	-0.127791	1.583096	-0.512691
Br99	Br	0.063919	0.533319	-0.026224
H100	H	0.006436	0.994663	-0.646060
H101	H	-0.842754	1.510165	-0.489168
Br102	Br	-0.246540	1.580302	-0.511831
H103	H	-0.377272	1.624323	-0.526095
H104	H	-0.810691	1.136782	-0.368229
Br105	Br	-0.427821	0.986783	-0.319682
H106	H	0.144910	1.071080	0.172687
Br107	Br	-0.519537	1.676935	-0.543162
Br108	Br	0.084748	1.203374	0.497590
Br109	Br	0.152138	1.055234	0.398644
H110	H	-0.040420	1.478580	-0.111567
H111	H	-0.327550	1.045153	-0.338577
Br112	Br	-0.114934	1.642433	-0.085390
H113	H	-0.196026	1.151351	-0.372870
H114	H	-0.478703	1.041571	-0.337406
Br115	Br	-0.086146	1.097995	-0.355603
Br116	Br	-0.029178	1.453860	-0.211299
