data_functionalizedCrystal
_audit_creation_method	'MofGen! by Chris Wilmer'
_symmetry_space_group_name_H-M	'P1'
_symmetry_Int_Tables_number	1
_symmetry_cell_setting	triclinic
loop_
_symmetry_equiv_pos_as_xyz
  x,y,z
_cell_length_a	15.944551
_cell_length_b	11.792241
_cell_length_c	15.021413
_cell_angle_alpha	89.996104
_cell_angle_beta	90.002826
_cell_angle_gamma	83.846077
loop_
_atom_site_label
_atom_site_type_symbol
_atom_site_fract_x
_atom_site_fract_y
_atom_site_fract_z
O1	O	-1.115189	-0.146365	-0.073940
O2	O	-0.870721	-0.164412	-0.073962
O3	O	-0.998888	0.009831	-0.073944
O4	O	-0.987023	-0.320608	-0.073957
O5	O	-0.998867	0.009806	0.074120
O6	O	-0.870701	-0.164437	0.074103
O7	O	-1.115169	-0.146390	0.074125
Zn8	Zn	-0.992932	-0.155417	0.097622
Zn9	Zn	-0.992958	-0.155384	-0.097459
O10	O	-0.987002	-0.320632	0.074107
C11	C	-0.998132	0.052104	0.000088
C12	C	-0.995901	0.178099	0.000087
C13	C	-0.839414	-0.163675	0.000068
C14	C	-0.746157	-0.161429	0.000059
C15	C	-1.146476	-0.147126	0.000093
C16	C	-1.239733	-0.149372	0.000096
C17	C	-0.530789	-0.048056	0.000081
C18	C	-0.470017	-0.100690	-0.072924
C19	C	-0.575413	-0.157365	0.000070
C20	C	-0.470019	-0.100741	0.073055
C21	C	-0.410483	-0.153432	0.000084
C22	C	-0.515869	-0.210030	-0.072996
C23	C	-0.515878	-0.210065	0.073049
C24	C	-0.455123	-0.262778	0.000026
C25	C	-0.670426	-0.159628	0.000061
C26	C	-0.315471	-0.151178	0.000087
C27	C	-0.987758	-0.362905	0.000073
C28	C	-0.989989	-0.488900	0.000068
N29	N	-0.992919	-0.155439	0.230760
C30	C	-0.991799	0.408777	0.000072
C31	C	-0.994079	0.280411	0.000080
N32	N	-0.992977	-0.155354	-0.230597
C33	C	-0.933646	-0.235971	0.470435
C34	C	-1.009646	-0.258005	0.529775
C35	C	-0.992941	-0.155410	0.412367
C36	C	-0.916962	-0.133401	0.529768
C37	C	-0.992955	-0.155386	0.587791
C38	C	-1.068979	-0.177496	0.470400
C39	C	-0.976245	-0.052847	0.470388
C40	C	-1.052299	-0.074838	0.529702
C41	C	-0.992932	-0.155428	0.311309
C42	C	-0.992972	-0.155367	0.688846
H43	H	-0.449706	-0.054447	-0.134642
C44	C	-1.119311	0.016042	0.564017
C45	C	-1.161285	0.071735	0.491839
C46	C	-1.223030	0.155443	0.523418
H47	H	-1.093387	0.069813	0.598811
H48	H	-1.158659	-0.018735	0.599597
H49	H	-1.121943	0.106512	0.456274
H50	H	-1.187226	0.017995	0.457039
H51	H	-1.262379	0.120667	0.558998
H52	H	-1.197099	0.209206	0.558212
H53	H	-1.251522	0.193235	0.474451
C54	C	-0.831199	-0.108743	0.564413
C55	C	-0.769365	-0.193347	0.534363
C56	C	-0.690349	-0.170670	0.566246
H57	H	-0.831852	-0.108248	0.627644
H58	H	-0.818882	-0.036466	0.543178
H59	H	-0.781679	-0.265605	0.555603
H60	H	-0.768685	-0.193856	0.471135
H61	H	-0.678032	-0.098393	0.545010
H62	H	-0.691011	-0.170174	0.629476
H63	H	-0.648384	-0.228063	0.545854
C64	C	-0.957196	0.062699	0.435618
C65	C	-0.877525	0.085284	0.465627
C66	C	-0.859934	0.191706	0.433603
H67	H	-0.998692	0.120194	0.456772
H68	H	-0.957797	0.062066	0.372377
H69	H	-0.876931	0.085926	0.528855
H70	H	-0.836012	0.027816	0.444475
H71	H	-0.860534	0.191073	0.370362
H72	H	-0.901435	0.249192	0.454759
H73	H	-0.805873	0.207039	0.453953
C74	C	-0.542974	-0.271524	-0.155356
C75	C	-0.630672	-0.272839	-0.154432
C76	C	-0.655675	-0.329459	-0.230293
H77	H	-0.516472	-0.347609	-0.155648
H78	H	-0.526958	-0.232936	-0.207157
H79	H	-0.646680	-0.311428	-0.102646
H80	H	-0.657195	-0.196769	-0.154154
H81	H	-0.639659	-0.290871	-0.282093
H82	H	-0.629168	-0.405540	-0.230578
H83	H	-0.715181	-0.330349	-0.229680
H84	H	-1.023780	-0.344729	0.555860
H85	H	-0.422374	-0.353590	-0.000019
H86	H	-0.563713	0.042662	-0.000005
C87	C	-1.154592	-0.202575	0.435609
C88	C	-1.153558	-0.202412	0.342408
C89	C	-1.232393	-0.225569	0.310326
H90	H	-1.196845	-0.145758	0.456263
H91	H	-1.166511	-0.275228	0.456406
H92	H	-1.141649	-0.129768	0.321619
H93	H	-1.111322	-0.259229	0.321730
H94	H	-1.244313	-0.298222	0.331123
H95	H	-1.274640	-0.168749	0.330985
H96	H	-1.231700	-0.225472	0.247086
C97	C	-0.543134	-0.271495	0.155372
C98	C	-0.599522	-0.197306	0.204972
C99	C	-0.624660	-0.253850	0.280814
H100	H	-0.495077	-0.295595	0.190669
H101	H	-0.570011	-0.336071	0.137871
H102	H	-0.572645	-0.132751	0.222474
H103	H	-0.647592	-0.173202	0.169701
H104	H	-0.651537	-0.318426	0.263314
H105	H	-0.576599	-0.277948	0.316104
H106	H	-0.662928	-0.203525	0.314473
C107	C	-0.443076	-0.038908	0.155321
C108	C	-0.481759	0.073436	0.154979
C109	C	-0.456971	0.130435	0.230748
H110	H	-0.383543	-0.038408	0.155090
H111	H	-0.459570	-0.076946	0.207187
H112	H	-0.465260	0.111464	0.103127
H113	H	-0.541292	0.072970	0.155224
H114	H	-0.473465	0.092397	0.282613
H115	H	-0.397437	0.130926	0.230510
H116	H	-0.483219	0.206663	0.230530
C117	C	-0.866959	-0.327051	0.435773
C118	C	-0.884853	-0.434237	0.465847
C119	C	-0.823452	-0.518169	0.433923
H120	H	-0.813052	-0.312297	0.456950
H121	H	-0.867089	-0.326042	0.372530
H122	H	-0.884714	-0.435243	0.529076
H123	H	-0.938749	-0.449027	0.444672
H124	H	-0.823582	-0.517160	0.370681
H125	H	-0.769549	-0.503404	0.455103
H126	H	-0.835588	-0.590905	0.454317
