data_functionalizedCrystal
_audit_creation_method	'MofGen! by Chris Wilmer'
_symmetry_space_group_name_H-M	'P1'
_symmetry_Int_Tables_number	1
_symmetry_cell_setting	triclinic
loop_
_symmetry_equiv_pos_as_xyz
  x,y,z
_cell_length_a	10.654550
_cell_length_b	9.130313
_cell_length_c	10.654549
_cell_angle_alpha	90.000293
_cell_angle_beta	84.484854
_cell_angle_gamma	89.997013
loop_
_atom_site_label
_atom_site_type_symbol
_atom_site_fract_x
_atom_site_fract_y
_atom_site_fract_z
O1	O	1.667834	0.121687	0.176393
O2	O	1.302355	0.121713	0.193200
O3	O	1.493498	0.121693	0.002057
O4	O	1.476691	0.121707	0.367536
O5	O	1.493495	-0.121906	0.002062
O6	O	1.302353	-0.121886	0.193205
O7	O	1.667831	-0.121912	0.176399
Cu8	Cu	1.485092	-0.144141	0.184802
Cu9	Cu	1.485095	0.143942	0.184796
O10	O	1.476689	-0.121892	0.367541
C11	C	1.255556	-0.000083	0.191968
C12	C	1.116113	-0.000073	0.188276
N13	N	1.485099	-0.346764	0.184806
C14	C	1.036627	-0.000073	0.300818
C15	C	0.905606	-0.000098	0.297341
C16	C	0.933570	-0.000118	0.068772
C17	C	1.064588	-0.000103	0.072250
C18	C	1.569759	-0.423425	0.100197
C19	C	1.569756	-0.576762	0.100182
C20	C	1.400429	-0.576763	0.269395
C21	C	1.400427	-0.423429	0.269403
C22	C	1.667522	-0.423425	0.002506
C23	C	1.667519	-0.576762	0.002491
C24	C	1.714631	-0.000113	0.177630
C25	C	1.854074	-0.000113	0.181322
C26	C	1.492263	-0.000105	-0.044738
C27	C	1.488571	-0.000100	-0.184181
N28	N	1.485097	0.346565	0.184783
C29	C	1.597634	-0.000098	-0.394696
C30	C	1.601113	-0.000109	-0.263676
C31	C	1.372543	-0.000093	-0.235714
C32	C	1.369066	-0.000092	-0.366732
C33	C	1.477924	-0.000091	0.414336
C34	C	1.481616	-0.000086	0.553780
H35	H	0.840893	-0.000101	0.388984
C36	C	1.243858	0.125152	-0.072157
C37	C	1.248833	-0.000078	-0.148337
H38	H	1.167478	0.125166	-0.018223
H39	H	1.313443	0.125135	-0.022723
H40	H	1.247256	0.210088	-0.123867
H41	H	1.245444	-0.085014	-0.096627
H42	H	1.179228	-0.000074	-0.197775
C43	C	1.225052	-0.000022	0.407644
C44	C	1.093267	-0.000046	0.428351
H45	H	1.260013	0.000003	0.486381
H46	H	1.252274	-0.084966	0.361272
H47	H	1.252243	0.084932	0.361250
H48	H	1.066075	-0.085005	0.474737
H49	H	1.066033	0.084907	0.474742
H50	H	1.764031	-0.618385	0.024010
C51	C	0.745143	-0.000134	-0.038050
C52	C	0.876928	-0.000131	-0.058760
H53	H	0.710181	-0.000131	-0.116787
H54	H	0.717943	-0.085077	0.008329
H55	H	0.717932	0.084820	0.008337
H56	H	0.904141	-0.085092	-0.105139
H57	H	0.904140	0.084820	-0.105159
C58	C	1.233048	-0.438839	0.436652
C59	C	1.307359	-0.339162	0.362400
H60	H	1.175595	-0.386813	0.494070
H61	H	1.187433	-0.498636	0.383942
H62	H	1.285723	-0.498653	0.482316
H63	H	1.254684	-0.279355	0.316728
H64	H	1.352977	-0.279340	0.415116
H65	H	1.695586	-0.000121	-0.221732
C66	C	1.628397	-0.794129	-0.114456
C67	C	1.626330	-0.640968	-0.120649
H68	H	1.602959	-0.833765	-0.190472
H69	H	1.711408	-0.826253	-0.103398
H70	H	1.572207	-0.826239	-0.045308
H71	H	1.682527	-0.608857	-0.189792
H72	H	1.543306	-0.608830	-0.131722
H73	H	1.129309	-0.000107	-0.019401
H74	H	1.331490	-0.639201	0.338272
C75	C	1.528797	-0.282030	-0.114685
C76	C	1.638552	-0.367232	-0.127798
H77	H	1.510913	-0.247336	-0.195126
H78	H	1.460319	-0.339834	-0.078997
H79	H	1.540735	-0.201120	-0.061054
H80	H	1.626611	-0.448149	-0.181422
H81	H	1.707045	-0.309425	-0.163504
H82	H	1.758706	-0.375872	0.033095
H83	H	1.689280	-0.000093	-0.459413
H84	H	1.274584	-0.000089	-0.408682
