data_functionalizedCrystal
_audit_creation_method	'MofGen! by Chris Wilmer'
_symmetry_space_group_name_H-M	'P1'
_symmetry_Int_Tables_number	1
_symmetry_cell_setting	triclinic
loop_
_symmetry_equiv_pos_as_xyz
  x,y,z
_cell_length_a	27.732048
_cell_length_b	27.732048
_cell_length_c	7.540329
_cell_angle_alpha	89.991480
_cell_angle_beta	90.002547
_cell_angle_gamma	82.642655
loop_
_atom_site_label
_atom_site_type_symbol
_atom_site_fract_x
_atom_site_fract_y
_atom_site_fract_z
O1	O	0.640926	0.057516	-0.147273
O2	O	1.140926	0.557516	0.352727
O3	O	0.500133	0.066262	-0.147329
O4	O	1.000133	0.566262	0.352671
O5	O	0.574902	-0.008508	-0.147265
O6	O	1.074902	0.491492	0.352735
O7	O	0.566157	0.132286	-0.147336
O8	O	1.066157	0.632286	0.352664
O9	O	0.574898	-0.008509	0.147700
O10	O	1.074898	0.491491	0.647700
O11	O	0.500128	0.066261	0.147636
O12	O	1.000128	0.566261	0.647636
O13	O	0.640922	0.057515	0.147692
O14	O	1.140922	0.557515	0.647692
Cu15	Cu	0.570525	0.061888	0.174597
Cu16	Cu	1.070525	0.561888	0.674597
Cu17	Cu	0.570530	0.061889	-0.174234
Cu18	Cu	1.070530	0.561889	0.325766
O19	O	0.566152	0.132285	0.147629
O20	O	1.066152	0.632285	0.647629
C21	C	0.482124	0.066078	0.000147
C22	C	0.982124	0.566078	0.500147
C23	C	0.428469	0.065525	0.000127
C24	C	0.928469	0.565525	0.500127
C25	C	0.089654	0.106229	0.000183
C26	C	0.589654	0.606229	0.500183
C27	C	-0.112006	0.104178	0.000200
C28	C	0.387994	0.604178	0.500200
O29	O	-0.143262	0.141398	0.000258
O30	O	0.356738	0.641398	0.500258
N31	N	-0.131130	0.059843	0.000219
N32	N	0.368870	0.559843	0.500219
C33	C	-0.099835	0.016017	0.000246
C34	C	0.400165	0.516017	0.500246
O35	O	-0.120728	-0.021740	0.000281
O36	O	0.379272	0.478260	0.500281
C37	C	0.101824	0.018068	0.000241
C38	C	0.601824	0.518068	0.500241
C39	C	0.120944	0.062407	0.000204
C40	C	0.620944	0.562407	0.500204
C41	C	0.108775	0.150563	0.000148
C42	C	0.608775	0.650563	0.500148
C43	C	0.159187	0.151075	0.000134
C44	C	0.659187	0.651075	0.500134
C45	C	0.190477	0.107253	0.000155
C46	C	0.690477	0.607253	0.500155
C47	C	0.171356	0.062919	0.000190
C48	C	0.671356	0.562919	0.500190
C49	C	0.133117	-0.025757	0.000281
C50	C	0.633117	0.474243	0.500281
C51	C	0.183535	-0.025240	0.000284
C52	C	0.683535	0.474760	0.500284
C53	C	0.202655	0.019098	0.000247
C54	C	0.702655	0.519098	0.500247
C55	C	0.253059	0.019609	0.000198
C56	C	0.753059	0.519609	0.500198
N57	N	0.272183	0.063944	0.000179
N58	N	0.772183	0.563944	0.500179
C59	C	0.240892	0.107766	0.000157
C60	C	0.740892	0.607766	0.500157
C61	C	-0.205709	0.014943	0.000244
C62	C	0.294291	0.514943	0.500244
C63	C	-0.256124	0.014430	0.000242
C64	C	0.243876	0.514430	0.500242
C65	C	-0.268291	0.102591	0.000200
C66	C	0.231709	0.602591	0.500200
C67	C	-0.217876	0.103104	0.000189
C68	C	0.282124	0.603104	0.500189
C69	C	-0.186585	0.059278	0.000225
C70	C	0.313415	0.559278	0.500225
C71	C	0.346761	0.108839	0.000127
C72	C	0.846761	0.608839	0.500127
C73	C	0.397178	0.109347	0.000105
C74	C	0.897178	0.609347	0.500105
C75	C	0.409341	0.021186	0.000157
C76	C	0.909341	0.521186	0.500157
C77	C	0.358929	0.020678	0.000169
C78	C	0.858929	0.520678	0.500169
C79	C	0.327639	0.064508	0.000160
C80	C	0.827639	0.564508	0.500160
O81	O	0.284343	-0.017592	0.000160
O82	O	0.784343	0.482408	0.500160
O83	O	0.261794	0.145518	0.000162
O84	O	0.761794	0.645518	0.500162
C85	C	0.039242	0.105716	0.000197
C86	C	0.539242	0.605716	0.500197
C87	C	0.020120	0.061382	0.000232
C88	C	0.520120	0.561382	0.500232
C89	C	0.051411	0.017560	0.000253
C90	C	0.551411	0.517560	0.500253
C91	C	-0.030294	0.060869	0.000230
C92	C	0.469706	0.560869	0.500230
C93	C	-0.061585	0.104691	0.000209
C94	C	0.438415	0.604691	0.500209
C95	C	-0.042461	0.149026	0.000189
C96	C	0.457539	0.649026	0.500189
C97	C	0.007951	0.149539	0.000176
C98	C	0.507951	0.649539	0.500176
C99	C	0.032287	-0.026775	0.000273
C100	C	0.532287	0.473225	0.500273
C101	C	-0.018125	-0.027284	0.000284
C102	C	0.481875	0.472716	0.500284
C103	C	-0.049416	0.016538	0.000263
C104	C	0.450584	0.516538	0.500263
C105	C	0.574716	-0.026515	0.000222
C106	C	1.074716	0.473485	0.500222
C107	C	0.574164	-0.080170	0.000236
C108	C	1.074164	0.419830	0.500236
C109	C	0.614867	-0.418985	0.000162
C110	C	1.114867	0.081015	0.500162
C111	C	0.612816	-0.620645	0.000136
C112	C	1.112816	-0.120645	0.500136
O113	O	0.650037	-0.651900	0.000073
O114	O	1.150037	-0.151900	0.500073
N115	N	0.568481	-0.639768	0.000120
N116	N	1.068481	-0.139768	0.500120
C117	C	0.524656	-0.608474	0.000099
C118	C	1.024656	-0.108474	0.500099
O119	O	0.486899	-0.629367	0.000066
O120	O	0.986899	-0.129367	0.500066
C121	C	0.526707	-0.406815	0.000111
C122	C	1.026707	0.093185	0.500111
C123	C	0.571045	-0.387694	0.000145
C124	C	1.071045	0.112306	0.500145
C125	C	0.659202	-0.399864	0.000194
C126	C	1.159202	0.100136	0.500194
C127	C	0.659714	-0.349452	0.000210
C128	C	1.159714	0.150548	0.500210
C129	C	0.615892	-0.318161	0.000194
C130	C	1.115892	0.181839	0.500194
C131	C	0.571557	-0.337282	0.000162
C132	C	1.071557	0.162718	0.500162
C133	C	0.482882	-0.375521	0.000077
C134	C	0.982882	0.124479	0.500077
C135	C	0.483399	-0.325104	0.000076
C136	C	0.983399	0.174896	0.500076
C137	C	0.527737	-0.305983	0.000110
C138	C	1.027737	0.194017	0.500110
C139	C	0.528248	-0.255580	0.000162
C140	C	1.028248	0.244420	0.500162
N141	N	0.572583	-0.236456	0.000178
N142	N	1.072583	0.263544	0.500178
C143	C	0.616405	-0.267747	0.000194
C144	C	1.116405	0.232253	0.500194
C145	C	0.523582	-0.714348	0.000095
C146	C	1.023582	-0.214348	0.500095
C147	C	0.523069	-0.764762	0.000095
C148	C	1.023069	-0.264762	0.500095
C149	C	0.611230	-0.776930	0.000129
C150	C	1.111230	-0.276930	0.500129
C151	C	0.611742	-0.726514	0.000142
C152	C	1.111742	-0.226514	0.500142
C153	C	0.567917	-0.695224	0.000111
C154	C	1.067917	-0.195224	0.500111
C155	C	0.617477	-0.161878	0.000229
C156	C	1.117477	0.338122	0.500229
C157	C	0.617986	-0.111461	0.000252
C158	C	1.117986	0.388539	0.500252
C159	C	0.529825	-0.099298	0.000209
C160	C	1.029825	0.400702	0.500209
C161	C	0.529316	-0.149710	0.000195
C162	C	1.029316	0.350290	0.500195
C163	C	0.573147	-0.180999	0.000199
C164	C	1.073147	0.319001	0.500199
O165	O	0.491047	-0.224296	0.000204
O166	O	0.991047	0.275704	0.500204
O167	O	0.654156	-0.246844	0.000187
O168	O	1.154156	0.253156	0.500187
C169	C	0.614355	-0.469397	0.000145
C170	C	1.114355	0.030603	0.500145
C171	C	0.570021	-0.488518	0.000113
C172	C	1.070021	0.011482	0.500113
C173	C	0.526198	-0.457228	0.000097
C174	C	1.026198	0.042772	0.500097
C175	C	0.569508	-0.538933	0.000113
C176	C	1.069508	-0.038933	0.500113
C177	C	0.613330	-0.570223	0.000129
C178	C	1.113330	-0.070223	0.500129
C179	C	0.657665	-0.551100	0.000145
C180	C	1.157665	-0.051100	0.500145
C181	C	0.658177	-0.500688	0.000161
C182	C	1.158177	-0.000688	0.500161
C183	C	0.481863	-0.476351	0.000081
C184	C	0.981863	0.023649	0.500081
C185	C	0.481355	-0.526764	0.000067
C186	C	0.981355	-0.026764	0.500067
C187	C	0.525177	-0.558054	0.000083
C188	C	1.025177	-0.058054	0.500083
C189	C	0.658931	0.057699	0.000213
C190	C	1.158931	0.557699	0.500213
C191	C	0.712586	0.058252	0.000221
C192	C	1.212586	0.558252	0.500221
C193	C	0.566338	0.150292	0.000137
C194	C	1.066338	0.650292	0.500137
C195	C	0.566891	0.203947	0.000111
C196	C	1.066891	0.703947	0.500111
N197	N	0.570524	0.061887	0.419945
N198	N	1.070524	0.561887	0.919945
N199	N	0.570534	0.061886	-0.419582
N200	N	1.070534	0.561886	0.080418
H201	H	0.057760	-0.062462	0.000294
H202	H	0.557760	0.437538	0.500294
C203	C	0.666759	-0.090431	0.000279
C204	C	1.166759	0.409569	0.500279
H205	H	0.692784	-0.116290	0.000267
H206	H	1.192784	0.383710	0.500267
H207	H	0.668793	-0.071023	0.103144
H208	H	1.168793	0.428977	0.603144
H209	H	0.668793	-0.071012	-0.102590
H210	H	1.168793	0.428988	0.397410
H211	H	-0.202311	0.139207	0.000169
H212	H	0.297689	0.639207	0.500169
C213	C	0.312350	0.157051	0.000093
C214	C	0.812350	0.657051	0.500093
H215	H	0.330965	0.183525	0.000051
H216	H	0.830965	0.683525	0.500051
H217	H	0.292430	0.158691	0.102950
H218	H	0.792430	0.658691	0.602950
H219	H	0.292431	0.158682	-0.102785
H220	H	0.792431	0.658682	0.397215
H221	H	0.653168	-0.187348	0.000225
H222	H	1.153168	0.312652	0.500225
C223	C	0.708486	-0.328425	0.000213
C224	C	1.208486	0.171575	0.500213
H225	H	0.734508	-0.354287	0.000200
H226	H	1.234508	0.145713	0.500200
H227	H	0.710526	-0.309015	0.103069
H228	H	1.210526	0.190985	0.603069
H229	H	0.710519	-0.309010	-0.102665
H230	H	1.210519	0.190990	0.397335
H231	H	0.647846	-0.710950	0.000168
H232	H	1.147846	-0.210950	0.500168
C233	C	0.659433	-0.811355	0.000119
C234	C	1.159433	-0.311355	0.500119
H235	H	0.652773	-0.844117	0.000096
H236	H	1.152773	-0.344117	0.500096
H237	H	0.677636	-0.805604	0.102973
H238	H	1.177636	-0.305604	0.602973
H239	H	0.677623	-0.805589	-0.102762
H240	H	1.177623	-0.305589	0.397238
H241	H	0.486964	-0.780325	0.000098
H242	H	0.986964	-0.280325	0.500098
C243	C	0.481623	-0.064874	0.000180
C244	C	0.981623	0.435126	0.500180
H245	H	0.455142	-0.083479	0.000169
H246	H	0.955142	0.416521	0.500169
H247	H	0.479999	-0.044950	-0.102681
H248	H	0.979999	0.455050	0.397319
H249	H	0.479988	-0.044959	0.103053
H250	H	0.979988	0.455041	0.603053
C251	C	0.418208	0.158121	0.000074
C252	C	0.918208	0.658121	0.500074
H253	H	0.392349	0.184145	0.000083
H254	H	0.892349	0.684145	0.500083
H255	H	0.437619	0.160156	-0.102790
H256	H	0.937619	0.660156	0.397210
H257	H	0.437623	0.160153	0.102945
H258	H	0.937623	0.660153	0.602945
C259	C	0.180213	0.199848	0.000128
C260	C	0.680213	0.699848	0.500128
H261	H	0.154352	0.225869	0.000138
H262	H	0.654352	0.725869	0.500138
H263	H	0.199627	0.201889	-0.102727
H264	H	0.699627	0.701889	0.397273
H265	H	0.199625	0.201879	0.103007
H266	H	0.699625	0.701879	0.603007
H267	H	0.434827	-0.014492	0.000168
H268	H	0.934827	0.485508	0.500168
C269	C	0.475371	-0.679934	0.000086
C270	C	0.975371	-0.179934	0.500086
H271	H	0.448897	-0.698549	0.000096
H272	H	0.948897	-0.198549	0.500096
H273	H	0.473732	-0.660008	-0.102770
H274	H	0.973732	-0.160008	0.397230
H275	H	0.473737	-0.660021	0.102964
H276	H	0.973737	-0.160021	0.602964
H277	H	0.445246	-0.542327	0.000055
H278	H	0.945246	-0.042327	0.500055
H279	H	0.694282	-0.485125	0.000189
H280	H	1.194282	0.014875	0.500189
H281	H	0.446777	-0.391080	0.000039
H282	H	0.946777	0.108920	0.500039
H283	H	0.023514	0.185643	0.000148
H284	H	0.523514	0.685643	0.500148
C285	C	-0.076887	0.197229	0.000172
C286	C	0.423113	0.697229	0.500172
H287	H	-0.109649	0.190569	0.000198
H288	H	0.390351	0.690569	0.500198
H289	H	-0.071132	0.215429	-0.102694
H290	H	0.428868	0.715429	0.397306
H291	H	-0.071124	0.215423	0.103041
H292	H	0.428876	0.715423	0.603041
C293	C	0.337894	-0.028092	0.000191
C294	C	0.837894	0.471908	0.500191
H295	H	0.363752	-0.054117	0.000206
H296	H	0.863752	0.445883	0.500206
H297	H	0.318475	-0.030126	-0.102657
H298	H	0.818475	0.469874	0.397343
H299	H	0.318487	-0.030125	0.103078
H300	H	0.818487	0.469875	0.603078
H301	H	0.447710	-0.299629	0.000048
H302	H	0.947710	0.200371	0.500048
C303	C	0.074362	0.198772	0.000109
C304	C	0.574362	0.698772	0.500109
H305	H	0.092978	0.225245	0.000074
H306	H	0.592978	0.725245	0.500074
H307	H	0.054440	0.200413	0.102960
H308	H	0.554440	0.700413	0.602960
H309	H	0.054445	0.200405	-0.102774
H310	H	0.554445	0.700405	0.397226
C311	C	0.480546	-0.170744	0.000153
C312	C	0.980546	0.329256	0.500153
H313	H	0.454521	-0.144886	0.000134
H314	H	0.954521	0.355114	0.500134
H315	H	0.478507	-0.190168	0.102993
H316	H	0.978507	0.309832	0.602993
H317	H	0.478519	-0.190147	-0.102741
H318	H	0.978519	0.309853	0.397259
C319	C	-0.039152	-0.076059	0.000330
C320	C	0.460848	0.423941	0.500330
H321	H	-0.013292	-0.102082	0.000359
H322	H	0.486708	0.397918	0.500359
H323	H	-0.058571	-0.078098	-0.102517
H324	H	0.441429	0.421902	0.397483
H325	H	-0.058559	-0.078090	0.103218
H326	H	0.441441	0.421910	0.603218
C327	C	0.112095	-0.074529	0.000346
C328	C	0.612095	0.425471	0.500346
H329	H	0.137958	-0.100550	0.000385
H330	H	0.637958	0.399450	0.500385
H331	H	0.092679	-0.076572	-0.102503
H332	H	0.592679	0.423428	0.397497
H333	H	0.092687	-0.076560	0.103232
H334	H	0.592687	0.423440	0.603232
C335	C	0.705868	-0.585526	0.000149
C336	C	1.205868	-0.085526	0.500149
H337	H	0.699208	-0.618288	0.000121
H338	H	1.199208	-0.118288	0.500121
H339	H	0.724067	-0.579775	0.103012
H340	H	1.224067	-0.079775	0.603012
H341	H	0.724062	-0.579759	-0.102722
H342	H	1.224062	-0.079759	0.397278
H343	H	-0.293777	0.138273	0.000183
H344	H	0.206223	0.638273	0.500183
C345	C	0.707411	-0.434276	0.000226
C346	C	1.207411	0.065724	0.500226
H347	H	0.733884	-0.415661	0.000258
H348	H	1.233884	0.084339	0.500258
H349	H	0.709053	-0.454195	-0.102627
H350	H	1.209053	0.045805	0.397373
H351	H	0.709042	-0.454197	0.103108
H352	H	1.209042	0.045803	0.603108
C353	C	-0.277151	-0.034342	0.000266
C354	C	0.222849	0.465658	0.500266
H355	H	-0.251291	-0.060365	0.000296
H356	H	0.248709	0.439635	0.500296
H357	H	-0.296567	-0.036378	-0.102590
H358	H	0.203433	0.463622	0.397410
H359	H	-0.296562	-0.036375	0.103144
H360	H	0.203438	0.463625	0.603144
H361	H	-0.180236	-0.020747	0.000274
H362	H	0.319764	0.479253	0.500274
C363	C	0.433656	-0.441938	0.000082
C364	C	0.933656	0.058062	0.500082
H365	H	0.407182	-0.460552	0.000085
H366	H	0.907182	0.039448	0.500085
H367	H	0.432018	-0.422009	-0.102766
H368	H	0.932018	0.077991	0.397234
H369	H	0.432023	-0.422028	0.102968
H370	H	0.932023	0.077972	0.602968
C371	C	0.217951	-0.073449	0.000304
C372	C	0.717951	0.426551	0.500304
H373	H	0.199340	-0.099925	0.000310
H374	H	0.699340	0.400075	0.500310
H375	H	0.237876	-0.075085	0.103156
H376	H	0.737876	0.424915	0.603156
H377	H	0.237865	-0.075081	-0.102579
H378	H	0.737865	0.424919	0.397421
