data_functionalizedCrystal
_audit_creation_method	'MofGen! by Chris Wilmer'
_symmetry_space_group_name_H-M	'P1'
_symmetry_Int_Tables_number	1
_symmetry_cell_setting	triclinic
loop_
_symmetry_equiv_pos_as_xyz
  x,y,z
_cell_length_a	13.262402
_cell_length_b	13.339070
_cell_length_c	12.377047
_cell_angle_alpha	99.022648
_cell_angle_beta	61.851012
_cell_angle_gamma	80.565990
loop_
_atom_site_label
_atom_site_type_symbol
_atom_site_fract_x
_atom_site_fract_y
_atom_site_fract_z
O1	O	1.524012	-0.205942	-0.374538
O2	O	1.198249	-0.202188	-0.274380
O3	O	1.323750	-0.054527	-0.312992
O4	O	1.398511	-0.353602	-0.335926
O5	O	1.373467	-0.092234	-0.516265
O6	O	1.247965	-0.239894	-0.477653
O7	O	1.573728	-0.243648	-0.577811
Zn8	Zn	1.418740	-0.247758	-0.560006
Zn9	Zn	1.353237	-0.198078	-0.292185
O10	O	1.448227	-0.391309	-0.539199
C11	C	1.180562	-0.217782	-0.362936
C12	C	1.053785	-0.208059	-0.323959
C13	C	0.967123	-0.182935	-0.194839
C14	C	0.848012	-0.173810	-0.158221
C15	C	0.815550	-0.189800	-0.250718
C16	C	0.902212	-0.214917	-0.379840
C17	C	1.021336	-0.224051	-0.416462
C18	C	0.869763	-0.230917	-0.472341
C19	C	0.956425	-0.256034	-0.601462
C20	C	1.075536	-0.265165	-0.638079
C21	C	1.107998	-0.249175	-0.545582
C22	C	0.750639	-0.221783	-0.435718
C23	C	0.804852	-0.262899	-0.657341
C24	C	0.923963	-0.272024	-0.693959
C25	C	1.335979	-0.034922	-0.410749
C26	C	1.298333	0.079672	-0.399187
C27	C	1.591415	-0.228053	-0.489252
C28	C	1.718190	-0.237775	-0.528221
N29	N	1.463453	-0.281663	-0.742790
C30	C	1.591089	0.426611	-0.489250
C31	C	1.626464	0.318943	-0.500121
C32	C	1.544434	0.259120	-0.474888
C33	C	1.427023	0.306975	-0.438783
C34	C	1.391646	0.414652	-0.427920
C35	C	1.344992	0.247161	-0.413558
C36	C	1.227580	0.295017	-0.377453
C37	C	1.192209	0.402683	-0.366592
C38	C	1.274239	0.462506	-0.391825
C39	C	1.380368	0.139484	-0.424421
C40	C	1.180926	0.127526	-0.363092
C41	C	1.145550	0.235194	-0.352220
C42	C	1.436008	0.589080	-0.441479
C43	C	1.473682	0.474464	-0.453154
N44	N	1.308532	-0.164165	-0.109403
C45	C	1.567263	-0.360434	0.166159
C46	C	1.598568	-0.384191	0.038210
C47	C	1.526062	-0.329187	0.001300
C48	C	1.422245	-0.250420	0.092353
C49	C	1.390941	-0.226655	0.220314
C50	C	1.349740	-0.195408	0.055454
C51	C	1.245923	-0.116641	0.146507
C52	C	1.214624	-0.092880	0.274455
C53	C	1.287131	-0.147884	0.311364
C54	C	1.381043	-0.219174	-0.072507
C55	C	1.204721	-0.085395	-0.018352
C56	C	1.173416	-0.061637	0.109597
H57	H	0.994539	-0.292475	-0.799092
H58	H	1.096607	0.441642	-0.337202
H59	H	1.049951	0.274173	-0.322824
H60	H	1.146097	-0.285627	-0.743218
H61	H	1.114131	0.078817	-0.342551
N62	N	1.061452	0.023324	0.207805
H63	H	1.052631	0.030031	0.294460
H64	H	1.066358	0.092740	0.185579
N65	N	0.687080	-0.179941	-0.211230
H66	H	0.679566	-0.249119	-0.249144
H67	H	0.637183	-0.161562	-0.115393
H68	H	1.683097	-0.448321	-0.035918
H69	H	1.465571	-0.283306	-0.146630
N70	N	1.002131	-0.165687	-0.095084
H71	H	0.980101	-0.218422	-0.043497
H72	H	1.090739	-0.175265	-0.137971
N73	N	0.754545	-0.146715	-0.018966
H74	H	0.793180	-0.137965	0.034075
H75	H	0.693398	-0.078716	0.004277
N76	N	1.236463	-0.258992	-0.585057
H77	H	1.265070	-0.316422	-0.553597
H78	H	1.286362	-0.277289	-0.680889
N79	N	1.559821	-0.354807	-0.136701
H80	H	1.636589	-0.413052	-0.188781
H81	H	1.494757	-0.378584	-0.145099
H82	H	1.626292	-0.405204	0.196224
H83	H	1.245440	0.550179	-0.382970
N84	N	1.582576	0.142996	-0.486589
H85	H	1.570369	0.100730	-0.552512
H86	H	1.669389	0.121850	-0.513238
N87	N	0.769856	-0.280154	-0.757115
H88	H	0.681500	-0.271992	-0.714405
H89	H	0.790464	-0.226480	-0.807530
H90	H	1.475965	0.100531	-0.453818
H91	H	1.130097	-0.028734	0.348586
N92	N	1.753092	0.267327	-0.539066
H93	H	1.799690	0.321560	-0.553401
H94	H	1.753690	0.236887	-0.469557
H95	H	1.261645	-0.128546	0.415550
H96	H	1.145680	-0.040605	-0.048402
N97	N	1.679549	0.491137	-0.516476
H98	H	1.650890	0.550056	-0.437987
H99	H	1.759268	0.444415	-0.541029
N100	N	0.657184	-0.194681	-0.296458
H101	H	0.596010	-0.126663	-0.273095
H102	H	0.617187	-0.253344	-0.279638
