data_functionalizedCrystal
_audit_creation_method	'MofGen! by Chris Wilmer'
_symmetry_space_group_name_H-M	'P1'
_symmetry_Int_Tables_number	1
_symmetry_cell_setting	triclinic
loop_
_symmetry_equiv_pos_as_xyz
  x,y,z
_cell_length_a	16.992694
_cell_length_b	15.995292
_cell_length_c	16.053802
_cell_angle_alpha	92.568169
_cell_angle_beta	87.249047
_cell_angle_gamma	87.068419
loop_
_atom_site_label
_atom_site_type_symbol
_atom_site_fract_x
_atom_site_fract_y
_atom_site_fract_z
O1	O	1.043660	0.174247	-0.069315
O2	O	0.815376	0.172298	-0.069340
O3	O	0.935782	0.051800	-0.069328
O4	O	0.923254	0.294744	-0.069327
O5	O	0.929154	0.058404	0.069530
O6	O	0.808749	0.178901	0.069519
O7	O	1.037032	0.180850	0.069543
Zn8	Zn	0.921838	0.180924	0.091578
Zn9	Zn	0.930570	0.172224	-0.091374
O10	O	0.916626	0.301347	0.069532
C11	C	0.782850	0.173093	0.000086
C12	C	0.695808	0.165617	0.000077
C13	C	0.931958	0.023872	0.000099
C14	C	0.930430	-0.069183	0.000093
C15	C	0.645554	0.237753	0.000078
C16	C	0.563768	0.230724	0.000089
C17	C	0.532238	0.151557	0.000094
C18	C	0.582499	0.079415	0.000095
C19	C	0.664283	0.086446	0.000090
C20	C	0.288645	0.122419	0.000116
C21	C	0.206855	0.115394	0.000119
C22	C	0.188129	0.266703	0.000114
C23	C	0.269916	0.273726	0.000104
C24	C	0.320169	0.201585	0.000110
N25	N	0.448641	0.144370	0.000103
N26	N	0.403765	0.208773	0.000107
C27	C	0.924810	-0.407298	0.000100
C28	C	1.011701	-0.378155	0.000419
C29	C	1.013368	-0.281384	0.000104
C30	C	0.927599	-0.239555	0.000097
C31	C	0.887934	-0.275335	-0.079200
C32	C	0.886891	-0.372198	-0.079264
C33	C	0.877580	-0.364665	0.078644
C34	C	0.880751	-0.267907	0.079689
C35	C	0.929170	-0.144754	0.000092
C36	C	0.923236	-0.502099	0.000099
C37	C	1.069558	0.180054	0.000116
C38	C	1.156601	0.187531	0.000120
C39	C	0.920450	0.329275	0.000103
C40	C	0.921979	0.422331	0.000104
N41	N	0.915885	0.186861	0.216438
N42	N	0.936530	0.166280	-0.216234
C43	C	0.967136	0.135610	0.260136
C44	C	0.962979	0.139772	0.347543
C45	C	0.907573	0.195190	0.391249
C46	C	0.856316	0.246443	0.347544
C47	C	0.860470	0.242276	0.260139
C48	C	0.889427	0.213366	0.652657
C49	C	0.885278	0.217531	0.740067
C50	C	0.991941	0.110859	0.740061
C51	C	0.996093	0.106700	0.652654
C52	C	0.944833	0.157950	0.608957
N53	N	0.903324	0.199447	0.480592
N54	N	0.949079	0.153688	0.519615
H55	H	0.671218	0.302219	0.000073
C56	C	0.931376	-0.409516	-0.159329
N57	N	0.964888	-0.437620	-0.219634
C58	C	0.833141	0.269859	0.604601
N59	N	0.790780	0.312453	0.568402
H60	H	0.811199	0.291562	0.383134
H61	H	1.050314	-0.263396	-0.056832
C62	C	1.060351	-0.417973	-0.075967
N63	N	1.096992	-0.447966	-0.133502
C64	C	0.719564	0.007090	0.000086
N65	N	0.761200	-0.052684	0.000085
C66	C	0.801044	-0.397850	-0.084149
N67	N	0.736385	-0.417168	-0.087836
H68	H	0.902080	-0.388064	0.138750
H69	H	0.840158	0.262662	0.775649
C70	C	0.919690	-0.236169	0.158943
N71	N	0.949014	-0.212251	0.218636
H72	H	0.824960	-0.247831	-0.082153
H73	H	0.147204	0.325437	0.000111
H74	H	1.044683	-0.257378	0.056946
C75	C	1.028087	0.074645	0.212068
N76	N	1.073994	0.028722	0.175865
C77	C	0.508490	0.310081	0.000105
N78	N	0.466854	0.369857	0.000123
H79	H	0.920923	-0.256061	-0.138207
H80	H	1.033673	0.069132	0.775647
H81	H	0.818735	0.284009	0.224560
H82	H	0.295581	0.338192	0.000091
H83	H	0.329552	0.063676	0.000121
H84	H	1.042484	-0.401206	0.057287
H85	H	0.181188	0.050924	0.000122
C86	C	0.547814	-0.007669	0.000102
N87	N	0.521690	-0.073263	0.000103
C88	C	0.795865	-0.228723	0.086151
N89	N	0.731926	-0.199211	0.091011
H90	H	0.813585	-0.382911	0.079173
C91	C	1.019341	0.083370	0.395608
N92	N	1.061789	0.040877	0.431810
H93	H	1.041209	0.061575	0.617071
