data_functionalizedCrystal
_audit_creation_method	'MofGen! by Chris Wilmer'
_symmetry_space_group_name_H-M	'P1'
_symmetry_Int_Tables_number	1
_symmetry_cell_setting	triclinic
loop_
_symmetry_equiv_pos_as_xyz
  x,y,z
_cell_length_a	12.759401
_cell_length_b	12.759400
_cell_length_c	12.759393
_cell_angle_alpha	90.029373
_cell_angle_beta	90.020938
_cell_angle_gamma	90.014690
loop_
_atom_site_label
_atom_site_type_symbol
_atom_site_fract_x
_atom_site_fract_y
_atom_site_fract_z
Zn1	Zn	1.606278	-0.418173	0.594028
Zn2	Zn	1.606173	-0.593888	0.418352
Zn3	Zn	1.430576	-0.418229	0.418363
Zn4	Zn	1.430573	-0.593815	0.593989
O5	O	1.518400	-0.506026	0.506183
O6	O	1.753285	-0.441489	0.570736
O7	O	1.582838	-0.570641	0.271332
O8	O	1.453928	-0.271200	0.441687
O9	O	1.753208	-0.570587	0.441667
O10	O	1.583015	-0.271159	0.570747
O11	O	1.453827	-0.441584	0.271341
O12	O	1.283555	-0.441513	0.441649
O13	O	1.453923	-0.570461	0.741015
O14	O	1.283552	-0.570516	0.570680
O15	O	1.583012	-0.441418	0.741044
O16	O	1.582835	-0.740900	0.441629
O17	O	1.453822	-0.740846	0.570669
C18	C	1.245433	-0.506013	0.506162
C19	C	1.128656	-0.506033	0.506178
C20	C	1.073820	-0.573307	0.573259
C21	C	0.964096	-0.573311	0.573280
C22	C	0.964053	-0.438764	0.439130
C23	C	1.073775	-0.438756	0.439115
C24	C	0.814201	-0.611009	0.697141
C25	C	0.759362	-0.678300	0.764213
C26	C	0.794962	-0.780830	0.780163
C27	C	0.885400	-0.816092	0.729026
C28	C	0.940234	-0.748807	0.661946
C29	C	0.904635	-0.646262	0.646016
C30	C	1.223672	-0.401068	0.315253
C31	C	1.278508	-0.333788	0.248167
C32	C	1.242910	-0.231255	0.232207
C33	C	1.152468	-0.195998	0.283325
C34	C	1.097632	-0.263278	0.350411
C35	C	1.133238	-0.365809	0.366373
C36	C	1.518345	-0.778993	0.506167
C37	C	1.518417	-0.895770	0.506195
C38	C	1.585599	-0.950531	0.573451
C39	C	1.585648	-1.060255	0.573477
C40	C	1.451330	-1.060448	0.438980
C41	C	1.451277	-0.950726	0.438961
C42	C	1.652740	-0.895576	0.640685
C43	C	1.719928	-0.950337	0.707947
C44	C	1.719977	-1.060061	0.707972
C45	C	1.652838	-1.115024	0.640737
C46	C	1.792433	-0.506040	0.506205
C47	C	1.909210	-0.506046	0.506214
C48	C	1.518479	-0.505925	0.780217
C49	C	1.518512	-0.505882	0.896993
C50	C	1.518484	-0.231993	0.506223
C51	C	1.518520	-0.115216	0.506240
C52	C	1.518382	-0.506051	0.233216
C53	C	1.518552	-0.505798	0.116440
C54	C	1.585734	-0.438679	0.951872
C55	C	1.585752	-0.438633	1.061596
C56	C	1.451323	-0.573004	1.061553
C57	C	1.451301	-0.573044	0.951831
C58	C	1.623361	-0.314677	1.211572
C59	C	1.690599	-0.247482	1.266454
C60	C	1.793111	-0.231372	1.230863
C61	C	1.828406	-0.282471	1.140390
C62	C	1.761173	-0.349673	1.085513
C63	C	1.658646	-0.365764	1.121104
C64	C	1.413703	-0.697002	0.801854
C65	C	1.346474	-0.764210	0.746975
C66	C	1.243960	-0.780331	0.782564
C67	C	1.208669	-0.729251	0.873040
C68	C	1.275897	-0.662042	0.927919
C69	C	1.378410	-0.645919	0.892322
H70	H	1.013867	-0.777517	0.620311
Cl71	Cl	0.726024	-0.865418	0.864489
Cl72	Cl	1.804315	-0.881242	0.792478
Cl73	Cl	1.804429	-1.128900	0.792539
H74	H	1.396669	-1.105207	0.384240
Cl75	Cl	1.079791	-0.749518	0.917789
H76	H	1.640459	-0.383989	0.907226
Cl77	Cl	1.652657	-0.757637	0.640684
Cl78	Cl	1.653061	-1.252964	0.640613
H79	H	1.352150	-0.362504	0.206543
Cl80	Cl	1.542571	-0.676705	0.757082
Cl81	Cl	1.877637	-0.146900	1.299861
H82	H	1.661852	-0.205877	1.340117
Cl83	Cl	1.366822	-0.881878	0.354404
H84	H	1.789912	-0.391281	1.011856
Cl85	Cl	1.159454	-0.864844	0.713585
Cl86	Cl	1.957293	-0.262228	1.095662
H87	H	0.785214	-0.527517	0.684172
Cl88	Cl	1.494477	-0.334911	1.256314
H89	H	1.396604	-0.627687	1.106216
Cl90	Cl	0.983928	-0.218955	0.414670
Cl91	Cl	1.390847	-0.828437	0.633239
H92	H	1.247155	-0.620450	1.001590
H93	H	0.914373	-0.899587	0.742009
Cl94	Cl	1.142809	-0.657879	0.657571
Cl95	Cl	0.645676	-0.633969	0.828502
H96	H	1.287562	-0.176480	0.177571
Cl97	Cl	0.895053	-0.354195	0.354825
H98	H	1.123471	-0.112514	0.270313
H99	H	1.252672	-0.484556	0.328252
