data_functionalizedCrystal
_audit_creation_method	'MofGen! by Chris Wilmer'
_symmetry_space_group_name_H-M	'P1'
_symmetry_Int_Tables_number	1
_symmetry_cell_setting	triclinic
loop_
_symmetry_equiv_pos_as_xyz
  x,y,z
_cell_length_a	12.837942
_cell_length_b	16.992694
_cell_length_c	16.053802
_cell_angle_alpha	92.750953
_cell_angle_beta	92.838962
_cell_angle_gamma	87.251418
loop_
_atom_site_label
_atom_site_type_symbol
_atom_site_fract_x
_atom_site_fract_y
_atom_site_fract_z
O1	O	0.217066	-1.059913	-0.069322
O2	O	0.214638	-0.831447	-0.069347
O3	O	0.064530	-0.940614	-0.069330
O4	O	0.367174	-0.950746	-0.069339
O5	O	0.072756	-0.934602	0.069528
O6	O	0.222864	-0.825435	0.069511
O7	O	0.225292	-1.053901	0.069536
Zn8	Zn	0.225384	-0.938714	0.091570
Zn9	Zn	0.214546	-0.946634	-0.091381
O10	O	0.375400	-0.944734	0.069519
C11	C	0.215629	-0.798996	0.000079
C12	C	0.206315	-0.711256	0.000070
C13	C	0.029738	-0.934185	0.000098
C14	C	-0.086184	-0.923977	0.000096
N15	N	0.232780	-0.933314	0.216430
C16	C	-0.316977	-1.046699	0.000092
C17	C	-0.425897	-1.037111	0.000089
C18	C	-0.412948	-0.895215	0.000082
C19	C	-0.304027	-0.904802	0.000085
C20	C	-0.256046	-0.980547	0.000091
C21	C	-0.147123	-0.990134	0.000099
C22	C	-0.134176	-0.848238	0.000086
C23	C	-0.243097	-0.838650	0.000084
C24	C	0.410191	-0.951163	0.000089
C25	C	0.526114	-0.961371	0.000086
C26	C	0.224300	-1.086353	0.000108
C27	C	0.233614	-1.174092	0.000112
C28	C	0.296178	-0.667730	0.000068
C29	C	0.287422	-0.585288	0.000079
C30	C	0.188801	-0.546375	0.000087
C31	C	0.098931	-0.589907	0.000092
C32	C	0.107689	-0.672346	0.000086
C33	C	0.152502	-0.300064	0.000111
C34	C	0.143751	-0.217618	0.000114
C35	C	0.332243	-0.213006	0.000103
C36	C	0.340992	-0.295447	0.000092
C37	C	0.251122	-0.338972	0.000101
N38	N	0.179847	-0.462107	0.000097
N39	N	0.260077	-0.423238	0.000098
N40	N	0.207141	-0.952040	-0.216241
C41	C	0.168935	-0.979785	0.260131
C42	C	0.174120	-0.976016	0.347537
C43	C	0.243156	-0.925779	0.391240
C44	C	0.307004	-0.879303	0.347533
C45	C	0.301813	-0.883068	0.260129
C46	C	0.265799	-0.909329	0.652647
C47	C	0.270987	-0.905569	0.740058
C48	C	0.138101	-1.002281	0.740056
C49	C	0.132921	-1.006046	0.652650
C50	C	0.196765	-0.959566	0.608950
N51	N	0.248459	-0.921927	0.480584
N52	N	0.191455	-0.963414	0.519608
H53	H	-0.108058	-1.051809	0.000107
Cl54	Cl	0.019762	-0.168699	0.000143
Cl55	Cl	0.057840	-1.060706	0.794996
Cl56	Cl	0.464977	-0.344361	0.000077
H57	H	0.034512	-0.707785	0.000087
Cl58	Cl	0.400398	-0.530573	0.000072
H59	H	-0.277909	-1.108373	0.000104
Cl60	Cl	0.082147	-1.042947	0.205198
H61	H	0.363211	-0.838395	0.383121
H62	H	-0.475503	-1.090979	0.000087
H63	H	0.317785	-0.871485	0.617074
H64	H	0.018632	-0.558216	0.000110
Cl65	Cl	-0.473287	-0.800002	0.000050
H66	H	0.327208	-0.864658	0.775638
Cl67	Cl	-0.303427	-0.743434	0.000070
H68	H	0.353801	-0.845226	0.224548
H69	H	-0.084554	-0.794372	0.000092
H70	H	0.376486	-0.699407	0.000061
H71	H	0.405409	-0.177559	0.000097
H72	H	0.122131	-1.013856	0.383118
Cl73	Cl	0.046133	-1.069202	0.597708
Cl74	Cl	0.039522	-0.354770	0.000121
