data_functionalizedCrystal
_audit_creation_method	'MofGen! by Chris Wilmer'
_symmetry_space_group_name_H-M	'P1'
_symmetry_Int_Tables_number	1
_symmetry_cell_setting	triclinic
loop_
_symmetry_equiv_pos_as_xyz
  x,y,z
_cell_length_a	18.215407
_cell_length_b	19.077068
_cell_length_c	18.215399
_cell_angle_alpha	92.268164
_cell_angle_beta	89.980167
_cell_angle_gamma	92.327501
loop_
_atom_site_label
_atom_site_type_symbol
_atom_site_fract_x
_atom_site_fract_y
_atom_site_fract_z
Zn1	Zn	1.113288	-0.280200	-0.427869
Zn2	Zn	1.613288	0.219800	0.072131
Zn3	Zn	1.108246	-0.397902	-0.309739
Zn4	Zn	1.608246	0.102098	0.190261
Zn5	Zn	0.990220	-0.280223	-0.304817
Zn6	Zn	1.490220	0.219777	0.195183
Zn7	Zn	0.985238	-0.397863	-0.432763
Zn8	Zn	1.485238	0.102137	0.067237
O9	O	1.049248	-0.339047	-0.368797
O10	O	1.549248	0.160953	0.131203
O11	O	1.215603	-0.295821	-0.412210
O12	O	1.715603	0.204179	0.087790
O13	O	1.092565	-0.382318	-0.206103
O14	O	1.592565	0.117682	0.293897
O15	O	1.010740	-0.181729	-0.317032
O16	O	1.510740	0.318271	0.182968
O17	O	1.211899	-0.382295	-0.325421
O18	O	1.711899	0.117705	0.174579
O19	O	1.101157	-0.181712	-0.407437
O20	O	1.601157	0.318288	0.092563
O21	O	1.005851	-0.295860	-0.202487
O22	O	1.505851	0.204140	0.297513
O23	O	0.886575	-0.295822	-0.321777
O24	O	1.386575	0.204178	0.178223
O25	O	1.002249	-0.382229	-0.535097
O26	O	1.502249	0.117771	-0.035097
O27	O	0.882915	-0.382251	-0.415778
O28	O	1.382915	0.117749	0.084222
O29	O	1.096327	-0.295783	-0.531501
O30	O	1.596327	0.204217	-0.031501
O31	O	1.087734	-0.496388	-0.330167
O32	O	1.587734	0.003612	0.169833
O33	O	0.997361	-0.496359	-0.420551
O34	O	1.497361	0.003641	0.079449
C35	C	0.858042	-0.339035	-0.368775
C36	C	1.358042	0.160965	0.131225
C37	C	0.776243	-0.339047	-0.368784
C38	C	1.276243	0.160953	0.131216
C39	C	0.586159	-0.384121	-0.417674
C40	C	1.086159	0.115879	0.082326
C41	C	0.509301	-0.384124	-0.417684
C42	C	1.009301	0.115876	0.082316
C43	C	0.513088	-0.293986	-0.319936
C44	C	1.013088	0.206014	0.180064
C45	C	0.589945	-0.293980	-0.319931
C46	C	1.089945	0.206020	0.180069
C47	C	0.626479	-0.339052	-0.368799
C48	C	1.126479	0.160948	0.131201
C49	C	0.472763	-0.339060	-0.368814
C50	C	0.972763	0.160940	0.131186
C51	C	0.389429	-0.339062	-0.368823
C52	C	0.889429	0.160938	0.131177
C53	C	0.709818	-0.339050	-0.368791
C54	C	1.209818	0.160950	0.131209
C55	C	1.041480	-0.521911	-0.376440
C56	C	1.541480	-0.021911	0.123560
C57	C	1.038224	-0.600141	-0.379735
C58	C	1.538224	-0.100141	0.120265
C59	C	1.083783	-0.636886	-0.334263
C60	C	1.583783	-0.136886	0.165737
C61	C	1.080725	-0.710391	-0.337366
C62	C	1.580725	-0.210391	0.162634
C63	C	1.032104	-0.747151	-0.385937
C64	C	1.532104	-0.247151	0.114063
C65	C	0.986542	-0.710401	-0.431414
C66	C	1.486542	-0.210401	0.068586
C67	C	0.989604	-0.636897	-0.428314
C68	C	1.489604	-0.136897	0.071686
C69	C	1.017899	-0.966985	-0.400254
C70	C	1.517899	-0.466985	0.099746
C71	C	1.014839	-1.040495	-0.403348
C72	C	1.514839	-0.540495	0.096652
C73	C	1.109023	-1.040479	-0.309301
C74	C	1.609023	-0.540479	0.190699
C75	C	1.112078	-0.966974	-0.306202
C76	C	1.612078	-0.466974	0.193798
C77	C	1.066520	-0.930231	-0.351682
C78	C	1.566520	-0.430231	0.148318
N79	N	1.028975	-0.822285	-0.389109
N80	N	1.528975	-0.322285	0.110891
N81	N	1.069652	-0.855098	-0.348514
N82	N	1.569652	-0.355098	0.151486
C83	C	1.241200	-0.339060	-0.368819
C84	C	1.741200	0.160940	0.131181
C85	C	1.322999	-0.339065	-0.368828
C86	C	1.822999	0.160935	0.131172
C87	C	1.049295	-0.338999	-0.560748
C88	C	1.549295	0.161001	-0.060748
C89	C	1.049315	-0.338978	-0.642546
C90	C	1.549315	0.161022	-0.142546
C91	C	1.057067	-0.155469	-0.361140
C92	C	1.557067	0.344531	0.138860
C93	C	1.060398	-0.077239	-0.357877
C94	C	1.560398	0.422761	0.142123
C95	C	1.098320	-0.293923	-0.828867
C96	C	1.598320	0.206077	-0.328867
C97	C	1.098329	-0.293903	-0.905725
C98	C	1.598329	0.206097	-0.405725
C99	C	1.000366	-0.383924	-0.909458
C100	C	1.500366	0.116076	-0.409458
C101	C	1.000354	-0.383940	-0.832601
C102	C	1.500354	0.116060	-0.332601
C103	C	1.049335	-0.338941	-0.792308
C104	C	1.549335	0.161059	-0.292308
C105	C	1.049357	-0.338904	-0.946023
C106	C	1.549357	0.161096	-0.446023
C107	C	1.049367	-0.338882	-1.029355
C108	C	1.549367	0.161118	-0.529355
C109	C	1.049324	-0.338962	-0.708970
C110	C	1.549324	0.161038	-0.208970
C111	C	1.049246	-0.339045	-0.177591
C112	C	1.549246	0.160955	0.322409
C113	C	1.049377	-0.338867	-0.095785
C114	C	1.549377	0.161133	0.404215
H115	H	1.123373	-0.606961	-0.294708
H116	H	1.623373	-0.106961	0.205292
O117	O	0.945313	-0.601126	-0.472380
O118	O	1.445313	-0.101126	0.027620
C119	C	0.899559	-0.558685	-0.428652
C120	C	1.399559	-0.058685	0.071348
H121	H	0.926002	-0.547687	-0.372440
H122	H	1.426002	-0.047687	0.127560
H123	H	0.891835	-0.506986	-0.456442
H124	H	1.391835	-0.006986	0.043558
H125	H	0.843843	-0.587060	-0.421713
H126	H	1.343843	-0.087060	0.078287
O127	O	1.145964	-0.250308	-0.789695
O128	O	1.645964	0.249692	-0.289695
C129	C	1.191775	-0.290383	-0.746901
C130	C	1.691775	0.209617	-0.246901
H131	H	1.193973	-0.345811	-0.772372
H132	H	1.693973	0.154189	-0.272372
H133	H	1.249491	-0.264923	-0.744977
H134	H	1.749491	0.235077	-0.244977
H135	H	1.168907	-0.292820	-0.688750
H136	H	1.668907	0.207180	-0.188750
H137	H	0.622775	-0.257275	-0.280130
H138	H	1.122775	0.242725	0.219870
O139	O	0.470217	-0.427871	-0.465260
O140	O	0.970217	0.072129	0.034740
C141	C	0.489667	-0.412567	-0.537994
C142	C	0.989667	0.087433	-0.037994
H143	H	0.546620	-0.385510	-0.538428
H144	H	1.046620	0.114490	-0.038428
H145	H	0.490154	-0.463403	-0.573030
H146	H	0.990154	0.036597	-0.073030
H147	H	0.447957	-0.376415	-0.561337
H148	H	0.947957	0.123585	-0.061337
O149	O	0.952842	-0.427775	-0.797120
O150	O	1.452842	0.072225	-0.297120
C151	C	0.965931	-0.497920	-0.818836
C152	C	1.465931	0.002080	-0.318836
H153	H	1.024574	-0.501472	-0.840126
H154	H	1.524574	-0.001472	-0.340126
H155	H	0.958106	-0.532699	-0.769737
H156	H	1.458106	-0.032699	-0.269737
H157	H	0.925697	-0.516309	-0.864205
H158	H	1.425697	-0.016309	-0.364205
O159	O	0.621734	-0.427799	-0.465180
O160	O	1.121734	0.072201	0.034820
C161	C	0.667896	-0.387779	-0.511115
C162	C	1.167896	0.112221	-0.011115
H163	H	0.681665	-0.334411	-0.483014
H164	H	1.181665	0.165589	0.016986
H165	H	0.720728	-0.416456	-0.522127
H166	H	1.220728	0.083544	-0.022127
H167	H	0.638622	-0.380110	-0.565345
H168	H	1.138622	0.119890	-0.065345
H169	H	1.151670	-0.937045	-0.266652
H170	H	1.651670	-0.437045	0.233348
O171	O	0.477481	-0.250273	-0.272493
O172	O	0.977481	0.249727	0.227507
C173	C	0.400999	-0.259928	-0.282989
C174	C	0.900999	0.240072	0.217011
H175	H	0.388204	-0.314275	-0.309269
H176	H	0.888204	0.185725	0.190731
H177	H	0.371971	-0.255085	-0.227673
H178	H	0.871971	0.244915	0.272327
H179	H	0.380975	-0.218231	-0.320511
H180	H	0.880975	0.281769	0.179489
O181	O	1.125008	-0.745975	-0.293118
O182	O	1.625008	-0.245975	0.206882
C183	C	1.168588	-0.697768	-0.249593
C184	C	1.668588	-0.197768	0.250407
H185	H	1.140625	-0.645399	-0.244810
H186	H	1.640625	-0.145399	0.255190
H187	H	1.175582	-0.719039	-0.192513
H188	H	1.675582	-0.219039	0.307487
H189	H	1.224795	-0.689887	-0.276258
H190	H	1.724795	-0.189887	0.223742
O191	O	1.145986	-0.250152	-0.941124
O192	O	1.645986	0.249848	-0.441124
C193	C	1.189198	-0.210428	-0.889075
C194	C	1.689198	0.289572	-0.389075
H195	H	1.190510	-0.239270	-0.835492
H196	H	1.690510	0.260730	-0.335492
H197	H	1.247504	-0.202917	-0.910980
H198	H	1.747504	0.297083	-0.410980
H199	H	1.164523	-0.156974	-0.878666
H200	H	1.664523	0.343026	-0.378666
H201	H	0.975254	-1.070422	-0.442914
H202	H	1.475254	-0.570422	0.057086
O203	O	1.153257	-1.076281	-0.265209
O204	O	1.653257	-0.576281	0.234791
C205	C	1.140121	-1.149040	-0.278346
C206	C	1.640121	-0.649040	0.221654
H207	H	1.115560	-1.159060	-0.335537
H208	H	1.615560	-0.659060	0.164463
H209	H	1.194090	-1.176931	-0.274591
H210	H	1.694090	-0.676931	0.225409
H211	H	1.100094	-1.169963	-0.235534
H212	H	1.600094	-0.669963	0.264466
O213	O	0.973560	-0.931408	-0.444448
O214	O	1.473560	-0.431408	0.055552
C215	C	0.929998	-0.979618	-0.487987
C216	C	1.429998	-0.479618	0.012013
H217	H	0.925295	-1.032037	-0.460051
H218	H	1.425295	-0.532037	0.039949
H219	H	0.872889	-0.958427	-0.494880
H220	H	1.372889	-0.458427	0.005120
H221	H	0.956583	-0.987375	-0.544237
H222	H	1.456583	-0.487375	-0.044237
H223	H	0.960490	-0.420562	-0.942274
H224	H	1.460490	0.079438	-0.442274
H225	H	0.946956	-0.740337	-0.470965
H226	H	1.446956	-0.240337	0.029035
