data_functionalizedCrystal
_audit_creation_method	'MofGen! by Chris Wilmer'
_symmetry_space_group_name_H-M	'P1'
_symmetry_Int_Tables_number	1
_symmetry_cell_setting	triclinic
loop_
_symmetry_equiv_pos_as_xyz
  x,y,z
_cell_length_a	14.908783
_cell_length_b	14.908178
_cell_length_c	14.908308
_cell_angle_alpha	90.221621
_cell_angle_beta	90.211273
_cell_angle_gamma	96.402596
loop_
_atom_site_label
_atom_site_type_symbol
_atom_site_fract_x
_atom_site_fract_y
_atom_site_fract_z
Zn1	Zn	1.328235	-0.315439	0.568627
Zn2	Zn	1.329145	-0.457100	0.409643
Zn3	Zn	1.186601	-0.314463	0.409657
Zn4	Zn	1.169235	-0.474370	0.550213
O5	O	1.253304	-0.390343	0.484535
O6	O	1.454552	-0.327412	0.555237
O7	O	1.317884	-0.430543	0.284287
O8	O	1.212275	-0.188386	0.438457
O9	O	1.455221	-0.431489	0.438433
O10	O	1.316333	-0.189103	0.555251
O11	O	1.213158	-0.325749	0.284297
O12	O	1.058100	-0.342494	0.420603
O13	O	1.182678	-0.460923	0.678014
O14	O	1.045342	-0.459977	0.523868
O15	O	1.299495	-0.344158	0.691543
O16	O	1.301046	-0.585597	0.420578
O17	O	1.183561	-0.598285	0.523854
C18	C	1.018999	-0.403004	0.470239
C19	C	0.918760	-0.408444	0.464144
C20	C	0.729683	-0.310458	0.574483
C21	C	0.635500	-0.315566	0.568758
C22	C	0.636209	-0.423762	0.446966
C23	C	0.730392	-0.418654	0.452691
C24	C	0.777126	-0.362001	0.516452
C25	C	0.871311	-0.356899	0.522180
C26	C	0.872019	-0.465090	0.400385
C27	C	0.777835	-0.470197	0.394660
C28	C	1.240541	-0.624665	0.470237
C29	C	1.235162	-0.724907	0.464156
C30	C	1.333314	-0.913880	0.574463
C31	C	1.328262	-1.008065	0.568752
C32	C	1.220003	-1.007466	0.447028
C33	C	1.225054	-0.913280	0.452739
C34	C	1.281713	-0.866490	0.516458
C35	C	1.286768	-0.772302	0.522164
C36	C	1.178505	-0.771705	0.400444
C37	C	1.173453	-0.865891	0.394733
C38	C	1.488523	-0.377633	0.498887
C39	C	1.588759	-0.372217	0.505003
C40	C	1.239048	-0.404576	0.718191
C41	C	1.232973	-0.410641	0.817762
C42	C	1.266140	-0.155106	0.498910
C43	C	1.271610	-0.054862	0.505035
C44	C	1.267560	-0.376098	0.251795
C45	C	1.273823	-0.369770	0.152251
C46	C	1.343196	-0.300429	1.018955
C47	C	1.337491	-0.306124	1.112510
C48	C	1.215854	-0.427722	1.098430
C49	C	1.221559	-0.422026	1.004875
C50	C	1.285233	-0.358379	0.965140
C51	C	1.290942	-0.352688	0.871583
C52	C	1.169301	-0.474281	0.857505
C53	C	1.163596	-0.479976	0.951060
H54	H	0.739772	-0.516320	0.342745
O55	O	1.128346	-0.725806	0.343997
C56	C	1.020402	-0.735158	0.222689
C57	C	1.077165	-0.787249	0.286548
H58	H	0.978994	-0.784814	0.176238
H59	H	1.067033	-0.685981	0.181024
H60	H	0.973107	-0.696112	0.263582
H61	H	1.124466	-0.826348	0.245726
H62	H	1.030481	-0.836373	0.328216
O63	O	1.118497	-0.911482	0.332864
C64	C	1.062697	-1.056318	0.270151
C65	C	1.124985	-1.004801	0.340249
H66	H	1.067908	-1.131776	0.276111
H67	H	1.084001	-1.032623	0.200000
H68	H	0.990013	-1.042691	0.282488
H69	H	1.197687	-1.018404	0.327996
H70	H	1.103605	-1.028504	0.410376
O71	O	1.153878	-0.489450	1.136989
C72	C	0.996344	-0.543291	1.153529
C73	C	1.066438	-0.473318	1.109825
H74	H	0.925635	-0.530285	1.131569
H75	H	1.002138	-0.537408	1.229647
H76	H	1.009382	-0.614032	1.131678
H77	H	1.053446	-0.402546	1.131605
H78	H	1.060628	-0.479281	1.033714
H79	H	1.342790	-0.300864	0.839233
H80	H	1.384689	-0.258933	1.156323
O81	O	0.589549	-0.265469	0.625227
C82	C	0.598793	-0.157575	0.746597
C83	C	0.650942	-0.214279	0.682715
H84	H	0.648408	-0.116159	0.793080
H85	H	0.549625	-0.204251	0.788229
H86	H	0.559734	-0.110286	0.705726
H87	H	0.690053	-0.261574	0.723516
H88	H	0.700056	-0.167550	0.641081
O89	O	0.590890	-0.478909	0.385076
C90	C	0.556319	-0.631158	0.330275
C91	C	0.607708	-0.568805	0.400405
H92	H	0.569882	-0.703854	0.342656
H93	H	0.580104	-0.609886	0.260144
H94	H	0.480864	-0.625897	0.336145
H95	H	0.683172	-0.574035	0.394618
H96	H	0.583848	-0.590096	0.470507
O97	O	1.341693	-0.726901	0.584180
C98	C	1.377605	-0.704945	0.741015
C99	C	1.315328	-0.756408	0.670874
H100	H	1.356324	-0.728795	0.811122
H101	H	1.372345	-0.629481	0.735213
H102	H	1.450301	-0.718502	0.728627
H103	H	1.242606	-0.742926	0.683217
H104	H	1.320665	-0.831856	0.676693
O105	O	1.405074	-0.238531	0.980497
C106	C	1.525166	-0.118570	1.004332
C107	C	1.455116	-0.188613	1.048000
H108	H	1.565657	-0.078205	1.058888
H109	H	1.489052	-0.070921	0.960917
H110	H	1.572691	-0.154780	0.960850
H111	H	1.407571	-0.152479	1.091525
H112	H	1.491289	-0.236258	1.091362
O113	O	1.101792	-0.541918	0.989560
C114	C	1.047951	-0.699445	1.006194
C115	C	1.117983	-0.629387	0.962521
H116	H	1.061029	-0.770180	0.984365
H117	H	0.977200	-0.686500	0.984308
H118	H	1.053816	-0.693514	1.082302
H119	H	1.112201	-0.635277	0.886409
H120	H	1.188706	-0.642353	0.984480
H121	H	0.910656	-0.507067	0.353138
O122	O	1.388363	-0.868566	0.636433
C123	C	1.495250	-0.879092	0.756528
C124	C	1.432930	-0.930522	0.686400
H125	H	1.531314	-0.929159	0.796933
H126	H	1.453350	-0.840136	0.803539
H127	H	1.547275	-0.829890	0.720981
H128	H	1.380894	-0.979769	0.721872
H129	H	1.474890	-0.969417	0.639394
H130	H	1.370276	-1.046647	0.615990
O131	O	1.164915	-1.053039	0.385253
C132	C	1.038177	-1.165311	0.359223
C133	C	1.100509	-1.113778	0.429277
H134	H	0.986078	-1.214416	0.394791
H135	H	1.080066	-1.204363	0.312291
H136	H	1.002204	-1.115248	0.318721
H137	H	1.136495	-1.163778	0.469843
H138	H	1.058573	-1.074711	0.476148
O139	O	0.916574	-0.301794	0.584141
C140	C	0.905921	-0.195057	0.704372
C141	C	0.854554	-0.257413	0.634229
H142	H	0.855799	-0.159173	0.744900
H143	H	0.955056	-0.142890	0.668925
H144	H	0.944941	-0.237002	0.751262
H145	H	0.815482	-0.215543	0.587319
H146	H	0.805473	-0.309583	0.669735
O147	O	1.113033	-0.530484	0.805097
C148	C	1.067958	-0.575648	0.654730
C149	C	1.131715	-0.511929	0.713975
H150	H	1.083052	-0.560682	0.581047
H151	H	0.994965	-0.564862	0.669585
H152	H	1.078699	-0.648626	0.669709
H153	H	1.121055	-0.438927	0.699031
H154	H	1.204685	-0.522793	0.699110
H155	H	0.767734	-0.264333	0.626403
