data_functionalizedCrystal
_audit_creation_method	'MofGen! by Chris Wilmer'
_symmetry_space_group_name_H-M	'P1'
_symmetry_Int_Tables_number	1
_symmetry_cell_setting	triclinic
loop_
_symmetry_equiv_pos_as_xyz
  x,y,z
_cell_length_a	10.723024
_cell_length_b	10.723024
_cell_length_c	9.798715
_cell_angle_alpha	90.002842
_cell_angle_beta	89.996846
_cell_angle_gamma	95.532131
loop_
_atom_site_label
_atom_site_type_symbol
_atom_site_fract_x
_atom_site_fract_y
_atom_site_fract_z
O1	O	1.657187	-0.175025	-0.113481
O2	O	1.294034	-0.191778	-0.113485
O3	O	1.483987	-0.001825	-0.113475
O4	O	1.467234	-0.364978	-0.113490
O5	O	1.483974	-0.001824	0.113507
O6	O	1.294021	-0.191777	0.113497
O7	O	1.657174	-0.175023	0.113502
Zn8	Zn	1.475595	-0.183400	0.149538
Zn9	Zn	1.475613	-0.183402	-0.149521
O10	O	1.467221	-0.364976	0.113492
C11	C	1.247528	-0.190558	0.000006
C12	C	1.108974	-0.186911	0.000004
C13	C	1.033991	-0.293198	-0.000001
C14	C	0.890788	-0.289431	-0.000003
C15	C	1.482762	0.044675	0.000015
C16	C	1.479114	0.183229	0.000011
C17	C	1.585401	0.258212	0.000012
C18	C	1.581634	0.401415	0.000008
C19	C	1.703680	-0.176243	0.000008
C20	C	1.842234	-0.179891	0.000001
N21	N	1.475592	-0.183398	0.353637
C22	C	1.468447	0.588523	0.000002
C23	C	1.472094	0.449969	0.000005
N24	N	1.475625	-0.183394	-0.353621
C25	C	1.555546	-0.103469	0.578573
C26	C	1.555529	-0.103471	0.421410
H27	H	1.067152	-0.093125	-0.000027
H28	H	0.826355	-0.380421	-0.000013
C29	C	1.647967	-0.011024	0.342654
H30	H	1.698114	0.039127	0.405562
H31	H	1.700253	-0.056419	0.286895
H32	H	1.602555	0.041276	0.286929
C33	C	0.929255	-0.056957	-0.000000
H34	H	0.880215	0.012255	-0.000009
H35	H	0.980617	-0.053633	0.079150
H36	H	0.980613	-0.053643	-0.079168
C37	C	1.090471	-0.419903	-0.000010
H38	H	1.024857	-0.486098	-0.000005
H39	H	1.140698	-0.425893	-0.079162
H40	H	1.140684	-0.425895	0.079156
H41	H	1.381099	0.385544	0.000014
C42	C	1.712103	0.201726	0.000017
H43	H	1.698013	0.112887	0.000029
H44	H	1.758238	0.228713	-0.079133
H45	H	1.758219	0.228720	0.079184
C46	C	1.383132	-0.275829	0.432385
H47	H	1.332969	-0.325963	0.369477
H48	H	1.428515	-0.328129	0.488129
H49	H	1.330846	-0.230405	0.488125
C50	C	1.704559	0.488449	0.000001
H51	H	1.685901	0.573279	-0.000012
H52	H	1.751808	0.472894	0.079151
H53	H	1.751801	0.472880	-0.079166
C54	C	1.352409	0.239708	0.000001
H55	H	1.286214	0.174095	-0.000009
H56	H	1.346409	0.289939	0.079149
H57	H	1.346427	0.289919	-0.079168
C58	C	1.647998	-0.011024	0.657319
H59	H	1.635875	-0.023145	0.752620
H60	H	1.731421	-0.025287	0.633953
H61	H	1.633718	0.072404	0.633977
H62	H	1.407194	-0.251827	0.588080
