data_functionalizedCrystal
_audit_creation_method	'MofGen! by Chris Wilmer'
_symmetry_space_group_name_H-M	'P1'
_symmetry_Int_Tables_number	1
_symmetry_cell_setting	triclinic
loop_
_symmetry_equiv_pos_as_xyz
  x,y,z
_cell_length_a	10.489741
_cell_length_b	15.995350
_cell_length_c	14.472310
_cell_angle_alpha	90.001162
_cell_angle_beta	89.989630
_cell_angle_gamma	84.015774
loop_
_atom_site_label
_atom_site_type_symbol
_atom_site_fract_x
_atom_site_fract_y
_atom_site_fract_z
O1	O	1.692417	0.118125	-0.076779
O2	O	1.321067	0.129214	-0.076793
O3	O	1.516893	0.001843	-0.076785
O4	O	1.496591	0.245496	-0.076787
O5	O	1.516843	0.001850	0.076897
O6	O	1.321016	0.129221	0.076889
O7	O	1.692367	0.118132	0.076903
Cu8	Cu	1.506687	0.123677	0.090929
Cu9	Cu	1.506747	0.123669	-0.090818
O10	O	1.496540	0.245503	0.076895
C11	C	1.516029	-0.029353	0.000055
C12	C	1.513512	-0.122319	0.000049
C13	C	1.273521	0.128380	0.000046
C14	C	1.131927	0.125874	0.000041
C15	C	1.504476	-0.460121	0.000052
C16	C	1.365012	-0.413528	-0.000298
C17	C	1.367528	-0.316822	0.000049
C18	C	1.508958	-0.292533	0.000050
C19	C	1.577718	-0.333192	0.087811
C20	C	1.574214	-0.429849	0.087885
C21	C	1.577153	-0.430197	-0.086881
C22	C	1.577120	-0.333252	-0.088040
C23	C	1.511499	-0.197820	0.000052
C24	C	1.501939	-0.554834	0.000056
C25	C	1.064921	0.044832	0.000051
C26	C	0.972283	0.083112	-0.075721
C27	C	0.972267	0.083138	0.075797
C28	C	1.041154	0.164188	-0.075793
C29	C	1.041148	0.164203	0.075793
C30	C	0.948537	0.202542	0.000003
C31	C	1.739912	0.118966	0.000062
C32	C	1.881507	0.121472	0.000061
C33	C	1.497405	0.276699	0.000054
C34	C	1.499921	0.369665	0.000053
N35	N	1.506654	0.123683	0.218760
N36	N	1.506789	0.123657	-0.218649
C37	C	1.506745	0.123666	0.592851
C38	C	1.401611	0.191586	0.553681
C39	C	1.401853	0.191838	0.446592
C40	C	1.506699	0.123674	0.407260
C41	C	1.639784	0.143558	0.446102
C42	C	1.639193	0.144042	0.553223
C43	C	1.479981	0.035665	0.553380
C44	C	1.476929	0.036232	0.446252
C45	C	1.506681	0.123677	0.302372
C46	C	1.506771	0.123664	0.697739
H47	H	1.313477	-0.288729	-0.062862
H48	H	1.676606	-0.461479	0.091867
O49	O	1.562181	-0.027014	0.414214
C50	C	1.496269	-0.085023	0.364626
H51	H	1.400793	-0.052613	0.339153
H52	H	1.556567	-0.109643	0.302954
H53	H	1.478150	-0.139718	0.411669
O54	O	1.077428	0.205193	0.152190
C55	C	1.015816	0.287857	0.152839
H56	H	0.925071	0.290724	0.109123
H57	H	0.989550	0.307080	0.226839
H58	H	1.083002	0.332610	0.123080
H59	H	1.379030	0.021160	0.420866
O60	O	0.936028	0.042109	0.152194
C61	C	0.995853	-0.041021	0.151889
H62	H	1.086067	-0.044495	0.107530
H63	H	1.022719	-0.060930	0.225579
H64	H	0.927151	-0.084857	0.122311
H65	H	1.681621	-0.318439	0.091076
O66	O	1.571364	-0.024750	0.583486
C67	C	1.546404	-0.103394	0.547697
H68	H	1.485587	-0.093506	0.482570
H69	H	1.640845	-0.142005	0.530158
H70	H	1.492598	-0.138264	0.601422
O71	O	1.302752	-0.283872	0.075259
C72	C	1.385982	-0.241779	0.130948
H73	H	1.468618	-0.222969	0.087058
H74	H	1.331170	-0.183082	0.161865
H75	H	1.425460	-0.285246	0.188953
H76	H	1.309290	-0.432398	-0.063233
H77	H	1.115543	-0.021790	-0.000044
O78	O	1.077238	0.204974	-0.152403
C79	C	1.041373	0.162409	-0.232069
H80	H	0.959302	0.123758	-0.214412
H81	H	1.009017	0.210131	-0.288019
H82	H	1.126796	0.118920	-0.258197
O83	O	0.888507	0.282117	-0.000206
C84	C	0.923651	0.324520	-0.080191
H85	H	0.956932	0.276647	-0.135779
H86	H	0.837570	0.367208	-0.106635
H87	H	1.004865	0.363993	-0.062840
O88	O	1.283108	0.177637	0.584320
C89	C	1.191153	0.239542	0.548022
H90	H	1.230278	0.266975	0.482428
H91	H	1.099598	0.210028	0.531125
H92	H	1.169223	0.291680	0.601158
H93	H	1.529919	-0.305095	0.153119
H94	H	1.302928	0.179872	0.420333
O95	O	1.421931	0.268982	0.585824
C96	C	1.530717	0.262013	0.643613
H97	H	1.594828	0.202235	0.625701
H98	H	1.586170	0.318884	0.633034
H99	H	1.499123	0.259285	0.718833
O100	O	1.422175	0.269685	0.415846
C101	C	1.422505	0.270216	0.318425
H102	H	1.367132	0.217525	0.291689
H103	H	1.375133	0.333242	0.292504
H104	H	1.525513	0.260310	0.292306
O105	O	1.298978	-0.437351	0.074432
C106	C	1.378250	-0.495991	0.127012
H107	H	1.483052	-0.488154	0.112088
H108	H	1.357963	-0.484811	0.203656
H109	H	1.357837	-0.562424	0.107811
O110	O	0.935955	0.042069	-0.152074
C111	C	0.995821	-0.041050	-0.151820
H112	H	1.023512	-0.060312	-0.078083
H113	H	0.926816	-0.085149	-0.180438
H114	H	1.085540	-0.044902	-0.196732
H115	H	1.662778	0.208245	0.578199
H116	H	1.719870	0.096566	0.579132
O117	O	1.668823	0.219253	0.414147
C118	C	1.788608	0.236163	0.449705
H119	H	1.846661	0.174582	0.469670
H120	H	1.842776	0.269513	0.394897
H121	H	1.773251	0.278069	0.513299
O122	O	1.514541	-0.452105	0.166201
C123	C	1.599258	-0.507961	0.218152
H124	H	1.702322	-0.499170	0.198681
H125	H	1.584039	-0.494469	0.294934
H126	H	1.579919	-0.575407	0.202850
H127	H	1.719887	0.095438	0.420622
O128	O	1.366580	0.013205	0.585530
C129	C	1.266298	0.073745	0.558249
H130	H	1.297190	0.108785	0.494821
H131	H	1.177727	0.041162	0.540802
H132	H	1.242883	0.120239	0.617062
O133	O	1.522596	-0.455060	-0.166151
C134	C	1.417864	-0.499967	-0.144233
H135	H	1.381146	-0.481437	-0.072181
H136	H	1.337973	-0.484478	-0.196809
H137	H	1.449783	-0.570296	-0.145985
H138	H	1.680258	-0.317269	-0.093338
O139	O	1.517327	-0.300916	-0.165474
C140	C	1.522499	-0.213210	-0.167713
H141	H	1.606253	-0.196336	-0.123728
H142	H	1.536208	-0.192255	-0.242023
H143	H	1.429220	-0.180120	-0.139199
O144	O	1.699765	-0.467450	-0.087474
C145	C	1.719883	-0.520272	-0.009711
H146	H	1.623981	-0.539091	0.015575
H147	H	1.785139	-0.579035	-0.029478
H148	H	1.766799	-0.485407	0.047650
