data_functionalizedCrystal
_audit_creation_method	'MofGen! by Chris Wilmer'
_symmetry_space_group_name_H-M	'P1'
_symmetry_Int_Tables_number	1
_symmetry_cell_setting	triclinic
loop_
_symmetry_equiv_pos_as_xyz
  x,y,z
_cell_length_a	16.992694
_cell_length_b	23.532407
_cell_length_c	16.053802
_cell_angle_alpha	92.544672
_cell_angle_beta	87.249047
_cell_angle_gamma	86.758451
loop_
_atom_site_label
_atom_site_type_symbol
_atom_site_fract_x
_atom_site_fract_y
_atom_site_fract_z
O1	O	1.042772	0.118472	-0.069339
O2	O	0.814498	0.117146	-0.069363
O3	O	0.935518	0.035219	-0.069335
O4	O	0.921752	0.200399	-0.069367
O5	O	0.928857	0.039709	0.069523
O6	O	0.807837	0.121636	0.069494
O7	O	1.036111	0.122961	0.069519
Zn8	Zn	0.920917	0.123011	0.091553
Zn9	Zn	0.929693	0.117096	-0.091397
O10	O	0.915091	0.204888	0.069490
C11	C	0.781969	0.117687	0.000063
C12	C	0.694964	0.112604	0.000054
C13	C	0.931837	0.016231	0.000096
C14	C	0.930783	-0.047038	0.000102
C15	C	0.644342	0.161650	0.000045
C16	C	0.562592	0.156871	0.000058
C17	C	0.531466	0.103045	0.000073
C18	C	0.582095	0.053995	0.000084
C19	C	0.663843	0.058775	0.000078
C20	C	0.288022	0.083234	0.000099
C21	C	0.206267	0.078457	0.000103
C22	C	0.186770	0.181334	0.000078
C23	C	0.268521	0.186109	0.000066
C24	C	0.319142	0.137059	0.000082
N25	N	0.447905	0.098158	0.000083
N26	N	0.402702	0.141946	0.000078
C27	C	0.995791	-0.442917	0.000063
C28	C	0.994812	-0.502366	0.000057
O29	O	1.055075	-0.536121	0.000033
N30	N	0.922865	-0.528562	0.000050
C31	C	0.851893	-0.495307	0.000041
O32	O	0.790607	-0.523048	0.000033
C33	C	0.852873	-0.435859	0.000041
C34	C	0.924824	-0.409666	0.000057
C35	C	1.067736	-0.416723	0.000078
C36	C	1.068715	-0.357278	0.000086
C37	C	0.997748	-0.324027	0.000079
C38	C	0.925803	-0.350221	0.000065
C39	C	0.781902	-0.402605	0.000026
C40	C	0.782889	-0.343154	0.000026
C41	C	0.854840	-0.316960	0.000042
C42	C	0.855814	-0.257525	0.000066
N43	N	0.927761	-0.231328	0.000073
C44	C	0.998728	-0.264579	0.000080
C45	C	0.849841	-0.620151	0.000038
C46	C	0.848860	-0.679598	0.000044
C47	C	0.991779	-0.686653	0.000058
C48	C	0.992759	-0.627205	0.000059
C49	C	0.921788	-0.593955	0.000045
C50	C	1.000777	-0.139740	0.000097
C51	C	1.001749	-0.080289	0.000109
C52	C	0.858831	-0.073240	0.000090
C53	C	0.857858	-0.132685	0.000083
C54	C	0.928838	-0.165934	0.000084
O55	O	0.795583	-0.223734	0.000087
O56	O	1.060004	-0.236831	0.000076
C57	C	1.068641	0.122420	0.000091
C58	C	1.155645	0.127503	0.000094
C59	C	0.918773	0.223877	0.000058
C60	C	0.919827	0.287146	0.000046
N61	N	0.914933	0.127048	0.216412
N62	N	0.935683	0.113055	-0.216256
C63	C	0.966445	0.092202	0.260118
C64	C	0.962267	0.095032	0.347524
C65	C	0.906579	0.132711	0.391222
C66	C	0.855061	0.167558	0.347510
C67	C	0.859236	0.164725	0.260106
C68	C	0.888340	0.145069	0.652627
C69	C	0.884170	0.147901	0.740038
C70	C	0.991376	0.075374	0.740045
C71	C	0.995550	0.072546	0.652640
C72	C	0.944029	0.107392	0.608935
N73	N	0.902308	0.135606	0.480565
N74	N	0.948296	0.104494	0.519594
H75	H	0.669678	0.205481	0.000032
Cl76	Cl	0.760610	-0.578356	0.000031
Cl77	Cl	1.092209	-0.047365	0.000127
Cl78	Cl	1.036461	0.044835	0.205192
H79	H	0.329228	0.043294	0.000113
H80	H	1.127305	-0.335957	0.000095
Cl81	Cl	0.727483	-0.002886	0.000093
Cl82	Cl	1.056138	0.031568	0.794992
H83	H	0.846391	0.173443	0.617050
Cl84	Cl	0.307645	0.253778	0.000042
H85	H	0.838820	0.178586	0.775613
Cl86	Cl	0.767404	-0.165615	0.000079
H87	H	0.521379	0.196809	0.000049
Cl88	Cl	1.027026	0.051224	0.402470
Cl89	Cl	0.794471	0.208532	0.205162
H90	H	0.145546	0.221267	0.000067
H91	H	0.180928	0.034624	0.000115
H92	H	0.556745	0.010169	0.000109
H93	H	1.058576	-0.166805	0.000095
Cl94	Cl	1.156964	-0.458514	0.000088
Cl95	Cl	1.065559	0.025179	0.597704
H96	H	0.801051	-0.046156	0.000087
H97	H	0.725094	-0.316084	0.000014
H98	H	1.051348	-0.605882	0.000071
H99	H	0.809714	0.198235	0.383094
H100	H	1.049564	-0.713737	0.000061
Cl101	Cl	0.758403	-0.712519	0.000040
H102	H	0.723313	-0.423922	0.000008
