data_functionalizedCrystal
_audit_creation_method	'MofGen! by Chris Wilmer'
_symmetry_space_group_name_H-M	'P1'
_symmetry_Int_Tables_number	1
_symmetry_cell_setting	triclinic
loop_
_symmetry_equiv_pos_as_xyz
  x,y,z
_cell_length_a	17.038278
_cell_length_b	17.019294
_cell_length_c	12.996460
_cell_angle_alpha	86.114884
_cell_angle_beta	89.994454
_cell_angle_gamma	87.243447
loop_
_atom_site_label
_atom_site_type_symbol
_atom_site_fract_x
_atom_site_fract_y
_atom_site_fract_z
O1	O	1.037222	0.171279	-0.100748
O2	O	1.537222	0.671279	0.399252
O3	O	0.809593	0.168561	-0.100508
O4	O	1.309593	0.668561	0.399492
O5	O	0.929757	0.055513	-0.090486
O6	O	1.429757	0.555513	0.409514
O7	O	0.917058	0.284327	-0.110770
O8	O	1.417058	0.784327	0.389230
O9	O	0.929745	0.055506	0.080648
O10	O	1.429745	0.555506	0.580648
O11	O	0.809581	0.168554	0.070627
O12	O	1.309581	0.668554	0.570627
O13	O	1.037209	0.171271	0.070386
O14	O	1.537209	0.671271	0.570386
Cu15	Cu	0.923394	0.169912	0.086132
Cu16	Cu	1.423394	0.669912	0.586132
Cu17	Cu	0.923409	0.169921	-0.116254
Cu18	Cu	1.423409	0.669921	0.383746
O19	O	0.917045	0.284319	0.060365
O20	O	1.417045	0.784319	0.560365
C21	C	0.780461	0.166084	-0.014721
C22	C	1.280461	0.666084	0.485279
C23	C	0.693674	0.158704	-0.014068
C24	C	1.193674	0.658704	0.485932
C25	C	0.203301	0.113368	-0.010053
C26	C	0.703301	0.613368	0.489947
C27	C	0.284846	0.120308	-0.010662
C28	C	0.784846	0.620308	0.489338
C29	C	0.316215	0.195009	-0.017288
C30	C	0.816215	0.695009	0.482712
C31	C	0.266036	0.262774	-0.023296
C32	C	0.766036	0.762774	0.476704
C33	C	0.184493	0.255833	-0.022680
C34	C	0.684493	0.755833	0.477320
C35	C	0.561952	0.219529	-0.019459
C36	C	1.061952	0.719529	0.480541
C37	C	0.643501	0.226464	-0.020078
C38	C	1.143501	0.726464	0.479922
C39	C	0.662305	0.083998	-0.007442
C40	C	1.162305	0.583998	0.492558
C41	C	0.580760	0.077064	-0.006832
C42	C	1.080760	0.577064	0.493168
C43	C	0.530588	0.144829	-0.012834
C44	C	1.030588	0.644829	0.487166
C45	C	0.399567	0.202104	-0.017914
C46	C	0.899567	0.702104	0.482086
C47	C	0.447238	0.137733	-0.012201
C48	C	0.947238	0.637733	0.487799
C49	C	0.929269	0.026088	-0.002313
C50	C	1.429269	0.526088	0.497687
C51	C	0.927825	-0.061580	0.005452
C52	C	1.427825	0.438420	0.505452
C53	C	0.927154	-0.102757	-0.084185
C54	C	1.427154	0.397243	0.415815
C55	C	0.925792	-0.185130	-0.076885
C56	C	1.425792	0.314870	0.423115
C57	C	0.925105	-0.226324	0.020052
C58	C	1.425105	0.273676	0.520052
C59	C	0.925773	-0.185140	0.109695
C60	C	1.425773	0.314860	0.609695
C61	C	0.927130	-0.102769	0.102395
C62	C	1.427130	0.397231	0.602395
C63	C	0.921003	-0.475033	0.046761
C64	C	1.421003	0.024967	0.546761
C65	C	0.919648	-0.557410	0.054054
C66	C	1.419648	-0.057410	0.554054
C67	C	0.919666	-0.557394	-0.132527
C68	C	1.419666	-0.057394	0.367473
C69	C	0.921027	-0.475021	-0.139819
C70	C	1.421027	0.024979	0.360181
C71	C	0.921691	-0.433845	-0.050176
C72	C	1.421691	0.066155	0.449824
C73	C	0.923715	-0.310522	0.027515
C74	C	1.423715	0.189478	0.527515
C75	C	0.923075	-0.349647	-0.057640
C76	C	1.423075	0.150353	0.442360
C77	C	1.066342	0.173749	-0.015402
C78	C	1.566342	0.673749	0.484598
C79	C	1.153128	0.181128	-0.016063
C80	C	1.653128	0.681128	0.483937
C81	C	0.917533	0.313745	-0.027811
C82	C	1.417533	0.813745	0.472189
C83	C	0.918978	0.401412	-0.035583
C84	C	1.418978	0.901412	0.464417
N85	N	0.923389	0.169905	0.228480
N86	N	1.423389	0.669905	0.728480
N87	N	0.923420	0.169921	-0.258601
N88	N	1.423420	0.669921	0.241399
C89	C	0.923408	0.169921	0.648293
C90	C	1.423408	0.669921	1.148293
C91	C	0.923400	0.169920	0.531488
C92	C	1.423400	0.669920	1.031488
C93	C	0.923399	0.169914	0.438390
C94	C	1.423399	0.669914	0.938390
C95	C	0.923391	0.169911	0.321578
C96	C	1.423391	0.669911	0.821578
H97	H	0.521111	0.274708	-0.024352
H98	H	1.021111	0.774708	0.475648
O99	O	0.677336	0.307040	-0.027222
O100	O	1.177336	0.807040	0.472778
H101	H	0.714040	0.313600	0.041941
H102	H	1.214040	0.813600	0.541941
H103	H	0.927665	-0.069242	0.175387
H104	H	1.427665	0.430758	0.675387
H105	H	0.919124	-0.590929	-0.205510
H106	H	1.419124	-0.090929	0.294490
H107	H	0.919085	-0.590947	0.132996
H108	H	1.419085	-0.090947	0.632996
H109	H	0.291583	0.323597	-0.028685
H110	H	0.791583	0.823597	0.471315
O111	O	0.925030	-0.229544	-0.173564
O112	O	1.425030	0.270456	0.326436
H113	H	0.925731	-0.187060	-0.242196
H114	H	1.425731	0.312940	0.257804
O115	O	0.925031	-0.229563	0.214254
O116	O	1.425031	0.270437	0.714254
H117	H	0.978544	-0.217200	0.257892
H118	H	1.478544	0.282800	0.757892
O119	O	0.921752	-0.430589	-0.244372
O120	O	1.421752	0.069411	0.255628
H121	H	0.921046	-0.473061	-0.305478
H122	H	1.421046	0.026939	0.194522
O123	O	0.923812	-0.305224	-0.162193
O124	O	1.423812	0.194776	0.337807
H125	H	0.977692	-0.271155	-0.169672
H126	H	1.477692	0.228845	0.330328
H127	H	0.421693	0.076912	-0.006817
H128	H	0.921693	0.576912	0.493183
H129	H	0.921559	-0.441517	0.119755
H130	H	1.421559	0.058483	0.619755
H131	H	0.927718	-0.069224	-0.163121
H132	H	1.427718	0.430776	0.336879
O133	O	0.338961	0.047223	-0.004183
O134	O	0.838961	0.547223	0.495817
H135	H	0.376549	0.046972	0.065598
H136	H	0.876549	0.546972	0.565598
O137	O	0.922997	-0.354962	0.132063
O138	O	1.422997	0.145038	0.632063
H139	H	0.869126	-0.389045	0.139548
H140	H	1.369126	0.110955	0.639548
H141	H	0.425117	0.262926	-0.023313
H142	H	0.925117	0.762926	0.476687
H143	H	0.177767	0.052539	-0.004663
H144	H	0.677767	0.552539	0.495337
O145	O	0.546923	-0.003505	0.000314
O146	O	1.046923	0.496495	0.500314
H147	H	0.510210	-0.010070	0.070642
H148	H	1.010210	0.489930	0.570642
O149	O	0.716421	0.010913	-0.000946
O150	O	1.216421	0.510913	0.499054
H151	H	0.754035	0.010664	-0.070668
H152	H	1.254035	0.510664	0.429332
O153	O	0.130372	0.328916	-0.029167
O154	O	0.630372	0.828916	0.470833
H155	H	0.165882	0.382027	-0.033888
H156	H	0.665882	0.882027	0.466112
