data_functionalizedCrystal
_audit_creation_method	'MofGen! by Chris Wilmer'
_symmetry_space_group_name_H-M	'P1'
_symmetry_Int_Tables_number	1
_symmetry_cell_setting	triclinic
loop_
_symmetry_equiv_pos_as_xyz
  x,y,z
_cell_length_a	21.295418
_cell_length_b	29.839131
_cell_length_c	21.295411
_cell_angle_alpha	89.964907
_cell_angle_beta	89.964378
_cell_angle_gamma	90.051038
loop_
_atom_site_label
_atom_site_type_symbol
_atom_site_fract_x
_atom_site_fract_y
_atom_site_fract_z
Zn1	Zn	0.962285	-0.178684	-0.356206
Zn2	Zn	1.462285	0.321316	0.143794
Zn3	Zn	0.962193	-0.253808	-0.250919
Zn4	Zn	1.462193	0.246192	0.249081
Zn5	Zn	0.857023	-0.178714	-0.250916
Zn6	Zn	1.357023	0.321286	0.249084
Zn7	Zn	0.856969	-0.253808	-0.356116
Zn8	Zn	1.356969	0.246192	0.143884
O9	O	0.909617	-0.216253	-0.303539
O10	O	1.409617	0.283747	0.196461
O11	O	1.050362	-0.188636	-0.342278
O12	O	1.550362	0.311364	0.157722
O13	O	0.948227	-0.243860	-0.162829
O14	O	1.448227	0.256140	0.337171
O15	O	0.871047	-0.115843	-0.264918
O16	O	1.371047	0.384157	0.235082
O17	O	1.050295	-0.243830	-0.264925
O18	O	1.550295	0.256170	0.235075
O19	O	0.948382	-0.115820	-0.342275
O20	O	1.448382	0.384180	0.157725
O21	O	0.870958	-0.188688	-0.162827
O22	O	1.370958	0.311312	0.337173
O23	O	0.768926	-0.188688	-0.264831
O24	O	1.268926	0.311312	0.235169
O25	O	0.870955	-0.243830	-0.444217
O26	O	1.370955	0.256170	0.055783
O27	O	0.768886	-0.243859	-0.342122
O28	O	1.268886	0.256141	0.157878
O29	O	0.948330	-0.188636	-0.444283
O30	O	1.448330	0.311364	0.055717
O31	O	0.948174	-0.316675	-0.264838
O32	O	1.448174	0.183325	0.235162
O33	O	0.870866	-0.316675	-0.342125
O34	O	1.370866	0.183325	0.157875
C35	C	0.746066	-0.216277	-0.303467
C36	C	1.246066	0.283723	0.196533
C37	C	0.676098	-0.216298	-0.303451
C38	C	1.176098	0.283702	0.196549
C39	C	0.643227	-0.245064	-0.343635
C40	C	1.143227	0.254936	0.156365
C41	C	0.577484	-0.245053	-0.343664
C42	C	1.077484	0.254947	0.156336
C43	C	0.544615	-0.216281	-0.303496
C44	C	1.044615	0.283719	0.196504
C45	C	0.577494	-0.187509	-0.263308
C46	C	1.077494	0.312491	0.236692
C47	C	0.643235	-0.187518	-0.263286
C48	C	1.143235	0.312482	0.236714
N49	N	0.441347	-0.212769	-0.248439
N50	N	0.941347	0.287231	0.251561
N51	N	0.378896	-0.212763	-0.248462
N52	N	0.878896	0.287237	0.251538
C53	C	0.346540	-0.216252	-0.303563
C54	C	0.846540	0.283748	0.196437
N55	N	0.378996	-0.219755	-0.358640
N56	N	0.878996	0.280245	0.141360
N57	N	0.441453	-0.219763	-0.358616
N58	N	0.941453	0.280237	0.141384
C59	C	0.473330	-0.216268	-0.303516
C60	C	0.973330	0.283732	0.196484
C61	C	0.242384	-0.245007	-0.343782
C62	C	0.742384	0.254993	0.156218
C63	C	0.176640	-0.244993	-0.343811
C64	C	0.676640	0.255007	0.156189
C65	C	0.176651	-0.187452	-0.263450
C66	C	0.676651	0.312548	0.236550
C67	C	0.242394	-0.187464	-0.263426
C68	C	0.742394	0.312536	0.236574
C69	C	0.275256	-0.216244	-0.303591
C70	C	0.775256	0.283756	0.196409
C71	C	0.909521	-0.332976	-0.303486
C72	C	1.409521	0.167024	0.196514
C73	C	0.909538	-0.382910	-0.303484
C74	C	1.409538	0.117090	0.196516
C75	C	0.949877	-0.692507	-0.343876
C76	C	1.449877	-0.192507	0.156124
C77	C	0.949945	-0.880180	-0.343914
C78	C	1.449945	-0.380180	0.156086
O79	O	0.984149	-0.904406	-0.378217
O80	O	1.484149	-0.404406	0.121783
N81	N	0.909724	-0.903695	-0.303609
N82	N	1.409724	-0.403695	0.196391
C83	C	0.869480	-0.880289	-0.263295
C84	C	1.369480	-0.380289	0.236705
O85	O	0.835267	-0.904597	-0.229019
O86	O	1.335267	-0.404597	0.270981
C87	C	0.869409	-0.692617	-0.263261
C88	C	1.369409	-0.192617	0.236739
C89	C	0.909638	-0.669105	-0.303564
C90	C	1.409638	-0.169105	0.196436
C91	C	0.990102	-0.668995	-0.384176
C92	C	1.490102	-0.168995	0.115824
C93	C	0.990087	-0.622079	-0.384164
C94	C	1.490087	-0.122079	0.115836
C95	C	0.949847	-0.598676	-0.343851
C96	C	1.449847	-0.098676	0.156149
C97	C	0.909622	-0.622189	-0.303551
C98	C	1.409622	-0.122189	0.196449
C99	C	0.829162	-0.669212	-0.222950
C100	C	1.329162	-0.169212	0.277050
C101	C	0.829147	-0.622291	-0.222946
C102	C	1.329147	-0.122291	0.277054
C103	C	0.869375	-0.598778	-0.263249
C104	C	1.369375	-0.098778	0.236751
C105	C	0.869368	-0.551871	-0.263227
C106	C	1.369368	-0.051871	0.236773
N107	N	0.909589	-0.528356	-0.303531
N108	N	1.409589	-0.028356	0.196469
C109	C	0.949829	-0.551759	-0.343844
C110	C	1.449829	-0.051759	0.156156
C111	C	0.869521	-0.978820	-0.263315
C112	C	1.369521	-0.478820	0.236685
C113	C	0.869540	-1.025738	-0.263322
C114	C	1.369540	-0.525738	0.236678
C115	C	0.950004	-1.025626	-0.343942
C116	C	1.450004	-0.525626	0.156058
C117	C	0.949989	-0.978707	-0.343931
C118	C	1.449989	-0.478707	0.156069
C119	C	0.909742	-0.955305	-0.303620
C120	C	1.409742	-0.455305	0.196380
C121	C	0.949794	-0.453233	-0.343814
C122	C	1.449794	0.046767	0.156186
C123	C	0.949778	-0.406313	-0.343797
C124	C	1.449778	0.093687	0.156203
C125	C	0.869311	-0.406430	-0.263180
C126	C	1.369311	0.093570	0.236820
C127	C	0.869330	-0.453345	-0.263195
C128	C	1.369330	0.046655	0.236805
C129	C	0.909574	-0.476746	-0.303517
C130	C	1.409574	0.023254	0.196483
O131	O	0.835177	-0.527617	-0.228947
O132	O	1.335177	-0.027617	0.271053
O133	O	0.984027	-0.527443	-0.378125
O134	O	1.484027	-0.027443	0.121875
C135	C	0.949892	-0.739423	-0.343888
C136	C	1.449892	-0.239423	0.156112
C137	C	0.909668	-0.762935	-0.303588
C138	C	1.409668	-0.262935	0.196412
C139	C	0.869428	-0.739533	-0.263276
C140	C	1.369428	-0.239533	0.236724
C141	C	0.909686	-0.809853	-0.303596
C142	C	1.409686	-0.309853	0.196404
C143	C	0.949926	-0.833256	-0.343908
C144	C	1.449926	-0.333256	0.156092
C145	C	0.990147	-0.809741	-0.384213
C146	C	1.490147	-0.309741	0.115787
C147	C	0.990132	-0.762825	-0.384201
C148	C	1.490132	-0.262825	0.115799
C149	C	0.829207	-0.763048	-0.222971
C150	C	1.329207	-0.263048	0.277029
C151	C	0.829226	-0.809963	-0.222986
C152	C	1.329226	-0.309963	0.277014
C153	C	0.869465	-0.833366	-0.263298
C154	C	1.369465	-0.333366	0.236702
C155	C	1.073808	-0.216230	-0.303612
C156	C	1.573808	0.283770	0.196388
C157	C	1.143776	-0.216220	-0.303643
C158	C	1.643776	0.283780	0.196357
C159	C	0.909646	-0.216229	-0.467729
C160	C	1.409646	0.283771	0.032271
C161	C	0.909659	-0.216219	-0.537698
C162	C	1.409659	0.283781	-0.037698
C163	C	0.909731	-0.099075	-0.303606
C164	C	1.409731	0.400925	0.196394
C165	C	0.909779	-0.049141	-0.303635
C166	C	1.409779	0.450859	0.196365
C167	C	0.949963	-0.244854	-1.037158
C168	C	1.449963	0.255146	-0.537158
C169	C	0.949951	-0.244868	-0.971415
C170	C	1.449951	0.255132	-0.471415
C171	C	0.909718	-0.216149	-0.938537
C172	C	1.409718	0.283851	-0.438537
C173	C	0.869482	-0.187422	-0.971407
C174	C	1.369482	0.312578	-0.471407
C175	C	0.869490	-0.187411	-1.037149
C176	C	1.369490	0.312589	-0.537149
N177	N	0.904915	-0.176841	-0.835337
N178	N	1.404915	0.323159	-0.335337
N179	N	0.904911	-0.176853	-0.772885
N180	N	1.404911	0.323147	-0.272885
C181	C	0.909691	-0.216179	-0.740462
C182	C	1.409691	0.283821	-0.240462
N183	N	0.914487	-0.255496	-0.772851
N184	N	1.414487	0.244504	-0.272851
N185	N	0.914494	-0.255484	-0.835308
N186	N	1.414494	0.244516	-0.335308
C187	C	0.909705	-0.216158	-0.867252
C188	C	1.409705	0.283842	-0.367252
C189	C	0.949909	-0.244923	-0.636315
C190	C	1.449909	0.255077	-0.136315
C191	C	0.949893	-0.244938	-0.570571
C192	C	1.449893	0.255062	-0.070571
C193	C	0.869427	-0.187488	-0.570564
C194	C	1.369427	0.312512	-0.070564
C195	C	0.869440	-0.187476	-0.636307
C196	C	1.369440	0.312524	-0.136307
C197	C	0.909684	-0.216194	-0.669178
C198	C	1.409684	0.283806	-0.169178
C199	C	0.909625	-0.216245	-0.139988
C200	C	1.409625	0.283755	0.360012
C201	C	0.909734	-0.216128	-0.070020
C202	C	1.409734	0.283872	0.429980
H203	H	0.550728	-0.164082	-0.230604
H204	H	1.050728	0.335918	0.269396
O205	O	0.989141	-0.272730	-1.069013
O206	O	1.489141	0.227270	-0.569013
C207	C	1.051885	-0.262892	-1.052992
C208	C	1.551885	0.237108	-0.552992
H209	H	1.053193	-0.245625	-1.005272
H210	H	1.553193	0.254375	-0.505272
H211	H	1.080085	-0.295309	-1.050729
H212	H	1.580085	0.204691	-0.550729
H213	H	1.073116	-0.239788	-1.090017
H214	H	1.573116	0.260212	-0.590017
O215	O	0.274357	-0.159477	-0.224474
O216	O	0.774357	0.340523	0.275526
C217	C	0.312476	-0.130508	-0.260378
C218	C	0.812476	0.369492	0.239622
H219	H	0.292717	-0.127776	-0.309971
H220	H	0.792717	0.372224	0.190029
H221	H	0.313255	-0.095913	-0.237704
H222	H	0.813255	0.404087	0.262296
H223	H	0.362281	-0.144408	-0.262492
H224	H	0.862281	0.355592	0.237508
O225	O	0.144828	-0.159460	-0.224410
O226	O	0.644828	0.340540	0.275590
C227	C	0.187942	-0.134081	-0.188922
C228	C	0.687942	0.365919	0.311078
H229	H	0.234833	-0.132558	-0.214692
H230	H	0.734833	0.367442	0.285308
H231	H	0.168996	-0.098676	-0.182311
H232	H	0.668996	0.401324	0.317689
H233	H	0.194861	-0.150488	-0.141065
H234	H	0.694861	0.349512	0.358935
O235	O	0.830382	-0.159614	-0.668330
O236	O	1.330382	0.340386	-0.168330
C237	C	0.839025	-0.165757	-0.733404
C238	C	1.339025	0.334243	-0.233404
H239	H	0.859617	-0.200420	-0.742372
H240	H	1.359617	0.299580	-0.242372
H241	H	0.791877	-0.162719	-0.758366
H242	H	1.291877	0.337281	-0.258366
H243	H	0.872567	-0.139098	-0.752095
H244	H	1.372567	0.360902	-0.252095
H245	H	0.982648	-0.268334	-0.543816
H246	H	1.482648	0.231666	-0.043816
H247	H	0.269142	-0.268439	-0.376490
H248	H	0.769142	0.231561	0.123510
H249	H	0.836667	-0.164105	-0.543796
H250	H	1.336667	0.335895	-0.043796
H251	H	0.982719	-0.268255	-0.944654
H252	H	1.482719	0.231745	-0.444654
O253	O	0.830370	-0.159586	-0.939403
O254	O	1.330370	0.340414	-0.439403
C255	C	0.789676	-0.185178	-0.901351
C256	C	1.289676	0.314822	-0.401351
H257	H	0.811847	-0.219221	-0.891495
H258	H	1.311847	0.280779	-0.391495
H259	H	0.781252	-0.166887	-0.855127
H260	H	1.281252	0.333113	-0.355127
H261	H	0.743024	-0.190119	-0.926659
H262	H	1.243024	0.309881	-0.426659
H263	H	0.796468	-0.829103	-0.190161
H264	H	1.296468	-0.329103	0.309839
H265	H	0.796372	-0.603240	-0.190120
H266	H	1.296372	-0.103240	0.309880
O267	O	0.988994	-0.955888	-0.383175
O268	O	1.488994	-0.455888	0.116825
C269	C	0.975209	-0.967345	-0.445896
C270	C	1.475209	-0.467345	0.054104
H271	H	0.924922	-0.980283	-0.449009
H272	H	1.424922	-0.480283	0.050991
H273	H	0.980599	-0.936472	-0.477002
H274	H	1.480599	-0.436472	0.022998
H275	H	1.008957	-0.994544	-0.462394
H276	H	1.508957	-0.494544	0.037606
O277	O	0.675051	-0.273031	-0.382714
O278	O	1.175051	0.226969	0.117286
C279	C	0.631935	-0.298427	-0.418177
C280	C	1.131935	0.201573	0.081823
H281	H	0.585102	-0.280021	-0.420422
H282	H	1.085102	0.219979	0.079578
H283	H	0.650968	-0.303270	-0.467755
H284	H	1.150968	0.196730	0.032245
H285	H	0.624870	-0.332523	-0.395032
H286	H	1.124870	0.167477	0.104968
O287	O	0.675072	-0.159562	-0.224185
O288	O	1.175072	0.340438	0.275815
C289	C	0.631967	-0.134153	-0.188750
C290	C	1.131967	0.365847	0.311250
H291	H	0.585073	-0.152544	-0.186538
H292	H	1.085073	0.347456	0.313462
H293	H	0.650920	-0.129317	-0.139159
H294	H	1.150920	0.370683	0.360841
H295	H	0.625054	-0.100054	-0.211898
H296	H	1.125054	0.399946	0.288102
O297	O	1.029226	-0.599221	-0.423229
O298	O	1.529226	-0.099221	0.076771
C299	C	1.069892	-0.572057	-0.387447
C300	C	1.569892	-0.072057	0.112553
H301	H	1.073822	-0.586215	-0.337874
H302	H	1.573822	-0.086215	0.162126
H303	H	1.118319	-0.571477	-0.410281
H304	H	1.618319	-0.071477	0.089719
H305	H	1.050420	-0.536515	-0.385251
H306	H	1.550420	-0.036515	0.114749
O307	O	0.545513	-0.272933	-0.382765
O308	O	1.045513	0.227067	0.117235
C309	C	0.507550	-0.247391	-0.423495
C310	C	1.007550	0.252609	0.076505
H311	H	0.527422	-0.212016	-0.427482
H312	H	1.027422	0.287984	0.072518
H313	H	0.506818	-0.263690	-0.471892
H314	H	1.006818	0.236310	0.028108
H315	H	0.457712	-0.245814	-0.404047
H316	H	0.957712	0.254186	0.095953
H317	H	0.149878	-0.268417	-0.376538
H318	H	0.649878	0.231583	0.123462
O319	O	0.830133	-0.383740	-0.224057
O320	O	1.330133	0.116260	0.275943
C321	C	0.767390	-0.395238	-0.237758
C322	C	1.267390	0.104762	0.262242
H323	H	0.766082	-0.429294	-0.261953
H324	H	1.266082	0.070706	0.238047
H325	H	0.739184	-0.396883	-0.192297
H326	H	1.239184	0.103117	0.307703
H327	H	0.746167	-0.368835	-0.270101
H328	H	1.246167	0.131165	0.229899
H329	H	0.982539	-0.387171	-0.376616
H330	H	1.482539	0.112829	0.123384
O331	O	0.830393	-0.159462	-1.068977
O332	O	1.330393	0.340538	-0.568977
C333	C	0.794864	-0.134125	-1.025864
C334	C	1.294864	0.365875	-0.525864
H335	H	0.820641	-0.132573	-0.979013
H336	H	1.320641	0.367427	-0.479013
H337	H	0.788184	-0.098727	-1.044874
H338	H	1.288184	0.401273	-0.544874
H339	H	0.747040	-0.150587	-1.018843
H340	H	1.247040	0.349413	-0.518843
H341	H	0.796438	-0.743997	-0.190144
H342	H	1.296438	-0.243997	0.309856
H343	H	0.982560	-0.472280	-0.376653
H344	H	1.482560	0.027720	0.123347
H345	H	1.022914	-0.828804	-0.417034
H346	H	1.522914	-0.328804	0.082966
O347	O	1.029255	-0.691654	-0.423357
O348	O	1.529255	-0.191654	0.076643
C349	C	1.064736	-0.660831	-0.458932
C350	C	1.564736	-0.160831	0.041068
H351	H	1.066907	-0.627400	-0.433139
H352	H	1.566907	-0.127400	0.066861
H353	H	1.114339	-0.674335	-0.465709
H354	H	1.614339	-0.174335	0.034291
H355	H	1.041655	-0.655835	-0.506712
H356	H	1.541655	-0.155835	-0.006712
O357	O	0.989059	-0.272757	-0.668280
O358	O	1.489059	0.227243	-0.168280
C359	C	1.029737	-0.247169	-0.706352
C360	C	1.529737	0.252831	-0.206352
H361	H	1.033660	-0.211789	-0.686560
H362	H	1.533660	0.288211	-0.186560
H363	H	1.078165	-0.263412	-0.707115
H364	H	1.578165	0.236588	-0.207115
H365	H	1.010281	-0.245614	-0.756167
H366	H	1.510281	0.254386	-0.256167
H367	H	0.982770	-1.044688	-0.376766
H368	H	1.482770	-0.544688	0.123234
H369	H	0.836788	-1.044878	-0.230497
H370	H	1.336788	-0.544878	0.269503
O371	O	0.830408	-0.956160	-0.224089
O372	O	1.330408	-0.456160	0.275911
C373	C	0.794907	-0.986982	-0.188532
C374	C	1.294907	-0.486982	0.311468
H375	H	0.820711	-1.020404	-0.186400
H376	H	1.320711	-0.520404	0.313600
H377	H	0.788222	-0.973463	-0.138920
H378	H	1.288222	-0.473463	0.361080
H379	H	0.747084	-0.992000	-0.211520
H380	H	1.247084	-0.492000	0.288480
H381	H	0.796404	-0.688348	-0.190131
H382	H	1.296404	-0.188348	0.309869
H383	H	0.836577	-0.472490	-0.230372
H384	H	1.336577	0.027510	0.269628
O385	O	1.029227	-0.740058	-0.423414
O386	O	1.529227	-0.240058	0.076586
C387	C	1.064752	-0.770783	-0.458981
C388	C	1.564752	-0.270783	0.041019
H389	H	1.038974	-0.804245	-0.461128
H390	H	1.538974	-0.304245	0.038872
H391	H	1.071432	-0.757200	-0.508587
H392	H	1.571432	-0.257200	-0.008587
H393	H	1.112578	-0.775747	-0.435991
H394	H	1.612578	-0.275747	0.064009
