data_functionalizedCrystal
_audit_creation_method	'MofGen! by Chris Wilmer'
_symmetry_space_group_name_H-M	'P1'
_symmetry_Int_Tables_number	1
_symmetry_cell_setting	triclinic
loop_
_symmetry_equiv_pos_as_xyz
  x,y,z
_cell_length_a	16.109301
_cell_length_b	16.992695
_cell_length_c	15.186229
_cell_angle_alpha	89.995943
_cell_angle_beta	89.999362
_cell_angle_gamma	87.064852
loop_
_atom_site_label
_atom_site_type_symbol
_atom_site_fract_x
_atom_site_fract_y
_atom_site_fract_z
O1	O	1.109856	0.100784	-0.073174
O2	O	0.868631	0.113326	-0.073188
O3	O	0.988276	-0.007088	-0.073174
O4	O	0.990210	0.221197	-0.073188
O5	O	0.988268	-0.007089	0.073284
O6	O	0.868622	0.113324	0.073270
O7	O	1.109847	0.100782	0.073284
Zn8	Zn	0.989233	0.107053	0.096530
Zn9	Zn	0.989245	0.107055	-0.096434
O10	O	0.990202	0.221196	0.073270
C11	C	0.837618	0.112817	0.000039
C12	C	0.745221	0.111294	0.000034
C13	C	0.527480	0.179203	0.000040
C14	C	0.440664	0.177766	0.000046
C15	C	0.451005	0.034899	0.000051
C16	C	0.537819	0.036337	0.000051
C17	C	0.576055	0.108492	0.000042
C18	C	0.402424	0.105616	0.000047
C19	C	0.308294	0.104057	0.000053
C20	C	0.670191	0.110051	0.000037
C21	C	0.985784	-0.036300	0.000055
C22	C	0.978361	-0.123343	0.000054
C23	C	1.049987	-0.173601	0.000059
C24	C	1.043007	-0.255386	0.000050
C25	C	0.964400	-0.286911	0.000043
C26	C	0.892768	-0.236645	0.000035
C27	C	0.899749	-0.154862	0.000038
C28	C	0.935467	-0.530501	0.000029
C29	C	0.928491	-0.612291	0.000029
C30	C	1.078731	-0.631026	0.000043
C31	C	1.085704	-0.549240	0.000051
C32	C	1.014073	-0.498982	0.000038
N33	N	0.957263	-0.370508	0.000037
N34	N	1.021210	-0.415387	0.000038
C35	C	1.140860	0.101291	0.000055
C36	C	1.233257	0.102814	0.000054
C37	C	0.992694	0.250408	0.000039
C38	C	1.000118	0.337451	0.000034
N39	N	0.989232	0.107051	0.228223
N40	N	0.989253	0.107051	-0.228127
C41	C	1.042231	0.053750	0.453952
C42	C	1.042234	0.053748	0.546141
C43	C	0.936247	0.160355	0.546138
C44	C	0.936241	0.160352	0.453950
C45	C	0.989238	0.107051	0.407859
C46	C	0.989246	0.107051	0.592237
C47	C	0.989249	0.107050	0.692193
C48	C	0.989235	0.107051	0.307897
H49	H	1.113997	-0.147941	0.000071
O50	O	1.093569	0.001906	0.409101
C51	C	1.045796	-0.046489	0.355831
H52	H	0.982833	-0.015247	0.342001
H53	H	1.036259	-0.104414	0.391402
C54	C	1.168877	-0.101680	0.285257
C55	C	1.091548	-0.063305	0.268265
H56	H	1.197100	-0.112056	0.231244
H57	H	1.201064	-0.069078	0.321148
H58	H	1.160919	-0.149947	0.314902
H59	H	1.099508	-0.015035	0.238630
H60	H	1.059364	-0.095899	0.232366
O61	O	1.112669	-0.304095	0.000101
C62	C	1.183545	-0.258734	0.000093
H63	H	1.166493	-0.197692	0.027820
H64	H	1.207397	-0.252911	-0.070165
C65	C	1.272725	-0.374481	0.023486
C66	C	1.251783	-0.299510	0.057547
H67	H	1.314820	-0.399635	0.058922
H68	H	1.224975	-0.405043	0.023488
H69	H	1.292597	-0.369618	-0.035062
H70	H	1.231903	-0.304374	0.116089
H71	H	1.299532	-0.268950	0.057557
H72	H	0.577371	-0.021248	0.000055
H73	H	0.893084	0.203756	0.416419
H74	H	0.558608	0.237956	0.000039
O75	O	1.093791	0.001943	0.590779
C76	C	1.140546	-0.045113	0.530325
H77	H	1.143616	-0.012964	0.464608
H78	H	1.109684	-0.103369	0.520526
C79	C	1.225391	-0.100735	0.647014
C80	C	1.229168	-0.061246	0.566301
H81	H	1.280056	-0.110690	0.669206
H82	H	1.193890	-0.069035	0.687743
H83	H	1.199669	-0.149277	0.638837
H84	H	1.254880	-0.012701	0.574481
H85	H	1.260676	-0.092939	0.525574
H86	H	0.893100	0.203753	0.583674
H87	H	0.419863	-0.023846	0.000064
H88	H	1.149714	-0.523580	0.000057
O89	O	0.393515	0.246477	-0.000115
C90	C	0.411600	0.290292	-0.075960
H91	H	0.438487	0.248891	-0.128974
H92	H	0.458771	0.335665	-0.058816
C93	C	0.298289	0.383639	-0.045242
C94	C	0.331306	0.332788	-0.110357
H95	H	0.248762	0.409856	-0.066459
H96	H	0.286107	0.354122	0.005858
H97	H	0.337606	0.421442	-0.030962
H98	H	0.291994	0.294980	-0.124629
H99	H	0.343480	0.362300	-0.161460
O100	O	1.148333	-0.679814	0.000201
C101	C	1.195746	-0.665522	0.076043
H102	H	1.153711	-0.637565	0.129060
H103	H	1.246634	-0.623889	0.058896
C104	C	1.287206	-0.778254	0.045314
C105	C	1.235577	-0.743923	0.110434
H106	H	1.311779	-0.826613	0.066527
H107	H	1.255265	-0.787881	-0.005784
H108	H	1.329606	-0.743551	0.031031
H109	H	1.193172	-0.778620	0.124708
H110	H	1.267512	-0.734303	0.161535
O111	O	0.852064	-0.642784	-0.000027
C112	C	0.790336	-0.580889	-0.000019
H113	H	0.817335	-0.525334	-0.027740
H114	H	0.767966	-0.569316	0.070239
C115	C	0.683497	-0.672191	-0.023424
C116	C	0.716655	-0.603959	-0.057479
H117	H	0.638044	-0.686422	-0.058864
H118	H	0.725083	-0.713892	-0.023426
H119	H	0.664861	-0.662538	0.035124
H120	H	0.735299	-0.613616	-0.116021
H121	H	0.675070	-0.562260	-0.057488
H122	H	0.877139	-0.489590	0.000019
O123	O	0.816473	-0.267396	0.000066
C124	C	0.825668	-0.350357	0.000046
H125	H	0.889270	-0.369582	0.027778
H126	H	0.820131	-0.373118	-0.070217
C127	C	0.679159	-0.360653	0.023418
C128	C	0.757274	-0.384265	0.057485
H129	H	0.636969	-0.381570	0.058845
H130	H	0.672963	-0.304760	0.023428
H131	H	0.674557	-0.379622	-0.035134
H132	H	0.761879	-0.365287	0.116031
H133	H	0.763469	-0.440155	0.057486
H134	H	0.841423	-0.113942	0.000033
