data_functionalizedCrystal
_audit_creation_method	'MofGen! by Chris Wilmer'
_symmetry_space_group_name_H-M	'P1'
_symmetry_Int_Tables_number	1
_symmetry_cell_setting	triclinic
loop_
_symmetry_equiv_pos_as_xyz
  x,y,z
_cell_length_a	19.121241
_cell_length_b	19.121449
_cell_length_c	19.120904
_cell_angle_alpha	89.923197
_cell_angle_beta	90.124528
_cell_angle_gamma	89.915403
loop_
_atom_site_label
_atom_site_type_symbol
_atom_site_fract_x
_atom_site_fract_y
_atom_site_fract_z
Zn1	Zn	1.066081	-0.252666	0.431900
Zn2	Zn	1.399414	0.080668	0.765233
Zn3	Zn	1.732748	0.414001	1.098567
Zn4	Zn	1.075963	-0.364500	0.310107
Zn5	Zn	1.409297	-0.031166	0.643440
Zn6	Zn	1.742630	0.302167	0.976773
Zn7	Zn	0.953829	-0.252250	0.309687
Zn8	Zn	1.287162	0.081083	0.643020
Zn9	Zn	1.620496	0.414416	0.976353
Zn10	Zn	0.954212	-0.374414	0.421889
Zn11	Zn	1.287545	-0.041080	0.755223
Zn12	Zn	1.620879	0.292253	1.088556
O13	O	1.012521	-0.310957	0.368396
O14	O	1.345855	0.022376	0.701729
O15	O	1.679188	0.355709	1.035062
O16	O	1.165323	-0.263525	0.420109
O17	O	1.498656	0.069808	0.753442
O18	O	1.831990	0.403141	1.086776
O19	O	1.063737	-0.345287	0.212123
O20	O	1.397071	-0.011953	0.545456
O21	O	1.730404	0.321380	0.878789
O22	O	0.964423	-0.154377	0.329912
O23	O	1.297757	0.178957	0.663245
O24	O	1.631090	0.512290	0.996579
O25	O	1.172584	-0.345689	0.330628
O26	O	1.505917	-0.012356	0.663961
O27	O	1.839250	0.320977	0.997295
O28	O	1.046894	-0.154682	0.419702
O29	O	1.380228	0.178651	0.753035
O30	O	1.713561	0.511985	1.086368
O31	O	0.974006	-0.262818	0.211814
O32	O	1.307339	0.070516	0.545147
O33	O	1.640673	0.403849	0.878481
O34	O	0.855949	-0.272431	0.320205
O35	O	1.189282	0.060903	0.653539
O36	O	1.522615	0.394236	0.986872
O37	O	0.965076	-0.362586	0.521146
O38	O	1.298410	-0.029253	0.854479
O39	O	1.631743	0.304080	1.187812
O40	O	0.856230	-0.362184	0.402640
O41	O	1.189563	-0.028850	0.735974
O42	O	1.522897	0.304483	1.069307
O43	O	1.047266	-0.273139	0.528500
O44	O	1.380599	0.060195	0.861834
O45	O	1.713932	0.393528	1.195167
O46	O	1.064109	-0.463744	0.320921
O47	O	1.397442	-0.130410	0.654255
O48	O	1.730776	0.202923	0.987588
O49	O	0.974659	-0.471027	0.403048
O50	O	1.307992	-0.137694	0.736381
O51	O	1.641326	0.195639	1.069714
C52	C	0.830697	-0.318339	0.360291
C53	C	1.164030	0.014995	0.693625
C54	C	1.497364	0.348328	1.026958
C55	C	0.752912	-0.321514	0.356840
C56	C	1.086245	0.011820	0.690173
C57	C	1.419578	0.345153	1.023507
C58	C	0.712589	-0.280301	0.401872
C59	C	1.045922	0.053032	0.735205
C60	C	1.379256	0.386365	1.068539
C61	C	0.639502	-0.283281	0.398623
C62	C	0.972835	0.050052	0.731957
C63	C	1.306168	0.383386	1.065290
C64	C	0.606738	-0.327478	0.350346
C65	C	0.940072	0.005856	0.683679
C66	C	1.273405	0.339189	1.017012
C67	C	0.647067	-0.368692	0.305309
C68	C	0.980400	-0.035358	0.638642
C69	C	1.313733	0.297975	0.971975
C70	C	0.720153	-0.365708	0.308555
C71	C	1.053486	-0.032374	0.641888
C72	C	1.386819	0.300959	0.975221
C73	C	0.386255	-0.338621	0.338208
C74	C	0.719588	-0.005287	0.671542
C75	C	1.052922	0.328046	1.004875
C76	C	0.313164	-0.341603	0.334967
C77	C	0.646497	-0.008270	0.668301
C78	C	0.979830	0.325064	1.001634
C79	C	0.305604	-0.256191	0.428281
C80	C	0.638937	0.077142	0.761615
C81	C	0.972270	0.410476	1.094948
C82	C	0.378691	-0.253214	0.431526
C83	C	0.712025	0.080119	0.764859
C84	C	1.045358	0.413453	1.098192
C85	C	0.419013	-0.294425	0.386487
C86	C	0.752347	0.038908	0.719820
C87	C	1.085680	0.372241	1.053153
C88	C	0.532032	-0.330526	0.347025
C89	C	0.865365	0.002807	0.680359
C90	C	1.198698	0.336140	1.013692
C91	C	0.493719	-0.291373	0.389804
C92	C	0.827052	0.041961	0.723137
C93	C	1.160385	0.375294	1.056471
C94	C	1.020516	-0.492777	0.360960
C95	C	1.353850	-0.159444	0.694293
C96	C	1.687183	0.173889	1.027627
C97	C	1.024000	-0.570559	0.357805
C98	C	1.357333	-0.237226	0.691138
C99	C	1.690666	0.096108	1.024472
C100	C	0.979035	-0.610918	0.399043
C101	C	1.312368	-0.277585	0.732377
C102	C	1.645702	0.055748	1.065710
C103	C	0.982311	-0.684002	0.396076
C104	C	1.315645	-0.350669	0.729410
C105	C	1.648978	-0.017336	1.062743
C106	C	1.030556	-0.716725	0.351874
C107	C	1.363889	-0.383392	0.685208
C108	C	1.697222	-0.050059	1.018541
C109	C	1.075522	-0.676361	0.310632
C110	C	1.408855	-0.343027	0.643965
C111	C	1.742189	-0.009694	0.977298
C112	C	1.072242	-0.603278	0.313595
C113	C	1.405575	-0.269945	0.646929
C114	C	1.738909	0.063389	0.980262
C115	C	1.042788	-0.937197	0.340785
C116	C	1.376121	-0.603863	0.674119
C117	C	1.709454	-0.270530	1.007452
C118	C	1.046066	-1.010285	0.337826
C119	C	1.379399	-0.676951	0.671160
C120	C	1.712732	-0.343618	1.004493
C121	C	0.952853	-1.017921	0.423271
C122	C	1.286187	-0.684588	0.756604
C123	C	1.619520	-0.351255	1.089937
C124	C	0.949581	-0.944837	0.426233
C125	C	1.282914	-0.611504	0.759567
C126	C	1.616247	-0.278170	1.092900
C127	C	0.994544	-0.904479	0.384988
C128	C	1.327878	-0.571145	0.718321
C129	C	1.661211	-0.237812	1.051655
C130	C	1.033907	-0.791429	0.348842
C131	C	1.367240	-0.458096	0.682176
C132	C	1.700574	-0.124762	1.015509
C133	C	0.991189	-0.829776	0.388017
C134	C	1.324523	-0.496443	0.721350
C135	C	1.657856	-0.163110	1.054683
C136	C	1.195056	-0.303548	0.376532
C137	C	1.528389	0.029785	0.709865
C138	C	1.861722	0.363119	1.043199
C139	C	1.272841	-0.300390	0.379999
C140	C	1.606174	0.032943	0.713333
C141	C	1.939508	0.366276	1.046666
C142	C	1.005111	-0.319015	0.550925
C143	C	1.338445	0.014319	0.884258
C144	C	1.671778	0.347652	1.217591
C145	C	1.001954	-0.322448	0.628708
C146	C	1.335287	0.010885	0.962041
C147	C	1.668620	0.344218	1.295374
C148	C	1.004514	-0.128427	0.375877
C149	C	1.337847	0.204906	0.709210
C150	C	1.671180	0.538239	1.042543
C151	C	1.001101	-0.050644	0.379065
C152	C	1.334435	0.282689	0.712398
C153	C	1.667768	0.616023	1.045731
C154	C	1.019940	-0.302879	0.186581
C155	C	1.353274	0.030454	0.519914
C156	C	1.686607	0.363787	0.853247
C157	C	1.023225	-0.299243	0.108812
C158	C	1.356558	0.034090	0.442146
C159	C	1.689892	0.367424	0.775479
C160	C	1.043260	-0.277493	0.669080
C161	C	1.376593	0.055840	1.002414
C162	C	1.709926	0.389174	1.335747
C163	C	1.040284	-0.280717	0.742165
C164	C	1.373617	0.052616	1.075499
C165	C	1.706951	0.385950	1.408832
C166	C	0.996006	-0.328900	0.774876
C167	C	1.329339	0.004433	1.108210
C168	C	1.662672	0.337767	1.441543
C169	C	0.954695	-0.373857	0.734498
C170	C	1.288028	-0.040524	1.067832
C171	C	1.621362	0.292809	1.401165
C172	C	0.957667	-0.370630	0.661415
C173	C	1.291001	-0.037296	0.994748
C174	C	1.624334	0.296037	1.328081
C175	C	0.984887	-0.340973	0.995350
C176	C	1.318220	-0.007639	1.328684
C177	C	1.651553	0.325694	1.662017
C178	C	0.981919	-0.344198	1.068439
C179	C	1.315252	-0.010865	1.401773
C180	C	1.648586	0.322468	1.735106
C181	C	1.067507	-0.251057	1.076102
C182	C	1.400841	0.082277	1.409435
C183	C	1.734174	0.415610	1.742768
C184	C	1.070479	-0.247836	1.003016
C185	C	1.403812	0.085497	1.336349
C186	C	1.737146	0.418831	1.669683
C187	C	1.029166	-0.292791	0.962644
C188	C	1.362499	0.040543	1.295978
C189	C	1.695832	0.373876	1.629311
C190	C	0.992965	-0.332198	0.849581
C191	C	1.326298	0.001135	1.182914
C192	C	1.659631	0.334469	1.516248
C193	C	1.032203	-0.289489	0.887941
C194	C	1.365537	0.043845	1.221274
C195	C	1.698870	0.377178	1.554608
H196	H	0.505348	-0.366511	0.307717
H197	H	0.838681	-0.033178	0.641051
H198	H	1.172014	0.300155	0.974384
Br199	Br	1.099386	-0.835845	0.288862
Br200	Br	1.432719	-0.502512	0.622195
Br201	Br	1.766053	-0.169178	0.955528
H202	H	0.945860	-0.383437	1.095070
H203	H	1.279194	-0.050103	1.428403
H204	H	1.612527	0.283230	1.761737
Br205	Br	0.538184	-0.231390	0.455318
Br206	Br	0.871517	0.101944	0.788652
Br207	Br	1.204851	0.435277	1.121985
H208	H	0.939752	-0.584280	0.435041
H209	H	1.273086	-0.250947	0.768374
H210	H	1.606419	0.082386	1.101707
Br211	Br	1.140996	-0.720770	0.250641
Br212	Br	1.474330	-0.387436	0.583974
Br213	Br	1.807663	-0.054103	0.917307
Br214	Br	1.111546	-1.054694	0.277836
Br215	Br	1.444880	-0.721361	0.611169
Br216	Br	1.778213	-0.388028	0.944502
H217	H	1.073922	-0.244111	0.775034
H218	H	1.407255	0.089222	1.108367
H219	H	1.740588	0.422556	1.441701
Br220	Br	0.921292	-0.738774	0.452053
Br221	Br	1.254625	-0.405440	0.785386
Br222	Br	1.587958	-0.072107	1.118719
Br223	Br	0.884108	-0.900432	0.486229
Br224	Br	1.217442	-0.567099	0.819563
Br225	Br	1.550775	-0.233765	1.152896
H226	H	0.405362	-0.217227	0.470841
H227	H	0.738695	0.116106	0.804174
H228	H	1.072028	0.449440	1.137508
H229	H	1.079400	-0.904342	0.307203
H230	H	1.412734	-0.571009	0.640536
H231	H	1.746067	-0.237676	0.973870
H232	H	1.106537	-0.208602	0.976388
H233	H	1.439870	0.124732	1.309722
H234	H	1.773204	0.458065	1.643055
Br235	Br	1.123571	-0.190049	1.130895
Br236	Br	1.456904	0.143285	1.464228
Br237	Br	1.790238	0.476618	1.797562
Br238	Br	0.891834	-1.072697	0.479242
Br239	Br	1.225167	-0.739363	0.812576
Br240	Br	1.558500	-0.406030	1.145909
H241	H	0.739259	-0.244313	0.441187
H242	H	1.072592	0.089020	0.774520
H243	H	1.405926	0.422353	1.107854
H244	H	1.108856	-0.570418	0.280014
H245	H	1.442189	-0.237084	0.613347
H246	H	1.775523	0.096249	0.946680
H247	H	0.951257	-0.377588	0.962488
H248	H	1.284591	-0.044255	1.295822
H249	H	1.617924	0.289079	1.629155
Br250	Br	0.894598	-0.439246	0.778891
Br251	Br	1.227931	-0.105912	1.112224
Br252	Br	1.561264	0.227421	1.445557
Br253	Br	1.103360	-0.212103	0.624694
Br254	Br	1.436694	0.121230	0.958027
Br255	Br	1.770027	0.454563	1.291361
Br256	Br	0.774878	-0.421640	0.247436
Br257	Br	1.108211	-0.088307	0.580769
Br258	Br	1.441544	0.245027	0.914103
Br259	Br	0.901603	-0.431639	0.606622
Br260	Br	1.234936	-0.098306	0.939955
Br261	Br	1.568269	0.235028	1.273288
Br262	Br	0.932876	-0.397589	0.893980
Br263	Br	1.266209	-0.064256	1.227314
Br264	Br	1.599542	0.269077	1.560647
Br265	Br	0.250878	-0.200264	0.489402
Br266	Br	0.584211	0.133069	0.822736
Br267	Br	0.917545	0.466403	1.156069
Br268	Br	0.268700	-0.401609	0.269462
Br269	Br	0.602033	-0.068276	0.602796
Br270	Br	0.935367	0.265058	0.936129
Br271	Br	0.440968	-0.394532	0.277066
Br272	Br	0.774302	-0.061198	0.610399
Br273	Br	1.107635	0.272135	0.943732
H274	H	0.606674	-0.249723	0.435295
H275	H	0.940007	0.083611	0.768628
H276	H	1.273340	0.416944	1.101961
H277	H	0.951906	-0.803131	0.424003
H278	H	1.285239	-0.469798	0.757337
H279	H	1.618573	-0.136465	1.090670
H280	H	0.620385	-0.404674	0.265997
H281	H	0.953719	-0.071341	0.599330
H282	H	1.287052	0.261993	0.932663
Br283	Br	1.092284	-0.224090	0.843547
Br284	Br	1.425617	0.109243	1.176880
Br285	Br	1.758951	0.442576	1.510213
