data_functionalizedCrystal
_audit_creation_method	'MofGen! by Chris Wilmer'
_symmetry_space_group_name_H-M	'P1'
_symmetry_Int_Tables_number	1
_symmetry_cell_setting	triclinic
loop_
_symmetry_equiv_pos_as_xyz
  x,y,z
_cell_length_a	16.109302
_cell_length_b	23.532407
_cell_length_c	14.586319
_cell_angle_alpha	89.991566
_cell_angle_beta	89.994552
_cell_angle_gamma	83.155229
loop_
_atom_site_label
_atom_site_type_symbol
_atom_site_fract_x
_atom_site_fract_y
_atom_site_fract_z
O1	O	1.102555	0.073204	-0.076291
O2	O	0.860421	0.082313	-0.076285
O3	O	0.988790	-0.005146	-0.076271
O4	O	0.974187	0.160663	-0.076305
O5	O	0.988781	-0.005147	0.076209
O6	O	0.860412	0.082312	0.076196
O7	O	1.102546	0.073203	0.076190
Cu8	Cu	0.981478	0.077757	0.090116
Cu9	Cu	0.981489	0.077759	-0.090211
O10	O	0.974178	0.160662	0.076176
C11	C	0.829445	0.081944	-0.000044
C12	C	0.737158	0.080837	-0.000041
C13	C	0.524833	0.078278	0.083068
C14	C	0.438121	0.077232	0.083065
C15	C	0.438141	0.077236	-0.083178
C16	C	0.524852	0.078278	-0.083174
C17	C	0.568195	0.078802	-0.000048
C18	C	0.394772	0.076714	-0.000055
C19	C	0.300755	0.075580	-0.000059
C20	C	0.662218	0.079935	-0.000044
C21	C	0.988413	-0.026364	-0.000029
C22	C	0.987295	-0.089585	-0.000022
C23	C	1.056248	-0.488434	-0.000074
C24	C	1.055210	-0.547838	-0.000080
O25	O	1.119130	-0.584347	-0.000116
N26	N	0.978895	-0.570746	-0.000078
C27	C	0.903614	-0.534246	-0.000078
O28	O	0.838607	-0.559186	-0.000077
C29	C	0.904653	-0.474843	-0.000077
C30	C	0.980973	-0.451939	-0.000071
C31	C	1.132562	-0.465529	-0.000068
C32	C	1.133600	-0.406129	-0.000059
C33	C	1.058325	-0.369634	-0.000056
C34	C	0.982011	-0.392539	-0.000062
C35	C	0.829373	-0.438345	-0.000084
C36	C	0.830419	-0.378938	-0.000084
C37	C	0.906739	-0.356034	-0.000077
C38	C	0.907774	-0.296644	-0.000050
N39	N	0.984089	-0.273736	-0.000053
C40	C	1.059364	-0.310231	-0.000056
C41	C	0.901436	-0.658997	-0.000080
C42	C	0.900396	-0.718398	-0.000074
C43	C	1.051993	-0.731986	-0.000078
C44	C	1.053032	-0.672583	-0.000078
C45	C	0.977751	-0.636089	-0.000083
C46	C	1.061539	-0.185486	-0.000037
C47	C	1.062571	-0.126080	-0.000024
C48	C	0.910975	-0.112498	-0.000025
C49	C	0.909943	-0.171898	-0.000032
C50	C	0.985232	-0.208392	-0.000042
O51	O	0.843887	-0.260100	-0.000019
O52	O	1.124361	-0.285283	-0.000069
C53	C	1.133522	0.073572	-0.000054
C54	C	1.225809	0.074679	-0.000063
C55	C	0.974554	0.181880	-0.000069
C56	C	0.975672	0.245101	-0.000082
N57	N	0.981477	0.077756	0.216947
N58	N	0.981497	0.077756	-0.217042
C59	C	1.038337	0.039042	0.451960
C60	C	1.038340	0.039040	0.547941
C61	C	0.924631	0.116472	0.547938
C62	C	0.924625	0.116470	0.451959
C63	C	0.981483	0.077756	0.403972
C64	C	0.981491	0.077756	0.595933
C65	C	0.981493	0.077755	0.700000
C66	C	0.981480	0.077756	0.299898
H67	H	0.402840	0.076811	-0.150856
C68	C	0.571782	0.078875	-0.173516
C69	C	0.515263	0.078214	-0.246315
C70	C	0.558464	0.078768	-0.329547
H71	H	0.612225	0.046100	-0.177093
H72	H	0.598974	0.112485	-0.177022
H73	H	0.488085	0.044607	-0.242811
H74	H	0.474819	0.110987	-0.242768
H75	H	0.585655	0.112378	-0.333053
H76	H	0.598905	0.045993	-0.333114
H77	H	0.520122	0.078325	-0.378950
C78	C	0.827145	-0.196850	-0.000175
C79	C	0.822135	-0.230553	-0.078620
C80	C	0.745879	-0.253550	-0.078785
H81	H	0.782389	-0.166665	-0.000215
H82	H	0.823578	-0.219783	0.052965
H83	H	0.825694	-0.207621	-0.131746
H84	H	0.866873	-0.260747	-0.078596
H85	H	0.742312	-0.276483	-0.025646
H86	H	0.701130	-0.223362	-0.078823
H87	H	0.742473	-0.276424	-0.132005
C88	C	0.863001	0.158482	0.600206
C89	C	0.875190	0.150210	0.694533
C90	C	0.818441	0.188906	0.742708
H91	H	0.807528	0.152324	0.584602
H92	H	0.871723	0.196504	0.584514
H93	H	0.866461	0.112197	0.710219
H94	H	0.930651	0.156371	0.710165
H95	H	0.827163	0.226928	0.727016
H96	H	0.762971	0.182746	0.727096
H97	H	0.826708	0.183302	0.806713
C98	C	0.572037	0.078870	0.173220
C99	C	0.657254	0.079910	0.155439
C100	C	0.700761	0.080461	0.238466
H101	H	0.564536	0.045517	0.207442
H102	H	0.551252	0.111902	0.207378
H103	H	0.678033	0.046882	0.121296
H104	H	0.664781	0.113261	0.121231
H105	H	0.679975	0.113493	0.272624
H106	H	0.693252	0.047107	0.272681
H107	H	0.758583	0.081172	0.226413
C108	C	0.391185	0.076696	0.173403
C109	C	0.447703	0.077392	0.246196
C110	C	0.404496	0.076905	0.329432
H111	H	0.363971	0.043108	0.176995
H112	H	0.350757	0.109493	0.176901
H113	H	0.488117	0.044598	0.242700
H114	H	0.474920	0.110978	0.242634
H115	H	0.364068	0.109702	0.332930
H116	H	0.377284	0.043316	0.333015
H117	H	0.442836	0.077383	0.378832
C118	C	0.829161	-0.072962	0.000016
C119	C	0.762097	-0.105730	0.000029
C120	C	0.686718	-0.069329	0.000069
H121	H	0.826313	-0.049491	-0.053144
H122	H	0.826363	-0.049519	0.053210
H123	H	0.764894	-0.129164	-0.053159
H124	H	0.764917	-0.129201	0.053185
H125	H	0.683920	-0.045885	0.053263
H126	H	0.683878	-0.045859	-0.053092
H127	H	0.641206	-0.091556	0.000087
H128	H	0.878323	0.147996	0.412885
C129	C	1.133698	-0.771643	-0.000282
C130	C	1.137532	-0.806121	-0.078748
C131	C	1.212786	-0.842655	-0.078974
H132	H	1.136523	-0.795161	0.052824
H133	H	1.179326	-0.749517	-0.000333
H134	H	1.091917	-0.828245	-0.078689
H135	H	1.134721	-0.782619	-0.131868
H136	H	1.258414	-0.820529	-0.079025
H137	H	1.215604	-0.866169	-0.025864
H138	H	1.215401	-0.866049	-0.132216
C139	C	1.145522	-0.101324	-0.000068
C140	C	1.211220	-0.146004	-0.000101
C141	C	1.287643	-0.123223	-0.000156
H142	H	1.149199	-0.078450	0.053093
H143	H	1.149127	-0.078443	-0.053261
H144	H	1.207617	-0.168876	0.053086
H145	H	1.207571	-0.168883	-0.053258
H146	H	1.291249	-0.100342	-0.053348
H147	H	1.291311	-0.100349	0.053007
H148	H	1.332228	-0.153534	-0.000186
C149	C	1.143255	-0.225129	-0.000230
C150	C	1.147116	-0.259611	-0.078692
C151	C	1.222384	-0.296131	-0.078901
H152	H	1.146080	-0.248645	0.052879
H153	H	1.188872	-0.202993	-0.000273
H154	H	1.101512	-0.281745	-0.078640
H155	H	1.144305	-0.236110	-0.131814
H156	H	1.268000	-0.273995	-0.078944
H157	H	1.225203	-0.319643	-0.025788
H158	H	1.225017	-0.319527	-0.132140
H159	H	1.193864	-0.495238	-0.000074
C160	C	1.216549	-0.381377	-0.000107
C161	C	1.282240	-0.426061	-0.000137
C162	C	1.358669	-0.403286	-0.000197
H163	H	1.220230	-0.358501	0.053052
H164	H	1.220157	-0.358498	-0.053302
H165	H	1.278634	-0.448930	0.053052
H166	H	1.278587	-0.448941	-0.053292
H167	H	1.362277	-0.380408	-0.053392
H168	H	1.362341	-0.380411	0.052963
H169	H	1.403249	-0.433601	-0.000226
H170	H	1.115178	-0.653939	-0.000073
C171	C	1.099937	-0.003057	0.600090
C172	C	1.055945	-0.037940	0.655189
C173	C	1.112662	-0.076734	0.703231
H174	H	1.134398	0.017370	0.637597
H175	H	1.133784	-0.026145	0.557791
H176	H	1.022113	-0.014854	0.697483
H177	H	1.021488	-0.058379	0.617704
H178	H	1.146509	-0.099822	0.660932
H179	H	1.147120	-0.056302	0.740733
H180	H	1.082822	-0.100410	0.740615
C181	C	1.099965	-0.003099	0.399931
C182	C	1.086908	-0.059055	0.423310
C183	C	1.143656	-0.097898	0.375404
H184	H	1.155437	0.003015	0.415618
H185	H	1.091833	0.002392	0.335882
H186	H	1.095047	-0.064543	0.487344
H187	H	1.031447	-0.065186	0.407620
H188	H	1.135524	-0.092408	0.311355
H189	H	1.199124	-0.091780	0.391095
H190	H	1.134799	-0.135869	0.391253
C191	C	0.817448	-0.743152	-0.000117
C192	C	0.751754	-0.698469	-0.000135
C193	C	0.675328	-0.721247	-0.000194
H194	H	0.813765	-0.766041	0.053038
H195	H	0.813846	-0.766018	-0.053316
H196	H	0.755354	-0.675613	0.053058
H197	H	0.755409	-0.675577	-0.053287
H198	H	0.671726	-0.744113	-0.053392
H199	H	0.671653	-0.744136	0.052963
H200	H	0.630745	-0.690934	-0.000214
H201	H	0.840130	-0.629285	-0.000076
C202	C	0.746423	-0.463091	-0.000143
C203	C	0.680734	-0.418405	-0.000170
C204	C	0.604304	-0.441178	-0.000239
H205	H	0.742731	-0.485979	0.053012
H206	H	0.742824	-0.485957	-0.053341
H207	H	0.684331	-0.395549	0.053023
H208	H	0.684399	-0.395514	-0.053322
H209	H	0.600705	-0.464045	-0.053437
H210	H	0.600621	-0.464066	0.052917
H211	H	0.559725	-0.410863	-0.000266
H212	H	0.769115	-0.349227	-0.000089
