data_functionalizedCrystal
_audit_creation_method	'MofGen! by Chris Wilmer'
_symmetry_space_group_name_H-M	'P1'
_symmetry_Int_Tables_number	1
_symmetry_cell_setting	triclinic
loop_
_symmetry_equiv_pos_as_xyz
  x,y,z
_cell_length_a	12.645331
_cell_length_b	12.645324
_cell_length_c	12.645330
_cell_angle_alpha	89.967451
_cell_angle_beta	90.011364
_cell_angle_gamma	89.977038
loop_
_atom_site_label
_atom_site_type_symbol
_atom_site_fract_x
_atom_site_fract_y
_atom_site_fract_z
Zn1	Zn	1.620773	-0.599441	-0.421988
Zn2	Zn	1.620671	-0.422178	-0.599297
Zn3	Zn	1.443487	-0.422185	-0.422045
Zn4	Zn	1.443486	-0.599394	-0.599206
O5	O	1.532104	-0.510799	-0.510634
O6	O	1.769107	-0.575943	-0.445522
O7	O	1.597124	-0.273832	-0.575846
O8	O	1.467048	-0.445721	-0.273690
O9	O	1.769031	-0.445709	-0.575790
O10	O	1.597299	-0.575950	-0.273648
O11	O	1.466948	-0.273837	-0.445620
O12	O	1.295140	-0.445675	-0.445532
O13	O	1.467046	-0.747747	-0.575636
O14	O	1.295139	-0.575870	-0.575692
O15	O	1.597298	-0.747782	-0.445434
O16	O	1.597123	-0.445664	-0.747632
O17	O	1.466947	-0.575863	-0.747566
C18	C	1.256675	-0.510769	-0.510609
C19	C	1.138845	-0.510781	-0.510624
C20	C	0.971245	-0.429327	-0.428363
C21	C	1.093805	-0.428968	-0.428576
C22	C	1.094334	-0.480264	-0.622301
C23	C	0.971736	-0.479709	-0.621852
C24	C	0.971693	-0.623065	-0.482269
C25	C	1.094299	-0.622441	-0.479774
C26	C	1.532184	-0.787305	-0.510519
C27	C	1.532218	-0.905135	-0.510470
C28	C	1.614478	-1.072721	-0.428797
C29	C	1.614215	-0.950161	-0.428502
C30	C	1.420533	-0.949613	-0.480110
C31	C	1.421032	-1.072212	-0.479490
C32	C	1.560735	-1.072331	-0.622621
C33	C	1.563179	-0.949726	-0.622057
C34	C	1.808609	-0.510831	-0.510660
C35	C	1.926440	-0.510844	-0.510671
C36	C	1.532052	-0.510781	-0.786064
C37	C	1.532127	-0.510808	-0.903894
C38	C	1.532086	-0.235370	-0.510672
C39	C	1.532258	-0.117540	-0.510423
C40	C	1.614115	-0.428970	-0.948773
C41	C	1.613927	-0.428678	-1.071333
C42	C	1.420411	-0.480788	-1.071902
C43	C	1.420832	-0.480164	-0.949304
C44	C	1.560991	-0.622934	-0.948961
C45	C	1.563509	-0.622365	-1.071566
C46	C	1.532185	-0.510841	-0.234129
C47	C	1.532220	-0.510859	-0.116299
H48	H	0.942720	-0.683802	-0.542218
F49	F	1.482958	-0.702634	-0.911004
H50	H	0.941774	-0.448249	-0.345301
H51	H	1.123898	-0.448096	-0.345763
F52	F	1.491219	-0.706328	-1.111565
F53	F	1.338279	-0.911500	-0.555435
H54	H	1.123085	-0.345808	-0.447349
F55	F	0.930909	-0.321272	-0.452612
F56	F	1.722777	-0.453224	-0.910150
H57	H	1.645369	-0.920654	-0.644951
F58	F	1.132343	-0.652530	-0.372363
H59	H	0.943092	-0.397669	-0.645936
F60	F	1.388907	-0.373048	-0.912042
F61	F	1.589419	-0.320995	-0.908620
H62	H	1.594825	-0.345613	-1.100749
F63	F	1.671052	-0.652019	-1.109492
H64	H	0.942098	-0.536493	-0.685254
F65	F	1.665718	-0.658743	-0.908459
H66	H	1.123510	-0.537774	-0.685266
F67	F	1.134401	-0.374183	-0.654324
H68	H	0.940789	-0.650818	-0.402255
H69	H	1.595864	-1.103545	-0.346142
F70	F	1.134372	-0.706076	-0.552418
F71	F	1.388405	-0.909504	-0.374101
H72	H	1.507647	-0.919072	-0.686148
F73	F	1.722464	-0.910853	-0.453340
H74	H	1.396893	-1.100822	-0.397473
H75	H	1.697569	-1.102213	-0.447571
F76	F	1.338224	-1.110966	-0.553804
H77	H	1.357650	-0.537195	-0.919618
H78	H	1.595358	-0.920849	-0.345387
F79	F	1.665366	-1.112758	-0.658709
F80	F	1.338419	-0.556320	-1.109972
F81	F	1.482459	-1.110210	-0.702116
H82	H	1.395592	-0.399749	-1.102697
F83	F	1.722277	-0.453246	-1.110567
