data_functionalizedCrystal
_audit_creation_method	'MofGen! by Chris Wilmer'
_symmetry_space_group_name_H-M	'P1'
_symmetry_Int_Tables_number	1
_symmetry_cell_setting	triclinic
loop_
_symmetry_equiv_pos_as_xyz
  x,y,z
_cell_length_a	9.065218
_cell_length_b	9.482900
_cell_length_c	9.065218
_cell_angle_alpha	80.524781
_cell_angle_beta	85.015885
_cell_angle_gamma	99.429133
loop_
_atom_site_label
_atom_site_type_symbol
_atom_site_fract_x
_atom_site_fract_y
_atom_site_fract_z
O1	O	1.983090	0.120893	0.193561
O2	O	2.483090	0.620893	0.693561
O3	O	1.553806	0.120895	0.211307
O4	O	2.053806	0.620895	0.711307
O5	O	1.777321	0.120891	-0.012208
O6	O	2.277321	0.620891	0.487792
O7	O	1.759575	0.120897	0.417076
O8	O	2.259575	0.620897	0.917076
O9	O	1.731922	-0.120901	0.033378
O10	O	2.231922	0.379099	0.533378
O11	O	1.508407	-0.120897	0.256893
O12	O	2.008407	0.379103	0.756893
O13	O	1.937692	-0.120899	0.239147
O14	O	2.437692	0.379101	0.739147
Cu15	Cu	1.718904	-0.142975	0.252182
Cu16	Cu	2.218904	0.357025	0.752182
Cu17	Cu	1.772593	0.142971	0.198272
Cu18	Cu	2.272593	0.642971	0.698272
O19	O	1.714177	-0.120895	0.462661
O20	O	2.214177	0.379105	0.962661
C21	C	1.476120	-0.000001	0.232394
C22	C	1.976120	0.499999	0.732394
C23	C	1.312277	-0.000000	0.227295
C24	C	1.812277	0.500000	0.727295
N25	N	1.681153	-0.344095	0.290099
N26	N	2.181153	0.155905	0.790099
C27	C	1.761448	-0.416296	0.209448
C28	C	2.261448	0.083704	0.709448
C29	C	1.730049	-0.583712	0.241007
C30	C	2.230049	-0.083712	0.741007
C31	C	2.015378	0.000000	0.218059
C32	C	2.515378	0.500000	0.718059
C33	C	2.179223	0.000009	0.223157
C34	C	2.679223	0.500009	0.723157
C35	C	1.752916	-0.000003	-0.044402
C36	C	2.252916	0.499997	0.455598
C37	C	1.747818	0.000004	-0.208246
C38	C	2.247818	0.500004	0.291754
N39	N	1.810356	0.344091	0.160343
N40	N	2.310356	0.844091	0.660343
C41	C	1.738582	0.000002	0.494855
C42	C	2.238582	0.500002	0.994855
C43	C	1.743682	0.000004	0.658698
C44	C	2.243682	0.500004	1.158698
H45	H	1.853432	-0.354169	0.117029
H46	H	2.353432	0.145831	0.617029
Cl47	Cl	1.588008	-0.679618	0.383687
Cl48	Cl	2.088008	-0.179618	0.883687
Cl49	Cl	1.952710	-0.560007	0.017973
Cl50	Cl	2.452710	-0.060007	0.517973
Cl51	Cl	1.539118	-0.440006	0.432773
Cl52	Cl	2.039118	0.059994	0.932773
