data_functionalizedCrystal
_audit_creation_method	'MofGen! by Chris Wilmer'
_symmetry_space_group_name_H-M	'P1'
_symmetry_Int_Tables_number	1
_symmetry_cell_setting	triclinic
loop_
_symmetry_equiv_pos_as_xyz
  x,y,z
_cell_length_a	17.640280
_cell_length_b	17.639504
_cell_length_c	16.959447
_cell_angle_alpha	101.237346
_cell_angle_beta	78.773258
_cell_angle_gamma	92.181381
loop_
_atom_site_label
_atom_site_type_symbol
_atom_site_fract_x
_atom_site_fract_y
_atom_site_fract_z
Zn1	Zn	-0.067982	-1.222232	-0.680738
Zn2	Zn	-0.194997	-1.247854	-0.528101
Zn3	Zn	-0.093643	-1.095242	-0.517673
Zn4	Zn	-0.220569	-1.120889	-0.629360
O5	O	-0.144297	-1.171554	-0.588968
O6	O	-0.063390	-1.331912	-0.686357
O7	O	-0.181589	-1.227600	-0.416097
O8	O	0.016037	-1.090631	-0.556441
O9	O	-0.156707	-1.350736	-0.574215
O10	O	0.034889	-1.183930	-0.676245
O11	O	-0.107125	-1.115476	-0.408436
O12	O	-0.131921	-0.992363	-0.506622
O13	O	-0.200291	-1.134342	-0.746796
O14	O	-0.225173	-1.011206	-0.588678
O15	O	-0.088186	-1.208799	-0.784543
O16	O	-0.304664	-1.252468	-0.524396
O17	O	-0.323452	-1.159187	-0.598790
C18	C	-0.184107	-0.974227	-0.540944
C19	C	-0.201155	-0.889813	-0.520414
C20	C	-0.014708	-0.563236	-0.745119
C21	C	-0.030747	-0.483921	-0.725810
C22	C	-0.127757	-0.503512	-0.608917
C23	C	-0.111729	-0.582832	-0.628219
C24	C	-0.055203	-0.612687	-0.696320
C25	C	-0.152224	-0.632282	-0.579420
C26	C	-0.136194	-0.711594	-0.598718
C27	C	-0.079669	-0.741456	-0.666815
C28	C	-0.039173	-0.691999	-0.715619
C29	C	-0.208746	-0.602425	-0.511316
C30	C	-0.249241	-0.651875	-0.462517
C31	C	-0.233215	-0.731189	-0.481818
C32	C	-0.176690	-0.761051	-0.549915
C33	C	-0.273711	-0.780646	-0.433015
C34	C	-0.257681	-0.859958	-0.452313
C35	C	-0.160660	-0.840363	-0.569213
C36	C	-0.341610	-1.211412	-0.557172
C37	C	-0.426007	-1.228532	-0.543612
C38	C	-0.752665	-1.041802	-0.692339
C39	C	-0.831969	-1.057891	-0.679573
C40	C	-0.812328	-1.155085	-0.602224
C41	C	-0.733020	-1.139006	-0.614986
C42	C	-0.703196	-1.082364	-0.660044
C43	C	-0.683551	-1.179568	-0.582691
C44	C	-0.604251	-1.163488	-0.595449
C45	C	-0.574421	-1.106846	-0.640503
C46	C	-0.623896	-1.066284	-0.672802
C47	C	-0.713378	-1.236207	-0.537628
C48	C	-0.663908	-1.276768	-0.505333
C49	C	-0.584606	-1.260692	-0.518096
C50	C	-0.554776	-1.204051	-0.563150
C51	C	-0.535131	-1.301255	-0.485797
C52	C	-0.455831	-1.285175	-0.498555
C53	C	-0.475476	-1.187971	-0.575908
C54	C	0.053789	-1.131562	-0.620911
C55	C	0.138202	-1.114519	-0.634523
C56	C	-0.144228	-1.171573	-0.795154
C57	C	-0.144199	-1.171581	-0.883018
C58	C	-0.104322	-0.369650	-0.637179
C59	C	-0.087259	-0.454061	-0.657721
C60	C	-0.202468	-1.132890	-1.234878
C61	C	-0.085733	-1.210422	-1.274180
C62	C	-0.085753	-1.210405	-1.191626
C63	C	-0.144132	-1.171631	-1.130695
C64	C	-0.202491	-1.132874	-1.152317
C65	C	-0.027399	-1.249168	-1.169998
C66	C	-0.027417	-1.249153	-1.087441
C67	C	-0.085794	-1.210374	-1.026507
C68	C	-0.144155	-1.171614	-1.048133
C69	C	-0.202535	-1.132840	-0.987202
C70	C	-0.260894	-1.094076	-1.008826
C71	C	-0.260868	-1.094094	-1.091383
C72	C	-0.085819	-1.210355	-0.943950
C73	C	-0.202558	-1.132824	-0.904640
C74	C	-0.144303	-1.171568	-0.383603
C75	C	-0.144089	-1.171664	-0.295810
H76	H	-0.295262	-0.627555	-0.407067
H77	H	-0.114634	-0.864673	-0.624671
H78	H	-0.038306	-1.241919	-0.926347
H79	H	0.002237	-0.443658	-0.765549
H80	H	-0.173779	-0.479192	-0.553467
H81	H	-0.451191	-1.141852	-0.612606
Cl82	Cl	-0.344761	-0.743102	-0.347398
Cl83	Cl	-0.334230	-1.045372	-1.118575
H84	H	0.006853	-0.716309	-0.771076
H85	H	0.031318	-0.587546	-0.800577
Cl86	Cl	-0.308597	-0.922130	-0.390972
H87	H	-0.308429	-1.062510	-0.959205
Cl88	Cl	-0.715164	-0.970600	-0.748994
H89	H	-0.872244	-1.024865	-0.705887
Cl90	Cl	-0.849829	-1.226292	-0.545584
H91	H	-0.221779	-0.537840	-0.495591
H92	H	0.020127	-1.280741	-1.219614
H93	H	-0.509850	-1.093750	-0.650883
H94	H	-0.250093	-1.101241	-0.855032
H95	H	-0.599611	-1.020165	-0.709500
H96	H	-0.777949	-1.249299	-0.527245
H97	H	-0.688203	-1.322885	-0.468644
Cl98	Cl	-0.275828	-1.084157	-1.262061
Cl99	Cl	-0.572636	-1.372455	-0.429149
H100	H	-0.038206	-1.241995	-1.323795
H101	H	-0.415552	-1.318204	-0.472255
H102	H	-0.066616	-0.806036	-0.682524
Cl103	Cl	0.045949	-1.297881	-1.060263
