data_functionalizedCrystal
_audit_creation_method	'MofGen! by Chris Wilmer'
_symmetry_space_group_name_H-M	'P1'
_symmetry_Int_Tables_number	1
_symmetry_cell_setting	triclinic
loop_
_symmetry_equiv_pos_as_xyz
  x,y,z
_cell_length_a	10.654549
_cell_length_b	8.597249
_cell_length_c	9.730223
_cell_angle_alpha	97.699473
_cell_angle_beta	89.997731
_cell_angle_gamma	84.910011
loop_
_atom_site_label
_atom_site_type_symbol
_atom_site_fract_x
_atom_site_fract_y
_atom_site_fract_z
O1	O	1.669009	0.220461	-0.088146
O2	O	1.303642	0.241466	-0.085668
O3	O	1.493517	0.002575	-0.113949
O4	O	1.479134	0.459351	-0.059865
O5	O	1.493504	0.002569	0.114630
O6	O	1.303630	0.241459	0.142911
O7	O	1.668997	0.220454	0.140433
Zn8	Zn	1.486311	0.230955	0.177964
Zn9	Zn	1.486327	0.230964	-0.123199
O10	O	1.479122	0.459344	0.168714
C11	C	1.256830	0.239920	0.028438
C12	C	1.117362	0.235306	0.027888
C13	C	0.907570	0.371614	0.044033
C14	C	1.038614	0.375961	0.044539
C15	C	1.065060	0.090294	0.010715
C16	C	0.934019	0.085949	0.010199
C17	C	1.491966	-0.055916	-0.006587
C18	C	1.487350	-0.230193	-0.027231
C19	C	1.715809	0.221999	0.026324
C20	C	1.855277	0.226613	0.026865
C21	C	1.480672	0.517836	0.061350
C22	C	1.485289	0.692112	0.081984
N23	N	1.486309	0.230949	0.383500
N24	N	1.486339	0.230959	-0.328736
C25	C	1.570415	0.125213	0.442908
C26	C	1.570428	0.125214	0.586791
C27	C	1.402224	0.336699	0.611846
C28	C	1.402207	0.336690	0.467965
H29	H	1.081184	0.494035	0.058517
C30	C	0.876488	-0.073564	-0.008685
C31	C	0.790025	-0.115833	0.105000
C32	C	0.732494	-0.275337	0.086111
C33	C	0.761425	-0.392573	-0.046464
C34	C	0.847893	-0.350306	-0.160159
C35	C	0.905424	-0.190802	-0.141269
H36	H	0.768604	-0.029046	0.203148
H37	H	0.668485	-0.306625	0.170276
H38	H	0.718837	-0.510647	-0.060447
H39	H	0.869313	-0.437093	-0.258307
H40	H	0.969433	-0.159514	-0.225434
C41	C	1.484971	-0.320444	-0.174889
C42	C	1.590771	-0.449693	-0.224337
C43	C	1.588392	-0.539944	-0.371991
C44	C	1.480213	-0.500945	-0.470198
C45	C	1.374404	-0.371689	-0.420752
C46	C	1.376783	-0.281438	-0.273097
H47	H	1.670859	-0.478569	-0.151637
H48	H	1.666719	-0.635628	-0.408594
H49	H	1.478452	-0.567753	-0.579500
H50	H	1.294316	-0.342813	-0.493451
H51	H	1.298456	-0.185754	-0.236494
H52	H	1.638895	0.039110	0.374139
H53	H	1.638913	0.039112	0.635156
H54	H	1.333711	0.422793	0.419592
H55	H	0.843462	0.486152	0.057603
C56	C	1.151681	-0.064429	-0.007603
C57	C	1.245396	-0.100725	0.106800
C58	C	1.332015	-0.255452	0.088486
C59	C	1.324919	-0.373881	-0.044232
C60	C	1.231201	-0.337588	-0.158645
C61	C	1.144581	-0.182861	-0.140331
H62	H	1.250652	-0.013054	0.205054
H63	H	1.401391	-0.282318	0.173182
H64	H	1.389040	-0.488419	-0.057790
H65	H	1.225944	-0.425259	-0.256900
H66	H	1.075205	-0.155995	-0.225028
C67	C	1.309724	0.453023	0.704759
C68	C	1.309810	0.453138	0.863036
C69	C	1.217310	0.569470	0.955945
C70	C	1.124723	0.685687	0.890578
C71	C	1.124634	0.685577	0.732293
C72	C	1.217134	0.569245	0.639384
H73	H	1.378351	0.367103	0.911432
H74	H	1.217376	0.569551	1.073118
H75	H	1.056249	0.771803	0.959355
H76	H	1.056093	0.771612	0.683897
H77	H	1.217068	0.569164	0.522211
H78	H	1.487057	-0.241079	0.191274
