data_functionalizedCrystal
_audit_creation_method	'MofGen! by Chris Wilmer'
_symmetry_space_group_name_H-M	'P1'
_symmetry_Int_Tables_number	1
_symmetry_cell_setting	triclinic
loop_
_symmetry_equiv_pos_as_xyz
  x,y,z
_cell_length_a	17.077404
_cell_length_b	12.759394
_cell_length_c	17.077396
_cell_angle_alpha	90.024622
_cell_angle_beta	90.018362
_cell_angle_gamma	90.011826
loop_
_atom_site_label
_atom_site_type_symbol
_atom_site_fract_x
_atom_site_fract_y
_atom_site_fract_z
Zn1	Zn	1.200104	-0.418323	0.443840
Zn2	Zn	1.200032	-0.594024	0.312583
Zn3	Zn	1.068836	-0.418353	0.312590
Zn4	Zn	1.068824	-0.593955	0.443809
O5	O	1.134449	-0.506164	0.378206
O6	O	1.309941	-0.441647	0.426438
O7	O	1.182603	-0.570762	0.202737
O8	O	1.086284	-0.271328	0.330017
O9	O	1.309888	-0.570733	0.330004
O10	O	1.182726	-0.271306	0.426446
O11	O	1.086214	-0.441698	0.202742
O12	O	0.958987	-0.441631	0.329987
O13	O	1.086264	-0.570615	0.553660
O14	O	0.958979	-0.570644	0.426393
O15	O	1.182715	-0.441580	0.553683
O16	O	1.182592	-0.741036	0.329974
O17	O	1.086194	-0.740985	0.426385
C18	C	0.930501	-0.506134	0.378188
C19	C	0.843251	-0.506147	0.378199
C20	C	0.802289	-0.439051	0.428489
C21	C	0.720309	-0.439058	0.428493
C22	C	0.679292	-0.506166	0.378210
C23	C	0.720259	-0.573265	0.327914
C24	C	0.802238	-0.573252	0.327907
C25	C	0.549389	-0.573289	0.327934
C26	C	0.467405	-0.573303	0.327942
C27	C	0.467460	-0.439094	0.428519
C28	C	0.549439	-0.439081	0.428512
C29	C	0.590401	-0.506182	0.378217
C30	C	1.134405	-0.779131	0.378193
C31	C	1.134458	-0.895908	0.378213
C32	C	1.234808	-0.895727	0.478699
C33	C	1.285008	-0.950497	0.528948
C34	C	1.285055	-1.060219	0.528965
C35	C	1.234895	-1.115173	0.478730
C36	C	1.184695	-1.060402	0.428481
C37	C	1.184655	-0.950678	0.428467
C38	C	1.084342	-1.060584	0.328000
C39	C	1.084298	-0.950862	0.327977
C40	C	1.034182	-1.115537	0.277764
C41	C	0.983985	-1.060767	0.227510
C42	C	0.983941	-0.951039	0.227494
C43	C	1.034098	-0.896092	0.277728
C44	C	1.339193	-0.506195	0.378224
C45	C	1.426443	-0.506208	0.378231
C46	C	1.134496	-0.506086	0.582950
C47	C	1.134517	-0.506053	0.670200
C48	C	1.134514	-0.232130	0.378236
C49	C	1.134542	-0.115354	0.378249
C50	C	1.134447	-0.506165	0.174258
C51	C	1.134579	-0.505902	0.087008
C52	C	1.184740	-0.438859	0.711203
C53	C	1.184750	-0.438824	0.793183
C54	C	1.134539	-0.505990	0.834159
C55	C	1.084310	-0.573187	0.793150
C56	C	1.084297	-0.573216	0.711171
C57	C	1.084341	-0.573124	0.964020
C58	C	1.084355	-0.573097	1.046005
C59	C	1.184794	-0.438732	1.046033
C60	C	1.184781	-0.438761	0.964054
C61	C	1.134553	-0.505960	0.923050
H62	H	0.835588	-0.627888	0.286955
C63	C	1.029750	-0.646301	0.666792
C64	C	0.985799	-0.705143	0.720221
C65	C	0.935550	-0.772494	0.679368
H66	H	0.995479	-0.606246	0.634803
H67	H	1.059753	-0.692146	0.634832
H68	H	0.955798	-0.659304	0.752167
H69	H	1.020048	-0.745220	0.752210
H70	H	0.965553	-0.818339	0.647409
H71	H	0.901285	-0.732431	0.647381
H72	H	0.905729	-0.812434	0.715613
C73	C	1.339492	-0.891022	0.583578
C74	C	1.383447	-0.962473	0.627603
C75	C	1.433634	-0.907728	0.677946
H76	H	1.373763	-0.848203	0.553663
H77	H	1.309444	-0.848247	0.617791
H78	H	1.413493	-1.005230	0.593393
H79	H	1.349197	-1.005294	0.657533
H80	H	1.403586	-0.864953	0.712159
H81	H	1.467900	-0.864911	0.648025
H82	H	1.463458	-0.956199	0.707827
C83	C	1.034086	-1.234664	0.277693
C84	C	0.979402	-1.271064	0.222960
C85	C	0.979285	-1.380798	0.222877
H86	H	1.084711	-1.259578	0.264132
H87	H	1.020460	-1.259498	0.328328
H88	H	0.993033	-1.246241	0.172336
H89	H	0.928769	-1.246180	0.236508
H90	H	0.965659	-1.405631	0.273511
H91	H	1.029912	-1.405701	0.209317
H92	H	0.942178	-1.405509	0.185746
C93	C	0.423089	-0.366067	0.483077
C94	C	0.443049	-0.262086	0.466133
C95	C	0.402194	-0.194793	0.516383
H96	H	0.368380	-0.375539	0.475927
H97	H	0.436559	-0.381473	0.535811
H98	H	0.429574	-0.246685	0.413412
H99	H	0.497751	-0.252580	0.473288
H100	H	0.415664	-0.210198	0.569117
H101	H	0.347486	-0.204274	0.509229
H102	H	0.415736	-0.124235	0.504899
H103	H	0.582833	-0.384442	0.469461
H104	H	0.943059	-0.906451	0.186578
H105	H	1.034071	-0.806751	0.277717
C106	C	1.239326	-0.365726	0.919705
C107	C	1.283301	-0.306848	0.973158
C108	C	1.333547	-0.239545	0.932333
H109	H	1.273581	-0.405817	0.887722
H110	H	1.209319	-0.319901	0.887743
H111	H	1.313306	-0.352667	1.005107
H112	H	1.249067	-0.266736	1.005143
H113	H	1.303541	-0.193721	0.900371
H114	H	1.367797	-0.279645	0.900351
H115	H	1.363385	-0.199583	0.968594
H116	H	0.434011	-0.627950	0.286997
C117	C	0.593722	-0.646261	0.273303
C118	C	0.540257	-0.705061	0.229286
C119	C	0.581068	-0.772307	0.178966
H120	H	0.625697	-0.606133	0.239077
H121	H	0.625692	-0.692138	0.303258
H122	H	0.508301	-0.659190	0.199333
H123	H	0.508281	-0.745211	0.263491
H124	H	0.613038	-0.818183	0.208921
H125	H	0.613041	-0.732170	0.144746
H126	H	0.544798	-0.812217	0.149100
H127	H	1.225691	-0.384014	1.079421
C128	C	0.929399	-1.120375	0.173071
C129	C	0.851713	-1.093764	0.190108
C130	C	0.801406	-1.148669	0.139981
H131	H	0.940802	-1.102480	0.120307
H132	H	0.936559	-1.193575	0.180289
H133	H	0.844556	-1.020581	0.182883
H134	H	0.840285	-1.111662	0.242863
H135	H	0.808567	-1.221868	0.147199
H136	H	0.812816	-1.130769	0.087219
H137	H	0.748690	-1.130628	0.151538
H138	H	1.325924	-1.104813	0.569891
C139	C	1.239350	-0.366106	0.666676
C140	C	1.289657	-0.425613	0.619626
C141	C	1.339979	-0.358625	0.578606
H142	H	1.209416	-0.320318	0.634633
H143	H	1.269307	-0.326098	0.702814
H144	H	1.259703	-0.465604	0.583492
H145	H	1.319608	-0.471399	0.651649
H146	H	1.369936	-0.318616	0.614744
H147	H	1.310039	-0.312839	0.546568
H148	H	1.374123	-0.398990	0.546684
C149	C	0.846719	-0.366251	0.483212
C150	C	0.826791	-0.389246	0.560849
C151	C	0.867694	-0.322192	0.611281
H152	H	0.901422	-0.375786	0.476115
H153	H	0.833268	-0.295625	0.471861
H154	H	0.840248	-0.459855	0.572196
H155	H	0.772095	-0.379704	0.567971
H156	H	0.854243	-0.251566	0.599930
H157	H	0.922395	-0.331732	0.604176
H158	H	0.854173	-0.337778	0.663962
C159	C	1.029751	-0.646053	1.090354
C160	C	0.985741	-0.704883	1.036901
C161	C	0.935424	-0.772092	1.077726
H162	H	1.059684	-0.691919	1.122335
H163	H	0.995527	-0.605863	1.122318
H164	H	1.019960	-0.745071	1.004950
H165	H	0.955792	-0.659045	1.004918
H166	H	0.901201	-0.731901	1.109690
H167	H	0.965363	-0.817951	1.109705
H168	H	0.905552	-0.812009	1.041464
H169	H	1.225649	-0.384110	0.826565
H170	H	0.686962	-0.384423	0.469445
C171	C	1.234850	-0.776600	0.478821
C172	C	1.289508	-0.740197	0.533579
C173	C	1.289562	-0.630463	0.533722
H174	H	1.248466	-0.751679	0.428218
H175	H	1.184193	-0.751777	0.492392
H176	H	1.340155	-0.765009	0.520004
H177	H	1.275905	-0.765089	0.584190
H178	H	1.238904	-0.605640	0.547292
H179	H	1.303175	-0.605552	0.483116
H180	H	1.326641	-0.605749	0.570879
H181	H	0.686857	-0.627901	0.286969
H182	H	1.234930	-1.204514	0.478755
H183	H	1.043428	-0.627828	0.930638
H184	H	1.043424	-0.627871	0.826519
