data_functionalizedCrystal
_audit_creation_method	'MofGen! by Chris Wilmer'
_symmetry_space_group_name_H-M	'P1'
_symmetry_Int_Tables_number	1
_symmetry_cell_setting	triclinic
loop_
_symmetry_equiv_pos_as_xyz
  x,y,z
_cell_length_a	21.295420
_cell_length_b	21.295417
_cell_length_c	12.759393
_cell_angle_alpha	90.039170
_cell_angle_beta	90.021840
_cell_angle_gamma	90.028757
loop_
_atom_site_label
_atom_site_type_symbol
_atom_site_fract_x
_atom_site_fract_y
_atom_site_fract_z
Zn1	Zn	0.962338	-0.250601	0.594019
Zn2	Zn	1.462338	0.249399	1.094019
Zn3	Zn	0.962245	-0.355885	0.418316
Zn4	Zn	1.462245	0.144115	0.918316
Zn5	Zn	0.857066	-0.250631	0.418349
Zn6	Zn	1.357066	0.249369	0.918349
Zn7	Zn	0.857030	-0.355834	0.593947
Zn8	Zn	1.357030	0.144166	1.093947
O9	O	0.909670	-0.303238	0.506158
O10	O	1.409670	0.196762	1.006158
O11	O	1.050415	-0.264577	0.570729
O12	O	1.550415	0.235423	1.070729
O13	O	0.948269	-0.341957	0.271299
O14	O	1.448269	0.158043	0.771299
O15	O	0.871084	-0.162538	0.441695
O16	O	1.371084	0.337462	0.941695
O17	O	1.050347	-0.341929	0.441640
O18	O	1.550347	0.158071	0.941640
O19	O	0.948427	-0.162516	0.570760
O20	O	1.448427	0.337484	1.070760
O21	O	0.870995	-0.264627	0.271323
O22	O	1.370995	0.235373	0.771323
O23	O	0.768972	-0.264577	0.441626
O24	O	1.268972	0.235423	0.941626
O25	O	0.871023	-0.341840	0.740978
O26	O	1.371023	0.158160	1.240978
O27	O	0.768946	-0.341869	0.570637
O28	O	1.268946	0.158131	1.070637
O29	O	0.948392	-0.264527	0.741031
O30	O	1.448392	0.235473	1.241031
O31	O	0.948235	-0.443968	0.441570
O32	O	1.448235	0.056032	0.941570
O33	O	0.870934	-0.443930	0.570606
O34	O	1.370934	0.056070	1.070606
C35	C	0.746118	-0.303221	0.506128
C36	C	1.246118	0.196779	1.006128
C37	C	0.676150	-0.303229	0.506140
C38	C	1.176150	0.196771	1.006140
C39	C	0.176695	-0.343558	0.573269
C40	C	0.676695	0.156442	1.073269
C41	C	0.242437	-0.343558	0.573258
C42	C	0.742437	0.156442	1.073258
C43	C	0.275311	-0.303252	0.506191
C44	C	0.775311	0.196748	1.006191
C45	C	0.242436	-0.262954	0.439111
C46	C	0.742436	0.237046	0.939111
C47	C	0.176695	-0.262960	0.439116
C48	C	0.676695	0.237040	0.939116
N49	N	0.378552	-0.248136	0.498292
N50	N	0.878552	0.251864	0.998292
N51	N	0.441003	-0.248133	0.498293
N52	N	0.941003	0.251867	0.998293
C53	C	0.473385	-0.303234	0.506169
C54	C	0.973385	0.196766	1.006169
N55	N	0.440957	-0.358341	0.514064
N56	N	0.940957	0.141659	1.014064
N57	N	0.378500	-0.358343	0.514068
N58	N	0.878500	0.141657	1.014068
C59	C	0.346596	-0.303242	0.506177
C60	C	0.846596	0.196758	1.006177
C61	C	0.577538	-0.343533	0.573227
C62	C	1.077538	0.156467	1.073227
C63	C	0.643281	-0.343534	0.573209
C64	C	1.143281	0.156466	1.073209
C65	C	0.643279	-0.262925	0.439067
C66	C	1.143279	0.237075	0.939067
C67	C	0.577536	-0.262929	0.439080
C68	C	1.077536	0.237071	0.939080
C69	C	0.544670	-0.303232	0.506166
C70	C	1.044670	0.196768	1.006166
C71	C	0.909587	-0.466789	0.506100
C72	C	1.409587	0.033211	1.006100
C73	C	0.909610	-0.536758	0.506110
C74	C	1.409610	-0.036758	1.006110
C75	C	0.949896	-0.569623	0.438990
C76	C	1.449896	-0.069623	0.938990
C77	C	0.949926	-0.635366	0.439014
C78	C	1.449926	-0.135366	0.939014
C79	C	0.909657	-0.668240	0.506146
C80	C	1.409657	-0.168240	1.006146
C81	C	0.869368	-0.635367	0.573279
C82	C	1.369368	-0.135367	1.073279
C83	C	0.869344	-0.569625	0.573261
C84	C	1.369344	-0.069625	1.073261
N85	N	0.854590	-0.771504	0.514145
N86	N	1.354590	-0.271504	1.014145
N87	N	0.854615	-0.833955	0.514157
N88	N	1.354615	-0.333955	1.014157
C89	C	0.909728	-0.866315	0.506206
C90	C	1.409728	-0.366315	1.006206
N91	N	0.964817	-0.833864	0.498224
N92	N	1.464817	-0.333864	0.998224
N93	N	0.964792	-0.771407	0.498208
N94	N	1.464792	-0.271407	0.998208
C95	C	0.909679	-0.739525	0.506174
C96	C	1.409679	-0.239525	1.006174
C97	C	0.950050	-0.970466	0.439109
C98	C	1.450050	-0.470466	0.939109
C99	C	0.950080	-1.036210	0.439140
C100	C	1.450080	-0.536210	0.939140
C101	C	0.869517	-1.036209	0.573400
C102	C	1.369517	-0.536209	1.073400
C103	C	0.869492	-0.970467	0.573374
C104	C	1.369492	-0.470467	1.073374
C105	C	0.909758	-0.937599	0.506223
C106	C	1.409758	-0.437599	1.006223
C107	C	1.073860	-0.303255	0.506189
C108	C	1.573860	0.196745	1.006189
C109	C	1.143828	-0.303263	0.506202
C110	C	1.643828	0.196737	1.006202
C111	C	0.909714	-0.303174	0.780191
C112	C	1.409714	0.196826	1.280191
C113	C	0.909733	-0.303147	0.896968
C114	C	1.409733	0.196853	1.396968
C115	C	0.909770	-0.139048	0.506239
C116	C	1.409770	0.360952	1.006239
C117	C	0.909812	-0.069079	0.506274
C118	C	1.409812	0.430921	1.006274
C119	C	0.909662	-0.303256	0.233191
C120	C	1.409662	0.196744	0.733191
C121	C	0.909765	-0.303105	0.116415
C122	C	1.409765	0.196895	0.616415
C123	C	0.950024	-0.262886	0.951859
C124	C	1.450024	0.237114	1.451859
C125	C	0.950039	-0.262864	1.061584
C126	C	1.450039	0.237136	1.561584
C127	C	0.869469	-0.343368	1.061516
C128	C	1.369469	0.156632	1.561516
C129	C	0.869452	-0.343387	0.951793
C130	C	1.369452	0.156613	1.451793
C131	C	0.996543	-0.216409	0.951900
C132	C	1.496543	0.283591	1.451900
C133	C	0.996558	-0.216387	1.061624
C134	C	1.496558	0.283613	1.561624
H135	H	0.149935	-0.230145	0.384502
H136	H	0.649935	0.269855	0.884502
H137	H	0.670040	-0.376352	0.627820
H138	H	1.170040	0.123648	1.127820
Cl139	Cl	0.818748	-0.676693	0.657679
Cl140	Cl	1.318748	-0.176693	1.157679
H141	H	0.836538	-0.542865	0.627920
H142	H	1.336538	-0.042865	1.127920
Cl143	Cl	0.976426	-0.141145	0.905965
Cl144	Cl	1.476426	0.358855	1.405965
H145	H	0.670043	-0.230109	0.384456
H146	H	1.170043	0.269891	0.884456
Cl147	Cl	0.818898	-1.077531	0.657803
Cl148	Cl	1.318898	-0.577531	1.157803
Cl149	Cl	1.000736	-1.077527	0.354760
Cl150	Cl	1.500736	-0.577527	0.854760
H151	H	0.149939	-0.376378	0.627892
H152	H	0.649939	0.123622	1.127892
H153	H	1.045308	-0.229445	1.091404
H154	H	1.545308	0.270555	1.591404
H155	H	0.982838	-0.943704	0.384433
H156	H	1.482838	-0.443704	0.884433
Cl157	Cl	0.536217	-0.394202	0.657556
Cl158	Cl	1.036217	0.105798	1.157556
Cl159	Cl	0.283761	-0.212286	0.354794
Cl160	Cl	0.783761	0.287714	0.854794
H161	H	0.982684	-0.542864	0.384314
H162	H	1.482684	-0.042864	0.884314
Cl163	Cl	0.283764	-0.394218	0.657579
Cl164	Cl	0.783764	0.105782	1.157579
H165	H	0.550776	-0.230115	0.384470
H166	H	1.050776	0.269885	0.884470
H167	H	0.982734	-0.662130	0.384357
H168	H	1.482734	-0.162130	0.884357
H169	H	1.042836	-0.233888	0.917864
H170	H	1.542836	0.266112	1.417864
H171	H	0.836685	-0.943706	0.628025
H172	H	1.336685	-0.443706	1.128025
H173	H	0.836640	-0.376169	0.907105
H174	H	1.336640	0.123831	1.407105
Cl175	Cl	0.969556	-0.144907	1.114214
Cl176	Cl	1.469556	0.355093	1.614214
Cl177	Cl	0.818833	-0.393953	1.130446
Cl178	Cl	1.318833	0.106047	1.630446
