data_functionalizedCrystal
_audit_creation_method	'MofGen! by Chris Wilmer'
_symmetry_space_group_name_H-M	'P1'
_symmetry_Int_Tables_number	1
_symmetry_cell_setting	triclinic
loop_
_symmetry_equiv_pos_as_xyz
  x,y,z
_cell_length_a	14.853558
_cell_length_b	13.930277
_cell_length_c	14.971486
_cell_angle_alpha	90.004432
_cell_angle_beta	96.377369
_cell_angle_gamma	90.006081
loop_
_atom_site_label
_atom_site_type_symbol
_atom_site_fract_x
_atom_site_fract_y
_atom_site_fract_z
O1	O	1.196353	0.079820	-0.116727
O2	O	0.933889	0.079824	-0.130647
O3	O	1.072156	0.079815	0.006512
O4	O	1.058086	0.079829	-0.253886
O5	O	1.072135	-0.079847	0.006491
O6	O	0.933869	-0.079838	-0.130668
O7	O	1.196332	-0.079842	-0.116748
Zn8	Zn	1.065097	-0.105190	-0.123712
Zn9	Zn	1.065124	0.105172	-0.123684
O10	O	1.058066	-0.079833	-0.253907
C11	C	0.900291	-0.000006	-0.130029
C12	C	0.800207	-0.000005	-0.128143
C13	C	0.753198	0.087031	-0.127247
C14	C	0.753174	-0.087039	-0.127259
C15	C	0.659141	-0.087041	-0.125483
C16	C	0.612132	-0.000005	-0.124587
C17	C	0.659156	0.087032	-0.125468
C18	C	0.612110	-0.174076	-0.124593
C19	C	0.518071	-0.174081	-0.122816
C20	C	0.471060	-0.087045	-0.121926
C21	C	0.518090	-0.000004	-0.122808
C22	C	0.471081	0.087031	-0.121912
C23	C	0.518109	0.174072	-0.122801
C24	C	0.612145	0.174068	-0.124579
C25	C	0.377024	-0.087040	-0.120148
C26	C	0.377039	0.087032	-0.120133
N27	N	1.065086	-0.248756	-0.123730
C28	C	1.119870	-0.701013	-0.178015
C29	C	1.010406	-0.701007	-0.069316
C30	C	1.010392	-0.600511	-0.069331
C31	C	1.065119	-0.550262	-0.123687
C32	C	1.119860	-0.600508	-0.178029
C33	C	0.955659	-0.550257	-0.014983
C34	C	0.955644	-0.449755	-0.014995
C35	C	1.010367	-0.399504	-0.069357
C36	C	1.065109	-0.449757	-0.123701
C37	C	1.119837	-0.399507	-0.178058
C38	C	1.174575	-0.449758	-0.232408
C39	C	1.174583	-0.550257	-0.232391
C40	C	1.010359	-0.299005	-0.069374
C41	C	1.119827	-0.299002	-0.178072
C42	C	1.229931	-0.000010	-0.117367
C43	C	1.330015	-0.000005	-0.119253
C44	C	1.071516	-0.000016	0.039826
C45	C	1.069631	-0.000015	0.139123
N46	N	1.065143	0.248738	-0.123658
C47	C	1.058705	-0.000000	-0.287222
C48	C	1.060591	0.000005	-0.386519
C49	C	1.150859	-0.000017	0.196337
C50	C	1.149081	-0.000007	0.289636
C51	C	1.066076	-0.000002	0.325721
C52	C	0.984842	0.000003	0.268500
C53	C	0.986620	-0.000000	0.175203
C54	C	0.981142	0.000006	0.462963
C55	C	0.979363	0.000007	0.556268
C56	C	1.143603	-0.000001	0.577397
C57	C	1.145381	-0.000004	0.484099
C58	C	1.064147	-0.000000	0.426885
H59	H	0.791491	0.157898	-0.127974
C60	C	0.888053	0.000025	0.595959
N61	N	0.819276	0.000041	0.625853
H62	H	1.219150	-0.591180	-0.276638
C63	C	1.180033	-0.243736	-0.237869
N64	N	1.225382	-0.202110	-0.282907
H65	H	0.338771	0.157908	-0.119409
C66	C	0.466387	0.269808	-0.121812
N67	N	0.427426	0.341914	-0.121067
C68	C	0.950151	-0.243734	-0.009592
N69	N	0.904798	-0.202105	0.035437
H70	H	0.914992	0.000011	0.416381
C71	C	0.897263	-0.000000	0.112268
N72	N	0.829956	0.000002	0.064866
C73	C	1.238439	-0.000025	0.352568
N74	N	1.305747	-0.000043	0.399967
C75	C	0.893534	0.000000	0.308197
N76	N	0.824760	-0.000009	0.338095
H77	H	1.218451	-0.000027	0.166965
C78	C	1.232962	0.000003	0.640335
N79	N	1.300265	0.000004	0.687743
H80	H	0.791455	-0.157899	-0.127982
H81	H	0.965856	-0.741926	-0.025056
C82	C	0.663883	0.269805	-0.125544
N83	N	0.702857	0.341913	-0.126266
C84	C	0.325298	-0.182780	-0.119170
N85	N	0.286339	-0.254896	-0.118435
H86	H	0.650393	-0.244935	-0.125314
H87	H	1.219137	-0.408832	-0.276661
C88	C	0.895424	-0.394489	0.044784
N89	N	0.850063	-0.352861	0.089806
C90	C	0.466348	-0.269828	-0.121857
N91	N	0.427387	-0.341945	-0.121143
C92	C	1.180080	-0.756289	-0.237796
N93	N	1.225433	-0.797924	-0.282822
C94	C	0.895462	-0.605537	0.044802
N95	N	0.850115	-0.647179	0.089832
H96	H	1.212972	-0.000015	0.454723
