data_functionalizedCrystal
_audit_creation_method	'MofGen! by Chris Wilmer'
_symmetry_space_group_name_H-M	'P1'
_symmetry_Int_Tables_number	1
_symmetry_cell_setting	triclinic
loop_
_symmetry_equiv_pos_as_xyz
  x,y,z
_cell_length_a	14.628931
_cell_length_b	14.628931
_cell_length_c	14.628931
_cell_angle_alpha	60.000000
_cell_angle_beta	90.000000
_cell_angle_gamma	60.000000
loop_
_atom_site_label
_atom_site_type_symbol
_atom_site_fract_x
_atom_site_fract_y
_atom_site_fract_z
Zr1	Zr	0.880621	1.000576	-0.119961
O2	O	0.734660	1.191281	-0.265922
O3	O	0.925365	0.809870	-0.075216
O4	O	0.925366	1.000575	-0.265921
O5	O	0.734659	1.000577	0.075215
O6	O	1.075798	1.000575	-0.265921
O7	O	0.734660	1.000576	-0.075216
O8	O	1.075797	0.659438	0.075216
O9	O	0.734660	1.341713	-0.265922
O10	O	1.056714	0.888310	-0.056132
O11	O	0.944448	0.888310	0.056133
O12	O	0.944449	1.112841	-0.168398
O13	O	0.832183	1.112842	-0.056133
Zr14	Zr	1.120542	1.000576	0.119961
Zr15	Zr	1.120542	1.000575	-0.119960
Zr16	Zr	0.880620	1.000576	0.119960
Zr17	Zr	0.880621	1.240497	-0.119961
Zr18	Zr	1.120542	0.760654	0.119961
O19	O	1.075798	1.191281	0.075216
O20	O	1.075798	1.191280	-0.265921
O21	O	0.734660	1.191282	0.075215
O22	O	1.266503	0.809870	0.265922
O23	O	1.266503	0.809869	-0.075215
O24	O	0.925365	0.809871	0.265921
O25	O	1.266503	1.000575	-0.075215
O26	O	1.075797	1.000576	0.265921
O27	O	0.925365	1.000577	0.265921
O28	O	1.266503	1.000575	0.075216
O29	O	0.925366	1.341713	-0.265922
O30	O	1.075797	0.659439	0.265922
O31	O	1.266502	0.659438	0.265922
O32	O	1.266503	0.659438	0.075217
O33	O	0.734660	1.341714	-0.075217
O34	O	0.925366	1.341713	-0.075216
O35	O	1.056714	0.888310	0.168398
O36	O	1.168980	0.888310	0.056133
O37	O	1.056715	1.112841	-0.056133
O38	O	0.944449	1.112842	0.056132
C39	C	1.000581	0.700470	0.000000
C40	C	1.000581	0.598617	0.000001
C41	C	1.056272	0.553208	-0.055691
C42	C	1.056273	0.447937	-0.055692
C43	C	0.700476	1.000576	-0.000000
C44	C	0.598623	1.000577	-0.000001
C45	C	0.608905	0.889194	0.055691
C46	C	0.503635	0.889192	0.055692
C47	C	1.300687	1.000575	0.000000
C48	C	1.402540	1.000574	0.000001
C49	C	1.000582	1.000575	-0.300105
C50	C	1.000582	1.000574	-0.401958
C51	C	1.000582	1.300681	-0.000000
C52	C	1.000582	1.402534	-0.000001
C53	C	0.944891	1.111957	-0.503058
C54	C	0.944890	1.111959	-0.608330
C55	C	1.000581	1.000576	0.300105
C56	C	1.000581	1.000577	0.401958
C57	C	1.300687	0.700469	0.000001
C58	C	1.402540	0.598616	0.000001
C59	C	1.000581	0.700471	0.300105
C60	C	1.000580	0.598619	0.401958
C61	C	1.300686	0.700470	0.300106
C62	C	1.402539	0.598617	0.401959
C63	C	0.700477	1.300681	-0.300106
C64	C	0.598624	1.402534	-0.401959
C65	C	0.700476	1.300682	-0.000001
C66	C	0.598623	1.402535	-0.000001
C67	C	1.000582	1.300680	-0.300105
C68	C	1.000583	1.402533	-0.401958
C69	C	1.392257	0.553207	-0.055690
C70	C	1.497527	0.447936	-0.055691
C71	C	1.056271	0.553209	0.503059
C72	C	1.056272	0.447939	0.608330
C73	C	1.503640	0.553208	0.391677
C74	C	1.608911	0.447937	0.496946
H75	H	1.103948	0.408892	-0.103376
H76	H	0.393903	1.095938	-0.047686
Br77	Br	0.518028	0.730244	0.135155
Br78	Br	1.454072	0.467598	0.612443
Br79	Br	1.080065	0.841630	-0.387575
H80	H	1.489276	0.559562	0.047675
Br81	Br	0.921094	0.467620	0.079465
H82	H	1.393919	0.559564	0.488695
H83	H	0.511886	1.095934	-0.047677
H84	H	1.103945	0.592272	0.511679
Br85	Br	1.753466	0.382845	0.482553
H86	H	1.607259	0.441569	0.047691
H87	H	1.103957	0.592259	-0.103365
H88	H	0.952905	0.559557	0.047682
H89	H	0.897218	1.207314	-0.511679
H90	H	1.305521	0.592270	-0.103373
Br91	Br	0.865405	1.270907	-0.752885
H92	H	1.488898	0.408881	-0.103366
H93	H	0.695641	0.793837	0.103374
Br94	Br	1.518023	0.618307	0.247115
Br95	Br	1.135757	0.382848	0.752885
H96	H	0.952905	0.441574	0.511316
Br97	Br	0.921097	0.533540	0.387576
H98	H	1.048257	0.905213	-0.511315
