data_functionalizedCrystal
_audit_creation_method	'MofGen! by Chris Wilmer'
_symmetry_space_group_name_H-M	'P1'
_symmetry_Int_Tables_number	1
_symmetry_cell_setting	triclinic
loop_
_symmetry_equiv_pos_as_xyz
  x,y,z
_cell_length_a	13.339070
_cell_length_b	23.532407
_cell_length_c	12.376457
_cell_angle_alpha	101.199798
_cell_angle_beta	75.589755
_cell_angle_gamma	99.238986
loop_
_atom_site_label
_atom_site_type_symbol
_atom_site_fract_x
_atom_site_fract_y
_atom_site_fract_z
O1	O	1.358915	0.277209	-0.094091
O2	O	1.064762	0.239795	-0.094078
O3	O	1.220704	0.177002	-0.094064
O4	O	1.202972	0.340002	-0.094105
O5	O	1.181733	0.192673	0.093944
O6	O	1.025790	0.255466	0.093930
O7	O	1.319944	0.292880	0.093918
Zn8	Zn	1.166679	0.276661	0.123774
Zn9	Zn	1.218026	0.256014	-0.123935
O10	O	1.164001	0.355673	0.093904
C11	C	1.007650	0.241311	-0.000072
C12	C	0.895536	0.222472	-0.000066
C13	C	0.529282	0.368949	-0.000121
C14	C	0.634619	0.386650	-0.000130
C15	C	0.699853	0.345607	-0.000113
C16	C	0.659741	0.286860	-0.000089
C17	C	0.554396	0.269156	-0.000089
C18	C	0.724966	0.245815	-0.000082
C19	C	0.684854	0.187068	-0.000057
C20	C	0.579519	0.169367	-0.000056
C21	C	0.514285	0.210410	-0.000073
C22	C	0.830312	0.263518	-0.000082
C23	C	0.855425	0.163726	-0.000050
C24	C	0.750088	0.146025	-0.000041
C25	C	1.200766	0.163549	-0.000057
C26	C	1.199406	0.100114	-0.000048
C27	C	1.283186	-0.285491	-0.000114
C28	C	1.281926	-0.345096	-0.000122
O29	O	1.359588	-0.369326	-0.000168
N30	N	1.189215	-0.382667	-0.000118
C31	C	1.097761	-0.360632	-0.000116
O32	O	1.018788	-0.398062	-0.000114
C33	C	1.099024	-0.301029	-0.000115
C34	C	1.191738	-0.263460	-0.000109
C35	C	1.375893	-0.247923	-0.000109
C36	C	1.377152	-0.188322	-0.000098
C37	C	1.285704	-0.166291	-0.000093
C38	C	1.192997	-0.203859	-0.000098
C39	C	1.007572	-0.278996	-0.000122
C40	C	1.008843	-0.219388	-0.000122
C41	C	1.101558	-0.181819	-0.000115
C42	C	1.102808	-0.122227	-0.000082
N43	N	1.195519	-0.084656	-0.000087
C44	C	1.286967	-0.106688	-0.000092
C45	C	1.095117	-0.485801	-0.000119
C46	C	1.093851	-0.545402	-0.000111
C47	C	1.278017	-0.529862	-0.000120
C48	C	1.279280	-0.470259	-0.000119
C49	C	1.187828	-0.448230	-0.000124
C50	C	1.289604	0.018477	-0.000069
C51	C	1.290854	0.078082	-0.000054
C52	C	1.106690	0.062536	-0.000051
C53	C	1.105438	0.002937	-0.000060
C54	C	1.196904	-0.019091	-0.000073
O55	O	1.025189	-0.097956	-0.000042
O56	O	1.365930	-0.069253	-0.000109
C57	C	1.377056	0.291365	-0.000091
C58	C	1.489171	0.310202	-0.000104
C59	C	1.183940	0.369126	-0.000106
C60	C	1.185301	0.432561	-0.000122
N61	N	1.131644	0.290753	0.292830
N62	N	1.253069	0.241919	-0.292990
C63	C	1.334398	0.209197	0.647833
C64	C	1.358914	0.199333	0.529495
C65	C	1.302098	0.222187	0.470323
C66	C	1.220763	0.254907	0.529500
C67	C	1.196250	0.264775	0.647849
C68	C	1.163950	0.277766	0.470339
C69	C	1.082615	0.310485	0.529516
C70	C	1.058106	0.320352	0.647854
C71	C	1.114922	0.297498	0.707026
C72	C	1.188463	0.267897	0.351990
C73	C	1.050315	0.323476	0.352007
C74	C	1.025800	0.333339	0.470344
H75	H	0.785623	0.360023	-0.000123
H76	H	1.254686	0.241257	0.303819
O77	O	0.412007	0.193133	-0.000219
C78	C	0.403884	0.151747	-0.097598
H79	H	0.478649	0.130105	-0.130057
H80	H	0.335040	0.117203	-0.075692
H81	H	0.391393	0.174466	-0.165787
O82	O	0.946668	0.365041	0.527786
C83	C	0.852772	0.337564	0.498879
H84	H	0.859481	0.289252	0.466351
H85	H	0.785900	0.342563	0.576720
H86	H	0.837007	0.358658	0.430192
H87	H	1.322062	0.214154	0.373967
H88	H	1.452651	-0.157738	-0.000097
H89	H	1.450366	-0.265854	-0.000117
H90	H	0.908540	0.130305	-0.000042
O91	O	1.017932	0.083956	-0.000249
C92	C	1.033365	0.109874	-0.097606
H93	H	1.099345	0.090649	-0.165658
H94	H	0.958720	0.100965	-0.130298
H95	H	1.054507	0.158965	-0.075587
O96	O	1.090950	0.307009	0.821983
C97	C	0.986996	0.283583	0.861546
H98	H	0.961891	0.248069	0.793359
H99	H	0.980933	0.264115	0.940718
H100	H	0.934105	0.319619	0.882551
O101	O	0.869361	0.320577	0.000047
C102	C	0.909332	0.341927	0.097429
H103	H	0.929288	0.303966	0.129910
H104	H	0.982631	0.373666	0.075519
H105	H	0.848401	0.365412	0.165603
H106	H	0.546866	0.121531	-0.000049
O107	O	0.979231	0.352221	0.705393
C108	C	1.018783	0.401562	0.773844
H109	H	1.105812	0.412162	0.738157
H110	H	0.976836	0.440342	0.775189
H111	H	1.005685	0.392083	0.863537
H112	H	1.366356	0.108670	-0.000045
O113	O	0.995281	0.345715	0.294417
C114	C	1.063194	0.383659	0.225960
H115	H	1.146128	0.372046	0.208218
H116	H	1.038183	0.379041	0.142749
H117	H	1.060187	0.430571	0.271553
O118	O	0.465845	0.408745	-0.000290
C119	C	0.424374	0.393377	-0.097679
H120	H	0.426238	0.344699	-0.130127
H121	H	0.340440	0.403866	-0.075791
H122	H	0.472907	0.419139	-0.165870
H123	H	1.425137	0.172693	0.481317
H124	H	1.018350	-0.575985	-0.000097
O125	O	1.389557	0.186903	0.705193
C126	C	1.379671	0.125605	0.676327
H127	H	1.358547	0.112345	0.590406
H128	H	1.456706	0.109284	0.672284
H129	H	1.315767	0.105620	0.742946
O130	O	0.673402	0.443739	-0.000098
C131	C	0.593246	0.476167	-0.000137
H132	H	0.514459	0.451888	0.035463
H133	H	0.603583	0.520728	0.054435
H134	H	0.596881	0.482107	-0.090339
H135	H	0.717415	0.098191	-0.000030
O136	O	1.378549	-0.002860	-0.000227
C137	C	1.455051	0.008316	-0.097608
H138	H	1.436502	0.046677	-0.130068
H139	H	1.534789	0.019294	-0.075704
H140	H	1.455726	-0.031983	-0.165795
O141	O	1.369443	-0.433853	-0.000175
C142	C	1.449873	-0.466085	-0.000147
H143	H	1.429345	-0.513813	-0.035734
H144	H	1.525956	-0.447983	-0.054738
H145	H	1.459356	-0.462522	0.090049
H146	H	1.352480	-0.547811	-0.000128
O147	O	1.006167	-0.464494	-0.000057
C148	C	0.924083	-0.510444	-0.000080
H149	H	0.942813	-0.547686	0.035509
H150	H	0.848729	-0.494115	0.054511
H151	H	0.914330	-0.526684	-0.090275
O152	O	0.917431	-0.315405	-0.000183
C153	C	0.836997	-0.283164	-0.000158
H154	H	0.872288	-0.241363	-0.035742
H155	H	0.783548	-0.310355	-0.054751
H156	H	0.790115	-0.271702	0.090038
O157	O	0.920071	-0.197978	-0.000323
C158	C	0.935482	-0.172060	-0.097675
H159	H	1.001468	-0.191276	-0.165734
H160	H	0.860833	-0.180978	-0.130361
H161	H	0.956606	-0.122967	-0.075653
H162	H	1.029936	-0.027651	-0.000034
