data_functionalizedCrystal
_audit_creation_method	'MofGen! by Chris Wilmer'
_symmetry_space_group_name_H-M	'P1'
_symmetry_Int_Tables_number	1
_symmetry_cell_setting	triclinic
loop_
_symmetry_equiv_pos_as_xyz
  x,y,z
_cell_length_a	27.732048
_cell_length_b	16.974810
_cell_length_c	15.455438
_cell_angle_alpha	83.686107
_cell_angle_beta	87.343154
_cell_angle_gamma	96.981651
loop_
_atom_site_label
_atom_site_type_symbol
_atom_site_fract_x
_atom_site_fract_y
_atom_site_fract_z
O1	O	0.061539	-1.048466	0.001492
O2	O	0.069868	-0.817380	-0.014740
O3	O	-0.004681	-0.940101	-0.006103
O4	O	0.136088	-0.925745	-0.007144
O5	O	-0.008929	-0.947080	0.138647
O6	O	0.065619	-0.824359	0.130011
O7	O	0.057291	-1.055445	0.146243
Cu8	Cu	0.061067	-0.940540	0.151344
Cu9	Cu	0.066091	-0.932285	-0.019841
O10	O	0.131840	-0.932725	0.137606
C11	C	0.067507	-0.791314	0.055560
C12	C	0.066795	-0.703250	0.049375
C13	C	-0.024812	-0.943289	0.066253
C14	C	-0.078469	-0.942382	0.066197
C15	C	0.064144	-0.665687	0.125375
C16	C	0.063467	-0.582943	0.119566
C17	C	0.065445	-0.537763	0.037756
C18	C	0.068095	-0.575332	-0.038249
C19	C	0.068768	-0.658075	-0.032439
C20	C	0.063677	-0.289889	0.011920
C21	C	0.063006	-0.207140	0.006115
C22	C	0.058376	-0.214757	0.163931
C23	C	0.059052	-0.297501	0.169734
C24	C	0.061700	-0.335063	0.093728
N25	N	0.064755	-0.453185	0.031817
N26	N	0.062386	-0.419641	0.099669
C27	C	-0.417162	-1.009188	0.070845
C28	C	-0.618828	-1.005821	0.070596
O29	O	-0.649972	-1.066910	0.074849
N30	N	-0.638083	-0.933053	0.065486
C31	C	-0.606918	-0.861121	0.060431
O32	O	-0.627923	-0.799150	0.056070
C33	C	-0.405253	-0.864489	0.060674
C34	C	-0.386001	-0.937262	0.065793
C35	C	-0.397910	-1.081955	0.075963
C36	C	-0.347497	-1.082796	0.076030
C37	C	-0.316336	-1.010870	0.070978
C38	C	-0.335588	-0.938103	0.065860
C39	C	-0.374089	-0.792558	0.055613
C40	C	-0.323670	-0.793406	0.055672
C41	C	-0.304419	-0.866179	0.060792
C42	C	-0.254014	-0.867018	0.060876
N43	N	-0.234759	-0.939786	0.065986
C44	C	-0.265920	-1.011712	0.071037
C45	C	-0.712795	-0.859359	0.060306
C46	C	-0.763211	-0.858517	0.060247
C47	C	-0.775117	-1.003216	0.070410
C48	C	-0.724701	-1.004058	0.070476
C49	C	-0.693540	-0.932126	0.065417
C50	C	-0.160048	-1.013473	0.071178
C51	C	-0.109630	-1.014308	0.071248
C52	C	-0.097728	-0.869609	0.061080
C53	C	-0.148142	-0.868773	0.061015
C54	C	-0.179301	-0.940712	0.066061
O55	O	-0.222841	-0.805962	0.056615
O56	O	-0.244905	-1.073673	0.075379
C57	C	-0.467576	-1.008347	0.070778
C58	C	-0.486828	-0.935579	0.065660
C59	C	-0.455667	-0.863654	0.060608
C60	C	-0.537244	-0.934737	0.065601
C61	C	-0.568405	-1.006663	0.070652
C62	C	-0.549150	-1.079431	0.075762
C63	C	-0.498736	-1.080272	0.075829
C64	C	-0.474922	-0.790886	0.055498
C65	C	-0.525336	-0.790050	0.055432
C66	C	-0.556497	-0.861976	0.060484
C67	C	0.151971	-0.929536	0.065248
C68	C	0.205628	-0.930442	0.065298
C69	C	0.059650	-0.081511	0.075940
C70	C	0.060354	-0.169577	0.082115
N71	N	0.057533	-0.946351	0.271746
N72	N	0.069622	-0.926480	-0.140242
C73	C	0.089192	-0.894206	0.313491
C74	C	0.086518	-0.898623	0.404608
C75	C	0.052182	-0.955183	0.453978
C76	C	0.020522	-1.007334	0.412226
C77	C	0.023199	-1.002920	0.321111
C78	C	0.040639	-0.974217	0.726891
C79	C	0.037963	-0.978626	0.818012
C80	C	0.103960	-0.869915	0.810388
C81	C	0.106632	-0.865503	0.719271
C82	C	0.074974	-0.917657	0.677528
N83	N	0.049446	-0.959698	0.547114
N84	N	0.077712	-0.913145	0.584394
H85	H	0.062537	-0.702466	0.191993
O86	O	-0.012898	-1.062234	0.460086
C87	C	-0.060063	-1.048832	0.436980
H88	H	-0.057985	-1.015052	0.368681
H89	H	-0.083923	-1.108605	0.438067
H90	H	-0.076422	-1.012002	0.485507
O91	O	0.055714	-0.178252	0.237734
C92	C	0.013330	-0.140106	0.239761
H93	H	-0.014412	-0.169523	0.197205
H94	H	-0.002780	-0.145727	0.309710
H95	H	0.022906	-0.074225	0.214010
H96	H	0.057439	-0.334282	0.236352
O97	O	-0.682483	-0.789538	0.055516
C98	C	-0.655178	-0.789297	0.130224
H99	H	-0.653525	-0.853442	0.159637
H100	H	-0.616711	-0.758446	0.111255
H101	H	-0.673218	-0.755807	0.180190
H102	H	0.134591	-0.819447	0.679076
O103	O	-0.444610	-0.721071	0.050713
C104	C	-0.417310	-0.720832	0.125426
H105	H	-0.415659	-0.784978	0.154839
H106	H	-0.378842	-0.689982	0.106464
H107	H	-0.435353	-0.687343	0.175390
H108	H	0.014860	-1.016681	0.692910
H109	H	0.061300	-0.552365	0.181453
O110	O	0.117225	-0.847857	0.445110
C111	C	0.110214	-0.768342	0.417343
H112	H	0.072247	-0.767221	0.392317
H113	H	0.114112	-0.731359	0.474471
H114	H	0.138613	-0.742147	0.362791
H115	H	-0.389755	-0.733298	0.051439
O116	O	0.134644	-0.819234	0.851034
C117	C	0.107326	-0.773149	0.900324
H118	H	0.069024	-0.805873	0.916225
H119	H	0.125650	-0.763454	0.963497
H120	H	0.105214	-0.712855	0.861110
O121	O	0.064912	-0.163373	-0.073428
C122	C	0.067408	-0.214265	-0.139268
H123	H	0.051900	-0.277837	-0.111755
H124	H	0.045370	-0.193013	-0.195755
H125	H	0.106970	-0.213099	-0.163535
H126	H	0.065832	-0.320463	-0.049970
O127	O	-0.091009	-1.085072	0.076184
C128	C	-0.129328	-1.148373	0.080647
H129	H	-0.162712	-1.125237	0.051706
H130	H	-0.117689	-1.197190	0.042194
H131	H	-0.138567	-1.173878	0.151646
O132	O	-0.805459	-1.073012	0.075266
C133	C	-0.854084	-1.056655	0.074136
H134	H	-0.855039	-0.993035	0.042368
H135	H	-0.875813	-1.100501	0.035321
H136	H	-0.870720	-1.063203	0.143802
O137	O	-0.007583	-1.053451	0.280462
C138	C	-0.035763	-1.008769	0.224844
H139	H	-0.015954	-0.945797	0.206821
H140	H	-0.041620	-1.038874	0.163100
H141	H	-0.072502	-1.005505	0.259633
H142	H	0.069703	-0.538541	-0.104860
H143	H	0.070928	-0.688658	-0.094327
H144	H	0.010000	-1.024686	0.858205
H145	H	-0.185412	-1.072052	0.075284
O146	O	-0.328878	-1.153556	0.080962
C147	C	-0.367201	-1.216851	0.085426
H148	H	-0.400584	-1.193708	0.056489
H149	H	-0.355568	-1.265670	0.046971
H150	H	-0.376440	-1.242357	0.156426
H151	H	-0.423277	-1.140529	0.080073
H152	H	-0.709030	-1.063316	0.074644
H153	H	-0.778881	-0.799258	0.056093
O154	O	-0.293447	-0.723472	0.050639
C155	C	-0.299929	-0.675652	-0.027449
H156	H	-0.337491	-0.694413	-0.051043
H157	H	-0.296706	-0.610249	-0.015245
H158	H	-0.270833	-0.683624	-0.079202
H159	H	-0.163818	-0.809517	0.056870
O160	O	-0.067384	-0.799814	0.056139
C161	C	-0.018759	-0.816171	0.057314
H162	H	-0.016190	-0.877147	0.034293
H163	H	0.005444	-0.768268	0.012061
H164	H	-0.006214	-0.816326	0.126534
H165	H	-0.483067	-1.139532	0.079998
O166	O	-0.579439	-1.149273	0.080512
C167	C	-0.606757	-1.149479	0.005818
H168	H	-0.586636	-1.106151	-0.049440
H169	H	-0.611860	-1.212242	-0.014856
H170	H	-0.643863	-1.130212	0.021352
O171	O	-0.543952	-0.719281	0.050417
C172	C	-0.505633	-0.655985	0.045993
H173	H	-0.470634	-0.676484	0.020133
H174	H	-0.514791	-0.603116	0.000386
H175	H	-0.500486	-0.637171	0.113879
O176	O	0.122612	-0.839342	0.265582
C177	C	0.169778	-0.852717	0.288717
H178	H	0.169125	-0.917445	0.318207
H179	H	0.195821	-0.840388	0.228133
H180	H	0.182526	-0.811132	0.338515
