data_functionalizedCrystal
_audit_creation_method	'MofGen! by Chris Wilmer'
_symmetry_space_group_name_H-M	'P1'
_symmetry_Int_Tables_number	1
_symmetry_cell_setting	triclinic
loop_
_symmetry_equiv_pos_as_xyz
  x,y,z
_cell_length_a	15.624803
_cell_length_b	10.540539
_cell_length_c	14.750779
_cell_angle_alpha	77.230089
_cell_angle_beta	85.131014
_cell_angle_gamma	84.369412
loop_
_atom_site_label
_atom_site_type_symbol
_atom_site_fract_x
_atom_site_fract_y
_atom_site_fract_z
O1	O	1.086112	0.323437	-0.457987
O2	O	0.844204	0.314180	-0.373760
O3	O	0.970677	0.134697	-0.417794
O4	O	0.959638	0.502919	-0.413953
O5	O	1.006429	0.083966	-0.270591
O6	O	0.879956	0.263448	-0.226557
O7	O	1.121864	0.272706	-0.310784
Zn8	Zn	1.006586	0.260022	-0.245299
Zn9	Zn	0.959481	0.326863	-0.439245
O10	O	0.995391	0.452188	-0.266750
C11	C	0.831104	0.284206	-0.289373
C12	C	0.738805	0.270461	-0.257237
C13	C	0.337873	0.363483	-0.552833
C14	C	0.251146	0.350542	-0.522635
C15	C	0.290101	0.295234	-0.362154
C16	C	0.376833	0.308164	-0.392339
C17	C	0.400712	0.342291	-0.487679
C18	C	0.439672	0.286971	-0.327184
C19	C	0.526396	0.299907	-0.357367
C20	C	0.550282	0.334037	-0.452703
C21	C	0.487436	0.355227	-0.517862
C22	C	0.415791	0.252854	-0.231844
C23	C	0.478630	0.231661	-0.166690
C24	C	0.565357	0.244588	-0.196872
C25	C	0.589242	0.278717	-0.292209
C26	C	0.628202	0.223398	-0.131714
C27	C	0.714926	0.236334	-0.161896
C28	C	0.675966	0.291653	-0.322391
C29	C	0.987725	0.061940	-0.343906
C30	C	0.985247	-0.079274	-0.343048
C31	C	0.890269	-0.272831	-0.310337
C32	C	0.892860	-0.126056	-0.310880
C33	C	1.050125	-0.165102	-0.274469
C34	C	1.046989	-0.312012	-0.273300
C35	C	1.008211	-0.254636	-0.441351
C36	C	1.008792	-0.107179	-0.442759
C37	C	1.134963	0.302680	-0.395172
C38	C	1.227261	0.316427	-0.427315
C39	C	0.978342	0.524946	-0.340640
C40	C	0.980818	0.666162	-0.341503
N41	N	1.038741	0.214405	-0.112938
N42	N	0.927333	0.372471	-0.571608
C43	C	0.837531	0.499817	0.308935
C44	C	0.860068	0.467861	0.401587
C45	C	0.972084	0.308995	0.362549
C46	C	0.949553	0.340934	0.269893
C47	C	0.882276	0.436347	0.243093
C48	C	0.994299	0.277464	0.204051
C49	C	0.971772	0.309405	0.111402
C50	C	0.904499	0.404817	0.084594
C51	C	0.859749	0.468288	0.150444
C52	C	1.061579	0.182058	0.230851
C53	C	1.106325	0.118588	0.165010
C54	C	1.083794	0.150522	0.072360
C55	C	1.016522	0.245934	0.045552
C56	C	1.128544	0.087051	0.006510
C57	C	1.106017	0.118992	-0.086139
C58	C	0.993995	0.277875	-0.047097
H59	H	0.608746	0.195624	-0.054087
H60	H	1.183327	0.009374	0.028341
H61	H	1.142455	0.067309	-0.139750
H62	H	0.843240	-0.066462	-0.358957
H63	H	1.114359	-0.354122	-0.292621
H64	H	0.766092	0.219084	-0.108841
H65	H	0.459175	0.203879	-0.089063
H66	H	1.034433	-0.147396	-0.201161
H67	H	1.026864	0.231313	0.384380
H68	H	1.118731	-0.136502	-0.294966
H69	H	1.074916	-0.073937	-0.471287
H70	H	0.886162	0.430826	0.009151
H71	H	0.961156	-0.048401	-0.493617
H72	H	0.804960	0.545973	0.128626
H73	H	0.939206	0.355560	-0.068915
H74	H	1.161104	0.040905	0.186840
H75	H	0.962835	-0.267459	-0.494652
H76	H	0.695408	0.319438	-0.400027
H77	H	0.872290	-0.108905	-0.238256
H78	H	0.782741	0.577502	0.287117
H79	H	0.506878	0.383012	-0.595498
H80	H	0.823626	0.519556	0.455194
H81	H	0.839133	-0.284596	-0.357911
H82	H	0.868481	-0.327621	-0.237739
H83	H	0.620898	0.344576	-0.477276
H84	H	1.079920	0.156060	0.306293
H85	H	0.345173	0.242330	-0.207272
H86	H	1.029392	-0.365414	-0.199023
H87	H	1.074804	-0.294463	-0.465151
H88	H	0.357315	0.391268	-0.630469
H89	H	0.270647	0.267452	-0.284527
H90	H	0.199983	0.367807	-0.575699
