data_functionalizedCrystal
_audit_creation_method	'MofGen! by Chris Wilmer'
_symmetry_space_group_name_H-M	'P1'
_symmetry_Int_Tables_number	1
_symmetry_cell_setting	triclinic
loop_
_symmetry_equiv_pos_as_xyz
  x,y,z
_cell_length_a	16.109301
_cell_length_b	19.188930
_cell_length_c	15.186229
_cell_angle_alpha	89.991143
_cell_angle_beta	89.999362
_cell_angle_gamma	83.303131
loop_
_atom_site_label
_atom_site_type_symbol
_atom_site_fract_x
_atom_site_fract_y
_atom_site_fract_z
O1	O	1.102833	0.089744	-0.073183
O2	O	0.860734	0.100912	-0.073198
O3	O	0.988770	-0.006311	-0.073173
O4	O	0.974797	0.196967	-0.073208
O5	O	0.988762	-0.006313	0.073284
O6	O	0.860726	0.100911	0.073259
O7	O	1.102825	0.089742	0.073274
Zn8	Zn	0.981774	0.095326	0.096520
Zn9	Zn	0.981785	0.095328	-0.096444
O10	O	0.974789	0.196966	0.073249
C11	C	0.829757	0.100459	0.000029
C12	C	0.737466	0.099103	0.000024
C13	C	0.514993	0.159573	0.000023
C14	C	0.428277	0.158294	0.000029
C15	C	0.448573	0.031076	0.000048
C16	C	0.535287	0.032357	0.000048
C17	C	0.568495	0.096608	0.000031
C18	C	0.395064	0.094047	0.000037
C19	C	0.301043	0.092659	0.000043
C20	C	0.662522	0.097996	0.000027
C21	C	0.988313	-0.032324	0.000058
C22	C	0.986955	-0.109832	0.000066
C23	C	1.062082	-0.154580	0.000075
C24	C	1.060806	-0.227407	0.000060
C25	C	0.984399	-0.255482	0.000055
C26	C	0.909261	-0.210724	0.000041
C27	C	0.910540	-0.137899	0.000046
N28	N	0.925991	-0.363624	0.049893
N29	N	0.924782	-0.432805	0.049890
C30	C	0.980543	-0.474900	0.000037
N31	N	1.037571	-0.445200	-0.049802
N32	N	1.038783	-0.376013	-0.049795
C33	C	0.983004	-0.334448	0.000049
C34	C	1.054292	-0.598616	0.000029
C35	C	1.053012	-0.671443	0.000010
C36	C	0.901465	-0.654759	-0.000001
C37	C	0.902747	-0.581933	0.000010
C38	C	0.979162	-0.553866	0.000029
C39	C	1.133802	0.090196	0.000045
C40	C	1.226093	0.091552	0.000045
C41	C	0.975246	0.222979	0.000016
C42	C	0.976604	0.300486	0.000003
N43	N	0.981772	0.095325	0.228213
N44	N	0.981793	0.095325	-0.228137
C45	C	1.038486	0.047862	0.453947
C46	C	1.038488	0.047860	0.546136
C47	C	0.925074	0.142790	0.546123
C48	C	0.925068	0.142787	0.453935
C49	C	0.981779	0.095324	0.407849
C50	C	0.981787	0.095325	0.592227
C51	C	0.981790	0.095323	0.692183
C52	C	0.981775	0.095325	0.307887
H53	H	0.421524	-0.021234	0.000066
H54	H	1.084664	0.009211	0.583666
C55	C	1.145019	-0.124066	0.000264
C56	C	1.150186	-0.082769	0.075625
C57	C	1.226579	-0.054653	0.075832
H58	H	1.148752	-0.095949	-0.050748
H59	H	1.189607	-0.161131	0.000313
H60	H	1.105611	-0.045709	0.075568
H61	H	1.146468	-0.110870	0.126650
H62	H	1.271166	-0.091718	0.075881
H63	H	1.230305	-0.026540	0.024817
H64	H	1.230098	-0.026635	0.126967
H65	H	0.878886	0.181437	0.416400
C66	C	1.142288	-0.276119	0.000034
C67	C	1.124810	-0.345903	0.000007
C68	C	1.199849	-0.390793	-0.000027
H69	H	1.173681	-0.267709	0.051100
H70	H	1.173648	-0.267649	-0.051052
H71	H	1.093464	-0.354369	0.051088
H72	H	1.093429	-0.354335	-0.051056
H73	H	1.231210	-0.382323	-0.051113
H74	H	1.231237	-0.382377	0.051040
H75	H	1.188001	-0.438146	-0.000053
C76	C	1.100105	-0.003578	0.403840
C77	C	1.150879	0.033597	0.350890
C78	C	1.207642	-0.013776	0.304721
H79	H	1.070359	-0.032649	0.367831
H80	H	1.133927	-0.031853	0.444454
H81	H	1.117062	0.061860	0.310281
H82	H	1.180644	0.062665	0.386877
H83	H	1.241464	-0.042051	0.345335
H84	H	1.177889	-0.042844	0.268717
H85	H	1.242104	0.011440	0.268796
H86	H	0.847050	-0.233587	0.000035
H87	H	0.849360	-0.101464	0.000039
C88	C	1.137338	-0.568272	-0.000013
C89	C	1.202861	-0.623053	-0.000044
C90	C	1.279374	-0.595130	-0.000098
H91	H	1.141109	-0.540229	0.051048
H92	H	1.141028	-0.540221	-0.051104
H93	H	1.199172	-0.651092	0.051042
H94	H	1.199118	-0.651100	-0.051101
H95	H	1.283065	-0.567078	-0.051190
H96	H	1.283137	-0.567087	0.050963
H97	H	1.323841	-0.632294	-0.000128
H98	H	1.114193	-0.707878	0.000012
C99	C	0.818591	-0.685366	0.000032
C100	C	0.833549	-0.758722	0.000047
C101	C	0.757224	-0.786945	0.000084
H102	H	0.787610	-0.670071	-0.051029
H103	H	0.787655	-0.670054	0.051124
H104	H	0.864472	-0.774028	-0.051039
H105	H	0.864518	-0.774037	0.051104
H106	H	0.726287	-0.771632	0.051175
H107	H	0.726248	-0.771644	-0.050978
H108	H	0.767362	-0.836719	0.000102
C109	C	0.863604	0.194293	0.596320
C110	C	0.875761	0.184152	0.686922
C111	C	0.819159	0.231593	0.733189
H112	H	0.808108	0.186745	0.581327
H113	H	0.872471	0.240907	0.581249
H114	H	0.866888	0.137549	0.701987
H115	H	0.931246	0.191706	0.701941
H116	H	0.828026	0.278207	0.718117
H117	H	0.763667	0.224040	0.718188
H118	H	0.827406	0.224723	0.794666
H119	H	0.841570	-0.545497	0.000008
H120	H	0.384719	0.209567	0.000024
H121	H	0.578851	-0.018920	0.000057
H122	H	0.542027	0.211890	0.000016
