data_functionalizedCrystal
_audit_creation_method	'MofGen! by Chris Wilmer'
_symmetry_space_group_name_H-M	'P1'
_symmetry_Int_Tables_number	1
_symmetry_cell_setting	triclinic
loop_
_symmetry_equiv_pos_as_xyz
  x,y,z
_cell_length_a	15.538191
_cell_length_b	10.723024
_cell_length_c	9.798715
_cell_angle_alpha	90.001978
_cell_angle_beta	89.995216
_cell_angle_gamma	114.130018
loop_
_atom_site_label
_atom_site_type_symbol
_atom_site_fract_x
_atom_site_fract_y
_atom_site_fract_z
O1	O	1.247300	0.404096	-0.113514
O2	O	0.973969	0.260436	-0.113511
O3	O	1.116939	0.516770	-0.113508
O4	O	1.104330	0.147763	-0.113518
O5	O	1.116929	0.516765	0.113475
O6	O	0.973959	0.260431	0.113471
O7	O	1.247289	0.404092	0.113468
Zn8	Zn	1.110622	0.332261	0.149508
Zn9	Zn	1.110636	0.332267	-0.149551
O10	O	1.104319	0.147758	0.113465
C11	C	0.938965	0.245403	-0.000019
C12	C	0.834681	0.200632	-0.000018
C13	C	1.116016	0.562841	-0.000018
C14	C	1.113271	0.700121	-0.000023
N15	N	1.110619	0.332261	0.353608
C16	C	0.544016	0.645424	-0.000027
C17	C	0.446022	0.603323	-0.000029
C18	C	0.425110	0.366515	-0.000035
C19	C	0.523104	0.408596	-0.000027
C20	C	0.582550	0.548052	-0.000024
C21	C	0.561637	0.311224	-0.000023
C22	C	0.659623	0.353303	-0.000022
C23	C	0.719075	0.492753	-0.000023
C24	C	0.680535	0.590131	-0.000022
C25	C	0.502190	0.171769	-0.000036
C26	C	0.540723	0.074397	-0.000032
C27	C	0.638710	0.116475	-0.000021
C28	C	0.698162	0.255925	-0.000023
C29	C	0.677250	0.019097	-0.000022
C30	C	0.775235	0.061175	-0.000020
C31	C	0.796148	0.298003	-0.000021
C32	C	1.282293	0.419125	-0.000027
C33	C	1.386577	0.463896	-0.000037
C34	C	1.105242	0.101687	-0.000028
C35	C	1.107987	-0.035593	-0.000032
C36	C	1.193269	0.812246	-0.000026
C37	C	1.190434	0.954133	-0.000031
N38	N	1.110646	0.332280	-0.353651
C39	C	1.170648	0.440240	0.421386
C40	C	1.170664	0.440251	0.578549
H41	H	0.844552	0.411562	-0.000011
F42	F	1.237845	0.561084	0.654730
F43	F	1.021002	0.711938	-0.000034
F44	F	1.237642	0.561209	0.345159
F45	F	0.397904	0.126988	-0.000039
F46	F	0.477447	-0.074018	-0.000043
F47	F	1.043471	0.211435	0.570177
F48	F	0.823361	0.537537	-0.000030
F49	F	1.043452	0.211439	0.429835
H50	H	0.728940	0.703690	-0.000012
H51	H	0.628835	-0.094448	-0.000038
F52	F	1.018465	0.838636	-0.000019
H53	H	0.592421	0.758983	-0.000017
H54	H	0.376696	0.252969	-0.000043
F55	F	0.405017	0.706971	-0.000016
H56	H	0.806609	-0.018115	-0.000005
H57	H	1.263858	0.803199	-0.000018
H58	H	1.258919	1.050363	-0.000027
