data_functionalizedCrystal
_audit_creation_method	'MofGen! by Chris Wilmer'
_symmetry_space_group_name_H-M	'P1'
_symmetry_Int_Tables_number	1
_symmetry_cell_setting	triclinic
loop_
_symmetry_equiv_pos_as_xyz
  x,y,z
_cell_length_a	6.817900
_cell_length_b	10.992421
_cell_length_c	10.992410
_cell_angle_alpha	91.831025
_cell_angle_beta	108.764651
_cell_angle_gamma	108.764763
loop_
_atom_site_label
_atom_site_type_symbol
_atom_site_fract_x
_atom_site_fract_y
_atom_site_fract_z
V1	V	-4.114248	-0.177761	-0.400575
O2	O	-4.072376	0.008542	-0.392968
O3	O	-4.091827	-0.352470	-0.397818
O4	O	-4.091840	-0.175026	-0.575288
O5	O	-4.072363	-0.170129	-0.214270
V6	V	-4.591142	-0.155477	-0.378294
O7	O	-4.390048	-0.226642	-0.449452
O8	O	-4.765539	-0.106595	-0.329417
O9	O	-4.390356	0.019232	-0.381051
O10	O	-4.750411	-0.341780	-0.385901
O11	O	-4.750424	-0.163108	-0.564599
O12	O	-4.390343	-0.158211	-0.203581
C13	C	-3.942307	-0.395060	-0.391494
C14	C	-4.005435	-0.537887	-0.390404
C15	C	-3.873099	-0.733174	-0.381618
C16	C	-3.807017	-0.584530	-0.382242
C17	C	-4.076044	-0.576522	-0.270588
C18	C	-4.140279	-0.725065	-0.269320
C19	C	-4.271785	-0.763647	-0.514935
C20	C	-4.202731	-0.615133	-0.517535
C21	C	-3.942322	-0.168712	-0.617873
C22	C	-4.005457	-0.167632	-0.760702
C23	C	-3.872580	-0.157795	-0.955826
C24	C	-3.807029	-0.159451	-0.807343
C25	C	-4.203473	-0.294312	-0.837793
C26	C	-4.267786	-0.293192	-0.986360
C27	C	-4.145552	-0.047893	-0.948352
C28	C	-4.074843	-0.047293	-0.799340
C29	C	-4.203219	0.061816	-0.387371
C30	C	-4.119331	0.204641	-0.388470
C31	C	-4.203203	-0.164530	-0.160989
C32	C	-4.119306	-0.165603	-0.018159
H33	H	-4.352513	-0.584926	-0.530916
C34	C	-4.263240	-0.830535	-0.637416
H35	H	-4.356357	-0.810146	-0.712632
H36	H	-4.115595	-0.800759	-0.636576
H37	H	-4.312526	-0.921979	-0.638607
H38	H	-4.316491	-0.765948	-0.269130
H39	H	-3.749893	-0.558765	-0.467855
H40	H	-3.935455	-0.522284	-0.176470
H41	H	-3.755376	-0.066081	-0.974664
H42	H	-3.749849	-0.245200	-0.782519
C43	C	-4.141680	-0.415019	-0.803200
H44	H	-4.262581	-0.491198	-0.850339
H45	H	-4.016269	-0.411118	-0.825274
H46	H	-4.108099	-0.417218	-0.712636
C47	C	-3.881326	0.079308	-0.728632
H48	H	-3.758752	0.058926	-0.675775
H49	H	-3.840234	0.129927	-0.790805
H50	H	-3.925599	0.127165	-0.675665
C51	C	-3.838193	-0.795887	-0.496546
H52	H	-3.973467	-0.860564	-0.549737
H53	H	-3.790385	-0.731185	-0.546352
H54	H	-3.729213	-0.834633	-0.464449
H55	H	-4.221676	-0.546286	-0.271970
C56	C	-4.136722	-0.582637	-0.637308
H57	H	-3.989530	-0.522265	-0.609963
H58	H	-4.145628	-0.659799	-0.683688
H59	H	-4.234320	-0.545701	-0.692159
C60	C	-3.606459	-0.036412	-0.735290
H61	H	-3.564392	0.015033	-0.796713
H62	H	-3.644688	0.012286	-0.679490
H63	H	-3.486525	-0.060655	-0.685235
H64	H	-4.042638	0.048305	-0.968721
H65	H	-4.451634	-0.804764	-0.521215
H66	H	-3.847642	-0.242371	-1.003810
C67	C	-4.406616	-0.308595	-0.798879
H68	H	-4.372385	-0.237259	-0.735113
H69	H	-4.527156	-0.310011	-0.873224
H70	H	-4.445606	-0.387324	-0.764264
C71	C	-4.246753	-0.413587	-1.048860
H72	H	-4.199049	-0.462715	-0.983393
H73	H	-4.386322	-0.465661	-1.110520
H74	H	-4.141860	-0.386653	-1.091206
C75	C	-3.990615	-0.748741	-0.140811
H76	H	-4.028484	-0.839551	-0.138899
H77	H	-3.840399	-0.712190	-0.134409
H78	H	-4.010662	-0.709097	-0.069834
C79	C	-4.513654	-0.308090	-1.043959
H80	H	-4.573829	-0.314808	-0.976543
H81	H	-4.526914	-0.234398	-1.083998
H82	H	-4.591916	-0.384292	-1.106860
H83	H	-4.216956	-0.045805	-0.766828
C84	C	-4.387331	-0.054102	-1.003526
H85	H	-4.471928	-0.128023	-1.068784
H86	H	-4.446437	-0.060482	-0.935663
H87	H	-4.392789	0.022362	-1.040201
C88	C	-3.606165	-0.513675	-0.258935
H89	H	-3.564700	-0.575730	-0.208259
H90	H	-3.486035	-0.463427	-0.282901
H91	H	-3.643867	-0.458170	-0.209554
C92	C	-3.716655	-0.760905	-0.258392
H93	H	-3.800748	-0.810215	-0.211101
H94	H	-3.637187	-0.808527	-0.282346
H95	H	-3.615536	-0.681063	-0.205685
