data_functionalizedCrystal
_audit_creation_method	'MofGen! by Chris Wilmer'
_symmetry_space_group_name_H-M	'P1'
_symmetry_Int_Tables_number	1
_symmetry_cell_setting	triclinic
loop_
_symmetry_equiv_pos_as_xyz
  x,y,z
_cell_length_a	16.120530
_cell_length_b	12.594516
_cell_length_c	16.120297
_cell_angle_alpha	87.122232
_cell_angle_beta	89.871860
_cell_angle_gamma	87.111852
loop_
_atom_site_label
_atom_site_type_symbol
_atom_site_fract_x
_atom_site_fract_y
_atom_site_fract_z
Zn1	Zn	1.247493	-0.539249	0.534603
Zn2	Zn	1.254461	-0.708692	0.395557
Zn3	Zn	1.115482	-0.521263	0.388519
Zn4	Zn	1.108417	-0.707712	0.527526
O5	O	1.181463	-0.619229	0.461551
O6	O	1.364785	-0.569664	0.522065
O7	O	1.241897	-0.676712	0.278258
O8	O	1.133034	-0.374707	0.407914
O9	O	1.369904	-0.694153	0.419909
O10	O	1.230022	-0.387921	0.515241
O11	O	1.139790	-0.539009	0.273087
O12	O	0.998178	-0.538058	0.401052
O13	O	1.120993	-0.692482	0.644831
O14	O	0.992987	-0.675042	0.503180
O15	O	1.223172	-0.568713	0.650030
O16	O	1.235047	-0.857504	0.413047
O17	O	1.127749	-0.856784	0.510004
C18	C	0.965410	-0.604493	0.450585
C19	C	0.872980	-0.598215	0.445913
C20	C	0.703749	-0.586730	0.437391
C21	C	0.660015	-0.651810	0.485772
C22	C	0.565849	-0.645420	0.481031
C23	C	0.797924	-0.593119	0.442132
C24	C	1.181409	-0.895766	0.461540
C25	C	1.181461	-1.014076	0.461567
C26	C	1.123098	-1.082974	0.514263
C27	C	1.106686	-1.147787	0.437359
C28	C	1.197948	-1.160068	0.538488
C29	C	1.165010	-1.077326	0.384621
C30	C	1.256305	-1.089606	0.485803
C31	C	1.239924	-1.154387	0.408848
C32	C	1.398360	-0.634024	0.472561
C33	C	1.490789	-0.640328	0.477253
C34	C	1.170517	-0.632495	0.678446
C35	C	1.165853	-0.638148	0.770874
C36	C	1.181539	-0.341615	0.461582
C37	C	1.181572	-0.223313	0.461595
C38	C	1.192414	-0.605942	0.245502
C39	C	1.197240	-0.600000	0.153083
C40	C	1.157306	-0.648443	0.940100
C41	C	1.205784	-0.589708	0.983863
C42	C	1.201029	-0.595436	1.078026
C43	C	1.162061	-0.642716	0.845928
H44	H	1.073662	-1.051620	0.558754
C45	C	1.103482	-0.713621	1.070927
C46	C	1.096466	-0.722139	0.984981
H47	H	1.065928	-0.759125	1.098640
H48	H	1.090623	-0.642132	1.084486
H49	H	1.158654	-0.733847	1.087942
H50	H	1.041296	-0.701906	0.967965
H51	H	1.109320	-0.793644	0.971416
H52	H	1.250858	-0.535120	0.950612
C53	C	0.679885	-0.714360	0.627847
C54	C	0.704932	-0.733514	0.546494
H55	H	0.707622	-0.764798	0.665329
H56	H	0.621586	-0.720731	0.632581
H57	H	0.693474	-0.644565	0.640807
H58	H	0.691337	-0.803308	0.533532
H59	H	0.763243	-0.727153	0.541757
C60	C	0.572891	-0.514456	0.383664
C61	C	0.658832	-0.505044	0.376665
H62	H	0.545155	-0.464033	0.346169
H63	H	0.555911	-0.501458	0.438850
H64	H	0.559322	-0.584259	0.370705
H65	H	0.672401	-0.435242	0.389629
H66	H	0.675818	-0.518034	0.321466
C67	C	1.289209	-1.154257	0.268181
C68	C	1.306618	-1.196449	0.348637
H69	H	1.330379	-1.180233	0.231009
H70	H	1.289227	-1.078805	0.267516
H71	H	1.236219	-1.175136	0.251451
H72	H	1.359607	-1.175563	0.365370
H73	H	1.306609	-1.271918	0.349305
H74	H	1.151036	-1.041305	0.319560
C75	C	0.960224	-1.146534	0.464946
C76	C	1.021309	-1.182578	0.409694
H77	H	0.907517	-1.168017	0.447872
H78	H	0.959417	-1.071092	0.465221
H79	H	0.972307	-1.176066	0.519215
H80	H	1.009230	-1.153040	0.355426
H81	H	1.022114	-1.258035	0.409410
H82	H	1.319532	-1.063819	0.506317
H83	H	1.211849	-1.196211	0.603528
