data_functionalizedCrystal
_audit_creation_method	'MofGen! by Chris Wilmer'
_symmetry_space_group_name_H-M	'P1'
_symmetry_Int_Tables_number	1
_symmetry_cell_setting	triclinic
loop_
_symmetry_equiv_pos_as_xyz
  x,y,z
_cell_length_a	18.050591
_cell_length_b	21.395361
_cell_length_c	18.050565
_cell_angle_alpha	90.106805
_cell_angle_beta	89.930112
_cell_angle_gamma	89.973287
loop_
_atom_site_label
_atom_site_type_symbol
_atom_site_fract_x
_atom_site_fract_y
_atom_site_fract_z
Zn1	Zn	1.135639	0.249050	-0.420011
Zn2	Zn	1.385639	0.499050	-0.170011
Zn3	Zn	1.635639	0.749050	0.079989
Zn4	Zn	1.885639	0.999050	0.329989
Zn5	Zn	1.135438	0.353966	-0.295811
Zn6	Zn	1.385438	0.603966	-0.045811
Zn7	Zn	1.635438	0.853966	0.204189
Zn8	Zn	1.885438	1.103966	0.454189
Zn9	Zn	1.011352	0.249199	-0.295822
Zn10	Zn	1.261352	0.499199	-0.045822
Zn11	Zn	1.511352	0.749199	0.204178
Zn12	Zn	1.761352	0.999199	0.454178
Zn13	Zn	1.011401	0.353787	-0.419947
Zn14	Zn	1.261401	0.603787	-0.169947
Zn15	Zn	1.511401	0.853787	0.080053
Zn16	Zn	1.761401	1.103787	0.330053
O17	O	1.073457	0.301501	-0.357898
O18	O	1.323457	0.551501	-0.107898
O19	O	1.573457	0.801501	0.142102
O20	O	1.823457	1.051501	0.392102
O21	O	1.239537	0.262980	-0.403558
O22	O	1.489537	0.512980	-0.153558
O23	O	1.739537	0.762980	0.096442
O24	O	1.989537	1.012980	0.346442
O25	O	1.118873	0.340206	-0.191888
O26	O	1.368873	0.590206	0.058112
O27	O	1.618873	0.840206	0.308112
O28	O	1.868873	1.090206	0.558112
O29	O	1.027903	0.161501	-0.312327
O30	O	1.277903	0.411501	-0.062327
O31	O	1.527903	0.661501	0.187673
O32	O	1.777903	0.911501	0.437673
O33	O	1.239389	0.340062	-0.312309
O34	O	1.489389	0.590062	-0.062309
O35	O	1.739389	0.840062	0.187691
O36	O	1.989389	1.090062	0.437691
O37	O	1.119216	0.161392	-0.403568
O38	O	1.369216	0.411392	-0.153568
O39	O	1.619216	0.661392	0.096432
O40	O	1.869216	0.911392	0.346432
O41	O	1.027708	0.263234	-0.191895
O42	O	1.277708	0.513234	0.058105
O43	O	1.527708	0.763234	0.308105
O44	O	1.777708	1.013234	0.558105
O45	O	0.907434	0.263060	-0.312265
O46	O	1.157434	0.513060	-0.062265
O47	O	1.407434	0.763060	0.187735
O48	O	1.657434	1.013060	0.437735
O49	O	1.027986	0.339756	-0.523881
O50	O	1.277986	0.589756	-0.273881
O51	O	1.527986	0.839756	-0.023881
O52	O	1.777986	1.089756	0.226119
O53	O	0.907470	0.339900	-0.403459
O54	O	1.157470	0.589900	-0.153459
O55	O	1.407470	0.839900	0.096541
O56	O	1.657470	1.089900	0.346541
O57	O	1.119263	0.262806	-0.523927
O58	O	1.369263	0.512806	-0.273927
O59	O	1.619263	0.762806	-0.023927
O60	O	1.869263	1.012806	0.226073
O61	O	1.118920	0.441620	-0.312247
O62	O	1.368920	0.691620	-0.062247
O63	O	1.618920	0.941620	0.187753
O64	O	1.868920	1.191620	0.437753
O65	O	1.027791	0.441488	-0.403449
O66	O	1.277791	0.691488	-0.153449
O67	O	1.527791	0.941488	0.096551
O68	O	1.777791	1.191488	0.346551
C69	C	0.880505	0.301477	-0.357857
C70	C	1.130505	0.551477	-0.107857
C71	C	1.380505	0.801477	0.142143
C72	C	1.630505	1.051477	0.392143
C73	C	0.797959	0.301482	-0.357857
C74	C	1.047959	0.551482	-0.107857
C75	C	1.297959	0.801482	0.142143
C76	C	1.547959	1.051482	0.392143
C77	C	1.073359	0.464288	-0.357856
C78	C	1.323359	0.714288	-0.107856
C79	C	1.573359	0.964288	0.142144
C80	C	1.823359	1.214288	0.392144
C81	C	1.073385	0.533929	-0.357864
C82	C	1.323385	0.783929	-0.107864
C83	C	1.573385	1.033929	0.142136
C84	C	1.823385	1.283929	0.392136
C85	C	1.073652	0.301244	-0.551604
C86	C	1.323652	0.551244	-0.301604
C87	C	1.573652	0.801244	-0.051604
C88	C	1.823652	1.051244	0.198396
C89	C	1.073735	0.301135	-0.634150
C90	C	1.323735	0.551135	-0.384150
C91	C	1.573735	0.801135	-0.134150
C92	C	1.823735	1.051135	0.115850
C93	C	0.598468	0.259648	-0.308379
C94	C	0.848468	0.509648	-0.058379
C95	C	1.098468	0.759648	0.191621
C96	C	1.348468	1.009648	0.441621
C97	C	0.549030	0.316816	-0.290098
C98	C	0.799030	0.566816	-0.040098
C99	C	1.049030	0.816816	0.209902
C100	C	1.299030	1.066816	0.459902
C101	C	0.646829	0.301501	-0.357890
C102	C	0.896829	0.551501	-0.107890
C103	C	1.146829	0.801501	0.142110
C104	C	1.396829	1.051501	0.392110
C105	C	0.549186	0.244353	-0.376169
C106	C	0.799186	0.494353	-0.126169
C107	C	1.049186	0.744353	0.123831
C108	C	1.299186	0.994353	0.373831
C109	C	0.500844	0.301515	-0.357921
C110	C	0.750844	0.551515	-0.107921
C111	C	1.000844	0.801515	0.142079
C112	C	1.250844	1.051515	0.392079
C113	C	0.598478	0.358700	-0.339574
C114	C	0.848478	0.608700	-0.089574
C115	C	1.098478	0.858700	0.160426
C116	C	1.348478	1.108700	0.410426
C117	C	0.598638	0.286198	-0.425677
C118	C	0.848638	0.536198	-0.175677
C119	C	1.098638	0.786198	0.074323
C120	C	1.348638	1.036198	0.324323
C121	C	0.549222	0.343405	-0.407421
C122	C	0.799222	0.593405	-0.157421
C123	C	1.049222	0.843405	0.092579
C124	C	1.299222	1.093405	0.342579
C125	C	0.730927	0.301493	-0.357870
C126	C	0.980927	0.551493	-0.107870
C127	C	1.230927	0.801493	0.142130
C128	C	1.480927	1.051493	0.392130
C129	C	0.416747	0.301530	-0.357941
C130	C	0.666747	0.551530	-0.107941
C131	C	0.916747	0.801530	0.142059
C132	C	1.166747	1.051530	0.392059
C133	C	1.267163	0.301524	-0.357939
C134	C	1.517163	0.551524	-0.107939
C135	C	1.767163	0.801524	0.142061
C136	C	2.017163	1.051524	0.392061
C137	C	1.349709	0.301534	-0.357957
C138	C	1.599709	0.551534	-0.107957
C139	C	1.849709	0.801534	0.142043
C140	C	2.099709	1.051534	0.392043
C141	C	1.073576	0.138077	-0.357955
C142	C	1.323576	0.388077	-0.107955
C143	C	1.573576	0.638077	0.142045
C144	C	1.823576	0.888077	0.392045
C145	C	1.073627	0.068436	-0.357980
C146	C	1.323627	0.318436	-0.107980
C147	C	1.573627	0.568436	0.142020
C148	C	1.823627	0.818436	0.392020
C149	C	1.120879	0.566690	-0.310423
C150	C	1.370879	0.816690	-0.060423
C151	C	1.620879	1.066690	0.189577
C152	C	1.870879	1.316690	0.439577
C153	C	1.120913	0.632126	-0.310440
C154	C	1.370913	0.882126	-0.060440
C155	C	1.620913	1.132126	0.189560
C156	C	1.870913	1.382126	0.439560
C157	C	1.073441	0.664798	-0.357889
C158	C	1.323441	0.914798	-0.107889
C159	C	1.573441	1.164798	0.142111
C160	C	1.823441	1.414798	0.392111
C161	C	1.025944	0.632029	-0.405339
C162	C	1.275944	0.882029	-0.155339
C163	C	1.525944	1.132029	0.094661
C164	C	1.775944	1.382029	0.344661
C165	C	1.025917	0.566595	-0.405326
C166	C	1.275917	0.816595	-0.155326
C167	C	1.525917	1.066595	0.094674
C168	C	1.775917	1.316595	0.344674
C169	C	1.006577	0.768502	-0.363702
C170	C	1.256577	1.018502	-0.113702
C171	C	1.506577	1.268502	0.136298
C172	C	1.756577	1.518502	0.386298
C173	C	1.006603	0.833935	-0.363709
C174	C	1.256603	1.083935	-0.113709
C175	C	1.506603	1.333935	0.136291
C176	C	1.756603	1.583935	0.386291
C177	C	1.073528	0.866618	-0.357933
C178	C	1.323528	1.116618	-0.107933
C179	C	1.573528	1.366618	0.142067
C180	C	1.823528	1.616618	0.392067
C181	C	1.140427	0.833861	-0.352133
C182	C	1.390427	1.083861	-0.102133
C183	C	1.640427	1.333861	0.147867
C184	C	1.890427	1.583861	0.397867
C185	C	1.140399	0.768427	-0.352120
C186	C	1.390399	1.018427	-0.102120
C187	C	1.640399	1.268427	0.147880
C188	C	1.890399	1.518427	0.397880
C189	C	1.073466	0.735750	-0.357908
C190	C	1.323466	0.985750	-0.107908
C191	C	1.573466	1.235750	0.142092
C192	C	1.823466	1.485750	0.392092
C193	C	1.121062	0.970332	-0.310508
C194	C	1.371062	1.220332	-0.060508
C195	C	1.621062	1.470332	0.189492
C196	C	1.871062	1.720332	0.439492
C197	C	1.121098	1.035768	-0.310530
C198	C	1.371098	1.285768	-0.060530
C199	C	1.621098	1.535768	0.189470
C200	C	1.871098	1.785768	0.439470
C201	C	1.026123	1.035670	-0.405424
C202	C	1.276123	1.285670	-0.155424
C203	C	1.526123	1.535670	0.094576
C204	C	1.776123	1.785670	0.344576
C205	C	1.026094	0.970235	-0.405406
C206	C	1.276094	1.220235	-0.155406
C207	C	1.526094	1.470235	0.094594
C208	C	1.776094	1.720235	0.344594
C209	C	1.073563	0.937570	-0.357944
C210	C	1.323563	1.187570	-0.107944
C211	C	1.573563	1.437570	0.142056
C212	C	1.823563	1.687570	0.392056
C213	C	1.073306	0.301710	-0.164945
C214	C	1.323306	0.551710	0.085055
C215	C	1.573306	0.801710	0.335055
C216	C	1.823306	1.051710	0.585055
C217	C	1.073367	0.301643	-0.082399
C218	C	1.323367	0.551643	0.167601
C219	C	1.573367	0.801643	0.417601
C220	C	1.823367	1.051643	0.667601
C221	C	1.123474	0.342976	0.117092
C222	C	1.373474	0.592976	0.367092
C223	C	1.623474	0.842976	0.617092
C224	C	1.873474	1.092976	0.867092
C225	C	1.055883	0.358653	0.166680
C226	C	1.305883	0.608653	0.416680
C227	C	1.555883	0.858653	0.666680
C228	C	1.805883	1.108653	0.916680
C229	C	1.073489	0.301472	0.068730
C230	C	1.323489	0.551472	0.318730
C231	C	1.573489	0.801472	0.568730
C232	C	1.823489	1.051472	0.818730
C233	C	1.141199	0.285658	0.166225
C234	C	1.391199	0.535658	0.416225
C235	C	1.641199	0.785658	0.666225
C236	C	1.891199	1.035658	0.916225
C237	C	1.073614	0.301308	0.214715
C238	C	1.323614	0.551308	0.464715
C239	C	1.573614	0.801308	0.714715
C240	C	1.823614	1.051308	0.964715
C241	C	1.005862	0.317180	0.117231
C242	C	1.255862	0.567180	0.367231
C243	C	1.505862	0.817180	0.617231
C244	C	1.755862	1.067180	0.867231
C245	C	1.091223	0.244158	0.116771
C246	C	1.341223	0.494158	0.366771
C247	C	1.591223	0.744158	0.616771
C248	C	1.841223	0.994158	0.866771
C249	C	1.023585	0.259814	0.166336
C250	C	1.273585	0.509814	0.416336
C251	C	1.523585	0.759814	0.666336
C252	C	1.773585	1.009814	0.916336
C253	C	1.073419	0.301568	-0.015368
C254	C	1.323419	0.551568	0.234632
C255	C	1.573419	0.801568	0.484632
C256	C	1.823419	1.051568	0.734632
C257	C	1.073677	0.301212	0.298811
C258	C	1.323677	0.551212	0.548811
C259	C	1.573677	0.801212	0.798811
C260	C	1.823677	1.051212	1.048811
H261	H	0.620092	0.224292	-0.266464
H262	H	0.870092	0.474292	-0.016464
H263	H	1.120092	0.724292	0.233536
H264	H	1.370092	0.974292	0.483536
H265	H	0.952130	0.860600	-0.368424
H266	H	1.202130	1.110600	-0.118424
H267	H	1.452130	1.360600	0.131576
H268	H	1.702130	1.610600	0.381576
H269	H	0.620444	0.273226	-0.482972
H270	H	0.870444	0.523226	-0.232972
H271	H	1.120444	0.773226	0.017028
H272	H	1.370444	1.023226	0.267028
H273	H	1.165639	0.378172	0.095469
H274	H	1.415639	0.628172	0.345469
H275	H	1.665639	0.878172	0.595469
H276	H	1.915639	1.128172	0.845469
H277	H	1.159532	0.540096	-0.271779
H278	H	1.409532	0.790096	-0.021779
H279	H	1.659532	1.040096	0.228221
H280	H	1.909532	1.290096	0.478221
H281	H	0.527735	0.378846	-0.449304
H282	H	0.777735	0.628846	-0.199304
H283	H	1.027735	0.878846	0.050696
H284	H	1.277735	1.128846	0.300696
H285	H	0.987417	0.943559	-0.444034
H286	H	1.237417	1.193559	-0.194034
H287	H	1.487417	1.443559	0.055966
H288	H	1.737417	1.693559	0.305966
H289	H	1.040932	0.407052	0.188594
H290	H	1.290932	0.657052	0.438594
H291	H	1.540932	0.907052	0.688594
H292	H	1.790932	1.157052	0.938594
H293	H	0.948636	0.330541	0.095794
H294	H	1.198636	0.580541	0.345794
H295	H	1.448636	0.830541	0.595794
H296	H	1.698636	1.080541	0.845794
H297	H	1.106194	0.195773	0.094841
H298	H	1.356194	0.445773	0.344841
H299	H	1.606194	0.695773	0.594841
H300	H	1.856194	0.945773	0.844841
H301	H	0.987241	0.539920	-0.443958
H302	H	1.237241	0.789920	-0.193958
H303	H	1.487241	1.039920	0.056042
H304	H	1.737241	1.289920	0.306042
H305	H	0.527242	0.329770	-0.232786
H306	H	0.777242	0.579770	0.017214
H307	H	1.027242	0.829770	0.267214
H308	H	1.277242	1.079770	0.517214
H309	H	0.981319	0.224646	0.187823
H310	H	1.231319	0.474646	0.437823
H311	H	1.481319	0.724646	0.687823
H312	H	1.731319	0.974646	0.937823
H313	H	1.194870	0.741758	-0.347400
H314	H	1.444870	0.991758	-0.097400
H315	H	1.694870	1.241758	0.152600
H316	H	1.944870	1.491758	0.402600
H317	H	1.198408	0.272350	0.187752
H318	H	1.448408	0.522350	0.437752
H319	H	1.698408	0.772350	0.687752
H320	H	1.948408	1.022350	0.937752
H321	H	0.620041	0.407049	-0.324063
H322	H	0.870041	0.657049	-0.074063
H323	H	1.120041	0.907049	0.175937
H324	H	1.370041	1.157049	0.425937
H325	H	0.527494	0.196024	-0.391592
H326	H	0.777494	0.446024	-0.141592
H327	H	1.027494	0.696024	0.108408
H328	H	1.277494	0.946024	0.358408
H329	H	1.159591	0.658805	-0.271808
H330	H	1.409591	0.908805	-0.021808
H331	H	1.659591	1.158805	0.228192
H332	H	1.909591	1.408805	0.478192
H333	H	1.194923	0.860471	-0.347429
H334	H	1.444923	1.110471	-0.097429
H335	H	1.694923	1.360471	0.152571
H336	H	1.944923	1.610471	0.402571
H337	H	1.159717	0.943735	-0.271863
H338	H	1.409717	1.193735	-0.021863
H339	H	1.659717	1.443735	0.228137
H340	H	1.909717	1.693735	0.478137
H341	H	1.159778	1.062441	-0.271899
H342	H	1.409778	1.312441	-0.021899
H343	H	1.659778	1.562441	0.228101
H344	H	1.909778	1.812441	0.478101
H345	H	0.987474	1.062271	-0.444062
H346	H	1.237474	1.312271	-0.194062
H347	H	1.487474	1.562271	0.055938
H348	H	1.737474	1.812271	0.305938
H349	H	0.952075	0.741897	-0.368409
H350	H	1.202075	0.991897	-0.118409
H351	H	1.452075	1.241897	0.131591
H352	H	1.702075	1.491897	0.381591
H353	H	0.987294	0.658635	-0.443973
H354	H	1.237294	0.908635	-0.193973
H355	H	1.487294	1.158635	0.056027
H356	H	1.737294	1.408635	0.306027
