data_functionalizedCrystal
_audit_creation_method	'MofGen! by Chris Wilmer'
_symmetry_space_group_name_H-M	'P1'
_symmetry_Int_Tables_number	1
_symmetry_cell_setting	triclinic
loop_
_symmetry_equiv_pos_as_xyz
  x,y,z
_cell_length_a	19.188930
_cell_length_b	10.654550
_cell_length_c	9.130313
_cell_angle_alpha	90.000110
_cell_angle_beta	90.014104
_cell_angle_gamma	83.814842
loop_
_atom_site_label
_atom_site_type_symbol
_atom_site_fract_x
_atom_site_fract_y
_atom_site_fract_z
O1	O	-0.927166	-0.156774	-0.122267
O2	O	-0.723993	-0.177880	-0.122166
O3	O	-0.830251	0.015511	-0.122214
O4	O	-0.820908	-0.350165	-0.122220
O5	O	-0.830250	0.015506	0.121385
O6	O	-0.723992	-0.177885	0.121433
O7	O	-0.927165	-0.156779	0.121332
Cu8	Cu	-0.825578	-0.167333	0.143625
Cu9	Cu	-0.825580	-0.167326	-0.144459
O10	O	-0.820907	-0.350170	0.121379
C11	C	-0.697977	-0.177199	-0.000354
C12	C	-0.620459	-0.175147	-0.000315
C13	C	-0.829564	0.062292	-0.000416
C14	C	-0.827512	0.201692	-0.000420
C15	C	-0.953181	-0.157460	-0.000484
C16	C	-1.030699	-0.159512	-0.000532
C17	C	-0.576277	-0.288622	-0.000340
C18	C	-0.503441	-0.286695	-0.000356
C19	C	-0.474789	-0.171286	-0.000377
C20	C	-0.518981	-0.057795	-0.000344
C21	C	-0.591816	-0.059726	-0.000313
N22	N	-0.366233	-0.083068	-0.083342
N23	N	-0.297042	-0.081241	-0.083374
C24	C	-0.255343	-0.165461	-0.000466
N25	N	-0.285446	-0.251596	0.082456
N26	N	-0.354643	-0.253426	0.082482
C27	C	-0.395813	-0.169179	-0.000409
C28	C	-0.132183	-0.276855	-0.000507
C29	C	-0.059345	-0.274922	-0.000514
C30	C	-0.074887	-0.046020	-0.000516
C31	C	-0.147723	-0.047955	-0.000494
C32	C	-0.176366	-0.163376	-0.000497
C33	C	-0.821594	-0.396951	-0.000422
C34	C	-0.823646	-0.536351	-0.000428
N35	N	-0.825582	-0.167336	0.346247
C36	C	-0.890075	0.282501	-0.000446
C37	C	-0.888142	0.413481	-0.000456
C38	C	-0.761078	0.382829	-0.000405
C39	C	-0.763011	0.251852	-0.000407
C40	C	-0.954575	0.232341	-0.000459
C41	C	-1.017143	0.313152	-0.000484
C42	C	-1.015211	0.444132	-0.000494
C43	C	-0.950710	0.494301	-0.000478
N44	N	-0.825581	-0.167313	-0.347082
C45	C	-0.872645	-0.081731	0.422878
C46	C	-0.872643	-0.081716	0.576215
C47	C	-0.778513	-0.252922	0.576276
C48	C	-0.778512	-0.252930	0.422942
C49	C	-0.919716	0.003862	0.346183
C50	C	-0.966783	0.089473	0.422814
C51	C	-0.966781	0.089488	0.576151
C52	C	-0.919712	0.003892	0.652857
H53	H	-0.599593	-0.382607	-0.000345
O54	O	-0.727744	-0.345233	0.340261
H55	H	-0.757416	-0.406135	0.270363
O56	O	-1.082689	0.531299	-0.000514
H57	H	-1.127862	0.474409	-0.000509
H58	H	-1.069658	0.272296	-0.000534
H59	H	-0.956156	0.125693	-0.000447
H60	H	-0.949141	0.600955	-0.000501
O61	O	-0.695532	0.164688	-0.000368
H62	H	-0.707714	0.065186	-0.000385
O63	O	-0.691512	0.436932	-0.000360
H64	H	-0.700679	0.541585	-0.000344
H65	H	-0.919723	0.003855	0.221329
O66	O	-1.017533	0.181822	0.340096
H67	H	-1.009628	0.167435	0.220598
O68	O	-1.017548	0.181809	0.658812
H69	H	-1.050281	0.241312	0.579715
O70	O	-0.919712	0.003910	0.818243
H71	H	-0.879077	-0.069990	0.858702
O72	O	-0.455773	-0.409089	-0.000399
H73	H	-0.487927	-0.489671	-0.000406
O74	O	-0.488085	0.066686	-0.000366
H75	H	-0.430015	0.048966	-0.000406
H76	H	-0.627789	0.032682	-0.000294
O77	O	-0.043999	0.078466	-0.000528
H78	H	-0.011212	0.084835	-0.099831
O79	O	-0.163082	-0.401338	-0.000476
H80	H	-0.145392	-0.455859	-0.099755
O81	O	-0.011686	-0.397319	-0.000528
H82	H	-0.021952	-0.452559	-0.099821
O83	O	-0.727754	-0.345253	0.658998
H84	H	-0.735668	-0.330875	0.778496
O85	O	-0.195384	0.074436	-0.000480
H86	H	-0.163227	0.155014	-0.000506
