data_functionalizedCrystal
_audit_creation_method	'MofGen! by Chris Wilmer'
_symmetry_space_group_name_H-M	'P1'
_symmetry_Int_Tables_number	1
_symmetry_cell_setting	triclinic
loop_
_symmetry_equiv_pos_as_xyz
  x,y,z
_cell_length_a	19.121112
_cell_length_b	19.121063
_cell_length_c	12.827885
_cell_angle_alpha	92.403967
_cell_angle_beta	87.540456
_cell_angle_gamma	90.126867
loop_
_atom_site_label
_atom_site_type_symbol
_atom_site_fract_x
_atom_site_fract_y
_atom_site_fract_z
Zn1	Zn	1.059865	-0.324861	-0.678635
Zn2	Zn	1.054767	-0.442110	-0.510991
Zn3	Zn	0.942623	-0.319886	-0.496157
Zn4	Zn	0.937590	-0.437051	-0.677938
O5	O	0.998711	-0.380977	-0.590930
O6	O	1.157294	-0.344613	-0.662897
O7	O	1.039864	-0.425932	-0.362787
O8	O	0.962415	-0.222443	-0.514447
O9	O	1.153548	-0.430756	-0.539729
O10	O	1.048553	-0.226098	-0.648513
O11	O	0.957472	-0.336134	-0.351889
O12	O	0.843850	-0.331229	-0.513771
O13	O	0.953837	-0.422134	-0.824266
O14	O	0.840153	-0.417310	-0.647324
O15	O	1.043672	-0.339708	-0.824778
O16	O	1.034983	-0.539542	-0.539053
O17	O	0.948894	-0.535825	-0.661708
C18	C	0.816564	-0.373182	-0.578863
C19	C	0.738640	-0.369863	-0.573726
C20	C	0.298013	-0.348812	-0.541190
C21	C	0.371231	-0.351934	-0.546022
C22	C	0.405928	-0.398386	-0.617868
C23	C	0.367403	-0.441715	-0.684894
C24	C	0.294186	-0.438589	-0.680066
C25	C	0.626898	-0.410066	-0.635924
C26	C	0.700120	-0.413190	-0.640745
C27	C	0.703943	-0.323408	-0.501873
C28	C	0.630725	-0.320290	-0.497047
C29	C	0.592207	-0.363615	-0.564077
C30	C	0.480768	-0.401580	-0.622807
C31	C	0.517368	-0.360418	-0.559142
C32	C	0.990858	-0.563122	-0.601939
C33	C	0.987563	-0.641046	-0.606687
C34	C	1.030872	-0.679569	-0.545116
C35	C	1.027777	-0.752788	-0.549588
C36	C	0.981369	-0.787482	-0.615628
C37	C	0.938058	-0.748955	-0.677206
C38	C	0.941157	-0.675738	-0.672738
C39	C	0.969770	-1.008456	-0.632314
C40	C	0.966673	-1.081678	-0.636775
C41	C	1.056393	-1.085506	-0.509158
C42	C	1.059485	-1.012287	-0.504692
C43	C	1.016177	-0.973766	-0.566274
C44	C	0.978202	-0.862324	-0.620198
C45	C	1.019347	-0.898926	-0.561708
C46	C	1.181570	-0.388804	-0.603045
C47	C	1.259493	-0.392139	-0.608208
C48	C	0.998762	-0.380912	-0.863500
C49	C	0.998783	-0.380884	-0.979652
C50	C	1.006614	-0.198122	-0.579903
C51	C	1.009982	-0.120200	-0.575204
C52	C	0.954368	-0.421624	-1.151228
C53	C	0.954345	-0.421654	-1.031178
C54	C	0.998703	-0.380993	-0.319421
C55	C	0.998826	-0.380829	-0.203266
H56	H	0.395659	-0.479534	-0.743397
C57	C	0.931519	-1.102710	-0.812804
C58	C	0.915664	-1.119821	-0.709377
H59	H	0.900033	-1.126264	-0.857620
H60	H	0.927160	-1.053599	-0.818959
H61	H	0.978116	-1.116677	-0.831980
H62	H	0.869069	-1.105850	-0.690198
H63	H	0.920017	-1.168943	-0.703218
C64	C	0.964927	-0.944186	-0.765109
C65	C	0.927187	-0.900466	-0.692778
H66	H	0.933431	-0.967738	-0.809912
H67	H	0.996655	-0.916879	-0.805402
H68	H	0.990281	-0.977600	-0.729066
H69	H	0.901836	-0.867049	-0.728822
H70	H	0.895446	-0.927775	-0.652481
H71	H	0.602480	-0.282468	-0.438535
C72	C	0.912970	-0.459596	-1.318400
C73	C	0.903005	-0.468747	-1.211054
H74	H	0.881262	-0.488692	-1.355330
H75	H	0.904759	-0.412044	-1.332707
H76	H	0.959647	-0.471859	-1.339966
H77	H	0.856329	-0.456479	-1.189486
H78	H	0.911211	-0.516309	-1.196740
C79	C	0.782093	-0.426559	-0.787304
C80	C	0.738265	-0.464251	-0.719723
H81	H	0.805646	-0.458083	-0.836051
H82	H	0.754860	-0.394837	-0.823630
H83	H	0.815505	-0.401204	-0.748059
H84	H	0.704849	-0.489602	-0.758967
H85	H	0.765500	-0.495986	-0.683393
C86	C	0.924784	-0.830815	-0.822127
C87	C	0.887046	-0.787092	-0.749796
H88	H	0.893287	-0.854361	-0.866935
H89	H	0.956518	-0.803510	-0.862414
H90	H	0.950131	-0.864233	-0.786083
H91	H	0.861702	-0.753670	-0.785841
H92	H	0.855299	-0.814398	-0.709505
H93	H	1.036868	-0.345922	-1.158940
H94	H	0.269769	-0.310987	-0.482683
H95	H	0.916285	-0.456583	-0.986427
H96	H	1.091653	-1.116878	-0.459023
H97	H	0.595545	-0.445348	-0.690500
C98	C	0.852163	-0.679303	-0.799329
C99	C	0.893552	-0.633391	-0.740421
H100	H	0.822773	-0.653159	-0.841114
H101	H	0.881487	-0.709120	-0.843093
H102	H	0.824149	-0.706761	-0.753726
H103	H	0.921570	-0.605937	-0.786024
H104	H	0.864224	-0.603562	-0.696653
H105	H	1.036850	-0.345959	-1.024396
H106	H	1.057135	-0.870676	-0.507943
C107	C	0.367656	-0.262878	-0.408269
C108	C	0.413572	-0.304307	-0.472355
H109	H	0.393797	-0.233475	-0.362787
H110	H	0.340266	-0.234885	-0.450366
H111	H	0.337773	-0.292179	-0.368179
H112	H	0.443452	-0.275005	-0.512450
H113	H	0.440975	-0.332301	-0.430253
H114	H	0.262824	-0.473868	-0.734642
C115	C	0.786665	-0.317065	-0.366165
C116	C	0.746288	-0.275783	-0.428207
H117	H	0.812809	-0.287659	-0.320692
H118	H	0.756774	-0.346348	-0.326075
H119	H	0.817802	-0.345175	-0.409656
H120	H	0.715146	-0.247676	-0.384716
H121	H	0.776181	-0.246488	-0.468301
C122	C	0.562735	-0.414955	-0.769362
C123	C	0.518913	-0.452644	-0.701770
H124	H	0.586289	-0.446481	-0.818105
H125	H	0.535499	-0.383239	-0.805693
H126	H	0.596147	-0.389594	-0.730125
H127	H	0.485497	-0.478001	-0.741007
H128	H	0.546151	-0.484373	-0.665436
C129	C	1.119247	-0.690715	-0.419428
C130	C	1.081885	-0.641436	-0.472522
H131	H	1.150744	-0.667173	-0.374617
H132	H	1.087506	-0.718013	-0.379144
H133	H	1.144838	-0.720371	-0.468519
H134	H	1.056290	-0.611782	-0.423431
H135	H	1.113631	-0.614126	-0.512809
H136	H	0.489115	-0.322594	-0.500649
H137	H	1.063043	-0.784150	-0.499450
H138	H	1.097274	-0.984040	-0.450918
H139	H	0.934506	-0.977097	-0.682455
