data_functionalizedCrystal
_audit_creation_method	'MofGen! by Chris Wilmer'
_symmetry_space_group_name_H-M	'P1'
_symmetry_Int_Tables_number	1
_symmetry_cell_setting	triclinic
loop_
_symmetry_equiv_pos_as_xyz
  x,y,z
_cell_length_a	11.792254
_cell_length_b	17.019294
_cell_length_c	10.868271
_cell_angle_alpha	86.115896
_cell_angle_beta	89.995741
_cell_angle_gamma	83.795489
loop_
_atom_site_label
_atom_site_type_symbol
_atom_site_fract_x
_atom_site_fract_y
_atom_site_fract_z
O1	O	1.505767	0.108168	-0.113780
O2	O	1.175311	0.119300	-0.114962
O3	O	1.349758	-0.001059	-0.102202
O4	O	1.331321	0.228527	-0.126540
O5	O	1.349743	-0.001064	0.102443
O6	O	1.175297	0.119295	0.089683
O7	O	1.505753	0.108163	0.090865
Zn8	Zn	1.340523	0.113728	0.122766
Zn9	Zn	1.340541	0.113735	-0.146863
O10	O	1.331306	0.228522	0.078105
C11	C	1.133021	0.118596	-0.012566
C12	C	1.007030	0.116497	-0.012344
C13	C	0.904711	0.114792	-0.012168
C14	C	0.776347	0.112659	-0.011943
C15	C	1.349051	-0.030454	0.003234
C16	C	1.346954	-0.118033	0.012510
C17	C	1.345979	-0.159171	-0.094684
C18	C	1.344001	-0.241461	-0.085964
C19	C	1.343006	-0.282612	0.029950
C20	C	1.343978	-0.241468	0.137152
C21	C	1.345948	-0.159179	0.128431
C22	C	1.337051	-0.531071	0.061863
C23	C	1.335085	-0.613366	0.070576
C24	C	1.335106	-0.613353	-0.152541
C25	C	1.337083	-0.531063	-0.161251
C26	C	1.338048	-0.489926	-0.054050
C27	C	1.340988	-0.366725	0.038866
C28	C	1.340058	-0.405813	-0.062967
C29	C	1.548043	0.108866	-0.011534
C30	C	1.674034	0.110966	-0.011764
C31	C	1.332013	0.257917	-0.027333
C32	C	1.334110	0.345496	-0.036617
N33	N	1.340518	0.113724	0.306781
N34	N	1.340555	0.113733	-0.330877
C35	C	1.340536	0.113733	0.557786
C36	C	1.340522	0.113730	0.418108
H37	H	1.346795	-0.125673	-0.189074
Cl38	Cl	1.333890	-0.665073	-0.287299
H39	H	1.337860	-0.497589	0.149154
Cl40	Cl	1.347172	-0.107462	0.263194
Cl41	Cl	1.342714	-0.293199	0.282874
Cl42	Cl	1.338336	-0.479337	-0.306978
Cl43	Cl	1.341315	-0.354080	-0.208683
H44	H	1.343212	-0.274952	-0.173252
H45	H	1.334269	-0.646868	0.164972
Cl46	Cl	1.339732	-0.418464	0.184583
