data_functionalizedCrystal
_audit_creation_method	'MofGen! by Chris Wilmer'
_symmetry_space_group_name_H-M	'P1'
_symmetry_Int_Tables_number	1
_symmetry_cell_setting	triclinic
loop_
_symmetry_equiv_pos_as_xyz
  x,y,z
_cell_length_a	25.993477
_cell_length_b	25.993440
_cell_length_c	25.993511
_cell_angle_alpha	89.997521
_cell_angle_beta	59.999654
_cell_angle_gamma	60.000225
loop_
_atom_site_label
_atom_site_type_symbol
_atom_site_fract_x
_atom_site_fract_y
_atom_site_fract_z
O1	O	-0.368214	-0.438491	0.015296
O2	O	-0.262869	-0.363677	-0.015237
O3	O	-0.368212	-0.363677	0.090105
O4	O	-0.262871	-0.438491	-0.090047
O5	O	-0.453773	-0.278114	0.090098
O6	O	-0.348430	-0.278115	-0.015244
O7	O	-0.453775	-0.352928	0.015289
Cu8	Cu	-0.408915	-0.307709	0.000022
Cu9	Cu	-0.307729	-0.408897	0.000030
O10	O	-0.348432	-0.352929	-0.090053
C11	C	-0.255141	-0.184158	-0.022170
C12	C	-0.291260	-0.116296	-0.017795
C13	C	-0.285807	-0.215405	-0.022610
C14	C	-0.161977	-0.277321	-0.022178
C15	C	-0.098483	-0.309069	-0.017811
C16	C	-0.192784	-0.308427	-0.022618
C17	C	-0.255135	-0.277322	-0.022181
C18	C	-0.291247	-0.309070	-0.017818
C19	C	-0.192791	-0.215405	-0.022607
C20	C	-0.565863	-0.621962	0.037074
C21	C	-0.628211	-0.590717	0.037507
C22	C	-0.565859	-0.528803	0.037067
C23	C	-0.628207	-0.497700	0.037500
C24	C	-0.659018	-0.528804	0.037067
C25	C	-0.535193	-0.590716	0.037507
C26	C	-0.464938	-0.722646	0.029522
C27	C	-0.430643	-0.786267	0.024755
C28	C	-0.460084	-0.818176	0.022364
C29	C	-0.422900	-0.887159	0.017192
C30	C	-0.523824	-0.786470	0.024744
C31	C	-0.558119	-0.722851	0.029514
C32	C	-0.528674	-0.690942	0.031900
C33	C	-0.752145	-0.529048	0.029507
C34	C	-0.810995	-0.499724	0.024733
C35	C	-0.840508	-0.438377	0.022334
C36	C	-0.904314	-0.406581	0.017155
C37	C	-0.811181	-0.406343	0.024715
C38	C	-0.752337	-0.435664	0.029492
C39	C	-0.722819	-0.497016	0.031885
C40	C	-0.464930	-0.529044	0.029508
C41	C	-0.430626	-0.499722	0.024726
C42	C	-0.460063	-0.438375	0.022327
C43	C	-0.422875	-0.406577	0.017148
C44	C	-0.523798	-0.406344	0.024705
C45	C	-0.558102	-0.435664	0.029484
C46	C	-0.528666	-0.497014	0.031885
C47	C	-0.150799	-0.528799	-0.471156
C48	C	-0.088452	-0.590713	-0.502257
C49	C	-0.150799	-0.528800	-0.377996
C50	C	-0.088452	-0.590713	-0.409239
C51	C	-0.057643	-0.621958	-0.471151
C52	C	-0.181467	-0.497696	-0.409244
C53	C	-0.251725	-0.435432	-0.470919
C54	C	-0.286022	-0.405905	-0.500245
C55	C	-0.256585	-0.437738	-0.561592
C56	C	-0.293771	-0.405728	-0.593391
C57	C	-0.192845	-0.499096	-0.593623
C58	C	-0.158548	-0.528619	-0.564300
C59	C	-0.187991	-0.496787	-0.502947
C60	C	0.035480	-0.722643	-0.564515
C61	C	0.094329	-0.786264	-0.594038
C62	C	0.123844	-0.818173	-0.562204
C63	C	0.187649	-0.887156	-0.594210
C64	C	0.094520	-0.786466	-0.500846
C65	C	0.035677	-0.722847	-0.471326
C66	C	0.006157	-0.690938	-0.503160
C67	C	-0.251724	-0.435433	-0.277314
C68	C	-0.286026	-0.405910	-0.213691
C69	C	-0.256587	-0.437743	-0.181780
C70	C	-0.293772	-0.405734	-0.112797
C71	C	-0.192853	-0.499099	-0.213482
C72	C	-0.158551	-0.528624	-0.277103
C73	C	-0.187989	-0.496789	-0.309016
O74	O	0.074798	-0.352933	0.015296
O75	O	-0.074835	-0.278111	-0.015227
O76	O	-0.074828	-0.278128	0.090111
O77	O	0.074791	-0.352916	-0.090042
O78	O	-0.074823	-0.363696	0.090101
O79	O	-0.074829	-0.363679	-0.015237
O80	O	0.074803	-0.438501	0.015286
Cu81	Cu	-0.000013	-0.408903	0.000023
Cu82	Cu	-0.000019	-0.307709	0.000035
O83	O	0.074796	-0.438483	-0.090053
O84	O	-0.453797	0.090091	0.015329
O85	O	-0.348447	-0.090066	-0.015215
O86	O	-0.453787	0.015262	0.090132
O87	O	-0.348457	-0.015237	-0.090018
O88	O	-0.368224	0.015263	0.090135
O89	O	-0.262884	-0.090065	-0.015212
O90	O	-0.368234	0.090092	0.015332
Cu91	Cu	-0.307746	0.000013	0.000060
Cu92	Cu	-0.408934	0.000012	0.000057
O93	O	-0.262894	-0.015236	-0.090015
O94	O	0.358156	-1.090059	-0.636255
O95	O	0.208535	-0.909907	-0.561448
O96	O	0.208531	-1.015247	-0.561443
O97	O	0.358161	-0.984719	-0.636260
O98	O	0.208529	-1.015245	-0.647007
O99	O	0.208533	-0.909905	-0.647012
O100	O	0.358154	-1.090057	-0.721819
Cu101	Cu	0.283344	-0.999981	-0.692228
Cu102	Cu	0.283346	-0.999983	-0.591039
O103	O	0.358159	-0.984717	-0.721824
O104	O	-0.368212	-0.363677	-0.721856
O105	O	-0.262875	-0.438488	-0.647037
O106	O	-0.368216	-0.438489	-0.647036
O107	O	-0.262871	-0.363676	-0.721856
O108	O	-0.453778	-0.352925	-0.561477
O109	O	-0.348436	-0.352925	-0.561477
O110	O	-0.453774	-0.278113	-0.636296
Cu111	Cu	-0.408918	-0.307706	-0.591074
Cu112	Cu	-0.307731	-0.408895	-0.692259
O113	O	-0.348433	-0.278112	-0.636297
C114	C	-0.554666	-0.184166	0.277344
C115	C	-0.618156	-0.116307	0.309086
C116	C	-0.523858	-0.215411	0.308450
C117	C	-0.461510	-0.277325	0.184189
C118	C	-0.425396	-0.309070	0.116330
C119	C	-0.430843	-0.308428	0.215437
C120	C	-0.461510	-0.277324	0.277350
C121	C	-0.425397	-0.309070	0.309098
C122	C	-0.523857	-0.215412	0.215431
C123	C	-0.255130	-0.277363	0.277343
C124	C	-0.291242	-0.309114	0.309081
C125	C	-0.285803	-0.215450	0.308451
C126	C	-0.161971	-0.277351	0.184193
C127	C	-0.098477	-0.309090	0.116334
C128	C	-0.192785	-0.215438	0.215442
C129	C	-0.255136	-0.184199	0.277354
C130	C	-0.291255	-0.116340	0.309104
C131	C	-0.192779	-0.308460	0.215431
C132	C	-0.461509	0.022180	0.277376
C133	C	-0.425392	0.017806	0.309121
C134	C	-0.523855	0.022610	0.308478
C135	C	-0.461517	0.022195	0.184220
C136	C	-0.425407	0.017837	0.116362
C137	C	-0.523863	0.022624	0.215463
C138	C	-0.554668	0.022179	0.277374
C139	C	-0.618156	0.017804	0.309117
C140	C	-0.430846	0.022625	0.215465
C141	C	0.434156	-0.621914	-0.471151
C142	C	0.464823	-0.590664	-0.502248
C143	C	0.340991	-0.528763	-0.377990
C144	C	0.371799	-0.497654	-0.409228
C145	C	0.434150	-0.528751	-0.471140
C146	C	0.371805	-0.590676	-0.409239
C147	C	0.441479	-0.722605	-0.470920
C148	C	0.475579	-0.786226	-0.500249
C149	C	0.539323	-0.818129	-0.561594
C150	C	0.576301	-0.887111	-0.593396
C151	C	0.568972	-0.786416	-0.593622
C152	C	0.534873	-0.722797	-0.564296
C153	C	0.471129	-0.690894	-0.502945
C154	C	0.535079	-0.528981	-0.564498
C155	C	0.569374	-0.499652	-0.594017
C156	C	0.539931	-0.438305	-0.562180
C157	C	0.577115	-0.406502	-0.594182
C158	C	0.476187	-0.406277	-0.500823
C159	C	0.441892	-0.435604	-0.471307
C160	C	0.471340	-0.496956	-0.503144
C161	C	0.247863	-0.529017	-0.277312
C162	C	0.189015	-0.499702	-0.213689
C163	C	0.159496	-0.438355	-0.181776
C164	C	0.095686	-0.406565	-0.112794
C165	C	0.188819	-0.406318	-0.213474
C166	C	0.247667	-0.435631	-0.277094
C167	C	0.277186	-0.496981	-0.309011
O168	O	-0.368251	0.090052	0.352965
O169	O	-0.262887	-0.090103	0.278147
O170	O	-0.368247	0.015231	0.278157
O171	O	-0.262891	-0.015281	0.352955
O172	O	-0.453794	0.015213	0.363724
O173	O	-0.348434	-0.090120	0.363714
O174	O	-0.453798	0.090035	0.438531
Cu175	Cu	-0.408927	-0.000044	0.408935
Cu176	Cu	-0.307758	-0.000023	0.307743
O177	O	-0.348438	-0.015298	0.438522
C178	C	-0.057691	-0.036940	-0.471113
C179	C	-0.088504	-0.037371	-0.502216
C180	C	-0.150842	-0.036956	-0.377958
C181	C	-0.181513	-0.037386	-0.409202
C182	C	-0.150850	-0.036941	-0.471114
C183	C	-0.088495	-0.037386	-0.409201
C184	C	0.035435	-0.029379	-0.470869
C185	C	0.094283	-0.024603	-0.500191
C186	C	0.123793	-0.022199	-0.561537
C187	C	0.187597	-0.017016	-0.593332
C188	C	0.094465	-0.024577	-0.593570
C189	C	0.035623	-0.029356	-0.564250
C190	C	0.006108	-0.031755	-0.502900
C191	C	-0.158177	-0.029366	-0.564478
C192	C	-0.192276	-0.024590	-0.594003
C193	C	-0.256015	-0.022202	-0.562172
C194	C	-0.292993	-0.017020	-0.594180
C195	C	-0.285661	-0.024595	-0.500816
C196	C	-0.251562	-0.029374	-0.471294
C197	C	-0.187822	-0.031757	-0.503125
C198	C	-0.158151	-0.029412	-0.277275
C199	C	-0.192247	-0.024642	-0.213652
C200	C	-0.255986	-0.022254	-0.181744
C201	C	-0.292955	-0.017088	-0.112763
C202	C	-0.285640	-0.024630	-0.213449
C203	C	-0.251549	-0.029396	-0.277069
C204	C	-0.187805	-0.031787	-0.308979
H205	H	-0.166991	-0.359301	-0.023326
C206	C	-0.558691	0.023544	0.377198
C207	C	-0.586396	0.078419	0.429034
C208	C	-0.621233	0.079353	0.497751
C209	C	-0.628365	0.025412	0.514631
C210	C	-0.600660	-0.029467	0.462793
C211	C	-0.565823	-0.030401	0.394076
H212	H	-0.581116	0.118354	0.416540
H213	H	-0.641742	0.119979	0.536125
H214	H	-0.654154	0.026103	0.565499
H215	H	-0.605940	-0.069402	0.475287
H216	H	-0.545314	-0.071027	0.355702
H217	H	-0.335973	-0.190319	-0.023318
C218	C	-0.284170	-0.032004	-0.403805
C219	C	-0.239243	-0.089564	-0.390648
C220	C	-0.271854	-0.092193	-0.323158
C221	C	-0.349392	-0.037262	-0.268826
C222	C	-0.394323	0.020302	-0.281981
C223	C	-0.361712	0.022931	-0.349471
H224	H	-0.181841	-0.130231	-0.430870
H225	H	-0.238593	-0.134806	-0.313420
H226	H	-0.373533	-0.039208	-0.218866
H227	H	-0.451726	0.060969	-0.241760
H228	H	-0.394974	0.065544	-0.359209
H229	H	-0.167002	-0.190349	0.190358
C230	C	-0.363053	0.023550	0.181553
C231	C	-0.292220	-0.030414	0.171768
C232	C	-0.224421	-0.029504	0.137845
C233	C	-0.227456	0.025371	0.113706
C234	C	-0.298292	0.079339	0.123490
C235	C	-0.366091	0.078429	0.157414
H236	H	-0.289971	-0.071040	0.189637
H237	H	-0.171984	-0.069455	0.130602
H238	H	-0.177267	0.026045	0.088594
H239	H	-0.300541	0.119964	0.105621
H240	H	-0.418528	0.118380	0.164657
H241	H	-0.275701	-0.409506	-0.420964
H242	H	0.118156	-0.022667	-0.474106
C243	C	0.279925	-0.400393	-0.311966
C244	C	0.311644	-0.377788	-0.288747
C245	C	0.343903	-0.342550	-0.323619
C246	C	0.344442	-0.329917	-0.381708
C247	C	0.312722	-0.352523	-0.404930
C248	C	0.280463	-0.387761	-0.370059
H249	H	0.311246	-0.387140	-0.245743
H250	H	0.367384	-0.325817	-0.306428
H251	H	0.368322	-0.303832	-0.407522
H252	H	0.313120	-0.343171	-0.447934
H253	H	0.256982	-0.404495	-0.387249
H254	H	-0.166994	-0.359329	0.190344
C255	C	-0.558691	-0.181523	0.181541
C256	C	-0.586405	-0.208698	0.157425
C257	C	-0.621237	-0.174810	0.123537
C258	C	-0.628355	-0.113747	0.113764
C259	C	-0.600640	-0.086569	0.137881
C260	C	-0.565808	-0.120456	0.171769
H261	H	-0.581137	-0.253904	0.164659
H262	H	-0.641754	-0.194930	0.105684
H263	H	-0.654140	-0.088662	0.088678
H264	H	-0.605908	-0.041363	0.130647
H265	H	-0.545291	-0.100337	0.189622
C266	C	-0.157954	-0.181520	-0.023545
C267	C	-0.202123	-0.120465	0.030403
C268	C	-0.167287	-0.086584	0.029466
C269	C	-0.088280	-0.113758	-0.025420
C270	C	-0.044107	-0.174816	-0.079373
C271	C	-0.078944	-0.208697	-0.078436
H272	H	-0.260613	-0.100347	0.071037
H273	H	-0.199987	-0.041385	0.069406
H274	H	-0.062492	-0.088677	-0.026114
H275	H	0.014382	-0.194934	-0.120007
H276	H	-0.046243	-0.253896	-0.118375
H277	H	-0.549654	0.023338	0.190378
C278	C	-0.663047	-0.428978	0.038443
C279	C	-0.618882	-0.412081	-0.015501
C280	C	-0.653724	-0.343362	-0.014558
C281	C	-0.732732	-0.291539	0.040329
C282	C	-0.776902	-0.308435	0.094277
C283	C	-0.742060	-0.377155	0.093334
H284	H	-0.560391	-0.450444	-0.056135
H285	H	-0.621026	-0.330855	-0.054494
H286	H	-0.758524	-0.240669	0.041028
H287	H	-0.835393	-0.270072	0.134911
H288	H	-0.774758	-0.389662	0.133270
C289	C	0.532621	-0.624538	-0.570959
C290	C	0.603450	-0.685586	-0.587823
C291	C	0.671255	-0.719455	-0.656527
C292	C	0.668229	-0.692275	-0.708367
C293	C	0.597397	-0.631224	-0.691504
C294	C	0.529592	-0.597355	-0.622800
H295	H	0.605693	-0.705709	-0.549447
H296	H	0.723690	-0.764650	-0.669010
H297	H	0.718422	-0.717347	-0.759226
H298	H	0.595155	-0.611101	-0.729880
H299	H	0.477158	-0.552160	-0.610317
C300	C	-0.558698	-0.181521	0.377173
C301	C	-0.514527	-0.171759	0.394073
C302	C	-0.549369	-0.137870	0.462794
C303	C	-0.628382	-0.113742	0.514614
C304	C	-0.672557	-0.123503	0.497715
C305	C	-0.637715	-0.157393	0.428994
H306	H	-0.456032	-0.189621	0.355712
H307	H	-0.516666	-0.130644	0.475304
H308	H	-0.654174	-0.088655	0.565485
H309	H	-0.731052	-0.105642	0.536076
H310	H	-0.670418	-0.164619	0.416485
C311	C	0.002974	-0.032026	-0.403386
C312	C	0.002386	-0.089585	-0.390336
C313	C	-0.030079	-0.092226	-0.322851
C314	C	-0.061955	-0.037309	-0.268415
C315	C	-0.061368	0.020254	-0.281463
C316	C	-0.028903	0.022895	-0.348949
H317	H	0.025983	-0.130241	-0.430634
H318	H	-0.030514	-0.134838	-0.313192
H319	H	-0.085988	-0.039264	-0.218458
H320	H	-0.084965	0.060910	-0.241165
H321	H	-0.028468	0.065507	-0.358607
C322	C	0.336966	-0.624563	-0.375351
C323	C	0.309267	-0.648690	-0.402536
C324	C	0.274426	-0.682573	-0.368646
C325	C	0.267284	-0.692327	-0.307571
C326	C	0.294983	-0.668199	-0.280383
C327	C	0.329824	-0.634317	-0.314273
H328	H	0.314553	-0.641470	-0.447750
H329	H	0.253921	-0.700434	-0.388773
H330	H	0.241493	-0.717409	-0.282483
H331	H	0.289697	-0.675420	-0.235169
H332	H	0.350329	-0.616455	-0.294146
H333	H	0.011808	-0.697031	-0.421371
C334	C	-0.353579	-0.181564	0.377172
C335	C	-0.424404	-0.120491	0.394064
C336	C	-0.492176	-0.086604	0.462783
C337	C	-0.489122	-0.113791	0.514611
C338	C	-0.418294	-0.174867	0.497721
C339	C	-0.350522	-0.208754	0.429002
H340	H	-0.426667	-0.100363	0.355696
H341	H	-0.544607	-0.041391	0.475285
H342	H	-0.539291	-0.088706	0.565481
H343	H	-0.416031	-0.194996	0.536089
H344	H	-0.298091	-0.253967	0.416499
H345	H	0.346009	-0.446784	-0.384136
H346	H	0.559012	-0.696976	-0.590376
H347	H	-0.728117	-0.579003	0.031460
H348	H	0.165143	-0.525791	-0.187887
C349	C	-0.363066	-0.377149	0.181552
C350	C	-0.292240	-0.394037	0.171797
C351	C	-0.224465	-0.462754	0.137913
C352	C	-0.227516	-0.514584	0.113783
C353	C	-0.298345	-0.497697	0.123537
C354	C	-0.366120	-0.428980	0.157422
H355	H	-0.289979	-0.355668	0.189660
H356	H	-0.172033	-0.475254	0.130692
H357	H	-0.177345	-0.565452	0.088700
H358	H	-0.300606	-0.536066	0.105674
H359	H	-0.418552	-0.416480	0.164642
H360	H	0.271893	-0.578970	-0.303297
H361	H	-0.653995	-0.615806	0.038208
H362	H	-0.834866	-0.525813	0.022797
H363	H	-0.168878	-0.525011	-0.643580
C364	C	-0.467421	-0.624595	0.038461
C365	C	-0.470479	-0.648719	0.093348
C366	C	-0.402711	-0.682593	0.094303
C367	C	-0.331885	-0.692344	0.040371
C368	C	-0.328823	-0.668220	-0.014521
C369	C	-0.396591	-0.634346	-0.015476
H370	H	-0.522912	-0.641501	0.133276
H371	H	-0.404978	-0.700451	0.134938
H372	H	-0.281719	-0.717419	0.041078
H373	H	-0.276391	-0.675437	-0.054448
H374	H	-0.394325	-0.616488	-0.056111
C375	C	-0.053683	-0.038305	-0.570936
C376	C	0.025325	-0.093180	-0.622772
C377	C	0.060141	-0.094114	-0.691488
C378	C	0.015948	-0.040173	-0.708369
C379	C	-0.063065	0.014706	-0.656532
C380	C	-0.097881	0.015640	-0.587815
H381	H	0.058044	-0.133114	-0.610277
H382	H	0.118632	-0.134739	-0.729862
H383	H	0.041721	-0.040864	-0.759237
H384	H	-0.095784	0.054640	-0.669027
H385	H	-0.156372	0.056265	-0.549442
H386	H	0.389573	-0.696631	-0.420966
H387	H	0.451433	-0.812040	-0.474168
C388	C	-0.556184	-0.338857	0.022067
C389	C	-0.633658	-0.284424	0.076991
C390	C	-0.666043	-0.216936	0.074356
C391	C	-0.620953	-0.203881	0.016798
C392	C	-0.543475	-0.258316	-0.038130
C393	C	-0.511090	-0.325803	-0.035495
H394	H	-0.667041	-0.294086	0.119603
H395	H	-0.723398	-0.176640	0.115017
H396	H	-0.644927	-0.153923	0.014847
H397	H	-0.510092	-0.248653	-0.080742
H398	H	-0.453735	-0.366099	-0.076157
C399	C	0.639099	-0.821513	-0.661106
C400	C	0.709709	-0.879651	-0.674153
C401	C	0.779834	-0.914744	-0.741637
C402	C	0.779348	-0.891700	-0.796073
C403	C	0.708735	-0.833560	-0.783028
C404	C	0.638610	-0.798467	-0.715544
H405	H	0.710071	-0.896712	-0.633855
H406	H	0.832107	-0.957784	-0.751293
H407	H	0.831259	-0.917679	-0.846028
H408	H	0.708373	-0.816499	-0.823326
H409	H	0.586338	-0.755427	-0.705887
H410	H	0.559055	-0.578934	-0.590429
H411	H	-0.378733	-0.525806	0.022792
C412	C	0.126926	-0.021928	-0.661054
C413	C	0.207303	-0.072907	-0.714006
C414	C	0.239760	-0.070260	-0.781489
C415	C	0.191842	-0.016633	-0.796021
C416	C	0.111461	0.034350	-0.743068
C417	C	0.079003	0.031702	-0.675584
H418	H	0.242779	-0.112608	-0.703250
H419	H	0.299264	-0.108001	-0.820688
H420	H	0.215869	-0.014673	-0.845976
H421	H	0.075984	0.074051	-0.753824
H422	H	0.019500	0.069443	-0.636385
H423	H	-0.440960	-0.578997	0.031467
C424	C	-0.053611	-0.624609	-0.375356
C425	C	-0.046475	-0.685682	-0.365603
C426	C	-0.011633	-0.719580	-0.331725
C427	C	0.016073	-0.692404	-0.307599
C428	C	0.008939	-0.631328	-0.317350
C429	C	-0.025903	-0.597430	-0.351229
H430	H	-0.066986	-0.705803	-0.383464
H431	H	-0.006352	-0.764793	-0.324506
H432	H	0.041866	-0.717498	-0.282520
H433	H	0.029450	-0.611207	-0.299490
H434	H	-0.031185	-0.552217	-0.358447
C435	C	0.639488	-0.534883	-0.661505
C436	C	0.707535	-0.597375	-0.675933
C437	C	0.777649	-0.632602	-0.743422
C438	C	0.779717	-0.605335	-0.796483
C439	C	0.711668	-0.542839	-0.782057
C440	C	0.641553	-0.507613	-0.714568
H441	H	0.706006	-0.617562	-0.636653
H442	H	0.828023	-0.678865	-0.754101
H443	H	0.831620	-0.631412	-0.846443
H444	H	0.713196	-0.522652	-0.821337
H445	H	0.591179	-0.461349	-0.703888
H446	H	0.452215	-0.356320	-0.474905
H447	H	0.164783	-0.356364	-0.187483
H448	H	0.389991	-0.409526	-0.421351
H449	H	-0.440960	-0.696667	0.031469
C450	C	-0.360533	-0.821142	0.022135
C451	C	-0.361134	-0.797928	0.077065
C452	C	-0.291023	-0.832806	0.074448
C453	C	-0.220312	-0.890898	0.016901
C454	C	-0.219708	-0.914115	-0.038033
C455	C	-0.289818	-0.879237	-0.035417
H456	H	-0.413481	-0.754923	0.119669
H457	H	-0.291471	-0.815619	0.115115
H458	H	-0.168412	-0.916717	0.014964
H459	H	-0.167360	-0.957121	-0.080637
H460	H	-0.289371	-0.896425	-0.076083
C461	C	-0.159622	-0.022033	-0.178783
C462	C	-0.150726	0.031575	-0.173246
C463	C	-0.118103	0.034190	-0.138375
C464	C	-0.094375	-0.016804	-0.109041
C465	C	-0.103270	-0.070415	-0.114578
C466	C	-0.135894	-0.073030	-0.149449
H467	H	-0.168291	0.069327	-0.194962
H468	H	-0.111518	0.073877	-0.134277
H469	H	-0.070225	-0.014868	-0.083227
H470	H	-0.085705	-0.108167	-0.092862
H471	H	-0.142478	-0.112717	-0.153547
H472	H	-0.231682	-0.038091	-0.384116
C473	C	-0.159666	-0.021957	-0.661491
C474	C	-0.135931	-0.072947	-0.714556
C475	C	-0.103326	-0.070314	-0.782044
C476	C	-0.094456	-0.016691	-0.796467
C477	C	-0.118191	0.034303	-0.743400
C478	C	-0.150797	0.031670	-0.675912
H479	H	-0.142497	-0.112645	-0.703881
H480	H	-0.085756	-0.108063	-0.821328
H481	H	-0.070320	-0.014742	-0.846426
H482	H	-0.111626	0.074001	-0.754076
H483	H	-0.168367	0.069419	-0.636629
C484	C	-0.355781	-0.021966	-0.465799
C485	C	-0.426397	0.035595	-0.453320
C486	C	-0.496515	0.038222	-0.418301
C487	C	-0.496017	-0.016711	-0.395760
C488	C	-0.425399	-0.074275	-0.408238
C489	C	-0.355281	-0.076903	-0.443258
H490	H	-0.426768	0.076263	-0.470007
H491	H	-0.548791	0.080836	-0.409064
H492	H	-0.547923	-0.014765	-0.369837
H493	H	-0.425028	-0.114944	-0.391552
H494	H	-0.303004	-0.119516	-0.452495
C495	C	-0.356134	-0.338419	-0.465010
C496	C	-0.426847	-0.325260	-0.452387
C497	C	-0.496960	-0.257771	-0.417152
C498	C	-0.496361	-0.203441	-0.394539
C499	C	-0.425645	-0.216598	-0.407161
C500	C	-0.355532	-0.284087	-0.442396
H501	H	-0.427293	-0.365481	-0.469127
H502	H	-0.549309	-0.248032	-0.407809
H503	H	-0.548263	-0.153481	-0.368456
H504	H	-0.425199	-0.176378	-0.390421
H505	H	-0.303184	-0.293827	-0.451740
C506	C	-0.355759	-0.022002	-0.178351
C507	C	-0.426370	0.035548	-0.120205
C508	C	-0.496486	0.038173	-0.085107
C509	C	-0.495992	-0.016752	-0.108154
C510	C	-0.425378	-0.074307	-0.166303
C511	C	-0.355262	-0.076931	-0.201402
H512	H	-0.426739	0.076210	-0.103141
H513	H	-0.548759	0.080778	-0.042061
H514	H	-0.547896	-0.014809	-0.082172
H515	H	-0.425010	-0.114969	-0.183367
H516	H	-0.302989	-0.119537	-0.244448
H517	H	-0.547791	-0.812461	0.022796
C518	C	-0.628233	-0.687963	0.032137
C519	C	-0.627642	-0.711157	-0.022795
C520	C	-0.697758	-0.676265	-0.020170
C521	C	-0.768464	-0.618179	0.037386
C522	C	-0.769058	-0.594982	0.092322
C523	C	-0.698942	-0.629874	0.089697
H524	H	-0.575299	-0.754159	-0.065405
H525	H	-0.697318	-0.693438	-0.060837
H526	H	-0.820368	-0.592350	0.039329
H527	H	-0.821401	-0.551980	0.134932
H528	H	-0.699382	-0.612702	0.130364
H529	H	-0.835216	-0.356389	0.022756
H530	H	-0.728458	-0.409582	0.031426
C531	C	-0.053615	-0.624607	-0.570978
C532	C	-0.097785	-0.634382	-0.587869
C533	C	-0.062947	-0.668278	-0.656586
C534	C	0.016062	-0.692399	-0.708412
C535	C	0.060237	-0.682625	-0.691523
C536	C	0.025398	-0.648728	-0.622806
H537	H	-0.156276	-0.616526	-0.549502
H538	H	-0.095649	-0.675514	-0.669088
H539	H	0.041851	-0.717491	-0.759281
H540	H	0.118728	-0.700481	-0.729889
H541	H	0.058100	-0.641493	-0.610303
H542	H	-0.609997	-0.409582	0.031417
H543	H	-0.231635	-0.446825	-0.384164
C544	C	-0.356131	-0.338421	-0.178827
C545	C	-0.358209	-0.285356	-0.149490
C546	C	-0.428321	-0.217866	-0.114625
C547	C	-0.496354	-0.203441	-0.109098
C548	C	-0.494278	-0.256507	-0.138436
C549	C	-0.424167	-0.323997	-0.173301
H550	H	-0.307845	-0.296034	-0.153581
H551	H	-0.429857	-0.178583	-0.092907
H552	H	-0.548255	-0.153480	-0.083289
H553	H	-0.544643	-0.245829	-0.134345
H554	H	-0.422631	-0.363280	-0.195019
H555	H	-0.275697	-0.409506	-0.303297
C556	C	0.126580	-0.821138	-0.661527
C557	C	0.078514	-0.826691	-0.675955
C558	C	0.110771	-0.861571	-0.743445
C559	C	0.191092	-0.890896	-0.796507
C560	C	0.239163	-0.885344	-0.782080
C561	C	0.206906	-0.850465	-0.714590
H562	H	0.019051	-0.804982	-0.636675
H563	H	0.075185	-0.865681	-0.754124
H564	H	0.214970	-0.916716	-0.846467
H565	H	0.298626	-0.907053	-0.821361
H566	H	0.242491	-0.846354	-0.703911
C567	C	0.126988	-0.821571	-0.465825
C568	C	0.127565	-0.879709	-0.453348
C569	C	0.160030	-0.914809	-0.418325
C570	C	0.191919	-0.891771	-0.395779
C571	C	0.191344	-0.833629	-0.408256
C572	C	0.158879	-0.798529	-0.443279
H573	H	0.103957	-0.896767	-0.470038
H574	H	0.160455	-0.957850	-0.409089
H575	H	0.215952	-0.917754	-0.369853
H576	H	0.214952	-0.816572	-0.391566
H577	H	0.158453	-0.755489	-0.452515
H578	H	-0.062738	-0.038040	-0.384102
H579	H	-0.106645	-0.578574	-0.590384
C580	C	-0.160465	-0.534122	-0.178380
C581	C	-0.205554	-0.546592	-0.120236
C582	C	-0.173167	-0.581611	-0.085134
C583	C	-0.095691	-0.604162	-0.108176
C584	C	-0.050597	-0.591693	-0.166323
C585	C	-0.082984	-0.556673	-0.201425
H586	H	-0.262911	-0.529898	-0.103177
H587	H	-0.206549	-0.590842	-0.042090
H588	H	-0.071717	-0.630086	-0.082191
H589	H	0.006759	-0.608386	-0.183382
H590	H	-0.049602	-0.547442	-0.244469
H591	H	0.011451	-0.696664	-0.590443
H592	H	-0.106245	-0.031362	-0.303254
H593	H	0.011738	-0.031283	-0.590330
H594	H	-0.106656	-0.578583	-0.302913
H595	H	-0.106275	-0.031309	-0.590402
H596	H	-0.275699	-0.031329	-0.302881
