data_functionalizedCrystal
_audit_creation_method	'MofGen! by Chris Wilmer'
_symmetry_space_group_name_H-M	'P1'
_symmetry_Int_Tables_number	1
_symmetry_cell_setting	triclinic
loop_
_symmetry_equiv_pos_as_xyz
  x,y,z
_cell_length_a	10.489741
_cell_length_b	9.565339
_cell_length_c	14.044220
_cell_angle_alpha	90.000736
_cell_angle_beta	88.864026
_cell_angle_gamma	90.000900
loop_
_atom_site_label
_atom_site_type_symbol
_atom_site_fract_x
_atom_site_fract_y
_atom_site_fract_z
O1	O	1.707627	0.116177	0.133829
O2	O	1.337705	0.116199	0.146392
O3	O	1.517113	0.116175	0.002088
O4	O	1.528218	0.116202	0.278133
O5	O	1.517099	-0.116345	0.002097
O6	O	1.337690	-0.116321	0.146401
O7	O	1.707612	-0.116343	0.133838
Zn8	Zn	1.522649	-0.153249	0.140121
Zn9	Zn	1.522668	0.153106	0.140109
O10	O	1.528204	-0.116318	0.278142
C11	C	1.290070	-0.000058	0.145447
C12	C	1.148152	-0.000050	0.142609
C13	C	1.070700	-0.000072	0.050792
C14	C	0.982979	0.114574	0.094161
C15	C	0.983001	-0.114673	0.094192
C16	C	1.062301	0.114691	0.186015
C17	C	1.062331	-0.114659	0.186033
C18	C	0.974645	0.000015	0.229468
N19	N	1.522645	-0.362329	0.140128
C20	C	1.439645	-0.453521	0.206841
C21	C	1.557089	-0.546704	0.226036
C22	C	1.405252	-0.546700	0.120941
C23	C	1.640152	-0.453461	0.159366
C24	C	1.488235	-0.453449	0.054234
C25	C	1.605758	-0.546590	0.073392
C26	C	1.755247	-0.000082	0.134782
C27	C	1.897165	-0.000081	0.137621
C28	C	1.512245	-0.000086	-0.033255
C29	C	1.497745	-0.000086	-0.138580
N30	N	1.522681	0.362185	0.140094
C31	C	1.471237	-0.000065	-0.331422
C32	C	1.574075	-0.000067	-0.388354
C33	C	1.559325	-0.000055	-0.495658
C34	C	1.485985	-0.000077	-0.224108
C35	C	1.533072	-0.000055	0.313485
C36	C	1.547572	-0.000045	0.418810
H37	H	0.948075	-0.211598	0.055329
Br38	Br	1.805702	-0.385496	0.186528
H39	H	1.097072	0.211724	0.224830
Br40	Br	0.924734	0.276118	0.029409
Br41	Br	0.905035	0.000122	0.355402
H42	H	1.372125	-0.000055	-0.363268
Br43	Br	1.120634	-0.276206	0.250741
Br44	Br	1.322780	-0.385401	0.300955
H45	H	1.673194	0.000021	-0.356506
H46	H	1.586217	-0.587666	0.298660
H47	H	1.459073	-0.412455	-0.018368
Br48	Br	1.140694	0.000097	-0.075029
H49	H	1.676047	-0.587198	0.016957
H50	H	1.305960	-0.587660	0.104729
