data_functionalizedCrystal
_audit_creation_method	'MofGen! by Chris Wilmer'
_symmetry_space_group_name_H-M	'P1'
_symmetry_Int_Tables_number	1
_symmetry_cell_setting	triclinic
loop_
_symmetry_equiv_pos_as_xyz
  x,y,z
_cell_length_a	23.532357
_cell_length_b	14.853567
_cell_length_c	13.930277
_cell_angle_alpha	89.996364
_cell_angle_beta	90.000907
_cell_angle_gamma	96.768389
loop_
_atom_site_label
_atom_site_type_symbol
_atom_site_fract_x
_atom_site_fract_y
_atom_site_fract_z
O1	O	0.074347	-1.195535	0.079777
O2	O	0.574347	-0.695535	0.579777
O3	O	0.083204	-0.932976	0.079795
O4	O	0.583204	-0.432976	0.579795
O5	O	-0.004124	-1.072196	0.079765
O6	O	0.495876	-0.572196	0.579765
O7	O	0.161675	-1.056314	0.079806
O8	O	0.661675	-0.556314	0.579806
O9	O	-0.004110	-1.072176	-0.079896
O10	O	0.495890	-0.572176	0.420104
O11	O	0.083218	-0.932955	-0.079867
O12	O	0.583218	-0.432955	0.420133
O13	O	0.074360	-1.195514	-0.079885
O14	O	0.574360	-0.695514	0.420115
Zn15	Zn	0.078791	-1.064232	-0.105226
Zn16	Zn	0.578791	-0.564232	0.394774
Zn17	Zn	0.078773	-1.064258	0.105135
Zn18	Zn	0.578773	-0.564258	0.605135
O19	O	0.161688	-1.056294	-0.079856
O20	O	0.661688	-0.556294	0.420144
C21	C	0.082810	-0.899381	-0.000034
C22	C	0.582810	-0.399381	0.499966
C23	C	0.081607	-0.799311	-0.000028
C24	C	0.581607	-0.299311	0.499972
C25	C	-0.025335	-1.071789	-0.000068
C26	C	0.474665	-0.571789	0.499932
C27	C	-0.088559	-1.070594	-0.000077
C28	C	0.411441	-0.570594	0.499923
C29	C	-0.480610	-1.063107	0.087007
C30	C	0.019390	-0.563107	0.587007
C31	C	-0.540015	-1.061972	0.087012
C32	C	-0.040015	-0.561972	0.587012
O33	O	-0.570740	-1.061364	0.161029
O34	O	-0.070740	-0.561364	0.661029
N35	N	-0.569721	-1.061398	-0.000018
N36	N	-0.069721	-0.561398	0.499982
C37	C	-0.540019	-1.061950	-0.087060
C38	C	-0.040019	-0.561950	0.412940
O39	O	-0.570741	-1.061356	-0.161086
O40	O	-0.070741	-0.561356	0.338914
C41	C	-0.480615	-1.063079	-0.087064
C42	C	0.019385	-0.563079	0.412936
C43	C	-0.450913	-1.063662	-0.000028
C44	C	0.049087	-0.563662	0.499972
C45	C	-0.450908	-1.063690	0.174036
C46	C	0.049092	-0.563690	0.674036
C47	C	-0.391507	-1.064827	0.174030
C48	C	0.108493	-0.564827	0.674030
C49	C	-0.361810	-1.065381	0.086995
C50	C	0.138190	-0.565381	0.586995
C51	C	-0.391513	-1.064799	-0.000034
C52	C	0.108487	-0.564799	0.499966
C53	C	-0.450914	-1.063624	-0.174105
C54	C	0.049086	-0.563624	0.325895
C55	C	-0.391506	-1.064753	-0.174102
C56	C	0.108494	-0.564753	0.325898
C57	C	-0.361804	-1.065336	-0.087066
C58	C	0.138196	-0.565336	0.412934
C59	C	-0.302415	-1.066491	-0.087075
C60	C	0.197585	-0.566491	0.412925
N61	N	-0.272709	-1.067065	-0.000045
N62	N	0.227291	-0.567065	0.499955
C63	C	-0.302406	-1.066510	0.086990
C64	C	0.197594	-0.566510	0.586990
C65	C	-0.664771	-1.059578	-0.087044
C66	C	-0.164771	-0.559578	0.412956
C67	C	-0.724174	-1.058455	-0.087040
C68	C	-0.224174	-0.558455	0.412960
C69	C	-0.724166	-1.058476	0.087032
C70	C	-0.224166	-0.558476	0.587032
C71	C	-0.664762	-1.059605	0.087028
C72	C	-0.164762	-0.559605	0.587028
C73	C	-0.635065	-1.060152	-0.000013
C74	C	-0.135065	-0.560152	0.499987
C75	C	-0.177662	-1.068899	0.086971
C76	C	0.322338	-0.568899	0.586971
C77	C	-0.118256	-1.070040	0.086958
C78	C	0.381744	-0.570040	0.586958
C79	C	-0.118270	-1.070014	-0.087114
C80	C	0.381730	-0.570014	0.412886
C81	C	-0.177670	-1.068878	-0.087101
C82	C	0.322330	-0.568878	0.412899
C83	C	-0.207364	-1.068317	-0.000051
C84	C	0.292636	-0.568317	0.499949
O85	O	-0.271652	-1.067096	-0.161054
O86	O	0.228348	-0.567096	0.338946
O87	O	-0.271676	-1.067092	0.161003
O88	O	0.228324	-0.567092	0.661003
C89	C	0.074755	-1.229109	-0.000054
C90	C	0.574755	-0.729109	0.499946
C91	C	0.075957	-1.329179	-0.000054
C92	C	0.575957	-0.829179	0.499946
C93	C	0.182900	-1.056701	-0.000020
C94	C	0.682900	-0.556701	0.499980
C95	C	0.246123	-1.057896	-0.000005
C96	C	0.746123	-0.557896	0.499995
N97	N	0.078803	-1.064220	-0.248792
N98	N	0.578803	-0.564220	0.251208
C99	C	0.024648	-0.387416	-0.000064
C100	C	0.524648	0.112584	0.499936
C101	C	0.128396	-0.364971	-0.000037
C102	C	0.628396	0.135029	0.499963
C103	C	0.129527	-0.458992	-0.000034
C104	C	0.629527	0.041008	0.499966
C105	C	0.078218	-0.517230	-0.000044
C106	C	0.578218	-0.017230	0.499956
C107	C	0.025778	-0.481447	-0.000057
C108	C	0.525778	0.018553	0.499943
C109	C	0.181966	-0.494783	-0.000011
C110	C	0.681966	0.005217	0.499989
C111	C	0.183099	-0.588809	-0.000006
C112	C	0.683099	-0.088809	0.499994
C113	C	0.131789	-0.647049	-0.000023
C114	C	0.631789	-0.147049	0.499977
C115	C	0.079347	-0.611260	-0.000038
C116	C	0.579347	-0.111260	0.499962
C117	C	0.028038	-0.669498	-0.000048
C118	C	0.528038	-0.169498	0.499952
C119	C	-0.024405	-0.633711	-0.000069
C120	C	0.475595	-0.133711	0.499931
C121	C	-0.025532	-0.539686	-0.000074
C122	C	0.474468	-0.039686	0.499926
C123	C	0.132916	-0.741074	-0.000018
C124	C	0.632916	-0.241074	0.499982
C125	C	0.029167	-0.763528	-0.000042
C126	C	0.529167	-0.263528	0.499958
C127	C	0.113368	-1.118626	-0.701046
C128	C	0.613368	-0.618626	-0.201046
C129	C	0.044156	-1.009919	-0.701046
C130	C	0.544156	-0.509919	-0.201046
C131	C	0.044165	-1.009905	-0.600550
C132	C	0.544165	-0.509905	-0.100550
C133	C	0.078775	-1.064254	-0.550298
C134	C	0.578775	-0.564254	-0.050298
C135	C	0.113377	-1.118616	-0.600541
C136	C	0.613377	-0.618616	-0.100541
C137	C	0.009560	-0.955551	-0.550299
C138	C	0.509560	-0.455551	-0.050299
C139	C	0.009567	-0.955536	-0.449797
C140	C	0.509567	-0.455536	0.050203
C141	C	0.044181	-1.009880	-0.399543
C142	C	0.544181	-0.509880	0.100457
C143	C	0.078784	-1.064244	-0.449793
C144	C	0.578784	-0.564244	0.050207
C145	C	0.113395	-1.118592	-0.399540
C146	C	0.613395	-0.618592	0.100460
C147	C	0.148001	-1.172952	-0.449788
C148	C	0.648001	-0.672952	0.050212
C149	C	0.147991	-1.172960	-0.550287
C150	C	0.647991	-0.672960	-0.050287
C151	C	0.044192	-1.009871	-0.299044
C152	C	0.544192	-0.509871	0.200956
C153	C	0.113404	-1.118582	-0.299035
C154	C	0.613404	-0.618582	0.200965
N155	N	0.078757	-1.064277	0.248702
N156	N	0.578757	-0.564277	0.748702
H157	H	-0.094075	-1.070517	0.157836
H158	H	0.405925	-0.570517	0.657836
H159	H	0.225800	-0.617938	0.000011
H160	H	0.725800	-0.117938	0.500011
N161	N	0.186477	-0.777631	-0.000016
N162	N	0.686477	-0.277631	0.499984
N163	N	0.198689	-0.827586	-0.067316
N164	N	0.698689	-0.327586	0.432684
H165	H	0.236520	-0.853404	-0.067318
H166	H	0.736520	-0.353404	0.432682
N167	N	-0.207978	-1.068322	0.175898
N168	N	0.292022	-0.568322	0.675898
N169	N	-0.181442	-1.068842	0.253590
N170	N	0.318558	-0.568842	0.753590
H171	H	-0.202853	-1.068439	0.316395
H172	H	0.297147	-0.568439	0.816395
N173	N	-0.361162	-1.065406	0.262928
N174	N	0.138838	-0.565406	0.762928
N175	N	-0.308123	-1.066413	0.262929
N176	N	0.191877	-0.566413	0.762929
H177	H	-0.286693	-1.066820	0.325717
H178	H	0.213307	-0.566820	0.825717
N179	N	-0.023245	-0.823014	-0.000074
N180	N	0.476755	-0.323014	0.499926
N181	N	-0.058095	-0.820029	-0.067392
N182	N	0.441905	-0.320029	0.432608
H183	H	-0.095111	-0.862041	-0.067417
H184	H	0.404889	-0.362041	0.432583
H185	H	-0.475088	-1.063151	-0.244979
H186	H	0.024912	-0.563151	0.255021
N187	N	0.183324	-1.228504	-0.601611
N188	N	0.683324	-0.728504	-0.101611
N189	N	0.176599	-1.312578	-0.590368
N190	N	0.676599	-0.812578	-0.090368
H191	H	0.201552	-1.351810	-0.626618
H192	H	0.701552	-0.851810	-0.126618
N193	N	-0.025768	-0.900003	-0.398460
N194	N	0.474232	-0.400003	0.101540
N195	N	-0.025752	-0.899992	-0.308730
N196	N	0.474248	-0.399992	0.191270
H197	H	-0.050706	-0.860770	-0.272470
H198	H	0.449294	-0.360770	0.227530
N199	N	-0.079101	-0.503144	-0.000098
N200	N	0.420899	-0.003144	0.499902
N201	N	-0.113703	-0.521154	-0.067407
N202	N	0.386297	-0.021154	0.432593
H203	H	-0.151537	-0.495344	-0.067422
H204	H	0.348463	0.004656	0.432578
H205	H	0.223739	-0.447360	0.000007
H206	H	0.723739	0.052640	0.500007
N207	N	-0.634442	-1.060169	-0.175961
N208	N	-0.134442	-0.560169	0.324039
N209	N	-0.606501	-1.124359	-0.195392
N210	N	-0.106501	-0.624359	0.304608
H211	H	-0.585083	-1.124777	-0.258190
H212	H	-0.085083	-0.624777	0.241810
H213	H	0.015974	-0.965677	-0.741967
H214	H	0.515974	-0.465677	-0.241967
N215	N	0.183341	-1.228482	-0.398446
N216	N	0.683341	-0.728482	0.101554
N217	N	0.161165	-1.288283	-0.342359
N218	N	0.661165	-0.788283	0.157641
H219	H	0.186121	-1.327503	-0.306093
H220	H	0.686121	-0.827503	0.193907
N221	N	-0.025797	-0.900058	-0.601643
N222	N	0.474203	-0.400058	-0.101643
N223	N	-0.025799	-0.900080	-0.691374
N224	N	0.474201	-0.400080	-0.191374
H225	H	-0.050772	-0.860888	-0.727642
H226	H	0.449228	-0.360888	-0.227642
H227	H	0.141545	-1.162881	-0.741962
H228	H	0.641545	-0.662881	-0.241962
H229	H	0.016015	-0.965615	-0.258137
H230	H	0.516015	-0.465615	0.241863
N231	N	-0.481248	-1.063148	0.262939
N232	N	0.018752	-0.563148	0.762939
N233	N	-0.534287	-1.062154	0.262953
N234	N	-0.034287	-0.562154	0.762953
H235	H	-0.555713	-1.061782	0.325747
H236	H	-0.055713	-0.561782	0.825747
H237	H	0.170169	-0.317549	-0.000021
H238	H	0.670169	0.182451	0.499979
N239	N	-0.634425	-1.060213	0.175932
N240	N	-0.134425	-0.560213	0.675932
N241	N	-0.646262	-1.123656	0.234197
N242	N	-0.146262	-0.623656	0.734197
H243	H	-0.624838	-1.124086	0.296990
H244	H	-0.124838	-0.624086	0.796990
N245	N	-0.754517	-1.057922	0.175931
N246	N	-0.254517	-0.557922	0.675931
N247	N	-0.807556	-1.056918	0.175912
N248	N	-0.307556	-0.556918	0.675912
H249	H	-0.828995	-1.056532	0.238693
H250	H	-0.328995	-0.556532	0.738693
H251	H	-0.748354	-1.057994	-0.157914
H252	H	-0.248354	-0.557994	0.342086
N253	N	-0.028913	-0.350852	-0.000094
N254	N	0.471087	0.149148	0.499906
N255	N	-0.029918	-0.266901	-0.000107
N256	N	0.470082	0.233099	0.499893
H257	H	-0.067746	-0.241076	-0.000130
H258	H	0.432254	0.258924	0.499870
H259	H	-0.367329	-1.065185	-0.244983
H260	H	0.132671	-0.565185	0.255017
N261	N	0.148754	-1.174115	-0.247720
N262	N	0.648754	-0.674115	0.252280
N263	N	0.142030	-1.258190	-0.258938
N264	N	0.642030	-0.758190	0.241062
H265	H	0.166995	-1.297414	-0.222696
H266	H	0.666995	-0.797414	0.277304
N267	N	-0.208006	-1.068291	-0.176013
N268	N	0.291994	-0.568291	0.323987
N269	N	-0.181480	-1.068787	-0.253715
N270	N	0.318520	-0.568787	0.246285
H271	H	-0.202900	-1.068362	-0.316512
H272	H	0.297100	-0.568362	0.183488
H273	H	-0.094080	-1.070470	-0.157976
H274	H	0.405920	-0.570470	0.342024
N275	N	-0.076809	-0.693216	-0.000067
N276	N	0.423191	-0.193216	0.499933
N277	N	-0.075788	-0.777163	-0.000051
N278	N	0.424212	-0.277163	0.499949
H279	H	-0.112797	-0.819193	-0.000048
H280	H	0.387203	-0.319193	0.499952
