data_functionalizedCrystal
_audit_creation_method	'MofGen! by Chris Wilmer'
_symmetry_space_group_name_H-M	'P1'
_symmetry_Int_Tables_number	1
_symmetry_cell_setting	triclinic
loop_
_symmetry_equiv_pos_as_xyz
  x,y,z
_cell_length_a	16.992694
_cell_length_b	9.482900
_cell_length_c	16.992695
_cell_angle_alpha	80.026204
_cell_angle_beta	90.668223
_cell_angle_gamma	99.926526
loop_
_atom_site_label
_atom_site_type_symbol
_atom_site_fract_x
_atom_site_fract_y
_atom_site_fract_z
O1	O	1.062330	0.120712	0.155377
O2	O	0.833934	0.120755	0.153542
O3	O	0.947215	0.120722	0.040261
O4	O	0.949049	0.120745	0.268659
O5	O	0.924211	-0.121064	0.063369
O6	O	0.810930	-0.121031	0.176651
O7	O	1.039326	-0.121074	0.178486
Cu8	Cu	0.923028	-0.143129	0.179678
Cu9	Cu	0.950232	0.142810	0.152350
O10	O	0.926045	-0.121041	0.291767
C11	C	0.793072	-0.000133	0.162740
C12	C	0.705589	-0.000117	0.155710
N13	N	0.903899	-0.344244	0.198900
C14	C	0.659599	-0.000111	0.223527
C15	C	0.577396	-0.000132	0.216920
C16	C	0.541186	-0.000148	0.142494
C17	C	0.587183	-0.000158	0.074672
C18	C	0.669383	-0.000147	0.081281
C19	C	0.295868	-0.000189	0.115104
C20	C	0.213662	-0.000195	0.108500
C21	C	0.203881	-0.000172	0.250749
C22	C	0.286085	-0.000153	0.257350
C23	C	0.332073	-0.000171	0.189529
N24	N	0.457163	-0.000164	0.135739
N25	N	0.416094	-0.000164	0.196286
C26	C	0.944585	-0.416455	0.158015
C27	C	0.928675	-0.583868	0.174014
C28	C	1.080188	-0.000183	0.169288
C29	C	1.167672	-0.000190	0.176317
C30	C	0.933358	-0.000170	0.022455
C31	C	0.926329	-0.000169	-0.065030
N32	N	0.969367	0.343925	0.133123
C33	C	0.994146	-0.000183	-0.111019
C34	C	0.987538	-0.000168	-0.193222
C35	C	0.913112	-0.000149	-0.229432
C36	C	0.845291	-0.000130	-0.183436
C37	C	0.851900	-0.000135	-0.101237
C38	C	0.885720	-0.000124	-0.474748
C39	C	0.879116	-0.000124	-0.556954
C40	C	1.021364	-0.000158	-0.566733
C41	C	1.027966	-0.000172	-0.484531
C42	C	0.960145	-0.000145	-0.438544
N43	N	0.906356	-0.000138	-0.313455
N44	N	0.966903	-0.000146	-0.354523
C45	C	0.939903	-0.000146	0.309573
C46	C	0.946932	-0.000138	0.397057
H47	H	0.689075	-0.000097	0.284133
H48	H	0.882059	-0.645979	0.220861
H49	H	1.088571	-0.000187	-0.455055
N50	N	1.006308	-0.334165	0.095946
H51	H	1.049106	-0.270989	0.122116
H52	H	1.031216	-0.405429	0.070867
N53	N	0.842152	-0.426514	0.260950
H54	H	0.868544	-0.489661	0.303623
H55	H	0.817204	-0.355233	0.285975
N56	N	0.812573	-0.000104	-0.425154
H57	H	0.788858	0.089531	-0.445890
H58	H	0.771858	-0.089789	-0.428775
H59	H	1.054750	-0.000207	-0.081543
N60	N	0.798837	-0.000094	-0.596008
H61	H	0.801459	0.089534	-0.638461
H62	H	0.784440	-0.089786	-0.621280
N63	N	1.060682	-0.000192	-0.242825
H64	H	1.108832	-0.000217	-0.207411
H65	H	1.052503	-0.089825	-0.268579
N66	N	0.765017	-0.000100	-0.222488
H67	H	0.771118	-0.000105	-0.281539
H68	H	0.726586	-0.089727	-0.197418
H69	H	1.015977	-0.593964	0.086269
H70	H	1.076579	-0.000177	-0.604185
H71	H	0.796677	-0.000123	-0.063793
N72	N	0.345473	-0.000181	0.041959
H73	H	0.371275	-0.089808	0.050094
H74	H	0.310018	-0.000128	-0.006160
N75	N	0.154288	-0.000171	0.323903
H76	H	0.128482	0.089452	0.315773
H77	H	0.111491	-0.089867	0.332865
N78	N	0.527776	-0.000290	0.290081
H79	H	0.563184	-0.000323	0.338237
H80	H	0.501930	0.089283	0.281932
H81	H	0.557692	-0.000191	0.014075
N82	N	0.325141	-0.000108	0.337621
H83	H	0.283532	-0.000101	0.379582
H84	H	0.350520	-0.089728	0.352038
H85	H	0.184184	-0.000207	0.047890
N86	N	0.718990	-0.000164	0.008137
H87	H	0.683579	-0.000175	-0.040015
H88	H	0.761831	0.089469	-0.000790
