data_functionalizedCrystal
_audit_creation_method	'MofGen! by Chris Wilmer'
_symmetry_space_group_name_H-M	'P1'
_symmetry_Int_Tables_number	1
_symmetry_cell_setting	triclinic
loop_
_symmetry_equiv_pos_as_xyz
  x,y,z
_cell_length_a	27.732048
_cell_length_b	10.723024
_cell_length_c	26.210047
_cell_angle_alpha	89.995195
_cell_angle_beta	89.981055
_cell_angle_gamma	83.555262
loop_
_atom_site_label
_atom_site_type_symbol
_atom_site_fract_x
_atom_site_fract_y
_atom_site_fract_z
O1	O	-0.641863	-0.148463	0.042362
O2	O	-0.501210	-0.171037	0.042377
O3	O	-0.574781	0.021960	0.042368
O4	O	-0.568292	-0.341460	0.042372
O5	O	-0.574746	0.021963	-0.042491
O6	O	-0.501175	-0.171035	-0.042481
O7	O	-0.641829	-0.148461	-0.042496
Cu8	Cu	-0.571499	-0.159748	-0.050236
Cu9	Cu	-0.571540	-0.159750	0.050118
O10	O	-0.568258	-0.341458	-0.042486
C11	C	-0.483183	-0.170562	-0.000050
C12	C	-0.429519	-0.169135	-0.000044
C13	C	-0.574291	0.068442	-0.000061
C14	C	-0.572879	0.206937	-0.000059
C15	C	-0.659856	-0.148936	-0.000068
C16	C	-0.713519	-0.150363	-0.000070
C17	C	-0.091356	-0.274201	-0.000065
C18	C	0.110336	-0.268907	-0.000069
O19	O	0.140995	-0.364983	-0.000090
N20	N	0.130171	-0.154468	-0.000070
C21	C	0.099578	-0.041344	-0.000072
O22	O	0.121077	0.056116	-0.000078
C23	C	-0.102113	-0.046639	-0.000072
C24	C	-0.121945	-0.161086	-0.000066
C25	C	-0.111188	-0.388639	-0.000060
C26	C	-0.161608	-0.389961	-0.000056
C27	C	-0.192197	-0.276846	-0.000057
C28	C	-0.172365	-0.162408	-0.000062
C29	C	-0.132704	0.066484	-0.000078
C30	C	-0.183130	0.065150	-0.000079
C31	C	-0.202961	-0.049297	-0.000073
C32	C	-0.253373	-0.050615	-0.000059
N33	N	-0.273207	-0.165055	-0.000059
C34	C	-0.242619	-0.278170	-0.000057
C35	C	0.205470	-0.038571	-0.000072
C36	C	0.255892	-0.037247	-0.000071
C37	C	0.266647	-0.264811	-0.000069
C38	C	0.216223	-0.266134	-0.000066
C39	C	0.185635	-0.153011	-0.000071
C40	C	-0.348506	-0.280938	-0.000049
C41	C	-0.398931	-0.282251	-0.000043
C42	C	-0.409681	-0.054687	-0.000048
C43	C	-0.359260	-0.053374	-0.000051
C44	C	-0.328673	-0.166510	-0.000053
O45	O	-0.284061	0.045409	-0.000044
O46	O	-0.264127	-0.375615	-0.000063
C47	C	-0.040936	-0.272879	-0.000069
C48	C	-0.021104	-0.158441	-0.000074
C49	C	-0.051692	-0.045326	-0.000075
C50	C	0.029318	-0.157117	-0.000073
C51	C	0.059907	-0.270232	-0.000072
C52	C	0.040072	-0.384672	-0.000071
C53	C	-0.010348	-0.385994	-0.000067
C54	C	-0.031858	0.069114	-0.000075
C55	C	0.018563	0.070427	-0.000079
C56	C	0.049151	-0.042689	-0.000078
C57	C	-0.568747	-0.387939	-0.000057
C58	C	-0.570160	-0.526435	-0.000055
N59	N	-0.571474	-0.159745	-0.120820
C60	C	-0.614045	0.283624	-0.000063
C61	C	-0.612586	0.426767	-0.000061
C62	C	-0.538930	-0.245169	-0.526783
C63	C	-0.538907	-0.245170	-0.313125
O64	O	-0.511180	-0.317789	-0.285503
N65	N	-0.571489	-0.159741	-0.286404
C66	C	-0.604077	-0.074300	-0.313101
O67	O	-0.631786	-0.001629	-0.285471
C68	C	-0.604097	-0.074295	-0.526759
C69	C	-0.571517	-0.159738	-0.553477
C70	C	-0.506352	-0.330604	-0.553502
C71	C	-0.506360	-0.330608	-0.606913
C72	C	-0.538946	-0.245176	-0.633606
C73	C	-0.571525	-0.159741	-0.606888
C74	C	-0.636682	0.011151	-0.553455
C75	C	-0.636684	0.011147	-0.606873
C76	C	-0.604103	-0.074296	-0.633591
C77	C	-0.604119	-0.074313	-0.686993
N78	N	-0.571537	-0.159742	-0.713714
C79	C	-0.538951	-0.245174	-0.687021
C80	C	-0.604064	-0.074311	-0.200928
C81	C	-0.604060	-0.074313	-0.147514
C82	C	-0.538890	-0.245182	-0.147541
C83	C	-0.538897	-0.245184	-0.200956
C84	C	-0.571483	-0.159740	-0.227649
C85	C	-0.538970	-0.245175	-0.799188
C86	C	-0.538982	-0.245175	-0.852605
C87	C	-0.604151	-0.074302	-0.852573
C88	C	-0.604140	-0.074307	-0.799161
C89	C	-0.571546	-0.159748	-0.772470
O90	O	-0.631827	-0.001723	-0.714649
O91	O	-0.511239	-0.317816	-0.714660
C92	C	-0.538923	-0.245166	-0.473372
C93	C	-0.571501	-0.159731	-0.446654
C94	C	-0.604087	-0.074299	-0.473347
C95	C	-0.571496	-0.159733	-0.393240
C96	C	-0.538910	-0.245165	-0.366546
C97	C	-0.506328	-0.330594	-0.393267
C98	C	-0.506336	-0.330597	-0.446679
C99	C	-0.636669	0.011130	-0.446627
C100	C	-0.636659	0.011126	-0.393215
C101	C	-0.604072	-0.074306	-0.366522
N102	N	-0.571569	-0.159743	0.120702
H103	H	-0.415074	-0.375451	-0.000038
C104	C	-0.470527	-0.424660	-0.524147
N105	N	-0.443553	-0.495537	-0.502041
C106	C	-0.314867	-0.405394	-0.000048
N107	N	-0.289531	-0.499134	-0.000044
C108	C	-0.639983	0.019677	-0.769771
N109	N	-0.666977	0.090476	-0.747637
H110	H	-0.512357	-0.314746	-0.125798
H111	H	-0.086288	-0.480756	-0.000060
C112	C	-0.523804	0.261400	-0.000054
N113	N	-0.486840	0.302419	-0.000052
C114	C	-0.663120	0.229161	-0.000072
N115	N	-0.700084	0.188142	-0.000080
C116	C	0.194414	-0.392033	-0.000065
N117	N	0.177989	-0.486866	-0.000067
H118	H	-0.647827	0.492658	-0.000066
C119	C	-0.503138	-0.339168	-0.881991
N120	N	-0.476139	-0.409959	-0.904123
H121	H	-0.512428	-0.314748	-0.777463
H122	H	-0.056759	0.161228	-0.000078
C123	C	-0.470513	-0.424589	-0.636296
N124	N	-0.443509	-0.495376	-0.658424
H125	H	-0.534916	0.407681	-0.000055
C126	C	-0.503053	-0.339169	-0.230341
N127	N	-0.476052	-0.409959	-0.252471
C128	C	-0.032155	-0.511896	-0.000067
N129	N	-0.048577	-0.606732	-0.000070
H130	H	-0.116567	0.159679	-0.000083
H131	H	0.034704	0.163630	-0.000079
H132	H	-0.663204	0.080701	-0.468356
H133	H	-0.663218	0.080730	-0.628603
H134	H	-0.630595	-0.004751	-0.125764
H135	H	-0.630601	-0.004730	-0.222658
H136	H	0.291560	-0.356914	-0.000068
H137	H	-0.663212	0.080727	-0.531709
H138	H	-0.177750	-0.483156	-0.000051
H139	H	-0.630683	-0.004748	-0.874315
C140	C	-0.470483	-0.424567	-0.363894
N141	N	-0.443483	-0.495337	-0.341768
C142	C	-0.672502	0.105128	-0.363832
N143	N	-0.699495	0.175937	-0.341702
H144	H	0.272034	0.055947	-0.000068
H145	H	-0.479806	-0.400173	-0.468429
C146	C	-0.216774	0.189598	-0.000083
N147	N	-0.242114	0.283332	-0.000083
C148	C	0.171829	0.085882	-0.000074
N149	N	0.146492	0.179622	-0.000073
H150	H	-0.343113	0.039818	-0.000048
H151	H	-0.434595	0.037408	-0.000047
H152	H	0.064986	-0.476775	-0.000068
