data_functionalizedCrystal
_audit_creation_method	'MofGen! by Chris Wilmer'
_symmetry_space_group_name_H-M	'P1'
_symmetry_Int_Tables_number	1
_symmetry_cell_setting	triclinic
loop_
_symmetry_equiv_pos_as_xyz
  x,y,z
_cell_length_a	10.654558
_cell_length_b	17.038272
_cell_length_c	9.130313
_cell_angle_alpha	89.998262
_cell_angle_beta	90.000369
_cell_angle_gamma	87.799936
loop_
_atom_site_label
_atom_site_type_symbol
_atom_site_fract_x
_atom_site_fract_y
_atom_site_fract_z
O1	O	1.678033	0.109906	-0.121781
O2	O	1.313527	0.120367	-0.121788
O3	O	1.493614	0.001309	-0.121773
O4	O	1.497947	0.228964	-0.121796
O5	O	1.493612	0.001312	0.121826
O6	O	1.313525	0.120371	0.121811
O7	O	1.678031	0.109909	0.121818
Cu8	Cu	1.495778	0.115140	0.144057
Cu9	Cu	1.495780	0.115136	-0.144027
O10	O	1.497945	0.228967	0.121803
C11	C	1.266657	0.119599	0.000010
C12	C	1.127001	0.117297	0.000008
C13	C	0.930163	0.114059	-0.132778
C14	C	1.061386	0.116215	-0.132780
C15	C	1.061387	0.116215	0.132805
C16	C	0.930167	0.114053	0.132805
C17	C	0.864554	0.112985	-0.265574
C18	C	0.930159	0.114066	-0.398372
C19	C	1.061381	0.116223	-0.398374
C20	C	1.126999	0.117298	-0.265577
C21	C	1.489672	-0.027840	0.000026
C22	C	1.477915	-0.114698	0.000026
C23	C	1.585859	-0.164208	0.000029
C24	C	1.574805	-0.245820	0.000015
C25	C	1.455805	-0.277922	0.000008
C26	C	1.347853	-0.228406	-0.000000
C27	C	1.358909	-0.146795	0.000003
C28	C	1.416747	-0.523899	-0.000013
C29	C	1.405699	-0.605516	-0.000012
C30	C	1.632652	-0.622924	0.000001
C31	C	1.643698	-0.541311	0.000013
C32	C	1.535746	-0.491803	-0.000003
C33	C	1.444503	-0.361343	-0.000002
C34	C	1.547049	-0.408383	-0.000003
C35	C	1.724901	0.110677	0.000016
C36	C	1.864558	0.112979	0.000009
C37	C	1.501886	0.258116	0.000000
C38	C	1.513643	0.344975	-0.000009
N39	N	1.495785	0.115142	0.346680
N40	N	1.495782	0.115128	-0.346650
C41	C	1.575551	0.062441	0.423338
C42	C	1.575547	0.062432	0.576675
C43	C	1.416008	0.167831	0.576681
C44	C	1.416006	0.167836	0.423347
C45	C	1.655330	0.009747	0.346671
C46	C	1.735104	-0.042957	0.423330
C47	C	1.735100	-0.042967	0.576667
C48	C	1.655322	0.009728	0.653345
H49	H	0.757705	0.111232	-0.265588
H50	H	1.328844	-0.483598	-0.000026
Cl51	Cl	1.143879	0.117572	0.299737
H52	H	1.800045	-0.085886	0.639081
H53	H	1.351052	0.210750	0.360931
Cl54	Cl	1.696643	-0.368025	-0.000002
H55	H	1.351057	0.210734	0.639122
Cl56	Cl	1.291968	0.119997	-0.265584
Cl57	Cl	1.768354	-0.685167	0.000016
H58	H	1.682761	-0.138077	0.000044
H59	H	1.655316	0.009711	0.778202
H60	H	1.347612	-0.387489	-0.000005
Cl61	Cl	1.710513	-0.308058	0.000024
Cl62	Cl	0.847672	0.112696	-0.565306
Cl63	Cl	0.847687	0.112683	0.299741
Cl64	Cl	1.143854	0.117572	-0.565316
Cl65	Cl	1.256089	-0.645871	-0.000013
H66	H	1.740599	-0.515180	0.000019
Cl67	Cl	1.198252	-0.268763	-0.000028
H68	H	1.271009	-0.106485	-0.000000
Cl69	Cl	1.655345	0.009759	0.153905
H70	H	1.800049	-0.085865	0.360891
