data_functionalizedCrystal
_audit_creation_method	'MofGen! by Chris Wilmer'
_symmetry_space_group_name_H-M	'P1'
_symmetry_Int_Tables_number	1
_symmetry_cell_setting	triclinic
loop_
_symmetry_equiv_pos_as_xyz
  x,y,z
_cell_length_a	15.944545
_cell_length_b	12.837942
_cell_length_c	11.892095
_cell_angle_alpha	85.697431
_cell_angle_beta	86.103551
_cell_angle_gamma	90.837444
loop_
_atom_site_label
_atom_site_type_symbol
_atom_site_fract_x
_atom_site_fract_y
_atom_site_fract_z
O1	O	1.130056	-0.127043	-0.093929
O2	O	0.886826	-0.143532	-0.093947
O3	O	1.003047	0.015615	-0.093931
O4	O	1.013835	-0.286190	-0.093944
O5	O	0.993356	0.002366	0.094075
O6	O	0.877134	-0.156781	0.094059
O7	O	1.120364	-0.140292	0.094078
Zn8	Zn	0.997210	-0.150640	0.123918
Zn9	Zn	1.009980	-0.133184	-0.123788
O10	O	1.004143	-0.299439	0.094062
C11	C	0.850631	-0.149473	0.000054
C12	C	0.757222	-0.147423	0.000047
C13	C	0.478207	-0.042655	0.000064
C14	C	0.528051	-0.099699	0.092761
C15	C	0.420992	-0.140118	0.000067
C16	C	0.537589	-0.086662	-0.092598
C17	C	0.586193	-0.143702	0.000055
C18	C	0.469602	-0.197141	0.092841
C19	C	0.479140	-0.184085	-0.092602
C20	C	0.528955	-0.241202	0.000118
C21	C	0.325824	-0.138050	0.000074
C22	C	0.681358	-0.145777	0.000056
C23	C	0.994558	0.047612	0.000071
C24	C	0.983690	0.162689	0.000068
C25	C	1.156559	-0.134351	0.000074
C26	C	1.249969	-0.136400	0.000074
C27	C	1.012633	-0.331435	0.000057
C28	C	1.023501	-0.446512	0.000052
N29	N	0.988502	-0.162553	0.292971
C30	C	1.114343	0.403643	0.000055
C31	C	1.104136	0.511770	0.000052
C32	C	0.953069	0.487071	0.000052
C33	C	0.963276	0.378945	0.000055
C34	C	1.043916	0.337235	0.000058
C35	C	1.054122	0.229106	0.000069
C36	C	0.903056	0.204410	0.000061
C37	C	0.892849	0.312537	0.000058
N38	N	1.018695	-0.121263	-0.292841
C39	C	1.079290	-0.038310	0.529631
C40	C	1.073209	-0.046644	0.647973
C41	C	0.970256	-0.187550	0.647997
C42	C	0.976336	-0.179216	0.529656
C43	C	1.030856	-0.104594	0.470477
C44	C	1.036941	-0.096265	0.352134
C45	C	0.933983	-0.237166	0.352160
C46	C	0.927903	-0.245500	0.470501
H47	H	0.457523	-0.219687	-0.170977
Br48	Br	1.199720	0.601894	0.000040
H49	H	0.887416	0.521052	0.000038
Br50	Br	0.564045	-0.040306	0.223390
H51	H	0.440038	-0.243800	0.171293
H52	H	0.827194	0.346512	0.000052
Br53	Br	0.853910	-0.346763	0.550822
Br54	Br	1.163559	0.172499	0.000084
H55	H	0.894548	-0.291142	0.303983
Br56	Br	0.565970	-0.381214	0.000191
H57	H	1.081336	-0.035508	0.303952
Br58	Br	0.807469	0.114277	0.000085
Br59	Br	1.153292	0.062945	0.449315
H60	H	1.112648	0.007332	0.696133
H61	H	0.925861	-0.248298	0.696195
H62	H	0.567252	-0.039962	-0.170962
Br63	Br	1.223777	0.347029	0.000093
Br64	Br	0.440915	0.097230	0.000212
