data_functionalizedCrystal
_audit_creation_method	'MofGen! by Chris Wilmer'
_symmetry_space_group_name_H-M	'P1'
_symmetry_Int_Tables_number	1
_symmetry_cell_setting	triclinic
loop_
_symmetry_equiv_pos_as_xyz
  x,y,z
_cell_length_a	16.625548
_cell_length_b	21.295417
_cell_length_c	16.625539
_cell_angle_alpha	89.966627
_cell_angle_beta	89.979432
_cell_angle_gamma	90.031575
loop_
_atom_site_label
_atom_site_type_symbol
_atom_site_fract_x
_atom_site_fract_y
_atom_site_fract_z
Zn1	Zn	1.232635	-0.250590	-0.455881
Zn2	Zn	1.232520	-0.355864	-0.321036
Zn3	Zn	1.097797	-0.250614	-0.321061
Zn4	Zn	1.097749	-0.355827	-0.455826
O5	O	1.165175	-0.303224	-0.388451
O6	O	1.345452	-0.264560	-0.438006
O7	O	1.214620	-0.341927	-0.208207
O8	O	1.115753	-0.162522	-0.338979
O9	O	1.345367	-0.341904	-0.338936
O10	O	1.214818	-0.162504	-0.438030
O11	O	1.115640	-0.264601	-0.208226
O12	O	0.984958	-0.264566	-0.338926
O13	O	1.115670	-0.341842	-0.568666
O14	O	0.984923	-0.341866	-0.437937
O15	O	1.214771	-0.264525	-0.568706
O16	O	1.214573	-0.443948	-0.338883
O17	O	1.115558	-0.443922	-0.437912
C18	C	0.955684	-0.303215	-0.388429
C19	C	0.866063	-0.303226	-0.388438
C20	C	0.537888	-0.303230	-0.388473
C21	C	0.629196	-0.303227	-0.388460
C22	C	0.701973	-0.303229	-0.388455
C23	C	0.793287	-0.303225	-0.388444
C24	C	1.165070	-0.466775	-0.388407
C25	C	1.165098	-0.536744	-0.388414
C26	C	1.216701	-0.569603	-0.336903
C27	C	1.216739	-0.635346	-0.336921
C28	C	1.165159	-0.668226	-0.388442
C29	C	1.113552	-0.635359	-0.439964
C30	C	1.113522	-0.569617	-0.439950
N31	N	1.094624	-0.771493	-0.394581
N32	N	1.094656	-0.833944	-0.394590
C33	C	1.165250	-0.866301	-0.388488
N34	N	1.235813	-0.833847	-0.382362
N35	N	1.235780	-0.771389	-0.382350
C36	C	1.165187	-0.739511	-0.388463
C37	C	1.216898	-0.970446	-0.336994
C38	C	1.216937	-1.036189	-0.337017
C39	C	1.113743	-1.036201	-0.440056
C40	C	1.113711	-0.970459	-0.440037
C41	C	1.165288	-0.937585	-0.388501
C42	C	1.375484	-0.303233	-0.388474
C43	C	1.465105	-0.303237	-0.388484
C44	C	1.165228	-0.303177	-0.598760
C45	C	1.165250	-0.303157	-0.688381
C46	C	1.165303	-0.139033	-0.388514
C47	C	1.165358	-0.069065	-0.388540
C48	C	1.165287	-0.303086	-1.016557
C49	C	1.165275	-0.303108	-0.925249
C50	C	1.165269	-0.303122	-0.852472
C51	C	1.165256	-0.303143	-0.761158
C52	C	1.165169	-0.303225	-0.178960
C53	C	1.165303	-0.303068	-0.089340
H54	H	1.258700	-0.542839	-0.294941
C55	C	1.272795	-0.670918	-0.280898
C56	C	1.317943	-0.628058	-0.235750
C57	C	1.369580	-0.660802	-0.184126
H58	H	1.307994	-0.696526	-0.311686
H59	H	1.241993	-0.696591	-0.245705
H60	H	1.348743	-0.602396	-0.270940
H61	H	1.282765	-0.602449	-0.204947
H62	H	1.338778	-0.686475	-0.148933
H63	H	1.404774	-0.686408	-0.214920
H64	H	1.400213	-0.631727	-0.153482
C65	C	1.057535	-0.534017	-0.496008
C66	C	1.075043	-0.549958	-0.575804
C67	C	1.023476	-0.517180	-0.627465
H68	H	1.064851	-0.490146	-0.488727
H69	H	1.003358	-0.544852	-0.484209
H70	H	1.129207	-0.539119	-0.587599
H71	H	1.067722	-0.593823	-0.583110
H72	H	0.969299	-0.528015	-0.615667
H73	H	1.030796	-0.473311	-0.620178
H74	H	1.035343	-0.527996	-0.681612
H75	H	1.258897	-0.943679	-0.295032
H76	H	1.071750	-1.062972	-0.482010
C77	C	1.057420	-0.670973	-0.495856
C78	C	0.977646	-0.655035	-0.478239
C79	C	0.925916	-0.687824	-0.529723
H80	H	1.064717	-0.714843	-0.488538
H81	H	1.069139	-0.660146	-0.550053
H82	H	0.965930	-0.665866	-0.424055
H83	H	0.970323	-0.611171	-0.485563
H84	H	0.937636	-0.676997	-0.583920
H85	H	0.933220	-0.731692	-0.522400
H86	H	0.871785	-0.677010	-0.517782
C87	C	1.057586	-0.934892	-0.495987
C88	C	1.012406	-0.977755	-0.541097
C89	C	0.960686	-0.945015	-0.592643
H90	H	1.088306	-0.909200	-0.531214
H91	H	1.022417	-0.909304	-0.465120
H92	H	1.047570	-1.003332	-0.571962
H93	H	0.981670	-1.003449	-0.505892
H94	H	0.925517	-0.919427	-0.561775
H95	H	0.991412	-0.919324	-0.627864
H96	H	0.930020	-0.974092	-0.623251
H97	H	1.258964	-1.062943	-0.295072
