data_functionalizedCrystal
_audit_creation_method	'MofGen! by Chris Wilmer'
_symmetry_space_group_name_H-M	'P1'
_symmetry_Int_Tables_number	1
_symmetry_cell_setting	triclinic
loop_
_symmetry_equiv_pos_as_xyz
  x,y,z
_cell_length_a	21.295419
_cell_length_b	21.295417
_cell_length_c	21.295411
_cell_angle_alpha	89.979403
_cell_angle_beta	89.975461
_cell_angle_gamma	90.044503
loop_
_atom_site_label
_atom_site_type_symbol
_atom_site_fract_x
_atom_site_fract_y
_atom_site_fract_z
Zn1	Zn	0.962359	-0.250432	-0.355916
Zn2	Zn	0.962263	-0.355684	-0.250643
Zn3	Zn	0.857082	-0.250460	-0.250661
Zn4	Zn	0.857053	-0.355695	-0.355875
O5	O	0.909689	-0.303068	-0.303274
O6	O	1.050436	-0.264378	-0.341961
O7	O	0.948282	-0.341733	-0.162556
O8	O	0.871100	-0.162367	-0.264648
O9	O	1.050365	-0.341706	-0.264617
O10	O	0.948446	-0.162347	-0.341978
O11	O	0.871007	-0.264425	-0.162569
O12	O	0.768989	-0.264436	-0.264608
O13	O	0.871050	-0.341724	-0.443970
O14	O	0.768968	-0.341751	-0.341908
O15	O	0.948418	-0.264388	-0.444000
O16	O	0.948254	-0.443775	-0.264578
O17	O	0.870957	-0.443783	-0.341891
C18	C	0.746138	-0.303098	-0.303256
C19	C	0.676170	-0.303126	-0.303263
C20	C	0.643362	-0.262927	-0.343598
C21	C	0.577620	-0.262910	-0.343601
C22	C	0.544687	-0.303104	-0.303275
C23	C	0.577502	-0.343305	-0.262932
C24	C	0.643244	-0.343317	-0.262926
N25	N	0.441412	-0.358181	-0.298356
N26	N	0.378961	-0.358168	-0.298365
C27	C	0.346612	-0.303071	-0.303289
N28	N	0.379074	-0.247985	-0.308215
N29	N	0.441532	-0.247999	-0.308209
C30	C	0.473402	-0.303095	-0.303276
C31	C	0.242519	-0.262850	-0.343628
C32	C	0.176776	-0.262832	-0.343626
C33	C	0.176660	-0.343233	-0.262961
C34	C	0.242402	-0.343245	-0.262960
C35	C	0.275328	-0.303055	-0.303297
C36	C	0.909609	-0.466619	-0.303242
C37	C	0.909632	-0.536588	-0.303249
C38	C	0.949884	-0.569386	-0.343544
C39	C	0.949906	-0.635129	-0.343559
C40	C	0.909683	-0.668070	-0.303269
C41	C	0.869424	-0.635263	-0.262971
C42	C	0.869399	-0.569522	-0.262962
N43	N	0.904924	-0.771324	-0.248178
N44	N	0.904952	-0.833775	-0.248189
C45	C	0.909757	-0.866145	-0.303297
N46	N	0.914545	-0.833704	-0.358395
N47	N	0.914521	-0.771247	-0.358383
C48	C	0.909706	-0.739355	-0.303276
C49	C	0.950034	-0.970229	-0.343612
C50	C	0.950052	-1.035973	-0.343629
C51	C	0.869574	-1.036106	-0.263035
C52	C	0.869553	-0.970363	-0.263024
C53	C	0.909786	-0.937429	-0.303312
C54	C	1.073880	-0.303038	-0.303292
C55	C	1.143848	-0.303025	-0.303299
C56	C	0.909742	-0.303055	-0.467464
C57	C	0.909764	-0.303049	-0.537432
C58	C	0.909787	-0.138878	-0.303319
C59	C	0.909829	-0.068909	-0.303339
C60	C	0.950048	-0.262778	-0.570315
C61	C	0.950047	-0.262751	-0.636058
C62	C	0.909769	-0.303006	-0.668915
C63	C	0.869477	-0.343279	-0.636023
C64	C	0.869475	-0.343301	-0.570282
N65	N	0.904913	-0.358075	-0.772131
N66	N	0.904919	-0.358052	-0.834582
C67	C	0.909773	-0.302942	-0.866989
N68	N	0.914633	-0.247853	-0.834586
N69	N	0.914630	-0.247876	-0.772128
C70	C	0.909767	-0.302986	-0.740200
C71	C	0.950058	-0.262638	-0.971158
C72	C	0.950052	-0.262610	-1.036902
C73	C	0.869486	-0.343143	-1.036866
C74	C	0.869488	-0.343166	-0.971124
C75	C	0.909777	-0.302914	-0.938274
C76	C	0.909674	-0.303036	-0.139722
C77	C	0.909773	-0.302864	-0.069754
H78	H	0.150065	-0.230094	-0.376471
C79	C	0.542022	-0.219347	-0.387504
C80	C	0.558020	-0.233168	-0.449759
C81	C	0.525235	-0.193058	-0.490221
H82	H	0.552799	-0.177014	-0.378460
H83	H	0.498147	-0.225105	-0.381773
H84	H	0.601885	-0.227404	-0.455488
H85	H	0.547241	-0.275493	-0.458823
H86	H	0.481361	-0.198816	-0.484490
H87	H	0.536015	-0.150728	-0.481171
H88	H	0.536081	-0.202434	-0.532466
C89	C	0.825857	-0.386932	-0.935339
C90	C	0.861474	-0.427275	-0.897598
C91	C	0.821299	-0.467596	-0.864618
H92	H	0.801855	-0.410963	-0.964250
H93	H	0.798452	-0.362883	-0.909646
H94	H	0.888868	-0.451322	-0.923288
H95	H	0.885475	-0.403262	-0.868675
H96	H	0.793894	-0.443547	-0.838926
H97	H	0.797298	-0.491623	-0.893534
H98	H	0.845458	-0.494970	-0.839003
C99	C	0.541637	-0.386922	-0.219219
C100	C	0.477041	-0.378322	-0.227870
C101	C	0.443983	-0.418496	-0.187615
H102	H	0.552320	-0.377689	-0.176914
H103	H	0.552341	-0.429246	-0.228359
H104	H	0.466341	-0.336007	-0.218725
H105	H	0.466339	-0.387560	-0.270167
H106	H	0.454687	-0.460820	-0.196755
H107	H	0.454671	-0.409259	-0.145312
H108	H	0.400151	-0.412670	-0.193483
C109	C	0.993705	-0.218958	-0.534694
C110	C	0.980015	-0.156678	-0.550685
C111	C	1.020212	-0.116288	-0.517879
H112	H	1.036017	-0.228074	-0.545459
H113	H	0.987936	-0.224685	-0.490822
H114	H	0.985790	-0.150953	-0.594546
H115	H	0.937710	-0.147542	-0.539917
H116	H	1.014443	-0.122015	-0.474008
H117	H	1.062522	-0.125409	-0.528648
H118	H	1.010926	-0.074026	-0.528720
H119	H	0.269329	-0.230121	-0.376469
C120	C	0.678754	-0.387036	-0.219111
C121	C	0.635845	-0.422243	-0.183803
C122	C	0.668535	-0.462532	-0.143442
H123	H	0.704413	-0.362991	-0.191671
H124	H	0.704369	-0.414538	-0.243127
H125	H	0.610241	-0.394745	-0.159789
H126	H	0.610184	-0.446301	-0.211227
H127	H	0.694151	-0.490034	-0.167458
H128	H	0.694194	-0.438482	-0.116006
H129	H	0.639427	-0.486429	-0.119485
C130	C	0.993816	-0.218863	-0.935601
C131	C	1.029079	-0.183572	-0.978474
C132	C	1.069389	-0.143234	-0.945744
H133	H	1.021286	-0.242876	-0.909965
H134	H	0.969764	-0.191417	-0.909958
H135	H	1.053129	-0.211015	-1.004105
H136	H	1.001626	-0.159546	-1.004112
H137	H	1.045337	-0.115787	-0.920101
H138	H	1.096855	-0.167252	-0.920108
H139	H	1.093316	-0.119280	-0.974828
H140	H	0.670166	-0.230200	-0.376443
H141	H	0.149847	-0.375959	-0.230127
H142	H	0.269114	-0.375982	-0.230117
C143	C	0.825880	-0.934635	-0.219338
C144	C	0.834455	-0.870012	-0.227963
C145	C	0.794224	-0.837080	-0.187736
H146	H	0.835077	-0.945344	-0.177027
H147	H	0.783570	-0.945417	-0.228520
H148	H	0.876754	-0.859234	-0.218777
H149	H	0.825253	-0.859285	-0.270266
H150	H	0.751915	-0.847862	-0.196918
H151	H	0.803425	-0.847794	-0.145428
H152	H	0.800033	-0.793230	-0.193587
H153	H	0.982642	-0.542573	-0.376350
H154	H	0.982678	-0.661839	-0.376379
H155	H	0.836674	-0.662088	-0.230168
C156	C	0.825966	-1.071976	-0.219320
C157	C	0.834610	-1.136570	-0.227944
C158	C	0.794450	-1.169636	-0.187681
H159	H	0.783638	-1.061318	-0.228455
H160	H	0.835198	-1.061252	-0.177016
H161	H	0.825374	-1.147289	-0.270238
H162	H	0.876929	-1.147246	-0.218804
H163	H	0.803682	-1.158912	-0.145377
H164	H	0.752125	-1.158973	-0.196820
H165	H	0.800314	-1.213466	-0.193523
C166	C	0.993684	-0.218953	-0.671804
C167	C	0.958073	-0.178587	-0.709525
C168	C	0.998250	-0.138229	-0.742455
H169	H	1.021107	-0.242954	-0.697509
H170	H	1.017668	-0.194947	-0.642845
H171	H	0.934100	-0.202591	-0.738481
H172	H	0.930652	-0.154573	-0.683835
H173	H	1.022233	-0.114222	-0.713496
H174	H	1.025671	-0.162234	-0.768157
H175	H	0.974093	-0.110832	-0.768048
H176	H	0.836681	-0.376052	-0.662779
C177	C	0.825596	-0.533988	-0.219244
C178	C	0.763312	-0.550053	-0.232886
C179	C	0.722945	-0.517337	-0.192620
H180	H	0.831258	-0.490109	-0.224967
H181	H	0.834795	-0.544788	-0.176948
H182	H	0.754117	-0.539249	-0.275172
H183	H	0.757631	-0.593927	-0.227159
H184	H	0.732144	-0.528137	-0.150324
H185	H	0.728613	-0.473459	-0.198346
H186	H	0.680682	-0.528237	-0.201867
H187	H	0.982793	-0.943413	-0.376419
C188	C	0.993828	-1.071472	-0.387402
C189	C	1.029068	-1.028555	-0.422666
C190	C	1.069408	-1.061235	-0.462989
H191	H	0.969819	-1.097134	-0.414872
H192	H	1.021307	-1.097085	-0.363360
H193	H	1.001592	-1.002953	-0.446706
H194	H	1.053089	-1.002892	-0.395213
H195	H	1.096887	-1.086848	-0.438947
H196	H	1.045394	-1.086895	-0.490454
H197	H	1.093327	-1.032121	-0.486916
C198	C	0.825717	-0.387100	-0.534690
C199	C	0.790451	-0.422359	-0.577531
C200	C	0.750144	-0.462722	-0.544766
H201	H	0.798248	-0.363106	-0.509028
H202	H	0.849770	-0.414566	-0.509070
H203	H	0.766400	-0.394897	-0.603140
H204	H	0.817904	-0.446366	-0.603195
H205	H	0.774196	-0.490187	-0.519146
H206	H	0.722679	-0.438723	-0.519105
H207	H	0.726215	-0.486654	-0.573829
C208	C	0.993684	-0.218800	-1.072637
C209	C	0.958065	-0.178431	-1.110347
C210	C	0.998235	-0.138057	-1.143267
H211	H	1.021110	-0.242790	-1.098348
H212	H	1.017663	-0.194797	-1.043672
H213	H	0.934096	-0.202432	-1.139309
H214	H	0.930640	-0.154428	-1.084651
H215	H	1.022214	-0.114054	-1.114302
H216	H	1.025659	-0.162052	-1.168975
H217	H	0.974073	-0.110658	-1.168853
H218	H	0.836685	-0.375913	-1.063618
