data_functionalizedCrystal
_audit_creation_method	'MofGen! by Chris Wilmer'
_symmetry_space_group_name_H-M	'P1'
_symmetry_Int_Tables_number	1
_symmetry_cell_setting	triclinic
loop_
_symmetry_equiv_pos_as_xyz
  x,y,z
_cell_length_a	14.971491
_cell_length_b	17.019294
_cell_length_c	14.048226
_cell_angle_alpha	86.114596
_cell_angle_beta	89.991693
_cell_angle_gamma	83.504855
loop_
_atom_site_label
_atom_site_type_symbol
_atom_site_fract_x
_atom_site_fract_y
_atom_site_fract_z
O1	O	1.186689	0.102820	-0.087628
O2	O	0.926258	0.115126	-0.088630
O3	O	1.063738	-0.005853	-0.078712
O4	O	1.049209	0.223799	-0.097546
O5	O	1.063722	-0.005860	0.079610
O6	O	0.926242	0.115119	0.069692
O7	O	1.186672	0.102813	0.070694
Zn8	Zn	1.056454	0.108965	0.095330
Zn9	Zn	1.056476	0.108974	-0.113266
O10	O	1.049192	0.223792	0.060776
C11	C	0.892927	0.114572	-0.009423
C12	C	0.793634	0.112920	-0.009284
C13	C	0.365955	0.105798	-0.095023
C14	C	0.459252	0.107347	-0.095147
C15	C	0.505887	0.108123	-0.008906
C16	C	0.459221	0.107342	0.077464
C17	C	0.365928	0.105787	0.077587
C18	C	0.653675	0.110585	0.077202
C19	C	0.746975	0.112141	0.077079
C20	C	0.746999	0.112145	-0.095532
C21	C	0.653705	0.110590	-0.095409
C22	C	0.607046	0.109810	-0.009039
C23	C	1.063179	-0.035246	0.002857
C24	C	1.061526	-0.122818	0.010033
C25	C	1.060760	-0.163952	-0.072896
C26	C	1.059201	-0.246234	-0.066151
C27	C	1.058414	-0.287383	0.023525
C28	C	1.059177	-0.246244	0.106460
C29	C	1.060730	-0.163962	0.099714
C30	C	1.053720	-0.535821	0.048212
C31	C	1.052170	-0.618109	0.054952
C32	C	1.052193	-0.618094	-0.117660
C33	C	1.053751	-0.535811	-0.124398
C34	C	1.054509	-0.494678	-0.041463
C35	C	1.056824	-0.371489	0.030422
C36	C	1.056093	-0.410572	-0.048361
C37	C	1.220004	0.103368	-0.008515
C38	C	1.319296	0.105019	-0.008660
C39	C	1.049752	0.253186	-0.020795
C40	C	1.051405	0.340758	-0.027977
N41	N	1.056446	0.108958	0.237691
N42	N	1.056492	0.108975	-0.255627
C43	C	1.117341	0.055411	0.291899
C44	C	1.117347	0.055410	0.391557
C45	C	1.056462	0.108962	0.437004
C46	C	0.995560	0.162512	0.382790
C47	C	0.995551	0.162508	0.283134
C48	C	0.995586	0.162517	0.590503
C49	C	0.995596	0.162523	0.690166
C50	C	1.117383	0.055420	0.698926
C51	C	1.117373	0.055416	0.599270
C52	C	1.056472	0.108967	0.545062
H53	H	0.784942	0.112777	0.147304
Br54	Br	0.590354	0.109514	0.194421
H55	H	0.945991	0.206122	0.546370
Br56	Br	1.058161	-0.302055	-0.178704
H57	H	0.784993	0.112781	-0.165858
Br58	Br	1.054825	-0.479972	-0.246106
H59	H	1.056728	-0.377065	-0.121375
H60	H	1.051525	-0.651610	0.127981
H61	H	0.497200	0.107969	0.147683
H62	H	1.056186	-0.405002	0.103436
H63	H	0.945982	0.206112	0.419799
Br64	Br	0.522573	0.108397	-0.212359
Br65	Br	1.199983	-0.017265	0.230230
Br66	Br	0.302605	0.104719	0.194800
H67	H	1.058531	-0.279753	0.179476
H68	H	1.054355	-0.502343	0.115744
H69	H	0.327991	0.105172	-0.165251
Br70	Br	0.912962	0.235203	0.751837
H71	H	0.615737	0.109964	-0.165634
H72	H	1.061406	-0.130455	-0.145920
H73	H	1.051574	-0.651593	-0.185181
Br74	Br	1.061764	-0.108136	0.212266
Br75	Br	1.199989	-0.017265	0.465128
Br76	Br	1.200036	-0.017252	0.772496
Br77	Br	1.200011	-0.017254	0.537587
Br78	Br	0.912898	0.235177	0.209566
