data_functionalizedCrystal
_audit_creation_method	'MofGen! by Chris Wilmer'
_symmetry_space_group_name_H-M	'P1'
_symmetry_Int_Tables_number	1
_symmetry_cell_setting	triclinic
loop_
_symmetry_equiv_pos_as_xyz
  x,y,z
_cell_length_a	21.295417
_cell_length_b	21.295420
_cell_length_c	21.295411
_cell_angle_alpha	90.025759
_cell_angle_beta	89.978356
_cell_angle_gamma	89.975452
loop_
_atom_site_label
_atom_site_type_symbol
_atom_site_fract_x
_atom_site_fract_y
_atom_site_fract_z
Zn1	Zn	-0.250781	-0.962355	-0.355931
Zn2	Zn	-0.356033	-0.962258	-0.250657
Zn3	Zn	-0.250771	-0.857079	-0.250674
Zn4	Zn	-0.356005	-0.857048	-0.355886
O5	O	-0.303397	-0.909685	-0.303287
O6	O	-0.264759	-1.050432	-0.341978
O7	O	-0.342077	-0.948277	-0.162570
O8	O	-0.162683	-0.871097	-0.264663
O9	O	-0.342087	-1.050360	-0.264633
O10	O	-0.162690	-0.948444	-0.341995
O11	O	-0.264741	-0.871003	-0.162583
O12	O	-0.264714	-0.768985	-0.264619
O13	O	-0.342040	-0.871045	-0.443982
O14	O	-0.342030	-0.768963	-0.341918
O15	O	-0.264732	-0.948414	-0.444015
O16	O	-0.444119	-0.948248	-0.264590
O17	O	-0.444098	-0.870951	-0.341901
C18	C	-0.303368	-0.746133	-0.303266
C19	C	-0.303371	-0.676165	-0.303272
C20	C	-0.263205	-0.176744	-0.343621
C21	C	-0.263203	-0.242486	-0.343622
C22	C	-0.303397	-0.275326	-0.303289
C23	C	-0.343609	-0.242417	-0.262963
C24	C	-0.343615	-0.176676	-0.262968
N25	N	-0.308136	-0.378516	-0.248171
N26	N	-0.308127	-0.440967	-0.248169
C27	C	-0.303383	-0.473400	-0.303275
N28	N	-0.298636	-0.441023	-0.358384
N29	N	-0.298642	-0.378566	-0.358385
C30	C	-0.303396	-0.346611	-0.303280
C31	C	-0.263174	-0.577587	-0.343602
C32	C	-0.263175	-0.643330	-0.343605
C33	C	-0.343578	-0.643260	-0.262940
C34	C	-0.343580	-0.577517	-0.262944
C35	C	-0.303374	-0.544685	-0.303274
C36	C	-0.466949	-0.909602	-0.303252
C37	C	-0.536917	-0.909625	-0.303259
C38	C	-0.569773	-0.949909	-0.263044
C39	C	-0.635516	-0.949939	-0.263058
C40	C	-0.668400	-0.909672	-0.303280
C41	C	-0.635535	-0.869385	-0.343503
C42	C	-0.569794	-0.869361	-0.343492
N43	N	-0.771661	-0.854605	-0.308072
N44	N	-0.834112	-0.854630	-0.308079
C45	C	-0.866474	-0.909743	-0.303316
N46	N	-0.834026	-0.964832	-0.298535
N47	N	-0.771569	-0.964807	-0.298525
C48	C	-0.739685	-0.909694	-0.303297
C49	C	-0.970616	-0.950063	-0.263115
C50	C	-1.036360	-0.950093	-0.263133
C51	C	-1.036378	-0.869534	-0.343575
C52	C	-0.970636	-0.869509	-0.343560
C53	C	-0.937759	-0.909773	-0.303326
C54	C	-0.139207	-0.909785	-0.303336
C55	C	-0.069239	-0.909827	-0.303357
C56	C	-0.303384	-0.909737	-0.467478
C57	C	-0.303378	-0.909759	-0.537446
C58	C	-0.303419	-0.073875	-0.303304
C59	C	-0.303409	-0.143843	-0.303298
C60	C	-0.263122	-0.950044	-0.570331
C61	C	-0.263095	-0.950043	-0.636073
C62	C	-0.303335	-0.909764	-0.668928
C63	C	-0.343594	-0.869472	-0.636035
C64	C	-0.343616	-0.869470	-0.570294
N65	N	-0.358402	-0.904908	-0.772144
N66	N	-0.358380	-0.904914	-0.834595
C67	C	-0.303271	-0.909768	-0.867003
N68	N	-0.248185	-0.914629	-0.834600
N69	N	-0.248208	-0.914626	-0.772143
C70	C	-0.303316	-0.909762	-0.740214
C71	C	-0.262982	-0.950054	-0.971174
C72	C	-0.262954	-0.950048	-1.036917
C73	C	-0.343458	-0.869481	-1.036878
C74	C	-0.343481	-0.869483	-0.971136
C75	C	-0.303244	-0.909773	-0.938287
C76	C	-0.303365	-0.909669	-0.139736
C77	C	-0.303194	-0.909769	-0.069768
H78	H	-0.230461	-0.269279	-0.376457
C79	C	-0.219482	-0.993737	-0.534554
C80	C	-0.228116	-0.985117	-0.469941
C81	C	-0.187922	-1.025352	-0.436962
H82	H	-0.177163	-0.984573	-0.545263
H83	H	-0.228687	-1.036047	-0.545298
H84	H	-0.218906	-0.942816	-0.459201
H85	H	-0.270427	-0.994286	-0.459213
H86	H	-0.197127	-1.067662	-0.447706
H87	H	-0.145605	-1.016184	-0.447676
H88	H	-0.193779	-1.019512	-0.393119
C89	C	-0.387131	-0.825823	-1.072655
C90	C	-0.378509	-0.834459	-1.137268
C91	C	-0.418737	-0.794258	-1.170248
H92	H	-0.377960	-0.783506	-1.061942
H93	H	-0.429443	-0.835023	-1.061916
H94	H	-0.336206	-0.825255	-1.148002
H95	H	-0.387684	-0.876768	-1.148000
H96	H	-0.461049	-0.803458	-1.159509
H97	H	-0.409563	-0.751943	-1.159530
H98	H	-0.412897	-0.800116	-1.214091
C99	C	-1.071959	-0.825792	-0.387316
C100	C	-1.029109	-0.790514	-0.422542
C101	C	-1.061865	-0.750219	-0.462851
H102	H	-1.097643	-0.798330	-0.363285
H103	H	-1.097555	-0.849855	-0.414805
H104	H	-1.003523	-0.766453	-0.395056
H105	H	-1.003423	-0.817960	-0.446585
H106	H	-1.087462	-0.774282	-0.490340
H107	H	-1.087549	-0.722762	-0.438815
H108	H	-1.032797	-0.726283	-0.486761
C109	C	-0.671312	-0.993635	-0.219443
C110	C	-0.735922	-0.985039	-0.228068
C111	C	-0.768915	-1.025279	-0.187899
H112	H	-0.660636	-0.984460	-0.177118
H113	H	-0.660548	-1.035943	-0.228679
H114	H	-0.746682	-0.942741	-0.218827
H115	H	-0.746617	-0.994219	-0.270384
H116	H	-0.758150	-1.067587	-0.197136
H117	H	-0.758234	-1.016101	-0.145577
H118	H	-0.812756	-1.019457	-0.193750
H119	H	-0.662314	-0.836601	-0.376254
H120	H	-0.230169	-0.982852	-1.063691
C121	C	-1.071922	-0.993858	-0.219400
C122	C	-1.029055	-1.029099	-0.184153
C123	C	-1.061792	-1.069416	-0.143853
H124	H	-1.097533	-1.021343	-0.243438
H125	H	-1.097590	-0.969813	-0.191923
H126	H	-1.003398	-1.053142	-0.211627
H127	H	-1.003442	-1.001631	-0.160102
H128	H	-1.087460	-1.045370	-0.116377
H129	H	-1.087402	-1.096896	-0.167897
H130	H	-1.032712	-1.093327	-0.119930
C131	C	-0.387261	-0.825724	-0.935541
C132	C	-0.422507	-0.790459	-0.978383
C133	C	-0.462849	-0.750144	-0.945617
H134	H	-0.363253	-0.798255	-0.909884
H135	H	-0.414736	-0.849772	-0.909917
H136	H	-0.395036	-0.766413	-1.003996
H137	H	-0.446528	-0.817911	-1.004042
H138	H	-0.490324	-0.774191	-0.919993
H139	H	-0.438836	-0.722679	-0.919960
H140	H	-0.486773	-0.726215	-0.974679
H141	H	-0.376337	-0.269159	-0.230126
C142	C	-0.387289	-0.678792	-0.219125
C143	C	-0.422508	-0.635904	-0.183820
C144	C	-0.462790	-0.668616	-0.143458
H145	H	-0.363238	-0.704435	-0.191684
H146	H	-0.414783	-0.704426	-0.243141
H147	H	-0.395018	-0.610280	-0.159806
H148	H	-0.446572	-0.610259	-0.211244
H149	H	-0.490284	-0.694250	-0.167473
H150	H	-0.438734	-0.694258	-0.116021
H151	H	-0.486695	-0.639521	-0.119502
H152	H	-0.376355	-0.149888	-0.230131
H153	H	-0.230310	-0.982846	-0.662853
C154	C	-0.387224	-0.825656	-0.534554
C155	C	-0.351589	-0.785320	-0.496806
C156	C	-0.391741	-0.744946	-0.463879
H157	H	-0.414678	-0.849647	-0.508868
H158	H	-0.411175	-0.801629	-0.563516
H159	H	-0.327649	-0.809344	-0.467848
H160	H	-0.324136	-0.761315	-0.522476
H161	H	-0.415691	-0.720918	-0.492841
H162	H	-0.419193	-0.768941	-0.438197
H163	H	-0.367568	-0.717569	-0.438267
H164	H	-0.230438	-0.670117	-0.376445
C165	C	-0.387305	-0.541761	-0.219263
C166	C	-0.427718	-0.504036	-0.254836
C167	C	-0.468016	-0.471095	-0.214619
H168	H	-0.363263	-0.516057	-0.191867
H169	H	-0.411281	-0.570714	-0.195253
H170	H	-0.403745	-0.475086	-0.278835
H171	H	-0.451774	-0.529724	-0.282230
H172	H	-0.491991	-0.500048	-0.190609
H173	H	-0.443968	-0.445395	-0.187225
H174	H	-0.495444	-0.445500	-0.238750
H175	H	-0.230469	-0.150016	-0.376463
C176	C	-0.219508	-0.542048	-0.387464
C177	C	-0.184314	-0.584936	-0.422796
C178	C	-0.144091	-0.552223	-0.463215
H179	H	-0.191990	-0.516398	-0.363508
H180	H	-0.243618	-0.516421	-0.414881
H181	H	-0.160206	-0.610552	-0.395383
H182	H	-0.211816	-0.610588	-0.446765
H183	H	-0.168201	-0.526597	-0.490632
H184	H	-0.116577	-0.526574	-0.439254
H185	H	-0.120211	-0.581318	-0.487197
H186	H	-0.543007	-0.982695	-0.230285
C187	C	-0.934926	-0.825869	-0.387295
C188	C	-0.897146	-0.861477	-0.427682
C189	C	-0.864249	-0.821297	-0.467988
H190	H	-0.909265	-0.798431	-0.363258
H191	H	-0.963906	-0.801903	-0.411290
H192	H	-0.868170	-0.885433	-0.403690
H193	H	-0.922792	-0.888913	-0.451733
H194	H	-0.893228	-0.797331	-0.491982
H195	H	-0.838590	-0.793862	-0.443946
H196	H	-0.838615	-0.845452	-0.495399
C197	C	-0.387262	-0.825811	-0.671817
C198	C	-0.378641	-0.834449	-0.736430
C199	C	-0.418863	-0.794243	-0.769410
H200	H	-0.378086	-0.783495	-0.661104
H201	H	-0.429576	-0.835005	-0.661079
H202	H	-0.336337	-0.825251	-0.747164
H203	H	-0.387822	-0.876757	-0.747161
H204	H	-0.461176	-0.803436	-0.758672
H205	H	-0.409683	-0.751929	-0.758693
H206	H	-0.413023	-0.800102	-0.813253
C207	C	-0.534231	-0.825550	-0.387178
C208	C	-0.577097	-0.790282	-0.422399
C209	C	-0.544358	-0.749910	-0.462643
H210	H	-0.508547	-0.849537	-0.414678
H211	H	-0.508636	-0.798090	-0.363081
H212	H	-0.602681	-0.817739	-0.446495
H213	H	-0.602782	-0.766282	-0.394916
H214	H	-0.518763	-0.722450	-0.438545
H215	H	-0.518675	-0.773903	-0.490138
H216	H	-0.573437	-0.725972	-0.486541
C217	C	-0.219223	-0.993812	-0.935618
C218	C	-0.183945	-1.029076	-0.978492
C219	C	-0.143622	-1.069387	-0.945764
H220	H	-0.243246	-1.021282	-0.909982
H221	H	-0.191768	-0.969761	-0.909975
H222	H	-0.211397	-1.053126	-1.004124
H223	H	-0.159909	-1.001623	-1.004130
H224	H	-0.116166	-1.045335	-0.920121
H225	H	-0.167649	-1.096852	-0.920128
H226	H	-0.119676	-1.093314	-0.974849
H227	H	-0.943847	-0.982850	-0.230356
