data_functionalizedCrystal
_audit_creation_method	'MofGen! by Chris Wilmer'
_symmetry_space_group_name_H-M	'P1'
_symmetry_Int_Tables_number	1
_symmetry_cell_setting	triclinic
loop_
_symmetry_equiv_pos_as_xyz
  x,y,z
_cell_length_a	19.121063
_cell_length_b	21.395364
_cell_length_c	21.395355
_cell_angle_alpha	89.975484
_cell_angle_beta	92.420740
_cell_angle_gamma	92.464759
loop_
_atom_site_label
_atom_site_type_symbol
_atom_site_fract_x
_atom_site_fract_y
_atom_site_fract_z
Zn1	Zn	-0.279776	0.947226	-0.364898
Zn2	Zn	-0.397210	0.942665	-0.264585
Zn3	Zn	-0.279768	0.842441	-0.260134
Zn4	Zn	-0.397183	0.837948	-0.369324
O5	O	-0.338484	0.892570	-0.314735
O6	O	-0.295369	1.034298	-0.351601
O7	O	-0.381638	0.929342	-0.176317
O8	O	-0.181484	0.860130	-0.270316
O9	O	-0.381647	1.030948	-0.277902
O10	O	-0.181490	0.937115	-0.347285
O11	O	-0.295354	0.855708	-0.173047
O12	O	-0.295328	0.754168	-0.274608
O13	O	-0.381601	0.852472	-0.456415
O14	O	-0.381593	0.750867	-0.354830
O15	O	-0.295343	0.932758	-0.453163
O16	O	-0.495491	0.924985	-0.282194
O17	O	-0.495472	0.848050	-0.359146
C18	C	-0.338457	0.729784	-0.314717
C19	C	-0.338463	0.660142	-0.314724
C20	C	-0.293665	0.160085	-0.353189
C21	C	-0.293660	0.225521	-0.353188
C22	C	-0.338506	0.256502	-0.314750
C23	C	-0.383373	0.222042	-0.276321
C24	C	-0.383381	0.156608	-0.276327
C25	C	-0.343944	0.359932	-0.258490
C26	C	-0.343931	0.425366	-0.258482
C27	C	-0.338482	0.458324	-0.314732
C28	C	-0.333033	0.425841	-0.370990
C29	C	-0.333042	0.360407	-0.370996
C30	C	-0.338501	0.327455	-0.314740
C31	C	-0.293616	0.563729	-0.353161
C32	C	-0.293616	0.629165	-0.353162
C33	C	-0.383325	0.625686	-0.276289
C34	C	-0.383329	0.560250	-0.276294
C35	C	-0.338470	0.529276	-0.314729
C36	C	-0.520966	0.885552	-0.321647
C37	C	-0.599032	0.882607	-0.324625
C38	C	-0.635695	0.921311	-0.285992
C39	C	-0.709046	0.918545	-0.288796
C40	C	-0.745734	0.877072	-0.330230
C41	C	-0.709066	0.838366	-0.368867
C42	C	-0.635716	0.841136	-0.366065
C43	C	-0.967205	0.866707	-0.340695
C44	C	-1.040561	0.863939	-0.343492
C45	C	-1.040536	0.944118	-0.263422
C46	C	-0.967184	0.946882	-0.260622
C47	C	-0.930523	0.908179	-0.299260
C48	C	-0.820711	0.874242	-0.333096
C49	C	-0.855547	0.911012	-0.296397
C50	C	-0.155290	0.899633	-0.307811
C51	C	-0.077224	0.902642	-0.304860
C52	C	-0.338470	0.892623	-0.478158
C53	C	-0.338464	0.892645	-0.547799
C54	C	-0.338512	1.055992	-0.314754
C55	C	-0.338523	1.125633	-0.314762
C56	C	-0.293547	0.934449	-0.578820
C57	C	-0.293517	0.934449	-0.644254
C58	C	-0.338416	0.892652	-0.678666
C59	C	-0.383336	0.850841	-0.647637
C60	C	-0.383360	0.850837	-0.582204
C61	C	-0.401656	0.885273	-0.784736
C62	C	-0.401633	0.885280	-0.850168
C63	C	-0.338342	0.892659	-0.880484
C64	C	-0.275071	0.900043	-0.845360
C65	C	-0.275095	0.900039	-0.779926
C66	C	-0.338395	0.892651	-0.749617
C67	C	-0.293389	0.934465	-0.982456
C68	C	-0.293357	0.934460	-1.047891
C69	C	-0.383182	0.850855	-1.051273
C70	C	-0.383207	0.850856	-0.985839
C71	C	-0.338312	0.892664	-0.951434
C72	C	-0.338448	0.892556	-0.151946
C73	C	-0.338256	0.892662	-0.082298
H74	H	-0.328607	0.333962	-0.416803
H75	H	-0.257128	0.253577	-0.384479
O76	O	-0.431762	0.805760	-0.684751
H77	H	-0.419704	0.757051	-0.671719
O78	O	-0.431792	0.805735	-0.548739
H79	H	-0.463004	0.776665	-0.583657
H80	H	-0.257141	0.134870	-0.384488
H81	H	-0.328593	0.452675	-0.416793
H82	H	-0.453182	0.879097	-0.760058
H83	H	-0.738894	0.950061	-0.257337
O84	O	-1.080124	0.819199	-0.388185
H85	H	-1.113574	0.786067	-0.361385
O86	O	-0.349803	0.324397	-0.197808
H87	H	-0.302740	0.296391	-0.189713
O88	O	-0.815974	0.955747	-0.251716
H89	H	-0.830084	0.944498	-0.203068
H90	H	-0.937315	0.980652	-0.226883
H91	H	-0.419912	0.128557	-0.245035
H92	H	-0.257090	0.538508	-0.384457
H93	H	-0.850591	0.840473	-0.366831
H94	H	-1.070394	0.975629	-0.231965
H95	H	-0.256828	0.968504	-0.954442
H96	H	-0.257089	0.657215	-0.384458
O97	O	-0.245124	0.979537	-0.541710
H98	H	-0.213882	1.008603	-0.574278
O99	O	-0.244908	0.979547	-1.081357
H100	H	-0.256975	1.028256	-1.069285
O101	O	-0.431694	0.659090	-0.234827
H102	H	-0.424150	0.710380	-0.241275
H103	H	-0.419854	0.532199	-0.245000
H104	H	-0.738943	0.804601	-0.402606
H105	H	-0.605866	0.809620	-0.397525
O106	O	-0.349810	0.460400	-0.197809
H107	H	-0.353616	0.426490	-0.158698
H108	H	-0.937361	0.835192	-0.372155
O109	O	-0.431739	0.255452	-0.234857
H110	H	-0.424190	0.306742	-0.241302
O111	O	-0.206797	0.907985	-0.878045
H112	H	-0.217405	0.906733	-0.929445
H113	H	-0.453152	0.879272	-0.878761
H114	H	-0.256937	0.968489	-0.669516
H115	H	-0.605829	0.955080	-0.252250
O116	O	-0.206860	0.908000	-0.742040
H117	H	-0.162842	0.913129	-0.774108
O118	O	-0.431611	0.805772	-1.088378
H119	H	-0.424051	0.812798	-1.139090
H120	H	-0.419788	0.816819	-0.960582
