data_functionalizedCrystal
_audit_creation_method	'MofGen! by Chris Wilmer'
_symmetry_space_group_name_H-M	'P1'
_symmetry_Int_Tables_number	1
_symmetry_cell_setting	triclinic
loop_
_symmetry_equiv_pos_as_xyz
  x,y,z
_cell_length_a	17.699097
_cell_length_b	12.837938
_cell_length_c	16.176319
_cell_angle_alpha	89.990327
_cell_angle_beta	89.992685
_cell_angle_gamma	90.941465
loop_
_atom_site_label
_atom_site_type_symbol
_atom_site_fract_x
_atom_site_fract_y
_atom_site_fract_z
O1	O	1.013702	-0.131114	-0.068811
O2	O	1.347035	0.202219	0.264523
O3	O	1.680369	0.535553	0.597856
O4	O	0.794577	-0.148152	-0.068797
O5	O	1.127910	0.185182	0.264537
O6	O	1.461243	0.518515	0.597870
O7	O	0.899281	0.011258	-0.068804
O8	O	1.232614	0.344591	0.264530
O9	O	1.565947	0.677925	0.597863
O10	O	0.908998	-0.290524	-0.068804
O11	O	1.242331	0.042810	0.264530
O12	O	1.575665	0.376143	0.597863
O13	O	0.899272	0.011229	0.068689
O14	O	1.232605	0.344563	0.402023
O15	O	1.565938	0.677896	0.735356
O16	O	0.794568	-0.148181	0.068696
O17	O	1.127901	0.185153	0.402030
O18	O	1.461234	0.518486	0.735363
O19	O	1.013693	-0.131143	0.068682
O20	O	1.347026	0.202191	0.402016
O21	O	1.680360	0.535524	0.735349
Cu22	Cu	0.904129	-0.139664	0.081244
Cu23	Cu	1.237463	0.193669	0.414577
Cu24	Cu	1.570796	0.527002	0.747910
Cu25	Cu	0.904140	-0.139630	-0.081358
Cu26	Cu	1.237473	0.193703	0.251975
Cu27	Cu	1.570807	0.527036	0.585309
O28	O	0.908989	-0.290553	0.068690
O29	O	1.242322	0.042781	0.402023
O30	O	1.575655	0.376114	0.735356
C31	C	0.766330	-0.147553	-0.000048
C32	C	1.099664	0.185780	0.333285
C33	C	1.432997	0.519113	0.666618
C34	C	0.682178	-0.145715	-0.000043
C35	C	1.015511	0.187618	0.333290
C36	C	1.348844	0.520952	0.666623
C37	C	0.895993	0.049856	-0.000059
C38	C	1.229327	0.383190	0.333274
C39	C	1.562660	0.716523	0.666608
C40	C	0.886203	0.164909	-0.000064
C41	C	1.219536	0.498243	0.333269
C42	C	1.552869	0.831576	0.666603
C43	C	0.165636	-0.134430	-0.075024
C44	C	0.498970	0.198903	0.258309
C45	C	0.832303	0.532237	0.591642
C46	C	0.244707	-0.136150	-0.075020
C47	C	0.578040	0.197183	0.258313
C48	C	0.911374	0.530516	0.591647
C49	C	0.284231	-0.137028	-0.000069
C50	C	0.617565	0.196305	0.333264
C51	C	0.950898	0.529639	0.666598
C52	C	0.244681	-0.136174	0.074883
C53	C	0.578015	0.197159	0.408216
C54	C	0.911348	0.530492	0.741549
C55	C	0.165612	-0.134447	0.074878
C56	C	0.498946	0.198887	0.408211
C57	C	0.832279	0.532220	0.741544
C58	C	0.563557	-0.143141	0.074904
C59	C	0.896890	0.190192	0.408238
C60	C	1.230224	0.523526	0.741571
C61	C	0.642631	-0.144872	0.074904
C62	C	0.975965	0.188461	0.408237
C63	C	1.309298	0.521795	0.741570
C64	C	0.642652	-0.144845	-0.074993
C65	C	0.975985	0.188489	0.258340
C66	C	1.309318	0.521822	0.591673
C67	C	0.563583	-0.143117	-0.074998
C68	C	0.896916	0.190216	0.258335
C69	C	1.230249	0.523550	0.591668
C70	C	0.524040	-0.142258	-0.000047
C71	C	0.857373	0.191075	0.333286
C72	C	1.190706	0.524409	0.666620
C73	C	0.438303	-0.140391	-0.000052
C74	C	0.771636	0.192943	0.333281
C75	C	1.104969	0.526276	0.666614
C76	C	0.369967	-0.138903	-0.000063
C77	C	0.703300	0.194431	0.333270
C78	C	1.036633	0.527764	0.666604
C79	C	1.003907	0.406157	-0.000097
C80	C	1.337241	0.739490	0.333236
C81	C	1.670574	1.072823	0.666570
C82	C	0.994712	0.514260	-0.000102
C83	C	1.328045	0.847593	0.333232
C84	C	1.661378	1.180927	0.666565
C85	C	0.858617	0.489221	-0.000084
C86	C	1.191950	0.822555	0.333249
C87	C	1.525283	1.155888	0.666583
C88	C	0.867812	0.381118	-0.000079
C89	C	1.201145	0.714451	0.333254
C90	C	1.534479	1.047785	0.666587
C91	C	0.940460	0.339590	-0.000085
C92	C	1.273793	0.672923	0.333249
C93	C	1.607127	1.006257	0.666582
C94	C	0.949655	0.231484	-0.000074
C95	C	1.282988	0.564818	0.333259
C96	C	1.616322	0.898151	0.666593
C97	C	0.813560	0.206448	-0.000062
C98	C	1.146894	0.539781	0.333271
C99	C	1.480227	0.873115	0.666605
C100	C	0.804365	0.314551	-0.000067
C101	C	1.137698	0.647885	0.333267
C102	C	1.471031	0.981218	0.666600
C103	C	1.041939	-0.131741	-0.000068
C104	C	1.375273	0.201592	0.333266
C105	C	1.708606	0.534925	0.666599
C106	C	1.126092	-0.133580	-0.000078
C107	C	1.459425	0.199754	0.333255
C108	C	1.792759	0.533087	0.666588
N109	N	0.904127	-0.139688	0.195609
N110	N	1.237461	0.193646	0.528942
N111	N	1.570794	0.526979	0.862276
C112	C	0.912277	0.670849	-0.000066
C113	C	1.245610	1.004183	0.333267
C114	C	1.578943	1.337516	0.666600
C115	C	0.922069	0.555796	-0.000094
C116	C	1.255402	0.889130	0.333239
C117	C	1.588735	1.222463	0.666573
N118	N	0.904148	-0.139599	-0.195723
N119	N	1.237481	0.193735	0.137610
N120	N	1.570814	0.527068	0.470944
C121	C	0.853718	-0.076822	0.761002
C122	C	1.187052	0.256512	1.094335
C123	C	1.520385	0.589845	1.427669
C124	C	0.853718	-0.076830	0.674455
C125	C	1.187051	0.256503	1.007788
C126	C	1.520384	0.589837	1.341121
C127	C	0.904143	-0.139621	0.631184
C128	C	1.237476	0.193712	0.964518
C129	C	1.570809	0.527045	1.297851
C130	C	0.954577	-0.202401	0.674465
C131	C	1.287911	0.130933	1.007799
C132	C	1.621244	0.464266	1.341132
C133	C	0.954581	-0.202386	0.761011
C134	C	1.287915	0.130947	1.094344
C135	C	1.621248	0.464280	1.427677
C136	C	0.954563	-0.202459	0.325437
C137	C	1.287896	0.130874	0.658770
C138	C	1.621229	0.464208	0.992104
C139	C	0.954553	-0.202471	0.238885
C140	C	1.287887	0.130862	0.572219
C141	C	1.621220	0.464196	0.905552
C142	C	0.853699	-0.076903	0.238881
C143	C	1.187032	0.256431	0.572214
C144	C	1.520366	0.589764	0.905548
C145	C	0.853703	-0.076888	0.325426
C146	C	1.187036	0.256445	0.658760
C147	C	1.520370	0.589778	0.992093
C148	C	0.904140	-0.139663	0.368700
C149	C	1.237473	0.193670	0.702033
C150	C	1.570807	0.527004	1.035367
C151	C	0.904141	-0.139652	0.462544
C152	C	1.237475	0.193681	0.795877
C153	C	1.570808	0.527015	1.129211
C154	C	0.904138	-0.139638	0.537342
C155	C	1.237472	0.193695	0.870675
C156	C	1.570805	0.527028	1.204008
H157	H	0.133461	-0.133723	-0.136058
H158	H	0.466795	0.199611	0.197275
H159	H	0.800128	0.532944	0.530609
F160	F	1.008238	-0.269276	0.371481
F161	F	1.341572	0.064058	0.704814
F162	F	1.674905	0.397391	1.038148
F163	F	0.286790	-0.137051	-0.154788
F164	F	0.620123	0.196283	0.178545
F165	F	0.953456	0.529616	0.511879
H166	H	1.046377	0.568456	-0.000115
H167	H	1.379711	0.901789	0.333219
H168	H	1.713044	1.235122	0.666552
H169	H	1.008808	0.197675	-0.000075
H170	H	1.342142	0.531008	0.333258
H171	H	1.675475	0.864341	0.666592
F172	F	0.746031	0.135595	-0.000040
F173	F	1.079364	0.468928	0.333293
F174	F	1.412697	0.802261	0.666627
H175	H	0.995646	-0.253505	0.796244
H176	H	1.328979	0.079828	1.129578
H177	H	1.662313	0.413162	1.462911
H178	H	0.799470	0.523053	-0.000089
H179	H	1.132803	0.856386	0.333245
H180	H	1.466137	1.189720	0.666578
H181	H	1.063060	0.372344	-0.000093
H182	H	1.396393	0.705677	0.333240
H183	H	1.729726	1.039011	0.666573
H184	H	0.995618	-0.253606	0.203657
H185	H	1.328951	0.079727	0.536990
H186	H	1.662285	0.413061	0.870324
H187	H	0.531406	-0.142408	-0.136031
H188	H	0.864739	0.190926	0.197302
H189	H	1.198073	0.524259	0.530636
F190	F	0.684743	-0.145752	-0.154764
F191	F	1.018076	0.187581	0.178569
F192	F	1.351409	0.520914	0.511903
F193	F	0.684695	-0.145805	0.154681
F194	F	1.018028	0.187528	0.488014
F195	F	1.351361	0.520862	0.821347
F196	F	0.123527	-0.133534	0.154645
F197	F	0.456860	0.199799	0.487979
F198	F	0.790193	0.533132	0.821312
H199	H	0.995638	-0.253521	0.639228
H200	H	1.328971	0.079812	0.972561
H201	H	1.662304	0.413145	1.305894
H202	H	0.812653	-0.025695	0.796226
H203	H	1.145986	0.307638	1.129560
H204	H	1.479319	0.640971	1.462893
F205	F	0.521482	-0.142249	0.154674
F206	F	0.854815	0.191085	0.488007
F207	F	1.188149	0.524418	0.821341
H208	H	0.812655	-0.025708	0.639224
H209	H	1.145988	0.307626	0.972557
H210	H	1.479322	0.640959	1.305891
H211	H	0.276868	-0.136882	0.135909
H212	H	0.610202	0.196451	0.469242
H213	H	0.943535	0.529784	0.802576
F214	F	0.800031	-0.010062	0.371474
F215	F	1.133364	0.323271	0.704807
F216	F	1.466698	0.656605	1.038140
H217	H	0.745217	0.348379	-0.000066
H218	H	1.078550	0.681712	0.333268
H219	H	1.411883	1.015046	0.666601
H220	H	0.812633	-0.025785	0.203637
H221	H	1.145966	0.307548	0.536971
H222	H	1.479300	0.640881	0.870304
