data_functionalizedCrystal
_audit_creation_method	'MofGen! by Chris Wilmer'
_symmetry_space_group_name_H-M	'P1'
_symmetry_Int_Tables_number	1
_symmetry_cell_setting	triclinic
loop_
_symmetry_equiv_pos_as_xyz
  x,y,z
_cell_length_a	14.446369
_cell_length_b	14.446369
_cell_length_c	14.446369
_cell_angle_alpha	90.002026
_cell_angle_beta	60.003063
_cell_angle_gamma	59.996355
loop_
_atom_site_label
_atom_site_type_symbol
_atom_site_fract_x
_atom_site_fract_y
_atom_site_fract_z
Zr1	Zr	1.013194	0.891725	-0.121448
O2	O	1.206315	0.743907	-0.269256
O3	O	0.820074	0.937045	-0.076136
O4	O	1.013184	0.937036	-0.269248
O5	O	1.013213	0.743915	0.076184
O6	O	1.013175	1.089374	-0.269242
O7	O	1.013205	0.743915	-0.076144
O8	O	0.667737	1.089389	0.076200
O9	O	1.358652	0.743900	-0.269257
O10	O	0.899501	1.070054	-0.056808
O11	O	0.899513	0.956366	0.056869
O12	O	1.126875	0.956356	-0.170495
O13	O	1.126888	0.842668	-0.056818
Zr14	Zr	1.013194	1.134685	0.121508
Zr15	Zr	1.013181	1.134685	-0.121439
Zr16	Zr	1.013208	0.891724	0.121499
Zr17	Zr	1.256154	0.891714	-0.121450
Zr18	Zr	0.770234	1.134696	0.121509
O19	O	1.206315	1.089364	0.076196
O20	O	1.206296	1.089365	-0.269243
O21	O	1.206334	0.743906	0.076183
O22	O	0.820074	1.282502	0.269316
O23	O	0.820055	1.282503	-0.076123
O24	O	0.820092	0.937044	0.269303
O25	O	1.013175	1.282494	-0.076125
O26	O	1.013205	1.089373	0.269307
O27	O	1.013213	0.937036	0.269302
O28	O	1.013184	1.282494	0.076204
O29	O	1.358641	0.937021	-0.269250
O30	O	0.667747	1.089389	0.269310
O31	O	0.667737	1.282509	0.269317
O32	O	0.667726	1.282510	0.076207
O33	O	1.358663	0.743900	-0.076147
O34	O	1.358652	0.937020	-0.076140
O35	O	0.899513	1.070053	0.170555
O36	O	0.899501	1.183741	0.056878
O37	O	1.126875	1.070043	-0.056810
O38	O	1.126888	0.956356	0.056868
C39	C	1.013211	0.709299	0.000019
C40	C	1.013217	0.606156	0.000015
C41	C	0.709288	1.013218	0.000032
C42	C	0.606146	1.013223	0.000033
C43	C	1.156607	0.387780	-0.071326
C44	C	1.156704	0.495012	-0.071727
C45	C	0.941981	0.602835	-0.052283
C46	C	0.942892	0.495066	-0.052806
C47	C	0.939948	0.496430	0.123745
C48	C	0.942651	0.602399	0.123550
C49	C	0.566856	1.084929	-0.071675
C50	C	0.459936	1.084594	-0.072061
C51	C	0.546953	0.889620	-0.051897
C52	C	0.654329	0.890035	-0.052436
C53	C	0.479337	1.064080	0.123704
C54	C	0.370874	1.066554	0.123514
C55	C	1.317100	1.013191	0.000028
C56	C	1.420243	1.013186	0.000027
C57	C	1.013178	1.013205	-0.303860
C58	C	1.013172	1.013205	-0.406997
C59	C	1.013178	1.317111	0.000041
C60	C	1.013172	1.420254	0.000045
C61	C	0.869782	1.085271	-0.481976
C62	C	0.869685	1.084959	-0.374647
C63	C	1.084407	0.889672	-0.481562
C64	C	1.083497	0.890067	-0.588421
C65	C	1.086440	1.063674	-0.589988
C66	C	1.083738	1.066174	-0.481316
C67	C	1.013211	1.013204	0.303919
C68	C	1.013217	1.013204	0.407056
C69	C	0.709272	1.317125	0.000043
C70	C	0.606123	1.420272	0.000048
C71	C	0.709305	1.013218	0.303921
C72	C	0.606168	1.013223	0.407059
C73	C	0.709288	1.317124	0.303933
C74	C	0.606146	1.420272	0.407074
C75	C	1.317100	0.709285	-0.303873
C76	C	1.420243	0.606138	-0.407015
C77	C	1.317117	0.709285	0.000016
C78	C	1.420265	0.606137	0.000012
C79	C	1.317083	1.013191	-0.303862
C80	C	1.420221	1.013187	-0.407000
C81	C	0.459801	1.638648	0.071381
C82	C	0.566730	1.531411	0.071787
C83	C	0.479266	1.423606	0.052345
C84	C	0.371882	1.531380	0.052863
C85	C	0.546853	1.529999	-0.123689
C86	C	0.655332	1.424025	-0.123489
C87	C	0.459856	0.941180	0.482040
C88	C	0.566778	0.941480	0.374711
C89	C	0.479307	1.136761	0.481619
C90	C	0.371931	1.136379	0.588478
C91	C	0.546915	0.962764	0.590056
C92	C	0.655386	0.960251	0.481384
C93	C	0.459810	1.495265	0.625435
C94	C	0.566755	1.387925	0.518204
C95	C	0.479292	1.494821	0.410389
C96	C	0.371893	1.601690	0.518157
C97	C	0.546838	1.603297	0.516817
C98	C	0.655332	1.494615	0.410849
H99	H	1.212878	0.493250	-0.036920
C100	C	0.800737	0.531064	0.012863
H101	H	0.800330	0.465506	0.012992
H102	H	0.761148	0.572968	-0.022583
H103	H	0.753040	0.576917	0.088701
H104	H	0.524484	0.833840	-0.002155
C105	C	0.510133	0.817984	0.478891
H106	H	0.507423	0.809392	0.545223
H107	H	0.597674	0.768028	0.413814
H108	H	0.456283	0.800538	0.475722
H109	H	0.370188	0.975870	0.481007
C110	C	0.427198	1.191736	0.411916
H111	H	0.482554	1.139595	0.337393
H112	H	0.425904	1.257995	0.408319
H113	H	0.340987	1.211510	0.447027
C114	C	0.777079	0.835079	-0.175357
H115	H	0.760979	0.812717	-0.224494
H116	H	0.848721	0.770437	-0.180725
H117	H	0.797247	0.888195	-0.196693
H118	H	1.212903	0.333822	-0.036424
H119	H	0.341925	1.680275	0.491507
H120	H	1.031787	1.157189	-0.429895
H121	H	0.745819	1.424542	-0.162556
C122	C	0.600386	0.841732	0.595610
H123	H	0.545961	0.820855	0.599779
H124	H	0.601303	0.839248	0.660873
H125	H	0.686879	0.790419	0.529580
H126	H	0.834287	0.523874	0.177173
C127	C	0.698725	1.317097	-0.201375
H128	H	0.727953	1.321668	-0.275397
H129	H	0.626941	1.311734	-0.172202
H130	H	0.768072	1.251914	-0.204589
H131	H	1.212623	0.332793	-0.162025
C132	C	0.427211	1.425103	0.407499
H133	H	0.350430	1.470956	0.409533
H134	H	0.407068	1.400027	0.471285
H135	H	0.492005	1.361320	0.339880
C136	C	0.510096	1.711545	0.024244
H137	H	0.507389	1.722843	-0.039381
H138	H	0.597639	1.673933	0.001783
H139	H	0.456261	1.782852	0.081251
H140	H	0.341927	1.504728	0.004235
C141	C	0.425996	1.185190	0.182353
H142	H	0.480571	1.205872	0.131957
H143	H	0.424944	1.187922	0.248594
H144	H	0.339569	1.236500	0.202665
H145	H	0.370703	1.175572	-0.037267
C146	C	0.509351	1.212448	0.518402
H147	H	0.599748	1.169275	0.488539
H148	H	0.458652	1.240520	0.598807
H149	H	0.488210	1.274235	0.490529
H150	H	1.188418	1.019140	-0.506834
H151	H	0.280491	1.157592	0.162307
C152	C	0.510085	1.492122	0.698352
H153	H	0.507363	1.558462	0.709662
H154	H	0.597632	1.427044	0.660755
H155	H	0.456248	1.488949	0.769648
C156	C	0.799459	0.708570	0.014548
H157	H	0.758215	0.704826	-0.018500
H158	H	0.798603	0.774699	0.012339
H159	H	0.753626	0.711404	0.091042
H160	H	0.370134	1.693638	0.162079
H161	H	0.522125	1.015003	0.668273
H162	H	0.585613	0.848636	-0.142013
C163	C	0.512509	0.993879	0.196219
H164	H	0.435499	1.025011	0.270849
H165	H	0.575952	0.995596	0.199039
H166	H	0.546531	0.917712	0.163502
H167	H	0.684075	0.833664	-0.003569
H168	H	0.341975	1.192991	0.667060
H169	H	1.212929	0.492563	-0.162977
C170	C	0.327188	1.003366	0.201721
H171	H	0.338546	0.943337	0.159897
H172	H	0.237535	1.054531	0.262827
H173	H	0.378563	0.973220	0.230669
H174	H	0.813796	1.175926	-0.320370
C175	C	0.793715	1.208476	-0.478810
H176	H	0.848743	1.217071	-0.545136
H177	H	0.766239	1.258412	-0.413728
H178	H	0.719238	1.225948	-0.475637
C179	C	0.516749	1.208155	-0.024950
H180	H	0.519343	1.216980	0.038706
H181	H	0.429266	1.258122	-0.002629
H182	H	0.570762	1.225377	-0.082109
H183	H	0.281128	1.581732	0.143888
C184	C	0.687476	0.818590	0.301376
H185	H	0.671453	0.768032	0.337060
H186	H	0.761346	0.809630	0.292951
H187	H	0.704073	0.802282	0.228870
C188	C	0.794107	1.038421	-0.480572
H189	H	0.849548	0.975129	-0.547317
H190	H	0.719958	1.095717	-0.477648
H191	H	0.766153	1.015488	-0.415889
H192	H	0.656103	1.333659	0.519827
C193	C	0.688142	1.037691	-0.194188
H194	H	0.762619	0.974456	-0.201828
H195	H	0.702230	1.094861	-0.211275
H196	H	0.674407	1.014588	-0.245045
C197	C	0.510714	1.036884	-0.195301
H198	H	0.596848	1.017621	-0.245325
H199	H	0.454761	1.092451	-0.212019
H200	H	0.511884	0.971122	-0.204597
H201	H	0.813438	1.049956	-0.320862
C202	C	1.015134	0.835473	-0.588072
H203	H	0.988170	0.813269	-0.522749
H204	H	1.074269	0.770765	-0.654257
H205	H	0.940769	0.888713	-0.586972
C206	C	1.225653	0.813570	-0.694580
H207	H	1.283703	0.782384	-0.672268
H208	H	1.244545	0.857136	-0.740560
H209	H	1.236414	0.753973	-0.736392
H210	H	0.837968	0.681562	0.181201
H211	H	1.040536	1.153267	-0.594100
H212	H	1.189908	0.833645	-0.508795
H213	H	0.370152	1.494224	0.680405
H214	H	1.034936	0.848981	-0.429960
H215	H	0.529267	1.533870	0.163039
H216	H	0.993508	0.444720	-0.143832
C217	C	0.427165	1.420736	0.174150
H218	H	0.350383	1.422781	0.205073
H219	H	0.407020	1.484527	0.219371
H220	H	0.491951	1.353113	0.173144
H221	H	1.192115	1.011414	-0.668189
C222	C	0.249307	1.601311	0.586163
H223	H	0.265486	1.535971	0.547800
H224	H	0.177532	1.667488	0.593222
H225	H	0.229293	1.600214	0.659421
H226	H	0.529307	0.976494	0.320927
C227	C	0.777642	0.837305	0.411921
H228	H	0.798618	0.818327	0.337930
H229	H	0.760598	0.787420	0.448136
H230	H	0.849151	0.830327	0.406821
H231	H	0.656079	1.533021	0.036712
H232	H	0.687510	1.007282	0.506908
H233	H	0.501514	1.345337	0.002866
C234	C	1.008793	0.605727	-0.174080
H235	H	0.964971	0.603695	-0.205002
H236	H	1.097665	0.541938	-0.219313
H237	H	1.004940	0.673352	-0.173058
C238	C	0.600272	1.597576	-0.182730
H239	H	0.545833	1.672891	-0.132482
H240	H	0.601152	1.599127	-0.248892
H241	H	0.686773	1.562418	-0.203221
H242	H	0.586396	1.607425	0.566844
C243	C	0.249329	1.190961	0.588111
H244	H	0.265488	1.213154	0.522782
H245	H	0.177559	1.255673	0.654290
H246	H	0.229322	1.137712	0.587009
C247	C	0.698723	1.529103	0.303928
H248	H	0.687348	1.498486	0.255373
H249	H	0.788349	1.500688	0.265320
H250	H	0.647210	1.609425	0.325129
C251	C	0.509336	1.531602	0.304661
H252	H	0.599729	1.501743	0.257443
H253	H	0.458623	1.612012	0.327294
H254	H	0.488213	1.503716	0.264004
H255	H	0.522037	1.681517	0.489375
C256	C	0.777580	1.425162	0.411549
H257	H	0.798571	1.351164	0.409542
H258	H	0.760518	1.461388	0.478487
H259	H	0.849085	1.420065	0.347024
H260	H	0.985845	0.446404	0.167433
H261	H	0.529307	1.334127	0.520648
H262	H	0.994590	0.601878	0.162619
H263	H	0.522062	1.502552	-0.177115
