data_functionalizedCrystal
_audit_creation_method	'MofGen! by Chris Wilmer'
_symmetry_space_group_name_H-M	'P1'
_symmetry_Int_Tables_number	1
_symmetry_cell_setting	triclinic
loop_
_symmetry_equiv_pos_as_xyz
  x,y,z
_cell_length_a	10.654549
_cell_length_b	17.699083
_cell_length_c	16.176319
_cell_angle_alpha	90.006703
_cell_angle_beta	89.994212
_cell_angle_gamma	96.116270
loop_
_atom_site_label
_atom_site_type_symbol
_atom_site_fract_x
_atom_site_fract_y
_atom_site_fract_z
O1	O	0.158804	-1.005089	-0.068731
O2	O	0.658804	-0.505089	0.431269
O3	O	0.179466	-0.784842	-0.068735
O4	O	0.679466	-0.284842	0.431265
O5	O	-0.013693	-0.900029	-0.068730
O6	O	0.486307	-0.400029	0.431270
O7	O	0.351963	-0.889901	-0.068737
O8	O	0.851963	-0.389901	0.431263
O9	O	-0.013705	-0.900013	0.068764
O10	O	0.486295	-0.400013	0.568764
O11	O	0.179454	-0.784825	0.068758
O12	O	0.679454	-0.284825	0.568758
O13	O	0.158792	-1.005073	0.068762
O14	O	0.658792	-0.505073	0.568762
Cu15	Cu	0.169122	-0.894948	0.081314
Cu16	Cu	0.669122	-0.394948	0.581314
Cu17	Cu	0.169136	-0.894967	-0.081287
Cu18	Cu	0.669136	-0.394967	0.418713
O19	O	0.351951	-0.889885	0.068757
O20	O	0.851951	-0.389885	0.568757
C21	C	0.178720	-0.756632	0.000011
C22	C	0.678720	-0.256632	0.500011
C23	C	0.176500	-0.672600	0.000009
C24	C	0.676500	-0.172600	0.500009
C25	C	0.175446	-0.633117	0.074957
C26	C	0.675446	-0.133117	0.574957
C27	C	0.173340	-0.554161	0.074958
C28	C	0.673340	-0.054161	0.574958
C29	C	0.172295	-0.514689	0.000009
C30	C	0.672295	-0.014689	0.500009
C31	C	0.173345	-0.554177	-0.074945
C32	C	0.673345	-0.054177	0.425055
C33	C	0.175442	-0.633132	-0.074944
C34	C	0.675442	-0.133132	0.425056
C35	C	0.164884	-0.235761	-0.074947
C36	C	0.664884	0.264239	0.425053
C37	C	0.162790	-0.156800	-0.074941
C38	C	0.662790	0.343200	0.425059
C39	C	0.162782	-0.156790	0.074955
C40	C	0.662782	0.343210	0.574955
C41	C	0.164879	-0.235745	0.074956
C42	C	0.664879	0.264255	0.574956
C43	C	0.165922	-0.275227	0.000002
C44	C	0.665922	0.224773	0.500002
C45	C	0.168203	-0.360840	0.000002
C46	C	0.668203	0.139160	0.500002
C47	C	0.170023	-0.429077	0.000008
C48	C	0.670023	0.070923	0.500008
C49	C	-0.060484	-0.899278	0.000016
C50	C	0.439516	-0.399278	0.500016
C51	C	-0.199888	-0.897053	0.000014
C52	C	0.300112	-0.397053	0.500014
C53	C	-0.411554	-0.962777	0.000009
C54	C	0.088446	-0.462777	0.500009
C55	C	-0.280570	-0.964873	0.000016
C56	C	0.219430	-0.464873	0.500016
C57	C	-0.250196	-0.827131	0.000013
C58	C	0.249804	-0.327131	0.500013
C59	C	-0.381178	-0.825036	0.000012
C60	C	0.118822	-0.325036	0.500012
C61	C	-0.119817	-1.050470	0.048191
C62	C	0.380183	-0.550470	0.548191
C63	C	-0.069513	-1.120390	0.048180
C64	C	0.430487	-0.620390	0.548180
C65	C	-0.125426	-1.180522	0.000001
C66	C	0.374574	-0.680522	0.500001
C67	C	-0.231640	-1.170736	-0.048185
C68	C	0.268360	-0.670736	0.451815
C69	C	-0.281937	-1.100816	-0.048182
C70	C	0.218063	-0.600816	0.451818
C71	C	-0.226027	-1.040687	0.000016
C72	C	0.273973	-0.540687	0.500016
C73	C	-0.541934	-0.739444	-0.048170
C74	C	-0.041934	-0.239444	0.451830
C75	C	-0.592233	-0.669522	-0.048172
C76	C	-0.092233	-0.169522	0.451828
C77	C	-0.536322	-0.609384	0.000002
C78	C	-0.036322	-0.109384	0.500002
C79	C	-0.430101	-0.619162	0.048176
C80	C	0.069899	-0.119162	0.548176
C81	C	-0.379802	-0.689084	0.048178
C82	C	0.120198	-0.189084	0.548178
C83	C	-0.435723	-0.749222	0.000006
C84	C	0.064277	-0.249222	0.500006
C85	C	0.398742	-0.890637	0.000009
C86	C	0.898742	-0.390637	0.500009
C87	C	0.538146	-0.892861	0.000006
C88	C	1.038146	-0.392861	0.500006
N89	N	0.169111	-0.894940	0.195680
N90	N	0.669111	-0.394940	0.695680
C91	C	0.159530	-0.033283	0.000014
C92	C	0.659530	0.466717	0.500014
C93	C	0.161728	-0.117317	0.000008
C94	C	0.661728	0.382683	0.500008
N95	N	0.169137	-0.894980	-0.195652
N96	N	0.669137	-0.394980	0.304348
C97	C	0.083615	-0.945960	0.238946
C98	C	0.583615	-0.445960	0.738946
C99	C	0.083614	-0.945964	0.325493
C100	C	0.583614	-0.445964	0.825493
C101	C	0.169115	-0.894950	0.368772
C102	C	0.669115	-0.394950	0.868772
C103	C	0.254615	-0.843924	0.325499
C104	C	0.754615	-0.343924	0.825499
C105	C	0.254610	-0.843917	0.238954
C106	C	0.754610	-0.343917	0.738954
C107	C	0.254639	-0.843950	0.674528
C108	C	0.754639	-0.343950	1.174528
C109	C	0.254640	-0.843963	0.761079
C110	C	0.754640	-0.343963	1.261079
C111	C	0.083643	-0.945997	0.761067
C112	C	0.583643	-0.445997	1.261067
C113	C	0.083637	-0.945990	0.674522
C114	C	0.583637	-0.445990	1.174522
C115	C	0.169132	-0.894962	0.631256
C116	C	0.669132	-0.394962	1.131256
C117	C	0.169131	-0.894957	0.537412
C118	C	0.669131	-0.394957	1.037412
C119	C	0.169123	-0.894958	0.462615
C120	C	0.669123	-0.394958	0.962615
H121	H	0.172485	-0.522033	-0.135969
H122	H	0.672485	-0.022033	0.364031
Br123	Br	0.370648	-0.774684	0.384231
Br124	Br	0.870648	-0.274684	0.884231
Br125	Br	-0.057149	-1.275410	-0.000016
Br126	Br	0.442851	-0.775410	0.499984
Br127	Br	0.166308	-0.289310	0.176675
Br128	Br	0.666308	0.210690	0.676675
Br129	Br	0.370637	-0.774667	0.180235
Br130	Br	0.870637	-0.274667	0.680235
Br131	Br	-0.032397	-1.015229	0.615789
Br132	Br	0.467603	-0.515229	1.115789
Br133	Br	0.166297	-0.289334	-0.176670
Br134	Br	0.666297	0.210666	0.323330
H135	H	-0.368412	-1.092848	-0.087417
H136	H	0.131588	-0.592848	0.412583
H137	H	0.161939	-0.124664	-0.135977
H138	H	0.661939	0.375336	0.364023
Br139	Br	0.074632	-1.133669	0.113571
Br140	Br	0.574632	-0.633669	0.613571
Br141	Br	-0.043941	-0.968867	0.113593
Br142	Br	0.456059	-0.468867	0.613593
Br143	Br	0.176860	-0.686718	-0.176664
Br144	Br	0.676860	-0.186718	0.323336
H145	H	-0.477237	-1.018005	0.000004
H146	H	0.022763	-0.518005	0.500004
Br147	Br	0.370666	-0.774701	0.615815
Br148	Br	0.870666	-0.274701	1.115815
H149	H	-0.277148	-1.219701	-0.087423
H150	H	0.222852	-0.719701	0.412577
H151	H	-0.184494	-0.771911	0.000016
H152	H	0.315506	-0.271911	0.500016
Br153	Br	0.176877	-0.686678	0.176679
Br154	Br	0.676877	-0.186678	0.676679
H155	H	-0.678718	-0.661563	-0.087407
H156	H	-0.178718	-0.161563	0.412593
Br157	Br	-0.604576	-0.514486	-0.000011
Br158	Br	-0.104576	-0.014486	0.499989
H159	H	0.013996	-0.987509	0.360721
H160	H	0.513996	-0.487509	0.860721
Br161	Br	-0.235643	-0.702355	0.113558
Br162	Br	0.264357	-0.202355	0.613558
H163	H	0.324269	-0.802418	0.796315
H164	H	0.824269	-0.302418	1.296315
Br165	Br	0.171932	-0.500578	0.176678
Br166	Br	0.671932	-0.000578	0.676678
Br167	Br	-0.354207	-0.537544	0.113552
Br168	Br	0.145793	-0.037544	0.613552
H169	H	-0.587471	-0.788412	-0.087397
H170	H	-0.087471	-0.288412	0.412603
H171	H	0.013995	-0.987505	0.203714
H172	H	0.513995	-0.487505	0.703714
Br173	Br	0.161364	-0.103203	0.176681
Br174	Br	0.661364	0.396797	0.676681
Br175	Br	-0.032391	-1.015251	0.819788
Br176	Br	0.467609	-0.515251	1.319788
