data_functionalizedCrystal
_audit_creation_method	'MofGen! by Chris Wilmer'
_symmetry_space_group_name_H-M	'P1'
_symmetry_Int_Tables_number	1
_symmetry_cell_setting	triclinic
loop_
_symmetry_equiv_pos_as_xyz
  x,y,z
_cell_length_a	25.639242
_cell_length_b	25.639239
_cell_length_c	17.077396
_cell_angle_alpha	90.031629
_cell_angle_beta	90.028365
_cell_angle_gamma	90.034811
loop_
_atom_site_label
_atom_site_type_symbol
_atom_site_fract_x
_atom_site_fract_y
_atom_site_fract_z
Zn1	Zn	0.799255	-0.208213	0.444011
Zn2	Zn	0.799168	-0.295651	0.312738
Zn3	Zn	0.711822	-0.208224	0.312739
Zn4	Zn	0.711775	-0.295613	0.443941
O5	O	0.755505	-0.251925	0.378357
O6	O	0.872409	-0.219823	0.426626
O7	O	0.787564	-0.284074	0.202891
O8	O	0.723476	-0.135058	0.330182
O9	O	0.872345	-0.284063	0.330180
O10	O	0.787712	-0.135049	0.426627
O11	O	0.723391	-0.219842	0.202892
O12	O	0.638650	-0.219805	0.330114
O13	O	0.723397	-0.283998	0.553797
O14	O	0.638616	-0.284009	0.426508
O15	O	0.787668	-0.219786	0.553849
O16	O	0.787519	-0.368811	0.330113
O17	O	0.723312	-0.368783	0.426507
C18	C	0.619662	-0.251905	0.378304
C19	C	0.561548	-0.251908	0.378300
C20	C	0.755416	-0.387768	0.378319
C21	C	0.755425	-0.445882	0.378329
C22	C	0.201177	-0.285412	0.428502
C23	C	0.146572	-0.285415	0.428514
O24	O	0.118328	-0.313876	0.471153
N25	N	0.119266	-0.251940	0.378408
C26	C	0.146567	-0.218455	0.328293
O27	O	0.118327	-0.189981	0.285675
C28	C	0.201170	-0.218449	0.328285
C29	C	0.228474	-0.251931	0.378388
C30	C	0.228480	-0.318890	0.478602
C31	C	0.283081	-0.318888	0.478588
C32	C	0.310378	-0.285407	0.428475
C33	C	0.283074	-0.251928	0.378375
C34	C	0.228470	-0.184962	0.278173
C35	C	0.283077	-0.184960	0.278170
C36	C	0.310381	-0.218441	0.328274
C37	C	0.364972	-0.218445	0.328247
N38	N	0.392278	-0.251920	0.378353
C39	C	0.364981	-0.285401	0.428467
C40	C	0.031896	-0.218468	0.328314
C41	C	-0.022706	-0.218476	0.328317
C42	C	-0.022697	-0.285436	0.428540
C43	C	0.031906	-0.285430	0.428532
C44	C	0.059202	-0.251944	0.378420
C45	C	0.479646	-0.285393	0.428434
C46	C	0.534251	-0.285389	0.428414
C47	C	0.534237	-0.218428	0.328194
C48	C	0.479637	-0.218434	0.328211
C49	C	0.452342	-0.251918	0.378337
O50	O	0.393251	-0.189997	0.285633
O51	O	0.393228	-0.313865	0.471084
C52	C	0.722066	-0.697073	0.428534
C53	C	0.722047	-0.642469	0.428525
O54	O	0.693598	-0.614230	0.471184
N55	N	0.755491	-0.615156	0.378370
C56	C	0.788961	-0.642450	0.328227
O57	O	0.817406	-0.614204	0.285567
C58	C	0.788982	-0.697053	0.328241
C59	C	0.755532	-0.724363	0.378393
C60	C	0.688619	-0.724383	0.478682
C61	C	0.688638	-0.778984	0.478690
C62	C	0.722104	-0.806274	0.428550
C63	C	0.755551	-0.778964	0.378401
C64	C	0.822454	-0.724346	0.278103
C65	C	0.822473	-0.778953	0.278121
C66	C	0.789023	-0.806263	0.328273
C67	C	0.789036	-0.860855	0.328268
N68	N	0.755591	-0.888168	0.378423
C69	C	0.722125	-0.860877	0.428563
C70	C	0.788913	-0.527779	0.328204
C71	C	0.788890	-0.473177	0.328185
C72	C	0.721976	-0.473200	0.428484
C73	C	0.721998	-0.527803	0.428498
C74	C	0.755469	-0.555092	0.378358
C75	C	0.722167	-0.975543	0.428576
C76	C	0.722187	-1.030148	0.428577
C77	C	0.789102	-1.030120	0.328281
C78	C	0.789080	-0.975520	0.328277
C79	C	0.755611	-0.948232	0.378430
O80	O	0.817472	-0.889128	0.285633
O81	O	0.693689	-0.889130	0.471224
C82	C	0.891878	-0.251946	0.378411
C83	C	0.949992	-0.251955	0.378434
C84	C	0.755537	-0.251887	0.583102
C85	C	0.755550	-0.251870	0.670351
C86	C	0.755609	-0.115552	0.378412
C87	C	0.755653	-0.057438	0.378436
C88	C	0.755504	-0.251926	0.174409
C89	C	0.755591	-0.251795	0.087160
C90	C	0.789017	-0.218432	0.711370
C91	C	0.789023	-0.218415	0.793350
C92	C	0.755565	-0.251838	0.834311
C93	C	0.722094	-0.285278	0.793287
C94	C	0.722086	-0.285292	0.711308
C95	C	0.722115	-0.285246	0.964157
C96	C	0.722124	-0.285233	1.046142
C97	C	0.789053	-0.218369	1.046199
C98	C	0.789045	-0.218383	0.964220
C99	C	0.755574	-0.251824	0.923202
H100	H	0.556479	-0.312656	0.469214
H101	H	0.816313	-0.953283	0.287431
Cl102	Cl	0.831174	-1.064438	0.265255
Cl103	Cl	0.194173	-0.360987	0.541610
H104	H	0.849693	-0.702118	0.237265
Cl105	Cl	0.680056	-0.327246	1.097635
Cl106	Cl	0.568564	-0.176339	0.265198
H107	H	0.054133	-0.312693	0.469332
Cl108	Cl	0.680009	-0.327329	0.659742
Cl109	Cl	0.680037	-0.327286	0.912593
Cl110	Cl	0.680090	-0.941247	0.491625
Cl111	Cl	0.830992	-0.562080	0.265158
H112	H	0.694947	-1.052381	0.469418
Cl113	Cl	0.831121	-0.176400	0.844912
H114	H	0.054117	-0.191200	0.287500
H115	H	0.661398	-0.801215	0.519528
H116	H	-0.044932	-0.312696	0.469348
Cl117	Cl	0.831084	-0.176414	0.659884
Cl118	Cl	0.680030	-0.327295	0.844781
Cl119	Cl	-0.057024	-0.176390	0.265317
H120	H	0.457429	-0.312659	0.469253
H121	H	0.206249	-0.157700	0.237371
Cl122	Cl	0.317389	-0.142859	0.215168
Cl123	Cl	0.317397	-0.360978	0.541584
Cl124	Cl	0.646542	-0.690086	0.541725
H125	H	0.816292	-0.191170	0.930872
Cl126	Cl	0.679945	-0.562130	0.491549
Cl127	Cl	0.831130	-0.176331	1.097764
Cl128	Cl	0.445312	-0.176351	0.265211
H129	H	0.694727	-0.450970	0.469312
H130	H	0.849732	-0.801169	0.237293
Cl131	Cl	0.830937	-0.438851	0.265125
