data_functionalizedCrystal
_audit_creation_method	'MofGen! by Chris Wilmer'
_symmetry_space_group_name_H-M	'P1'
_symmetry_Int_Tables_number	1
_symmetry_cell_setting	triclinic
loop_
_symmetry_equiv_pos_as_xyz
  x,y,z
_cell_length_a	19.805407
_cell_length_b	12.759399
_cell_length_c	19.805399
_cell_angle_alpha	89.980449
_cell_angle_beta	90.017803
_cell_angle_gamma	89.988434
loop_
_atom_site_label
_atom_site_type_symbol
_atom_site_fract_x
_atom_site_fract_y
_atom_site_fract_z
Zn1	Zn	1.034793	0.418366	0.382725
Zn2	Zn	1.034732	0.594059	0.269553
Zn3	Zn	0.921608	0.418387	0.269554
Zn4	Zn	0.921595	0.593995	0.382703
O5	O	0.978182	0.506202	0.326134
O6	O	1.129501	0.441690	0.367722
O7	O	1.019705	0.570791	0.174837
O8	O	0.936653	0.271363	0.284575
O9	O	1.129456	0.570771	0.284575
O10	O	1.019809	0.271348	0.367722
O11	O	0.936593	0.441725	0.174837
O12	O	0.826889	0.441663	0.284554
O13	O	0.936631	0.570662	0.477423
O14	O	0.826880	0.570682	0.367685
O15	O	1.019797	0.441628	0.477439
O16	O	1.019693	0.741072	0.284553
O17	O	0.936572	0.741025	0.367684
C18	C	0.802326	0.506169	0.326117
C19	C	0.727094	0.506180	0.326126
C20	C	0.691774	0.439086	0.369487
C21	C	0.621085	0.439092	0.369490
C22	C	0.585718	0.506197	0.326135
C23	C	0.621043	0.573294	0.282769
C24	C	0.691730	0.573282	0.282764
C25	C	0.335970	0.573341	0.282790
C26	C	0.265278	0.573350	0.282800
C27	C	0.265325	0.439151	0.369516
C28	C	0.336012	0.439139	0.369510
C29	C	0.371331	0.506231	0.326143
C30	C	0.447979	0.506223	0.326140
C31	C	0.509071	0.506211	0.326141
C32	C	0.978143	0.779169	0.326131
C33	C	0.978188	0.895946	0.326152
C34	C	1.021519	0.950797	0.282918
C35	C	1.021564	1.060521	0.282946
C36	C	0.934940	1.060533	0.369444
C37	C	0.934900	0.950811	0.369420
C38	C	1.101458	1.210401	0.258867
C39	C	1.144783	1.265256	0.215622
C40	C	1.155200	1.229704	0.149580
C41	C	1.122282	1.139298	0.126769
C42	C	1.078952	1.084449	0.170011
C43	C	1.068548	1.119999	0.236063
C44	C	0.855005	0.800929	0.393491
C45	C	0.811671	0.746077	0.436729
C46	C	0.801247	0.781627	0.502773
C47	C	0.834153	0.872037	0.525581
C48	C	0.877487	0.926888	0.482343
C49	C	0.887912	0.891331	0.416300
C50	C	1.154724	0.506236	0.326151
C51	C	1.229956	0.506250	0.326158
C52	C	0.978220	0.506136	0.502677
C53	C	0.978236	0.506107	0.577909
C54	C	0.978242	1.232168	0.326163
C55	C	0.978273	1.115392	0.326205
C56	C	0.978183	0.506192	0.150278
C57	C	0.978298	0.505924	0.075046
C58	C	1.021541	0.438916	0.613262
C59	C	1.021548	0.438886	0.683951
C60	C	0.978253	0.506052	0.719284
C61	C	0.934942	0.573247	0.683926
C62	C	0.934933	0.573271	0.613238
C63	C	0.934981	0.573149	0.968999
C64	C	0.934995	0.573122	1.039691
C65	C	1.021596	0.438763	1.039711
C66	C	1.021587	0.438788	0.969024
C67	C	0.978274	0.505978	0.933672
C68	C	0.978266	0.506008	0.857023
C69	C	0.978264	0.506028	0.795931
H70	H	1.052152	1.010841	0.151439
C71	C	0.582142	0.647113	0.235078
C72	C	0.504389	0.647136	0.235085
C73	C	0.465489	0.720961	0.187396
C74	C	0.504342	0.794763	0.139699
C75	C	0.582100	0.794742	0.139690
C76	C	0.621000	0.720918	0.187380
H77	H	0.475623	0.592501	0.270395
H78	H	0.407928	0.720975	0.187402
H79	H	0.475547	0.849412	0.104396
H80	H	0.610865	0.849377	0.104380
H81	H	0.678561	0.720903	0.187373
H82	H	1.056768	0.906129	0.247688
C83	C	0.887363	0.647003	1.078561
C84	C	0.834249	0.601437	1.127155
C85	C	0.786620	0.675314	1.166025
C86	C	0.792105	0.794756	1.156300
C87	C	0.845221	0.840328	1.107703
C88	C	0.892850	0.766451	1.068833
H89	H	0.830186	0.513013	1.134356
H90	H	0.747300	0.641578	1.202000
H91	H	0.756847	0.849444	1.185074
H92	H	0.849284	0.928752	1.100502
H93	H	0.932170	0.800187	1.032859
C94	C	0.753575	0.721295	0.550337
C95	C	0.678747	0.706960	0.531324
C96	C	0.631079	0.646633	0.578889
C97	C	0.658240	0.600641	0.645468
C98	C	0.733071	0.614974	0.664485
C99	C	0.780739	0.675301	0.616919
H100	H	0.658638	0.741008	0.482035
H101	H	0.575684	0.636023	0.564812
H102	H	0.622953	0.555983	0.680679
H103	H	0.753180	0.580927	0.713773
H104	H	0.836135	0.685911	0.630997
C105	C	1.090009	1.249501	0.331521
C106	C	1.126213	1.348943	0.356605
C107	C	1.114765	1.388047	0.429260
C108	C	1.067113	1.327710	0.476831
C109	C	1.030907	1.228262	0.451748
C110	C	1.042355	1.189158	0.379093
H111	H	1.161490	1.393613	0.321389
H112	H	1.141567	1.461665	0.447828
H113	H	1.058639	1.356657	0.530614
H114	H	0.995630	1.183592	0.486963
H115	H	1.015552	1.115540	0.360525
H116	H	0.720564	0.384444	0.404794
C117	C	1.069184	0.364971	0.722840
C118	C	1.116810	0.291092	0.683976
C119	C	1.164445	0.217170	0.722865
C120	C	1.164453	0.217127	0.800618
C121	C	1.116825	0.291009	0.839486
C122	C	1.069191	0.364931	0.800597
H123	H	1.116805	0.291121	0.626414
H124	H	1.199702	0.162478	0.694091
H125	H	1.199716	0.162406	0.829406
H126	H	1.116830	0.290980	0.897048
H127	H	1.033933	0.419623	0.829371
C128	C	1.133736	1.100197	0.054116
C129	C	1.181398	1.160528	0.006552
C130	C	1.192854	1.121423	-0.066101
C131	C	1.156648	1.021987	-0.091190
C132	C	1.108983	0.961650	-0.043625
C133	C	1.097527	1.000755	0.029028
H134	H	1.208203	1.234142	0.025124
H135	H	1.228139	1.166088	-0.101311
H136	H	1.165129	0.993039	-0.144973
H137	H	1.082179	0.888036	-0.062197
H138	H	1.062242	0.956090	0.064238
C139	C	0.226372	0.647164	0.235102
C140	C	0.236054	0.638418	0.158165
C141	C	0.197149	0.712229	0.110471
C142	C	0.148561	0.794785	0.139714
C143	C	0.138877	0.803534	0.216655
C144	C	0.177783	0.729724	0.264349
H145	H	0.272024	0.577302	0.136514
H146	H	0.204318	0.705752	0.053514
H147	H	0.119761	0.849424	0.104408
H148	H	0.102908	0.864650	0.238306
H149	H	0.170614	0.736201	0.321306
H150	H	1.056800	0.384224	0.584499
C151	C	0.887322	1.120887	0.417034
C152	C	0.887363	1.241576	0.417063
C153	C	0.839743	1.301928	0.464653
C154	C	0.792083	1.241589	0.512214
C155	C	0.792040	1.120892	0.512187
C156	C	0.839660	1.060541	0.464597
H157	H	0.922646	1.286249	0.381854
H158	H	0.839775	1.391276	0.464673
H159	H	0.756832	1.286265	0.547443
H160	H	0.756757	1.076220	0.547396
H161	H	0.839628	0.971193	0.464577
C162	C	1.202858	1.290052	0.102015
C163	C	1.188057	1.405323	0.084317
C164	C	1.235717	1.465679	0.036759
C165	C	1.298177	1.410764	0.006897
C166	C	1.312980	1.295487	0.024594
C167	C	1.265321	1.235131	0.072153
H168	H	1.141818	1.445980	0.106423
H169	H	1.224758	1.551015	0.023659
H170	H	1.333457	1.455444	-0.028308
H171	H	1.359220	1.254831	0.002489
H172	H	1.276280	1.149796	0.085253
C173	C	0.887317	0.647042	0.930132
C174	C	0.834168	0.601493	0.881556
C175	C	0.786491	0.675381	0.842692
C176	C	0.791962	0.794818	0.852405
C177	C	0.845114	0.840373	0.900983
C178	C	0.892791	0.766485	0.939847
H179	H	0.830116	0.513074	0.874364
H180	H	0.747145	0.641658	0.806731
H181	H	0.756669	0.849514	0.823636
H182	H	0.849166	0.928792	0.908175
H183	H	0.932137	0.800208	0.975808
H184	H	1.056845	0.384097	0.940259
H185	H	0.592331	0.384460	0.404800
H186	H	1.056861	0.384050	1.068504
H187	H	1.171585	1.338865	0.234201
C188	C	0.822690	0.911150	0.598231
C189	C	0.775028	0.850816	0.645793
C190	C	0.763561	0.889928	0.718443
C191	C	0.799756	0.989375	0.743531
C192	C	0.847420	1.049716	0.695968
C193	C	0.858887	1.010603	0.623318
H194	H	0.748232	0.777194	0.627223
H195	H	0.728276	0.845260	0.753652
H196	H	0.791267	1.018329	0.797311
H197	H	0.874216	1.123338	0.714538
H198	H	0.894172	1.055272	0.588109
H199	H	0.899688	0.627932	0.712700
H200	H	0.899662	0.627975	0.584454
H201	H	0.904283	1.000502	0.500920
H202	H	0.364804	0.384499	0.404817
C203	C	0.226472	0.365337	0.417216
C204	C	0.236218	0.374072	0.494151
C205	C	0.197367	0.300263	0.541851
C206	C	0.148769	0.217720	0.512616
C207	C	0.139020	0.208981	0.435676
C208	C	0.177872	0.282790	0.387977
H209	H	0.272195	0.435179	0.515797
H210	H	0.204584	0.306733	0.598807
H211	H	0.120009	0.163082	0.547926
H212	H	0.103043	0.147875	0.414031
H213	H	0.170655	0.276321	0.331021
H214	H	0.364718	0.627973	0.247478
H215	H	0.720487	0.627916	0.247454
H216	H	0.784881	0.672456	0.418155
H217	H	0.863494	0.771969	0.339714
