data_functionalizedCrystal
_audit_creation_method	'MofGen! by Chris Wilmer'
_symmetry_space_group_name_H-M	'P1'
_symmetry_Int_Tables_number	1
_symmetry_cell_setting	triclinic
loop_
_symmetry_equiv_pos_as_xyz
  x,y,z
_cell_length_a	9.065215
_cell_length_b	10.065875
_cell_length_c	9.065218
_cell_angle_alpha	81.078217
_cell_angle_beta	85.015291
_cell_angle_gamma	98.877767
loop_
_atom_site_label
_atom_site_type_symbol
_atom_site_fract_x
_atom_site_fract_y
_atom_site_fract_z
O1	O	1.981699	0.113472	0.194939
O2	O	1.552415	0.113477	0.212689
O3	O	1.775930	0.113472	-0.010828
O4	O	1.758185	0.113478	0.418456
O5	O	1.733311	-0.113516	0.031967
O6	O	1.509796	-0.113510	0.255484
O7	O	1.939080	-0.113516	0.237734
Zn8	Zn	1.717672	-0.149552	0.253404
Zn9	Zn	1.773824	0.149514	0.197020
O10	O	1.715566	-0.113510	0.461251
C11	C	1.476119	-0.000016	0.232382
C12	C	1.312276	-0.000013	0.227283
N13	N	1.679360	-0.353657	0.291884
C14	C	1.760485	-0.421438	0.210399
C15	C	1.731011	-0.578604	0.240025
C16	C	2.015377	-0.000020	0.218042
C17	C	2.179221	-0.000013	0.223138
C18	C	1.752915	-0.000020	-0.044417
C19	C	1.747817	-0.000013	-0.208261
N20	N	1.812147	0.353618	0.158528
C21	C	1.738581	-0.000016	0.494840
C22	C	1.743681	-0.000013	0.658683
H23	H	1.851754	-0.363116	0.118696
C24	C	1.607701	-0.657378	0.363909
H25	H	1.604075	-0.752677	0.367577
H26	H	1.513293	-0.634045	0.342424
H27	H	1.629686	-0.634025	0.458165
H28	H	1.903422	-0.588063	0.066820
H29	H	1.588080	-0.411981	0.383575
