data_functionalizedCrystal
_audit_creation_method	'MofGen! by Chris Wilmer'
_symmetry_space_group_name_H-M	'P1'
_symmetry_Int_Tables_number	1
_symmetry_cell_setting	triclinic
loop_
_symmetry_equiv_pos_as_xyz
  x,y,z
_cell_length_a	12.827893
_cell_length_b	15.299816
_cell_length_c	12.827893
_cell_angle_alpha	80.323950
_cell_angle_beta	90.003977
_cell_angle_gamma	80.350679
loop_
_atom_site_label
_atom_site_type_symbol
_atom_site_fract_x
_atom_site_fract_y
_atom_site_fract_z
Zn1	Zn	1.669447	-0.359233	0.662920
Zn2	Zn	1.699583	-0.510025	0.518433
Zn3	Zn	1.494732	-0.359218	0.488191
Zn4	Zn	1.524867	-0.510018	0.693131
O5	O	1.597157	-0.434623	0.590669
O6	O	1.819682	-0.379245	0.643766
O7	O	1.672409	-0.490017	0.368185
O8	O	1.492684	-0.233003	0.486069
O9	O	1.841823	-0.490031	0.537613
O10	O	1.621046	-0.233014	0.614441
O11	O	1.521906	-0.379220	0.345966
O12	O	1.352491	-0.379213	0.515364
O13	O	1.544046	-0.490019	0.835360
O14	O	1.374632	-0.490004	0.665933
O15	O	1.650268	-0.379238	0.813164
O16	O	1.701630	-0.636241	0.566907
O17	O	1.573268	-0.636236	0.695258
C18	C	1.325644	-0.434607	0.590646
C19	C	1.209494	-0.434621	0.590665
C20	C	1.146772	-0.379898	0.643312
C21	C	1.026725	-0.379912	0.643333
C22	C	1.644018	-0.668965	0.637665
C23	C	1.664160	-0.769217	0.657806
C24	C	1.453879	-1.052088	0.447078
C25	C	1.434949	-0.957896	0.428158
C26	C	1.492250	-0.910721	0.485568
C27	C	1.568485	-0.957748	0.561902
C28	C	1.587411	-1.051950	0.580830
C29	C	1.625782	-0.910583	0.619320
C30	C	1.702017	-0.957610	0.695654
C31	C	1.720941	-1.051802	0.714578
C32	C	1.663639	-1.098977	0.657168
C33	C	1.606856	-0.816382	0.600392
C34	C	1.740388	-0.816244	0.734144
C35	C	1.759319	-0.910436	0.753064
C36	C	1.869731	-0.434641	0.590693
C37	C	1.985885	-0.434648	0.590703
C38	C	1.597157	-0.434629	0.863240
C39	C	1.597156	-0.434632	0.979394
C40	C	1.550142	-0.199367	0.543511
C41	C	1.530107	-0.099115	0.523416
C42	C	1.522690	-0.379813	1.020185
C43	C	1.522688	-0.379814	1.140236
C44	C	1.597154	-0.434638	1.319162
C45	C	1.597154	-0.434635	1.203008
H46	H	1.476834	-0.834026	0.470157
H47	H	1.821389	-0.948739	0.815217
O48	O	1.057267	-0.496710	0.530991
H49	H	1.009083	-0.536810	0.492446
H50	H	1.660907	-0.481566	1.033348
H51	H	1.181948	-0.333034	0.688364
O52	O	0.955344	-0.317842	0.703035
H53	H	0.872254	-0.327586	0.693673
O54	O	1.438246	-0.317636	1.186754
H55	H	1.359292	-0.333072	1.168956
O56	O	1.162915	-0.496695	0.530969
H57	H	1.122390	-0.542621	0.586913
H58	H	1.458935	-0.332883	0.966232
O59	O	1.524650	-0.765669	0.518050
H60	H	1.446263	-0.783808	0.539537
O61	O	1.352747	-0.907173	0.345817
H62	H	1.316093	-0.955798	0.309064
O63	O	1.392092	-1.102964	0.385150
H64	H	1.418070	-1.176364	0.411130
O65	O	1.681617	-0.496800	1.156497
H66	H	1.736171	-0.536950	1.220746
H67	H	1.679052	-1.175676	0.672565
O68	O	1.803156	-1.102530	0.796915
H69	H	1.839828	-1.053906	0.833652
O70	O	1.802207	-0.765378	0.796068
H71	H	1.776249	-0.691977	0.770073
