data_functionalizedCrystal
_audit_creation_method	'MofGen! by Chris Wilmer'
_symmetry_space_group_name_H-M	'P1'
_symmetry_Int_Tables_number	1
_symmetry_cell_setting	triclinic
loop_
_symmetry_equiv_pos_as_xyz
  x,y,z
_cell_length_a	6.817900
_cell_length_b	19.453103
_cell_length_c	19.453114
_cell_angle_alpha	96.316406
_cell_angle_beta	101.709288
_cell_angle_gamma	101.709178
loop_
_atom_site_label
_atom_site_type_symbol
_atom_site_fract_x
_atom_site_fract_y
_atom_site_fract_z
V1	V	-3.997997	-0.097914	-0.219328
O2	O	-3.995098	0.003953	-0.214817
O3	O	-3.941017	-0.193423	-0.218151
O4	O	-3.941018	-0.096738	-0.314837
O5	O	-3.995097	-0.093402	-0.117462
V6	V	-4.483849	-0.085690	-0.207105
O7	O	-4.254148	-0.124727	-0.246141
O8	O	-4.677895	-0.058877	-0.180292
O9	O	-4.317623	0.009819	-0.208282
O10	O	-4.604145	-0.187557	-0.211616
O11	O	-4.604146	-0.090202	-0.308971
O12	O	-4.317621	-0.086866	-0.111596
C13	C	-3.784208	-0.216695	-0.214774
C14	C	-3.818849	-0.294777	-0.214449
C15	C	-3.784208	-0.093363	-0.338106
C16	C	-3.818848	-0.093034	-0.416187
C17	C	-4.016582	-0.335044	-0.217808
C18	C	-4.049135	-0.408411	-0.217509
C19	C	-3.883937	-0.441507	-0.213837
C20	C	-3.686178	-0.401231	-0.210481
C21	C	-3.653634	-0.327867	-0.210787
N22	N	-3.779057	-0.547627	-0.170551
N23	N	-3.809984	-0.617320	-0.170259
C24	C	-3.981979	-0.662551	-0.212916
N25	N	-4.121905	-0.635454	-0.255867
N26	N	-4.090980	-0.565754	-0.256156
C27	C	-3.919205	-0.521058	-0.213505
C28	C	-4.215023	-0.782371	-0.215953
C29	C	-4.247572	-0.855741	-0.215658
C30	C	-3.884605	-0.848558	-0.208622
C31	C	-3.852066	-0.775191	-0.208924
C32	C	-4.017281	-0.742102	-0.212586
C33	C	-4.016587	-0.096405	-0.456456
C34	C	-4.049136	-0.096095	-0.529822
C35	C	-3.883941	-0.092429	-0.562918
C36	C	-3.686172	-0.089054	-0.522640
C37	C	-3.653625	-0.089356	-0.449274
N38	N	-3.820865	-0.129523	-0.681832
N39	N	-3.851796	-0.129237	-0.751526
C40	C	-3.981989	-0.091516	-0.783963
N41	N	-4.080118	-0.054100	-0.744075
N42	N	-4.049192	-0.054389	-0.674375
C43	C	-3.919211	-0.092100	-0.642470
C44	C	-4.215033	-0.094550	-0.903783
C45	C	-4.247572	-0.094236	-0.977150
C46	C	-3.884605	-0.087202	-0.969967
C47	C	-3.852068	-0.087509	-0.896601
C48	C	-4.017291	-0.091187	-0.863515
C49	C	-4.137773	0.033088	-0.211656
C50	C	-4.082370	0.111169	-0.211986
C51	C	-4.137773	-0.090243	-0.088323
C52	C	-4.082372	-0.090569	-0.010241
H53	H	-4.151119	-0.308108	-0.220795
O54	O	-3.660019	-0.735982	-0.205557
C55	C	-3.380771	-0.639279	-0.140621
C56	C	-3.598298	-0.683615	-0.144355
H57	H	-3.330786	-0.596940	-0.091136
H58	H	-3.382074	-0.612562	-0.189962
H59	H	-3.268348	-0.675555	-0.137978
H60	H	-3.710845	-0.647388	-0.146975
H61	H	-3.596828	-0.710340	-0.095015
O62	O	-3.525702	-0.433389	-0.206786
C63	C	-3.320066	-0.502351	-0.141212
C64	C	-3.501823	-0.465950	-0.145296
H65	H	-3.300729	-0.528697	-0.091509
H66	H	-3.173052	-0.460988	-0.138815
H67	H	-3.351954	-0.544359	-0.190324
H68	H	-3.470134	-0.423945	-0.096196
H69	H	-3.648778	-0.507354	-0.147727
O70	O	-4.177082	-0.100098	-0.424306
C71	C	-4.382730	-0.165670	-0.355347
C72	C	-4.200956	-0.161584	-0.391739
H73	H	-4.402063	-0.215369	-0.328995
H74	H	-4.529738	-0.168073	-0.396715
H75	H	-4.350863	-0.116554	-0.313343
H76	H	-4.232623	-0.210687	-0.433739
H77	H	-4.054007	-0.159145	-0.350329
O78	O	-3.461647	-0.288736	-0.207643
C79	C	-3.246093	-0.211429	-0.265041
C80	C	-3.463607	-0.255733	-0.268703
H81	H	-3.247616	-0.184723	-0.314394
H82	H	-3.133533	-0.247656	-0.262411
H83	H	-3.196126	-0.169069	-0.215573
H84	H	-3.513766	-0.298097	-0.318166
H85	H	-3.576037	-0.219461	-0.271295
H86	H	-3.691053	-0.084771	-0.863815
O87	O	-4.439770	-0.097634	-1.016257
C88	C	-4.791780	-0.164703	-1.054542
C89	C	-4.574203	-0.160954	-1.010239
H90	H	-4.900539	-0.215886	-1.049681
H91	H	-4.786818	-0.163898	-1.112680
H92	H	-4.849089	-0.117066	-1.034022
H93	H	-4.516764	-0.208581	-1.030698
H94	H	-4.579292	-0.161725	-0.952108
O95	O	-4.241253	-0.447585	-0.220894
C96	C	-4.520410	-0.544351	-0.285764
C97	C	-4.302855	-0.500037	-0.282027
H98	H	-4.570264	-0.586777	-0.335177
H99	H	-4.633014	-0.508138	-0.288482
H100	H	-4.518949	-0.570975	-0.236362
H101	H	-4.304116	-0.473406	-0.331417
H102	H	-4.190343	-0.536284	-0.279273
H103	H	-4.349551	-0.755428	-0.218933
H104	H	-4.408596	-0.888526	-0.218398
O105	O	-4.241336	-0.099511	-0.568945
C106	C	-4.593307	-0.166615	-0.607246
C107	C	-4.375734	-0.162837	-0.562923
H108	H	-4.702037	-0.217803	-0.602380
H109	H	-4.588309	-0.165821	-0.665383
H110	H	-4.650676	-0.118984	-0.586747
H111	H	-4.318234	-0.210458	-0.583360
H112	H	-4.380858	-0.163596	-0.504793
H113	H	-3.750099	-0.875504	-0.205636
O114	O	-3.525814	-0.085401	-0.554852
C115	C	-3.320036	-0.019788	-0.623749
C116	C	-3.501725	-0.023851	-0.587316
H117	H	-3.300475	0.029978	-0.649992
H118	H	-3.351867	-0.068848	-0.665820
H119	H	-3.173152	-0.017466	-0.582355
H120	H	-3.648687	-0.026151	-0.628657
H121	H	-3.469717	0.025207	-0.545231
H122	H	-4.349566	-0.097542	-0.876842
O123	O	-3.724238	-0.083546	-1.002172
C124	C	-3.518441	-0.017926	-1.071059
C125	C	-3.700139	-0.021993	-1.034630
H126	H	-3.498872	0.031843	-1.097298
H127	H	-3.550266	-0.066983	-1.113134
H128	H	-3.371563	-0.015607	-1.029664
H129	H	-3.847095	-0.024289	-1.075973
H130	H	-3.668136	0.027062	-0.992542
O131	O	-3.461532	-0.085986	-0.410097
C132	C	-3.182394	-0.021162	-0.313303
C133	C	-3.399908	-0.024865	-0.357631
H134	H	-3.132521	0.028242	-0.270864
H135	H	-3.069755	-0.018448	-0.349503
H136	H	-3.183939	-0.070575	-0.286693
H137	H	-3.398563	0.024536	-0.384247
H138	H	-3.512454	-0.027614	-0.321397
