data_functionalizedCrystal
_audit_creation_method	'MofGen! by Chris Wilmer'
_symmetry_space_group_name_H-M	'P1'
_symmetry_Int_Tables_number	1
_symmetry_cell_setting	triclinic
loop_
_symmetry_equiv_pos_as_xyz
  x,y,z
_cell_length_a	29.839135
_cell_length_b	29.839131
_cell_length_c	29.839125
_cell_angle_alpha	90.017709
_cell_angle_beta	90.015488
_cell_angle_gamma	90.043950
loop_
_atom_site_label
_atom_site_type_symbol
_atom_site_fract_x
_atom_site_fract_y
_atom_site_fract_z
Zn1	Zn	0.686720	-0.178886	0.254047
Zn2	Zn	0.686652	-0.253998	0.178917
Zn3	Zn	0.611602	-0.178886	0.178925
Zn4	Zn	0.611550	-0.253993	0.254014
O5	O	0.649131	-0.216441	0.216476
O6	O	0.749578	-0.188852	0.244092
O7	O	0.676690	-0.244036	0.116051
O8	O	0.621617	-0.116019	0.188908
O9	O	0.749528	-0.244036	0.188894
O10	O	0.676805	-0.116019	0.244099
O11	O	0.621551	-0.188852	0.116057
O12	O	0.548728	-0.188847	0.188876
O13	O	0.621528	-0.244028	0.316886
O14	O	0.548690	-0.244028	0.244043
O15	O	0.676755	-0.188847	0.316910
O16	O	0.676639	-0.316865	0.188862
O17	O	0.621462	-0.316861	0.244035
C18	C	0.532408	-0.216437	0.216457
C19	C	0.482474	-0.216447	0.216459
C20	C	0.649050	-0.333163	0.216454
C21	C	0.649056	-0.383098	0.216459
C22	C	0.677914	-0.692730	0.187789
C23	C	0.677969	-0.880403	0.187807
O24	O	0.702441	-0.904659	0.163413
N25	N	0.649224	-0.903883	0.216510
C26	C	0.620465	-0.880441	0.245213
O27	O	0.596020	-0.904718	0.269630
C28	C	0.620412	-0.692769	0.245197
C29	C	0.649156	-0.669292	0.216489
C30	C	0.706656	-0.669253	0.159084
C31	C	0.706640	-0.622338	0.159078
C32	C	0.677882	-0.598900	0.187778
C33	C	0.649140	-0.622377	0.216483
C34	C	0.591656	-0.669328	0.273902
C35	C	0.591646	-0.622407	0.273897
C36	C	0.620390	-0.598930	0.245188
C37	C	0.620367	-0.552023	0.245177
N38	N	0.649112	-0.528543	0.216474
C39	C	0.677869	-0.551982	0.187774
C40	C	0.620494	-0.978972	0.245218
C41	C	0.620507	-1.025889	0.245222
C42	C	0.678012	-1.025849	0.187816
C43	C	0.677997	-0.978930	0.187811
C44	C	0.649239	-0.955492	0.216515
C45	C	0.677834	-0.453456	0.187764
C46	C	0.677814	-0.406536	0.187759
C47	C	0.620311	-0.406581	0.245167
C48	C	0.620329	-0.453497	0.245170
C49	C	0.649094	-0.476933	0.216467
O50	O	0.595912	-0.527738	0.269561
O51	O	0.702318	-0.527697	0.163367
C52	C	0.677930	-0.739646	0.187795
C53	C	0.649188	-0.763123	0.216501
C54	C	0.620430	-0.739684	0.245200
C55	C	0.649200	-0.810041	0.216504
C56	C	0.677958	-0.833479	0.187804
C57	C	0.706703	-0.810000	0.159101
C58	C	0.706687	-0.763084	0.159095
C59	C	0.591685	-0.763164	0.273904
C60	C	0.591703	-0.810079	0.273907
C61	C	0.620461	-0.833518	0.245207
C62	C	0.172854	-0.187750	0.245260
C63	C	-0.014819	-0.187753	0.245273
O64	O	-0.039065	-0.163344	0.269738
N65	N	-0.038311	-0.216441	0.216492
C66	C	-0.014882	-0.245129	0.187705
O67	O	-0.039169	-0.269527	0.163223
C68	C	0.172791	-0.245123	0.187690
C69	C	0.196280	-0.216436	0.216475
C70	C	0.196343	-0.159065	0.274042
C71	C	0.243258	-0.159066	0.274040
C72	C	0.266684	-0.187752	0.245256
C73	C	0.243195	-0.216437	0.216474
C74	C	0.196219	-0.273808	0.158901
C75	C	0.243140	-0.273803	0.158899
C76	C	0.266630	-0.245116	0.187684
C77	C	0.313537	-0.245125	0.187688
N78	N	0.337029	-0.216437	0.216468
C79	C	0.313602	-0.187750	0.245252
C80	C	-0.113412	-0.245130	0.187715
C81	C	-0.160330	-0.245133	0.187720
C82	C	-0.160265	-0.187756	0.245287
C83	C	-0.113346	-0.187756	0.245284
C84	C	-0.089921	-0.216442	0.216495
C85	C	0.412128	-0.187755	0.245246
C86	C	0.459048	-0.187760	0.245243
C87	C	0.458978	-0.245135	0.187675
C88	C	0.412063	-0.245132	0.187679
C89	C	0.388639	-0.216438	0.216467
O90	O	0.337811	-0.269518	0.163231
O91	O	0.337898	-0.163349	0.269724
C92	C	0.125938	-0.187749	0.245262
C93	C	0.102449	-0.216434	0.216479
C94	C	0.125875	-0.245120	0.187695
C95	C	0.055531	-0.216436	0.216483
C96	C	0.032105	-0.187749	0.245267
C97	C	0.055596	-0.159061	0.274048
C98	C	0.102512	-0.159062	0.274046
C99	C	0.102384	-0.273808	0.158915
C100	C	0.055468	-0.273805	0.158919
C101	C	0.032042	-0.245119	0.187703
C102	C	0.766309	-0.216445	0.216495
C103	C	0.816244	-0.216446	0.216504
C104	C	0.649143	-0.216437	0.333654
C105	C	0.649148	-0.216435	0.383589
C106	C	0.649225	-0.099262	0.216508
C107	C	0.649265	-0.049328	0.216522
C108	C	0.649145	-0.216412	0.099753
C109	C	0.649227	-0.216288	0.049819
C110	C	0.677935	-0.187627	0.693248
C111	C	0.677957	-0.187589	0.880921
O112	O	0.702400	-0.163138	0.905199
N113	N	0.649208	-0.216315	0.904374
C114	C	0.620449	-0.245050	0.880906
O115	O	0.595993	-0.269479	0.905160
C116	C	0.620425	-0.245086	0.693234
C117	C	0.649179	-0.216361	0.669783
C118	C	0.706687	-0.158905	0.669797
C119	C	0.706683	-0.158916	0.622882
C120	C	0.677927	-0.187650	0.599417
C121	C	0.649175	-0.216373	0.622868
C122	C	0.591663	-0.273819	0.669766
C123	C	0.591659	-0.273824	0.622845
C124	C	0.620414	-0.245100	0.599395
C125	C	0.620415	-0.245119	0.552487
N126	N	0.649164	-0.216393	0.529034
C127	C	0.677920	-0.187659	0.552499
C128	C	0.620464	-0.245030	0.979437
C129	C	0.620471	-0.245022	1.026354
C130	C	0.677979	-0.187560	1.026366
C131	C	0.677974	-0.187571	0.979448
C132	C	0.649214	-0.216304	0.955984
C133	C	0.677910	-0.187685	0.453973
C134	C	0.677904	-0.187701	0.407054
C135	C	0.620395	-0.245161	0.407046
C136	C	0.620402	-0.245147	0.453961
C137	C	0.649161	-0.216406	0.477424
O138	O	0.595982	-0.269553	0.528180
O139	O	0.702366	-0.163226	0.528237
C140	C	0.677939	-0.187616	0.740163
C141	C	0.649187	-0.216338	0.763614
C142	C	0.620431	-0.245072	0.740149
C143	C	0.649194	-0.216330	0.810532
C144	C	0.677950	-0.187596	0.833997
C145	C	0.706699	-0.158870	0.810544
C146	C	0.706695	-0.158881	0.763628
C147	C	0.591682	-0.273798	0.763602
C148	C	0.591689	-0.273785	0.810518
C149	C	0.620445	-0.245050	0.833983
H150	H	0.701220	-0.387423	0.164380
O151	O	0.563775	-0.599619	0.301828
C152	C	0.589323	-0.572431	0.330858
H153	H	0.624709	-0.586530	0.333667
H154	H	0.573052	-0.571903	0.365417
H155	H	0.590867	-0.536877	0.316966
O156	O	0.705867	-0.159657	1.049234
C157	C	0.699709	-0.165820	1.095672
H158	H	0.665031	-0.180540	1.102067
H159	H	0.702774	-0.132166	1.113510
H160	H	0.726343	-0.189736	1.108991
H161	H	0.596984	-0.268557	0.387932
H162	H	0.568233	-0.297218	0.603743
H163	H	0.597061	-0.268417	1.045444
H164	H	0.730115	-0.135475	0.829657
H165	H	-0.094224	-0.164396	0.268723
H166	H	0.568248	-0.297209	0.688852
O167	O	0.734559	-0.130941	0.692606
C168	C	0.709016	-0.101920	0.719754
H169	H	0.673630	-0.099148	0.705617
H170	H	0.725293	-0.067348	0.720283
H171	H	0.707469	-0.115798	0.755313
H172	H	0.596895	-0.387490	0.268532
O173	O	0.734666	-0.692023	0.131280
C174	C	0.763669	-0.719111	0.156902
H175	H	0.766375	-0.704962	0.192293
H176	H	0.798267	-0.719579	0.140714
H177	H	0.749817	-0.754696	0.158419
O178	O	0.705715	-0.476271	0.159866
C179	C	0.680174	-0.503446	0.130818
H180	H	0.646117	-0.510507	0.146625
H181	H	0.698492	-0.536420	0.124823
H182	H	0.675259	-0.485386	0.097516
H183	H	0.177102	-0.297168	0.135460
O184	O	0.734543	-0.130977	0.600062
C185	C	0.708976	-0.101956	0.572940
H186	H	0.674924	-0.117813	0.565894
H187	H	0.727277	-0.095920	0.539956
H188	H	0.704052	-0.068670	0.591040
O189	O	0.265826	-0.301714	0.130920
C190	C	0.235028	-0.327023	0.105510
H191	H	0.201589	-0.328604	0.123911
H192	H	0.248553	-0.362413	0.100651
H193	H	0.230041	-0.310519	0.071420
O194	O	-0.183074	-0.159950	0.273269
C195	C	-0.210215	-0.185571	0.302249
H196	H	-0.217270	-0.219596	0.286347
H197	H	-0.243194	-0.167284	0.308299
H198	H	-0.192128	-0.190551	0.335534
H199	H	0.568248	-0.688435	0.297278
H200	H	0.701427	-1.044940	0.164447
O201	O	0.734609	-0.599605	0.131181
C202	C	0.759984	-0.630362	0.105848
H203	H	0.761528	-0.663796	0.124256
H204	H	0.795383	-0.616776	0.101093
H205	H	0.743562	-0.635382	0.071711
H206	H	0.730118	-0.829092	0.135731
H207	H	0.568274	-0.297180	0.829607
O208	O	0.389312	-0.273016	0.159680
C209	C	0.420052	-0.298346	0.134285
H210	H	0.453511	-0.279944	0.132764
H211	H	0.406484	-0.303086	0.098880
H212	H	0.425019	-0.332491	0.150676
H213	H	0.568292	-0.829190	0.297284
O214	O	0.705869	-0.159830	0.476810
C215	C	0.734877	-0.185402	0.503943
H216	H	0.719005	-0.219444	0.510972
H217	H	0.740921	-0.167092	0.536935
H218	H	0.768161	-0.190347	0.485863
O219	O	0.592533	-0.956157	0.273039
C220	C	0.563519	-0.929068	0.247431
H221	H	0.579388	-0.922030	0.213402
H222	H	0.557471	-0.896077	0.265724
H223	H	0.530237	-0.947190	0.242459
H224	H	0.701321	-0.164310	0.387962
O225	O	0.389398	-0.159933	0.273276
C226	C	0.400884	-0.169818	0.318030
H227	H	0.413751	-0.205713	0.320227
H228	H	0.370042	-0.165981	0.340238
H229	H	0.428144	-0.145754	0.329814
O230	O	0.705918	-0.159623	0.956739
C231	C	0.731307	-0.134272	0.987517
H232	H	0.712910	-0.132713	1.020958
H233	H	0.736127	-0.098876	0.973970
H234	H	0.765414	-0.150724	0.992509
H235	H	-0.179451	-0.268497	0.164285
H236	H	0.568265	-0.297198	0.744502
H237	H	0.568268	-0.744084	0.297275
O238	O	0.592510	-0.272986	0.956716
C239	C	0.567132	-0.298327	0.987483
H240	H	0.585541	-0.299874	1.020927
H241	H	0.562306	-0.333726	0.973926
H242	H	0.533027	-0.281872	0.992474
O243	O	0.481809	-0.272956	0.159729
C244	C	0.528256	-0.266808	0.165909
H245	H	0.534689	-0.232162	0.180690
H246	H	0.546076	-0.269798	0.132253
H247	H	0.541559	-0.293494	0.189781
O248	O	0.173570	-0.131151	0.301943
C249	C	0.146432	-0.102098	0.276431
H250	H	0.160554	-0.099265	0.241050
H251	H	0.145937	-0.067551	0.292748
H252	H	0.110862	-0.115984	0.274867
O253	O	0.705962	-0.956196	0.159911
C254	C	0.731335	-0.986950	0.134573
H255	H	0.732883	-1.020385	0.152980
H256	H	0.766732	-0.973363	0.129812
H257	H	0.714907	-0.991971	0.100438
O258	O	0.266003	-0.131152	0.302012
C259	C	0.235257	-0.105842	0.327421
H260	H	0.201809	-0.104268	0.309022
H261	H	0.248835	-0.070450	0.332273
H262	H	0.230267	-0.122342	0.361513
H263	H	0.596991	-0.268541	0.473056
O264	O	0.481885	-0.159956	0.273254
C265	C	0.509021	-0.185576	0.302217
H266	H	0.494856	-0.220963	0.304927
H267	H	0.509574	-0.169379	0.336820
H268	H	0.544574	-0.187101	0.288324
O269	O	-0.090729	-0.273042	0.159735
C270	C	-0.121530	-0.298353	0.134331
H271	H	-0.154967	-0.299932	0.152736
H272	H	-0.108007	-0.333743	0.129473
H273	H	-0.126522	-0.281851	0.100241
O274	O	0.592567	-1.048623	0.273148
C275	C	0.567177	-1.017869	0.298469
H276	H	0.585571	-0.984405	0.300036
H277	H	0.562364	-1.031412	0.333863
H278	H	0.533068	-1.012920	0.281984
H279	H	0.036515	-0.135705	0.297486
H280	H	0.036347	-0.297170	0.135480
O281	O	0.592392	-0.476235	0.273097
C282	C	0.566998	-0.445485	0.298417
H283	H	0.585384	-0.412018	0.299981
H284	H	0.562188	-0.459027	0.333812
H285	H	0.532886	-0.440543	0.281933
O286	O	0.125257	-0.131151	0.302020
C287	C	0.094511	-0.105843	0.327431
H288	H	0.061063	-0.104265	0.309031
H289	H	0.108090	-0.070452	0.332288
H290	H	0.089518	-0.122346	0.361521
O291	O	0.125115	-0.301742	0.131001
C292	C	0.113604	-0.346529	0.140736
H293	H	0.100719	-0.348846	0.176623
H294	H	0.144436	-0.368724	0.136823
H295	H	0.086349	-0.358233	0.116633
O296	O	0.734589	-0.740332	0.131147
C297	C	0.724799	-0.751821	0.086364
H298	H	0.707535	-0.785903	0.085423
H299	H	0.757237	-0.753407	0.066252
H300	H	0.701709	-0.725444	0.071203
O301	O	0.734640	-0.130934	0.740921
C302	C	0.760026	-0.105581	0.771701
H303	H	0.741626	-0.104023	0.805141
H304	H	0.764846	-0.070186	0.758155
H305	H	0.794133	-0.122033	0.776696
