data_functionalizedCrystal
_audit_creation_method	'MofGen! by Chris Wilmer'
_symmetry_space_group_name_H-M	'P1'
_symmetry_Int_Tables_number	1
_symmetry_cell_setting	triclinic
loop_
_symmetry_equiv_pos_as_xyz
  x,y,z
_cell_length_a	17.699083
_cell_length_b	12.996460
_cell_length_c	17.699092
_cell_angle_alpha	90.004461
_cell_angle_beta	83.284691
_cell_angle_gamma	89.999557
loop_
_atom_site_label
_atom_site_type_symbol
_atom_site_fract_x
_atom_site_fract_y
_atom_site_fract_z
O1	O	1.004080	0.085419	0.095712
O2	O	1.337413	0.418752	0.429046
O3	O	1.670746	0.752085	0.762379
O4	O	0.783702	0.085452	0.108165
O5	O	1.117035	0.418785	0.441498
O6	O	1.450368	0.752119	0.774831
O7	O	0.900114	0.085432	-0.008250
O8	O	1.233447	0.418765	0.325083
O9	O	1.566780	0.752099	0.658416
O10	O	0.887668	0.085439	0.212127
O11	O	1.221001	0.418772	0.545461
O12	O	1.554334	0.752105	0.878794
O13	O	0.900102	-0.085702	-0.008257
O14	O	1.233435	0.247632	0.325077
O15	O	1.566768	0.580965	0.658410
O16	O	0.783690	-0.085682	0.108158
O17	O	1.117023	0.247652	0.441492
O18	O	1.450356	0.580985	0.774825
O19	O	1.004068	-0.085715	0.095706
O20	O	1.337401	0.247618	0.429039
O21	O	1.670734	0.580952	0.762373
Cu22	Cu	0.893877	-0.101324	0.101931
Cu23	Cu	1.227211	0.232009	0.435265
Cu24	Cu	1.560544	0.565342	0.768598
Cu25	Cu	0.893892	0.101061	0.101939
Cu26	Cu	1.227225	0.434395	0.435272
Cu27	Cu	1.560558	0.767728	0.768606
O28	O	0.887656	-0.085695	0.212121
O29	O	1.220989	0.247638	0.545454
O30	O	1.554322	0.580972	0.878787
C31	C	0.755499	-0.000111	0.107715
C32	C	1.088832	0.333223	0.441049
C33	C	1.422165	0.666556	0.774382
C34	C	0.671480	-0.000098	0.106377
C35	C	1.004814	0.333235	0.439710
C36	C	1.338147	0.666569	0.773043
C37	C	0.622862	-0.000096	0.174710
C38	C	0.956195	0.333237	0.508043
C39	C	1.289528	0.666571	0.841376
C40	C	0.543918	-0.000109	0.173448
C41	C	0.877251	0.333224	0.506781
C42	C	1.210585	0.666557	0.840114
C43	C	0.513595	-0.000117	0.103851
C44	C	0.846929	0.333216	0.437185
C45	C	1.180262	0.666549	0.770518
C46	C	0.562220	-0.000122	0.035513
C47	C	0.895554	0.333211	0.368846
C48	C	1.228887	0.666545	0.702180
C49	C	0.641162	-0.000116	0.036776
C50	C	0.974496	0.333217	0.370109
C51	C	1.307829	0.666551	0.703443
C52	C	0.243857	-0.000148	0.030418
C53	C	0.577191	0.333186	0.363751
C54	C	0.910524	0.666519	0.697084
C55	C	0.164909	-0.000151	0.029160
C56	C	0.498243	0.333183	0.362493
C57	C	0.831576	0.666516	0.695827
C58	C	0.146613	-0.000141	0.167089
C59	C	0.479946	0.333192	0.500423
C60	C	0.813280	0.666526	0.833756
C61	C	0.225555	-0.000135	0.168352
C62	C	0.558888	0.333198	0.501686
C63	C	0.892222	0.666532	0.835019
C64	C	0.274173	-0.000145	0.100014
C65	C	0.607507	0.333188	0.433348
C66	C	0.940840	0.666521	0.766681
C67	C	0.359772	-0.000133	0.101384
C68	C	0.693106	0.333201	0.434717
C69	C	1.026439	0.666534	0.768051
C70	C	0.427998	-0.000122	0.102481
C71	C	0.761331	0.333211	0.435814
C72	C	1.094664	0.666544	0.769148
N73	N	0.893873	-0.243671	0.101926
N74	N	1.227206	0.089662	0.435259
N75	N	1.560540	0.422995	0.768592
C76	C	0.893891	-0.663486	0.101940
C77	C	1.227224	-0.330152	0.435273
C78	C	1.560557	0.003181	0.768606
C79	C	0.893883	-0.546681	0.101938
C80	C	1.227217	-0.213347	0.435272
C81	C	1.560550	0.119986	0.768605
C82	C	0.893882	-0.453582	0.101933
C83	C	1.227216	-0.120249	0.435267
C84	C	1.560549	0.213084	0.768600
C85	C	0.893874	-0.336770	0.101931
C86	C	1.227208	-0.003436	0.435264
C87	C	1.560541	0.329897	0.768597
C88	C	1.032271	-0.000150	0.096155
C89	C	1.365604	0.333183	0.429489
C90	C	1.698937	0.666517	0.762822
C91	C	1.116289	-0.000156	0.097494
C92	C	1.449622	0.333177	0.430827
C93	C	1.782955	0.666511	0.764160
N94	N	0.893902	0.243408	0.101939
N95	N	1.227236	0.576742	0.435272
N96	N	1.560569	0.910075	0.768605
C97	C	0.899661	-0.000133	-0.036450
C98	C	1.232994	0.333200	0.296883
C99	C	1.566327	0.666534	0.630216
C100	C	0.898319	-0.000128	-0.120468
C101	C	1.231653	0.333205	0.212865
C102	C	1.564986	0.666538	0.546199
C103	C	0.897698	0.093158	-0.159932
C104	C	1.231031	0.426491	0.173401
C105	C	1.564364	0.759825	0.506735
C106	C	0.896433	0.093159	-0.238875
C107	C	1.229766	0.426493	0.094458
C108	C	1.563099	0.759826	0.427792
C109	C	0.895795	-0.000126	-0.278353
C110	C	1.229128	0.333207	0.054980
C111	C	1.562462	0.666540	0.388313
C112	C	0.896415	-0.093420	-0.238884
C113	C	1.229748	0.239913	0.094450
C114	C	1.563081	0.573247	0.427783
C115	C	0.897674	-0.093420	-0.159941
C116	C	1.231007	0.239913	0.173392
C117	C	1.564341	0.573246	0.506725
C118	C	0.891334	-0.093421	-0.557249
C119	C	1.224668	0.239913	-0.223915
C120	C	1.558001	0.573246	0.109418
C121	C	0.890077	-0.093413	-0.636197
C122	C	1.223410	0.239920	-0.302863
C123	C	1.556744	0.573253	0.030470
C124	C	0.890093	0.093159	-0.636182
C125	C	1.223426	0.426492	-0.302849
C126	C	1.556760	0.759826	0.030484
C127	C	0.891352	0.093159	-0.557240
C128	C	1.224686	0.426492	-0.223907
C129	C	1.558019	0.759825	0.109427
C130	C	0.891968	-0.000134	-0.517777
C131	C	1.225301	0.333199	-0.184443
C132	C	1.558635	0.666533	0.148890
C133	C	0.893338	-0.000134	-0.432178
C134	C	1.226671	0.333199	-0.098844
C135	C	1.560005	0.666532	0.234489
C136	C	0.894430	-0.000127	-0.363952
C137	C	1.227764	0.333206	-0.030618
C138	C	1.561097	0.666539	0.302715
C139	C	0.888109	-0.000128	0.240321
C140	C	1.221442	0.333206	0.573654
C141	C	1.554775	0.666539	0.906988
C142	C	0.889450	-0.000126	0.324339
C143	C	1.222783	0.333208	0.657672
C144	C	1.556116	0.666541	0.991005
H145	H	0.680748	-0.000117	-0.018868
H146	H	1.014081	0.333216	0.314465
H147	H	1.347414	0.666550	0.647799
H148	H	0.898170	-0.169384	-0.127809
H149	H	1.231503	0.163950	0.205524
H150	H	1.564836	0.497283	0.538857
Cl151	Cl	0.898505	0.210439	-0.110311
Cl152	Cl	1.231838	0.543772	0.223023
Cl153	Cl	1.565171	0.877106	0.556356
H154	H	0.283433	-0.000157	-0.025227
H155	H	0.616767	0.333177	0.308106
H156	H	0.950100	0.666510	0.641439
Cl157	Cl	0.482800	-0.000101	0.259356
Cl158	Cl	0.816133	0.333232	0.592690
Cl159	Cl	1.149467	0.666566	0.926023
Cl160	Cl	0.126791	-0.000161	-0.058339
Cl161	Cl	0.460124	0.333172	0.274994
Cl162	Cl	0.793457	0.666506	0.608327
H163	H	0.647544	-0.000089	0.231383
H164	H	0.980877	0.333244	0.564716
H165	H	1.314210	0.666578	0.898050
Cl166	Cl	0.263670	-0.000120	0.255848
Cl167	Cl	0.597004	0.333214	0.589181
Cl168	Cl	0.930337	0.666547	0.922515
H169	H	0.895930	0.169123	-0.271004
H170	H	1.229263	0.502456	0.062330
H171	H	1.562596	0.835789	0.395663
H172	H	0.889556	-0.169382	-0.668337
H173	H	1.222889	0.163951	-0.335004
H174	H	1.556222	0.497284	-0.001671
Cl175	Cl	0.892158	0.210437	-0.507615
Cl176	Cl	1.225491	0.543770	-0.174282
Cl177	Cl	1.558824	0.877104	0.159052
Cl178	Cl	0.889317	0.210444	-0.685798
Cl179	Cl	1.222650	0.543777	-0.352465
Cl180	Cl	1.555983	0.877110	-0.019131
H181	H	0.107018	-0.000138	0.222733
H182	H	0.440352	0.333195	0.556067
H183	H	0.773685	0.666528	0.889400
H184	H	0.537525	-0.000143	-0.021154
H185	H	0.870859	0.333190	0.312180
H186	H	1.204192	0.666524	0.645513
Cl187	Cl	0.892096	-0.210704	-0.507646
Cl188	Cl	1.225429	0.122630	-0.174313
Cl189	Cl	1.558763	0.455963	0.159020
Cl190	Cl	0.895604	-0.210695	-0.288512
Cl191	Cl	1.228937	0.122639	0.044821
Cl192	Cl	1.562270	0.455972	0.378154
