data_functionalizedCrystal
_audit_creation_method	'MofGen! by Chris Wilmer'
_symmetry_space_group_name_H-M	'P1'
_symmetry_Int_Tables_number	1
_symmetry_cell_setting	triclinic
loop_
_symmetry_equiv_pos_as_xyz
  x,y,z
_cell_length_a	10.654550
_cell_length_b	13.339070
_cell_length_c	9.130313
_cell_angle_alpha	89.997998
_cell_angle_beta	89.999724
_cell_angle_gamma	100.057112
loop_
_atom_site_label
_atom_site_type_symbol
_atom_site_fract_x
_atom_site_fract_y
_atom_site_fract_z
O1	O	1.715933	0.142435	-0.121681
O2	O	1.355037	0.156005	-0.121708
O3	O	1.494066	0.001665	-0.121693
O4	O	1.576904	0.296774	-0.121696
O5	O	1.494051	0.001661	0.121906
O6	O	1.355022	0.156000	0.121891
O7	O	1.715918	0.142430	0.121917
Cu8	Cu	1.535469	0.149215	0.144147
Cu9	Cu	1.535486	0.149220	-0.143937
O10	O	1.576889	0.296769	0.121903
C11	C	1.307895	0.155006	0.000088
C12	C	1.167445	0.152025	0.000078
C13	C	1.118643	0.242897	0.000082
C14	C	0.986674	0.240090	0.000107
C15	C	0.952320	0.055530	0.000120
C16	C	1.084286	0.058338	0.000105
C17	C	1.480065	-0.036124	0.000103
C18	C	1.438355	-0.148719	0.000094
C19	C	1.762670	-0.511236	0.000119
C20	C	1.801862	-0.405448	0.000135
C21	C	1.710989	-0.341261	0.000124
C22	C	1.580916	-0.382871	0.000098
C23	C	1.541720	-0.488669	0.000093
C24	C	1.490039	-0.318694	0.000099
C25	C	1.359966	-0.360304	0.000073
C26	C	1.320776	-0.466092	0.000066
C27	C	1.411650	-0.530280	0.000077
C28	C	1.529235	-0.212896	0.000104
C29	C	1.308285	-0.190329	0.000078
C30	C	1.269093	-0.296117	0.000062
C31	C	1.763060	0.143429	0.000118
C32	C	1.903510	0.146410	0.000119
C33	C	1.590890	0.334559	0.000103
C34	C	1.632600	0.447153	0.000103
N35	N	1.535465	0.149210	0.346770
N36	N	1.535497	0.149216	-0.346560
C37	C	1.597066	0.080898	0.423428
C38	C	1.597078	0.080898	0.576765
C39	C	1.473888	0.217532	0.576771
C40	C	1.473869	0.217526	0.423437
H41	H	0.946947	0.314088	0.000113
H42	H	0.884597	-0.020746	0.000150
O43	O	1.928153	-0.364863	0.000213
C44	C	2.086455	-0.211888	0.000135
C45	C	1.943382	-0.257716	0.000088
H46	H	2.098814	-0.125254	0.000003
H47	H	2.133266	-0.238184	0.102106
H48	H	2.133208	-0.238310	-0.101786
H49	H	1.896519	-0.231315	0.101939
H50	H	1.896665	-0.231425	-0.101951
O51	O	1.657029	0.014504	0.651003
C52	C	1.779154	-0.121057	0.634804
C53	C	1.711334	-0.045899	0.550549
H54	H	1.823054	-0.169927	0.553624
H55	H	1.857377	-0.076851	0.706539
H56	H	1.707148	-0.172083	0.706643
H57	H	1.783243	0.005145	0.478631
H58	H	1.633089	-0.090169	0.478906
H59	H	1.423700	0.273155	0.361018
O60	O	1.748998	-0.238493	0.000399
C61	C	1.744555	-0.080483	0.126561
C62	C	1.701437	-0.196864	0.126453
H63	H	1.706098	-0.046789	0.228448
H64	H	1.853127	-0.061714	0.126676
H65	H	1.706286	-0.046780	0.024562
H66	H	1.739616	-0.230648	0.228434
H67	H	1.592862	-0.215562	0.126261
H68	H	1.836644	-0.563506	0.000139
O69	O	1.413854	0.283791	0.651188
C70	C	1.215648	0.341608	0.698073
C71	C	1.283471	0.266494	0.613734
H72	H	1.110228	0.327663	0.667799
H73	H	1.226137	0.329878	0.820850
H74	H	1.260404	0.422948	0.667929
H75	H	1.238762	0.185124	0.643755
H76	H	1.272991	0.278313	0.490977
H77	H	1.647220	0.025270	0.361008
H78	H	1.124020	-0.015666	0.000106
H79	H	1.635141	-0.179028	0.000126
H80	H	1.379745	-0.616422	0.000058
O81	O	1.194411	-0.506464	-0.000207
C82	C	0.993573	-0.519484	-0.126385
C83	C	1.136664	-0.473720	-0.126276
H84	H	0.946837	-0.493011	-0.228285
H85	H	0.981089	-0.606125	-0.126479
H86	H	0.946840	-0.493137	-0.024398
H87	H	1.183490	-0.499987	-0.228245
H88	H	1.149057	-0.387083	-0.126105
H89	H	1.186348	0.319183	0.000071
H90	H	1.163185	-0.330011	0.000041
H91	H	1.234288	-0.138067	0.000077
