data_functionalizedCrystal
_audit_creation_method	'MofGen! by Chris Wilmer'
_symmetry_space_group_name_H-M	'P1'
_symmetry_Int_Tables_number	1
_symmetry_cell_setting	triclinic
loop_
_symmetry_equiv_pos_as_xyz
  x,y,z
_cell_length_a	19.288864
_cell_length_b	16.098524
_cell_length_c	19.288865
_cell_angle_alpha	93.078255
_cell_angle_beta	83.136245
_cell_angle_gamma	93.086928
loop_
_atom_site_label
_atom_site_type_symbol
_atom_site_fract_x
_atom_site_fract_y
_atom_site_fract_z
O1	O	0.924123	0.069534	0.089422
O2	O	0.721860	0.069479	0.101109
O3	O	0.828836	0.069492	-0.005865
O4	O	0.817148	0.069521	0.196397
O5	O	0.823298	-0.069024	-0.011396
O6	O	0.716323	-0.069037	0.095578
O7	O	0.918586	-0.068981	0.083892
Zn8	Zn	0.816576	-0.091002	0.088857
Zn9	Zn	0.823871	0.091499	0.096144
O10	O	0.811611	-0.068994	0.190866
C11	C	0.693215	0.000213	0.097967
C12	C	0.616111	0.000192	0.096837
N13	N	0.811602	-0.215553	0.083884
C14	C	0.571415	0.000214	0.159606
C15	C	0.498969	0.000223	0.158546
C16	C	0.471221	0.000226	0.094714
C17	C	0.515926	0.000199	0.031937
C18	C	0.588371	0.000182	0.032998
C19	C	0.364900	0.048775	0.046473
C20	C	0.292456	0.048798	0.045414
C21	C	0.247778	0.000276	0.091436
C22	C	0.275550	-0.048257	0.138529
C23	C	0.347995	-0.048274	0.139591
C24	C	0.392668	0.000245	0.093555
C25	C	0.124527	0.000307	0.153059
C26	C	0.052079	0.000311	0.151996
C27	C	0.069038	0.000296	0.025386
C28	C	0.141484	0.000284	0.026450
C29	C	0.169224	0.000293	0.090289
C30	C	0.851855	-0.259117	0.124166
C31	C	0.848385	-0.346308	0.120682
C32	C	0.804657	-0.389934	0.076919
C33	C	0.764402	-0.346364	0.036632
C34	C	0.767877	-0.259175	0.040112
C35	C	0.792070	-0.653190	0.064305
C36	C	0.788597	-0.740386	0.060829
C37	C	0.872581	-0.740324	0.144879
C38	C	0.876048	-0.653133	0.148359
C39	C	0.835796	-0.609571	0.108069
C40	C	0.801108	-0.479057	0.073359
C41	C	0.839350	-0.520449	0.111626
C42	C	0.947232	0.000286	0.087034
C43	C	1.024336	0.000313	0.088164
C44	C	0.825691	0.000231	-0.034507
C45	C	0.824562	0.000224	-0.111611
N46	N	0.828850	0.216051	0.101112
C47	C	0.887330	0.000237	-0.156307
C48	C	0.886270	0.000250	-0.228753
C49	C	0.822437	0.000233	-0.256502
C50	C	0.759660	0.000224	-0.211796
C51	C	0.760723	0.000220	-0.139351
C52	C	0.770317	-0.048300	-0.366727
C53	C	0.769257	-0.048301	-0.439171
C54	C	0.819158	0.000250	-0.479946
C55	C	0.870130	0.048791	-0.448270
C56	C	0.871192	0.048787	-0.375825
C57	C	0.821278	0.000238	-0.335055
C58	C	0.880781	0.000279	-0.603198
C59	C	0.879719	0.000297	-0.675645
C60	C	0.753107	0.000263	-0.658686
C61	C	0.754172	0.000253	-0.586240
C62	C	0.818011	0.000257	-0.558501
C63	C	0.814756	0.000268	0.219508
C64	C	0.815885	0.000281	0.296612
H65	H	0.593996	0.000223	0.211589
Br66	Br	0.741760	-0.538270	0.013972
H67	H	0.874955	-0.484925	0.147255
Br68	Br	0.967417	0.000276	-0.565547
H69	H	0.370604	-0.087795	0.177934
Br70	Br	0.973969	0.000265	-0.118662
Br71	Br	0.254771	0.114675	-0.018488
Br72	Br	0.666475	0.000248	-0.696336
Br73	Br	0.713255	-0.200051	-0.014569
Br74	Br	0.202147	0.000255	-0.058741
H75	H	0.401273	0.088292	0.008995
H76	H	0.937385	0.000264	-0.265151
H77	H	0.911658	-0.617618	0.183993
H78	H	0.493330	0.000213	-0.020036
H79	H	0.462570	0.000239	0.209661
H80	H	0.703059	0.000238	-0.549848
H81	H	0.727750	-0.087821	-0.464956
Br82	Br	0.927206	-0.799447	0.199555
Br83	Br	0.940361	0.114665	-0.332836
H84	H	0.910764	0.088327	-0.481468
Br85	Br	0.964913	0.000324	-0.736306
H86	H	0.709607	0.000209	-0.102958
Br87	Br	0.911200	-0.199919	0.183565
H88	H	0.729680	-0.087841	-0.333533
H89	H	0.239174	-0.087769	0.176005
Br90	Br	0.162178	0.000314	0.239695
Br91	Br	0.649033	0.000150	-0.052195
H92	H	0.707687	0.000212	-0.234393
Br93	Br	0.903018	-0.405427	0.175354
Br94	Br	0.729247	-0.799592	0.001433
Br95	Br	0.031389	0.000287	-0.061246
Br96	Br	0.705060	-0.405569	-0.022765
H97	H	0.759294	-0.617733	0.031497
H98	H	0.015687	0.000324	0.203112
