data_functionalizedCrystal
_audit_creation_method	'MofGen! by Chris Wilmer'
_symmetry_space_group_name_H-M	'P1'
_symmetry_Int_Tables_number	1
_symmetry_cell_setting	triclinic
loop_
_symmetry_equiv_pos_as_xyz
  x,y,z
_cell_length_a	6.817900
_cell_length_b	19.551823
_cell_length_c	10.992410
_cell_angle_alpha	94.485119
_cell_angle_beta	108.764651
_cell_angle_gamma	101.663376
loop_
_atom_site_label
_atom_site_type_symbol
_atom_site_fract_x
_atom_site_fract_y
_atom_site_fract_z
V1	V	-4.078420	-0.096675	-0.401194
O2	O	-4.074098	0.004646	-0.392939
O3	O	-4.020787	-0.191690	-0.399044
O4	O	-4.056564	-0.095188	-0.575897
O5	O	-4.038073	-0.092525	-0.214862
V6	V	-4.559806	-0.084556	-0.378835
O7	O	-4.344369	-0.123259	-0.450240
O8	O	-4.744055	-0.057972	-0.329788
O9	O	-4.394233	0.010459	-0.380984
O10	O	-4.681525	-0.185876	-0.387090
O11	O	-4.717550	-0.088706	-0.565167
O12	O	-4.358456	-0.086043	-0.204132
C13	C	-3.862682	-0.214853	-0.392869
C14	C	-3.897024	-0.292529	-0.392276
C15	C	-4.095899	-0.332575	-0.398422
C16	C	-4.128173	-0.405561	-0.397879
C17	C	-3.961548	-0.438496	-0.391162
C18	C	-3.762648	-0.398442	-0.385022
C19	C	-3.730386	-0.325458	-0.385579
C20	C	-3.835941	-0.544984	-0.309690
C21	C	-3.868206	-0.617965	-0.309125
C22	C	-4.061050	-0.663602	-0.389449
C23	C	-4.221650	-0.636247	-0.470323
C24	C	-4.189388	-0.563263	-0.470880
C25	C	-3.996510	-0.517634	-0.390558
C26	C	-4.294934	-0.782788	-0.395008
C27	C	-4.327205	-0.855776	-0.394472
C28	C	-3.961667	-0.848654	-0.381602
C29	C	-3.929408	-0.775669	-0.382152
C30	C	-4.096046	-0.742740	-0.388849
C31	C	-3.908318	-0.091754	-0.618460
C32	C	-3.971670	-0.091166	-0.761285
C33	C	-3.840776	-0.085817	-0.956375
C34	C	-3.774892	-0.086717	-0.807897
C35	C	-4.144154	-0.160061	-0.838817
C36	C	-4.208693	-0.159452	-0.987380
C37	C	-4.135899	-0.026047	-0.948519
C38	C	-4.065311	-0.025720	-0.799504
C39	C	-4.215678	0.033618	-0.387156
C40	C	-4.160576	0.111294	-0.387757
C41	C	-4.170042	-0.089479	-0.161562
C42	C	-4.085929	-0.090063	-0.018736
H43	H	-3.568436	-0.292853	-0.380575
H44	H	-3.678891	-0.507832	-0.244285
H45	H	-4.052374	0.026270	-0.968552
H46	H	-3.626984	-0.425262	-0.379556
H47	H	-3.826001	-0.875470	-0.376141
Br48	Br	-4.037883	-0.241053	-0.796646
Br49	Br	-3.676211	-0.002604	-0.986995
H50	H	-4.207724	-0.024911	-0.766987
Br51	Br	-4.152823	-0.240242	-1.065010
H52	H	-4.290126	-0.438172	-0.402883
Br53	Br	-3.858025	0.059229	-0.711723
Br54	Br	-4.521089	-0.738096	-0.404124
H55	H	-3.798792	-0.131813	-1.004653
Br56	Br	-4.483386	-0.698173	-0.579336
H57	H	-3.644796	-0.037179	-0.754249
Br58	Br	-3.650794	-0.164449	-0.767010
Br59	Br	-4.597138	-0.910127	-0.402829
Br60	Br	-4.407326	-0.526140	-0.580637
H61	H	-4.313955	-0.028551	-0.989375
H62	H	-4.292401	-0.165805	-0.810050
Br63	Br	-4.322038	-0.287886	-0.407486
Br64	Br	-3.659487	-0.721316	-0.373802
Br65	Br	-4.508328	-0.169420	-1.058500
H66	H	-3.737440	-0.640231	-0.243265
