data_functionalizedCrystal
_audit_creation_method	'MofGen! by Chris Wilmer'
_symmetry_space_group_name_H-M	'P1'
_symmetry_Int_Tables_number	1
_symmetry_cell_setting	triclinic
loop_
_symmetry_equiv_pos_as_xyz
  x,y,z
_cell_length_a	6.817900
_cell_length_b	16.305597
_cell_length_c	10.943624
_cell_angle_alpha	93.792899
_cell_angle_beta	108.838799
_cell_angle_gamma	103.455834
loop_
_atom_site_label
_atom_site_type_symbol
_atom_site_fract_x
_atom_site_fract_y
_atom_site_fract_z
V1	V	-4.088114	-0.116694	-0.402994
O2	O	-4.074525	0.005630	-0.394867
O3	O	-4.039148	-0.231407	-0.400676
O4	O	-4.066500	-0.114889	-0.578553
O5	O	-4.046984	-0.111694	-0.215758
V6	V	-4.568344	-0.102064	-0.380546
O7	O	-4.356595	-0.148787	-0.452236
O8	O	-4.750061	-0.069971	-0.331304
O9	O	-4.394104	0.012649	-0.382864
O10	O	-4.699330	-0.224388	-0.388673
O11	O	-4.726871	-0.107064	-0.567782
O12	O	-4.366752	-0.103869	-0.204986
C13	C	-3.883145	-0.259371	-0.394431
C14	C	-3.924575	-0.353150	-0.393706
C15	C	-4.075307	-0.693909	-0.391134
C16	C	-3.838504	-0.653078	-0.384083
C17	C	-3.795003	-0.555480	-0.384326
C18	C	-4.000526	-0.524854	-0.392411
C19	C	-4.065013	-0.550229	-0.272111
C20	C	-4.106682	-0.647761	-0.271221
C21	C	-4.232848	-0.673080	-0.518137
C22	C	-4.186359	-0.575567	-0.520365
C23	C	-3.958272	-0.429312	-0.393128
C24	C	-4.117563	-0.789450	-0.390407
C25	C	-3.918033	-0.110741	-0.621330
C26	C	-3.981641	-0.110024	-0.764854
C27	C	-3.827604	-0.105197	-0.841983
C28	C	-4.000152	-0.176838	-0.948245
C29	C	-3.922456	-0.037114	-0.914328
C30	C	-4.153385	-0.181732	-0.869240
C31	C	-4.075623	-0.041944	-0.835299
C32	C	-4.248303	-0.113606	-0.941531
C33	C	-4.213449	0.040609	-0.389104
C34	C	-4.151258	0.134387	-0.389838
C35	C	-4.178559	-0.108020	-0.162202
C36	C	-4.094190	-0.108732	-0.018677
H37	H	-4.406466	-0.700077	-0.524558
C38	C	-3.586622	-0.100519	-0.783252
H39	H	-3.514476	-0.050590	-0.720049
H40	H	-3.569854	-0.149465	-0.742815
H41	H	-3.526859	-0.098603	-0.850664
H42	H	-4.141176	-0.559872	-0.609380
C43	C	-4.284454	-0.264393	-0.841810
H44	H	-4.242886	-0.264369	-0.750163
H45	H	-4.433400	-0.267560	-0.876787
H46	H	-4.257890	-0.312249	-0.881542
C47	C	-3.791405	0.045461	-0.941989
H48	H	-3.642543	0.048345	-0.907736
H49	H	-3.833981	0.045590	-1.033618
H50	H	-3.816809	0.093393	-0.901645
H51	H	-3.719393	-0.666583	-0.292486
H52	H	-3.968909	-0.233867	-0.997410
C53	C	-4.394954	-0.548784	-0.538427
H54	H	-4.371339	-0.506138	-0.467849
H55	H	-4.436184	-0.526726	-0.618298
H56	H	-4.506029	-0.596970	-0.540245
H57	H	-3.654094	-0.521052	-0.292464
H58	H	-4.106782	0.015087	-0.786099
C59	C	-3.723337	-0.532614	-0.500441
H60	H	-3.720599	-0.583026	-0.547885
H61	H	-3.821595	-0.506656	-0.556195
H62	H	-3.583563	-0.494062	-0.468868
C63	C	-3.794315	-0.694248	-0.499734
H64	H	-3.919877	-0.736712	-0.553353
H65	H	-3.756441	-0.651763	-0.549614
H66	H	-3.679379	-0.719690	-0.467578
C67	C	-4.489402	-0.118430	-0.999985
H68	H	-4.571555	-0.169816	-0.984906
H69	H	-4.516868	-0.070993	-0.959799
H70	H	-4.528531	-0.117478	-1.091333
C71	C	-4.336312	-0.684031	-0.271082
H72	H	-4.363310	-0.743829	-0.270538
H73	H	-4.350121	-0.657436	-0.195530
H74	H	-4.437171	-0.673212	-0.347101
H75	H	-3.993018	-0.659266	-0.175669
C76	C	-4.267962	-0.523419	-0.273874
H77	H	-4.304113	-0.539373	-0.200309
H78	H	-4.241069	-0.463335	-0.270661
H79	H	-4.383936	-0.551030	-0.351744
C80	C	-3.885952	-0.502137	-0.144149
H81	H	-3.771783	-0.466578	-0.163772
H82	H	-3.942152	-0.468084	-0.097594
H83	H	-3.833413	-0.542087	-0.092147
C84	C	-4.214312	-0.716957	-0.641383
H85	H	-4.110315	-0.748396	-0.616531
H86	H	-4.349806	-0.754575	-0.693043
H87	H	-4.171297	-0.674950	-0.690594
