data_functionalizedCrystal
_audit_creation_method	'MofGen! by Chris Wilmer'
_symmetry_space_group_name_H-M	'P1'
_symmetry_Int_Tables_number	1
_symmetry_cell_setting	triclinic
loop_
_symmetry_equiv_pos_as_xyz
  x,y,z
_cell_length_a	16.625548
_cell_length_b	21.295417
_cell_length_c	16.625539
_cell_angle_alpha	90.033373
_cell_angle_beta	90.020568
_cell_angle_gamma	90.031575
loop_
_atom_site_label
_atom_site_type_symbol
_atom_site_fract_x
_atom_site_fract_y
_atom_site_fract_z
Zn1	Zn	1.232635	-0.250590	0.455881
Zn2	Zn	1.232520	-0.355864	0.321036
Zn3	Zn	1.097797	-0.250614	0.321061
Zn4	Zn	1.097749	-0.355827	0.455826
O5	O	1.165175	-0.303224	0.388451
O6	O	1.345452	-0.264560	0.438006
O7	O	1.214620	-0.341927	0.208207
O8	O	1.115753	-0.162522	0.338979
O9	O	1.345367	-0.341904	0.338936
O10	O	1.214818	-0.162504	0.438030
O11	O	1.115640	-0.264601	0.208226
O12	O	0.984958	-0.264566	0.338926
O13	O	1.115670	-0.341842	0.568666
O14	O	0.984923	-0.341866	0.437937
O15	O	1.214771	-0.264525	0.568706
O16	O	1.214573	-0.443948	0.338883
O17	O	1.115558	-0.443922	0.437912
C18	C	0.955684	-0.303215	0.388429
C19	C	0.866063	-0.303226	0.388438
C20	C	0.537888	-0.303230	0.388473
C21	C	0.629196	-0.303227	0.388460
C22	C	0.701973	-0.303229	0.388455
C23	C	0.793287	-0.303225	0.388444
C24	C	1.165070	-0.466775	0.388407
C25	C	1.165098	-0.536744	0.388414
C26	C	1.216701	-0.569603	0.336903
C27	C	1.216739	-0.635346	0.336921
C28	C	1.165159	-0.668226	0.388442
C29	C	1.113552	-0.635359	0.439964
C30	C	1.113522	-0.569617	0.439950
N31	N	1.094624	-0.771493	0.394581
N32	N	1.094656	-0.833944	0.394590
C33	C	1.165250	-0.866301	0.388488
N34	N	1.235813	-0.833847	0.382362
N35	N	1.235780	-0.771389	0.382350
C36	C	1.165187	-0.739511	0.388463
C37	C	1.216898	-0.970446	0.336994
C38	C	1.216937	-1.036189	0.337017
C39	C	1.113743	-1.036201	0.440056
C40	C	1.113711	-0.970459	0.440037
C41	C	1.165288	-0.937585	0.388501
C42	C	1.375484	-0.303233	0.388474
C43	C	1.465105	-0.303237	0.388484
C44	C	1.165228	-0.303177	0.598760
C45	C	1.165250	-0.303157	0.688381
C46	C	1.165303	-0.139033	0.388514
C47	C	1.165358	-0.069065	0.388540
C48	C	1.165169	-0.303225	0.178960
C49	C	1.165303	-0.303068	0.089340
C50	C	1.165287	-0.303086	1.016557
C51	C	1.165275	-0.303108	0.925249
C52	C	1.165269	-0.303122	0.852472
C53	C	1.165256	-0.303143	0.761158
H54	H	1.258700	-0.542839	0.294941
O55	O	1.272548	-0.934992	0.281427
H56	H	1.313527	-0.904991	0.317559
O57	O	1.057918	-0.670817	0.495536
H58	H	0.994640	-0.658244	0.481651
H59	H	1.258964	-1.062943	0.295072
O60	O	1.058104	-1.071654	0.495625
H61	H	1.066790	-1.122889	0.486978
O62	O	1.272392	-0.670800	0.281353
H63	H	1.308246	-0.636896	0.245511
O64	O	1.057860	-0.534168	0.495507
H65	H	1.016850	-0.504266	0.459369
H66	H	1.071688	-0.943703	0.481979
