data_functionalizedCrystal
_audit_creation_method	'MofGen! by Chris Wilmer'
_symmetry_space_group_name_H-M	'P1'
_symmetry_Int_Tables_number	1
_symmetry_cell_setting	triclinic
loop_
_symmetry_equiv_pos_as_xyz
  x,y,z
_cell_length_a	10.723024
_cell_length_b	23.532407
_cell_length_c	9.798715
_cell_angle_alpha	89.992208
_cell_angle_beta	89.996609
_cell_angle_gamma	83.658273
loop_
_atom_site_label
_atom_site_type_symbol
_atom_site_fract_x
_atom_site_fract_y
_atom_site_fract_z
O1	O	1.654699	0.079871	-0.113498
O2	O	1.291309	0.087516	-0.113504
O3	O	1.483962	0.000833	-0.113476
O4	O	1.462046	0.166554	-0.113526
O5	O	1.483948	0.000833	0.113507
O6	O	1.291294	0.087516	0.113478
O7	O	1.654685	0.079871	0.113484
Zn8	Zn	1.472987	0.083693	0.149520
Zn9	Zn	1.473006	0.083693	-0.149539
O10	O	1.462032	0.166554	0.113456
C11	C	1.244819	0.086960	-0.000013
C12	C	1.106317	0.085295	-0.000014
C13	C	1.029823	0.133798	-0.000030
C14	C	0.886673	0.132079	-0.000031
C15	C	1.483397	-0.020387	0.000019
C16	C	1.481719	-0.083615	0.000029
C17	C	1.585203	-0.482046	-0.000044
C18	C	1.583644	-0.541457	-0.000054
O19	O	1.679575	-0.577579	-0.000103
N20	N	1.469112	-0.564826	-0.000055
C21	C	1.356131	-0.528782	-0.000059
O22	O	1.258569	-0.554114	-0.000062
C23	C	1.357691	-0.469373	-0.000059
C24	C	1.472230	-0.446007	-0.000044
C25	C	1.699733	-0.458680	-0.000030
C26	C	1.701291	-0.399274	-0.000017
C27	C	1.588319	-0.363234	-0.000018
C28	C	1.473789	-0.386600	-0.000031
C29	C	1.244711	-0.433329	-0.000073
C30	C	1.246281	-0.373917	-0.000073
C31	C	1.360821	-0.350551	-0.000059
C32	C	1.362374	-0.291154	-0.000018
N33	N	1.476907	-0.267785	-0.000018
C34	C	1.589879	-0.303825	-0.000017
C35	C	1.352863	-0.653545	-0.000063
C36	C	1.351302	-0.712953	-0.000054
C37	C	1.578816	-0.725625	-0.000051
C38	C	1.580376	-0.666215	-0.000051
C39	C	1.467395	-0.630176	-0.000062
C40	C	1.593143	-0.179067	0.000011
C41	C	1.594691	-0.119655	0.000030
C42	C	1.367178	-0.106989	0.000020
C43	C	1.365629	-0.166396	0.000008
C44	C	1.478622	-0.202434	-0.000001
O45	O	1.266494	-0.254997	0.000025
O46	O	1.687425	-0.278484	-0.000032
C47	C	1.701174	0.080427	-0.000009
C48	C	1.839677	0.082092	-0.000017
C49	C	1.462597	0.187774	-0.000041
C50	C	1.464275	0.251001	-0.000061
N51	N	1.472984	0.083693	0.353619
N52	N	1.473020	0.083689	-0.353639
C53	C	1.553878	0.047136	0.421408
C54	C	1.553899	0.047134	0.578571
H55	H	1.065828	0.042497	-0.000036
C56	C	0.928445	0.025992	-0.000006
H57	H	0.880390	-0.005592	-0.000008
H58	H	0.979854	0.024475	0.079144
H59	H	0.979851	0.024479	-0.079173
H60	H	0.820947	0.173602	-0.000050
C61	C	1.647465	0.004851	0.657308
H62	H	1.698209	-0.018080	0.594389
H63	H	1.602677	-0.018955	0.713069
H64	H	1.699254	0.025507	0.713028
C65	C	1.720689	-0.093956	0.000038
H66	H	1.787745	-0.123932	0.000021
H67	H	1.726029	-0.071050	0.079195
H68	H	1.726031	-0.071038	-0.079123
C69	C	1.717431	-0.218700	0.000013
H70	H	1.785856	-0.196268	0.000035
H71	H	1.721575	-0.242135	-0.079141
H72	H	1.721548	-0.242143	0.079176
C73	C	1.118715	-0.459019	-0.000101
H74	H	1.051668	-0.429039	-0.000119
H75	H	1.113349	-0.481937	0.079045
H76	H	1.113385	-0.481922	-0.079272
H77	H	1.794561	-0.380255	-0.000011
C78	C	1.239640	-0.192100	-0.000011
H79	H	1.172582	-0.162125	-0.000018
H80	H	1.234284	-0.215024	0.079127
H81	H	1.234317	-0.214999	-0.079191
H82	H	1.623117	0.015838	0.363096
H83	H	1.403763	0.114991	0.588075
H84	H	1.403737	0.114986	0.411934
H85	H	1.791734	-0.488018	-0.000035
C86	C	1.084507	0.191617	-0.000049
H87	H	1.173546	0.185188	-0.000056
H88	H	1.056855	0.212668	0.079095
H89	H	1.056868	0.212664	-0.079223
H90	H	1.275199	-0.077635	0.000024
C91	C	1.703088	-0.765273	-0.000061
H92	H	1.771531	-0.742852	-0.000048
H93	H	1.707204	-0.788707	-0.079217
H94	H	1.707198	-0.788718	0.079100
H95	H	1.673644	-0.647195	-0.000040
H96	H	1.258032	-0.731972	-0.000042
H97	H	1.260855	-0.624205	-0.000061
C98	C	1.121999	-0.334276	-0.000081
H99	H	1.053569	-0.356705	-0.000080
H100	H	1.117882	-0.310830	-0.079229
H101	H	1.117867	-0.310845	0.079088
