data_functionalizedCrystal
_audit_creation_method	'MofGen! by Chris Wilmer'
_symmetry_space_group_name_H-M	'P1'
_symmetry_Int_Tables_number	1
_symmetry_cell_setting	triclinic
loop_
_symmetry_equiv_pos_as_xyz
  x,y,z
_cell_length_a	16.992694
_cell_length_b	15.538191
_cell_length_c	16.053802
_cell_angle_alpha	91.543625
_cell_angle_beta	87.249047
_cell_angle_gamma	68.970158
loop_
_atom_site_label
_atom_site_type_symbol
_atom_site_fract_x
_atom_site_fract_y
_atom_site_fract_z
O1	O	0.989072	0.191921	-0.069317
O2	O	0.761399	0.189774	-0.069342
O3	O	0.919554	0.057054	-0.069328
O4	O	0.830917	0.324641	-0.069330
O5	O	0.910858	0.064328	0.069530
O6	O	0.752703	0.197047	0.069517
O7	O	0.980376	0.199194	0.069541
Zn8	Zn	0.865158	0.199275	0.091576
Zn9	Zn	0.876616	0.189693	-0.091376
O10	O	0.822220	0.331914	0.069528
C11	C	0.728624	0.190651	0.000084
C12	C	0.643924	0.182415	0.000075
C13	C	0.571070	0.261869	0.000075
C14	C	0.491487	0.254127	0.000086
C15	C	0.484759	0.166930	0.000092
C16	C	0.557620	0.087471	0.000094
C17	C	0.637202	0.095214	0.000089
C18	C	0.250294	0.134837	0.000114
C19	C	0.170704	0.127099	0.000117
C20	C	0.104576	0.293756	0.000111
C21	C	0.184163	0.301491	0.000101
C22	C	0.257017	0.222032	0.000107
N23	N	0.403412	0.159014	0.000101
N24	N	0.338361	0.229949	0.000104
C25	C	0.924480	0.026294	0.000099
C26	C	0.952104	-0.076201	0.000094
C27	C	0.677671	-0.384652	0.000082
C28	C	0.703646	-0.480962	0.000086
C29	C	0.849754	-0.492405	0.000102
C30	C	0.823791	-0.396094	0.000093
C31	C	0.737748	-0.342225	0.000084
C32	C	0.883869	-0.353667	0.000095
C33	C	0.857907	-0.257364	0.000091
C34	C	0.771868	-0.203488	0.000084
C35	C	0.711787	-0.245922	0.000080
C36	C	0.969911	-0.407537	0.000110
C37	C	1.029988	-0.365110	0.000113
C38	C	1.004027	-0.268806	0.000102
C39	C	0.917988	-0.214931	0.000096
C40	C	1.064108	-0.226373	0.000107
C41	C	1.038147	-0.130070	0.000103
C42	C	0.892026	-0.118628	0.000091
C43	C	1.013151	0.198317	0.000114
C44	C	1.097851	0.206552	0.000118
C45	C	0.817295	0.362675	0.000099
C46	C	0.789671	0.465169	0.000099
N47	N	0.857345	0.205815	0.216435
N48	N	0.884438	0.183146	-0.216236
C49	C	0.924652	0.149366	0.260135
C50	C	0.919191	0.153950	0.347541
C51	C	0.846424	0.214988	0.391246
C52	C	0.779111	0.271440	0.347541
C53	C	0.784570	0.266851	0.260136
C54	C	0.822584	0.235009	0.652654
C55	C	0.817130	0.239596	0.740065
C56	C	0.957211	0.122103	0.740059
C57	C	0.962666	0.117523	0.652653
C58	C	0.895351	0.173972	0.608955
N59	N	0.840841	0.219677	0.480590
N60	N	0.900932	0.169277	0.519613
H61	H	0.045252	0.358446	0.000107
O62	O	1.041153	0.051701	0.605508
H63	H	1.024098	0.002337	0.565683
O64	O	1.029809	0.061213	0.787188
H65	H	1.013789	0.074650	0.855309
O66	O	1.122787	-0.423219	0.000125
H67	H	1.160201	-0.377535	0.000131
H68	H	0.696521	0.030514	0.000088
H69	H	0.719859	0.321136	0.383130
O70	O	0.799221	-0.060519	0.000083
H71	H	0.787443	-0.019340	-0.056517
O72	O	0.711963	0.327723	0.213003
H73	H	0.727977	0.314266	0.144883
O74	O	0.743854	-0.099617	0.000083
H75	H	0.772081	-0.079655	-0.056515
H76	H	0.757871	0.289305	0.775646
O77	O	1.156908	-0.284477	0.000131
H78	H	1.175784	-0.331598	-0.056461
O79	O	0.550362	-0.006577	0.000105
H80	H	0.614394	-0.060524	0.000114
O81	O	0.578318	0.355921	0.000068
H82	H	0.645896	0.347960	0.000056
H83	H	0.189632	0.372495	0.000086
O84	O	0.412906	0.339822	0.000087
H85	H	0.430955	0.401755	0.000072
O86	O	0.618982	-0.187812	0.000065
H87	H	0.600117	-0.140693	0.056657
O88	O	0.584866	-0.326539	0.000074
H89	H	0.558356	-0.345245	-0.056522
O90	O	0.163444	0.033047	0.000135
H91	H	0.198117	-0.008402	-0.056453
O92	O	0.328867	0.049139	0.000121
H93	H	0.310815	-0.012793	0.000119
H94	H	0.654717	-0.515501	0.000097
H95	H	1.087068	-0.095525	0.000106
H96	H	0.983909	0.099665	0.224556
O97	O	0.942555	-0.550506	0.000114
H98	H	0.950517	-0.624600	0.000114
O99	O	0.997923	-0.511409	0.000118
H100	H	0.976788	-0.537304	-0.056487
H101	H	0.973998	0.107983	0.383121
O102	O	0.749988	0.295898	0.605526
H103	H	0.698479	0.339120	0.650604
