data_functionalizedCrystal
_audit_creation_method	'MofGen! by Chris Wilmer'
_symmetry_space_group_name_H-M	'P1'
_symmetry_Int_Tables_number	1
_symmetry_cell_setting	triclinic
loop_
_symmetry_equiv_pos_as_xyz
  x,y,z
_cell_length_a	14.044220
_cell_length_b	10.723023
_cell_length_c	9.198806
_cell_angle_alpha	89.996138
_cell_angle_beta	90.004411
_cell_angle_gamma	91.171787
loop_
_atom_site_label
_atom_site_type_symbol
_atom_site_fract_x
_atom_site_fract_y
_atom_site_fract_z
O1	O	0.133037	-1.670498	0.120903
O2	O	0.145772	-1.308619	0.120905
O3	O	0.001384	-1.484127	0.120890
O4	O	0.277424	-1.494990	0.120919
O5	O	0.001383	-1.484112	-0.120895
O6	O	0.145771	-1.308605	-0.120880
O7	O	0.133035	-1.670483	-0.120882
Cu8	Cu	0.139403	-1.489543	-0.142958
Cu9	Cu	0.139404	-1.489560	0.142981
O10	O	0.277423	-1.494976	-0.120866
C11	C	0.144845	-1.262020	0.000013
C12	C	0.142072	-1.123188	0.000013
C13	C	0.140836	-1.061285	-0.125239
C14	C	0.137970	-0.917795	-0.125241
C15	C	-0.033962	-1.479364	-0.000003
C16	C	-0.139280	-1.465180	-0.000005
C17	C	-0.332109	-1.439248	0.000016
C18	C	-0.389089	-1.539850	0.000020
C19	C	-0.496386	-1.525421	0.000032
C20	C	-0.224802	-1.453675	0.000005
C21	C	0.312769	-1.499739	0.000030
C22	C	0.418087	-1.513923	0.000041
C23	C	0.133963	-0.717083	0.000011
C24	C	0.136735	-0.855915	0.000010
N25	N	0.139401	-1.489540	-0.344072
C26	C	0.078646	-1.563414	-0.583679
C27	C	0.078647	-1.563398	-0.416267
N28	N	0.139398	-1.489572	0.344095
H29	H	0.137804	-0.909141	0.107249
H30	H	0.141893	-1.114518	-0.232469
C31	C	-0.346822	-1.669220	-0.000229
C32	C	-0.377225	-1.733899	-0.124609
C33	C	-0.338313	-1.853078	-0.124885
H34	H	-0.279296	-1.662039	-0.000314
H35	H	-0.367345	-1.713381	0.084039
H36	H	-0.356696	-1.689749	-0.208856
H37	H	-0.444744	-1.741114	-0.124550
H38	H	-0.358836	-1.897239	-0.040617
H39	H	-0.270789	-1.845885	-0.124967
H40	H	-0.358943	-1.896982	-0.209268
C41	C	0.009095	-1.647534	-0.333608
C42	C	-0.084250	-1.616833	-0.370602
C43	C	-0.148366	-1.694301	-0.294501
H44	H	0.019800	-1.732084	-0.358419
H45	H	0.018206	-1.636341	-0.232067
H46	H	-0.093357	-1.628037	-0.472120
H47	H	-0.094985	-1.532296	-0.345787
H48	H	-0.139255	-1.683107	-0.192960
H49	H	-0.137652	-1.778847	-0.319318
H50	H	-0.211708	-1.673473	-0.319580
H51	H	0.026635	-1.626652	-0.645780
H52	H	-0.363909	-1.342291	0.000020
H53	H	0.141007	-1.069956	0.107244
H54	H	0.191416	-1.426345	-0.593801
C55	C	0.208609	-1.405157	-0.427056
C56	C	0.157512	-1.323170	-0.514487
C57	C	0.221232	-1.245429	-0.590979
H58	H	0.246752	-1.358699	-0.360213
H59	H	0.248344	-1.454501	-0.486505
H60	H	0.117793	-1.273830	-0.455043
H61	H	0.119371	-1.369593	-0.581358
H62	H	0.260968	-1.294773	-0.650428
H63	H	0.259372	-1.198979	-0.524125
H64	H	0.186572	-1.189799	-0.650320
H65	H	0.136912	-0.864560	-0.232474
