data_functionalizedCrystal
_audit_creation_method	'MofGen! by Chris Wilmer'
_symmetry_space_group_name_H-M	'P1'
_symmetry_Int_Tables_number	1
_symmetry_cell_setting	triclinic
loop_
_symmetry_equiv_pos_as_xyz
  x,y,z
_cell_length_a	23.532407
_cell_length_b	14.853559
_cell_length_c	13.330367
_cell_angle_alpha	90.000206
_cell_angle_beta	89.995007
_cell_angle_gamma	96.759900
loop_
_atom_site_label
_atom_site_type_symbol
_atom_site_fract_x
_atom_site_fract_y
_atom_site_fract_z
O1	O	0.755738	-0.109436	-0.083356
O2	O	1.089071	0.223898	0.249978
O3	O	1.422405	0.557231	0.583311
O4	O	0.589943	-0.125270	-0.083371
O5	O	0.923277	0.208063	0.249962
O6	O	1.256610	0.541396	0.583296
O7	O	0.677272	0.013926	-0.083362
O8	O	1.010605	0.347259	0.249971
O9	O	1.343938	0.680592	0.583305
O10	O	0.668409	-0.248632	-0.083365
O11	O	1.001743	0.084702	0.249969
O12	O	1.335076	0.418035	0.583302
O13	O	0.677258	0.013923	0.083485
O14	O	1.010592	0.347256	0.416819
O15	O	1.343925	0.680589	0.750152
O16	O	0.589930	-0.125273	0.083476
O17	O	0.923263	0.208060	0.416810
O18	O	1.256597	0.541393	0.750143
O19	O	0.755725	-0.109439	0.083491
O20	O	1.089058	0.223895	0.416825
O21	O	1.422391	0.557228	0.750158
Cu22	Cu	0.672826	-0.117356	0.098718
Cu23	Cu	1.006159	0.215977	0.432052
Cu24	Cu	1.339493	0.549310	0.765385
Cu25	Cu	0.672842	-0.117353	-0.098598
Cu26	Cu	1.006175	0.215981	0.234736
Cu27	Cu	1.339508	0.549314	0.568069
O28	O	0.668396	-0.248635	0.083482
O29	O	1.001729	0.084699	0.416816
O30	O	1.335063	0.418032	0.750149
C31	C	0.568719	-0.124869	0.000051
C32	C	0.902052	0.208465	0.333384
C33	C	1.235386	0.541798	0.666717
C34	C	0.505497	-0.123656	0.000045
C35	C	0.838830	0.209677	0.333378
C36	C	1.172163	0.543010	0.666711
C37	C	0.238949	-0.036283	0.000073
C38	C	0.572283	0.297050	0.333406
C39	C	0.905616	0.630383	0.666740
C40	C	0.298355	-0.037410	0.000073
C41	C	0.631688	0.295924	0.333406
C42	C	0.965021	0.629257	0.666739
O43	O	0.334798	0.031902	0.000108
O44	O	0.668131	0.365236	0.333442
O45	O	1.001465	0.698569	0.666775
N46	N	0.321340	-0.120162	0.000065
N47	N	0.654674	0.213172	0.333398
N48	N	0.988007	0.546505	0.666732
C49	C	0.284918	-0.201793	0.000068
C50	C	0.618251	0.131541	0.333401
C51	C	0.951584	0.464874	0.666734
O52	O	0.309924	-0.272283	0.000062
O53	O	0.643257	0.061050	0.333395
O54	O	0.976590	0.394383	0.666729
C55	C	0.225514	-0.200666	0.000075
C56	C	0.558847	0.132668	0.333408
C57	C	0.892180	0.466001	0.666742
C58	C	0.202531	-0.117908	0.000073
C59	C	0.535865	0.215425	0.333406
C60	C	0.869198	0.548758	0.666739
C61	C	0.215967	0.046467	0.000072
C62	C	0.549300	0.379801	0.333405
C63	C	0.882633	0.713134	0.666738
C64	C	0.156566	0.047593	0.000070
C65	C	0.489899	0.380926	0.333403
C66	C	0.823232	0.714260	0.666737
C67	C	0.120147	-0.034032	0.000070
C68	C	0.453481	0.299302	0.333403
C69	C	0.786814	0.632635	0.666736
C70	C	0.143130	-0.116782	0.000071
C71	C	0.476464	0.216551	0.333404
C72	C	0.809797	0.549884	0.666738
C73	C	0.189092	-0.282296	0.000085
C74	C	0.522425	0.051037	0.333418
C75	C	0.855759	0.384371	0.666752
C76	C	0.129684	-0.281162	0.000093
C77	C	0.463018	0.052172	0.333427
C78	C	0.796351	0.385505	0.666760
C79	C	0.106702	-0.198404	0.000091
C80	C	0.440036	0.134929	0.333424
C81	C	0.773369	0.468262	0.666757
C82	C	0.047311	-0.197282	0.000069
C83	C	0.380644	0.136052	0.333403
C84	C	0.713978	0.469385	0.666736
N85	N	0.024325	-0.114529	0.000077
N86	N	0.357659	0.218804	0.333410
N87	N	0.690992	0.552137	0.666744
C88	C	0.060743	-0.032905	0.000077
C89	C	0.394077	0.300429	0.333411
C90	C	0.727410	0.633762	0.666744
C91	C	0.409670	-0.204154	0.000054
C92	C	0.743004	0.129180	0.333387
C93	C	1.076337	0.462513	0.666720
C94	C	0.469073	-0.205282	0.000039
C95	C	0.802407	0.128052	0.333372
C96	C	1.135740	0.461385	0.666706
C97	C	0.482506	-0.040898	0.000046
C98	C	0.815839	0.292435	0.333379
C99	C	1.149173	0.625769	0.666713
C100	C	0.423102	-0.039771	0.000053
C101	C	0.756436	0.293562	0.333387
C102	C	1.089769	0.626896	0.666720
C103	C	0.386685	-0.121402	0.000061
C104	C	0.720018	0.211932	0.333395
C105	C	1.053351	0.545265	0.666728
C106	C	-0.064004	-0.030547	0.000073
C107	C	0.269330	0.302787	0.333406
C108	C	0.602663	0.636120	0.666740
C109	C	-0.123411	-0.029428	0.000067
C110	C	0.209923	0.303905	0.333401
C111	C	0.543256	0.637239	0.666734
C112	C	-0.136838	-0.193811	0.000066
C113	C	0.196495	0.139522	0.333399
C114	C	0.529828	0.472856	0.666732
C115	C	-0.077437	-0.194930	0.000066
C116	C	0.255897	0.138403	0.333399
C117	C	0.589230	0.471736	0.666733
C118	C	-0.041020	-0.113291	0.000073
C119	C	0.292313	0.220043	0.333407
C120	C	0.625647	0.553376	0.666740
O121	O	0.010833	-0.266557	0.000038
O122	O	0.344166	0.066776	0.333371
O123	O	0.677500	0.400110	0.666704
O124	O	0.035729	0.037574	0.000096
O125	O	0.369063	0.370908	0.333429
O126	O	0.702396	0.704241	0.666763
C127	C	0.676864	0.047509	0.000060
C128	C	1.010198	0.380842	0.333393
C129	C	1.343531	0.714175	0.666726
C130	C	0.675664	0.147580	0.000054
C131	C	1.008997	0.480913	0.333387
C132	C	1.342330	0.814246	0.666721
C133	C	0.776949	-0.109840	0.000068
C134	C	1.110282	0.223493	0.333401
C135	C	1.443616	0.556826	0.666734
C136	C	0.840171	-0.111053	0.000067
C137	C	1.173505	0.222280	0.333400
C138	C	1.506838	0.555614	0.666734
C139	C	0.668803	-0.282218	0.000058
C140	C	1.002137	0.051116	0.333392
C141	C	1.335470	0.384449	0.666725
C142	C	0.670004	-0.382289	0.000058
C143	C	1.003338	-0.048955	0.333391
C144	C	1.336671	0.284378	0.666724
C145	C	0.670577	0.570701	-0.090895
C146	C	1.003910	0.904034	0.242438
C147	C	1.337244	1.237367	0.575772
C148	C	0.670563	0.570692	0.091008
C149	C	1.003896	0.904025	0.424342
C150	C	1.337229	1.237359	0.757675
C151	C	0.671695	0.476671	0.091009
C152	C	1.005029	0.810004	0.424343
C153	C	1.338362	1.143338	0.757676
C154	C	0.672268	0.429660	0.000057
C155	C	1.005602	0.762994	0.333390
C156	C	1.338935	1.096327	0.666723
C157	C	0.671708	0.476671	-0.090897
C158	C	1.005042	0.810004	0.242437
C159	C	1.338375	1.143337	0.575770
C160	C	0.672250	0.429653	0.181961
C161	C	1.005583	0.762986	0.515294
C162	C	1.338916	1.096319	0.848628
C163	C	0.673382	0.335626	0.181966
C164	C	1.006715	0.668959	0.515299
C165	C	1.340049	1.002292	0.848632
C166	C	0.673959	0.288614	0.091012
C167	C	1.007292	0.621948	0.424345
C168	C	1.340626	0.955281	0.757679
C169	C	0.673400	0.335630	0.000055
C170	C	1.006733	0.668964	0.333388
C171	C	1.340066	1.002297	0.666722
C172	C	0.673972	0.288620	-0.090898
C173	C	1.007306	0.621953	0.242436
C174	C	1.340639	0.955286	0.575769
C175	C	0.673417	0.335635	-0.181856
C176	C	1.006751	0.668968	0.151477
C177	C	1.340084	1.002302	0.484811
C178	C	0.672285	0.429659	-0.181850
C179	C	1.005619	0.762992	0.151483
C180	C	1.338952	1.096326	0.484816
C181	C	0.675091	0.194590	0.091007
C182	C	1.008424	0.527924	0.424340
C183	C	1.341757	0.861257	0.757673
C184	C	0.675104	0.194590	-0.090899
C185	C	1.008437	0.527923	0.242434
C186	C	1.341770	0.861256	0.575767
N187	N	0.672819	-0.117358	0.237500
N188	N	1.006152	0.215975	0.570833
N189	N	1.339486	0.549308	0.904166
N190	N	0.672853	-0.117344	-0.237379
N191	N	1.006187	0.215990	0.095954
N192	N	1.339520	0.549323	0.429287
C193	C	0.638241	-0.062957	0.290022
C194	C	0.971574	0.270377	0.623355
C195	C	1.304908	0.603710	0.956689
C196	C	0.707404	-0.171755	0.290005
C197	C	1.040738	0.161578	0.623339
C198	C	1.374071	0.494911	0.956672
C199	C	0.707411	-0.171755	0.395024
C200	C	1.040744	0.161579	0.728357
C201	C	1.374078	0.494912	1.061690
C202	C	0.672833	-0.117353	0.447546
C203	C	1.006166	0.215980	0.780879
C204	C	1.339499	0.549313	1.114213
C205	C	0.638248	-0.062952	0.395050
C206	C	0.971581	0.270381	0.728384
C207	C	1.304915	0.603714	1.061717
C208	C	0.742000	-0.226148	0.447528
C209	C	1.075333	0.107186	0.780861
C210	C	1.408666	0.440519	1.114194
C211	C	0.742008	-0.226148	0.552552
C212	C	1.075341	0.107185	0.885886
C213	C	1.408675	0.440518	1.219219
C214	C	0.707426	-0.171751	0.605077
C215	C	1.040760	0.161582	0.938410
C216	C	1.374093	0.494916	1.271743
C217	C	0.672840	-0.117349	0.552574
C218	C	1.006173	0.215985	0.885908
C219	C	1.339506	0.549318	1.219241
C220	C	0.638261	-0.062947	0.605097
C221	C	0.971595	0.270386	0.938430
C222	C	1.304928	0.603719	1.271763
C223	C	0.603671	-0.008549	0.552596
C224	C	0.937005	0.324784	0.885929
C225	C	1.270338	0.658118	1.219263
C226	C	0.603666	-0.008555	0.447575
C227	C	0.937000	0.324778	0.780908
C228	C	1.270333	0.658112	1.114241
C229	C	0.707431	-0.171745	0.710098
C230	C	1.040765	0.161588	1.043432
C231	C	1.374098	0.494921	1.376765
C232	C	0.638268	-0.062943	0.710125
C233	C	0.971602	0.270391	1.043458
C234	C	1.304935	0.603724	1.376791
H235	H	0.512169	0.025565	0.000046
H236	H	0.845502	0.358899	0.333380
H237	H	1.178836	0.692232	0.666713
H238	H	0.670092	0.608973	0.165058
H239	H	1.003426	0.942306	0.498391
H240	H	1.336759	1.275640	0.831724
Cl241	Cl	0.669885	0.629803	-0.205236
Cl242	Cl	1.003218	0.963137	0.128097
Cl243	Cl	1.336552	1.296470	0.461430
H244	H	0.673836	0.297354	0.256029
H245	H	1.007170	0.630688	0.589363
H246	H	1.340503	0.964021	0.922696
H247	H	-0.142119	0.037966	0.000063
H248	H	0.191214	0.371299	0.333396
H249	H	0.524548	0.704633	0.666729
H250	H	-0.034360	0.035932	0.000078
H251	H	0.298974	0.369266	0.333412
H252	H	0.632307	0.702599	0.666745
H253	H	0.735596	-0.216032	0.752839
H254	H	1.068930	0.117301	1.086173
H255	H	1.402263	0.450635	1.419506
Cl256	Cl	0.750875	-0.240136	0.223976
Cl257	Cl	1.084209	0.093197	0.557310
Cl258	Cl	1.417542	0.426531	0.890643
H259	H	0.137859	0.114983	0.000072
H260	H	0.471193	0.448316	0.333406
H261	H	0.804526	0.781649	0.666739
H262	H	0.404395	0.027617	0.000052
H263	H	0.737728	0.360951	0.333385
H264	H	1.071061	0.694284	0.666719
Cl265	Cl	0.261740	0.149096	0.000073
Cl266	Cl	0.595073	0.482430	0.333406
Cl267	Cl	0.928407	0.815763	0.666739
H268	H	0.487780	-0.272671	0.000027
H269	H	0.821113	0.060662	0.333360
H270	H	1.154446	0.393996	0.666694
Cl271	Cl	0.675788	0.135489	0.205344
Cl272	Cl	1.009121	0.468823	0.538677
Cl273	Cl	1.342454	0.802156	0.872011
H274	H	0.675573	0.156321	-0.164965
H275	H	1.008906	0.489654	0.168368
H276	H	1.342240	0.822988	0.501702
H277	H	0.671780	0.467935	0.256010
H278	H	1.005113	0.801268	0.589343
H279	H	1.338447	1.134602	0.922676
H280	H	0.380022	-0.270631	0.000053
H281	H	0.713355	0.062702	0.333386
H282	H	1.046688	0.396035	0.666720
Cl283	Cl	0.217969	-0.386341	0.000089
Cl284	Cl	0.551302	-0.053007	0.333422
Cl285	Cl	0.884635	0.280326	0.666755
Cl286	Cl	0.594793	0.005447	0.776144
Cl287	Cl	0.928126	0.338780	1.109478
Cl288	Cl	1.261459	0.672113	1.442811
Cl289	Cl	-0.048544	-0.298969	0.000056
Cl290	Cl	0.284790	0.034364	0.333390
Cl291	Cl	0.618123	0.367698	0.666723
H292	H	0.100035	-0.347637	0.000104
H293	H	0.433369	-0.014304	0.333438
H294	H	0.766702	0.319030	0.666771
H295	H	0.673880	0.297346	-0.255909
H296	H	1.007213	0.630679	0.077424
H297	H	1.340546	0.964012	0.410757
H298	H	0.575520	0.035748	0.595374
H299	H	0.908853	0.369082	0.928707
H300	H	1.242187	0.702415	1.262040
H301	H	0.575506	0.035735	0.404819
H302	H	0.908839	0.369068	0.738153
H303	H	1.242172	0.702401	1.071486
H304	H	0.610077	-0.018670	0.247272
H305	H	0.943410	0.314664	0.580605
H306	H	1.276743	0.647997	0.913938
H307	H	0.770155	-0.270432	0.404756
H308	H	1.103489	0.062901	0.738089
H309	H	1.436822	0.396235	1.071423
H310	H	0.770173	-0.270443	0.595289
H311	H	1.103506	0.062890	0.928623
H312	H	1.436840	0.396223	1.261956
H313	H	0.671833	0.467947	-0.255904
H314	H	1.005166	0.801281	0.077430
H315	H	1.338499	1.134614	0.410763
Cl316	Cl	-0.182632	-0.296419	0.000061
Cl317	Cl	0.150702	0.036914	0.333394
Cl318	Cl	0.484035	0.370247	0.666728
