data_functionalizedCrystal
_audit_creation_method	'MofGen! by Chris Wilmer'
_symmetry_space_group_name_H-M	'P1'
_symmetry_Int_Tables_number	1
_symmetry_cell_setting	triclinic
loop_
_symmetry_equiv_pos_as_xyz
  x,y,z
_cell_length_a	15.538117
_cell_length_b	14.185569
_cell_length_c	14.519731
_cell_angle_alpha	76.818244
_cell_angle_beta	114.518629
_cell_angle_gamma	82.124462
loop_
_atom_site_label
_atom_site_type_symbol
_atom_site_fract_x
_atom_site_fract_y
_atom_site_fract_z
O1	O	-1.228057	-0.083438	-0.271273
O2	O	-0.953987	-0.083437	-0.164857
O3	O	-1.098281	-0.083428	-0.354746
O4	O	-1.083764	-0.083446	-0.081384
O5	O	-1.140906	0.083409	-0.410836
O6	O	-0.996613	0.083400	-0.220947
O7	O	-1.270683	0.083399	-0.327363
Cu8	Cu	-1.137540	0.098633	-0.279277
Cu9	Cu	-1.087130	-0.098671	-0.212943
O10	O	-1.126389	0.083391	-0.137474
C11	C	-0.940224	-0.000018	-0.181768
C12	C	-0.835709	-0.000017	-0.148604
N13	N	-1.173002	0.237406	-0.325935
C14	C	-1.118914	-0.000010	-0.416921
C15	C	-1.116876	-0.000009	-0.518617
C16	C	-0.547341	-0.000007	-0.478109
C17	C	-0.449130	-0.000009	-0.446923
C18	C	-0.426994	-0.000020	-0.271495
C19	C	-0.525206	-0.000013	-0.302669
C20	C	-0.585372	-0.000008	-0.405976
C21	C	-0.563237	-0.000014	-0.230536
C22	C	-0.661440	-0.000013	-0.261705
C23	C	-0.721611	-0.000011	-0.365008
C24	C	-0.683575	-0.000007	-0.437146
C25	C	-0.503067	-0.000027	-0.127226
C26	C	-0.541098	-0.000028	-0.055093
C27	C	-0.639304	-0.000019	-0.086265
C28	C	-0.699476	-0.000017	-0.189567
C29	C	-0.677341	-0.000024	-0.014126
C30	C	-0.775543	-0.000022	-0.045296
C31	C	-0.797678	-0.000016	-0.220737
C32	C	-0.284447	-0.000019	-0.310457
C33	C	-0.388964	-0.000018	-0.343635
N34	N	-1.051675	-0.237444	-0.166295
C35	C	-0.947487	0.605043	-0.029253
C36	C	-0.974356	0.710066	-0.064592
C37	C	-1.102154	0.710035	-0.232701
C38	C	-1.075292	0.605009	-0.197378
C39	C	-0.997959	0.552522	-0.095653
C40	C	-1.125765	0.552488	-0.263778
C41	C	-1.098909	0.447472	-0.228455
C42	C	-1.021580	0.394977	-0.126733
C43	C	-0.971103	0.447506	-0.060331
C44	C	-1.203102	0.604978	-0.365500
C45	C	-1.253574	0.552456	-0.431899
C46	C	-1.226714	0.447438	-0.396580
C47	C	-1.149386	0.394944	-0.294858
C48	C	-1.277191	0.394910	-0.462982
C49	C	-1.250335	0.289894	-0.427660
C50	C	-1.122530	0.289928	-0.259535
C51	C	-1.115220	-0.000011	-0.601203
C52	C	-1.113149	-0.000019	-0.704813
C53	C	-1.111505	-0.000025	-0.787398
C54	C	-1.109435	-0.000031	-0.891016
C55	C	-1.105756	-0.000030	-0.075298
C56	C	-1.107792	-0.000038	0.026400
H57	H	-0.846671	-0.000006	-0.304863
F58	F	-1.359501	0.450782	-0.571237
H59	H	-1.059551	0.247190	-0.176705
F60	F	-0.362950	-0.000032	-0.161548
H61	H	-0.884508	0.562306	0.053577
H62	H	-0.999718	0.309466	-0.097973
F63	F	-0.398550	-0.000029	-0.094054
F64	F	-0.920629	0.765956	0.006092
H65	H	-1.316543	0.595204	-0.514724
F66	F	-0.816021	-0.000025	0.031476
H67	H	-0.801570	-0.000023	-0.390380
F68	F	-1.304057	0.233996	-0.498330
H69	H	-1.165122	0.752782	-0.315525
H70	H	-0.418170	-0.000010	-0.505669
H71	H	-0.492097	-0.000036	0.029022
F72	F	-0.747617	0.000010	-0.547103
F73	F	-0.611383	0.000010	-0.588066
H74	H	-0.628337	-0.000038	0.069990
H75	H	-0.908124	0.404769	0.022500
H76	H	-1.224968	0.690489	-0.394253
