data_functionalizedCrystal
_audit_creation_method	'MofGen! by Chris Wilmer'
_symmetry_space_group_name_H-M	'P1'
_symmetry_Int_Tables_number	1
_symmetry_cell_setting	triclinic
loop_
_symmetry_equiv_pos_as_xyz
  x,y,z
_cell_length_a	19.077442
_cell_length_b	19.077300
_cell_length_c	19.076919
_cell_angle_alpha	94.667263
_cell_angle_beta	89.933452
_cell_angle_gamma	94.472516
loop_
_atom_site_label
_atom_site_type_symbol
_atom_site_fract_x
_atom_site_fract_y
_atom_site_fract_z
Zn1	Zn	-0.337082	-1.075751	0.341207
Zn2	Zn	-0.450230	-1.085139	0.218595
Zn3	Zn	-0.328017	-0.962229	0.228450
Zn4	Zn	-0.450199	-0.962569	0.341176
O5	O	-0.391382	-1.021422	0.282357
O6	O	-0.355898	-1.175801	0.320831
O7	O	-0.430237	-1.072621	0.121413
O8	O	-0.230733	-0.973217	0.247545
O9	O	-0.439027	-1.182698	0.230749
O10	O	-0.237393	-1.056620	0.330387
O11	O	-0.340448	-0.982320	0.128654
O12	O	-0.340418	-0.863469	0.247515
O13	O	-0.438975	-0.973796	0.439669
O14	O	-0.430185	-0.863719	0.330334
O15	O	-0.355868	-1.056950	0.439692
O16	O	-0.548712	-1.072951	0.230718
O17	O	-0.548690	-0.982899	0.320778
C18	C	-0.384315	-0.837975	0.289991
C19	C	-0.381309	-0.759496	0.293272
C20	C	-0.574239	-1.028999	0.274690
C21	C	-0.652469	-1.032304	0.271430
C22	C	-0.359696	-0.317352	0.316822
C23	C	-0.362534	-0.391092	0.313734
C24	C	-0.407156	-0.431544	0.265219
C25	C	-0.448950	-0.398252	0.219794
C26	C	-0.446116	-0.324513	0.222886
C27	C	-0.420268	-0.652465	0.250939
C28	C	-0.423098	-0.726209	0.247849
C29	C	-0.336682	-0.719043	0.341790
C30	C	-0.333849	-0.645303	0.344875
C31	C	-0.375645	-0.612018	0.299453
N32	N	-0.410056	-0.506919	0.262060
N33	N	-0.372749	-0.536645	0.302616
C34	C	-1.092821	-1.055962	0.248035
C35	C	-1.019315	-1.052850	0.251099
C36	C	-0.982576	-1.004379	0.299488
C37	C	-1.019346	-0.959011	0.344810
C38	C	-1.092850	-0.962121	0.341742
C39	C	-0.762743	-0.990046	0.313685
C40	C	-0.689234	-0.986942	0.316751
C41	C	-0.689208	-1.080780	0.223039
C42	C	-0.762714	-1.083888	0.219978
C43	C	-0.799477	-1.038518	0.265298
N44	N	-0.907441	-1.001198	0.302622
N45	N	-0.874610	-1.041696	0.262159
C46	C	-0.207813	-1.013833	0.290069
C47	C	-0.129586	-1.010600	0.293355
C48	C	-0.398429	-1.014364	0.465932
C49	C	-0.401432	-1.011356	0.544161
C50	C	-0.398473	-0.205585	0.274687
C51	C	-0.401485	-0.284065	0.271399
C52	C	-0.384313	-1.028491	0.099497
C53	C	-0.381117	-1.031627	0.021271
C54	C	-0.359576	-1.053235	0.580926
C55	C	-0.362394	-1.050400	0.654431
C56	C	-0.407074	-1.005690	0.691168
C57	C	-0.448931	-0.963806	0.654398
C58	C	-0.446109	-0.966638	0.580895
C59	C	-0.420152	-0.992575	0.910998
C60	C	-0.422973	-0.989748	0.984506
C61	C	-0.336435	-1.076341	0.984533
C62	C	-0.333619	-1.079172	0.911029
C63	C	-0.375474	-1.037286	0.874265
N64	N	-0.409957	-1.002793	0.766302
N65	N	-0.372586	-1.040180	0.799133
H66	H	-0.323355	-0.284421	0.356324
H67	H	-0.459437	-0.759143	0.208341
O68	O	-0.653652	-0.939797	0.363784
C69	C	-0.701862	-0.900434	0.403143
H70	H	-0.753066	-0.901322	0.372224
H71	H	-0.678809	-0.843620	0.413819
H72	H	-0.712694	-0.924531	0.455212
O73	O	-0.290525	-0.605905	0.391946
C74	C	-0.296999	-0.533683	0.384948
H75	H	-0.317482	-0.526635	0.330052
H76	H	-0.243402	-0.503287	0.393202
H77	H	-0.335347	-0.512727	0.425930
H78	H	-0.480146	-0.297412	0.185899
H79	H	-0.989382	-1.089787	0.214196
H80	H	-0.659269	-1.117717	0.186141
O81	O	-0.321865	-0.423314	0.357883
C82	C	-0.281880	-0.371798	0.401373
H83	H	-0.276275	-0.320231	0.374857
H84	H	-0.227549	-0.390517	0.410398
H85	H	-0.309481	-0.362990	0.454031
O86	O	-0.296158	-0.751490	0.385885
C87	C	-0.308212	-0.825248	0.372744
H88	H	-0.361986	-0.838452	0.346902
H89	H	-0.306627	-0.851067	0.424493
H90	H	-0.265772	-0.845869	0.336214
O91	O	-1.128396	-1.103069	0.200968
C92	C	-1.080181	-1.142450	0.161636
H93	H	-1.026606	-1.111410	0.162568
H94	H	-1.099591	-1.153054	0.104987
H95	H	-1.075360	-1.194730	0.185548
O96	O	-0.460966	-0.620221	0.206838
C97	C	-0.532413	-0.640557	0.218413
H98	H	-0.537007	-0.693124	0.243164
H99	H	-0.562032	-0.646331	0.166139
H100	H	-0.555976	-0.598662	0.255296
H101	H	-0.792667	-0.953098	0.350582
O102	O	-0.983553	-0.911988	0.391793
C103	C	-0.910791	-0.918959	0.384774
H104	H	-0.901923	-0.973925	0.359918
H105	H	-0.884682	-0.910922	0.438857
H106	H	-0.886930	-0.877670	0.349873
O107	O	-1.128459	-0.918028	0.385840
C108	C	-1.080271	-0.874568	0.429196
H109	H	-1.029055	-0.901174	0.432640
H110	H	-1.103337	-0.865759	0.484072
H111	H	-1.069457	-0.821627	0.405936
O112	O	-0.798290	-1.130991	0.172908
C113	C	-0.750078	-1.170376	0.133575
H114	H	-0.696501	-1.139338	0.134504
H115	H	-0.769491	-1.180980	0.076927
H116	H	-0.745258	-1.222655	0.157487
H117	H	-0.328312	-1.084504	0.684361
O118	O	-0.316113	-1.096683	0.545353
C119	C	-0.279786	-1.133049	0.593567
H120	H	-0.278249	-1.102009	0.647266
H121	H	-0.223809	-1.139106	0.574349
H122	H	-0.307925	-1.187438	0.598075
H123	H	-0.459358	-0.953338	1.014416
H124	H	-0.297239	-1.115582	0.881121
H125	H	-0.302358	-1.110442	1.014474
O126	O	-0.492236	-0.437651	0.172688
C127	C	-0.485789	-0.509873	0.179708
H128	H	-0.432787	-0.516814	0.204703
H129	H	-0.489529	-0.540101	0.125610
H130	H	-0.529835	-0.531106	0.214485
H131	H	-0.454244	-0.958480	0.881073
O132	O	-0.492316	-0.920434	0.690190
C133	C	-0.485821	-0.926902	0.762951
H134	H	-0.465259	-0.980053	0.771696
H135	H	-0.539426	-0.923214	0.788869
H136	H	-0.447529	-0.882670	0.787125
O137	O	-0.486847	-0.925943	0.545285
C138	C	-0.526880	-0.885864	0.593471
H139	H	-0.532435	-0.912863	0.644566
H140	H	-0.581228	-0.881454	0.570219
H141	H	-0.499349	-0.830869	0.604594
