data_functionalizedCrystal
_audit_creation_method	'MofGen! by Chris Wilmer'
_symmetry_space_group_name_H-M	'P1'
_symmetry_Int_Tables_number	1
_symmetry_cell_setting	triclinic
loop_
_symmetry_equiv_pos_as_xyz
  x,y,z
_cell_length_a	16.992694
_cell_length_b	19.188930
_cell_length_c	16.053802
_cell_angle_alpha	92.551696
_cell_angle_beta	87.249047
_cell_angle_gamma	86.906503
loop_
_atom_site_label
_atom_site_type_symbol
_atom_site_fract_x
_atom_site_fract_y
_atom_site_fract_z
O1	O	1.043197	0.145267	-0.069340
O2	O	0.814918	0.143642	-0.069364
O3	O	0.935644	0.043185	-0.069335
O4	O	0.922471	0.245724	-0.069369
O5	O	0.928999	0.048690	0.069522
O6	O	0.808273	0.149147	0.069493
O7	O	1.036552	0.150772	0.069517
Zn8	Zn	0.921357	0.150834	0.091552
Zn9	Zn	0.930113	0.143581	-0.091399
O10	O	0.915826	0.251229	0.069488
C11	C	0.782390	0.144306	0.000061
C12	C	0.695368	0.138072	0.000053
C13	C	0.931895	0.019902	0.000096
C14	C	0.930614	-0.057677	0.000103
C15	C	0.644922	0.198212	0.000043
C16	C	0.563155	0.192351	0.000056
C17	C	0.531836	0.126351	0.000072
C18	C	0.582288	0.066208	0.000084
C19	C	0.664054	0.072069	0.000077
C20	C	0.288320	0.102059	0.000098
C21	C	0.206548	0.096203	0.000102
C22	C	0.187420	0.222347	0.000076
C23	C	0.269188	0.228202	0.000064
C24	C	0.319633	0.168059	0.000081
N25	N	0.448257	0.120359	0.000082
N26	N	0.403210	0.174051	0.000076
C27	C	1.001452	-0.098456	0.000114
C28	C	1.000250	-0.171350	0.000101
C29	C	0.928204	-0.203463	0.000093
C30	C	0.857356	-0.162676	0.000076
C31	C	0.858561	-0.089783	0.000081
N32	N	0.870872	-0.312817	0.047342
N33	N	0.869732	-0.382063	0.047339
C34	C	0.924569	-0.423085	0.000075
N35	N	0.980600	-0.392247	-0.047175
N36	N	0.981742	-0.322995	-0.047168
C37	C	0.926889	-0.282503	0.000086
C38	C	0.994108	-0.542905	0.000071
C39	C	0.992903	-0.615801	0.000052
C40	C	0.850007	-0.607124	0.000036
C41	C	0.851215	-0.534230	0.000046
C42	C	0.923267	-0.502125	0.000068
C43	C	1.069080	0.150109	0.000090
C44	C	1.156102	0.156342	0.000093
C45	C	0.919575	0.274513	0.000055
C46	C	0.920856	0.352091	0.000043
N47	N	0.915388	0.155784	0.216410
N48	N	0.936088	0.138625	-0.216258
C49	C	0.966776	0.113057	0.260117
C50	C	0.962607	0.116526	0.347523
C51	C	0.907054	0.162727	0.391220
C52	C	0.855661	0.205456	0.347508
C53	C	0.859826	0.201983	0.260104
C54	C	0.888860	0.177881	0.652626
C55	C	0.884700	0.181353	0.740036
C56	C	0.991646	0.092421	0.740045
C57	C	0.995810	0.088955	0.652639
C58	C	0.944414	0.131681	0.608934
N59	N	0.902794	0.166276	0.480563
N60	N	0.948671	0.128128	0.519593
H61	H	0.670415	0.251956	0.000030
H62	H	0.522084	0.241323	0.000047
H63	H	0.793530	-0.501027	0.000042
H64	H	1.050591	-0.649002	0.000057
Cl65	Cl	0.308554	0.311177	0.000039
H66	H	0.800874	-0.056581	0.000072
Cl67	Cl	1.036621	0.054975	0.205192
Cl68	Cl	0.124000	0.297951	0.000059
Cl69	Cl	0.351726	0.026449	0.000118
Cl70	Cl	1.027209	0.062810	0.402469
Cl71	Cl	0.759434	-0.647488	0.000021
Cl72	Cl	1.065649	0.030874	0.597704
H73	H	1.060123	-0.072320	0.000129
Cl74	Cl	0.167177	0.013225	0.000141
Cl75	Cl	1.084686	-0.502540	0.000103
Cl76	Cl	1.056251	0.038709	0.794991
H77	H	1.057937	-0.204558	0.000107
Cl78	Cl	0.542916	-0.016765	0.000109
Cl79	Cl	0.814857	0.239441	0.794965
Cl80	Cl	0.824253	0.231595	0.597688
H81	H	0.810425	0.243072	0.383092
Cl82	Cl	0.727472	-0.003538	0.000093
Cl83	Cl	0.795218	0.255697	0.205159
Cl84	Cl	0.766785	-0.203045	0.000059
