data_functionalizedCrystal
_audit_creation_method	'MofGen! by Chris Wilmer'
_symmetry_space_group_name_H-M	'P1'
_symmetry_Int_Tables_number	1
_symmetry_cell_setting	triclinic
loop_
_symmetry_equiv_pos_as_xyz
  x,y,z
_cell_length_a	10.654550
_cell_length_b	10.654551
_cell_length_c	9.130313
_cell_angle_alpha	90.001552
_cell_angle_beta	89.996220
_cell_angle_gamma	84.485132
loop_
_atom_site_label
_atom_site_type_symbol
_atom_site_fract_x
_atom_site_fract_y
_atom_site_fract_z
O1	O	1.667835	0.176393	-0.121910
O2	O	1.302356	0.193199	-0.121885
O3	O	1.493498	0.002057	-0.121899
O4	O	1.476693	0.367535	-0.121896
O5	O	1.493496	0.002062	0.121700
O6	O	1.302354	0.193204	0.121713
O7	O	1.667832	0.176398	0.121689
Cu8	Cu	1.485093	0.184802	0.143944
Cu9	Cu	1.485096	0.184796	-0.144140
O10	O	1.476691	0.367540	0.121703
C11	C	1.255557	0.191968	-0.000083
C12	C	1.116114	0.188276	-0.000074
C13	C	1.036629	0.300817	-0.000095
C14	C	0.905608	0.297341	-0.000120
C15	C	0.933570	0.068771	-0.000110
C16	C	1.064589	0.072249	-0.000074
C17	C	1.088154	0.416844	-0.000094
C18	C	1.008667	0.529395	-0.000116
C19	C	0.877647	0.525918	-0.000142
C20	C	0.826112	0.409891	-0.000145
C21	C	1.492263	-0.044739	-0.000103
C22	C	1.488570	-0.184182	-0.000112
C23	C	1.486839	-0.249696	-0.132895
C24	C	1.483359	-0.380717	-0.132888
C25	C	1.483346	-0.380697	0.132696
C26	C	1.486817	-0.249678	0.132688
C27	C	1.488592	-0.184201	-0.265696
C28	C	1.486863	-0.249716	-0.398490
C29	C	1.483382	-0.380736	-0.398483
C30	C	1.481632	-0.446241	-0.265682
C31	C	1.714632	0.177629	-0.000117
C32	C	1.854075	0.181321	-0.000135
C33	C	1.477926	0.414336	-0.000097
C34	C	1.481619	0.553779	-0.000097
N35	N	1.485100	0.184805	0.346566
N36	N	1.485098	0.184782	-0.346763
C37	C	1.569760	0.100196	0.423212
C38	C	1.569756	0.100181	0.576549
C39	C	1.400430	0.269395	0.576581
C40	C	1.400428	0.269403	0.423246
C41	C	1.654431	0.015599	0.346532
C42	C	1.739099	-0.069016	0.423178
C43	C	1.739095	-0.069031	0.576515
C44	C	1.654425	0.015569	0.653206
H45	H	0.719425	0.407069	-0.000143
H46	H	1.488276	-0.196371	-0.506611
O47	O	1.481505	-0.451394	-0.541706
H48	H	1.478781	-0.553502	-0.519397
H49	H	1.654420	0.015541	0.778063
O50	O	1.488693	-0.179012	0.275906
H51	H	1.491389	-0.076902	0.253586
H52	H	1.481921	-0.434042	0.240816
O53	O	1.477879	-0.587558	-0.265689
H54	H	1.391507	-0.611653	-0.208372
O55	O	0.877996	-0.056368	-0.000118
H56	H	0.819007	-0.063429	-0.099427
O57	O	1.654420	0.015607	0.181149
H58	H	1.727509	-0.057440	0.140701
H59	H	1.129308	-0.019392	-0.000062
H60	H	1.808028	-0.137901	0.360729
O61	O	1.229468	0.420599	-0.000049
H62	H	1.270076	0.372180	-0.099326
O63	O	1.492640	-0.042923	-0.265698
H64	H	1.493668	-0.008395	-0.380346
H65	H	1.808026	-0.137936	0.638919
H66	H	1.331490	0.338298	0.360841
O67	O	1.064239	0.654535	-0.000108
H68	H	1.168699	0.638049	-0.000100
O69	O	0.791909	0.647302	-0.000158
H70	H	0.849754	0.728561	-0.000161
H71	H	1.331496	0.338274	0.639032
