data_functionalizedCrystal
_audit_creation_method	'MofGen! by Chris Wilmer'
_symmetry_space_group_name_H-M	'P1'
_symmetry_Int_Tables_number	1
_symmetry_cell_setting	triclinic
loop_
_symmetry_equiv_pos_as_xyz
  x,y,z
_cell_length_a	21.295418
_cell_length_b	14.908520
_cell_length_c	21.295411
_cell_angle_alpha	86.727396
_cell_angle_beta	89.964378
_cell_angle_gamma	86.662388
loop_
_atom_site_label
_atom_site_type_symbol
_atom_site_fract_x
_atom_site_fract_y
_atom_site_fract_z
Zn1	Zn	0.947892	0.358826	-0.370691
Zn2	Zn	1.447892	0.858826	0.129309
Zn3	Zn	0.941749	0.509689	-0.271494
Zn4	Zn	1.441749	1.009689	0.228506
Zn5	Zn	0.842627	0.358887	-0.265403
Zn6	Zn	1.342627	0.858887	0.234597
Zn7	Zn	0.836524	0.509688	-0.376691
Zn8	Zn	1.336524	1.009688	0.123309
O9	O	0.892198	0.434272	-0.321070
O10	O	1.392198	0.934272	0.178930
O11	O	1.035167	0.378813	-0.357570
O12	O	1.535167	0.878813	0.142430
O13	O	0.928584	0.489710	-0.182598
O14	O	1.428584	0.989710	0.317402
O15	O	0.861716	0.232631	-0.274309
O16	O	1.361716	0.732631	0.225691
O17	O	1.030654	0.489651	-0.284691
O18	O	1.530654	0.989651	0.215309
O19	O	0.939053	0.232586	-0.351664
O20	O	1.439053	0.732586	0.148336
O21	O	0.855759	0.378917	-0.178123
O22	O	1.355759	0.878917	0.321877
O23	O	0.753727	0.378916	-0.280127
O24	O	1.253727	0.878916	0.219873
O25	O	0.851314	0.489650	-0.463983
O26	O	1.351314	0.989650	0.036017
O27	O	0.749243	0.489709	-0.361890
O28	O	1.249243	0.989709	0.138110
O29	O	0.933135	0.378812	-0.459575
O30	O	1.433135	0.878812	0.040425
O31	O	0.922666	0.635936	-0.290509
O32	O	1.422666	1.135936	0.209491
O33	O	0.845358	0.635935	-0.367797
O34	O	1.345358	1.135935	0.132203
C35	C	0.728644	0.434320	-0.320999
C36	C	1.228644	0.934320	0.179001
C37	C	0.658675	0.434362	-0.320985
C38	C	1.158675	0.934362	0.179015
C39	C	0.882700	0.668670	-0.330479
C40	C	1.382700	1.168670	0.169521
C41	C	0.878694	0.768947	-0.334525
C42	C	1.378694	1.268947	0.165475
C43	C	0.892229	0.434224	-0.485258
C44	C	1.392229	0.934224	0.014742
C45	C	0.892242	0.434204	-0.555225
C46	C	1.392242	0.934204	-0.055225
C47	C	0.623487	0.492128	-0.363502
C48	C	1.123487	0.992128	0.136498
C49	C	0.557745	0.492106	-0.363529
C50	C	1.057745	0.992106	0.136471
C51	C	0.527194	0.434327	-0.321029
C52	C	1.027194	0.934327	0.178971
C53	C	0.562390	0.376549	-0.278509
C54	C	1.062390	0.876549	0.221491
C55	C	0.628130	0.376567	-0.278487
C56	C	1.128130	0.876567	0.221513
N57	N	0.424209	0.427275	-0.265687
N58	N	0.924209	0.927275	0.234313
N59	N	0.361758	0.427264	-0.265710
N60	N	0.861758	0.927264	0.234290
C61	C	0.329121	0.434269	-0.321093
C62	C	0.829121	0.934269	0.178907
N63	N	0.361294	0.441304	-0.376455
N64	N	0.861294	0.941304	0.123545
N65	N	0.423751	0.441320	-0.376431
N66	N	0.923751	0.941320	0.123569
C67	C	0.455909	0.434301	-0.321048
C68	C	0.955909	0.934301	0.178952
C69	C	0.222649	0.492014	-0.363643
C70	C	0.722649	0.992014	0.136357
C71	C	0.156906	0.491986	-0.363671
C72	C	0.656906	0.991986	0.136329
C73	C	0.161552	0.376434	-0.278646
C74	C	0.661552	0.876434	0.221354
C75	C	0.227293	0.376458	-0.278623
C76	C	0.727293	0.876458	0.221377
C77	C	0.257838	0.434253	-0.321121
C78	C	0.757838	0.934253	0.178879
C79	C	1.056390	0.434225	-0.321141
C80	C	1.556390	0.934225	0.178859
C81	C	1.126359	0.434205	-0.321171
C82	C	1.626359	0.934205	0.178829
C83	C	0.901750	0.198959	-0.311638
C84	C	1.401750	0.698959	0.188362
C85	C	0.905821	0.098682	-0.307618
C86	C	1.405821	0.598682	0.192382
C87	C	0.951751	0.957316	-0.261714
C88	C	1.451751	1.457316	0.238286
C89	C	0.947989	1.051535	-0.265514
C90	C	1.447989	1.551535	0.234486
C91	C	0.867413	1.051604	-0.345927
C92	C	1.367413	1.551604	0.154073
C93	C	0.871175	0.957386	-0.342127
C94	C	1.371175	1.457386	0.157873
C95	C	0.913344	0.910245	-0.300019
C96	C	1.413344	1.410245	0.199981
C97	C	0.917102	0.816025	-0.296216
C98	C	1.417102	1.316025	0.203784
C99	C	0.836530	0.816096	-0.376632
C100	C	1.336530	1.316096	0.123368
C101	C	0.832768	0.910314	-0.380432
C102	C	1.332768	1.410314	0.119568
C103	C	0.930239	0.491707	-1.057007
C104	C	1.430239	0.991707	-0.557007
C105	C	0.930227	0.491736	-0.991266
C106	C	1.430227	0.991736	-0.491266
C107	C	0.892307	0.434063	-0.956059
C108	C	1.392307	0.934063	-0.456059
C109	C	0.854385	0.376374	-0.986601
C110	C	1.354385	0.876374	-0.486601
C111	C	0.854394	0.376353	-1.052341
C112	C	1.354394	0.876353	-0.552341
N113	N	0.890670	0.355126	-0.849672
N114	N	1.390670	0.855126	-0.349672
N115	N	0.890665	0.355149	-0.787222
N116	N	1.390665	0.855149	-0.287222
C117	C	0.892277	0.434124	-0.757987
C118	C	1.392277	0.934124	-0.257987
N119	N	0.893907	0.513077	-0.793562
N120	N	1.393907	1.013077	-0.293562
N121	N	0.893915	0.513054	-0.856019
N122	N	1.393915	1.013054	-0.356019
C123	C	0.892293	0.434080	-0.884775
C124	C	1.392293	0.934080	-0.384775
C125	C	0.930180	0.491845	-0.656170
C126	C	1.430180	0.991845	-0.156170
C127	C	0.930163	0.491876	-0.590427
C128	C	1.430163	0.991876	-0.090427
C129	C	0.854325	0.376506	-0.585763
C130	C	1.354325	0.876506	-0.085763
C131	C	0.854338	0.376483	-0.651505
C132	C	1.354338	0.876483	-0.151505
C133	C	0.892269	0.434152	-0.686704
C134	C	1.392269	0.934152	-0.186704
C135	C	0.892206	0.434255	-0.157517
C136	C	1.392206	0.934255	0.342483
C137	C	0.892325	0.434021	-0.087540
C138	C	1.392325	0.934021	0.412460
H139	H	0.648351	0.539188	-0.398108
H140	H	1.148351	1.039188	0.101892
Br141	Br	0.275052	0.298056	-0.220918
Br142	Br	0.775052	0.798056	0.279082
Br143	Br	0.810198	1.115596	-0.403080
Br144	Br	1.310198	1.615596	0.096920
Br145	Br	0.802929	0.298067	-1.093783
Br146	Br	1.302929	0.798067	-0.593783
H147	H	0.798436	0.948709	-0.414717
H148	H	1.298436	1.448709	0.085283
H149	H	0.961111	0.538700	-0.966400
H150	H	1.461111	1.038700	-0.466400
Br151	Br	0.974327	0.752048	-0.239066
Br152	Br	1.474327	1.252048	0.260934
H153	H	0.823467	0.329506	-0.676365
H154	H	1.323467	0.829506	-0.176365
H155	H	0.656781	0.329524	-0.243864
H156	H	1.156781	0.829524	0.256136
H157	H	0.986083	0.918934	-0.227423
H158	H	1.486083	1.418934	0.272577
H159	H	0.823448	0.329550	-0.557099
H160	H	1.323448	0.829550	-0.057099
Br161	Br	0.784392	0.752209	-0.428610
Br162	Br	1.284392	1.252209	0.071390
Br163	Br	0.981618	0.570177	-0.548988
Br164	Br	1.481618	1.070177	-0.048988
Br165	Br	0.981710	0.569980	-1.104775
Br166	Br	1.481710	1.069980	-0.604775
Br167	Br	0.981657	0.570107	-0.703944
Br168	Br	1.481657	1.070107	-0.203944
H169	H	0.979265	1.089857	-0.234323
H170	H	1.479265	1.589857	0.265677
H171	H	0.529089	0.539146	-0.398153
H172	H	1.029089	1.039146	0.101847
H173	H	0.247519	0.539070	-0.398251
H174	H	0.747519	1.039070	0.101749
Br175	Br	0.520930	0.298127	-0.220834
Br176	Br	1.020930	0.798127	0.279166
Br177	Br	0.109149	0.570382	-0.421383
Br178	Br	0.609149	1.070382	0.078617
H179	H	0.823510	0.329417	-0.957932
H180	H	1.323510	0.829417	-0.457932
Br181	Br	0.120097	0.298009	-0.220971
Br182	Br	0.620097	0.798009	0.279029
