data_functionalizedCrystal
_audit_creation_method	'MofGen! by Chris Wilmer'
_symmetry_space_group_name_H-M	'P1'
_symmetry_Int_Tables_number	1
_symmetry_cell_setting	triclinic
loop_
_symmetry_equiv_pos_as_xyz
  x,y,z
_cell_length_a	21.395364
_cell_length_b	13.897447
_cell_length_c	21.395356
_cell_angle_alpha	89.978542
_cell_angle_beta	89.983617
_cell_angle_gamma	90.034481
loop_
_atom_site_label
_atom_site_type_symbol
_atom_site_fract_x
_atom_site_fract_y
_atom_site_fract_z
Zn1	Zn	0.957857	-0.383674	-0.354280
Zn2	Zn	0.957795	-0.544974	-0.249510
Zn3	Zn	0.853087	-0.383737	-0.249516
Zn4	Zn	0.853062	-0.544971	-0.354250
O5	O	0.905450	-0.464339	-0.301889
O6	O	1.045527	-0.405046	-0.340391
O7	O	0.943890	-0.523613	-0.161833
O8	O	0.867022	-0.248747	-0.263429
O9	O	1.045481	-0.523552	-0.263417
O10	O	0.943996	-0.248701	-0.340398
O11	O	0.866962	-0.405152	-0.161838
O12	O	0.765406	-0.405150	-0.263400
O13	O	0.866979	-0.523547	-0.441932
O14	O	0.765387	-0.523608	-0.340347
O15	O	0.943971	-0.405043	-0.441954
O16	O	0.943866	-0.679955	-0.263389
O17	O	0.866918	-0.679953	-0.340341
C18	C	0.742663	-0.464386	-0.301871
C19	C	0.673022	-0.464429	-0.301879
C20	C	0.640355	-0.402824	-0.342021
C21	C	0.574919	-0.402798	-0.342023
C22	C	0.542153	-0.464395	-0.301890
C23	C	0.574828	-0.526005	-0.261740
C24	C	0.640262	-0.526022	-0.261734
C25	C	0.438441	-0.551263	-0.296857
C26	C	0.373008	-0.551247	-0.296867
C27	C	0.340333	-0.464342	-0.301904
C28	C	0.373098	-0.377449	-0.306944
C29	C	0.438533	-0.377466	-0.306939
C30	C	0.471201	-0.464383	-0.301891
C31	C	0.236713	-0.402704	-0.342051
C32	C	0.171276	-0.402677	-0.342049
C33	C	0.171187	-0.525891	-0.261769
C34	C	0.236622	-0.525910	-0.261768
C35	C	0.269381	-0.464318	-0.301912
C36	C	0.905400	-0.714953	-0.301874
C37	C	0.905435	-0.822167	-0.301889
C38	C	0.905465	-0.909237	-0.301903
C39	C	0.905509	-1.018469	-0.301919
C40	C	1.068874	-0.464292	-0.301907
C41	C	1.138515	-0.464273	-0.301915
C42	C	0.905479	-0.464288	-0.465312
C43	C	0.905491	-0.464267	-0.534953
C44	C	0.905519	-0.212746	-0.301917
C45	C	0.905548	-0.105532	-0.301929
C46	C	0.945618	-0.525747	-1.036748
C47	C	0.945607	-0.525777	-0.971312
C48	C	0.905551	-0.464114	-0.938592
C49	C	0.865492	-0.402432	-0.971312
C50	C	0.865500	-0.402410	-1.036747
C51	C	0.900615	-0.377245	-0.834933
C52	C	0.900611	-0.377266	-0.769500
C53	C	0.905523	-0.464182	-0.736771
C54	C	0.910452	-0.551081	-0.769484
C55	C	0.910460	-0.551059	-0.834918
C56	C	0.905538	-0.464131	-0.867640
C57	C	0.945564	-0.525897	-0.633106
C58	C	0.945549	-0.525930	-0.567669
C59	C	0.865437	-0.402576	-0.567671
C60	C	0.865449	-0.402553	-0.633106
C61	C	0.905516	-0.464212	-0.665820
C62	C	0.905458	-0.464320	-0.139101
C63	C	0.905567	-0.464070	-0.069460
H64	H	0.263220	-0.576080	-0.229082
F65	F	0.675030	-0.591591	-0.219006
F66	F	0.473402	-0.284992	-0.312301
F67	F	0.822793	-0.336968	-0.532851
H68	H	0.548317	-0.352627	-0.374711
H69	H	0.896656	-0.306457	-0.861575
F70	F	0.136319	-0.591442	-0.219052
H71	H	0.832885	-0.352183	-1.063381
H72	H	0.978160	-0.576164	-0.541036
H73	H	0.144680	-0.352504	-0.374737
H74	H	0.914471	-0.621815	-0.861550
H75	H	0.832837	-0.352325	-0.659741
F76	F	0.338142	-0.643726	-0.291511
H77	H	0.896601	-0.306507	-0.742870
F78	F	0.988236	-0.591426	-0.936490
H79	H	0.465039	-0.622037	-0.292754
H80	H	0.667023	-0.352670	-0.374709
F81	F	0.338329	-0.284951	-0.312305
H82	H	0.263387	-0.352545	-0.374735
F83	F	0.539956	-0.591557	-0.219025
F84	F	0.988256	-0.591379	-1.071561
H85	H	0.914453	-0.621856	-0.742838
H86	H	0.978188	-0.576107	-0.659743
F87	F	0.822863	-0.336804	-0.936488
