data_functionalizedCrystal
_audit_creation_method	'MofGen! by Chris Wilmer'
_symmetry_space_group_name_H-M	'P1'
_symmetry_Int_Tables_number	1
_symmetry_cell_setting	triclinic
loop_
_symmetry_equiv_pos_as_xyz
  x,y,z
_cell_length_a	9.130307
_cell_length_b	17.699083
_cell_length_c	17.699083
_cell_angle_alpha	96.716985
_cell_angle_beta	89.994425
_cell_angle_gamma	89.994731
loop_
_atom_site_label
_atom_site_type_symbol
_atom_site_fract_x
_atom_site_fract_y
_atom_site_fract_z
O1	O	-0.121597	-1.004072	0.095712
O2	O	-0.121645	-0.783693	0.108164
O3	O	-0.121607	-0.900109	-0.008251
O4	O	-0.121635	-0.887656	0.212127
O5	O	0.121992	-0.900107	-0.008256
O6	O	0.121954	-0.783692	0.108160
O7	O	0.122002	-1.004070	0.095707
Cu8	Cu	0.144220	-0.893881	0.101933
Cu9	Cu	-0.143864	-0.893883	0.101938
O10	O	0.121964	-0.887655	0.212123
C11	C	0.000148	-0.755495	0.107716
C12	C	0.000130	-0.671477	0.106377
N13	N	-0.346486	-0.893885	0.101936
C14	C	0.000193	-0.899662	-0.036451
C15	C	0.000193	-0.898323	-0.120469
C16	C	-0.346443	-0.997172	-0.000960
C17	C	-0.423087	-1.048813	-0.052413
C18	C	-0.576421	-1.048813	-0.052422
C19	C	-0.653113	-0.997167	-0.000970
C20	C	-0.576468	-0.945526	0.050484
C21	C	-0.423131	-0.945530	0.050485
C22	C	-0.576512	-0.842244	0.153382
C23	C	-0.423179	-0.842239	0.153388
C24	C	-0.653204	-0.790598	0.204835
C25	C	-0.576560	-0.738952	0.256286
C26	C	-0.423217	-0.738954	0.256291
C27	C	-0.346534	-0.790598	0.204842
N28	N	0.346843	-0.893885	0.101929
C29	C	0.000205	-1.032268	0.096156
C30	C	0.000214	-1.116286	0.097494
C31	C	0.000122	-0.622856	0.174710
C32	C	0.000141	-0.543913	0.173448
C33	C	0.000158	-0.513592	0.103852
C34	C	0.000171	-0.562219	0.035513
C35	C	0.000162	-0.641161	0.036776
C36	C	0.000207	-0.243856	0.030418
C37	C	0.000212	-0.164908	0.029160
C38	C	0.000186	-0.146608	0.167090
C39	C	0.000178	-0.225550	0.168353
C40	C	0.000198	-0.274170	0.100015
C41	C	0.000180	-0.359769	0.101384
C42	C	0.000165	-0.427995	0.102481
C43	C	0.000210	-0.966656	-0.169090
C44	C	0.000197	-0.965394	-0.248033
C45	C	0.000177	-0.895798	-0.278354
C46	C	0.000156	-0.827459	-0.229727
C47	C	0.000158	-0.828722	-0.150785
C48	C	0.000143	-0.822364	-0.548090
C49	C	0.000144	-0.821106	-0.627038
C50	C	0.000181	-0.959036	-0.645338
C51	C	0.000184	-0.960299	-0.566396
C52	C	0.000155	-0.891961	-0.517776
C53	C	0.000166	-0.893330	-0.432177
C54	C	0.000176	-0.894427	-0.363951
C55	C	0.000161	-0.888102	0.240322
C56	C	0.000151	-0.889440	0.324340
H57	H	-0.360631	-1.090864	-0.094304
C58	C	-0.660740	-1.105618	-0.109014
H59	H	-0.763042	-1.098221	-0.101642
H60	H	-0.635601	-1.097593	-0.159544
H61	H	-0.635611	-1.156089	-0.100755
H62	H	0.000225	-0.283434	-0.025228
C63	C	0.000098	-0.656206	0.251266
H64	H	0.000080	-0.710185	0.242234
H65	H	0.085042	-0.639515	0.279396
H66	H	-0.084865	-0.639500	0.279394
C67	C	0.000199	-1.036854	-0.533047
H68	H	0.000193	-1.077372	-0.573311
H69	H	0.085146	-1.040216	-0.502635
H70	H	-0.084762	-1.040210	-0.502630
C71	C	0.000139	-0.753558	-0.097298
H72	H	0.000128	-0.764277	-0.045941
H73	H	0.085077	-0.725009	-0.106477
H74	H	-0.084831	-0.725019	-0.106473
C75	C	0.000127	-0.490433	0.248615
H76	H	0.000097	-0.519797	0.290244
H77	H	0.085079	-0.459265	0.250992
H78	H	-0.084828	-0.459251	0.250988
H79	H	-0.639012	-0.696909	0.298178
C80	C	-0.821775	-0.997172	-0.000969
H81	H	-0.856472	-0.959023	0.037045
H82	H	-0.856463	-0.987000	-0.049359
H83	H	-0.856444	-1.045499	0.009427
C84	C	0.000154	-0.258903	0.244907
H85	H	0.000137	-0.312881	0.235871
H86	H	0.085098	-0.242213	0.273038
H87	H	-0.084810	-0.242199	0.273036
H88	H	0.000235	-1.023330	-0.144409
C89	C	0.000136	-0.747195	-0.494618
H90	H	0.000144	-0.705567	-0.523984
H91	H	-0.084809	-0.744813	-0.463434
H92	H	0.085099	-0.744823	-0.463450
H93	H	-0.778057	-0.790603	0.204829
H94	H	-0.360821	-0.696905	0.298194
C95	C	-0.177872	-0.790604	0.204847
H96	H	-0.143180	-0.828761	0.166840
H97	H	-0.143177	-0.742282	0.194464
H98	H	-0.143205	-0.800790	0.253241
H99	H	0.000168	-0.680748	-0.018868
C100	C	0.000122	-0.750902	-0.263074
H101	H	0.000096	-0.710386	-0.222808
H102	H	0.085066	-0.747537	-0.293494
H103	H	-0.084841	-0.747548	-0.293482
H104	H	0.000197	-1.014680	-0.684934
C105	C	-0.177780	-0.997166	-0.000956
H106	H	-0.143118	-0.959010	0.037053
H107	H	-0.143079	-1.045488	0.009428
H108	H	-0.143090	-0.986980	-0.049348
C109	C	0.000110	-0.744548	-0.660393
H110	H	0.000129	-0.753587	-0.714371
H111	H	-0.084849	-0.716421	-0.643694
H112	H	0.085058	-0.716414	-0.643700
C113	C	0.000201	-1.040559	-0.301516
H114	H	0.000173	-1.029841	-0.352874
H115	H	0.085153	-1.069107	-0.292350
H116	H	-0.084754	-1.069097	-0.292327
C117	C	0.000174	-0.093127	0.242264
H118	H	0.000143	-0.122493	0.283892
H119	H	0.085123	-0.061957	0.244644
H120	H	-0.084784	-0.061947	0.244636
C121	C	0.000245	-0.131557	-0.047400
H122	H	0.000271	-0.171819	-0.087919
H123	H	-0.084699	-0.101136	-0.050762
H124	H	0.085208	-0.101148	-0.050751
C125	C	0.000187	-0.528869	-0.041041
H126	H	0.000175	-0.474890	-0.032008
H127	H	0.085137	-0.545572	-0.069175
H128	H	-0.084771	-0.545562	-0.069167
