data_functionalizedCrystal
_audit_creation_method	'MofGen! by Chris Wilmer'
_symmetry_space_group_name_H-M	'P1'
_symmetry_Int_Tables_number	1
_symmetry_cell_setting	triclinic
loop_
_symmetry_equiv_pos_as_xyz
  x,y,z
_cell_length_a	15.944551
_cell_length_b	15.944551
_cell_length_c	14.421503
_cell_angle_alpha	90.003340
_cell_angle_beta	89.996859
_cell_angle_gamma	83.498738
loop_
_atom_site_label
_atom_site_type_symbol
_atom_site_fract_x
_atom_site_fract_y
_atom_site_fract_z
O1	O	1.114529	0.108320	-0.077017
O2	O	0.869980	0.121677	-0.077040
O3	O	0.998933	-0.007276	-0.077020
O4	O	0.985576	0.237273	-0.077038
O5	O	0.998911	-0.007257	0.077204
O6	O	0.869958	0.121696	0.077183
O7	O	1.114508	0.108340	0.077206
Cu8	Cu	0.992231	0.115020	0.091277
Cu9	Cu	0.992256	0.114997	-0.091110
O10	O	0.985555	0.237293	0.077186
C11	C	0.998367	-0.038561	0.000092
C12	C	0.996705	-0.131807	0.000093
C13	C	0.838675	0.121132	0.000069
C14	C	0.745429	0.119470	0.000060
C15	C	0.912801	-0.346663	0.000072
C16	C	0.951753	-0.407671	0.076117
C17	C	0.993698	-0.302533	0.000085
C18	C	0.951793	-0.407674	-0.075935
C19	C	0.990787	-0.467445	0.000074
C20	C	1.032672	-0.362312	0.076193
C21	C	1.032701	-0.362308	-0.075927
C22	C	1.071711	-0.423298	0.000136
C23	C	0.995372	-0.207530	0.000092
C24	C	0.989119	-0.562446	0.000073
C25	C	0.530572	0.035565	0.000084
C26	C	0.469563	0.074518	-0.075959
C27	C	0.574703	0.116462	0.000071
C28	C	0.469564	0.074556	0.076093
C29	C	0.409790	0.113551	0.000086
C30	C	0.514922	0.155437	-0.076035
C31	C	0.514929	0.155464	0.076086
C32	C	0.453937	0.194476	0.000024
C33	C	0.669705	0.118137	0.000062
C34	C	0.314789	0.111883	0.000089
C35	C	1.145813	0.108885	0.000096
C36	C	1.239059	0.110547	0.000098
C37	C	0.986120	0.268577	0.000072
C38	C	0.987782	0.361823	0.000066
N39	N	0.992219	0.115035	0.219558
N40	N	0.992275	0.114975	-0.219392
C41	C	0.932581	0.174636	0.469202
C42	C	1.008481	0.190943	0.531011
C43	C	0.992240	0.115015	0.408719
C44	C	0.916359	0.098727	0.531005
C45	C	0.992253	0.114997	0.591441
C46	C	1.068178	0.131360	0.469167
C47	C	0.976007	0.039111	0.469156
C48	C	1.051961	0.055386	0.530936
C49	C	0.992231	0.115027	0.303458
C50	C	0.992270	0.114985	0.696700
H51	H	0.917527	-0.427771	0.140401
H52	H	1.066850	-0.342314	0.140554
C53	C	0.481483	-0.054879	-0.162595
C54	C	0.442416	0.028320	-0.162737
H55	H	0.464721	-0.083403	-0.216163
H56	H	0.541020	-0.054604	-0.162939
H57	H	0.465188	-0.083058	-0.108590
H58	H	0.458715	0.056501	-0.216739
H59	H	0.382866	0.028048	-0.162401
H60	H	0.845652	-0.313356	0.000141
H61	H	0.535052	0.189660	0.140373
C62	C	1.219720	-0.407663	0.001015
C63	C	1.162440	-0.468056	0.000212
H64	H	1.275732	-0.435293	0.001073
H65	H	1.211332	-0.373029	-0.052516
H66	H	1.210950	-0.373717	0.055043
H67	H	1.171206	-0.501998	-0.053820
H68	H	1.170832	-0.502705	0.053748
C69	C	0.358091	0.297544	-0.078944
C70	C	0.409163	0.285198	-0.000036
H71	H	0.330446	0.353550	-0.078979
H72	H	0.392039	0.288802	-0.132962
H73	H	0.317143	0.258661	-0.078394
H74	H	0.450116	0.324078	-0.000589
H75	H	0.375213	0.293949	0.053997
H76	H	0.563905	-0.031573	-0.000005
H77	H	0.917575	-0.427758	-0.140230
H78	H	1.022224	0.255126	0.558180
C79	C	0.629594	0.202677	-0.162164
C80	C	0.541909	0.201576	-0.162924
H81	H	0.646255	0.231154	-0.215809
H82	H	0.645478	0.231226	-0.108242
H83	H	0.656516	0.146393	-0.161941
H84	H	0.514987	0.257860	-0.163140
H85	H	0.526018	0.173027	-0.216860
H86	H	1.132368	0.145205	0.442119
H87	H	0.449469	0.040333	0.140379
C88	C	0.881766	0.322176	0.463821
C89	C	0.864547	0.242750	0.432594
H90	H	0.839770	0.364227	0.441214
H91	H	0.881634	0.322971	0.529677
H92	H	0.935569	0.333201	0.441735
H93	H	0.810747	0.231723	0.454686
H94	H	0.864670	0.241954	0.366725
H95	H	1.066897	-0.342186	-0.140214
C96	C	1.199511	0.004563	0.535925
C97	C	1.120146	-0.012691	0.567312
H98	H	1.241605	-0.037460	0.558390
H99	H	1.200175	0.004506	0.470068
H100	H	1.210581	0.058340	0.558047
H101	H	1.109073	-0.066465	0.545184
H102	H	1.119480	-0.012643	0.633183
H103	H	0.962240	-0.025051	0.441965
C104	C	0.767352	0.142655	0.536496
C105	C	0.829725	0.080128	0.567667
H106	H	0.713867	0.131173	0.559123
H107	H	0.779295	0.196153	0.558591
H108	H	0.766584	0.143034	0.470633
H109	H	0.830497	0.079754	0.633531
H110	H	0.817779	0.026617	0.545576
