data_functionalizedCrystal
_audit_creation_method	'MofGen! by Chris Wilmer'
_symmetry_space_group_name_H-M	'P1'
_symmetry_Int_Tables_number	1
_symmetry_cell_setting	triclinic
loop_
_symmetry_equiv_pos_as_xyz
  x,y,z
_cell_length_a	23.532407
_cell_length_b	13.101039
_cell_length_c	14.044220
_cell_angle_alpha	93.667477
_cell_angle_beta	91.981222
_cell_angle_gamma	93.331090
loop_
_atom_site_label
_atom_site_type_symbol
_atom_site_fract_x
_atom_site_fract_y
_atom_site_fract_z
O1	O	0.764355	0.085088	-0.109759
O2	O	0.599394	0.085118	-0.126398
O3	O	0.679398	0.085094	0.019883
O4	O	0.684351	0.085113	-0.256039
O5	O	0.673659	-0.085335	0.009370
O6	O	0.593655	-0.085310	-0.136910
O7	O	0.758615	-0.085340	-0.120271
Zn8	Zn	0.675224	-0.112384	-0.130260
Zn9	Zn	0.682786	0.112162	-0.116409
O10	O	0.678612	-0.085315	-0.266552
C11	C	0.575286	-0.000092	-0.131230
C12	C	0.512000	-0.000081	-0.129955
C13	C	0.674361	-0.000121	0.049920
C14	C	0.667895	-0.000121	0.155085
N15	N	0.670067	-0.265631	-0.139712
C16	C	0.117154	-0.000121	-0.208533
C17	C	0.057690	-0.000128	-0.207350
O18	O	0.024892	-0.000160	-0.280192
N19	N	0.030350	-0.000132	-0.120386
C20	C	0.062478	-0.000141	-0.034600
O21	O	0.033763	-0.000146	0.039479
C22	C	0.121941	-0.000142	-0.035784
C23	C	0.149278	-0.000127	-0.122754
C24	C	0.144492	-0.000108	-0.295495
C25	C	0.203952	-0.000100	-0.296678
C26	C	0.236076	-0.000105	-0.210898
C27	C	0.208738	-0.000119	-0.123936
C28	C	0.154067	-0.000157	0.050000
C29	C	0.213534	-0.000159	0.048808
C30	C	0.240871	-0.000144	-0.038161
C31	C	0.300322	-0.000116	-0.039339
N32	N	0.327662	-0.000111	-0.126303
C33	C	0.295539	-0.000106	-0.212083
C34	C	-0.062399	-0.000140	-0.032119
C35	C	-0.121861	-0.000132	-0.030933
C36	C	-0.126645	-0.000121	-0.203683
C37	C	-0.067182	-0.000122	-0.204868
C38	C	-0.035060	-0.000136	-0.119083
C39	C	0.420411	-0.000088	-0.214560
C40	C	0.479877	-0.000075	-0.215735
C41	C	0.484655	-0.000092	-0.042985
C42	C	0.425194	-0.000099	-0.041809
C43	C	0.393073	-0.000100	-0.127605
O44	O	0.333156	-0.000088	0.033464
O45	O	0.324261	-0.000114	-0.286150
C46	C	0.782724	-0.000128	-0.115439
C47	C	0.846010	-0.000132	-0.116713
C48	C	0.663052	-0.474671	-0.152581
C49	C	0.694960	-0.525557	-0.094083
C50	C	0.691057	-0.641874	-0.101244
C51	C	0.666955	-0.358344	-0.145422
N52	N	0.687946	0.265409	-0.106949
C53	C	0.683649	-0.000099	-0.296589
C54	C	0.690115	-0.000092	-0.401754
C55	C	0.656074	-0.000104	0.347636
C56	C	0.701933	-0.000109	0.405701
C57	C	0.695356	-0.000100	0.512843
C58	C	0.662651	-0.000113	0.240484
H59	H	0.502131	-0.000063	-0.286558
H60	H	0.226205	-0.000087	-0.367497
H61	H	0.510821	-0.000092	0.026855
H62	H	0.611877	-0.000093	0.378390
O63	O	-0.148482	-0.000269	0.053482
C64	C	-0.215773	-0.088605	0.149667
C65	C	-0.185678	-0.088559	0.054016
H66	H	-0.245843	-0.159990	0.150138
H67	H	-0.241136	-0.017333	0.158954
H68	H	-0.182581	-0.088556	0.210754
H69	H	-0.218831	-0.088644	-0.007129
H70	H	-0.160304	-0.159825	0.044812
H71	H	-0.044928	-0.000116	-0.275686
O72	O	0.626936	-0.527021	-0.218622
C73	C	0.546219	-0.648277	-0.247017
C74	C	0.587085	-0.589057	-0.172127
H75	H	0.513982	-0.698431	-0.209453
H76	H	0.571562	-0.698573	-0.297085
H77	H	0.522835	-0.591604	-0.289960
H78	H	0.610479	-0.645656	-0.129116
H79	H	0.561711	-0.538746	-0.122124
H80	H	0.725209	-0.481764	-0.038625
H81	H	-0.036248	-0.000143	0.037743
H82	H	0.394264	-0.000092	-0.284423
H83	H	0.131820	-0.000170	0.120819
H84	H	0.746136	-0.000048	0.374950
O85	O	0.244653	-0.000122	0.132233
C86	C	0.243114	-0.000200	0.303697
C87	C	0.207806	-0.000224	0.209293
H88	H	0.213338	-0.000304	0.366024
H89	H	0.273454	0.071145	0.311933
H90	H	0.268693	-0.071503	0.303014
H91	H	0.182193	0.071031	0.209911
H92	H	0.177501	-0.071615	0.201094
O93	O	0.113380	-0.000054	-0.378913
C94	C	0.114930	-0.000084	-0.550383
C95	C	0.150227	-0.000133	-0.455975
H96	H	0.144705	-0.000170	-0.612714
H97	H	0.089386	0.071260	-0.549816
H98	H	0.084557	-0.071388	-0.558510
H99	H	0.180631	0.071122	-0.447788
H100	H	0.175732	-0.071524	-0.456584
O101	O	-0.157824	0.000057	-0.287028
C102	C	-0.177130	0.088318	-0.428898
C103	C	-0.141790	0.088255	-0.334535
H104	H	-0.164171	0.159608	-0.467344
H105	H	-0.224331	0.088378	-0.413159
H106	H	-0.169024	0.016963	-0.476084
H107	H	-0.149847	0.159598	-0.287303
H108	H	-0.094600	0.088142	-0.350345
O109	O	0.398725	-0.000145	0.042752
C110	C	0.409755	-0.000086	0.213975
C111	C	0.439798	-0.000048	0.118276
H112	H	0.442950	0.000013	0.275063
H113	H	0.379659	-0.071433	0.214517
H114	H	0.384411	0.071214	0.223193
H115	H	0.465173	-0.071301	0.108997
H116	H	0.469860	0.071346	0.117778
