data_functionalizedCrystal
_audit_creation_method	'MofGen! by Chris Wilmer'
_symmetry_space_group_name_H-M	'P1'
_symmetry_Int_Tables_number	1
_symmetry_cell_setting	triclinic
loop_
_symmetry_equiv_pos_as_xyz
  x,y,z
_cell_length_a	13.339070
_cell_length_b	10.654550
_cell_length_c	9.730223
_cell_angle_alpha	90.004253
_cell_angle_beta	90.003602
_cell_angle_gamma	100.057112
loop_
_atom_site_label
_atom_site_type_symbol
_atom_site_fract_x
_atom_site_fract_y
_atom_site_fract_z
O1	O	-1.346709	-0.631121	-0.114339
O2	O	-1.051601	-0.548282	-0.114331
O3	O	-1.205940	-0.409253	-0.114326
O4	O	-1.192370	-0.770150	-0.114343
O5	O	-1.205930	-0.409245	0.114254
O6	O	-1.051591	-0.548274	0.114249
O7	O	-1.346699	-0.631112	0.114241
Zn8	Zn	-1.199143	-0.589692	0.150537
Zn9	Zn	-1.199156	-0.589703	-0.150627
O10	O	-1.192360	-0.770141	0.114237
C11	C	-1.013808	-0.534285	-0.000039
C12	C	-0.901214	-0.492575	-0.000036
C13	C	-1.204938	-0.362115	-0.000037
C14	C	-1.201957	-0.221665	-0.000039
C15	C	-1.384491	-0.645110	-0.000053
C16	C	-1.497086	-0.686819	-0.000065
C17	C	-0.538696	-0.816889	-0.000073
C18	C	-0.644484	-0.856082	-0.000081
C19	C	-0.708672	-0.765208	-0.000069
C20	C	-0.667061	-0.635136	-0.000051
C21	C	-0.561263	-0.595939	-0.000054
C22	C	-0.731238	-0.544259	-0.000050
C23	C	-0.689628	-0.414186	-0.000032
C24	C	-0.583840	-0.374996	-0.000035
C25	C	-0.519653	-0.465870	-0.000046
C26	C	-0.837036	-0.583455	-0.000047
C27	C	-0.859603	-0.362505	-0.000028
C28	C	-0.753816	-0.323313	-0.000021
C29	C	-1.193361	-0.817280	-0.000055
C30	C	-1.196342	-0.957730	-0.000062
N31	N	-1.199142	-0.589686	0.356074
C32	C	-1.292830	-0.172863	-0.000042
C33	C	-1.290023	-0.040894	-0.000059
C34	C	-1.105463	-0.006540	-0.000063
C35	C	-1.108271	-0.138506	-0.000057
N36	N	-1.199166	-0.589702	-0.356163
C37	C	-1.267507	-0.528167	0.428002
C38	C	-1.267517	-0.528171	0.571885
C39	C	-1.130794	-0.651221	0.571899
C40	C	-1.130779	-0.651209	0.428019
H41	H	-0.870905	-0.689361	-0.000056
H42	H	-0.719921	-0.217405	-0.000017
C43	C	-1.008306	-0.192193	-0.000049
H44	H	-0.952108	-0.123768	-0.000041
H45	H	-1.005572	-0.242970	-0.079757
H46	H	-1.005564	-0.242948	0.079675
H47	H	-1.029186	0.061184	-0.000075
C48	C	-0.538066	-0.231923	-0.000040
H49	H	-0.465868	-0.221596	-0.000059
H50	H	-0.560030	-0.192942	0.079671
H51	H	-0.560049	-0.192968	-0.079761
C52	C	-1.055577	-0.718857	0.651036
H53	H	-1.014844	-0.755469	0.587588
H54	H	-1.092394	-0.784009	0.707166
H55	H	-1.013064	-0.658794	0.707161
H56	H	-0.794808	-0.797127	-0.000078
H57	H	-0.911865	-0.288508	-0.000025
H58	H	-1.364021	-0.001167	-0.000064
H59	H	-1.369115	-0.240568	-0.000030
H60	H	-1.075104	-0.701303	0.369451
H61	H	-1.323170	-0.478069	0.369427
C62	C	-0.468096	-0.916838	-0.000102
H63	H	-0.508026	-0.999918	-0.000121
H64	H	-0.426343	-0.906143	0.079599
H65	H	-0.426373	-0.906131	-0.079832
C66	C	-1.342722	-0.460508	0.651000
H67	H	-1.383436	-0.423876	0.587541
H68	H	-1.305890	-0.395367	0.707146
H69	H	-1.385256	-0.520549	0.707107
C70	C	-0.690254	-0.999146	-0.000103
H71	H	-0.762452	-1.009475	-0.000116
H72	H	-0.668277	-1.038122	0.079600
H73	H	-0.668283	-1.038105	-0.079832
C74	C	-0.403285	-0.422761	-0.000038
H75	H	-0.371022	-0.495513	-0.000049
H76	H	-0.383516	-0.373090	0.079674
H77	H	-0.383522	-0.373101	-0.079758
