data_functionalizedCrystal
_audit_creation_method	'MofGen! by Chris Wilmer'
_symmetry_space_group_name_H-M	'P1'
_symmetry_Int_Tables_number	1
_symmetry_cell_setting	triclinic
loop_
_symmetry_equiv_pos_as_xyz
  x,y,z
_cell_length_a	14.044220
_cell_length_b	10.654550
_cell_length_c	9.130313
_cell_angle_alpha	90.000110
_cell_angle_beta	90.004466
_cell_angle_gamma	91.163110
loop_
_atom_site_label
_atom_site_type_symbol
_atom_site_fract_x
_atom_site_fract_y
_atom_site_fract_z
O1	O	1.259693	-0.302980	-0.121637
O2	O	1.759693	0.197020	0.378363
O3	O	0.983652	-0.292047	-0.121674
O4	O	1.483652	0.207953	0.378326
O5	O	1.128019	-0.115412	-0.121649
O6	O	1.628019	0.384588	0.378351
O7	O	1.115326	-0.479615	-0.121662
O8	O	1.615326	0.020385	0.378338
O9	O	1.128017	-0.115417	0.121950
O10	O	1.628017	0.384583	0.621950
O11	O	0.983650	-0.292052	0.121925
O12	O	1.483650	0.207948	0.621925
O13	O	1.259691	-0.302985	0.121962
O14	O	1.759691	0.197015	0.621962
Cu15	Cu	1.121671	-0.297519	0.144186
Cu16	Cu	1.621671	0.202481	0.644186
Cu17	Cu	1.121673	-0.297513	-0.143898
Cu18	Cu	1.621673	0.202487	0.356102
O19	O	1.115324	-0.479620	0.121937
O20	O	1.615324	0.020380	0.621937
C21	C	0.948305	-0.287263	0.000121
C22	C	1.448305	0.212737	0.500121
C23	C	0.842986	-0.272988	0.000106
C24	C	1.342986	0.227012	0.500106
N25	N	1.121676	-0.297523	0.346809
N26	N	1.621676	0.202477	0.846809
C27	C	1.127086	-0.068523	0.000149
C28	C	1.627086	0.431477	0.500149
C29	C	1.124298	0.071201	0.000143
C30	C	1.624298	0.571201	0.500143
C31	C	0.650153	-0.246889	0.000136
C32	C	1.150153	0.253111	0.500136
C33	C	0.593185	-0.348137	0.000139
C34	C	1.093185	0.151863	0.500139
C35	C	0.485886	-0.333615	0.000156
C36	C	0.985886	0.166385	0.500156
C37	C	0.757461	-0.261409	0.000120
C38	C	1.257461	0.238591	0.500120
C39	C	1.295038	-0.307769	0.000164
C40	C	1.795038	0.192231	0.500164
C41	C	1.400358	-0.322044	0.000169
C42	C	1.900358	0.177956	0.500169
C43	C	1.116257	-0.526509	0.000136
C44	C	1.616257	-0.026509	0.500136
C45	C	1.119045	-0.666233	0.000132
C46	C	1.619045	-0.166233	0.500132
C47	C	1.209299	0.142144	0.000159
C48	C	1.709299	0.642144	0.500159
C49	C	1.206673	0.273429	0.000148
C50	C	1.706673	0.773429	0.500148
C51	C	1.034038	0.262814	0.000112
C52	C	1.534038	0.762814	0.500112
C53	C	1.036664	0.131532	0.000112
C54	C	1.536664	0.631532	0.500112
C55	C	1.308969	0.148274	0.000186
C56	C	1.808969	0.648274	0.500186
C57	C	1.306343	0.279559	0.000176
C58	C	1.806343	0.779559	0.500176
N59	N	1.121675	-0.297500	-0.346520
N60	N	1.621675	0.202500	0.153480
C61	C	1.185618	-0.219340	0.423472
C62	C	1.685618	0.280660	0.923472
C63	C	1.185616	-0.219324	0.576808
C64	C	1.685616	0.280676	1.076808
C65	C	1.057725	-0.375686	0.576806
C66	C	1.557725	0.124314	1.076806
C67	C	1.057724	-0.375694	0.423472
C68	C	1.557724	0.124306	0.923472
C69	C	1.259458	-0.129069	0.423474
C70	C	1.759458	0.370931	0.923474
C71	C	1.259455	-0.129054	0.576811
C72	C	1.759455	0.370946	1.076811
H73	H	0.624998	-0.445725	0.000129
H74	H	1.124998	0.054275	0.500129
H75	H	1.347954	0.115001	-0.101747
H76	H	1.847954	0.615001	0.398253
Cl77	Cl	1.365780	-0.186995	0.350049
Cl78	Cl	1.865780	0.313005	0.850049
Cl79	Cl	0.601039	-0.096230	0.000144
Cl80	Cl	1.101039	0.403770	0.500144
Cl81	Cl	1.357953	0.088330	0.162592
Cl82	Cl	1.857953	0.588330	0.662592
H83	H	1.236409	-0.035516	0.624358
H84	H	1.736409	0.464484	1.124358
Cl85	Cl	0.929801	0.042348	0.000055
Cl86	Cl	1.429801	0.542348	0.500055
Cl87	Cl	0.977325	-0.473965	0.327094
Cl88	Cl	1.477325	0.026035	0.827094
Cl89	Cl	1.371995	-0.173575	0.641090
Cl90	Cl	1.871995	0.326425	1.141090
H91	H	1.336465	0.322177	-0.105000
H92	H	1.836465	0.822177	0.395000
H93	H	1.343896	0.317543	0.102124
H94	H	1.843896	0.817543	0.602124
H95	H	1.243262	-0.030909	0.381855
H96	H	1.743262	0.469091	0.881855
Cl97	Cl	0.923876	0.338668	0.000070
Cl98	Cl	1.423876	0.838668	0.500070
Cl99	Cl	0.977333	-0.473953	0.673191
Cl100	Cl	1.477333	0.026047	1.173191
