data_functionalizedCrystal
_audit_creation_method	'MofGen! by Chris Wilmer'
_symmetry_space_group_name_H-M	'P1'
_symmetry_Int_Tables_number	1
_symmetry_cell_setting	triclinic
loop_
_symmetry_equiv_pos_as_xyz
  x,y,z
_cell_length_a	16.992694
_cell_length_b	23.532407
_cell_length_c	15.455313
_cell_angle_alpha	92.643560
_cell_angle_beta	87.142206
_cell_angle_gamma	86.758451
loop_
_atom_site_label
_atom_site_type_symbol
_atom_site_fract_x
_atom_site_fract_y
_atom_site_fract_z
O1	O	1.042902	0.118384	-0.072037
O2	O	0.814628	0.117059	-0.072062
O3	O	0.935648	0.035132	-0.072033
O4	O	0.921882	0.200311	-0.072066
O5	O	0.928727	0.039796	0.072228
O6	O	0.807707	0.121723	0.072198
O7	O	1.035981	0.123049	0.072224
Cu8	Cu	0.921212	0.122812	0.085383
Cu9	Cu	0.929397	0.117296	-0.085222
O10	O	0.914962	0.204976	0.072194
C11	C	0.781968	0.117688	0.000065
C12	C	0.694964	0.112604	0.000056
C13	C	0.644342	0.161650	0.000047
C14	C	0.562592	0.156871	0.000060
C15	C	0.531466	0.103045	0.000076
C16	C	0.582095	0.053995	0.000088
C17	C	0.663843	0.058775	0.000081
C18	C	0.288022	0.083234	0.000103
C19	C	0.206267	0.078457	0.000107
C20	C	0.186770	0.181334	0.000081
C21	C	0.268521	0.186109	0.000069
C22	C	0.319142	0.137059	0.000085
N23	N	0.447905	0.098158	0.000086
N24	N	0.402701	0.141946	0.000081
C25	C	0.931837	0.016231	0.000100
C26	C	0.930782	-0.047038	0.000106
C27	C	0.995791	-0.442917	0.000066
C28	C	0.994812	-0.502366	0.000059
O29	O	1.055075	-0.536121	0.000034
N30	N	0.922865	-0.528562	0.000052
C31	C	0.851893	-0.495307	0.000042
O32	O	0.790607	-0.523048	0.000035
C33	C	0.852873	-0.435859	0.000043
C34	C	0.924824	-0.409666	0.000059
C35	C	1.067736	-0.416723	0.000081
C36	C	1.068714	-0.357278	0.000089
C37	C	0.997748	-0.324027	0.000083
C38	C	0.925803	-0.350221	0.000067
C39	C	0.781902	-0.402605	0.000027
C40	C	0.782889	-0.343154	0.000027
C41	C	0.854839	-0.316960	0.000043
C42	C	0.855814	-0.257525	0.000069
N43	N	0.927761	-0.231328	0.000076
C44	C	0.998728	-0.264579	0.000083
C45	C	0.849841	-0.620151	0.000040
C46	C	0.848860	-0.679598	0.000046
C47	C	0.991779	-0.686653	0.000061
C48	C	0.992759	-0.627205	0.000061
C49	C	0.921788	-0.593955	0.000047
C50	C	1.000777	-0.139740	0.000101
C51	C	1.001749	-0.080289	0.000113
C52	C	0.858831	-0.073240	0.000093
C53	C	0.857858	-0.132685	0.000086
C54	C	0.928838	-0.165934	0.000087
O55	O	0.795583	-0.223733	0.000090
O56	O	1.060004	-0.236831	0.000079
C57	C	1.068641	0.122420	0.000095
C58	C	1.155645	0.127504	0.000098
C59	C	0.918772	0.223877	0.000060
C60	C	0.919827	0.287146	0.000048
N61	N	0.915462	0.126692	0.205377
N62	N	0.935153	0.113412	-0.205216
C63	C	0.966893	0.091901	0.250784
C64	C	0.962551	0.094840	0.341591
C65	C	0.906782	0.132574	0.386989
C66	C	0.855345	0.167366	0.341576
C67	C	0.859684	0.164424	0.250771
C68	C	0.888055	0.145261	0.658566
C69	C	0.883722	0.148203	0.749378
C70	C	0.990928	0.075676	0.749386
C71	C	0.995265	0.072738	0.658579
C72	C	0.943825	0.107529	0.613174
N73	N	0.902344	0.135581	0.479808
N74	N	0.948260	0.104518	0.520356
H75	H	0.145546	0.221267	0.000069
C76	C	1.133695	-0.269288	0.000095
C77	C	1.147806	-0.328491	0.000094
H78	H	1.182527	-0.251521	0.000100
H79	H	1.106911	-0.259718	-0.050209
H80	H	1.102088	-0.256475	0.050405
H81	H	1.179408	-0.341305	-0.050220
H82	H	1.174603	-0.338065	0.050403
H83	H	0.809932	0.198088	0.378545
H84	H	0.705059	0.018836	0.000088
H85	H	0.792043	-0.593082	0.000036
C86	C	0.129193	0.011000	-0.074029
C87	C	0.172049	0.019288	0.000129
H88	H	0.108072	-0.025528	-0.074017
H89	H	0.087353	0.039526	-0.074032
H90	H	0.163097	0.013371	-0.124331
H91	H	0.138145	0.016921	0.050431
H92	H	0.213896	-0.009246	0.000140
H93	H	1.049564	-0.713737	0.000063
C94	C	1.097322	0.003685	0.740271
C95	C	1.047458	0.037428	0.799296
H96	H	1.132223	-0.019928	0.771085
H97	H	1.066546	-0.019433	0.704866
H98	H	1.127024	0.027535	0.704842
H99	H	1.017751	0.013578	0.834721
H100	H	1.078238	0.060549	0.834716
H101	H	0.669678	0.205481	0.000033
H102	H	0.521379	0.196809	0.000051
H103	H	0.293858	0.229939	0.000046
C104	C	0.299070	-0.018933	0.000123
C105	C	0.343657	0.029319	0.000114
H106	H	0.333422	-0.052219	0.000125
H107	H	0.264374	-0.017029	0.050427
H108	H	0.269186	-0.020279	-0.050187
H109	H	0.373538	0.030667	0.050427
H110	H	0.378367	0.027414	-0.050195
H111	H	0.817802	0.192753	0.213802
C112	C	0.465440	0.000988	0.000101
C113	C	0.547883	-0.005172	0.000103
H114	H	0.444323	-0.035541	0.000104
H115	H	0.445634	0.022962	0.050401
H116	H	0.450452	0.019714	-0.050213
H117	H	0.562871	-0.023894	0.050421
H118	H	0.567696	-0.027155	-0.050202
H119	H	1.060342	-0.058966	0.000129
C120	C	0.781660	0.217251	0.667692
C121	C	0.831520	0.183507	0.608665
H122	H	0.746760	0.240866	0.636880
H123	H	0.751964	0.193406	0.703121
H124	H	0.812445	0.240373	0.703097
H125	H	0.800736	0.160382	0.573264
H126	H	0.861219	0.207355	0.573221
C127	C	1.017256	-0.007519	0.556996
C128	C	1.056363	0.030986	0.608912
H129	H	1.054919	-0.033372	0.526400
H130	H	0.982884	-0.028069	0.592594
H131	H	0.987452	0.012774	0.516773
H132	H	1.086162	0.010694	0.649139
H133	H	1.090749	0.051539	0.573311
H134	H	1.058576	-0.166805	0.000099
C135	C	1.209097	-0.417709	0.000112
C136	C	1.145752	-0.453266	0.000096
H137	H	1.257263	-0.440267	0.000132
H138	H	1.208919	-0.396001	-0.050195
H139	H	1.204074	-0.392749	0.050419
H140	H	1.150771	-0.478223	-0.050215
H141	H	1.145931	-0.474983	0.050408
H142	H	1.051348	-0.605882	0.000074
H143	H	0.723313	-0.423922	0.000009
C144	C	0.707692	-0.666638	0.000029
C145	C	0.769769	-0.708385	0.000035
H146	H	0.658864	-0.684411	0.000013
H147	H	0.708635	-0.641981	0.050336
H148	H	0.713471	-0.645217	-0.050278
H149	H	0.763993	-0.729804	0.050345
H150	H	0.768824	-0.733052	-0.050278
C151	C	0.641519	-0.342156	0.000002
C152	C	0.704872	-0.306606	0.000015
H153	H	0.593357	-0.319593	0.000001
H154	H	0.646528	-0.367108	-0.050304
H155	H	0.641702	-0.363871	0.050310
H156	H	0.704693	-0.284894	-0.050297
H157	H	0.699862	-0.281644	0.050326
C158	C	0.716688	-0.119738	0.000062
C159	C	0.778770	-0.161481	0.000067
H160	H	0.667863	-0.137513	0.000038
H161	H	0.717624	-0.095084	0.050375
H162	H	0.722468	-0.098312	-0.050239
H163	H	0.772993	-0.182904	0.050372
H164	H	0.777832	-0.186144	-0.050251
H165	H	0.801051	-0.046156	0.000091
H166	H	1.012310	0.061176	0.213826
H167	H	1.004430	0.066510	0.378560
H168	H	0.838305	0.178933	0.786337
