data_functionalizedCrystal
_audit_creation_method	'MofGen! by Chris Wilmer'
_symmetry_space_group_name_H-M	'P1'
_symmetry_Int_Tables_number	1
_symmetry_cell_setting	triclinic
loop_
_symmetry_equiv_pos_as_xyz
  x,y,z
_cell_length_a	15.995292
_cell_length_b	14.044220
_cell_length_c	13.101039
_cell_angle_alpha	86.332523
_cell_angle_beta	86.641931
_cell_angle_gamma	91.671253
loop_
_atom_site_label
_atom_site_type_symbol
_atom_site_fract_x
_atom_site_fract_y
_atom_site_fract_z
O1	O	1.124339	-0.116681	-0.085245
O2	O	1.457672	0.216653	0.248088
O3	O	1.791005	0.549986	0.581421
O4	O	0.881688	-0.131826	-0.085242
O5	O	1.215021	0.201508	0.248092
O6	O	1.548355	0.534841	0.581425
O7	O	0.999371	0.013730	-0.085233
O8	O	1.332704	0.347063	0.248100
O9	O	1.666037	0.680397	0.581433
O10	O	1.006656	-0.262236	-0.085254
O11	O	1.339989	0.071097	0.248080
O12	O	1.673323	0.404430	0.581413
O13	O	0.990928	0.003269	0.085196
O14	O	1.324262	0.336602	0.418529
O15	O	1.657595	0.669936	0.751862
O16	O	0.873246	-0.142287	0.085187
O17	O	1.206579	0.191047	0.418521
O18	O	1.539912	0.524380	0.751854
O19	O	1.115896	-0.127141	0.085184
O20	O	1.449230	0.206192	0.418517
O21	O	1.782563	0.539525	0.751850
Zn22	Zn	0.993231	-0.136375	0.112245
Zn23	Zn	1.326564	0.196958	0.445578
Zn24	Zn	1.659897	0.530292	0.778912
Zn25	Zn	1.004354	-0.122592	-0.112303
Zn26	Zn	1.337687	0.210741	0.221030
Zn27	Zn	1.671020	0.544074	0.554364
O28	O	0.998214	-0.272697	0.085175
O29	O	1.331547	0.060636	0.418509
O30	O	1.664880	0.393970	0.751842
C31	C	0.846225	-0.136440	-0.000027
C32	C	1.179558	0.196893	0.333307
C33	C	1.512892	0.530227	0.666640
C34	C	0.753134	-0.134592	-0.000025
C35	C	1.086467	0.198741	0.333308
C36	C	1.419801	0.532075	0.666642
C37	C	0.414889	-0.127798	-0.000036
C38	C	0.748222	0.205536	0.333297
C39	C	1.081555	0.538869	0.666631
C40	C	0.446067	-0.232832	-0.000424
C41	C	0.779400	0.100501	0.332909
C42	C	1.112734	0.433834	0.666242
C43	C	0.542873	-0.234853	-0.000036
C44	C	0.876206	0.098480	0.333297
C45	C	1.209539	0.431814	0.666631
C46	C	0.582696	-0.131169	-0.000031
C47	C	0.916029	0.202164	0.333302
C48	C	1.249363	0.535498	0.666636
C49	C	0.544850	-0.084618	0.097293
C50	C	0.878184	0.248715	0.430626
C51	C	1.211517	0.582048	0.763960
C52	C	0.447961	-0.083358	0.097370
C53	C	0.781295	0.249975	0.430703
C54	C	1.114628	0.583308	0.764037
C55	C	0.457546	-0.069317	-0.096440
C56	C	0.790880	0.264016	0.236894
C57	C	1.124213	0.597349	0.570227
C58	C	0.554393	-0.073132	-0.097722
C59	C	0.887726	0.260202	0.235611
C60	C	1.221060	0.593535	0.568945
C61	C	0.677534	-0.133069	-0.000025
C62	C	1.010867	0.200264	0.333309
C63	C	1.344201	0.533598	0.666642
C64	C	0.320051	-0.125895	-0.000035
C65	C	0.653384	0.207438	0.333298
C66	C	0.986717	0.540772	0.666631
C67	C	0.991961	0.043813	-0.000018
C68	C	1.325294	0.377146	0.333315
C69	C	1.658628	0.710480	0.666648
C70	C	0.982450	0.149037	-0.000017
C71	C	1.315783	0.482370	0.333316
C72	C	1.649116	0.815703	0.666650
C73	C	1.151359	-0.122527	-0.000034
C74	C	1.484693	0.210806	0.333300
C75	C	1.818026	0.544139	0.666633
C76	C	1.244451	-0.124375	-0.000042
C77	C	1.577784	0.208959	0.333291
C78	C	1.911117	0.542292	0.666625
C79	C	1.005624	-0.302780	-0.000042
C80	C	1.338957	0.030553	0.333291
C81	C	1.672290	0.363886	0.666625
C82	C	1.015135	-0.408003	-0.000050
C83	C	1.348468	-0.074670	0.333283
C84	C	1.681802	0.258663	0.666617
N85	N	0.985645	-0.145780	0.265493
N86	N	1.318979	0.187553	0.598826
N87	N	1.652312	0.520886	0.932160
C88	C	0.965062	0.341695	-0.000031
C89	C	1.298395	0.675028	0.333302
C90	C	1.631729	1.008361	0.666635
C91	C	1.032519	0.399344	-0.000036
C92	C	1.365852	0.732677	0.333298
C93	C	1.699186	1.066011	0.666631
C94	C	1.022844	0.506546	-0.000044
C95	C	1.356178	0.839879	0.333290
C96	C	1.689511	1.173212	0.666623
C97	C	0.974736	0.234483	-0.000023
C98	C	1.308069	0.567816	0.333310
C99	C	1.641402	0.901150	0.666643
N100	N	1.011945	-0.113179	-0.265551
N101	N	1.345278	0.220154	0.067782
N102	N	1.678612	0.553487	0.401116
C103	C	0.975326	-0.158586	0.474535
C104	C	1.308660	0.174748	0.807868
C105	C	1.641993	0.508081	1.141201
C106	C	1.022262	-0.100377	0.525414
C107	C	1.355595	0.232956	0.858747
C108	C	1.688928	0.566290	1.192080
C109	C	1.016520	-0.107502	0.641732
C110	C	1.349853	0.225831	0.975065
C111	C	1.683187	0.559165	1.308399
C112	C	0.981067	-0.151462	0.358206
C113	C	1.314400	0.181871	0.691540
C114	C	1.647734	0.515205	1.024873
H115	H	0.568427	-0.271700	-0.069804
H116	H	0.901760	0.061633	0.263529
H117	H	1.235094	0.394966	0.596862
H118	H	1.097540	0.368193	-0.000105
H119	H	1.430873	0.701526	0.333228
H120	H	1.764207	1.034859	0.666561
N121	N	1.081213	-0.027285	0.467412
N122	N	1.414546	0.306049	0.800745
N123	N	1.747880	0.639382	1.134079
H124	H	1.065549	0.038843	0.486021
H125	H	1.398883	0.372176	0.819354
H126	H	1.732216	0.705510	1.152687
H127	H	1.076993	-0.032574	0.391354
H128	H	1.410326	0.300759	0.724688
H129	H	1.743659	0.634093	1.058021
H130	H	0.564046	-0.125539	0.169717
H131	H	0.897379	0.207795	0.503051
H132	H	1.230713	0.541128	0.836384
N133	N	0.878942	0.382954	-0.000032
N134	N	1.212276	0.716287	0.333302
N135	N	1.545609	1.049620	0.666635
H136	H	0.884152	0.454797	-0.000034
H137	H	1.217486	0.788131	0.333299
H138	H	1.550819	1.121464	0.666633
H139	H	0.844408	0.356917	0.063154
H140	H	1.177742	0.690250	0.396488
H141	H	1.511075	1.023583	0.729821
N142	N	0.916398	-0.231693	0.532536
N143	N	1.249731	0.101641	0.865869
N144	N	1.583064	0.434974	1.199202
H145	H	0.857037	-0.219757	0.513946
H146	H	1.190371	0.113576	0.847279
H147	H	1.523704	0.446910	1.180613
H148	H	0.920672	-0.226451	0.608592
H149	H	1.254006	0.106882	0.941926
H150	H	1.587339	0.440215	1.275259
H151	H	0.416619	-0.277362	0.068973
H152	H	0.749952	0.055972	0.402307
H153	H	1.083285	0.389305	0.735640
N154	N	0.417476	-0.280731	-0.092874
N155	N	0.750810	0.052603	0.240459
N156	N	1.084143	0.385936	0.573793
H157	H	0.354247	-0.282460	-0.091445
H158	H	0.687581	0.050873	0.241889
H159	H	1.020914	0.384206	0.575222
H160	H	0.438141	-0.348039	-0.091677
H161	H	0.771474	-0.014706	0.241656
H162	H	1.104807	0.318628	0.574989
N163	N	0.566758	-0.295350	0.092529
N164	N	0.900091	0.037984	0.425862
N165	N	1.233425	0.371317	0.759195
H166	H	0.543536	-0.267223	0.156918
H167	H	0.876869	0.066111	0.490251
H168	H	1.210203	0.399444	0.823584
H169	H	0.629817	-0.296906	0.093077
H170	H	0.963150	0.036427	0.426410
H171	H	1.296484	0.369760	0.759743
N172	N	0.411262	-0.137457	0.193731
N173	N	0.744595	0.195876	0.527064
N174	N	1.077929	0.529210	0.860397
H175	H	0.430195	-0.205489	0.195372
H176	H	0.763529	0.127844	0.528706
H177	H	1.096862	0.461177	0.862039
H178	H	0.348090	-0.137110	0.194689
H179	H	0.681423	0.196223	0.528022
H180	H	1.014756	0.529556	0.861356
N181	N	0.420756	0.018305	0.103240
N182	N	0.754090	0.351639	0.436573
N183	N	1.087423	0.684972	0.769907
H184	H	0.446393	0.058570	0.042073
H185	H	0.779726	0.391903	0.375406
H186	H	1.113060	0.725237	0.708740
H187	H	0.439988	0.044469	0.168286
H188	H	0.773321	0.377802	0.501619
H189	H	1.106655	0.711136	0.834953
N190	N	0.579277	0.016149	0.102108
N191	N	0.912611	0.349482	0.435441
N192	N	1.245944	0.682816	0.768774
H193	H	0.619835	0.032633	0.041100
H194	H	0.953169	0.365966	0.374434
H195	H	1.286502	0.699299	0.707767
H196	H	0.609288	0.021344	0.167336
H197	H	0.942622	0.354677	0.500669
H198	H	1.275955	0.688011	0.834003
H199	H	0.579386	-0.106956	-0.169721
H200	H	0.912719	0.226378	0.163612
H201	H	1.246052	0.559711	0.496945
N202	N	0.428212	-0.106910	-0.194153
N203	N	0.761545	0.226423	0.139180
N204	N	1.094879	0.559756	0.472514
H205	H	0.443171	-0.176072	-0.197368
H206	H	0.776505	0.157262	0.135965
H207	H	1.109838	0.490595	0.469299
H208	H	0.456363	-0.068318	-0.254979
H209	H	0.789696	0.265016	0.078354
H210	H	1.123030	0.598349	0.411688
N211	N	0.590956	0.027595	-0.105511
N212	N	0.924289	0.360928	0.227823
N213	N	1.257623	0.694262	0.561156
H214	H	0.654142	0.025913	-0.109849
H215	H	0.987475	0.359246	0.223484
H216	H	1.320809	0.692579	0.556818
H217	H	0.571461	0.061195	-0.042940
H218	H	0.904795	0.394529	0.290394
H219	H	1.238128	0.727862	0.623727
N220	N	0.431412	0.033170	-0.097312
N221	N	0.764745	0.366503	0.236022
N222	N	1.098079	0.699837	0.569355
H223	H	0.392137	0.041721	-0.035598
H224	H	0.725470	0.375055	0.297735
H225	H	1.058803	0.708388	0.631069
H226	H	0.401997	0.049779	-0.161919
H227	H	0.735330	0.383112	0.171414
H228	H	1.068664	0.716446	0.504748
