data_functionalizedCrystal
_audit_creation_method	'MofGen! by Chris Wilmer'
_symmetry_space_group_name_H-M	'P1'
_symmetry_Int_Tables_number	1
_symmetry_cell_setting	triclinic
loop_
_symmetry_equiv_pos_as_xyz
  x,y,z
_cell_length_a	21.395362
_cell_length_b	17.640280
_cell_length_c	21.395356
_cell_angle_alpha	78.777041
_cell_angle_beta	89.964122
_cell_angle_gamma	78.812025
loop_
_atom_site_label
_atom_site_type_symbol
_atom_site_fract_x
_atom_site_fract_y
_atom_site_fract_z
Zn1	Zn	1.008265	-0.314325	-0.304300
Zn2	Zn	1.508265	0.185675	0.195700
Zn3	Zn	1.029397	-0.446492	-0.178379
Zn4	Zn	1.529397	0.053508	0.321621
Zn5	Zn	0.903504	-0.314384	-0.199492
Zn6	Zn	1.403504	0.185616	0.300508
Zn7	Zn	0.924663	-0.446486	-0.283085
Zn8	Zn	1.424663	0.053514	0.216915
O9	O	0.966457	-0.380422	-0.241314
O10	O	1.466457	0.119578	0.258686
O11	O	1.098742	-0.331835	-0.287640
O12	O	1.598742	0.168165	0.212360
O13	O	1.012686	-0.428995	-0.093498
O14	O	1.512686	0.071005	0.406502
O15	O	0.899701	-0.203779	-0.231110
O16	O	1.399701	0.296221	0.268890
O17	O	1.114268	-0.428938	-0.195126
O18	O	1.614268	0.071062	0.304874
O19	O	0.976669	-0.203735	-0.308112
O20	O	1.476669	0.296265	0.191888
O21	O	0.920193	-0.331936	-0.109009
O22	O	1.420193	0.168064	0.390991
O23	O	0.818636	-0.331930	-0.210538
O24	O	1.318636	0.168070	0.289462
O25	O	0.935764	-0.428928	-0.373581
O26	O	1.435764	0.071072	0.126419
O27	O	0.834182	-0.428985	-0.271953
O28	O	1.334182	0.071015	0.228047
O29	O	0.997186	-0.331829	-0.389168
O30	O	1.497186	0.168171	0.110832
O31	O	1.033204	-0.557089	-0.174554
O32	O	1.533204	-0.057089	0.325446
O33	O	0.956256	-0.557085	-0.251481
O34	O	1.456256	-0.057085	0.248519
C35	C	0.803676	-0.380464	-0.241235
C36	C	1.303676	0.119536	0.258765
C37	C	0.734041	-0.380501	-0.241213
C38	C	1.234041	0.119499	0.258787
C39	C	0.999336	-0.585764	-0.208438
C40	C	1.499336	-0.085764	0.291562
C41	C	1.013459	-0.673610	-0.194394
C42	C	1.513459	-0.173610	0.305606
C43	C	0.709450	-0.431104	-0.273121
C44	C	1.209450	0.068896	0.226879
C45	C	0.644011	-0.431085	-0.273152
C46	C	1.144011	0.068915	0.226848
C47	C	0.603168	-0.380470	-0.241262
C48	C	1.103168	0.119530	0.258738
C49	C	0.627766	-0.329857	-0.209353
C50	C	1.127766	0.170143	0.290647
C51	C	0.693202	-0.329872	-0.209328
C52	C	1.193202	0.170128	0.290672
C53	C	0.498431	-0.374115	-0.185874
C54	C	0.998431	0.125885	0.314126
C55	C	0.432997	-0.374106	-0.185896
C56	C	0.932997	0.125894	0.314104
C57	C	0.401339	-0.380419	-0.241340
C58	C	0.901339	0.119581	0.258660
C59	C	0.435127	-0.386758	-0.296759
C60	C	0.935127	0.113242	0.203241
C61	C	0.500563	-0.386773	-0.296734
C62	C	1.000563	0.113227	0.203266
C63	C	0.532212	-0.380448	-0.241286
C64	C	1.032212	0.119552	0.258714
C65	C	0.305792	-0.431004	-0.273284
C66	C	0.805792	0.068996	0.226716
C67	C	0.240352	-0.430979	-0.273317
C68	C	0.740352	0.069021	0.226683
C69	C	0.224108	-0.329755	-0.209512
C70	C	0.724108	0.170245	0.290488
C71	C	0.289546	-0.329776	-0.209485
C72	C	0.789546	0.170224	0.290515
C73	C	0.330385	-0.380404	-0.241370
C74	C	0.830385	0.119596	0.258630
C75	C	0.859424	-0.962650	-0.348231
C76	C	1.359424	-0.462650	0.151769
C77	C	0.872696	-1.045195	-0.335015
C78	C	1.372696	-0.545195	0.164985
C79	C	0.952871	-1.045134	-0.254992
C80	C	1.452871	-0.545134	0.245008
C81	C	0.939608	-0.962588	-0.268204
C82	C	1.439608	-0.462588	0.231796
C83	C	0.892884	-0.921352	-0.314823
C84	C	1.392884	-0.421352	0.185177
C85	C	0.973068	-0.921290	-0.234796
C86	C	1.473068	-0.421290	0.265204
C87	C	0.959803	-0.838751	-0.248004
C88	C	1.459803	-0.338751	0.251996
C89	C	0.913080	-0.797509	-0.294621
C90	C	1.413080	-0.297509	0.205379
C91	C	0.879619	-0.838813	-0.328032
C92	C	1.379619	-0.338813	0.171968
C93	C	1.019789	-0.962527	-0.188173
C94	C	1.519789	-0.462527	0.311827
C95	C	1.053249	-0.921229	-0.154766
C96	C	1.553249	-0.421229	0.345234
C97	C	1.039988	-0.838688	-0.167977
C98	C	1.539988	-0.338688	0.332023
C99	C	0.993264	-0.797447	-0.214593
C100	C	1.493264	-0.297447	0.285407
C101	C	1.073448	-0.797384	-0.134566
C102	C	1.573448	-0.297384	0.365434
C103	C	1.060184	-0.714845	-0.147774
C104	C	1.560184	-0.214845	0.352226
C105	C	0.979999	-0.714908	-0.227802
C106	C	1.479999	-0.214908	0.272198
C107	C	1.129874	-0.380380	-0.241394
C108	C	1.629874	0.119620	0.258606
C109	C	1.199513	-0.380363	-0.241428
C110	C	1.699513	0.119637	0.258572
C111	C	0.966478	-0.380371	-0.404746
C112	C	1.466478	0.119629	0.095254
C113	C	0.966487	-0.380349	-0.474390
C114	C	1.466487	0.119651	0.025610
C115	C	0.933468	-0.174278	-0.274333
C116	C	1.433468	0.325722	0.225667
C117	C	0.919409	-0.086432	-0.288403
C118	C	1.419409	0.413568	0.211597
C119	C	0.998508	-0.329664	-0.984324
C120	C	1.498508	0.170336	-0.484324
C121	C	0.998506	-0.329684	-0.918886
C122	C	1.498506	0.170316	-0.418886
C123	C	0.966524	-0.380244	-0.878046
C124	C	1.466524	0.119756	-0.378046
C125	C	0.934555	-0.430804	-0.902647
C126	C	1.434555	0.069196	-0.402647
C127	C	0.934563	-0.430789	-0.968083
C128	C	1.434563	0.069211	-0.468083
C129	C	0.911063	-0.386523	-0.773346
C130	C	1.411063	0.113477	-0.273346
C131	C	0.911053	-0.386532	-0.707912
C132	C	1.411053	0.113468	-0.207912
C133	C	0.966500	-0.380295	-0.676217
C134	C	1.466500	0.119705	-0.176217
C135	C	1.021956	-0.374031	-0.709967
C136	C	1.521956	0.125969	-0.209967
C137	C	1.021965	-0.374016	-0.775404
C138	C	1.521965	0.125984	-0.275404
C139	C	0.966512	-0.380266	-0.807090
C140	C	1.466512	0.119734	-0.307090
C141	C	0.998469	-0.329763	-0.580667
C142	C	1.498469	0.170237	-0.080667
C143	C	0.998469	-0.329787	-0.515226
C144	C	1.498469	0.170213	-0.015226
C145	C	0.934511	-0.430904	-0.498989
C146	C	1.434511	0.069096	0.001011
C147	C	0.934517	-0.430883	-0.564428
C148	C	1.434517	0.069117	-0.064428
C149	C	0.966495	-0.380309	-0.605263
C150	C	1.466495	0.119691	-0.105263
C151	C	0.966463	-0.380415	-0.078528
C152	C	1.466463	0.119585	0.421472
C153	C	0.966540	-0.380214	-0.008919
C154	C	1.466540	0.119786	0.491081
H155	H	0.742697	-0.472329	-0.299085
H156	H	1.242697	0.027671	0.200915
Cl157	Cl	0.841335	-0.394398	-0.665491
Cl158	Cl	1.341335	0.105602	-0.165491
H159	H	0.309569	-0.288573	-0.183498
H160	H	0.809569	0.211427	0.316502
H161	H	0.409352	-0.391897	-0.341907
H162	H	0.909352	0.108103	0.158093
H163	H	1.087429	-0.681220	-0.120569
H164	H	1.587429	-0.181220	0.379431
Cl165	Cl	0.896547	-0.693744	-0.311371
Cl166	Cl	1.396547	-0.193744	0.188629
Cl167	Cl	0.538223	-0.366181	-0.116166
Cl168	Cl	1.038223	0.133819	0.383834
H169	H	1.111487	-0.830971	-0.096604
H170	H	1.611487	-0.330971	0.403396
Cl171	Cl	0.543036	-0.394737	-0.366402
Cl172	Cl	1.043036	0.105263	0.133598
H173	H	1.024538	-0.288517	-0.898857
H174	H	1.524538	0.211483	-0.398857
H175	H	0.908473	-0.472074	-0.465737
H176	H	1.408473	0.027926	0.034263
H177	H	0.821381	-0.929075	-0.386198
H178	H	1.321381	-0.429075	0.113802
Cl179	Cl	0.576420	-0.266223	-0.169267
Cl180	Cl	1.076420	0.233777	0.330733
Cl181	Cl	1.091670	-0.366204	-0.670128
Cl182	Cl	1.591670	0.133796	-0.170128
H183	H	0.339044	-0.472224	-0.299250
H184	H	0.839044	0.027776	0.200750
Cl185	Cl	1.011610	-1.096980	-0.196388
Cl186	Cl	1.511610	-0.596980	0.303612
H187	H	0.841576	-0.805238	-0.365999
H188	H	1.341576	-0.305238	0.134001
Cl189	Cl	1.038738	-0.266116	-1.035652
Cl190	Cl	1.538738	0.233884	-0.535652
H191	H	0.220331	-0.472185	-0.299305
H192	H	0.720331	0.027815	0.200695
Cl193	Cl	0.172767	-0.266120	-0.169426
Cl194	Cl	0.672767	0.233880	0.330574
Cl195	Cl	1.091680	-0.366155	-0.817829
Cl196	Cl	1.591680	0.133845	-0.317829
H197	H	0.405492	-0.368949	-0.140770
H198	H	0.905492	0.131051	0.359230
H199	H	0.941956	-0.681332	-0.265769
H200	H	1.441956	-0.181332	0.234231
H201	H	1.024506	-0.288581	-0.613917
H202	H	1.524506	0.211419	-0.113917
Cl203	Cl	0.841348	-0.394354	-0.813186
Cl204	Cl	1.341348	0.105646	-0.313186
Cl205	Cl	0.724118	-0.266251	-0.169211
Cl206	Cl	1.224118	0.233749	0.330789
Cl207	Cl	0.830620	-1.097110	-0.377012
Cl208	Cl	1.330620	-0.597110	0.122988
H209	H	1.030589	-1.029735	-0.177422
H210	H	1.530589	-0.529735	0.322578
Cl211	Cl	1.038665	-0.266237	-0.484306
Cl212	Cl	1.538665	0.233763	0.015694
H213	H	0.908516	-0.471972	-0.869391
H214	H	1.408516	0.028028	-0.369391
Cl215	Cl	0.894325	-0.494434	-0.595349
Cl216	Cl	1.394325	0.005566	-0.095349
Cl217	Cl	1.111988	-0.973075	-0.096162
Cl218	Cl	1.611988	-0.473075	0.403838
Cl219	Cl	0.894371	-0.494343	-0.999004
Cl220	Cl	1.394371	0.005657	-0.499004
H221	H	0.623985	-0.472292	-0.299138
H222	H	1.123985	0.027708	0.200862
