data_functionalizedCrystal
_audit_creation_method	'MofGen! by Chris Wilmer'
_symmetry_space_group_name_H-M	'P1'
_symmetry_Int_Tables_number	1
_symmetry_cell_setting	triclinic
loop_
_symmetry_equiv_pos_as_xyz
  x,y,z
_cell_length_a	15.538191
_cell_length_b	14.185569
_cell_length_c	11.026607
_cell_angle_alpha	73.887065
_cell_angle_beta	102.070945
_cell_angle_gamma	82.124202
loop_
_atom_site_label
_atom_site_type_symbol
_atom_site_fract_x
_atom_site_fract_y
_atom_site_fract_z
O1	O	1.172177	0.083434	0.332374
O2	O	0.920028	0.083432	0.201994
O3	O	1.025205	0.083429	0.434634
O4	O	1.067000	0.083437	0.099735
O5	O	1.056277	-0.083406	0.503352
O6	O	0.951099	-0.083403	0.270713
O7	O	1.203248	-0.083401	0.401092
Cu8	Cu	1.080011	-0.098636	0.342177
Cu9	Cu	1.043266	0.098666	0.260910
O10	O	1.098071	-0.083398	0.168453
C11	C	0.902781	0.000014	0.222712
C12	C	0.805098	0.000013	0.182080
C13	C	0.448853	0.000019	0.585753
C14	C	0.357066	0.000021	0.547544
C15	C	0.371067	0.000026	0.332624
C16	C	0.462858	0.000019	0.370818
C17	C	0.501743	0.000017	0.497384
C18	C	0.515748	0.000017	0.282448
C19	C	0.607530	0.000016	0.320637
C20	C	0.646421	0.000017	0.447196
C21	C	0.593525	0.000016	0.535573
C22	C	0.476860	0.000026	0.155880
C23	C	0.529750	0.000024	0.067510
C24	C	0.621535	0.000015	0.105702
C25	C	0.660426	0.000016	0.232261
C26	C	0.674431	0.000016	0.017325
C27	C	0.766213	0.000015	0.055514
C28	C	0.752208	0.000015	0.270450
N29	N	1.105862	-0.237407	0.399339
C30	C	0.941461	-0.605053	0.035865
C31	C	0.961050	-0.710075	0.079160
C32	C	1.054219	-0.710039	0.285116
C33	C	1.034634	-0.605014	0.241840
C34	C	0.978256	-0.552530	0.117213
C35	C	1.071428	-0.552491	0.323189
C36	C	1.051849	-0.447476	0.279914
C37	C	0.995475	-0.394984	0.155290
C38	C	0.958676	-0.447515	0.073938
C39	C	1.127812	-0.604977	0.447812
C40	C	1.164606	-0.552454	0.529160
C41	C	1.145021	-0.447437	0.485889
C42	C	1.088647	-0.394946	0.361266
C43	C	1.181820	-0.394907	0.567241
C44	C	1.162240	-0.289892	0.523966
C45	C	1.069067	-0.289931	0.317991
C46	C	1.220495	0.000019	0.380373
C47	C	1.318177	0.000027	0.421003
C48	C	1.033030	0.000013	0.510807
C49	C	1.010044	0.000016	0.635395
N50	N	1.017420	0.237438	0.203759
C51	C	1.090246	0.000020	0.092279
C52	C	1.113231	0.000024	-0.032312
C53	C	1.073511	0.000018	0.737156
C54	C	1.049755	0.000022	0.865925
H55	H	0.783871	0.000008	0.373515
H56	H	0.809279	0.000004	-0.016442
C57	C	0.912877	0.000014	0.646482
N58	N	0.839690	0.000009	0.654831
H59	H	0.721154	0.000029	0.478282
H60	H	1.023151	-0.247196	0.216512
C61	C	0.952583	0.000019	0.877004
N62	N	0.879396	0.000014	0.885352
C63	C	1.210403	0.000023	0.956613
N64	N	1.283593	0.000022	0.948271
H65	H	0.480517	0.000012	0.688818
C66	C	0.636304	0.000009	0.674804
N67	N	0.668526	0.000007	0.779668
H68	H	0.314005	0.000024	0.619514
C69	C	0.486966	0.000021	-0.071707
N70	N	0.454743	0.000013	-0.176565
C71	C	0.328283	0.000023	0.193407
N72	N	0.296061	0.000015	0.088549
C73	C	0.631643	0.000023	-0.121895
N74	N	0.599416	0.000027	-0.226757
C75	C	0.896613	-0.389776	-0.063128
N76	N	0.849857	-0.346287	-0.166354
H77	H	0.979537	-0.309474	0.120055
C78	C	0.920566	-0.767847	-0.010339
N79	N	0.890075	-0.811361	-0.077749
H80	H	0.402124	0.000030	0.124789
H81	H	0.895545	-0.562318	-0.065614
C82	C	1.149348	-0.720498	0.495413
N83	N	1.165567	-0.807508	0.531265
C84	C	1.226618	-0.610199	0.666250
N85	N	1.273322	-0.653691	0.769510
H86	H	1.227731	-0.437653	0.668709
H87	H	1.100126	-0.752783	0.386587
H88	H	1.145434	0.000013	0.728946
C89	C	1.202713	-0.232113	0.613456
N90	N	1.233200	-0.188594	0.680861
