data_functionalizedCrystal
_audit_creation_method	'MofGen! by Chris Wilmer'
_symmetry_space_group_name_H-M	'P1'
_symmetry_Int_Tables_number	1
_symmetry_cell_setting	triclinic
loop_
_symmetry_equiv_pos_as_xyz
  x,y,z
_cell_length_a	14.971486
_cell_length_b	15.995292
_cell_length_c	13.448316
_cell_angle_alpha	89.996588
_cell_angle_beta	89.998199
_cell_angle_gamma	83.541372
loop_
_atom_site_label
_atom_site_type_symbol
_atom_site_fract_x
_atom_site_fract_y
_atom_site_fract_z
O1	O	1.186798	0.109119	-0.082570
O2	O	0.926380	0.122187	-0.082596
O3	O	1.063735	-0.006231	-0.082584
O4	O	1.049444	0.237537	-0.082583
O5	O	1.063718	-0.006239	0.082800
O6	O	0.926363	0.122179	0.082787
O7	O	1.186781	0.109112	0.082814
Cu8	Cu	1.056571	0.115644	0.097901
Cu9	Cu	1.056591	0.115654	-0.097684
O10	O	1.049426	0.237529	0.082801
C11	C	0.893048	0.121598	0.000092
C12	C	0.793753	0.119847	0.000082
C13	C	1.063145	-0.037431	0.000105
C14	C	1.061401	-0.130386	0.000098
C15	C	0.736425	0.195289	0.000084
C16	C	0.643128	0.193638	0.000098
C17	C	0.607161	0.116545	0.000104
C18	C	0.664496	0.041098	0.000105
C19	C	0.757792	0.042749	0.000098
C20	C	0.470038	0.037661	0.000119
C21	C	0.376737	0.036009	0.000125
C22	C	0.355375	0.188550	0.000120
C23	C	0.448670	0.190202	0.000112
C24	C	0.505999	0.114754	0.000111
C25	C	1.054990	-0.468130	0.000106
C26	C	1.154129	-0.444719	0.000485
C27	C	1.156014	-0.348041	0.000109
C28	C	1.058171	-0.300571	0.000102
C29	C	1.008616	-0.329717	-0.094342
C30	C	1.007423	-0.426509	-0.094417
C31	C	1.005379	-0.426377	0.093655
C32	C	1.009053	-0.329881	0.094900
C33	C	1.059964	-0.205873	0.000097
C34	C	1.053195	-0.562828	0.000105
C35	C	1.220114	0.109700	0.000123
C36	C	1.319408	0.111451	0.000127
C37	C	1.050017	0.268729	0.000110
C38	C	1.051760	0.361684	0.000111
N39	N	1.056563	0.115637	0.235466
N40	N	1.056606	0.115654	-0.235249
C41	C	1.117402	0.058797	0.287511
C42	C	1.117408	0.058797	0.391615
C43	C	1.056578	0.115641	0.443670
C44	C	0.995732	0.172483	0.391617
C45	C	0.995722	0.172479	0.287516
C46	C	0.995756	0.172489	0.608597
C47	C	0.995766	0.172494	0.712706
C48	C	1.117442	0.058806	0.712696
C49	C	1.117433	0.058802	0.608595
C50	C	1.056588	0.115646	0.556549
H51	H	0.765701	0.258067	0.000078
C52	C	0.292310	0.271544	0.000126
N53	N	0.244807	0.334052	0.000128
H54	H	0.946180	0.218763	0.245141
H55	H	0.932405	-0.440441	0.094286
H56	H	0.946231	0.218781	0.755084
H57	H	1.166941	0.012512	0.245135
H58	H	0.347456	-0.026767	0.000131
H59	H	0.635205	-0.021673	0.000124
C60	C	1.057778	-0.304727	0.189293
N61	N	1.094473	-0.285767	0.260388
H62	H	1.192137	-0.473695	-0.066857
C63	C	1.208446	-0.322289	0.091569
N64	N	1.247943	-0.302897	0.160458
H65	H	1.166947	0.012513	0.433990
C66	C	1.055130	-0.302575	-0.189288
N67	N	1.090170	-0.282135	-0.260800
H68	H	0.477951	0.252978	0.000098
C69	C	0.580070	0.276631	0.000118
N70	N	0.532575	0.339144	0.000140
H71	H	0.516714	-0.023777	0.000120
H72	H	0.804468	-0.018684	0.000095
H73	H	1.192335	-0.472681	0.068216
H74	H	1.195067	-0.329595	-0.067703
H75	H	1.041757	-0.453288	-0.165011
H76	H	0.934734	-0.441132	-0.098702
H77	H	0.936618	-0.297922	-0.097858
H78	H	1.036592	-0.454438	0.165243
C79	C	0.912570	-0.285442	0.102597
N80	N	0.839894	-0.251971	0.108387
H81	H	1.166969	0.012520	0.566211
H82	H	1.166984	0.012522	0.755078
H83	H	0.946207	0.218774	0.566225
C84	C	0.928809	0.235004	0.448882
N85	N	0.878401	0.282096	0.492013
