data_functionalizedCrystal
_audit_creation_method	'MofGen! by Chris Wilmer'
_symmetry_space_group_name_H-M	'P1'
_symmetry_Int_Tables_number	1
_symmetry_cell_setting	triclinic
loop_
_symmetry_equiv_pos_as_xyz
  x,y,z
_cell_length_a	14.853569
_cell_length_b	14.853559
_cell_length_c	14.048226
_cell_angle_alpha	89.995761
_cell_angle_beta	89.995515
_cell_angle_gamma	83.633509
loop_
_atom_site_label
_atom_site_type_symbol
_atom_site_fract_x
_atom_site_fract_y
_atom_site_fract_z
O1	O	1.196363	0.117713	-0.079112
O2	O	0.933903	0.131733	-0.079123
O3	O	1.072147	-0.006507	-0.079116
O4	O	1.058118	0.255953	-0.079119
O5	O	1.072131	-0.006515	0.079205
O6	O	0.933886	0.131725	0.079198
O7	O	1.196346	0.117705	0.079209
Zn8	Zn	1.065113	0.124714	0.104341
Zn9	Zn	1.065135	0.124725	-0.104255
O10	O	1.058101	0.255945	0.079202
C11	C	0.900306	0.131094	0.000036
C12	C	0.800222	0.129189	0.000032
C13	C	1.071505	-0.040100	0.000042
C14	C	1.069604	-0.140184	0.000037
C15	C	0.763848	0.046178	0.000029
C16	C	0.742554	0.210411	0.000038
C17	C	0.648520	0.208625	0.000039
C18	C	0.612146	0.125614	0.000037
C19	C	0.669806	0.044389	0.000033
C20	C	0.590853	0.289848	0.000053
C21	C	0.496812	0.288065	0.000055
C22	C	0.460437	0.205053	0.000045
C23	C	0.518103	0.123825	0.000041
C24	C	0.481729	0.040813	0.000038
C25	C	0.539394	-0.040416	0.000027
C26	C	0.633430	-0.038623	0.000024
C27	C	0.366401	0.203260	0.000048
C28	C	0.387687	0.039024	0.000042
C29	C	1.061549	-0.563355	-0.086264
C30	C	1.061531	-0.563358	0.086344
C31	C	1.063325	-0.469325	0.086345
C32	C	1.064229	-0.422302	0.000040
C33	C	1.063340	-0.469312	-0.086266
C34	C	1.064204	-0.422306	0.172649
C35	C	1.065997	-0.328267	0.172653
C36	C	1.066908	-0.281243	0.086347
C37	C	1.066020	-0.328260	0.000038
C38	C	1.066924	-0.281237	-0.086267
C39	C	1.066043	-0.328252	-0.172577
C40	C	1.064251	-0.422289	-0.172572
C41	C	1.068700	-0.187207	0.086342
C42	C	1.068715	-0.187194	-0.086269
C43	C	1.229943	0.118345	0.000048
C44	C	1.330027	0.120249	0.000046
C45	C	1.058744	0.289538	0.000041
C46	C	1.060645	0.389622	0.000040
N47	N	1.065105	0.124706	0.246701
N48	N	1.065151	0.124725	-0.246615
C49	C	1.126339	0.063518	0.296522
C50	C	1.126345	0.063518	0.396180
C51	C	1.065121	0.124710	0.446015
C52	C	1.003880	0.185900	0.396187
C53	C	1.003871	0.185896	0.296531
C54	C	1.003906	0.185907	0.603901
C55	C	1.003917	0.185913	0.703564
C56	C	1.126381	0.063529	0.703550
C57	C	1.126371	0.063524	0.603894
C58	C	1.065132	0.124716	0.554073
H59	H	0.358079	-0.028574	0.000035
H60	H	0.954007	0.235720	0.255967
F61	F	1.063317	-0.472332	-0.264421
H62	H	0.954036	0.235733	0.563340
H63	H	0.954061	0.235741	0.744134
H64	H	1.069456	-0.148915	-0.156550
H65	H	1.060835	-0.601639	-0.156536
F66	F	1.191537	-0.001597	0.550856
F67	F	1.191508	-0.001608	0.243494
H68	H	1.066773	-0.289953	-0.242847
H69	H	0.680389	-0.104755	0.000016
H70	H	0.772176	0.277995	0.000047
H71	H	1.176206	0.013694	0.436744
H72	H	0.810803	-0.019956	0.000016
F73	F	0.500671	-0.128759	0.000032
H74	H	0.620476	0.357431	0.000061
H75	H	0.449869	0.354207	0.000063
H76	H	0.954026	0.235721	0.436768
H77	H	1.176244	0.013705	0.744120
H78	H	1.060789	-0.601649	0.156609
F79	F	0.305035	0.289703	0.000071
F80	F	1.063224	-0.472354	0.264494
H81	H	1.066718	-0.289996	0.242932
F82	F	1.069635	-0.137174	0.178193
