data_functionalizedCrystal
_audit_creation_method	'MofGen! by Chris Wilmer'
_symmetry_space_group_name_H-M	'P1'
_symmetry_Int_Tables_number	1
_symmetry_cell_setting	triclinic
loop_
_symmetry_equiv_pos_as_xyz
  x,y,z
_cell_length_a	10.654550
_cell_length_b	17.699083
_cell_length_c	9.730223
_cell_angle_alpha	89.994713
_cell_angle_beta	89.999957
_cell_angle_gamma	83.883973
loop_
_atom_site_label
_atom_site_type_symbol
_atom_site_fract_x
_atom_site_fract_y
_atom_site_fract_z
O1	O	1.665978	0.106302	-0.114190
O2	O	1.300323	0.116430	-0.114216
O3	O	1.493481	0.001243	-0.114190
O4	O	1.472820	0.221490	-0.114216
O5	O	1.493469	0.001240	0.114390
O6	O	1.300310	0.116427	0.114364
O7	O	1.665966	0.106299	0.114390
Zn8	Zn	1.483136	0.111363	0.150669
Zn9	Zn	1.483152	0.111367	-0.150495
O10	O	1.472807	0.221487	0.114364
C11	C	1.253531	0.115685	0.000071
C12	C	1.114127	0.113460	0.000061
C13	C	1.492735	-0.026960	0.000100
C14	C	1.490514	-0.110993	0.000100
C15	C	1.033454	0.181281	0.000058
C16	C	0.902470	0.179186	0.000082
C17	C	0.932844	0.041444	0.000108
C18	C	1.063826	0.043539	0.000094
C19	C	1.603894	-0.158893	0.000110
C20	C	1.601799	-0.237849	0.000098
C21	C	1.486323	-0.268904	0.000085
C22	C	1.372935	-0.220998	0.000071
C23	C	1.375030	-0.142043	0.000074
C24	C	1.364481	-0.539415	0.000060
C25	C	1.362394	-0.618376	0.000061
C26	C	1.591249	-0.635221	0.000083
C27	C	1.593345	-0.556266	0.000086
C28	C	1.479957	-0.508367	0.000065
C29	C	1.482229	-0.422753	0.000075
C30	C	1.484050	-0.354516	0.000085
C31	C	1.712757	0.107045	0.000100
C32	C	1.852161	0.109269	0.000100
C33	C	1.473554	0.249690	0.000071
C34	C	1.475775	0.333722	0.000061
N35	N	1.483134	0.111359	0.356205
N36	N	1.483164	0.111364	-0.356032
C37	C	1.568694	0.060376	0.428142
C38	C	1.568706	0.060376	0.572025
C39	C	1.397596	0.162350	0.572021
C40	C	1.397578	0.162345	0.428141
H41	H	0.836791	0.234412	0.000081
H42	H	1.327900	0.203862	0.369565
C43	C	1.241476	-0.487324	0.000260
C44	C	1.235999	-0.441493	0.117838
C45	C	1.122710	-0.393485	0.118059
H46	H	1.172299	-0.517031	0.000327
H47	H	1.237532	-0.456126	-0.079413
H48	H	1.239930	-0.472686	0.197489
H49	H	1.305150	-0.411769	0.117795
H50	H	1.118766	-0.362288	0.038387
H51	H	1.053542	-0.423199	0.118123
H52	H	1.118984	-0.362378	0.197827
H53	H	1.694125	-0.276847	0.000109
H54	H	1.129514	-0.011692	0.000101
C55	C	1.661627	0.004932	0.350288
C56	C	1.736534	-0.039731	0.444091
C57	C	1.822146	-0.090825	0.372427
H58	H	1.713929	0.032360	0.294139
H59	H	1.616578	-0.026871	0.294206
H60	H	1.781580	-0.007932	0.500149
H61	H	1.684266	-0.067176	0.500243
H62	H	1.777097	-0.122627	0.316345
H63	H	1.874439	-0.063390	0.316280
H64	H	1.872973	-0.121139	0.436061
C65	C	1.718848	-0.522696	0.000027
C66	C	1.817697	-0.581546	-0.000005
C67	C	1.933329	-0.550652	-0.000083
H68	H	1.724599	-0.492260	0.079716
H69	H	1.724491	-0.492264	-0.079716
H70	H	1.812057	-0.611966	0.079730
H71	H	1.811987	-0.611987	-0.079688
H72	H	1.938972	-0.520219	-0.079827
H73	H	1.939067	-0.520216	0.079607
H74	H	2.000412	-0.590576	-0.000118
H75	H	0.891873	-0.015484	0.000143
H76	H	1.278912	-0.246289	0.000053
C77	C	1.729399	-0.125326	0.000049
C78	C	1.828243	-0.184178	0.000013
C79	C	1.943879	-0.153288	-0.000069
H80	H	1.735156	-0.094890	0.079737
H81	H	1.735043	-0.094894	-0.079695
H82	H	1.822602	-0.214598	0.079749
H83	H	1.822528	-0.214619	-0.079669
H84	H	1.949522	-0.122856	-0.079812
H85	H	1.949622	-0.122853	0.079621
H86	H	2.010958	-0.193215	-0.000105
H87	H	1.683575	-0.674231	0.000094
H88	H	1.268354	-0.643657	0.000054
H89	H	1.638375	0.018860	0.630593
C90	C	1.251835	-0.090123	-0.000150
C91	C	1.182286	-0.104255	-0.117739
C92	C	1.068782	-0.056448	-0.117991
H93	H	1.269443	-0.038628	-0.000222
H94	H	1.204397	-0.099614	0.079515
H95	H	1.229714	-0.094758	-0.197383
H96	H	1.164645	-0.155740	-0.117692
H97	H	1.021344	-0.065939	-0.038327
H98	H	1.086402	-0.004957	-0.118059
H99	H	1.021573	-0.066035	-0.197767
C100	C	1.304659	0.217587	0.650306
C101	C	1.227953	0.176840	0.732962
C102	C	1.142338	0.227701	0.805110
H103	H	1.253574	0.247971	0.587014
H104	H	1.349708	0.249337	0.706495
H105	H	1.182907	0.145103	0.676778
H106	H	1.279003	0.146458	0.796280
H107	H	1.187387	0.259451	0.861299
H108	H	1.091262	0.258083	0.741808
H109	H	1.090290	0.200062	0.861210
H110	H	1.074405	0.238215	0.000042
