data_functionalizedCrystal
_audit_creation_method	'MofGen! by Chris Wilmer'
_symmetry_space_group_name_H-M	'P1'
_symmetry_Int_Tables_number	1
_symmetry_cell_setting	triclinic
loop_
_symmetry_equiv_pos_as_xyz
  x,y,z
_cell_length_a	14.519731
_cell_length_b	13.596369
_cell_length_c	14.519709
_cell_angle_alpha	90.006934
_cell_angle_beta	83.684499
_cell_angle_gamma	90.005416
loop_
_atom_site_label
_atom_site_type_symbol
_atom_site_fract_x
_atom_site_fract_y
_atom_site_fract_z
O1	O	1.223856	0.081796	0.120986
O2	O	1.473856	0.331796	0.370986
O3	O	1.723856	0.581796	0.620986
O4	O	1.973856	0.831796	0.870986
O5	O	0.955382	0.081797	0.135202
O6	O	1.205382	0.331797	0.385202
O7	O	1.455382	0.581797	0.635202
O8	O	1.705382	0.831797	0.885202
O9	O	1.096737	0.081788	-0.006144
O10	O	1.346737	0.331788	0.243856
O11	O	1.596737	0.581788	0.493856
O12	O	1.846737	0.831788	0.743856
O13	O	1.082501	0.081805	0.262332
O14	O	1.332501	0.331805	0.512332
O15	O	1.582501	0.581805	0.762332
O16	O	1.832501	0.831805	1.012332
O17	O	1.096723	-0.081795	-0.006151
O18	O	1.346723	0.168205	0.243849
O19	O	1.596723	0.418205	0.493849
O20	O	1.846723	0.668205	0.743849
O21	O	0.955368	-0.081785	0.135195
O22	O	1.205368	0.168215	0.385195
O23	O	1.455368	0.418215	0.635195
O24	O	1.705368	0.668215	0.885195
O25	O	1.223842	-0.081787	0.120979
O26	O	1.473842	0.168213	0.370979
O27	O	1.723842	0.418213	0.620979
O28	O	1.973842	0.668213	0.870979
Zn29	Zn	1.089603	-0.107759	0.128086
Zn30	Zn	1.339603	0.142241	0.378086
Zn31	Zn	1.589603	0.392241	0.628086
Zn32	Zn	1.839603	0.642241	0.878086
Zn33	Zn	1.089621	0.107769	0.128096
Zn34	Zn	1.339621	0.357769	0.378096
Zn35	Zn	1.589621	0.607769	0.628096
Zn36	Zn	1.839621	0.857769	0.878096
O37	O	1.082487	-0.081777	0.262325
O38	O	1.332487	0.168223	0.512325
O39	O	1.582487	0.418223	0.762325
O40	O	1.832487	0.668223	1.012325
C41	C	0.921016	0.000006	0.134532
C42	C	1.171016	0.250006	0.384532
C43	C	1.421016	0.500006	0.634532
C44	C	1.671016	0.750006	0.884532
C45	C	0.818635	0.000007	0.132536
C46	C	1.068635	0.250007	0.382536
C47	C	1.318635	0.500007	0.632536
C48	C	1.568635	0.750007	0.882536
N49	N	1.089597	-0.254851	0.128078
N50	N	1.339597	-0.004851	0.378078
N51	N	1.589597	0.245149	0.628078
N52	N	1.839597	0.495149	0.878078
C53	C	0.735491	0.000010	0.130915
C54	C	0.985491	0.250010	0.380915
C55	C	1.235491	0.500010	0.630915
C56	C	1.485491	0.750010	0.880915
C57	C	0.631182	0.000011	0.128888
C58	C	0.881182	0.250011	0.378888
C59	C	1.131182	0.500011	0.628888
C60	C	1.381182	0.750011	0.878888
C61	C	0.548043	0.000010	0.127280
C62	C	0.798043	0.250010	0.377280
C63	C	1.048043	0.500010	0.627280
C64	C	1.298043	0.750010	0.877280
C65	C	0.443728	0.000012	0.125253
C66	C	0.693728	0.250012	0.375253
C67	C	0.943728	0.500012	0.625253
C68	C	1.193728	0.750012	0.875253
C69	C	1.089620	-0.656141	0.128096
C70	C	1.339620	-0.406141	0.378096
C71	C	1.589620	-0.156141	0.628096
C72	C	1.839620	0.093859	0.878096
C73	C	1.089611	-0.544490	0.128095
C74	C	1.339611	-0.294490	0.378095
C75	C	1.589611	-0.044490	0.628095
C76	C	1.839611	0.205510	0.878095
C77	C	1.089609	-0.455500	0.128088
C78	C	1.339609	-0.205500	0.378088
C79	C	1.589609	0.044500	0.628088
C80	C	1.839609	0.294500	0.878088
C81	C	1.089599	-0.343841	0.128085
C82	C	1.339599	-0.093841	0.378085
C83	C	1.589599	0.156159	0.628085
C84	C	1.839599	0.406159	0.878085
C85	C	1.258209	0.000006	0.121649
C86	C	1.508209	0.250006	0.371649
C87	C	1.758209	0.500006	0.621649
C88	C	2.008209	0.750006	0.871649
C89	C	1.360589	0.000012	0.123645
C90	C	1.610589	0.250012	0.373645
C91	C	1.860589	0.500012	0.623645
C92	C	2.110589	0.750012	0.873645
N93	N	1.089635	0.254861	0.128096
N94	N	1.339635	0.504861	0.378096
N95	N	1.589635	0.754861	0.628096
N96	N	1.839635	1.004861	0.878096
C97	C	1.096067	-0.000004	-0.040507
C98	C	1.346067	0.249996	0.209493
C99	C	1.596067	0.499996	0.459493
C100	C	1.846067	0.749996	0.709493
C101	C	1.094079	-0.000005	-0.142889
C102	C	1.344079	0.249995	0.107111
C103	C	1.594079	0.499995	0.357111
C104	C	1.844079	0.749995	0.607111
C105	C	1.086759	0.000021	-0.517785
C106	C	1.336759	0.250021	-0.267785
C107	C	1.586759	0.500021	-0.017785
C108	C	1.836759	0.750021	0.232215
C109	C	1.088792	0.000014	-0.413477
C110	C	1.338792	0.250014	-0.163477
C111	C	1.588792	0.500014	0.086523
C112	C	1.838792	0.750014	0.336523
C113	C	1.090419	0.000007	-0.330340
C114	C	1.340419	0.250007	-0.080340
C115	C	1.590419	0.500007	0.169660
C116	C	1.840419	0.750007	0.419660
C117	C	1.092452	0.000002	-0.226025
C118	C	1.342452	0.250002	0.023975
C119	C	1.592452	0.500002	0.273975
C120	C	1.842452	0.750002	0.523975
C121	C	1.083157	0.000016	0.296688
C122	C	1.333157	0.250016	0.546688
C123	C	1.583157	0.500016	0.796688
C124	C	1.833157	0.750016	1.046688
C125	C	1.085146	0.000023	0.399070
C126	C	1.335146	0.250023	0.649070
C127	C	1.585146	0.500023	0.899070
C128	C	1.835146	0.750023	1.149070
