data_functionalizedCrystal
_audit_creation_method	'MofGen! by Chris Wilmer'
_symmetry_space_group_name_H-M	'P1'
_symmetry_Int_Tables_number	1
_symmetry_cell_setting	triclinic
loop_
_symmetry_equiv_pos_as_xyz
  x,y,z
_cell_length_a	11.169417
_cell_length_b	18.101395
_cell_length_c	11.169409
_cell_angle_alpha	89.964384
_cell_angle_beta	89.979436
_cell_angle_gamma	90.031983
loop_
_atom_site_label
_atom_site_type_symbol
_atom_site_fract_x
_atom_site_fract_y
_atom_site_fract_z
Zn1	Zn	1.834798	-0.294753	-0.678515
Zn2	Zn	2.334798	0.205247	-0.178515
Zn3	Zn	1.834612	-0.418619	-0.477820
Zn4	Zn	2.334612	0.081381	0.022180
Zn5	Zn	1.634081	-0.294798	-0.477849
Zn6	Zn	2.134081	0.205202	0.022151
Zn7	Zn	1.634019	-0.418559	-0.678465
Zn8	Zn	2.134019	0.081441	-0.178465
O9	O	1.734377	-0.356682	-0.578162
O10	O	2.234377	0.143318	-0.078162
O11	O	2.002723	-0.311190	-0.651901
O12	O	2.502723	0.188810	-0.151901
O13	O	1.807960	-0.402238	-0.309874
O14	O	2.307960	0.097762	0.190126
O15	O	1.660811	-0.191159	-0.504501
O16	O	2.160811	0.308841	-0.004501
O17	O	2.002586	-0.402194	-0.504451
O18	O	2.502586	0.097806	-0.004451
O19	O	1.808276	-0.191126	-0.651929
O20	O	2.308276	0.308874	-0.151929
O21	O	1.660630	-0.311267	-0.309896
O22	O	2.160630	0.188733	0.190104
O23	O	1.466123	-0.311209	-0.504453
O24	O	1.966123	0.188791	-0.004453
O25	O	1.660704	-0.402092	-0.846421
O26	O	2.160704	0.097908	-0.346421
O27	O	1.466077	-0.402135	-0.651844
O28	O	1.966077	0.097865	-0.151844
O29	O	1.808216	-0.311132	-0.846458
O30	O	2.308216	0.188868	-0.346458
O31	O	1.807899	-0.522244	-0.504403
O32	O	2.307899	-0.022244	-0.004403
O33	O	1.660524	-0.522200	-0.651816
O34	O	2.160524	-0.022200	-0.151816
C35	C	1.422553	-0.356671	-0.578147
C36	C	1.922553	0.143329	-0.078147
C37	C	1.289153	-0.356684	-0.578169
C38	C	1.789153	0.143316	-0.078169
C39	C	1.734217	-0.549093	-0.578127
C40	C	2.234217	-0.049093	-0.078127
C41	C	1.734258	-0.631407	-0.578152
C42	C	2.234258	-0.131407	-0.078152
C43	C	1.734521	-0.930498	-0.578217
C44	C	2.234521	-0.430498	-0.078217
C45	C	1.642012	-0.899175	-0.671195
C46	C	2.142012	-0.399175	-0.171195
C47	C	1.641572	-0.813558	-0.670904
C48	C	2.141572	-0.313558	-0.170904
C49	C	1.734391	-0.782115	-0.578186
C50	C	2.234391	-0.282115	-0.078186
C51	C	1.700137	-0.813278	-0.451699
C52	C	2.200137	-0.313278	0.048301
C53	C	1.699541	-0.898923	-0.452255
C54	C	2.199541	-0.398923	0.047745
C55	C	1.861486	-0.898837	-0.610612
C56	C	2.361486	-0.398837	-0.110612
C57	C	1.860740	-0.813186	-0.613386
C58	C	2.360740	-0.313186	-0.113386
C59	C	1.734319	-0.698256	-0.578160
C60	C	2.234319	-0.198256	-0.078160
C61	C	1.734590	-1.014357	-0.578234
C62	C	2.234590	-0.514357	-0.078234
C63	C	2.047420	-0.356694	-0.578178
C64	C	2.547420	0.143306	-0.078178
C65	C	2.180820	-0.356699	-0.578185
C66	C	2.680820	0.143301	-0.078185
C67	C	1.734474	-0.356600	-0.891205
C68	C	2.234474	0.143400	-0.391205
C69	C	1.734515	-0.356565	-1.024605
C70	C	2.234515	0.143435	-0.524605
C71	C	1.734571	-0.163520	-0.578224
C72	C	2.234571	0.336480	-0.078224
C73	C	1.734654	-0.081206	-0.578250
C74	C	2.234654	0.418794	-0.078250
C75	C	1.734351	-0.356710	-0.266338
C76	C	2.234351	0.143290	0.233662
C77	C	1.734542	-0.356537	-0.132938
C78	C	2.234542	0.143463	0.367062
H79	H	1.663004	-0.792485	-0.764693
H80	H	2.163004	-0.292485	-0.264693
H81	H	1.765397	-0.792914	-0.380534
H82	H	2.265397	-0.292914	0.119466
H83	H	1.663231	-0.919714	-0.765288
H84	H	2.163231	-0.419714	-0.265288
H85	H	1.547463	-0.793137	-0.649447
H86	H	2.047463	-0.293137	-0.149447
H87	H	1.548475	-0.920765	-0.650008
H88	H	2.048475	-0.420765	-0.150008
F89	F	1.578231	-0.925127	-0.416386
F90	F	2.078231	-0.425127	0.083614
F91	F	1.783779	-0.926012	-0.358613
F92	F	2.283779	-0.426012	0.141387
H93	H	1.933311	-0.791778	-0.550600
H94	H	2.433311	-0.291778	-0.050600
H95	H	1.886570	-0.792814	-0.706473
H96	H	2.386570	-0.292814	-0.206473
F97	F	1.580109	-0.785335	-0.415185
F98	F	2.080109	-0.285335	0.084815
F99	F	1.902304	-0.926990	-0.729113
F100	F	2.402304	-0.426990	-0.229113
F101	F	1.951579	-0.925324	-0.522112
F102	F	2.451579	-0.425324	-0.022112
