data_functionalizedCrystal
_audit_creation_method	'MofGen! by Chris Wilmer'
_symmetry_space_group_name_H-M	'P1'
_symmetry_Int_Tables_number	1
_symmetry_cell_setting	triclinic
loop_
_symmetry_equiv_pos_as_xyz
  x,y,z
_cell_length_a	17.077404
_cell_length_b	19.805405
_cell_length_c	17.077396
_cell_angle_alpha	89.967516
_cell_angle_beta	89.982756
_cell_angle_gamma	90.026635
loop_
_atom_site_label
_atom_site_type_symbol
_atom_site_fract_x
_atom_site_fract_y
_atom_site_fract_z
Zn1	Zn	1.200018	-0.269454	-0.443825
Zn2	Zn	1.199922	-0.382648	-0.312552
Zn3	Zn	1.068755	-0.269479	-0.312573
Zn4	Zn	1.068710	-0.382606	-0.443776
O5	O	1.134351	-0.326047	-0.378182
O6	O	1.309852	-0.284476	-0.426424
O7	O	1.182501	-0.367664	-0.202708
O8	O	1.086226	-0.174759	-0.330014
O9	O	1.309782	-0.367640	-0.329978
O10	O	1.182665	-0.174740	-0.426444
O11	O	1.086133	-0.284519	-0.202724
O12	O	0.958902	-0.284479	-0.329966
O13	O	1.086149	-0.367568	-0.553629
O14	O	0.958869	-0.367593	-0.426360
O15	O	1.182621	-0.284435	-0.553666
O16	O	1.182457	-0.477359	-0.329930
O17	O	1.086056	-0.477329	-0.426339
C18	C	0.930403	-0.326035	-0.378160
C19	C	0.843153	-0.326046	-0.378169
C20	C	0.802167	-0.369388	-0.428281
C21	C	0.720186	-0.369390	-0.428294
C22	C	0.679194	-0.326051	-0.378190
C23	C	0.720187	-0.282704	-0.328076
C24	C	0.802166	-0.282699	-0.328068
C25	C	0.549317	-0.282717	-0.328095
C26	C	0.467332	-0.282722	-0.328102
C27	C	0.467337	-0.369408	-0.428321
C28	C	0.549316	-0.369403	-0.428313
C29	C	0.590303	-0.326056	-0.378197
C30	C	1.134263	-0.501903	-0.378144
C31	C	1.134297	-0.577135	-0.378154
C32	C	1.184542	-0.612472	-0.328006
C33	C	1.184575	-0.683161	-0.328023
C34	C	1.134359	-0.718510	-0.378185
C35	C	1.084112	-0.683168	-0.428338
C36	C	1.084083	-0.612481	-0.428324
C37	C	1.084228	-0.968241	-0.428397
C38	C	1.084259	-1.038933	-0.428405
C39	C	1.184720	-1.038921	-0.328095
C40	C	1.184691	-0.968234	-0.328081
C41	C	1.134447	-0.932898	-0.378237
C42	C	1.134413	-0.856249	-0.378219
C43	C	1.134389	-0.795157	-0.378200
C44	C	1.339095	-0.326060	-0.378204
C45	C	1.426345	-0.326065	-0.378213
C46	C	1.134391	-0.325994	-0.582926
C47	C	1.134407	-0.325972	-0.670176
C48	C	1.134461	-0.149504	-0.378237
C49	C	1.134508	-0.074272	-0.378261
C50	C	1.084244	-0.282673	-0.711174
C51	C	1.084257	-0.282658	-0.793154
C52	C	1.134438	-0.325938	-0.834135
C53	C	1.184603	-0.369242	-0.793132
C54	C	1.184586	-0.369260	-0.711153
C55	C	1.184637	-0.369200	-0.964002
C56	C	1.184656	-0.369181	-1.045987
C57	C	1.084308	-0.282597	-1.046003
C58	C	1.084291	-0.282616	-0.964024
C59	C	1.134458	-0.325918	-0.923026
C60	C	1.134357	-0.326050	-0.174234
C61	C	1.134492	-0.325882	-0.086984
H62	H	0.433959	-0.247424	-0.287312
O63	O	0.593529	-0.235972	-0.274036
H64	H	0.551254	-0.205843	-0.239188
O65	O	1.238718	-0.574352	-0.273911
H66	H	1.230258	-0.519261	-0.282324
O67	O	0.846368	-0.416129	-0.482335
H68	H	0.883746	-0.385868	-0.522327
O69	O	1.238753	-0.415899	-0.919783
H70	H	1.225271	-0.469018	-0.935500
H71	H	1.043461	-0.247338	-1.079388
H72	H	1.043228	-0.711955	-0.469184
O73	O	1.238763	-0.721278	-0.273931
H74	H	1.273667	-0.684822	-0.239040
O75	O	1.238856	-0.930105	-0.273984
H76	H	1.273808	-0.966554	-0.239121
H77	H	1.043432	-0.247370	-0.930659
O78	O	1.030121	-0.235986	-0.666979
H79	H	1.038540	-0.243266	-0.603086
O80	O	1.238772	-0.415864	-1.090193
H81	H	1.273645	-0.445987	-1.047914
O82	O	1.029879	-0.574366	-0.482405
H83	H	1.043302	-0.587890	-0.544029
O84	O	0.846379	-0.235951	-0.274020
H85	H	0.883705	-0.266201	-0.234021
O86	O	1.238923	-1.077029	-0.274000
H87	H	1.300513	-1.063396	-0.287514
O88	O	0.675987	-0.235956	-0.274029
H89	H	0.691707	-0.247498	-0.212400
O90	O	1.030101	-1.077064	-0.482516
H91	H	0.995164	-1.040618	-0.517397
H92	H	1.043316	-0.939476	-0.469234
H93	H	0.433962	-0.404700	-0.469128
O94	O	1.030159	-0.235952	-0.837376
H95	H	0.995272	-0.205851	-0.795107
O96	O	1.238728	-0.415928	-0.837325
H97	H	1.278699	-0.385630	-0.874683
O98	O	1.238701	-0.415955	-0.666933
H99	H	1.225215	-0.469073	-0.682653
O100	O	0.676057	-0.416266	-0.482260
H101	H	0.691812	-0.404824	-0.543918
O102	O	0.593534	-0.416143	-0.482354
H103	H	0.551263	-0.446280	-0.517210
