data_functionalizedCrystal
_audit_creation_method	'MofGen! by Chris Wilmer'
_symmetry_space_group_name_H-M	'P1'
_symmetry_Int_Tables_number	1
_symmetry_cell_setting	triclinic
loop_
_symmetry_equiv_pos_as_xyz
  x,y,z
_cell_length_a	18.050589
_cell_length_b	13.033293
_cell_length_c	13.033109
_cell_angle_alpha	74.800007
_cell_angle_beta	97.157170
_cell_angle_gamma	97.198160
loop_
_atom_site_label
_atom_site_type_symbol
_atom_site_fract_x
_atom_site_fract_y
_atom_site_fract_z
Zn1	Zn	-0.215188	1.700229	-0.807184
Zn2	Zn	-0.325407	1.677530	-0.629559
Zn3	Zn	-0.215202	1.500033	-0.606986
Zn4	Zn	-0.353320	1.522523	-0.784533
O5	O	-0.277279	1.600079	-0.707066
O6	O	-0.218121	1.845872	-0.802548
O7	O	-0.299112	1.635074	-0.477924
O8	O	-0.111271	1.526677	-0.633576
O9	O	-0.299098	1.829195	-0.672047
O10	O	-0.111260	1.673760	-0.780660
O11	O	-0.218145	1.504667	-0.461340
O12	O	-0.245211	1.354362	-0.611612
O13	O	-0.346672	1.565007	-0.936178
O14	O	-0.346685	1.370885	-0.742055
O15	O	-0.245188	1.695567	-0.952820
O16	O	-0.433039	1.656881	-0.650084
O17	O	-0.453546	1.542997	-0.763943
C18	C	-0.298979	1.324080	-0.671927
C19	C	-0.308282	1.206009	-0.656920
C20	C	-0.272442	1.161633	-0.714898
C21	C	-0.282057	1.039601	-0.699389
C22	C	-0.470240	1.599948	-0.707032
C23	C	-0.552785	1.599994	-0.707065
C24	C	-0.763407	1.538131	-0.768966
C25	C	-0.807251	1.499927	-0.668749
C26	C	-0.703908	1.600100	-0.707092
C27	C	-0.807142	1.638358	-0.807327
C28	C	-0.849887	1.600202	-0.707127
C29	C	-0.746665	1.561839	-0.606817
C30	C	-0.746553	1.700323	-0.745467
C31	C	-0.790367	1.662147	-0.645188
C32	C	-0.619813	1.600039	-0.707073
C33	C	-0.933979	1.600262	-0.707135
C34	C	-0.083564	1.600242	-0.707127
C35	C	-0.001015	1.600311	-0.707153
C36	C	-0.299042	1.635328	-0.984118
C37	C	-0.308316	1.650349	-1.102181
C38	C	-0.255495	1.877156	-0.742342
C39	C	-0.246212	1.995229	-0.757375
C40	C	-0.272390	1.592523	-1.146612
C41	C	-0.281974	1.608047	-1.268636
C42	C	-0.255542	1.565028	-0.431099
C43	C	-0.246043	1.550213	-0.313063
H44	H	-0.234637	1.213985	-0.776013
H45	H	-0.720067	1.785017	-0.777941
H46	H	-0.208403	1.047576	-0.818493
H47	H	-0.346083	1.153657	-0.595798
N48	N	-0.329455	1.684580	-1.334250
N49	N	-0.302828	1.760111	-1.404800
H50	H	-0.336359	1.814162	-1.451144
N51	N	-0.748100	1.472259	-0.834482
N52	N	-0.770788	1.375098	-0.812432
H53	H	-0.759978	1.328572	-0.858698
N54	N	-0.224898	1.516012	-1.080994
N55	N	-0.169809	1.545613	-1.023844
H56	H	-0.136266	1.491578	-0.977500
H57	H	-0.319860	0.987253	-0.638263
N58	N	-0.840458	1.393651	-0.628048
N59	N	-0.835268	1.322501	-0.674363
H60	H	-0.858718	1.247441	-0.645624
N61	N	-0.713685	1.521163	-0.500457
N62	N	-0.644546	1.514510	-0.483284
H63	H	-0.621252	1.485774	-0.408170
H64	H	-0.208189	1.489207	-1.260768
N65	N	-0.805493	1.727928	-0.579473
N66	N	-0.782760	1.706070	-0.482355
H67	H	-0.793444	1.752523	-0.435940
N68	N	-0.840242	1.678885	-0.913649
N69	N	-0.835030	1.632382	-0.984646
H70	H	-0.858406	1.660995	-1.059737
H71	H	-0.346170	1.711347	-1.154480
