data_functionalizedCrystal
_audit_creation_method	'MofGen! by Chris Wilmer'
_symmetry_space_group_name_H-M	'P1'
_symmetry_Int_Tables_number	1
_symmetry_cell_setting	triclinic
loop_
_symmetry_equiv_pos_as_xyz
  x,y,z
_cell_length_a	14.853566
_cell_length_b	23.532407
_cell_length_c	13.330367
_cell_angle_alpha	89.990692
_cell_angle_beta	89.995295
_cell_angle_gamma	83.241546
loop_
_atom_site_label
_atom_site_type_symbol
_atom_site_fract_x
_atom_site_fract_y
_atom_site_fract_z
O1	O	1.195556	0.074349	-0.083368
O2	O	1.695556	0.574349	0.416632
O3	O	0.933000	0.083207	-0.083386
O4	O	1.433000	0.583207	0.416614
O5	O	1.072195	-0.004119	-0.083358
O6	O	1.572195	0.495881	0.416642
O7	O	1.056361	0.161675	-0.083396
O8	O	1.556361	0.661675	0.416604
O9	O	1.072175	-0.004121	0.083489
O10	O	1.572175	0.495879	0.583489
O11	O	0.932980	0.083205	0.083461
O12	O	1.432980	0.583205	0.583461
O13	O	1.195536	0.074347	0.083479
O14	O	1.695536	0.574347	0.583479
Cu15	Cu	1.064256	0.078776	0.098705
Cu16	Cu	1.564256	0.578776	0.598705
Cu17	Cu	1.064280	0.078778	-0.098611
Cu18	Cu	1.564280	0.578778	0.401389
O19	O	1.056341	0.161673	0.083451
O20	O	1.556341	0.661673	0.583451
C21	C	0.899405	0.082805	0.000036
C22	C	1.399405	0.582805	0.500036
C23	C	0.799335	0.081603	0.000030
C24	C	1.299335	0.581603	0.500030
C25	C	0.376216	0.076518	-0.090900
C26	C	0.876216	0.576518	0.409100
C27	C	0.376216	0.076516	0.091003
C28	C	0.876216	0.576516	0.591003
C29	C	0.470238	0.077646	0.091000
C30	C	0.970238	0.577646	0.591000
C31	C	0.517253	0.078212	0.000045
C32	C	1.017253	0.578212	0.500045
C33	C	0.470247	0.077649	-0.090906
C34	C	0.970247	0.577649	0.409094
C35	C	0.517250	0.078214	0.181950
C36	C	1.017250	0.578214	0.681950
C37	C	0.611277	0.079344	0.181950
C38	C	1.111277	0.579344	0.681950
C39	C	0.658295	0.079906	0.090994
C40	C	1.158295	0.579906	0.590994
C41	C	0.611283	0.079343	0.000039
C42	C	1.111283	0.579343	0.500039
C43	C	0.658298	0.079909	-0.090915
C44	C	1.158298	0.579909	0.409085
C45	C	0.611289	0.079342	-0.181871
C46	C	1.111289	0.579342	0.318129
C47	C	0.517264	0.078211	-0.181862
C48	C	1.017264	0.578211	0.318138
C49	C	0.752320	0.081036	0.090985
C50	C	1.252320	0.581036	0.590985
C51	C	0.752328	0.081040	-0.090921
C52	C	1.252328	0.581040	0.409079
C53	C	1.071782	-0.025338	0.000068
C54	C	1.571782	0.474662	0.500068
C55	C	1.070570	-0.088560	0.000076
C56	C	1.570570	0.411440	0.500076
C57	C	1.145339	-0.487337	0.000026
C58	C	1.645339	0.012663	0.500026
C59	C	1.144213	-0.546742	0.000018
C60	C	1.644213	-0.046742	0.500018
O61	O	1.213524	-0.583184	-0.000014
O62	O	1.713524	-0.083184	0.499986
N63	N	1.061461	-0.569729	0.000013
N64	N	1.561461	-0.069729	0.500013
C65	C	0.979830	-0.533308	0.000006
C66	C	1.479830	-0.033308	0.500006
O67	O	0.909340	-0.558315	0.000000
O68	O	1.409340	-0.058315	0.500000
C69	C	0.980957	-0.473904	0.000006
C70	C	1.480957	0.026096	0.500006
C71	C	1.063714	-0.450920	0.000022
C72	C	1.563714	0.049080	0.500022
C73	C	1.228089	-0.464353	0.000040
C74	C	1.728089	0.035647	0.500040
C75	C	1.229215	-0.404952	0.000049
C76	C	1.729215	0.095048	0.500049
C77	C	1.147591	-0.368535	0.000045
C78	C	1.647591	0.131465	0.500045
C79	C	1.064840	-0.391519	0.000031
C80	C	1.564840	0.108481	0.500031
C81	C	0.899327	-0.437483	-0.000008
C82	C	1.399327	0.062517	0.499992
C83	C	0.900462	-0.378076	-0.000008
C84	C	1.400462	0.121924	0.499992
C85	C	0.983219	-0.355092	0.000007
C86	C	1.483219	0.144908	0.500007
C87	C	0.984341	-0.295701	0.000036
C88	C	1.484341	0.204299	0.500036
N89	N	1.067093	-0.272714	0.000041
N90	N	1.567093	0.227286	0.500041
C91	C	1.148718	-0.309131	0.000046
C92	C	1.648718	0.190869	0.500046
C93	C	0.977469	-0.658060	0.000003
C94	C	1.477469	-0.158060	0.500003
C95	C	0.976341	-0.717463	0.000010
C96	C	1.476341	-0.217463	0.500010
C97	C	1.140724	-0.730894	0.000020
C98	C	1.640724	-0.230894	0.500020
C99	C	1.141851	-0.671490	0.000021
C100	C	1.641851	-0.171490	0.500021
C101	C	1.060221	-0.635073	0.000008
C102	C	1.560221	-0.135073	0.500008
C103	C	1.151076	-0.184384	0.000067
C104	C	1.651076	0.315616	0.500067
C105	C	1.152194	-0.124977	0.000080
C106	C	1.652194	0.375023	0.500080
C107	C	0.987812	-0.111552	0.000065
C108	C	1.487812	0.388448	0.500065
C109	C	0.986693	-0.170953	0.000056
C110	C	1.486693	0.329047	0.500056
C111	C	1.068332	-0.207369	0.000054
C112	C	1.568332	0.292631	0.500054
O113	O	0.915066	-0.259224	0.000065
O114	O	1.415066	0.240776	0.500065
O115	O	1.219196	-0.284115	0.000038
O116	O	1.719196	0.215885	0.500038
C117	C	1.229131	0.074750	0.000056
C118	C	1.729131	0.574750	0.500056
C119	C	1.329201	0.075952	0.000055
C120	C	1.829201	0.575952	0.500055
C121	C	1.056754	0.182892	0.000023
C122	C	1.556754	0.682892	0.500023
C123	C	1.057966	0.246115	0.000009
C124	C	1.557966	0.746115	0.500009
N125	N	1.064246	0.078774	0.237486
N126	N	1.564246	0.578774	0.737486
N127	N	1.064297	0.078776	-0.237393
N128	N	1.564297	0.578776	0.262607
C129	C	1.002642	0.117431	0.710097
C130	C	1.502642	0.617431	1.210097
C131	C	1.125943	0.040121	0.710090
C132	C	1.625943	0.540121	1.210090
C133	C	1.125932	0.040119	0.605071
C134	C	1.625932	0.540119	1.105071
C135	C	1.064277	0.078775	0.552561
C136	C	1.564277	0.578775	1.052561
C137	C	1.002631	0.117432	0.605069
C138	C	1.502631	0.617432	1.105069
C139	C	1.187583	0.001467	0.552555
C140	C	1.687583	0.501467	1.052555
C141	C	1.187576	0.001464	0.447531
C142	C	1.687576	0.501464	0.947531
C143	C	1.125915	0.040117	0.395018
C144	C	1.625915	0.540117	0.895018
C145	C	1.064266	0.078775	0.447533
C146	C	1.564266	0.578775	0.947533
C147	C	1.002611	0.117431	0.395022
C148	C	1.502611	0.617431	0.895022
C149	C	0.940957	0.156087	0.447535
C150	C	1.440957	0.656087	0.947535
C151	C	0.940971	0.156085	0.552557
C152	C	1.440971	0.656085	1.052557
C153	C	1.125902	0.040119	0.289997
C154	C	1.625902	0.540119	0.789997
C155	C	1.002601	0.117431	0.289994
C156	C	1.502601	0.617431	0.789994
H157	H	1.219588	-0.106267	0.000095
H158	H	1.719588	0.393733	0.500095
C159	C	0.873141	0.198608	0.389771
C160	C	1.373141	0.698608	0.889771
H161	H	0.836428	0.221633	0.436081
H162	H	1.336428	0.721633	0.936081
H163	H	0.835803	0.178078	0.348808
H164	H	1.335803	0.678078	0.848808
H165	H	0.905364	0.222354	0.348796
H166	H	1.405364	0.722354	0.848796
H167	H	0.790589	0.081504	0.165040
H168	H	1.290589	0.581504	0.665040
H169	H	0.890775	0.187558	0.595319
H170	H	1.390775	0.687558	1.095319
H171	H	0.952441	0.148903	0.752855
H172	H	1.452441	0.648903	1.252855
C173	C	1.240877	-0.224432	0.000072
C174	C	1.740877	0.275568	0.500072
H175	H	1.290315	-0.202228	0.000091
H176	H	1.790315	0.297772	0.500091
H177	H	1.243874	-0.247880	-0.058111
H178	H	1.743874	0.252120	0.441889
H179	H	1.243848	-0.247889	0.058263
H180	H	1.743848	0.252111	0.558263
C181	C	1.193711	-0.002397	0.232237
C182	C	1.693711	0.497603	0.732237
H183	H	1.230430	-0.025419	0.278552
H184	H	1.730430	0.474581	0.778552
H185	H	1.231044	0.018134	0.191250
H186	H	1.731044	0.518134	0.691250
H187	H	1.161488	-0.026146	0.191287
H188	H	1.661488	0.473854	0.691287
H189	H	0.790602	0.081499	-0.164989
H190	H	1.290602	0.581499	0.335011
C191	C	0.663012	0.079965	-0.281915
C192	C	1.163012	0.579965	0.218085
H193	H	0.725741	0.080718	-0.268886
H194	H	1.225741	0.580718	0.231114
H195	H	0.640431	0.112962	-0.319298
H196	H	1.140431	0.612962	0.180702
H197	H	0.654786	0.046590	-0.319274
H198	H	1.154786	0.546590	0.180726
H199	H	1.237785	-0.030002	0.595313
H200	H	1.737785	0.469998	1.095313
H201	H	1.176145	0.008652	0.752847
H202	H	1.676145	0.508652	1.252847
H203	H	1.209239	-0.652781	0.000032
H204	H	1.709239	-0.152781	0.500032
C205	C	0.662985	0.079963	0.281993
C206	C	1.162985	0.579963	0.781993
H207	H	0.725716	0.080719	0.268965
H208	H	1.225716	0.580719	0.768965
H209	H	0.654743	0.046594	0.319371
H210	H	1.154743	0.546594	0.819371
H211	H	0.640404	0.112966	0.319355
H212	H	1.140404	0.612966	0.819355
H213	H	1.207187	-0.760555	0.000020
H214	H	1.707187	-0.260555	0.500020
H215	H	0.478981	0.077749	-0.255913
H216	H	0.978981	0.577749	0.244087
H217	H	1.294562	-0.493998	0.000040
H218	H	1.794562	0.006002	0.500040
H219	H	0.337938	0.076054	-0.164954
H220	H	0.837938	0.576054	0.335046
H221	H	0.919305	-0.189667	0.000072
H222	H	1.419305	0.310333	0.500072
C223	C	0.324518	0.075819	0.191045
C224	C	0.824518	0.575819	0.691045
H225	H	0.261794	0.075039	0.178022
H226	H	0.761794	0.575039	0.678022
H227	H	0.332717	0.109162	0.228496
H228	H	0.832717	0.609162	0.728496
H229	H	0.347146	0.042791	0.228332
H230	H	0.847146	0.542791	0.728332
H231	H	1.296604	-0.386244	0.000058
H232	H	1.796604	0.113756	0.500058
H233	H	0.908952	-0.736171	0.000015
H234	H	1.408952	-0.236171	0.500015
H235	H	0.478962	0.077757	0.256000
H236	H	0.978962	0.577757	0.756000
C237	C	0.810666	-0.338021	-0.000018
C238	C	1.310666	0.161979	0.499982
H239	H	0.761223	-0.360221	-0.000020
H240	H	1.261223	0.139779	0.499980
H241	H	0.807694	-0.314560	-0.058198
H242	H	1.307694	0.185440	0.441802
H243	H	0.807677	-0.314577	0.058176
H244	H	1.307677	0.185423	0.558176
C245	C	1.255383	-0.041060	0.389776
C246	C	1.755383	0.458940	0.889776
H247	H	1.292098	-0.064084	0.436092
H248	H	1.792098	0.435916	0.936092
H249	H	1.292720	-0.020534	0.348786
H250	H	1.792720	0.479466	0.848786
H251	H	1.223154	-0.064807	0.348828
H252	H	1.723154	0.435193	0.848828
C253	C	0.887670	-0.618007	0.000008
C254	C	1.387670	-0.118007	0.500008
H255	H	0.838230	-0.640210	0.000014
H256	H	1.338230	-0.140210	0.500014
H257	H	0.884689	-0.594546	-0.058172
H258	H	1.384689	-0.094546	0.441828
H259	H	0.884685	-0.594562	0.058202
H260	H	1.384685	-0.094562	0.558202
H261	H	0.831938	-0.456186	-0.000026
H262	H	1.331938	0.043814	0.499974
H263	H	0.921355	-0.081891	0.000065
H264	H	1.421355	0.418109	0.500065
C265	C	0.934780	0.159954	0.232241
C266	C	1.434780	0.659954	0.732241
H267	H	0.898071	0.182976	0.278558
H268	H	1.398071	0.682976	0.778558
H269	H	0.897437	0.139426	0.191280
H270	H	1.397437	0.639426	0.691280
H271	H	0.966997	0.183703	0.191264
H272	H	1.466997	0.683703	0.691264
