data_functionalizedCrystal
_audit_creation_method	'MofGen! by Chris Wilmer'
_symmetry_space_group_name_H-M	'P1'
_symmetry_Int_Tables_number	1
_symmetry_cell_setting	triclinic
loop_
_symmetry_equiv_pos_as_xyz
  x,y,z
_cell_length_a	31.640172
_cell_length_b	23.196402
_cell_length_c	31.640172
_cell_angle_alpha	60.012858
_cell_angle_beta	90.011976
_cell_angle_gamma	59.998806
loop_
_atom_site_label
_atom_site_type_symbol
_atom_site_fract_x
_atom_site_fract_y
_atom_site_fract_z
Zr1	Zr	0.407192	0.630913	-0.055385
O2	O	0.339703	0.751171	-0.122869
O3	O	0.427880	0.510650	-0.034700
O4	O	0.427879	0.630891	-0.122861
O5	O	0.339706	0.630949	0.034838
O6	O	0.497436	0.630879	-0.122851
O7	O	0.339704	0.630930	-0.034708
O8	O	0.497438	0.415789	0.034852
O9	O	0.339705	0.846039	-0.122866
O10	O	0.488615	0.560108	-0.025868
O11	O	0.436707	0.560131	0.026026
O12	O	0.436706	0.701700	-0.077772
O13	O	0.384798	0.701723	-0.025877
Zr14	Zr	0.518132	0.630924	0.055548
Zr15	Zr	0.518128	0.630894	-0.055370
Zr16	Zr	0.407197	0.630943	0.055533
Zr17	Zr	0.407196	0.782215	-0.055380
Zr18	Zr	0.518129	0.479621	0.055543
O19	O	0.497445	0.751187	0.034863
O20	O	0.497439	0.751144	-0.122847
O21	O	0.339709	0.751214	0.034842
O22	O	0.585622	0.510665	0.123031
O23	O	0.585616	0.510622	-0.034679
O24	O	0.427886	0.510692	0.123010
O25	O	0.585618	0.630888	-0.034675
O26	O	0.497446	0.630946	0.123024
O27	O	0.427889	0.630958	0.123014
O28	O	0.585621	0.630907	0.034871
O29	O	0.427883	0.846023	-0.122854
O30	O	0.497441	0.415813	0.123017
O31	O	0.585620	0.415798	0.123029
O32	O	0.585617	0.415774	0.034864
O33	O	0.339708	0.846063	-0.034701
O34	O	0.427887	0.846047	-0.034689
O35	O	0.488619	0.560137	0.077935
O36	O	0.540526	0.560114	0.026040
O37	O	0.488618	0.701705	-0.025863
O38	O	0.436710	0.701728	0.026031
C39	C	0.462659	0.441662	0.000076
C40	C	0.462657	0.377430	0.000074
C41	C	0.489749	0.347248	-0.027017
C42	C	0.489754	0.286887	-0.027012
C43	C	0.462657	0.256722	0.000075
C44	C	0.435564	0.286908	0.027171
C45	C	0.435564	0.347262	0.027170
C46	C	0.417270	0.194699	-0.003798
C47	C	0.417269	0.134350	-0.003801
C48	C	0.462658	0.070567	0.000080
C49	C	0.508048	0.067149	0.003953
C50	C	0.508048	0.127503	0.003953
C51	C	0.462654	0.191278	0.000079
C52	C	0.489757	-0.025066	-0.027007
C53	C	0.489764	-0.085432	-0.026999
C54	C	0.435569	-0.085403	0.027181
C55	C	0.435568	-0.025045	0.027177
C56	C	0.462661	0.005123	0.000080
C57	C	0.323899	0.630942	0.000063
C58	C	0.276804	0.630950	0.000057
C59	C	0.011894	0.557001	0.027185
C60	C	-0.165091	0.556987	0.027195
O61	O	-0.164933	0.494129	0.050256
N62	N	-0.214317	0.630896	0.000101
C63	C	-0.219295	0.704814	-0.026994
O64	O	-0.265226	0.767677	-0.050034
C65	C	-0.042311	0.704827	-0.027001
C66	C	0.006914	0.630913	0.000090
C67	C	0.061117	0.483094	0.054275
C68	C	0.105360	0.483098	0.054270
C69	C	0.100381	0.557010	0.027175
C70	C	0.051158	0.630917	0.000085
C71	C	-0.047290	0.778744	-0.054093
C72	C	-0.003038	0.778740	-0.054091
C73	C	0.046187	0.704827	-0.027000
C74	C	0.090421	0.704834	-0.027015
N75	N	0.139647	0.630925	0.000079
C76	C	0.144627	0.557013	0.027174
C77	C	-0.312213	0.704801	-0.026989
C78	C	-0.356459	0.704798	-0.026988
C79	C	-0.302252	0.556971	0.027202
C80	C	-0.258005	0.556975	0.027198
C81	C	-0.262987	0.630893	0.000104
C82	C	0.237539	0.557027	0.027161
C83	C	0.281784	0.557038	0.027151
C84	C	0.227573	0.704865	-0.027036
C85	C	0.183331	0.704854	-0.027030
C86	C	0.188318	0.630929	0.000073
O87	O	0.090303	0.767658	-0.050058
O88	O	0.190561	0.494159	0.050220
C89	C	-0.032349	0.556997	0.027190
C90	C	-0.081572	0.630905	0.000101
C91	C	-0.086552	0.704817	-0.026994
C92	C	-0.125818	0.630901	0.000102
C93	C	-0.120839	0.556990	0.027196
C94	C	-0.071613	0.483081	0.054290
C95	C	-0.027370	0.483085	0.054285
C96	C	-0.135777	0.778725	-0.054088
C97	C	-0.180019	0.778715	-0.054081
C98	C	-0.175039	0.704803	-0.026986
C99	C	0.601426	0.630894	0.000100
C100	C	0.648521	0.630886	0.000106
C101	C	0.462657	0.630881	-0.138659
C102	C	0.462655	0.630868	-0.185747
C103	C	0.462666	0.820175	0.000087
C104	C	0.462667	0.884406	0.000089
C105	C	0.489770	0.557003	-0.494959
C106	C	0.489762	0.556978	-0.317960
O107	O	0.512821	0.494119	-0.272034
N108	N	0.462664	0.630885	-0.322919
C109	C	0.435570	0.704804	-0.372133
O110	O	0.412526	0.767667	-0.372290
C111	C	0.435581	0.704828	-0.549131
C112	C	0.462676	0.630916	-0.544168
C113	C	0.516863	0.483096	-0.489998
C114	C	0.516862	0.483103	-0.534245
C115	C	0.489768	0.557016	-0.583454
C116	C	0.462675	0.630923	-0.588415
C117	C	0.408490	0.778746	-0.598344
C118	C	0.408496	0.778746	-0.642594
C119	C	0.435591	0.704833	-0.637630
C120	C	0.435581	0.704843	-0.681871
N121	N	0.462678	0.630935	-0.676912
C122	C	0.489772	0.557022	-0.627703
C123	C	0.435565	0.704787	-0.279205
C124	C	0.435561	0.704781	-0.234955
C125	C	0.489754	0.556954	-0.180785
C126	C	0.489755	0.556961	-0.225035
C127	C	0.462662	0.630879	-0.274245
C128	C	0.489768	0.557042	-0.720628
C129	C	0.489763	0.557056	-0.764882
C130	C	0.435573	0.704882	-0.819048
C131	C	0.435575	0.704869	-0.774798
C132	C	0.462677	0.630942	-0.725587
O133	O	0.412538	0.767669	-0.727812
O134	O	0.512822	0.494169	-0.627557
C135	C	0.489770	0.556996	-0.450712
C136	C	0.462677	0.630902	-0.455673
C137	C	0.435583	0.704815	-0.504881
C138	C	0.462673	0.630896	-0.411424
C139	C	0.489767	0.556983	-0.362215
C140	C	0.516865	0.483076	-0.357255
C141	C	0.516864	0.483082	-0.401503
C142	C	0.408486	0.778723	-0.509841
C143	C	0.408488	0.778710	-0.465591
C144	C	0.435582	0.704797	-0.416383
C145	C	0.462668	0.630956	0.138822
C146	C	0.462670	0.630969	0.185910
C147	C	0.601422	0.441638	0.000094
C148	C	0.648516	0.377398	0.000098
C149	C	0.462664	0.441700	0.138816
C150	C	0.462665	0.377481	0.185902
C151	C	0.601427	0.441676	0.138835
C152	C	0.648523	0.377449	0.185926
C153	C	0.323897	0.820161	-0.138672
C154	C	0.276802	0.884388	-0.185763
C155	C	0.323903	0.820198	0.000069
C156	C	0.276809	0.884438	0.000065
C157	C	0.462661	0.820137	-0.138653
C158	C	0.462660	0.884356	-0.185739
C159	C	0.643534	0.347228	-0.027000
C160	C	0.687779	0.286876	-0.027006
C161	C	0.737006	0.256691	0.000089
C162	C	0.741986	0.286868	0.027188
C163	C	0.697742	0.347223	0.027191
C164	C	0.489762	0.347325	0.235114
C165	C	0.489761	0.286993	0.279359
C166	C	0.462664	0.256813	0.274392
C167	C	0.435563	0.286974	0.225175
C168	C	0.435562	0.347310	0.180930
C169	C	0.697739	0.347275	0.180953
C170	C	0.741995	0.286935	0.225196
C171	C	0.737033	0.256766	0.274413
C172	C	0.687811	0.286946	0.279385
C173	C	0.643557	0.347289	0.235142
C174	C	0.227585	0.914569	-0.180790
C175	C	0.183330	0.974927	-0.225033
C176	C	0.188292	1.005100	-0.274250
C177	C	0.237514	0.974916	-0.279222
C178	C	0.281768	0.914563	-0.234979
C179	C	0.281791	0.914615	0.027158
C180	C	0.237546	0.974984	0.027152
C181	C	0.188319	1.005170	0.000056
C182	C	0.183338	0.974991	-0.027041
C183	C	0.227583	0.914628	-0.027038
C184	C	0.489762	0.914517	-0.180755
C185	C	0.489771	0.974849	-0.224992
C186	C	0.462676	1.005024	-0.274213
C187	C	0.435574	0.974857	-0.279196
C188	C	0.435567	0.914522	-0.234959
H189	H	0.545007	0.124715	0.007108
H190	H	0.511816	0.262308	-0.049073
Cl191	Cl	0.581686	0.385209	0.241404
H192	H	0.223520	0.890059	-0.049099
Cl193	Cl	0.401487	0.876620	-0.241233
H194	H	0.413507	-0.109963	0.049236
H195	H	0.701805	0.371780	0.049260
Cl196	Cl	0.132701	1.081055	0.000058
Cl197	Cl	0.550923	0.390157	-0.295385
H198	H	0.413498	0.371854	0.140861
Cl199	Cl	0.523842	1.012766	-0.218716
Cl200	Cl	0.221334	0.876650	-0.118923
Cl201	Cl	0.523810	0.385168	-0.061080
Cl202	Cl	-0.196126	0.464052	0.061258
H203	H	0.386423	0.838913	-0.549906
Cl204	Cl	0.167238	0.390172	0.088334
Cl205	Cl	0.121458	1.012857	-0.218770
H206	H	0.152253	1.054243	-0.310271
H207	H	0.413502	0.262393	0.221139
H208	H	0.241611	0.999545	0.049220
Cl209	Cl	0.462672	0.180961	0.330020
Cl210	Cl	0.523821	0.012855	-0.061066
Cl211	Cl	0.523832	0.385251	0.241372
H212	H	0.241548	0.999490	-0.319299
H213	H	0.538928	0.422904	-0.449932
H214	H	0.413513	0.999435	-0.319277
Cl215	Cl	0.121450	1.012945	-0.061101
Cl216	Cl	0.523830	0.876594	-0.118883
H217	H	0.065180	0.422902	0.076341
H218	H	0.321841	0.889990	-0.239035
Cl219	Cl	0.343670	0.876683	0.061224
Cl220	Cl	0.803875	0.248909	0.061251
Cl221	Cl	0.462687	1.080878	-0.329821
H222	H	0.545010	0.015209	0.007120
H223	H	0.511818	0.496775	-0.220989
Cl224	Cl	-0.418338	0.797722	-0.061055
Cl225	Cl	0.523823	-0.123373	-0.061061
H226	H	0.380308	0.137142	-0.006957
Cl227	Cl	0.401506	0.012903	0.061233
H228	H	0.511831	0.262443	0.319430
H229	H	0.701789	0.371830	0.140882
Cl230	Cl	0.034508	0.390160	0.088346
Cl231	Cl	0.401504	0.248982	0.061228
H232	H	0.782069	0.262369	0.221138
H233	H	0.380303	0.246641	-0.006968
Cl234	Cl	0.401503	0.385208	0.061229
Cl235	Cl	0.401511	0.797796	-0.880917
H236	H	0.321865	0.496846	0.049214
H237	H	0.773072	0.207631	0.310434
H238	H	0.683779	0.262373	0.319463
H239	H	-0.298204	0.496789	0.049260
Cl240	Cl	-0.318486	0.797736	-0.061055
Cl241	Cl	0.243815	0.464092	0.061231
Cl242	Cl	0.121447	0.797775	-0.061098
Cl243	Cl	-0.109164	0.871670	-0.088148
Cl244	Cl	0.792623	0.180814	0.000081
Cl245	Cl	-0.009307	0.871671	-0.088153
H246	H	0.223527	0.765042	-0.049098
H247	H	-0.067566	0.422899	0.076348
Cl248	Cl	0.550929	0.390159	-0.395255
H249	H	-0.139840	0.838915	-0.076153
Cl250	Cl	-0.241900	0.871645	-0.088144
H251	H	0.511837	0.496844	-0.680563
Cl252	Cl	0.523827	0.464130	-0.758637
Cl253	Cl	0.550929	0.390179	-0.527997
H254	H	0.511813	0.496771	-0.140711
Cl255	Cl	0.401486	0.797703	-0.241202
Cl256	Cl	0.401500	0.797723	-0.341066
H257	H	0.386427	0.838934	-0.602396
H258	H	0.386434	0.838940	-0.682662
H259	H	0.386419	0.838903	-0.469641
Cl260	Cl	0.401520	0.797788	-0.781038
H261	H	0.603455	0.371803	-0.049070
H262	H	0.683714	0.262314	-0.049073
