data_functionalizedCrystal
_audit_creation_method	'MofGen! by Chris Wilmer'
_symmetry_space_group_name_H-M	'P1'
_symmetry_Int_Tables_number	1
_symmetry_cell_setting	triclinic
loop_
_symmetry_equiv_pos_as_xyz
  x,y,z
_cell_length_a	15.944551
_cell_length_b	18.266242
_cell_length_c	15.944493
_cell_angle_alpha	90.000472
_cell_angle_beta	83.486891
_cell_angle_gamma	90.004545
loop_
_atom_site_label
_atom_site_type_symbol
_atom_site_fract_x
_atom_site_fract_y
_atom_site_fract_z
O1	O	1.114507	0.060795	0.108336
O2	O	0.869955	0.060812	0.121693
O3	O	0.998934	0.060809	-0.007264
O4	O	0.985527	0.060798	0.237293
O5	O	0.998912	-0.060953	-0.007270
O6	O	0.869933	-0.060950	0.121686
O7	O	1.114485	-0.060967	0.108330
Zn8	Zn	0.992205	-0.080291	0.115007
Zn9	Zn	0.992234	0.080136	0.115016
O10	O	0.985505	-0.060964	0.237286
C11	C	0.838650	-0.000067	0.121135
C12	C	0.745404	-0.000060	0.119473
N13	N	0.992192	-0.189778	0.115000
C14	C	0.530565	-0.000070	0.035566
C15	C	0.469547	0.059963	0.074533
C16	C	0.574679	-0.000068	0.116465
C17	C	0.469548	-0.060085	0.074545
C18	C	0.409767	-0.000080	0.113555
C19	C	0.514890	0.060015	0.155454
C20	C	0.514897	-0.060087	0.155456
C21	C	0.453897	-0.000039	0.194481
C22	C	0.669681	-0.000061	0.118140
C23	C	0.314766	-0.000082	0.111886
C24	C	1.049323	-0.228088	0.057927
C25	C	1.049328	-0.304733	0.057923
C26	C	0.992211	-0.343065	0.115007
C27	C	0.935069	-0.304745	0.172085
C28	C	0.935060	-0.228102	0.172082
N29	N	0.981508	-0.463400	0.189333
N30	N	0.981522	-0.536208	0.189333
C31	C	0.992234	-0.573987	0.115019
N32	N	1.002949	-0.536208	0.040702
N33	N	1.002939	-0.463393	0.040703
C34	C	0.992214	-0.426172	0.115017
C35	C	1.049374	-0.695404	0.057936
C36	C	1.049374	-0.772051	0.057931
C37	C	0.935118	-0.772062	0.172101
C38	C	0.935115	-0.695417	0.172099
C39	C	0.992247	-0.657093	0.115018
C40	C	1.145790	-0.000087	0.108887
C41	C	1.239036	-0.000089	0.110550
C42	C	0.998375	-0.000069	-0.038562
C43	C	0.996733	-0.000059	-0.131810
N44	N	0.992254	0.189623	0.115016
C45	C	1.072653	-0.000079	-0.367570
C46	C	1.031723	0.059959	-0.418135
C47	C	0.993688	-0.000068	-0.302531
C48	C	1.031683	-0.060089	-0.418118
C49	C	0.990754	-0.000080	-0.467441
C50	C	0.952780	0.060019	-0.351868
C51	C	0.952751	-0.060083	-0.351847
C52	C	0.911763	-0.000031	-0.402379
C53	C	0.995381	-0.000061	-0.207531
C54	C	0.989055	-0.000082	-0.562438
C55	C	0.986064	-0.000085	0.268584
C56	C	0.987707	-0.000089	0.361833
H57	H	0.563912	0.000007	-0.031574
H58	H	0.843692	0.000007	-0.417845
H59	H	0.888536	-0.196909	0.218559
H60	H	0.535012	-0.110846	0.189642
H61	H	1.065080	0.110712	-0.447078
H62	H	0.888609	-0.803271	0.218577
H63	H	0.888561	-0.335959	0.218563
H64	H	0.420724	-0.000009	0.261690
H65	H	0.449453	0.110720	0.040319
H66	H	0.449460	-0.110836	0.040311
H67	H	1.140671	-0.000023	-0.351942
H68	H	0.888597	-0.664223	0.218577
H69	H	0.919460	0.110830	-0.323045
H70	H	1.095892	-0.664200	0.011455
H71	H	0.919423	-0.110838	-0.322889
H72	H	0.534879	0.110823	0.189649
H73	H	1.065038	-0.110842	-0.447051
H74	H	1.095853	-0.335931	0.011444
H75	H	1.095841	-0.196887	0.011445
H76	H	1.095894	-0.803243	0.011451
