data_functionalizedCrystal
_audit_creation_method	'MofGen! by Chris Wilmer'
_symmetry_space_group_name_H-M	'P1'
_symmetry_Int_Tables_number	1
_symmetry_cell_setting	triclinic
loop_
_symmetry_equiv_pos_as_xyz
  x,y,z
_cell_length_a	27.732064
_cell_length_b	27.731996
_cell_length_c	26.210047
_cell_angle_alpha	90.010646
_cell_angle_beta	90.008789
_cell_angle_gamma	82.635407
loop_
_atom_site_label
_atom_site_type_symbol
_atom_site_fract_x
_atom_site_fract_y
_atom_site_fract_z
O1	O	0.640920	0.057556	0.042344
O2	O	0.890920	0.307556	0.292344
O3	O	1.140920	0.557556	0.542344
O4	O	1.390920	0.807556	0.792344
O5	O	0.500126	0.066293	0.042366
O6	O	0.750126	0.316293	0.292366
O7	O	1.000126	0.566293	0.542366
O8	O	1.250126	0.816293	0.792366
O9	O	0.574908	-0.008474	0.042344
O10	O	0.824908	0.241526	0.292344
O11	O	1.074908	0.491526	0.542344
O12	O	1.324908	0.741526	0.792344
O13	O	0.566137	0.132322	0.042367
O14	O	0.816137	0.382322	0.292367
O15	O	1.066137	0.632322	0.542367
O16	O	1.316137	0.882322	0.792367
O17	O	0.574885	-0.008474	-0.042514
O18	O	0.824885	0.241526	0.207486
O19	O	1.074885	0.491526	0.457486
O20	O	1.324885	0.741526	0.707486
O21	O	0.500102	0.066293	-0.042492
O22	O	0.750102	0.316293	0.207508
O23	O	1.000102	0.566293	0.457508
O24	O	1.250102	0.816293	0.707508
O25	O	0.640896	0.057556	-0.042514
O26	O	0.890896	0.307556	0.207486
O27	O	1.140896	0.557556	0.457486
O28	O	1.390896	0.807556	0.707486
Cu29	Cu	0.570497	0.061924	-0.050251
Cu30	Cu	0.820497	0.311924	0.199749
Cu31	Cu	1.070497	0.561924	0.449749
Cu32	Cu	1.320497	0.811924	0.699749
Cu33	Cu	0.570525	0.061924	0.050104
Cu34	Cu	0.820525	0.311924	0.300104
Cu35	Cu	1.070525	0.561924	0.550104
Cu36	Cu	1.320525	0.811924	0.800104
O37	O	0.566113	0.132322	-0.042491
O38	O	0.816113	0.382322	0.207509
O39	O	1.066113	0.632322	0.457509
O40	O	1.316113	0.882322	0.707509
C41	C	0.482107	0.066108	-0.000060
C42	C	0.732107	0.316108	0.249940
C43	C	0.982107	0.566108	0.499940
C44	C	1.232107	0.816108	0.749940
C45	C	0.428453	0.065552	-0.000052
C46	C	0.678453	0.315552	0.249948
C47	C	0.928453	0.565552	0.499948
C48	C	1.178453	0.815552	0.749948
C49	C	0.574717	-0.026482	-0.000087
C50	C	0.824717	0.223518	0.249913
C51	C	1.074717	0.473518	0.499913
C52	C	1.324717	0.723518	0.749913
C53	C	0.574174	-0.080138	-0.000092
C54	C	0.824174	0.169862	0.249908
C55	C	1.074174	0.419862	0.499908
C56	C	1.324174	0.669862	0.749908
C57	C	0.051389	0.017584	-0.000089
C58	C	0.301389	0.267584	0.249911
C59	C	0.551389	0.517584	0.499911
C60	C	0.801389	0.767584	0.749911
C61	C	0.253049	0.019630	-0.000076
C62	C	0.503049	0.269630	0.249924
C63	C	0.753049	0.519630	0.499924
C64	C	1.003049	0.769630	0.749924
O65	O	0.284309	-0.017592	-0.000101
O66	O	0.534309	0.232408	0.249899
O67	O	0.784309	0.482408	0.499899
O68	O	1.034309	0.732408	0.749899
N69	N	0.272168	0.063966	-0.000066
N70	N	0.522168	0.313966	0.249934
N71	N	0.772168	0.563966	0.499934
N72	N	1.022168	0.813966	0.749934
C73	C	0.240869	0.107793	-0.000063
C74	C	0.490869	0.357793	0.249937
C75	C	0.740869	0.607793	0.499937
C76	C	0.990869	0.857793	0.749937
O77	O	0.261758	0.145549	-0.000060
O78	O	0.511758	0.395549	0.249940
O79	O	0.761758	0.645549	0.499940
O80	O	1.011758	0.895549	0.749940
C81	C	0.039210	0.105746	-0.000080
C82	C	0.289210	0.355746	0.249920
C83	C	0.539210	0.605746	0.499920
C84	C	0.789210	0.855746	0.749920
C85	C	0.020094	0.061407	-0.000085
C86	C	0.270094	0.311407	0.249915
C87	C	0.520094	0.561407	0.499915
C88	C	0.770094	0.811407	0.749915
C89	C	0.032272	-0.026751	-0.000094
C90	C	0.282272	0.223249	0.249906
C91	C	0.532272	0.473249	0.499906
C92	C	0.782272	0.723249	0.749906
C93	C	-0.018140	-0.027262	-0.000095
C94	C	0.231860	0.222738	0.249905
C95	C	0.481860	0.472738	0.499905
C96	C	0.731860	0.722738	0.749905
C97	C	-0.049435	0.016562	-0.000090
C98	C	0.200565	0.266562	0.249910
C99	C	0.450565	0.516562	0.499910
C100	C	0.700565	0.766562	0.749910
C101	C	-0.030318	0.060896	-0.000085
C102	C	0.219682	0.310896	0.249915
C103	C	0.469682	0.560896	0.499915
C104	C	0.719682	0.810896	0.749915
C105	C	0.007912	0.149572	-0.000081
C106	C	0.257912	0.399572	0.249919
C107	C	0.507912	0.649572	0.499919
C108	C	0.757912	0.899572	0.749919
C109	C	-0.042506	0.149057	-0.000087
C110	C	0.207494	0.399057	0.249913
C111	C	0.457494	0.649057	0.499913
C112	C	0.707494	0.899057	0.749913
C113	C	-0.061622	0.104718	-0.000091
C114	C	0.188378	0.354718	0.249909
C115	C	0.438378	0.604718	0.499909
C116	C	0.688378	0.854718	0.749909
C117	C	-0.112026	0.104209	-0.000082
C118	C	0.137974	0.354209	0.249918
C119	C	0.387974	0.604209	0.499918
C120	C	0.637974	0.854209	0.749918
N121	N	-0.131145	0.059873	-0.000091
N122	N	0.118855	0.309873	0.249909
N123	N	0.368855	0.559873	0.499909
N124	N	0.618855	0.809873	0.749909
C125	C	-0.099849	0.016050	-0.000096
C126	C	0.150151	0.266050	0.249904
C127	C	0.400151	0.516050	0.499904
C128	C	0.650151	0.766050	0.749904
C129	C	0.346743	0.108864	-0.000053
C130	C	0.596743	0.358864	0.249947
C131	C	0.846743	0.608864	0.499947
C132	C	1.096743	0.858864	0.749947
C133	C	0.397158	0.109376	-0.000048
C134	C	0.647158	0.359376	0.249952
C135	C	0.897158	0.609376	0.499952
C136	C	1.147158	0.859376	0.749952
C137	C	0.409334	0.021213	-0.000061
C138	C	0.659334	0.271213	0.249939
C139	C	0.909334	0.521213	0.499939
C140	C	1.159334	0.771213	0.749939
C141	C	0.358919	0.020702	-0.000063
C142	C	0.608919	0.270702	0.249937
C143	C	0.858919	0.520702	0.499937
C144	C	1.108919	0.770702	0.749937
C145	C	0.327624	0.064529	-0.000063
C146	C	0.577624	0.314529	0.249937
C147	C	0.827624	0.564529	0.499937
C148	C	1.077624	0.814529	0.749937
C149	C	-0.205719	0.014980	-0.000096
C150	C	0.044281	0.264980	0.249904
C151	C	0.294281	0.514980	0.499904
C152	C	0.544281	0.764980	0.749904
C153	C	-0.256136	0.014473	-0.000095
C154	C	-0.006136	0.264473	0.249905
C155	C	0.243864	0.514473	0.499905
C156	C	0.493864	0.764473	0.749905
C157	C	-0.268308	0.102635	-0.000084
C158	C	-0.018308	0.352635	0.249916
C159	C	0.231692	0.602635	0.499916
C160	C	0.481692	0.852635	0.749916
C161	C	-0.217895	0.103142	-0.000083
C162	C	0.032105	0.353142	0.249917
C163	C	0.282105	0.603142	0.499917
C164	C	0.532105	0.853142	0.749917
C165	C	-0.186601	0.059311	-0.000091
C166	C	0.063399	0.309311	0.249909
C167	C	0.313399	0.559311	0.499909
C168	C	0.563399	0.809311	0.749909
O169	O	-0.143313	0.141411	-0.000062
O170	O	0.106687	0.391411	0.249938
O171	O	0.356687	0.641411	0.499938
O172	O	0.606687	0.891411	0.749938
O173	O	-0.120748	-0.021702	-0.000110
O174	O	0.129252	0.228298	0.249890
O175	O	0.379252	0.478298	0.499890
O176	O	0.629252	0.728298	0.749890
C177	C	0.101801	0.018095	-0.000089
C178	C	0.351801	0.268095	0.249911
C179	C	0.601801	0.518095	0.499911
C180	C	0.851801	0.768095	0.749911
C181	C	0.120918	0.062430	-0.000083
C182	C	0.370918	0.312430	0.249917
C183	C	0.620918	0.562430	0.499917
C184	C	0.870918	0.812430	0.749917
C185	C	0.089623	0.106253	-0.000079
C186	C	0.339623	0.356253	0.249921
C187	C	0.589623	0.606253	0.499921
C188	C	0.839623	0.856253	0.749921
C189	C	0.171332	0.062941	-0.000078
C190	C	0.421332	0.312941	0.249922
C191	C	0.671332	0.562941	0.499922
C192	C	0.921332	0.812941	0.749922
C193	C	0.202628	0.019118	-0.000083
C194	C	0.452628	0.269118	0.249917
C195	C	0.702628	0.519118	0.499917
C196	C	0.952628	0.769118	0.749917
C197	C	0.183508	-0.025218	-0.000092
C198	C	0.433508	0.224782	0.249908
C199	C	0.683508	0.474782	0.499908
C200	C	0.933508	0.724782	0.749908
C201	C	0.133096	-0.025729	-0.000093
C202	C	0.383096	0.224271	0.249907
C203	C	0.633096	0.474271	0.499907
C204	C	0.883096	0.724271	0.749907
C205	C	0.108742	0.150589	-0.000069
C206	C	0.358742	0.400589	0.249931
C207	C	0.608742	0.650589	0.499931
C208	C	0.858742	0.900589	0.749931
C209	C	0.159154	0.151096	-0.000068
C210	C	0.409154	0.401096	0.249932
C211	C	0.659154	0.651096	0.499932
C212	C	0.909154	0.901096	0.749932
C213	C	0.190450	0.107273	-0.000073
C214	C	0.440450	0.357273	0.249927
C215	C	0.690450	0.607273	0.499927
C216	C	0.940450	0.857273	0.749927
C217	C	0.570772	-0.412854	0.046189
C218	C	0.820772	-0.162854	0.296189
C219	C	1.070772	0.087146	0.546189
C220	C	1.320772	0.337146	0.796189
C221	C	0.568711	-0.614513	0.046199
C222	C	0.818711	-0.364513	0.296199
C223	C	1.068711	-0.114513	0.546199
C224	C	1.318711	0.135487	0.796199
O225	O	0.568434	-0.640583	0.085538
O226	O	0.818434	-0.390583	0.335538
O227	O	1.068434	-0.140583	0.585538
O228	O	1.318434	0.109417	0.835538
N229	N	0.568442	-0.639730	-0.000057
N230	N	0.818442	-0.389730	0.249943
N231	N	1.068442	-0.139730	0.499943
N232	N	1.318442	0.110270	0.749943
C233	C	0.568686	-0.614529	-0.046318
C234	C	0.818686	-0.364529	0.203682
C235	C	1.068686	-0.114529	0.453682
C236	C	1.318686	0.135471	0.703682
O237	O	0.568405	-0.640604	-0.085661
O238	O	0.818405	-0.390604	0.164339
O239	O	1.068405	-0.140604	0.414339
O240	O	1.318405	0.109396	0.664339
C241	C	0.570743	-0.412871	-0.046327
C242	C	0.820743	-0.162871	0.203673
C243	C	1.070743	0.087129	0.453673
C244	C	1.320743	0.337129	0.703673
C245	C	0.571017	-0.387657	-0.000068
C246	C	0.821017	-0.137657	0.249932
C247	C	1.071017	0.112343	0.499932
C248	C	1.321017	0.362343	0.749932
C249	C	0.571045	-0.387640	0.092444
C250	C	0.821045	-0.137640	0.342444
C251	C	1.071045	0.112360	0.592444
C252	C	1.321045	0.362360	0.842444
C253	C	0.571563	-0.337229	0.092442
C254	C	0.821563	-0.087229	0.342442
C255	C	1.071563	0.162771	0.592442
C256	C	1.321563	0.412771	0.842442
C257	C	0.571808	-0.312032	0.046184
C258	C	0.821808	-0.062032	0.296184
C259	C	1.071808	0.187968	0.546184
C260	C	1.321808	0.437968	0.796184
C261	C	0.571535	-0.337246	-0.000071
C262	C	0.821535	-0.087246	0.249929
C263	C	1.071535	0.162754	0.499929
C264	C	1.321535	0.412754	0.749929
C265	C	0.570983	-0.387670	-0.092588
C266	C	0.820983	-0.137670	0.157412
C267	C	1.070983	0.112330	0.407412
C268	C	1.320983	0.362330	0.657412
C269	C	0.571496	-0.337253	-0.092586
C270	C	0.821496	-0.087253	0.157414
C271	C	1.071496	0.162747	0.407414
C272	C	1.321496	0.412747	0.657414
C273	C	0.571770	-0.312039	-0.046327
C274	C	0.821770	-0.062039	0.203673
C275	C	1.071770	0.187961	0.453673
C276	C	1.321770	0.437961	0.703673
C277	C	0.572297	-0.261637	-0.046332
C278	C	0.822297	-0.011637	0.203668
C279	C	1.072297	0.238363	0.453668
C280	C	1.322297	0.488363	0.703668
N281	N	0.572566	-0.236420	-0.000076
N282	N	0.822566	0.013580	0.249924
N283	N	1.072566	0.263580	0.499924
N284	N	1.322566	0.513580	0.749924
C285	C	0.572321	-0.261618	0.046182
C286	C	0.822321	-0.011618	0.296182
C287	C	1.072321	0.238382	0.546182
C288	C	1.322321	0.488382	0.796182
C289	C	0.567606	-0.720402	-0.046310
C290	C	0.817606	-0.470402	0.203690
C291	C	1.067606	-0.220402	0.453690
C292	C	1.317606	0.029598	0.703690
C293	C	0.567093	-0.770817	-0.046308
C294	C	0.817093	-0.520817	0.203692
C295	C	1.067093	-0.270817	0.453692
C296	C	1.317093	-0.020817	0.703692
C297	C	0.567117	-0.770797	0.046209
C298	C	0.817117	-0.520797	0.296209
C299	C	1.067117	-0.270797	0.546209
C300	C	1.317117	-0.020797	0.796209
C301	C	0.567634	-0.720382	0.046206
C302	C	0.817634	-0.470382	0.296206
C303	C	1.067634	-0.220382	0.546206
C304	C	1.317634	0.029618	0.796206
C305	C	0.567875	-0.695185	-0.000055
C306	C	0.817875	-0.445185	0.249945
C307	C	1.067875	-0.195185	0.499945
C308	C	1.317875	0.054815	0.749945
C309	C	0.573409	-0.155750	0.046172
C310	C	0.823409	0.094250	0.296172
C311	C	1.073409	0.344250	0.546172
C312	C	1.323409	0.594250	0.796172
C313	C	0.573929	-0.105335	0.046166
C314	C	0.823929	0.144665	0.296166
C315	C	1.073929	0.394665	0.546166
C316	C	1.323929	0.644665	0.796166
C317	C	0.573902	-0.105359	-0.046351
C318	C	0.823902	0.144641	0.203649
C319	C	1.073902	0.394641	0.453649
C320	C	1.323902	0.644641	0.703649
C321	C	0.573385	-0.155770	-0.046345
C322	C	0.823385	0.094230	0.203655
C323	C	1.073385	0.344230	0.453655
C324	C	1.323385	0.594230	0.703655
C325	C	0.573137	-0.180964	-0.000079
C326	C	0.823137	0.069036	0.249921
C327	C	1.073137	0.319036	0.499921
C328	C	1.323137	0.569036	0.749921
O329	O	0.572568	-0.235535	-0.085650
O330	O	0.822568	0.014465	0.164350
O331	O	1.072568	0.264465	0.414350
O332	O	1.322568	0.514465	0.664350
O333	O	0.572591	-0.235532	0.085519
O334	O	0.822591	0.014468	0.335519
O335	O	1.072591	0.264468	0.585519
O336	O	1.322591	0.514468	0.835519
C337	C	0.570254	-0.463265	0.046192
C338	C	0.820254	-0.213265	0.296192
C339	C	1.070254	0.036735	0.546192
C340	C	1.320254	0.286735	0.796192
C341	C	0.569981	-0.488479	-0.000063
C342	C	0.819981	-0.238479	0.249937
C343	C	1.069981	0.011521	0.499937
C344	C	1.319981	0.261521	0.749937
C345	C	0.570226	-0.463282	-0.046320
C346	C	0.820226	-0.213282	0.203680
C347	C	1.070226	0.036718	0.453680
C348	C	1.320226	0.286718	0.703680
C349	C	0.569467	-0.538894	-0.000061
C350	C	0.819467	-0.288894	0.249939
C351	C	1.069467	-0.038894	0.499939
C352	C	1.319467	0.211106	0.749939
C353	C	0.569223	-0.564091	0.046197
C354	C	0.819223	-0.314091	0.296197
C355	C	1.069223	-0.064091	0.546197
C356	C	1.319223	0.185909	0.796197
C357	C	0.569491	-0.538874	0.092453
C358	C	0.819491	-0.288874	0.342453
C359	C	1.069491	-0.038874	0.592453
C360	C	1.319491	0.211126	0.842453
C361	C	0.570009	-0.488463	0.092450
C362	C	0.820009	-0.238463	0.342450
C363	C	1.070009	0.011537	0.592450
C364	C	1.320009	0.261537	0.842450
C365	C	0.569957	-0.488499	-0.092576
C366	C	0.819957	-0.238499	0.157424
C367	C	1.069957	0.011501	0.407424
C368	C	1.319957	0.261501	0.657424
C369	C	0.569440	-0.538911	-0.092569
C370	C	0.819440	-0.288911	0.157431
C371	C	1.069440	-0.038911	0.407431
C372	C	1.319440	0.211089	0.657431
C373	C	0.569195	-0.564108	-0.046312
C374	C	0.819195	-0.314108	0.203688
C375	C	1.069195	-0.064108	0.453688
C376	C	1.319195	0.185892	0.703688
C377	C	0.658915	0.057740	-0.000086
C378	C	0.908915	0.307740	0.249914
C379	C	1.158915	0.557740	0.499914
C380	C	1.408915	0.807740	0.749914
C381	C	0.712569	0.058296	-0.000091
C382	C	0.962569	0.308296	0.249909
C383	C	1.212569	0.558296	0.499909
C384	C	1.462569	0.808296	0.749909
C385	C	0.566305	0.150330	-0.000059
C386	C	0.816305	0.400330	0.249941
C387	C	1.066305	0.650330	0.499941
C388	C	1.316305	0.900330	0.749941
C389	C	0.566848	0.203986	-0.000051
C390	C	0.816848	0.453986	0.249949
C391	C	1.066848	0.703986	0.499949
C392	C	1.316848	0.953986	0.749949
N393	N	0.570481	0.061924	-0.120835
N394	N	0.820481	0.311924	0.129165
N395	N	1.070481	0.561924	0.379165
N396	N	1.320481	0.811924	0.629165
C397	C	0.599611	0.091037	-0.473349
C398	C	0.849611	0.341037	-0.223349
C399	C	1.099611	0.591037	0.026651
C400	C	1.349611	0.841037	0.276651
C401	C	0.599625	0.091037	-0.687007
C402	C	0.849625	0.341037	-0.437007
C403	C	1.099625	0.591037	-0.187007
C404	C	1.349625	0.841037	0.062993
O405	O	0.624381	0.115785	-0.714629
O406	O	0.874381	0.365785	-0.464629
O407	O	1.124381	0.615785	-0.214629
O408	O	1.374381	0.865785	0.035371
N409	N	0.570536	0.061919	-0.713729
N410	N	0.820536	0.311919	-0.463729
N411	N	1.070536	0.561919	-0.213729
N412	N	1.320536	0.811919	0.036271
C413	C	0.541444	0.032797	-0.687032
C414	C	0.791444	0.282797	-0.437032
C415	C	1.041444	0.532797	-0.187032
C416	C	1.291444	0.782797	0.062968
O417	O	0.516706	0.008027	-0.714663
O418	O	0.766706	0.258027	-0.464663
O419	O	1.016706	0.508027	-0.214663
O420	O	1.266706	0.758027	0.035337
C421	C	0.541433	0.032795	-0.473375
C422	C	0.791433	0.282795	-0.223375
C423	C	1.041433	0.532795	0.026625
C424	C	1.291433	0.782795	0.276625
C425	C	0.570520	0.061919	-0.446656
C426	C	0.820520	0.311919	-0.196656
C427	C	1.070520	0.561919	0.053344
C428	C	1.320520	0.811919	0.303344
C429	C	0.628696	0.120158	-0.446630
C430	C	0.878696	0.370158	-0.196630
C431	C	1.128696	0.620158	0.053370
C432	C	1.378696	0.870158	0.303370
C433	C	0.628690	0.120160	-0.393218
C434	C	0.878690	0.370160	-0.143218
C435	C	1.128690	0.620160	0.106782
C436	C	1.378690	0.870160	0.356782
C437	C	0.599599	0.091041	-0.366526
C438	C	0.849599	0.341041	-0.116526
C439	C	1.099599	0.591041	0.133474
C440	C	1.349599	0.841041	0.383474
C441	C	0.570514	0.061920	-0.393244
C442	C	0.820514	0.311920	-0.143244
C443	C	1.070514	0.561920	0.106756
C444	C	1.320514	0.811920	0.356756
C445	C	0.512343	0.003671	-0.446679
C446	C	0.762343	0.253671	-0.196679
C447	C	1.012343	0.503671	0.053321
C448	C	1.262343	0.753671	0.303321
C449	C	0.512344	0.003672	-0.393261
C450	C	0.762344	0.253672	-0.143261
C451	C	1.012344	0.503672	0.106739
C452	C	1.262344	0.753672	0.356739
C453	C	0.541431	0.032795	-0.366543
C454	C	0.791431	0.282795	-0.116543
C455	C	1.041431	0.532795	0.133457
C456	C	1.291431	0.782795	0.383457
C457	C	0.541417	0.032803	-0.313140
C458	C	0.791417	0.282803	-0.063140
C459	C	1.041417	0.532803	0.186860
C460	C	1.291417	0.782803	0.436860
N461	N	0.570506	0.061921	-0.286419
N462	N	0.820506	0.311921	-0.036419
N463	N	1.070506	0.561921	0.213581
N464	N	1.320506	0.811921	0.463581
C465	C	0.599597	0.091040	-0.313111
C466	C	0.849597	0.341040	-0.063111
C467	C	1.099597	0.591040	0.186889
C468	C	1.349597	0.841040	0.436889
C469	C	0.541451	0.032801	-0.799206
C470	C	0.791451	0.282801	-0.549206
C471	C	1.041451	0.532801	-0.299206
C472	C	1.291451	0.782801	-0.049206
C473	C	0.541453	0.032802	-0.852620
C474	C	0.791453	0.282802	-0.602620
C475	C	1.041453	0.532802	-0.352620
C476	C	1.291453	0.782802	-0.102620
C477	C	0.599636	0.091041	-0.852591
C478	C	0.849636	0.341041	-0.602591
C479	C	1.099636	0.591041	-0.352591
C480	C	1.349636	0.841041	-0.102591
C481	C	0.599630	0.091042	-0.799176
C482	C	0.849630	0.341042	-0.549176
C483	C	1.099630	0.591042	-0.299176
C484	C	1.349630	0.841042	-0.049176
C485	C	0.570540	0.061919	-0.772484
C486	C	0.820540	0.311919	-0.522484
C487	C	1.070540	0.561919	-0.272484
C488	C	1.320540	0.811919	-0.022484
C489	C	0.599582	0.091042	-0.200944
C490	C	0.849582	0.341042	0.049056
C491	C	1.099582	0.591042	0.299056
C492	C	1.349582	0.841042	0.549056
C493	C	0.599572	0.091043	-0.147527
C494	C	0.849572	0.341043	0.102473
C495	C	1.099572	0.591043	0.352473
C496	C	1.349572	0.841043	0.602473
C497	C	0.541392	0.032802	-0.147561
C498	C	0.791392	0.282802	0.102439
C499	C	1.041392	0.532802	0.352439
C500	C	1.291392	0.782802	0.602439
C501	C	0.541400	0.032803	-0.200972
C502	C	0.791400	0.282803	0.049028
C503	C	1.041400	0.532803	0.299028
C504	C	1.291400	0.782803	0.549028
C505	C	0.570499	0.061924	-0.227662
C506	C	0.820499	0.311924	0.022338
C507	C	1.070499	0.561924	0.272338
C508	C	1.320499	0.811924	0.522338
O509	O	0.516678	0.008064	-0.285486
O510	O	0.766678	0.258064	-0.035486
O511	O	1.016678	0.508064	0.214514
O512	O	1.266678	0.758064	0.464514
O513	O	0.624340	0.115798	-0.285471
O514	O	0.874340	0.365798	-0.035471
O515	O	1.124340	0.615798	0.214529
O516	O	1.374340	0.865798	0.464529
C517	C	0.599617	0.091036	-0.526760
C518	C	0.849617	0.341036	-0.276760
C519	C	1.099617	0.591036	-0.026760
C520	C	1.349617	0.841036	0.223240
C521	C	0.570532	0.061915	-0.553479
C522	C	0.820532	0.311915	-0.303479
C523	C	1.070532	0.561915	-0.053479
C524	C	1.320532	0.811915	0.196521
C525	C	0.541440	0.032796	-0.526786
C526	C	0.791440	0.282796	-0.276786
C527	C	1.041440	0.532796	-0.026786
C528	C	1.291440	0.782796	0.223214
C529	C	0.570534	0.061916	-0.606893
C530	C	0.820534	0.311916	-0.356893
C531	C	1.070534	0.561916	-0.106893
C532	C	1.320534	0.811916	0.143107
C533	C	0.599625	0.091035	-0.633586
C534	C	0.849625	0.341035	-0.383586
C535	C	1.099625	0.591035	-0.133586
C536	C	1.349625	0.841035	0.116414
C537	C	0.628714	0.120153	-0.606864
C538	C	0.878714	0.370153	-0.356864
C539	C	1.128714	0.620153	-0.106864
C540	C	1.378714	0.870153	0.143136
C541	C	0.628708	0.120154	-0.553453
C542	C	0.878708	0.370154	-0.303453
C543	C	1.128708	0.620154	-0.053453
C544	C	1.378708	0.870154	0.196547
C545	C	0.512351	0.003678	-0.553508
C546	C	0.762351	0.253678	-0.303508
C547	C	1.012351	0.503678	-0.053508
C548	C	1.262351	0.753678	0.196492
C549	C	0.512359	0.003679	-0.606919
C550	C	0.762359	0.253679	-0.356919
C551	C	1.012359	0.503679	-0.106919
C552	C	1.262359	0.753679	0.143081
C553	C	0.541450	0.032798	-0.633612
C554	C	0.791450	0.282798	-0.383612
C555	C	1.041450	0.532798	-0.133612
C556	C	1.291450	0.782798	0.116388
N557	N	0.570545	0.061921	0.120688
N558	N	0.820545	0.311921	0.370688
N559	N	1.070545	0.561921	0.620688
N560	N	1.320545	0.811921	0.870688
H561	H	-0.271697	-0.021635	-0.000097
H562	H	-0.021697	0.228365	0.249903
H563	H	0.228303	0.478365	0.499903
H564	H	0.478303	0.728365	0.749903
H565	H	0.566877	-0.791342	-0.083977
H566	H	0.816877	-0.541342	0.166023
H567	H	1.066877	-0.291342	0.416023
H568	H	1.316877	-0.041342	0.666023
H569	H	0.623259	0.114761	-0.125775
H570	H	0.873259	0.364761	0.124225
H571	H	1.123259	0.614761	0.374225
H572	H	1.373259	0.864761	0.624225
H573	H	0.174713	0.187204	-0.000061
H574	H	0.424713	0.437204	0.249939
H575	H	0.674713	0.687204	0.499939
H576	H	0.924713	0.937204	0.749939
Cl577	Cl	0.570261	-0.456830	-0.150735
Cl578	Cl	0.820261	-0.206830	0.099265
Cl579	Cl	1.070261	0.043170	0.349265
Cl580	Cl	1.320261	0.293170	0.599265
H581	H	-0.180245	-0.020712	-0.000103
H582	H	0.069755	0.229288	0.249897
H583	H	0.319755	0.479288	0.499897
H584	H	0.569755	0.729288	0.749897
H585	H	0.321266	0.144555	-0.000052
H586	H	0.571266	0.394555	0.249948
H587	H	0.821266	0.644555	0.499948
H588	H	1.071266	0.894555	0.749948
Cl589	Cl	0.573098	-0.187416	0.104336
Cl590	Cl	0.823098	0.062584	0.354336
Cl591	Cl	1.073098	0.312584	0.604336
Cl592	Cl	1.323098	0.562584	0.854336
H593	H	0.623316	0.114758	-0.777425
H594	H	0.873316	0.364758	-0.527425
H595	H	1.123316	0.614758	-0.277425
H596	H	1.373316	0.864758	-0.027425
Cl597	Cl	0.475767	-0.032924	-0.519959
Cl598	Cl	0.725767	0.217076	-0.269959
Cl599	Cl	0.975767	0.467076	-0.019959
Cl600	Cl	1.225767	0.717076	0.230041
H601	H	0.652394	0.143870	-0.531703
H602	H	0.902394	0.393870	-0.281703
H603	H	1.152394	0.643870	-0.031703
H604	H	1.402394	0.893870	0.218297
Cl605	Cl	-0.042163	-0.083005	-0.000096
Cl606	Cl	0.207837	0.166995	0.249904
Cl607	Cl	0.457837	0.416995	0.499904
Cl608	Cl	0.707837	0.666995	0.749904
Cl609	Cl	0.222861	-0.080309	-0.000096
Cl610	Cl	0.472861	0.169691	0.249904
Cl611	Cl	0.722861	0.419691	0.499904
Cl612	Cl	0.972861	0.669691	0.749904
H613	H	-0.293798	0.138315	-0.000078
H614	H	-0.043798	0.388315	0.249922
H615	H	0.206202	0.638315	0.499922
H616	H	0.456202	0.888315	0.749922
Cl617	Cl	0.071607	-0.081851	-0.000100
Cl618	Cl	0.321607	0.168149	0.249900
Cl619	Cl	0.571607	0.418149	0.499900
Cl620	Cl	0.821607	0.668149	0.749900
Cl621	Cl	0.334893	-0.035040	-0.000071
Cl622	Cl	0.584893	0.214960	0.249929
Cl623	Cl	0.834893	0.464960	0.499929
Cl624	Cl	1.084893	0.714960	0.749929
Cl625	Cl	0.448686	-0.033879	-0.000067
Cl626	Cl	0.698686	0.216121	0.249933
Cl627	Cl	0.948686	0.466121	0.499933
Cl628	Cl	1.198686	0.716121	0.749933
Cl629	Cl	0.574274	-0.073641	0.104324
Cl630	Cl	0.824274	0.176359	0.354324
Cl631	Cl	1.074274	0.426359	0.604324
Cl632	Cl	1.324274	0.676359	0.854324
Cl633	Cl	-0.193863	0.158882	-0.000071
Cl634	Cl	0.056137	0.408882	0.249929
Cl635	Cl	0.306137	0.658882	0.499929
Cl636	Cl	0.556137	0.908882	0.749929
Cl637	Cl	0.570636	-0.419355	-0.150745
Cl638	Cl	0.820636	-0.169355	0.099255
Cl639	Cl	1.070636	0.080645	0.349255
Cl640	Cl	1.320636	0.330645	0.599255
H641	H	0.571685	-0.316739	-0.130258
H642	H	0.821685	-0.066739	0.119742
H643	H	1.071685	0.183261	0.369742
H644	H	1.321685	0.433261	0.619742
H645	H	0.652399	0.143865	-0.628607
H646	H	0.902399	0.393865	-0.378607
H647	H	1.152399	0.643865	-0.128607
H648	H	1.402399	0.893865	0.121393
H649	H	0.412717	0.145480	-0.000037
H650	H	0.662717	0.395480	0.249963
H651	H	0.912717	0.645480	0.499963
H652	H	1.162717	0.895480	0.749963
H653	H	0.652388	0.143870	-0.468357
H654	H	0.902388	0.393870	-0.218357
H655	H	1.152388	0.643870	0.031643
H656	H	1.402388	0.893870	0.281643
H657	H	0.023467	0.185677	-0.000075
H658	H	0.273467	0.435677	0.249925
H659	H	0.523467	0.685677	0.499925
H660	H	0.773467	0.935677	0.749925
H661	H	-0.067984	0.184746	-0.000089
H662	H	0.182016	0.434746	0.249911
H663	H	0.432016	0.684746	0.499911
H664	H	0.682016	0.934746	0.749911
H665	H	0.117537	-0.061833	-0.000097
H666	H	0.367537	0.188167	0.249903
H667	H	0.617537	0.438167	0.499903
H668	H	0.867537	0.688167	0.749903
H669	H	0.083265	0.186276	-0.000066
H670	H	0.333265	0.436276	0.249934
H671	H	0.583265	0.686276	0.499934
H672	H	0.833265	0.936276	0.749934
Cl673	Cl	0.571902	-0.305539	0.150599
Cl674	Cl	0.821902	-0.055539	0.400599
Cl675	Cl	1.071902	0.194461	0.650599
Cl676	Cl	1.321902	0.444461	0.900599
H677	H	0.488668	-0.020035	-0.628669
H678	H	0.738668	0.229965	-0.378669
H679	H	0.988668	0.479965	-0.128669
H680	H	1.238668	0.729965	0.121331
H681	H	0.567856	-0.699856	0.083874
H682	H	0.817856	-0.449856	0.333874
H683	H	1.067856	-0.199856	0.583874
H684	H	1.317856	0.050144	0.833874
Cl685	Cl	0.570738	-0.419308	0.150605
Cl686	Cl	0.820738	-0.169308	0.400605
Cl687	Cl	1.070738	0.080692	0.650605
Cl688	Cl	1.320738	0.330692	0.900605
H689	H	0.623278	0.114755	-0.222668
H690	H	0.873278	0.364755	0.027332
H691	H	1.123278	0.614755	0.277332
H692	H	1.373278	0.864755	0.527332
Cl693	Cl	0.569098	-0.570602	-0.150730
Cl694	Cl	0.819098	-0.320602	0.099270
Cl695	Cl	1.069098	-0.070602	0.349270
Cl696	Cl	1.319098	0.179398	0.599270
H697	H	0.652378	0.143873	-0.371469
H698	H	0.902378	0.393873	-0.121469
H699	H	1.152378	0.643873	0.128531
H700	H	1.402378	0.893873	0.378531
H701	H	0.517762	0.009092	-0.874370
H702	H	0.767762	0.259092	-0.624370
H703	H	1.017762	0.509092	-0.374370
H704	H	1.267762	0.759092	-0.124370
Cl705	Cl	0.636209	0.127646	-0.886157
Cl706	Cl	0.886209	0.377646	-0.636157
Cl707	Cl	1.136209	0.627646	-0.386157
Cl708	Cl	1.386209	0.877646	-0.136157
Cl709	Cl	0.566807	-0.802482	0.104361
Cl710	Cl	0.816807	-0.552482	0.354361
Cl711	Cl	1.066807	-0.302482	0.604361
Cl712	Cl	1.316807	-0.052482	0.854361
Cl713	Cl	0.573050	-0.187470	-0.104499
Cl714	Cl	0.823050	0.062530	0.145501
Cl715	Cl	1.073050	0.312530	0.395501
Cl716	Cl	1.323050	0.562530	0.645501
Cl717	Cl	0.567907	-0.688733	-0.104473
Cl718	Cl	0.817907	-0.438733	0.145527
Cl719	Cl	1.067907	-0.188733	0.395527
Cl720	Cl	1.317907	0.061267	0.645527
H721	H	0.488658	-0.020045	-0.468425
H722	H	0.738658	0.229955	-0.218425
H723	H	0.988658	0.479955	0.031575
H724	H	1.238658	0.729955	0.281575
Cl725	Cl	0.504867	-0.003806	-0.765658
Cl726	Cl	0.754867	0.246194	-0.515658
Cl727	Cl	1.004867	0.496194	-0.265658
Cl728	Cl	1.254867	0.746194	-0.015658
Cl729	Cl	0.475775	-0.032947	-0.359710
Cl730	Cl	0.725775	0.217053	-0.109710
Cl731	Cl	0.975775	0.467053	0.140290
Cl732	Cl	1.225775	0.717053	0.390290
H733	H	0.517709	0.009094	-0.222728
H734	H	0.767709	0.259094	0.027272
H735	H	1.017709	0.509094	0.277272
H736	H	1.267709	0.759094	0.527272
Cl737	Cl	0.504822	-0.003802	-0.113994
Cl738	Cl	0.754822	0.246198	0.136006
Cl739	Cl	1.004822	0.496198	0.386006
Cl740	Cl	1.254822	0.746198	0.636006
H741	H	0.574104	-0.084834	-0.084013
H742	H	0.824104	0.165166	0.165987
H743	H	1.074104	0.415166	0.415987
H744	H	1.324104	0.665166	0.665987
H745	H	0.569294	-0.559399	0.130117
H746	H	0.819294	-0.309399	0.380117
H747	H	1.069294	-0.059399	0.630117
H748	H	1.319294	0.190601	0.880117
Cl749	Cl	0.570352	-0.456773	0.150607
Cl750	Cl	0.820352	-0.206773	0.400607
Cl751	Cl	1.070352	0.043227	0.650607
Cl752	Cl	1.320352	0.293227	0.900607
