data_functionalizedCrystal
_audit_creation_method	'MofGen! by Chris Wilmer'
_symmetry_space_group_name_H-M	'P1'
_symmetry_Int_Tables_number	1
_symmetry_cell_setting	triclinic
loop_
_symmetry_equiv_pos_as_xyz
  x,y,z
_cell_length_a	15.944486
_cell_length_b	14.421503
_cell_length_c	13.339070
_cell_angle_alpha	90.000326
_cell_angle_beta	99.550857
_cell_angle_gamma	89.988870
loop_
_atom_site_label
_atom_site_type_symbol
_atom_site_fract_x
_atom_site_fract_y
_atom_site_fract_z
O1	O	-1.144888	0.077202	-0.130140
O2	O	-0.811555	0.410535	0.203193
O3	O	-0.478221	0.743868	0.536526
O4	O	-0.904095	0.077189	-0.146293
O5	O	-0.570761	0.410522	0.187040
O6	O	-0.237428	0.743855	0.520373
O7	O	-0.996856	0.077173	0.009041
O8	O	-0.663523	0.410506	0.342374
O9	O	-0.330189	0.743839	0.675708
O10	O	-1.052127	0.077218	-0.285474
O11	O	-0.718793	0.410551	0.047859
O12	O	-0.385460	0.743884	0.381192
O13	O	-0.996840	-0.077051	0.009018
O14	O	-0.663507	0.256283	0.342351
O15	O	-0.330173	0.589616	0.675685
O16	O	-0.904079	-0.077035	-0.146316
O17	O	-0.570745	0.256299	0.187017
O18	O	-0.237412	0.589632	0.520350
O19	O	-1.144872	-0.077022	-0.130163
O20	O	-0.811539	0.256311	0.203170
O21	O	-0.478205	0.589645	0.536503
Cu22	Cu	-1.024474	-0.091110	-0.138242
Cu23	Cu	-0.691141	0.242223	0.195091
Cu24	Cu	-0.357807	0.575557	0.528425
Cu25	Cu	-1.024493	0.091277	-0.138215
Cu26	Cu	-0.691160	0.424610	0.195119
Cu27	Cu	-0.357826	0.757944	0.528452
O28	O	-1.052111	-0.077006	-0.285498
O29	O	-0.718777	0.256328	0.047836
O30	O	-0.385444	0.589661	0.381169
C31	C	-0.872638	0.000075	-0.145646
C32	C	-0.539305	0.333408	0.187688
C33	C	-0.205972	0.666742	0.521021
C34	C	-0.778929	0.000069	-0.143670
C35	C	-0.445596	0.333402	0.189663
C36	C	-0.112262	0.666736	0.522997
C37	C	-0.508423	0.000092	-0.233927
C38	C	-0.175089	0.333425	0.099406
C39	C	0.158244	0.666758	0.432740
C40	C	-0.558529	0.076127	-0.187003
C41	C	-0.225195	0.409461	0.146331
C42	C	0.108138	0.742794	0.479664
C43	C	-0.441618	0.000084	-0.136491
C44	C	-0.108284	0.333417	0.196842
C45	C	0.225049	0.666750	0.530175
C46	C	-0.558493	-0.075925	-0.186999
C47	C	-0.225159	0.257409	0.146334
C48	C	0.108174	0.590742	0.479667
C49	C	-0.607351	0.000075	-0.140024
C50	C	-0.274017	0.333408	0.193310
C51	C	0.059316	0.666742	0.526643
C52	C	-0.490489	0.076182	-0.089540
C53	C	-0.157156	0.409515	0.243793
C54	C	0.176177	0.742849	0.577127
C55	C	-0.490450	-0.075938	-0.089550
C56	C	-0.157117	0.257395	0.243783
C57	C	0.176217	0.590728	0.577117
C58	C	-0.540522	0.000116	-0.042555
C59	C	-0.207189	0.333449	0.290778
C60	C	0.126145	0.666783	0.624112
C61	C	-0.346144	0.000089	-0.134459
C62	C	-0.012810	0.333423	0.198874
C63	C	0.320523	0.666756	0.532208
C64	C	-0.702822	0.000076	-0.142048
C65	C	-0.369489	0.333409	0.191285
C66	C	-0.036155	0.666742	0.524619
N67	N	-1.024467	-0.219391	-0.138261
N68	N	-0.691133	0.113942	0.195073
N69	N	-0.357800	0.447275	0.528406
C70	C	-0.981556	-0.469038	-0.210055
C71	C	-0.648222	-0.135704	0.123278
C72	C	-0.314889	0.197629	0.456612
C73	C	-1.062029	-0.530833	-0.229673
C74	C	-0.728696	-0.197499	0.103661
C75	C	-0.395363	0.135834	0.436994
C76	C	-1.024481	-0.408553	-0.138236
C77	C	-0.691148	-0.075219	0.195097
C78	C	-0.357815	0.258114	0.528430
C79	C	-0.944033	-0.530852	-0.118642
C80	C	-0.610700	-0.197518	0.214691
C81	C	-0.277366	0.135815	0.548024
C82	C	-1.024489	-0.591274	-0.138215
C83	C	-0.691156	-0.257941	0.195118
C84	C	-0.357823	0.075393	0.528451
C85	C	-1.105004	-0.468987	-0.157900
C86	C	-0.771671	-0.135654	0.175434
C87	C	-0.438337	0.197680	0.508767
C88	C	-0.986948	-0.469001	-0.046830
C89	C	-0.653615	-0.135667	0.286504
C90	C	-0.320282	0.197666	0.619837
C91	C	-1.067468	-0.530768	-0.066409
C92	C	-0.734134	-0.197434	0.266925
C93	C	-0.400801	0.135899	0.600258
C94	C	-1.024476	-0.303292	-0.138251
C95	C	-0.691143	0.030042	0.195082
C96	C	-0.357810	0.363375	0.528416
C97	C	-1.024503	-0.696533	-0.138200
C98	C	-0.691170	-0.363200	0.195133
C99	C	-0.357837	-0.029866	0.528467
C100	C	-0.176330	0.000089	-0.130825
C101	C	0.157003	0.333423	0.202509
C102	C	0.490337	0.666756	0.535842
C103	C	-0.270045	0.000088	-0.132842
C104	C	0.063289	0.333422	0.200492
C105	C	0.396622	0.666755	0.533825
C106	C	-0.987512	0.000057	0.046717
C107	C	-0.654178	0.333390	0.380050
C108	C	-0.320845	0.666724	0.713383
C109	C	-0.959683	0.000045	0.159013
C110	C	-0.626349	0.333379	0.492346
C111	C	-0.293016	0.666712	0.825679
N112	N	-1.024505	0.219558	-0.138188
N113	N	-0.691172	0.552892	0.195145
N114	N	-0.357838	0.886225	0.528479
C115	C	-1.176068	0.000014	0.523851
C116	C	-0.842734	0.333347	0.857184
C117	C	-0.509401	0.666680	1.190518
C118	C	-1.202217	0.000019	0.418344
C119	C	-0.868884	0.333353	0.751677
C120	C	-0.535551	0.666686	1.085011
C121	C	-1.141586	0.000026	0.353506
C122	C	-0.808253	0.333360	0.686839
C123	C	-0.474919	0.666693	1.020173
C124	C	-1.054800	0.000027	0.394185
C125	C	-0.721467	0.333360	0.727519
C126	C	-0.388134	0.666693	1.060852
C127	C	-1.028648	0.000014	0.499703
C128	C	-0.695315	0.333347	0.833036
C129	C	-0.361982	0.666680	1.166370
C130	C	-0.994166	0.000026	0.329358
C131	C	-0.660833	0.333360	0.662691
C132	C	-0.327500	0.666693	0.996025
C133	C	-0.907381	0.000027	0.370037
C134	C	-0.574047	0.333360	0.703371
C135	C	-0.240714	0.666693	1.036704
C136	C	-0.881233	0.000014	0.475545
C137	C	-0.547900	0.333348	0.808878
C138	C	-0.214566	0.666681	1.142211
C139	C	-0.941865	0.000008	0.540383
C140	C	-0.608531	0.333341	0.873716
C141	C	-0.275198	0.666674	1.207049
C142	C	-1.020318	0.000039	0.223840
C143	C	-0.686985	0.333373	0.557174
C144	C	-0.353652	0.666706	0.890507
C145	C	-0.872899	0.000039	0.199692
C146	C	-0.539566	0.333373	0.533026
C147	C	-0.206232	0.666706	0.866359
C148	C	-0.846749	0.000034	0.305199
C149	C	-0.513416	0.333367	0.638533
C150	C	-0.180083	0.666700	0.971866
C151	C	-1.061455	0.000081	0.676827
C152	C	-0.728122	0.333415	1.010160
C153	C	-0.394788	0.666748	1.343493
C154	C	-1.089284	0.000008	0.564531
C155	C	-0.755951	0.333341	0.897864
C156	C	-0.422617	0.666674	1.231197
H157	H	-0.588237	0.140418	-0.228208
H158	H	-0.254904	0.473751	0.105126
H159	H	0.078429	0.807084	0.438459
H160	H	-1.103826	-0.557702	-0.005661
H161	H	-0.770493	-0.224368	0.327672
H162	H	-0.437160	0.108965	0.661005
H163	H	-0.875995	-0.558028	-0.102079
H164	H	-0.542662	-0.224695	0.231254
H165	H	-0.209329	0.108638	0.564588
H166	H	-0.554839	0.000144	0.038383
H167	H	-0.221506	0.333478	0.371717
H168	H	0.111827	0.666811	0.705050
F169	F	-0.451603	-0.159978	-0.035740
F170	F	-0.118270	0.173355	0.297593
F171	F	0.215064	0.506688	0.630927
H172	H	-0.588168	-0.140203	-0.228236
H173	H	-0.254835	0.193130	0.105097
H174	H	0.078498	0.526464	0.438430
H175	H	-0.945318	-0.441934	-0.270838
H176	H	-0.611984	-0.108600	0.062495
H177	H	-0.278651	0.224733	0.395829
H178	H	-0.955177	-0.441820	0.030437
H179	H	-0.621844	-0.108486	0.363770
H180	H	-0.288511	0.224847	0.697104
F181	F	-1.193982	-0.433621	-0.179667
F182	F	-0.860648	-0.100288	0.153666
F183	F	-0.527315	0.233045	0.486999
F184	F	-1.240586	-0.000008	0.592860
F185	F	-0.907252	0.333325	0.926194
F186	F	-0.573919	0.666659	1.259527
F187	F	-1.294577	0.000034	0.375057
F188	F	-0.961243	0.333368	0.708391
F189	F	-0.627910	0.666701	1.041724
F190	F	-1.112679	0.000038	0.180558
F191	F	-0.779345	0.333372	0.513892
F192	F	-0.446012	0.666705	0.847225
F193	F	-1.169419	0.000035	0.241216
F194	F	-0.836086	0.333369	0.574549
F195	F	-0.502752	0.666702	0.907882
F196	F	-0.914038	0.000089	0.652678
F197	F	-0.580704	0.333422	0.986011
F198	F	-0.247371	0.666755	1.319345
F199	F	-0.489484	0.000201	-0.339622
F200	F	-0.156151	0.333534	-0.006289
F201	F	0.177182	0.666867	0.327044
H202	H	-0.810567	0.000008	0.508662
H203	H	-0.477233	0.333341	0.841995
H204	H	-0.143900	0.666674	1.175329
H205	H	-0.776087	0.000033	0.338336
H206	H	-0.442754	0.333367	0.671669
H207	H	-0.109420	0.666700	1.005003
H208	H	-1.093783	-0.557992	-0.306964
H209	H	-0.760449	-0.224659	0.026369
H210	H	-0.427116	0.108675	0.359703
H211	H	-0.460923	0.140535	-0.048357
H212	H	-0.127590	0.473868	0.284976
H213	H	0.205744	0.807202	0.618310
F214	F	-0.808365	0.000041	0.130692
F215	F	-0.475032	0.333374	0.464025
F216	F	-0.141699	0.666708	0.797359
