data_functionalizedCrystal
_audit_creation_method	'MofGen! by Chris Wilmer'
_symmetry_space_group_name_H-M	'P1'
_symmetry_Int_Tables_number	1
_symmetry_cell_setting	triclinic
loop_
_symmetry_equiv_pos_as_xyz
  x,y,z
_cell_length_a	12.837943
_cell_length_b	15.995350
_cell_length_c	11.892095
_cell_angle_alpha	93.891441
_cell_angle_beta	85.689438
_cell_angle_gamma	89.160657
loop_
_atom_site_label
_atom_site_type_symbol
_atom_site_fract_x
_atom_site_fract_y
_atom_site_fract_z
O1	O	1.382080	0.212847	-0.093972
O2	O	1.882080	0.712847	0.406028
O3	O	1.080275	0.202094	-0.093979
O4	O	1.580275	0.702094	0.406021
O5	O	1.239427	0.086241	-0.093975
O6	O	1.739427	0.586241	0.406025
O7	O	1.222927	0.328700	-0.093977
O8	O	1.722927	0.828700	0.406023
O9	O	1.226157	0.095884	0.094032
O10	O	1.726157	0.595884	0.594032
O11	O	1.067005	0.211737	0.094028
O12	O	1.567005	0.711737	0.594028
O13	O	1.368810	0.222490	0.094035
O14	O	1.868810	0.722490	0.594035
Zn15	Zn	1.215800	0.218644	0.123881
Zn16	Zn	1.715800	0.718644	0.623881
Zn17	Zn	1.233284	0.205939	-0.123826
Zn18	Zn	1.733284	0.705939	0.376174
O19	O	1.209657	0.338343	0.094030
O20	O	1.709657	0.838343	0.594030
C21	C	1.035019	0.203283	0.000023
C22	C	1.535019	0.703283	0.500023
C23	C	0.919942	0.192449	0.000020
C24	C	1.419942	0.692449	0.500020
C25	C	1.232110	0.059813	0.000027
C26	C	1.732110	0.559813	0.500027
C27	C	1.230066	-0.033301	0.000020
C28	C	1.730066	0.466699	0.500020
C29	C	0.678983	0.322688	0.000035
C30	C	1.178983	0.822688	0.500035
C31	C	0.570857	0.312513	0.000033
C32	C	1.070857	0.812513	0.500033
C33	C	0.595563	0.161925	0.000023
C34	C	1.095563	0.661925	0.500023
C35	C	0.703688	0.172100	0.000025
C36	C	1.203688	0.672100	0.500025
C37	C	0.745394	0.252484	0.000029
C38	C	1.245394	0.752484	0.500029
C39	C	0.853523	0.262658	0.000023
C40	C	1.353523	0.762658	0.500023
C41	C	0.878225	0.112072	0.000020
C42	C	1.378225	0.612072	0.500020
C43	C	0.770100	0.101896	0.000018
C44	C	1.270100	0.601896	0.500018
C45	C	1.222721	-0.371634	0.000024
C46	C	1.722721	0.128366	0.500024
C47	C	1.109405	-0.333265	-0.000400
C48	C	1.609405	0.166735	0.499600
C49	C	1.111421	-0.236390	0.000023
C50	C	1.611421	0.263610	0.500023
C51	C	1.226364	-0.203783	0.000021
C52	C	1.726364	0.296217	0.500021
C53	C	1.274693	-0.234893	0.107382
C54	C	1.774693	0.265107	0.607382
C55	C	1.271839	-0.331752	0.107472
C56	C	1.771839	0.168248	0.607472
C57	C	1.289271	-0.342889	-0.106327
C58	C	1.789271	0.157111	0.393673
C59	C	1.289344	-0.246018	-0.107746
C60	C	1.789344	0.253982	0.392254
C61	C	1.228429	-0.108921	0.000024
C62	C	1.728429	0.391079	0.500024
C63	C	1.220659	-0.466496	0.000029
C64	C	1.720659	0.033504	0.500029
C65	C	1.414066	0.221301	0.000030
C66	C	1.914066	0.721301	0.500030
C67	C	1.529143	0.232134	0.000025
C68	C	2.029143	0.732134	0.500025
C69	C	1.216974	0.364770	0.000026
C70	C	1.716974	0.864770	0.500026
C71	C	1.219020	0.457884	0.000025
C72	C	1.719020	0.957884	0.500025
N73	N	1.203876	0.227315	0.292935
N74	N	1.703876	0.727315	0.792935
N75	N	1.245217	0.197262	-0.292880
N76	N	1.745217	0.697262	0.207120
C77	C	1.328193	0.136877	0.529587
C78	C	1.828193	0.636877	1.029587
C79	C	1.319865	0.142945	0.647928
C80	C	1.819865	0.642945	1.147928
C81	C	1.178889	0.245514	0.647962
C82	C	1.678889	0.745514	1.147962
C83	C	1.187216	0.239446	0.529621
C84	C	1.687216	0.739446	1.029621
C85	C	1.261872	0.185127	0.470437
C86	C	1.761872	0.685127	0.970437
C87	C	1.270204	0.179064	0.352093
C88	C	1.770204	0.679064	0.852093
C89	C	1.129223	0.281628	0.352129
C90	C	1.629223	0.781628	0.852129
C91	C	1.120896	0.287696	0.470471
C92	C	1.620896	0.787696	0.970471
H93	H	0.887477	0.328111	0.000028
H94	H	1.387477	0.828111	0.500028
H95	H	0.932310	0.054906	0.000008
H96	H	1.432310	0.554906	0.500008
F97	F	1.380156	-0.364899	0.113849
F98	F	1.880156	0.135101	0.613849
F99	F	1.041443	0.345501	0.533468
F100	F	1.541443	0.845501	1.033468
F101	F	0.725701	0.016351	0.000017
F102	F	1.225701	0.516351	0.500017
H103	H	1.069536	-0.359360	-0.077391
H104	H	1.569536	0.140640	0.422609
H105	H	1.072907	-0.215422	-0.076937
H106	H	1.572907	0.284578	0.423063
F107	F	1.058641	0.332986	0.289166
F108	F	1.558641	0.832986	0.789166
F109	F	1.407655	0.079075	0.466599
F110	F	1.907655	0.579075	0.966599
F111	F	1.043257	-0.358754	0.099393
F112	F	1.543257	0.141246	0.599393
F113	F	1.248333	-0.379047	-0.212689
F114	F	1.748333	0.120953	0.287311
F115	F	1.243657	-0.219569	-0.211573
F116	F	1.743657	0.280431	0.288427
F117	F	1.390451	0.091589	0.710876
F118	F	1.890451	0.591589	1.210876
F119	F	1.398568	-0.375737	-0.107275
F120	F	1.898568	0.124263	0.392725
H121	H	1.373623	-0.224301	-0.114230
H122	H	1.873623	0.275699	0.385770
H123	H	1.330995	0.134837	0.303907
H124	H	1.830995	0.634837	0.803907
F125	F	1.099430	0.303312	0.710962
F126	F	1.599430	0.803312	1.210962
F127	F	1.046479	-0.199410	0.100783
F128	F	1.546479	0.300590	0.600783
F129	F	1.211146	-0.354546	0.212368
F130	F	1.711146	0.145454	0.712368
H131	H	1.358857	-0.213825	0.111373
H132	H	1.858857	0.286175	0.611373
H133	H	1.230224	-0.205512	0.187277
H134	H	1.730224	0.294488	0.687277
F135	F	0.723373	0.408236	0.000026
F136	F	1.223373	0.908236	0.500026
H137	H	0.561579	0.096485	0.000112
H138	H	1.061579	0.596485	0.500112
F139	F	0.500180	0.387234	0.000043
F140	F	1.000180	0.887234	0.500043
