data_functionalizedCrystal
_audit_creation_method	'MofGen! by Chris Wilmer'
_symmetry_space_group_name_H-M	'P1'
_symmetry_Int_Tables_number	1
_symmetry_cell_setting	triclinic
loop_
_symmetry_equiv_pos_as_xyz
  x,y,z
_cell_length_a	14.044220
_cell_length_b	10.540539
_cell_length_c	13.101039
_cell_angle_alpha	93.398267
_cell_angle_beta	86.340132
_cell_angle_gamma	88.857185
loop_
_atom_site_label
_atom_site_type_symbol
_atom_site_fract_x
_atom_site_fract_y
_atom_site_fract_z
O1	O	1.264944	0.299850	-0.085096
O2	O	0.988901	0.288796	-0.085123
O3	O	1.133220	0.110253	-0.085108
O4	O	1.120625	0.478393	-0.085111
O5	O	1.122866	0.123087	0.085321
O6	O	0.978547	0.301630	0.085306
O7	O	1.254589	0.312683	0.085332
Zn8	Zn	1.114924	0.309194	0.112379
Zn9	Zn	1.128566	0.292285	-0.112169
O10	O	1.110270	0.491226	0.085317
C11	C	0.948377	0.290375	0.000088
C12	C	0.843054	0.275945	0.000078
C13	C	0.650213	0.249565	0.000099
C14	C	0.593272	0.351908	0.000102
C15	C	0.485969	0.337230	0.000114
C16	C	0.757526	0.264241	0.000087
C17	C	1.127098	0.069271	0.000105
C18	C	1.124273	-0.071963	0.000099
C19	C	1.016007	-0.266367	-0.000294
C20	C	1.018849	-0.119430	0.000090
C21	C	1.169094	-0.121162	0.097427
C22	C	1.165492	-0.268064	0.097509
C23	C	1.179411	-0.282960	-0.096300
C24	C	1.180460	-0.135977	-0.097587
C25	C	1.295114	0.311104	0.000119
C26	C	1.400437	0.325534	0.000123
C27	C	1.116392	0.532208	0.000103
C28	C	1.119218	0.673442	0.000102
N29	N	1.105620	0.320734	0.265626
N30	N	1.137878	0.280737	-0.265416
C31	C	1.092962	0.336445	0.474667
C32	C	1.150533	0.265029	0.525549
C33	C	1.143490	0.273771	0.641867
C34	C	1.100004	0.327705	0.358339
H35	H	0.618376	0.150932	0.000105
C36	C	1.076450	-0.157169	0.253018
C37	C	1.115579	-0.061121	0.195201
H38	H	1.043413	-0.120102	0.313379
H39	H	1.033274	-0.204299	0.213641
H40	H	1.126131	-0.212235	0.271257
H41	H	1.065896	-0.006061	0.176954
H42	H	1.158758	-0.013970	0.234585
C43	C	0.920230	-0.159065	0.150831
C44	C	0.958866	-0.061432	0.094433
H45	H	0.883206	-0.123257	0.209083
H46	H	0.880853	-0.209468	0.109149
H47	H	0.970433	-0.210673	0.172526
H48	H	0.908663	-0.009830	0.072732
H49	H	0.998245	-0.011008	0.136123
H50	H	0.983167	-0.086117	-0.069679
C51	C	1.026503	-0.404197	-0.153409
C52	C	0.965499	-0.317764	-0.094506
H53	H	0.995316	-0.435939	-0.211569
H54	H	1.082915	-0.362569	-0.175288
H55	H	1.042637	-0.472713	-0.113320
H56	H	0.949370	-0.249242	-0.134594
H57	H	0.909069	-0.359392	-0.072629
H58	H	0.970315	-0.295542	0.069103
C59	C	1.331549	-0.222013	0.107000
C60	C	1.267477	-0.322032	0.103498
H61	H	1.394507	-0.255328	0.110708
H62	H	1.328357	-0.176175	0.046993
H63	H	1.315244	-0.166715	0.165687
H64	H	1.283778	-0.377325	0.044806
H65	H	1.270673	-0.367890	0.163511
H66	H	1.149772	-0.323517	-0.170068
C67	C	1.026500	0.418936	0.639237
C68	C	1.019296	0.427856	0.533783
H69	H	0.981027	0.475378	0.675739
H70	H	1.014462	0.334314	0.656753
H71	H	1.088893	0.441089	0.656739
H72	H	0.956905	0.405695	0.516279
H73	H	1.031326	0.512497	0.516260
H74	H	0.625112	0.450550	0.000096
C75	C	1.205089	-0.031301	-0.254654
C76	C	1.136329	-0.093087	-0.194793
H77	H	1.177843	-0.004823	-0.314664
H78	H	1.226509	0.040810	-0.216436
H79	H	1.257542	-0.088000	-0.273472
H80	H	1.083879	-0.036384	-0.175968
H81	H	1.114895	-0.165208	-0.233018
H82	H	1.257679	-0.104427	-0.103457
H83	H	1.205111	0.197322	0.481752
H84	H	1.246295	-0.090708	0.101053
C85	C	1.302940	-0.413862	-0.186723
C86	C	1.282261	-0.336386	-0.097188
H87	H	1.366434	-0.446841	-0.187266
H88	H	1.259796	-0.482083	-0.188853
H89	H	1.296628	-0.365196	-0.244772
H90	H	1.288565	-0.385055	-0.039139
H91	H	1.325417	-0.268155	-0.095048
H92	H	1.123576	-0.294577	0.170256
