data_functionalizedCrystal
_audit_creation_method	'MofGen! by Chris Wilmer'
_symmetry_space_group_name_H-M	'P1'
_symmetry_Int_Tables_number	1
_symmetry_cell_setting	triclinic
loop_
_symmetry_equiv_pos_as_xyz
  x,y,z
_cell_length_a	8.559649
_cell_length_b	14.044190
_cell_length_c	13.101018
_cell_angle_alpha	93.660631
_cell_angle_beta	87.112224
_cell_angle_gamma	81.485221
loop_
_atom_site_label
_atom_site_type_symbol
_atom_site_fract_x
_atom_site_fract_y
_atom_site_fract_z
O1	O	2.123561	-0.037633	-0.085194
O2	O	2.623561	0.462367	0.414806
O3	O	1.665265	0.010816	-0.085204
O4	O	2.165265	0.510816	0.414796
O5	O	1.887526	-0.150890	-0.085179
O6	O	2.387526	0.349110	0.414821
O7	O	1.901300	0.124074	-0.085219
O8	O	2.401300	0.624074	0.414781
O9	O	1.871561	-0.139278	0.085249
O10	O	2.371561	0.360722	0.585249
O11	O	1.649300	0.022429	0.085224
O12	O	2.149300	0.522429	0.585224
O13	O	2.107595	-0.026020	0.085235
O14	O	2.607595	0.473980	0.585235
Zn15	Zn	1.875912	0.000048	0.112289
Zn16	Zn	2.375912	0.500048	0.612289
Zn17	Zn	1.896948	-0.015252	-0.112258
Zn18	Zn	2.396948	0.484748	0.387742
O19	O	1.885334	0.135687	0.085209
O20	O	2.385334	0.635687	0.585209
C21	C	1.598276	0.020294	0.000009
C22	C	2.098276	0.520294	0.500009
C23	C	1.422455	0.031223	0.000006
C24	C	1.922455	0.531223	0.500006
C25	C	1.873519	-0.179960	0.000038
C26	C	2.373519	0.320040	0.500038
C27	C	1.855550	-0.283877	0.000047
C28	C	2.355550	0.216123	0.500047
C29	C	1.950139	-0.541052	0.000009
C30	C	2.450139	-0.041052	0.500009
C31	C	1.822729	-0.474147	0.000013
C32	C	2.322729	0.025853	0.500013
C33	C	1.840995	-0.368272	0.000032
C34	C	2.340995	0.131728	0.500032
C35	C	1.931875	-0.646938	-0.000010
C36	C	2.431875	-0.146938	0.499990
C37	C	2.174584	-0.035498	0.000019
C38	C	2.674584	0.464502	0.500019
C39	C	2.350406	-0.046427	0.000016
C40	C	2.850406	0.453573	0.500016
C41	C	1.899341	0.164756	-0.000010
C42	C	2.399341	0.664756	0.499990
C43	C	1.917311	0.268673	-0.000025
C44	C	2.417311	0.768673	0.499975
N45	N	1.861568	0.010489	0.265536
N46	N	2.361568	0.510489	0.765536
N47	N	1.911304	-0.025701	-0.265506
N48	N	2.411304	0.474299	0.234494
C49	C	1.930812	-0.039909	0.525453
C50	C	2.430812	0.460091	1.025453
C51	C	1.842065	0.024694	0.474570
C52	C	2.342065	0.524694	0.974570
C53	C	1.852919	0.016788	0.358253
C54	C	2.352919	0.516788	0.858253
C55	C	1.919959	-0.032005	0.641781
C56	C	2.419959	0.467995	1.141781
H57	H	1.423232	-0.121269	0.000021
H58	H	1.923232	0.378731	0.500021
F59	F	1.662223	-0.503209	0.000006
F60	F	2.162223	-0.003209	0.500006
H61	H	1.349621	0.106069	-0.000011
H62	H	1.849621	0.606069	0.499989
F63	F	2.110633	-0.511988	0.000025
F64	F	2.610633	-0.011988	0.500025
H65	H	1.757935	0.085939	0.518366
H66	H	2.257935	0.585939	1.018366
H67	H	2.014938	-0.101149	0.481663
H68	H	2.514938	0.398851	0.981663
