data_functionalizedCrystal
_audit_creation_method	'MofGen! by Chris Wilmer'
_symmetry_space_group_name_H-M	'P1'
_symmetry_Int_Tables_number	1
_symmetry_cell_setting	triclinic
loop_
_symmetry_equiv_pos_as_xyz
  x,y,z
_cell_length_a	8.559649
_cell_length_b	10.489741
_cell_length_c	7.088929
_cell_angle_alpha	83.712943
_cell_angle_beta	95.325015
_cell_angle_gamma	77.158919
loop_
_atom_site_label
_atom_site_type_symbol
_atom_site_fract_x
_atom_site_fract_y
_atom_site_fract_z
O1	O	2.103400	-0.028523	-0.158957
O2	O	1.638952	0.037276	-0.158967
O3	O	1.881746	-0.182335	-0.158950
O4	O	1.860607	0.191088	-0.158973
O5	O	1.914192	-0.211743	0.159027
O6	O	1.671399	0.007868	0.159010
O7	O	2.135846	-0.057931	0.159021
Cu8	Cu	1.906585	-0.027717	0.188049
Cu9	Cu	1.868214	0.007062	-0.187996
O10	O	1.893053	0.161680	0.159004
C11	C	1.595703	0.027558	0.000020
C12	C	1.418493	0.042401	0.000017
C13	C	1.896372	-0.244403	0.000037
C14	C	1.891596	-0.385529	0.000034
C15	C	1.737113	-0.437401	0.000016
C16	C	1.826086	-0.551707	0.156797
C17	C	1.794133	-0.522692	-0.156703
C18	C	1.980646	-0.497989	0.156944
C19	C	1.948657	-0.468948	-0.156697
C20	C	2.037747	-0.583242	0.000122
C21	C	2.179096	-0.048213	0.000029
C22	C	2.356304	-0.063054	0.000020
C23	C	1.878426	0.223748	0.000012
C24	C	1.883201	0.364876	0.000003
N25	N	1.933585	-0.052180	0.452539
N26	N	1.841226	0.031513	-0.452486
H27	H	1.610115	-0.374390	0.000171
C28	C	1.713549	0.147277	0.438997
C29	C	1.632733	0.220556	0.569297
C30	C	1.515120	0.327219	0.469388
H31	H	1.638432	0.115344	0.360914
H32	H	1.763716	0.201875	0.360937
H33	H	1.582567	0.165969	0.647324
H34	H	1.707806	0.252522	0.647383
H35	H	1.565287	0.381816	0.391328
H36	H	1.440015	0.295273	0.391310
H37	H	1.460283	0.376959	0.557781
H38	H	2.164884	-0.646061	0.000212
H39	H	1.438631	-0.164693	0.000017
C40	C	1.308758	0.178010	-0.000392
C41	C	1.321757	0.260935	-0.164010
C42	C	1.220678	0.385859	-0.164465
H43	H	1.339905	0.214133	0.110362
H44	H	1.200212	0.170379	-0.000500
H45	H	1.430279	0.268570	-0.163884
H46	H	1.290597	0.224855	-0.274791
H47	H	1.112132	0.378227	-0.164574
H48	H	1.251834	0.421968	-0.053704
H49	H	1.229473	0.442135	-0.275487
C50	C	2.085652	-0.482143	0.333817
C51	C	2.088819	-0.349128	0.331833
C52	C	2.185508	-0.334474	0.494747
H53	H	2.192245	-0.533404	0.334440
H54	H	2.042476	-0.511151	0.445062
H55	H	2.132001	-0.320135	0.220617
H56	H	1.982251	-0.297839	0.331237
H57	H	2.142332	-0.363483	0.605992
H58	H	2.292095	-0.385742	0.495357
H59	H	2.187658	-0.244223	0.493432
C60	C	1.688923	-0.538213	-0.333610
C61	C	1.626745	-0.414612	-0.442791
C62	C	1.529828	-0.428854	-0.605773
H63	H	1.602472	-0.574488	-0.296180
H64	H	1.751826	-0.595429	-0.407561
H65	H	1.563844	-0.357416	-0.368854
H66	H	1.713160	-0.378316	-0.480271
H67	H	1.592731	-0.486071	-0.679724
H68	H	1.443385	-0.465133	-0.568325
H69	H	1.487640	-0.344997	-0.679881
H70	H	1.774246	-0.588094	0.289341
H71	H	2.029323	-0.138908	0.534202
H72	H	2.000441	-0.432522	-0.289249
