data_functionalizedCrystal
_audit_creation_method	'MofGen! by Chris Wilmer'
_symmetry_space_group_name_H-M	'P1'
_symmetry_Int_Tables_number	1
_symmetry_cell_setting	triclinic
loop_
_symmetry_equiv_pos_as_xyz
  x,y,z
_cell_length_a	19.805407
_cell_length_b	19.805405
_cell_length_c	11.169409
_cell_angle_alpha	89.962829
_cell_angle_beta	89.977652
_cell_angle_gamma	90.024042
loop_
_atom_site_label
_atom_site_type_symbol
_atom_site_fract_x
_atom_site_fract_y
_atom_site_fract_z
Zn1	Zn	1.034765	-0.269457	-0.678583
Zn2	Zn	1.534765	0.230543	-0.178583
Zn3	Zn	1.034670	-0.382666	-0.477883
Zn4	Zn	1.534670	0.117334	0.022117
Zn5	Zn	0.921570	-0.269491	-0.477909
Zn6	Zn	1.421570	0.230509	0.022091
Zn7	Zn	0.921542	-0.382604	-0.678519
Zn8	Zn	1.421542	0.117396	-0.178519
O9	O	0.978137	-0.326054	-0.578224
O10	O	1.478137	0.173946	-0.078224
O11	O	1.129469	-0.284486	-0.651976
O12	O	1.629469	0.215514	-0.151976
O13	O	1.019639	-0.367693	-0.309937
O14	O	1.519639	0.132307	0.190063
O15	O	0.936637	-0.174770	-0.504566
O16	O	1.436637	0.325230	-0.004566
O17	O	1.129399	-0.367660	-0.504522
O18	O	1.629399	0.132340	-0.004522
O19	O	1.019801	-0.174745	-0.652001
O20	O	1.519801	0.325255	-0.152001
O21	O	0.936545	-0.284544	-0.309955
O22	O	1.436545	0.215456	0.190045
O23	O	0.826850	-0.284484	-0.504504
O24	O	1.326850	0.215516	-0.004504
O25	O	0.936589	-0.367554	-0.846477
O26	O	1.436589	0.132446	-0.346477
O27	O	0.826829	-0.367588	-0.651892
O28	O	1.326829	0.132412	-0.151892
O29	O	1.019773	-0.284426	-0.846524
O30	O	1.519773	0.215574	-0.346524
O31	O	1.019612	-0.477374	-0.504460
O32	O	1.519612	0.022626	-0.004460
O33	O	0.936497	-0.477329	-0.651867
O34	O	1.436497	0.022671	-0.151867
C35	C	0.802281	-0.326033	-0.578194
C36	C	1.302281	0.173967	-0.078194
C37	C	0.727049	-0.326040	-0.578210
C38	C	1.227049	0.173960	-0.078210
C39	C	0.691741	-0.282808	-0.655106
C40	C	1.191741	0.217192	-0.155106
C41	C	0.621053	-0.282812	-0.655111
C42	C	1.121053	0.217188	-0.155111
C43	C	0.585673	-0.326052	-0.578225
C44	C	1.085673	0.173948	-0.078225
C45	C	0.620985	-0.369286	-0.501321
C46	C	1.120985	0.130714	-0.001321
C47	C	0.691672	-0.369278	-0.501311
C48	C	1.191672	0.130722	-0.001311
C49	C	0.335912	-0.369316	-0.501357
C50	C	0.835912	0.130684	-0.001357
C51	C	0.265220	-0.369322	-0.501376
C52	C	0.765220	0.130678	-0.001376
C53	C	0.265293	-0.282850	-0.655157
C54	C	0.765293	0.217150	-0.155157
C55	C	0.335980	-0.282842	-0.655148
C56	C	0.835980	0.217158	-0.155148
C57	C	0.371286	-0.326074	-0.578239
C58	C	0.871286	0.173926	-0.078239
C59	C	0.447934	-0.326068	-0.578234
C60	C	0.947934	0.173932	-0.078234
C61	C	0.509026	-0.326061	-0.578236
C62	C	1.009026	0.173939	-0.078236
C63	C	0.978060	-0.501911	-0.578180
C64	C	1.478060	-0.001911	-0.078180
C65	C	0.978088	-0.577142	-0.578202
C66	C	1.478088	-0.077142	-0.078202
C67	C	1.021366	-0.612415	-0.655031
C68	C	1.521366	-0.112415	-0.155031
C69	C	1.021390	-0.683104	-0.655053
C70	C	1.521390	-0.183104	-0.155053
C71	C	0.978140	-0.718518	-0.578239
C72	C	1.478140	-0.218518	-0.078239
C73	C	0.934858	-0.683240	-0.501407
C74	C	1.434858	-0.183240	-0.001407
C75	C	0.934831	-0.612553	-0.501391
C76	C	1.434831	-0.112553	-0.001391
C77	C	0.934967	-0.968314	-0.501468
C78	C	1.434967	-0.468314	-0.001468
C79	C	0.934999	-1.039006	-0.501487
C80	C	1.434999	-0.539006	-0.001487
C81	C	1.021526	-1.038864	-0.655130
C82	C	1.521526	-0.538864	-0.155130
C83	C	1.021499	-0.968177	-0.655115
C84	C	1.521499	-0.468177	-0.155115
C85	C	0.978215	-0.932905	-0.578287
C86	C	1.478215	-0.432905	-0.078287
C87	C	0.978188	-0.856257	-0.578265
C88	C	1.478188	-0.356257	-0.078265
C89	C	0.978170	-0.795165	-0.578254
C90	C	1.478170	-0.295165	-0.078254
C91	C	1.154679	-0.326076	-0.578253
C92	C	1.654679	0.173924	-0.078253
C93	C	1.229911	-0.326085	-0.578266
C94	C	1.729911	0.173915	-0.078266
C95	C	0.978189	-0.325979	-0.891266
C96	C	1.478189	0.174021	-0.391266
C97	C	0.978211	-0.325947	-1.024666
C98	C	1.478211	0.174053	-0.524666
C99	C	0.978233	-0.149512	-0.578293
C100	C	1.478233	0.350488	-0.078293
C101	C	0.978273	-0.074280	-0.578323
C102	C	1.478273	0.425720	-0.078323
C103	C	0.978124	-0.326080	-0.266399
C104	C	1.478124	0.173920	0.233601
C105	C	0.978233	-0.325922	-0.132999
C106	C	1.478233	0.174078	0.367001
H107	H	0.592173	-0.404489	-0.438713
H108	H	1.092173	0.095511	0.061287
H109	H	0.720419	-0.404482	-0.438694
H110	H	1.220419	0.095518	0.061306
C111	C	0.582218	-0.235255	-0.739706
C112	C	1.082218	0.264745	-0.239706
N113	N	0.552968	-0.199433	-0.803427
N114	N	1.052968	0.300567	-0.303427
H115	H	1.056637	-0.711820	-0.717606
H116	H	1.556637	-0.211820	-0.217606
H117	H	0.899724	-0.939601	-0.438910
H118	H	1.399724	-0.439601	0.061090
H119	H	0.899640	-0.712080	-0.438868
H120	H	1.399640	-0.212080	0.061132
H121	H	0.236416	-0.404534	-0.438761
H122	H	0.736416	0.095466	0.061239
C123	C	1.069082	-0.929225	-0.739608
C124	C	1.569082	-0.429225	-0.239608
N125	N	1.104922	-0.899888	-0.803252
N126	N	1.604922	-0.399888	-0.303252
H127	H	0.899589	-0.583835	-0.438830
H128	H	1.399589	-0.083835	0.061170
H129	H	0.720543	-0.247599	-0.717719
H130	H	1.220543	0.252401	-0.217719
H131	H	1.056769	-1.067591	-0.717691
H132	H	1.556769	-0.567591	-0.217691
H133	H	0.364782	-0.247634	-0.717760
H134	H	0.864782	0.252366	-0.217760
H135	H	0.364650	-0.404518	-0.438735
H136	H	0.864650	0.095482	0.061265
H137	H	1.056588	-0.583586	-0.717577
H138	H	1.556588	-0.083586	-0.217577
C139	C	0.226450	-0.235283	-0.739739
C140	C	0.726450	0.264717	-0.239739
N141	N	0.197194	-0.199455	-0.803442
N142	N	0.697194	0.300545	-0.303442
C143	C	0.887413	-1.077960	-0.416989
C144	C	1.387413	-0.577960	0.083011
N145	N	0.851574	-1.107300	-0.353349
N146	N	1.351574	-0.607300	0.146651
