data_functionalizedCrystal
_audit_creation_method	'MofGen! by Chris Wilmer'
_symmetry_space_group_name_H-M	'P1'
_symmetry_Int_Tables_number	1
_symmetry_cell_setting	triclinic
loop_
_symmetry_equiv_pos_as_xyz
  x,y,z
_cell_length_a	13.635800
_cell_length_b	13.563541
_cell_length_c	19.551833
_cell_angle_alpha	69.548046
_cell_angle_beta	101.663477
_cell_angle_gamma	75.295376
loop_
_atom_site_label
_atom_site_type_symbol
_atom_site_fract_x
_atom_site_fract_y
_atom_site_fract_z
V1	V	2.018080	-0.154939	0.247730
O2	O	1.996521	0.006246	0.212507
O3	O	2.008450	-0.306064	0.275377
O4	O	1.989248	-0.153082	0.342387
O5	O	2.015856	-0.147795	0.145032
V6	V	2.258606	-0.135597	0.231882
O7	O	2.151419	-0.197367	0.282494
O8	O	2.350366	-0.093169	0.197119
O9	O	2.156632	0.015529	0.204235
O10	O	2.338863	-0.296782	0.267106
O11	O	2.319528	-0.142740	0.334580
O12	O	2.175835	-0.137454	0.137225
V13	V	2.518080	-0.154939	0.247730
O14	O	2.496521	0.006246	0.212507
O15	O	2.508450	-0.306064	0.275377
O16	O	2.489248	-0.153082	0.342387
O17	O	2.515856	-0.147795	0.145032
V18	V	2.758606	-0.135597	0.231882
O19	O	2.651419	-0.197367	0.282494
O20	O	2.850366	-0.093169	0.197119
O21	O	2.656632	0.015529	0.204235
O22	O	2.838863	-0.296782	0.267106
O23	O	2.819528	-0.142740	0.334580
O24	O	2.675835	-0.137454	0.137225
C25	C	1.934645	-0.342889	0.279040
C26	C	1.967384	-0.466440	0.302276
C27	C	1.984921	-0.749846	0.099308
C28	C	1.954153	-0.633764	0.077475
C29	C	1.957460	-0.591927	0.133673
C30	C	1.991536	-0.666184	0.211708
C31	C	2.022298	-0.782278	0.233543
C32	C	1.994837	-0.624358	0.267908
C33	C	2.028914	-0.698616	0.345943
C34	C	2.059673	-0.814698	0.367774
C35	C	2.056367	-0.856535	0.311576
C36	C	1.964075	-0.508265	0.246074
C37	C	2.001453	-0.540696	0.380309
C38	C	2.032220	-0.656779	0.402142
C39	C	1.910150	-0.147743	0.364517
C40	C	1.927315	-0.147224	0.442093
C41	C	2.062109	0.052348	0.200571
C42	C	2.018989	0.175897	0.177341
C43	C	2.086604	-0.142796	0.115092
C44	C	2.059058	-0.143309	0.037515
C45	C	2.434645	-0.342889	0.279040
C46	C	2.467384	-0.466440	0.302276
C47	C	2.410150	-0.147743	0.364517
C48	C	2.427315	-0.147224	0.442093
C49	C	2.026804	-0.152560	0.483169
C50	C	2.042932	-0.152073	0.556060
C51	C	1.959573	-0.146273	0.587878
C52	C	1.860068	-0.140930	0.546790
C53	C	1.843939	-0.141406	0.473898
C54	C	1.933998	-0.206704	0.718841
C55	C	1.950132	-0.206235	0.791734
C56	C	2.009314	-0.144799	0.812700
C57	C	2.052381	-0.083848	0.760770
C58	C	2.036252	-0.084324	0.687877
C59	C	1.977051	-0.145755	0.666917
C60	C	2.126297	-0.149605	0.932813
C61	C	2.142420	-0.149111	1.005702
C62	C	1.959556	-0.137980	0.996435
C63	C	1.943433	-0.138463	0.923543
C64	C	2.026809	-0.144281	0.891738
C65	C	2.562109	0.052348	0.200571
C66	C	2.518989	0.175897	0.177341
C67	C	2.586604	-0.142796	0.115092
C68	C	2.559058	-0.143309	0.037515
C69	C	2.574209	-0.530146	0.317775
C70	C	2.604988	-0.646238	0.339619
C71	C	2.528940	-0.698621	0.345958
C72	C	2.422107	-0.634907	0.330459
C73	C	2.391330	-0.518818	0.308621
C74	C	2.526808	-0.152541	0.483157
C75	C	2.542946	-0.152040	0.556044
C76	C	2.459592	-0.146229	0.587867
C77	C	2.360090	-0.140908	0.546797
C78	C	2.343951	-0.141402	0.473909
C79	C	2.584658	0.239603	0.161844
C80	C	2.544151	0.355694	0.140003
C81	C	2.437976	0.408076	0.133666
C82	C	2.372302	0.344363	0.149163
C83	C	2.412808	0.228275	0.170997
C84	C	2.460179	-0.149107	0.005707
C85	C	2.434278	-0.149576	-0.067189
C86	C	2.507260	-0.144255	-0.108273
C87	C	2.606145	-0.138453	-0.076461
C88	C	2.632042	-0.137976	-0.003569
H89	H	1.936330	-0.447815	0.182537
H90	H	2.353756	-0.154300	-0.093079
C91	C	2.234510	-0.135572	0.428752
H92	H	2.187190	-0.132054	0.458153
H93	H	2.205568	-0.070391	0.381175
H94	H	2.243252	-0.200695	0.419083
H95	H	2.636144	-0.487511	0.312613
H96	H	2.486165	-0.144657	-0.167621
C97	C	2.686419	-0.132612	-0.121655
H98	H	2.656830	-0.133742	-0.169617
H99	H	2.700935	-0.065107	-0.130563
H100	H	2.751017	-0.195411	-0.092669
C101	C	2.740819	-0.131618	0.031418
H102	H	2.780573	-0.128530	-0.003490
H103	H	2.729465	-0.066058	0.040725
H104	H	2.779543	-0.196363	0.078601
H105	H	2.472748	-0.145828	0.647218
H106	H	2.597642	0.407554	0.127390
C107	C	2.722501	-0.716308	0.356663
H108	H	2.729952	-0.792953	0.370588
H109	H	2.743071	-0.689242	0.312029
H110	H	2.766976	-0.709969	0.397902
H111	H	1.932402	-0.497406	0.115892
H112	H	2.671115	0.196969	0.167001
C113	C	1.916671	-0.552090	-0.008355
H114	H	1.919114	-0.593630	-0.038698
H115	H	1.845396	-0.502502	-0.022589
H116	H	1.962395	-0.509761	-0.016736
C117	C	1.902733	-0.273250	0.848841
H118	H	1.865152	-0.309882	0.825908
H119	H	1.958896	-0.327815	0.894345
H120	H	1.854881	-0.223380	0.861488
H121	H	1.982226	-0.783922	0.053559
C122	C	2.251863	-0.154978	1.050886
H123	H	2.299206	-0.158521	1.021504
H124	H	2.243133	-0.089876	1.060571
H125	H	2.280779	-0.220178	1.098458
H126	H	2.081425	-0.951058	0.329348
C127	C	2.069696	-0.738463	0.487976
H128	H	2.067269	-0.696929	0.518322
H129	H	2.023978	-0.780793	0.496352
H130	H	2.140977	-0.788052	0.502209
H131	H	2.004144	-0.506634	0.426070
H132	H	2.360196	-0.677574	0.335624
C133	C	2.393436	0.535770	0.109655
H134	H	2.447764	0.566199	0.101342
H135	H	2.334361	0.570324	0.063472
H136	H	2.370726	0.549562	0.149351
C137	C	2.618503	-0.158928	0.448159
H138	H	2.594657	-0.158470	0.398870
H139	H	2.639876	-0.095983	0.443061
H140	H	2.677546	-0.226286	0.480957
H141	H	1.792196	-0.136204	0.572700
C142	C	2.652405	-0.157912	0.601213
H143	H	2.699736	-0.161465	0.571824
H144	H	2.643692	-0.092807	0.610895
H145	H	2.681325	-0.223109	0.648787
C146	C	2.273817	-0.448749	0.291561
H147	H	2.232940	-0.496579	0.298457
H148	H	2.269942	-0.413587	0.325780
H149	H	2.246062	-0.392866	0.239910
H150	H	2.554014	-0.793149	0.363740
H151	H	2.094695	-0.157293	0.457277
C152	C	2.255519	0.401992	0.142199
H153	H	2.240816	0.480250	0.126985
H154	H	2.208659	0.391022	0.104726
H155	H	2.245042	0.370267	0.190603
H156	H	2.292229	-0.136178	0.572719
C157	C	2.340567	0.158207	0.188054
H158	H	2.271539	0.206036	0.181159
H159	H	2.334609	0.123048	0.153833
H160	H	2.370976	0.102321	0.239705
H161	H	2.087408	-0.875156	0.431315
H162	H	2.123952	-0.156423	0.589512
H163	H	2.400741	-0.153440	0.039148
H164	H	2.071317	-0.034693	0.645597
H165	H	2.100575	-0.033824	0.777839
H166	H	2.194186	-0.154339	0.906914
H167	H	1.862422	-0.134130	0.890102
C168	C	1.868903	-0.274295	0.695788
H169	H	1.845581	-0.310541	0.737158
H170	H	1.808466	-0.224838	0.651581
H171	H	1.912519	-0.329224	0.684416
H172	H	1.891680	-0.133248	1.022338
H173	H	1.762920	-0.137053	0.440451
