data_functionalizedCrystal
_audit_creation_method	'MofGen! by Chris Wilmer'
_symmetry_space_group_name_H-M	'P1'
_symmetry_Int_Tables_number	1
_symmetry_cell_setting	triclinic
loop_
_symmetry_equiv_pos_as_xyz
  x,y,z
_cell_length_a	17.917603
_cell_length_b	20.875641
_cell_length_c	20.875621
_cell_angle_alpha	60.669978
_cell_angle_beta	87.037036
_cell_angle_gamma	60.699461
loop_
_atom_site_label
_atom_site_type_symbol
_atom_site_fract_x
_atom_site_fract_y
_atom_site_fract_z
Zr1	Zr	-0.159675	0.689621	0.649487
O2	O	-0.273589	0.814528	0.556101
O3	O	-0.120765	0.558846	0.674565
O4	O	-0.275574	0.680555	0.685081
O5	O	-0.001201	0.702018	0.541328
O6	O	-0.281677	0.680078	0.790862
O7	O	-0.118780	0.692820	0.545585
O8	O	-0.004752	0.462363	0.772050
O9	O	-0.278126	0.919732	0.560140
O10	O	-0.113545	0.614453	0.768492
O11	O	-0.021242	0.621673	0.686372
O12	O	-0.203510	0.764969	0.698754
O13	O	-0.111207	0.772190	0.616635
Zr14	Zr	0.018115	0.703530	0.811405
Zr15	Zr	-0.169409	0.688860	0.818195
Zr16	Zr	0.027849	0.704291	0.642698
Zr17	Zr	-0.166912	0.857409	0.655928
Zr18	Zr	0.025352	0.535742	0.804964
O19	O	-0.020795	0.834305	0.786328
O20	O	-0.287430	0.813447	0.795981
O21	O	-0.006954	0.835386	0.546447
O22	O	0.132028	0.578622	0.904791
O23	O	-0.134606	0.557764	0.914445
O24	O	0.145870	0.579704	0.664911
O25	O	-0.140359	0.691133	0.919565
O26	O	0.134014	0.712596	0.775811
O27	O	0.140117	0.713073	0.670031
O28	O	-0.022781	0.700331	0.915308
O29	O	-0.285864	0.919127	0.694240
O30	O	0.144304	0.474023	0.766653
O31	O	0.136566	0.473419	0.900753
O32	O	-0.012490	0.461758	0.906149
O33	O	-0.129070	0.931392	0.554743
O34	O	-0.136808	0.930788	0.688843
O35	O	0.061950	0.628181	0.762138
O36	O	-0.030353	0.620961	0.844258
O37	O	-0.120318	0.771478	0.774520
O38	O	-0.028015	0.778698	0.692400
C39	C	-0.061727	0.486699	0.722389
C40	C	-0.058655	0.415468	0.719655
C41	C	-0.105393	0.378235	0.761234
C42	C	-0.102497	0.311303	0.758666
C43	C	-0.052869	0.281609	0.714515
C44	C	-0.006126	0.318845	0.672935
C45	C	-0.009017	0.385772	0.675507
C46	C	-0.039053	0.081846	0.702229
C47	C	-0.036167	0.014915	0.699658
C48	C	-0.132538	0.007377	0.785391
C49	C	-0.135428	0.074309	0.787956
C50	C	-0.088682	0.111536	0.746379
N51	N	-0.049911	0.213195	0.711888
N52	N	-0.091635	0.179945	0.749011
C53	C	-0.305344	0.678226	0.738939
C54	C	-0.384953	0.671999	0.741821
C55	C	-0.530725	0.660623	0.747102
C56	C	-0.610838	0.732524	0.713792
C57	C	-0.691951	0.726195	0.716730
C58	C	-0.449603	0.666951	0.744165
C59	C	0.163784	0.714925	0.721954
C60	C	0.243392	0.721152	0.719071
C61	C	-0.058603	0.697527	0.519419
C62	C	-0.054471	0.697850	0.447798
C63	C	-0.079833	0.906452	0.738503
C64	C	-0.082905	0.977682	0.741237
C65	C	-0.117306	0.692937	0.416496
C66	C	-0.113419	0.693236	0.349202
C67	C	-0.046699	0.698455	0.313210
C68	C	0.016142	0.703366	0.344518
C69	C	0.012258	0.703060	0.411813
C70	C	-0.028132	0.699906	0.111697
C71	C	-0.024254	0.700214	0.044397
C72	C	-0.153815	0.690083	0.049086
C73	C	-0.157696	0.689783	0.116380
C74	C	-0.094852	0.694689	0.147684
N75	N	-0.042725	0.698764	0.244424
N76	N	-0.098823	0.694374	0.216472
C77	C	-0.082957	0.695624	0.941473
C78	C	-0.087089	0.695301	1.013094
C79	C	-0.073904	0.485747	0.933417
C80	C	-0.074964	0.414194	1.002303
C81	C	0.172836	0.505048	0.713897
C82	C	0.255517	0.440045	0.708280
C83	C	0.160660	0.504096	0.924924
C84	C	0.239208	0.438770	0.990928
C85	C	-0.302220	0.889055	0.535968
C86	C	-0.380768	0.954380	0.469964
C87	C	-0.067656	0.907404	0.527476
C88	C	-0.066596	0.978957	0.458589
C89	C	-0.314396	0.888103	0.746996
C90	C	-0.397077	0.953106	0.752612
C91	C	-0.118896	0.377194	0.995104
C92	C	-0.119909	0.309970	1.059825
C93	C	-0.076986	0.279743	1.131743
C94	C	-0.033054	0.316749	1.138941
C95	C	-0.032046	0.383976	1.074221
C96	C	0.337779	0.412917	0.745191
C97	C	0.415473	0.351850	0.739911
C98	C	0.410905	0.317908	0.697723
C99	C	0.328635	0.345042	0.660808
C100	C	0.250942	0.406112	0.666084
C101	C	0.227914	0.404324	1.064797
C102	C	0.301711	0.342952	1.126822
C103	C	0.386801	0.316023	1.114976
C104	C	0.398094	0.350477	1.041100
C105	C	0.324297	0.411852	0.979076
C106	C	-0.369474	0.988835	0.396096
C107	C	-0.443272	1.050228	0.334072
C108	C	-0.528362	1.077160	0.345918
C109	C	-0.539655	1.042702	0.419794
C110	C	-0.465858	0.981316	0.481817
C111	C	-0.022673	1.015964	0.465789
C112	C	-0.021680	1.083204	0.401070
C113	C	-0.064606	1.113433	0.329151
C114	C	-0.108535	1.076424	0.321954
C115	C	-0.109532	1.009188	0.386672
C116	C	-0.392480	0.987029	0.794806
C117	C	-0.470161	1.048098	0.800098
C118	C	-0.552439	1.075246	0.763192
C119	C	-0.557034	1.041316	0.720997
C120	C	-0.479354	0.980244	0.715710
H121	H	-0.145810	0.402411	0.797183
H122	H	-0.618507	0.798834	0.683064
F123	F	0.163396	0.434973	0.626799
F124	F	-0.154215	1.108604	0.245407
H125	H	-0.434060	1.078273	0.273924
H126	H	-0.588445	1.127145	0.295408
H127	H	-0.523057	0.594319	0.777824
F128	F	0.012628	0.284568	1.215488
F129	F	0.465334	0.250700	1.180994
H130	H	-0.171639	0.688693	0.445794
H131	H	-0.164583	0.689235	0.323717
F132	F	0.493601	0.252910	0.692115
H133	H	-0.608944	1.064639	0.429430
F134	F	0.025080	1.122579	0.408746
H135	H	-0.063788	1.168181	0.276459
F136	F	-0.477892	0.944647	0.560432
F137	F	0.023016	0.983806	0.542324
F138	F	-0.156278	0.969806	0.378998
H139	H	-0.325493	0.964935	0.824860
H140	H	-0.175840	0.098484	0.823908
F141	F	-0.635106	1.140248	0.768824
F142	F	-0.228707	0.684230	0.154684
F143	F	0.087155	0.708913	0.306215
H144	H	-0.466403	1.075718	0.834456
H145	H	-0.624034	1.063431	0.690950
F146	F	0.342661	0.449028	0.790097
F147	F	0.488660	0.321808	1.028504
F148	F	0.323786	0.308909	0.615912
F149	F	0.014720	0.423344	1.081894
F150	F	-0.152257	0.271692	0.802908
F151	F	-0.182283	-0.032249	0.829639
H152	H	-0.483109	0.952631	0.681348
H153	H	-0.000985	0.112145	0.668377
H154	H	0.034287	0.294659	0.636990
H155	H	-0.204979	0.686087	0.023593
F156	F	0.336332	0.448502	0.900460
F157	F	0.046762	0.705770	0.006094
F158	F	0.016654	-0.016684	0.652662
F159	F	0.038748	0.705131	0.145007
F160	F	0.503022	0.322981	0.779206
H161	H	0.063426	0.707059	0.437300
H162	H	0.292500	0.314906	1.186970
F163	F	0.040730	0.425396	0.631255
F164	F	-0.166667	0.270594	1.052149
H165	H	0.158636	0.426239	1.074457
F166	F	-0.164587	0.409353	0.918569
H167	H	-0.077813	0.225001	1.184436
H168	H	-0.300196	0.966911	0.386436
