data_functionalizedCrystal
_audit_creation_method	'MofGen! by Chris Wilmer'
_symmetry_space_group_name_H-M	'P1'
_symmetry_Int_Tables_number	1
_symmetry_cell_setting	triclinic
loop_
_symmetry_equiv_pos_as_xyz
  x,y,z
_cell_length_a	19.288864
_cell_length_b	14.044190
_cell_length_c	17.766277
_cell_angle_alpha	89.989261
_cell_angle_beta	89.976791
_cell_angle_gamma	88.164010
loop_
_atom_site_label
_atom_site_type_symbol
_atom_site_fract_x
_atom_site_fract_y
_atom_site_fract_z
O1	O	0.928951	0.118215	-0.062846
O2	O	1.428951	0.618215	0.437154
O3	O	0.727715	0.134162	-0.062796
O4	O	1.227715	0.634162	0.437204
O5	O	0.825310	-0.011784	-0.062805
O6	O	1.325310	0.488216	0.437195
O7	O	0.831356	0.264160	-0.062836
O8	O	1.331356	0.764160	0.437164
O9	O	0.825291	-0.011791	0.062383
O10	O	1.325291	0.488209	0.562383
O11	O	0.727696	0.134154	0.062393
O12	O	1.227696	0.634154	0.562393
O13	O	0.928932	0.118207	0.062343
O14	O	1.428932	0.618207	0.562343
Cu15	Cu	0.828312	0.126180	0.073798
Cu16	Cu	1.328312	0.626180	0.573798
Cu17	Cu	0.828335	0.126189	-0.074252
Cu18	Cu	1.328335	0.626189	0.425748
O19	O	0.831337	0.264153	0.062352
O20	O	1.331337	0.764153	0.562352
C21	C	0.701796	0.133645	-0.000195
C22	C	1.201796	0.633645	0.499805
C23	C	0.624593	0.132105	-0.000175
C24	C	1.124593	0.632105	0.499825
C25	C	0.822655	-0.047091	-0.000208
C26	C	1.322655	0.452909	0.499792
C27	C	0.814765	-0.152283	-0.000200
C28	C	1.314765	0.347717	0.499800
C29	C	0.585401	0.217739	-0.000197
C30	C	1.085401	0.717739	0.499803
C31	C	0.512861	0.216292	-0.000205
C32	C	1.012861	0.716292	0.499795
C33	C	0.479516	0.129205	-0.000207
C34	C	0.979516	0.629205	0.499793
C35	C	0.518718	0.043560	-0.000181
C36	C	1.018718	0.543560	0.499819
C37	C	0.591256	0.045010	-0.000165
C38	C	1.091256	0.545010	0.499835
C39	C	0.366861	0.060749	-0.044083
C40	C	0.866861	0.560749	0.455917
C41	C	0.294324	0.059303	-0.044104
C42	C	0.794324	0.559303	0.455896
C43	C	0.255783	0.124731	-0.000252
C44	C	0.755783	0.624731	0.499748
C45	C	0.289788	0.191621	0.043611
C46	C	0.789788	0.691621	0.543611
C47	C	0.362327	0.193071	0.043627
C48	C	0.862327	0.693071	0.543627
C49	C	0.400861	0.127624	-0.000223
C50	C	0.900861	0.627624	0.499777
C51	C	0.137934	0.208802	-0.000281
C52	C	0.637934	0.708802	0.499719
C53	C	0.065393	0.207351	-0.000284
C54	C	0.565393	0.707351	0.499716
C55	C	0.071251	0.034617	-0.000268
C56	C	0.571251	0.534617	0.499732
C57	C	0.143791	0.036071	-0.000257
C58	C	0.643791	0.536071	0.499743
C59	C	0.177128	0.123165	-0.000267
C60	C	0.677128	0.623165	0.499733
C61	C	0.856297	-0.402747	-0.000240
C62	C	1.356297	0.097253	0.499760
C63	C	0.800353	-0.344879	-0.000220
C64	C	1.300353	0.155121	0.499780
C65	C	0.808374	-0.237709	-0.000209
C66	C	1.308374	0.262291	0.499791
C67	C	0.848277	-0.509927	-0.000251
C68	C	1.348277	-0.009927	0.499749
C69	C	0.954851	0.118724	-0.000260
C70	C	1.454851	0.618724	0.499740
C71	C	1.032053	0.120264	-0.000285
C72	C	1.532053	0.620264	0.499715
C73	C	0.833991	0.299460	-0.000247
C74	C	1.333991	0.799460	0.499753
C75	C	0.841881	0.404652	-0.000260
C76	C	1.341881	0.904652	0.499740
N77	N	0.828301	0.126173	0.177929
N78	N	1.328301	0.626173	0.677929
N79	N	0.828351	0.126188	-0.178382
N80	N	1.328351	0.626188	0.321618
C81	C	0.871533	0.061580	0.217311
C82	C	1.371533	0.561580	0.717311
C83	C	0.871537	0.061576	0.296113
C84	C	1.371537	0.561576	0.796113
C85	C	0.828316	0.126181	0.335529
C86	C	1.328316	0.626181	0.835529
C87	C	0.785075	0.190779	0.296137
C88	C	1.285075	0.690779	0.796137
C89	C	0.785068	0.190775	0.217337
C90	C	1.285068	0.690775	0.717337
C91	C	0.824567	0.212524	0.460359
C92	C	1.324567	0.712524	0.960359
C93	C	0.824579	0.212529	0.539158
C94	C	1.324579	0.712529	1.039158
C95	C	0.828335	0.126192	0.578576
C96	C	1.328335	0.626192	1.078576
C97	C	0.832094	0.039847	0.539185
C98	C	1.332094	0.539847	1.039185
C99	C	0.832086	0.039843	0.460385
C100	C	1.332086	0.539843	0.960385
C101	C	0.828319	0.126192	0.420975
C102	C	1.328319	0.626192	0.920975
C103	C	0.871574	0.061589	0.703404
C104	C	1.371574	0.561589	1.203404
C105	C	0.871573	0.061583	0.782207
C106	C	1.371573	0.561583	1.282207
C107	C	0.785115	0.190795	0.782230
C108	C	1.285115	0.690795	1.282230
C109	C	0.785112	0.190792	0.703428
C110	C	1.285112	0.690792	1.203428
C111	C	0.828346	0.126190	0.664020
C112	C	1.328346	0.626190	1.164020
H113	H	0.612539	0.288658	-0.000206
H114	H	1.112539	0.788658	0.499794
O115	O	0.470572	0.308654	-0.000230
O116	O	0.970572	0.808654	0.499770
H117	H	0.483112	0.350340	-0.051263
H118	H	0.983112	0.850340	0.448737
O119	O	0.738517	0.260490	0.824746
O120	O	1.238517	0.760490	1.324746
H121	H	0.751953	0.334325	0.809594
H122	H	1.251953	0.834325	1.309594
H123	H	0.835144	-0.030462	0.428316
H124	H	1.335144	0.469538	0.928316
O125	O	0.728928	-0.385864	-0.000196
O126	O	1.228928	0.114136	0.499804
H127	H	0.700327	-0.361399	-0.051210
H128	H	1.200327	0.138601	0.448790
H129	H	0.910213	-0.371803	-0.000245
H130	H	1.410213	0.128197	0.499755
O131	O	0.738430	0.260443	0.174858
O132	O	1.238430	0.760443	0.674858
H133	H	0.745682	0.249580	0.113442
H134	H	1.245682	0.749580	0.613442
O135	O	0.633530	-0.047361	-0.000142
O136	O	1.133530	0.452639	0.499858
H137	H	0.689572	-0.031721	-0.000127
H138	H	1.189572	0.468279	0.499873
O139	O	0.918151	-0.008106	0.174805
O140	O	1.418151	0.491894	0.674805
H141	H	0.948209	-0.053030	0.215435
H142	H	1.448209	0.446970	0.715435
H143	H	0.390011	0.247532	0.079344
H144	H	0.890011	0.747532	0.579344
H145	H	0.258410	0.244899	0.079320
H146	H	0.758410	0.744899	0.579320
O147	O	0.173899	0.302733	-0.000276
O148	O	0.673899	0.802733	0.499724
H149	H	0.134456	0.362039	-0.000278
H150	H	0.634456	0.862039	0.499722
O151	O	0.918175	-0.008084	0.338605
O152	O	1.418175	0.491916	0.838605
H153	H	0.948240	-0.053000	0.297964
H154	H	1.448240	0.447000	0.797964
H155	H	0.835152	-0.030457	0.571277
H156	H	1.335152	0.469543	1.071277
H157	H	0.906775	0.008983	0.671317
H158	H	1.406775	0.508983	1.171317
H159	H	0.906775	0.008979	0.814273
H160	H	1.406775	0.508979	1.314273
H161	H	0.749911	0.243394	0.671360
H162	H	1.249911	0.743394	1.171360
H163	H	0.821496	0.282835	0.428271
H164	H	1.321496	0.782835	0.928271
O165	O	0.820540	0.305657	0.581637
O166	O	1.320540	0.805657	1.081637
H167	H	0.771797	0.345268	0.566542
H168	H	1.271797	0.845268	1.066542
O169	O	0.023115	0.299718	-0.000305
O170	O	0.523115	0.799718	0.499695
H171	H	0.058486	0.360519	-0.000315
H172	H	0.558486	0.860519	0.499685
O173	O	0.035299	-0.059316	-0.000270
O174	O	0.535299	0.440684	0.499730
H175	H	-0.021727	-0.045939	-0.000288
H176	H	0.478273	0.454061	0.499712
H177	H	0.175702	-0.033662	-0.000243
H178	H	0.675702	0.466338	0.499757
H179	H	0.266642	0.004841	-0.079822
H180	H	0.766642	0.504841	0.420178
O181	O	0.738461	0.260468	0.338643
O182	O	1.238461	0.760468	0.838643
H183	H	0.745735	0.249627	0.400055
H184	H	1.245735	0.749627	0.900055
H185	H	0.491564	-0.027346	-0.000193
H186	H	0.991564	0.472654	0.499807
O187	O	0.408429	-0.009820	-0.091388
O188	O	0.908429	0.490180	0.408612
H189	H	0.372598	-0.056562	-0.121900
H190	H	0.872598	0.443438	0.378100
