data_functionalizedCrystal
_audit_creation_method	'MofGen! by Chris Wilmer'
_symmetry_space_group_name_H-M	'P1'
_symmetry_Int_Tables_number	1
_symmetry_cell_setting	triclinic
loop_
_symmetry_equiv_pos_as_xyz
  x,y,z
_cell_length_a	27.732048
_cell_length_b	26.809956
_cell_length_c	27.732048
_cell_angle_alpha	89.999364
_cell_angle_beta	82.642655
_cell_angle_gamma	89.996742
loop_
_atom_site_label
_atom_site_type_symbol
_atom_site_fract_x
_atom_site_fract_y
_atom_site_fract_z
O1	O	0.640931	-0.041421	0.057510
O2	O	1.140931	0.458579	0.557510
O3	O	0.500138	-0.041436	0.066256
O4	O	1.000138	0.458564	0.566256
O5	O	0.574907	-0.041419	-0.008514
O6	O	1.074907	0.458581	0.491486
O7	O	0.566162	-0.041439	0.132280
O8	O	1.066162	0.458561	0.632280
O9	O	0.574893	0.041541	-0.008502
O10	O	1.074893	0.541541	0.491498
O11	O	0.500123	0.041523	0.066267
O12	O	1.000123	0.541523	0.566267
O13	O	0.640917	0.041539	0.057522
O14	O	1.140917	0.541539	0.557522
Zn15	Zn	0.570518	0.054702	0.061896
Zn16	Zn	1.070518	0.554702	0.561896
Zn17	Zn	0.570536	-0.054600	0.061881
Zn18	Zn	1.070536	0.445400	0.561881
O19	O	0.566147	0.041521	0.132291
O20	O	1.066147	0.541521	0.632291
C21	C	0.482124	0.000041	0.066078
C22	C	0.982124	0.500041	0.566078
C23	C	0.428469	0.000036	0.065525
C24	C	0.928469	0.500036	0.565525
N25	N	0.570509	0.129298	0.061906
N26	N	1.070509	0.629298	0.561906
C27	C	0.574716	0.000062	-0.026515
C28	C	1.074716	0.500062	0.473485
C29	C	0.574164	0.000066	-0.080170
C30	C	1.074164	0.500066	0.419830
C31	C	0.089654	0.000051	0.106229
C32	C	0.589654	0.500051	0.606229
C33	C	-0.112006	0.000056	0.104178
C34	C	0.387994	0.500056	0.604178
O35	O	-0.143262	0.000073	0.141398
O36	O	0.356738	0.500073	0.641398
N37	N	-0.131130	0.000062	0.059843
N38	N	0.368870	0.500062	0.559843
C39	C	-0.099835	0.000069	0.016017
C40	C	0.400165	0.500069	0.516017
O41	O	-0.120728	0.000079	-0.021740
O42	O	0.379272	0.500079	0.478260
C43	C	0.101824	0.000068	0.018068
C44	C	0.601824	0.500068	0.518068
C45	C	0.120944	0.000057	0.062407
C46	C	0.620944	0.500057	0.562407
C47	C	0.108775	0.000042	0.150563
C48	C	0.608775	0.500042	0.650563
C49	C	0.159187	0.000038	0.151076
C50	C	0.659187	0.500038	0.651076
C51	C	0.190477	0.000044	0.107253
C52	C	0.690477	0.500044	0.607253
C53	C	0.171356	0.000054	0.062919
C54	C	0.671356	0.500054	0.562919
C55	C	0.133117	0.000079	-0.025757
C56	C	0.633117	0.500079	0.474243
C57	C	0.183535	0.000080	-0.025240
C58	C	0.683535	0.500080	0.474760
C59	C	0.202655	0.000069	0.019098
C60	C	0.702655	0.500069	0.519098
C61	C	0.253059	0.000056	0.019609
C62	C	0.753059	0.500056	0.519609
N63	N	0.272183	0.000050	0.063944
N64	N	0.772183	0.500050	0.563944
C65	C	0.240892	0.000044	0.107766
C66	C	0.740892	0.500044	0.607766
C67	C	-0.205709	0.000069	0.014943
C68	C	0.294291	0.500069	0.514943
C69	C	-0.256124	0.000068	0.014430
C70	C	0.243876	0.500068	0.514430
C71	C	-0.268291	0.000056	0.102591
C72	C	0.231709	0.500056	0.602591
C73	C	-0.217876	0.000053	0.103104
C74	C	0.282124	0.500053	0.603104
C75	C	-0.186585	0.000063	0.059278
C76	C	0.313415	0.500063	0.559278
C77	C	0.346761	0.000036	0.108839
C78	C	0.846761	0.500036	0.608839
C79	C	0.397178	0.000030	0.109347
C80	C	0.897178	0.500030	0.609347
C81	C	0.409341	0.000044	0.021186
C82	C	0.909341	0.500044	0.521186
C83	C	0.358929	0.000048	0.020678
C84	C	0.858929	0.500048	0.520678
C85	C	0.327639	0.000045	0.064508
C86	C	0.827639	0.500045	0.564508
O87	O	0.284343	0.000045	-0.017592
O88	O	0.784343	0.500045	0.482408
O89	O	0.261794	0.000045	0.145518
O90	O	0.761794	0.500045	0.645518
C91	C	0.039242	0.000055	0.105716
C92	C	0.539242	0.500055	0.605716
C93	C	0.020120	0.000065	0.061382
C94	C	0.520120	0.500065	0.561382
C95	C	0.051411	0.000071	0.017560
C96	C	0.551411	0.500071	0.517560
C97	C	-0.030294	0.000065	0.060869
C98	C	0.469706	0.500065	0.560869
C99	C	-0.061585	0.000059	0.104691
C100	C	0.438415	0.500059	0.604691
C101	C	-0.042461	0.000053	0.149026
C102	C	0.457539	0.500053	0.649026
C103	C	0.007951	0.000049	0.149539
C104	C	0.507951	0.500049	0.649539
C105	C	0.032287	0.000077	-0.026775
C106	C	0.532287	0.500077	0.473225
C107	C	-0.018125	0.000080	-0.027284
C108	C	0.481875	0.500080	0.472716
C109	C	-0.049416	0.000074	0.016538
C110	C	0.450584	0.500074	0.516538
C111	C	0.658931	0.000060	0.057699
C112	C	1.158931	0.500060	0.557699
C113	C	0.712586	0.000062	0.058252
C114	C	1.212586	0.500062	0.558252
N115	N	0.570549	-0.129196	0.061867
N116	N	1.070549	0.370804	0.561867
C117	C	0.603640	0.473932	0.028781
C118	C	1.103640	0.973932	0.528781
C119	C	0.603652	0.682810	0.028774
C120	C	1.103652	1.182810	0.528774
O121	O	0.631801	0.709820	0.000613
O122	O	1.131801	1.209820	0.500613
N123	N	0.570539	0.708925	0.061870
N124	N	1.070539	1.208925	0.561870
C125	C	0.537419	0.682818	0.094969
C126	C	1.037419	1.182818	0.594969
O127	O	0.509252	0.709824	0.123116
O128	O	1.009252	1.209824	0.623116
C129	C	0.537406	0.473941	0.094974
C130	C	1.037406	0.973941	0.594974
C131	C	0.570524	0.447829	0.061878
C132	C	1.070524	0.947829	0.561878
C133	C	0.636755	0.447819	-0.004312
C134	C	1.136755	0.947819	0.495688
C135	C	0.636754	0.395603	-0.004308
C136	C	1.136754	0.895603	0.495692
C137	C	0.603637	0.369500	0.028789
C138	C	1.103637	0.869500	0.528789
C139	C	0.570522	0.395612	0.061882
C140	C	1.070522	0.895612	0.561882
C141	C	0.504284	0.447835	0.128070
C142	C	1.004284	0.947835	0.628070
C143	C	0.504283	0.395613	0.128067
C144	C	1.004283	0.895613	0.628067
C145	C	0.537401	0.369500	0.094972
C146	C	1.037401	0.869500	0.594972
C147	C	0.537405	0.317293	0.094983
C148	C	1.037405	0.817293	0.594983
N149	N	0.570517	0.291177	0.061887
N150	N	1.070517	0.791177	0.561887
C151	C	0.603633	0.317281	0.028790
C152	C	1.103633	0.817281	0.528790
C153	C	0.537429	0.792481	0.094965
C154	C	1.037429	1.292481	0.594965
C155	C	0.537433	0.844700	0.094964
C156	C	1.037433	1.344700	0.594964
C157	C	0.603665	0.844689	0.028768
C158	C	1.103665	1.344689	0.528768
C159	C	0.603663	0.792469	0.028772
C160	C	1.103663	1.292469	0.528772
C161	C	0.570542	0.766366	0.061868
C162	C	1.070542	1.266366	0.561868
C163	C	0.603628	0.207623	0.028801
C164	C	1.103628	0.707623	0.528801
C165	C	0.603625	0.155402	0.028809
C166	C	1.103625	0.655402	0.528809
C167	C	0.537392	0.155418	0.095003
C168	C	1.037392	0.655418	0.595003
C169	C	0.537396	0.207635	0.094997
C170	C	1.037396	0.707635	0.594997
C171	C	0.570516	0.233735	0.061892
C172	C	1.070516	0.733735	0.561892
O173	O	0.509266	0.290250	0.123126
O174	O	1.009266	0.790250	0.623126
O175	O	0.631789	0.290266	0.000640
O176	O	1.131789	0.790266	0.500640
C177	C	0.603642	0.526149	0.028777
C178	C	1.103642	1.026149	0.528777
C179	C	0.570527	0.552261	0.061870
C180	C	1.070527	1.052261	0.561870
C181	C	0.537410	0.526158	0.094968
C182	C	1.037410	1.026158	0.594968
C183	C	0.570531	0.604480	0.061870
C184	C	1.070531	1.104480	0.561870
C185	C	0.603647	0.630584	0.028773
C186	C	1.103647	1.130584	0.528773
C187	C	0.636759	0.604468	-0.004324
C188	C	1.136759	1.104468	0.495676
C189	C	0.636758	0.552252	-0.004320
C190	C	1.136758	1.052252	0.495680
C191	C	0.504298	0.552273	0.128064
C192	C	1.004298	1.052273	0.628064
C193	C	0.504303	0.604489	0.128058
C194	C	1.004303	1.104489	0.628058
C195	C	0.537419	0.630593	0.094961
C196	C	1.037419	1.130593	0.594961
C197	C	0.614867	0.000045	-0.418985
C198	C	1.114867	0.500045	0.081015
C199	C	0.612816	0.000038	-0.620645
C200	C	1.112816	0.500038	-0.120645
O201	O	0.650037	0.000021	-0.651900
O202	O	1.150037	0.500021	-0.151900
N203	N	0.568481	0.000034	-0.639768
N204	N	1.068481	0.500034	-0.139768
C205	C	0.524656	0.000028	-0.608474
C206	C	1.024656	0.500028	-0.108474
O207	O	0.486899	0.000019	-0.629367
O208	O	0.986899	0.500019	-0.129367
C209	C	0.526707	0.000031	-0.406815
C210	C	1.026707	0.500031	0.093185
C211	C	0.571045	0.000041	-0.387694
C212	C	1.071045	0.500041	0.112306
C213	C	0.659202	0.000054	-0.399864
C214	C	1.159202	0.500054	0.100136
C215	C	0.659714	0.000059	-0.349452
C216	C	1.159714	0.500059	0.150548
C217	C	0.615892	0.000054	-0.318161
C218	C	1.115892	0.500054	0.181839
C219	C	0.571557	0.000045	-0.337282
C220	C	1.071557	0.500045	0.162718
C221	C	0.482882	0.000022	-0.375521
C222	C	0.982882	0.500022	0.124479
C223	C	0.483399	0.000021	-0.325104
C224	C	0.983399	0.500021	0.174896
C225	C	0.527737	0.000031	-0.305983
C226	C	1.027737	0.500031	0.194017
C227	C	0.528247	0.000045	-0.255580
C228	C	1.028247	0.500045	0.244420
N229	N	0.572583	0.000050	-0.236456
N230	N	1.072583	0.500050	0.263544
C231	C	0.616405	0.000054	-0.267747
C232	C	1.116405	0.500054	0.232253
C233	C	0.523582	0.000027	-0.714348
C234	C	1.023582	0.500027	-0.214348
C235	C	0.523069	0.000027	-0.764762
C236	C	1.023069	0.500027	-0.264762
C237	C	0.611230	0.000036	-0.776930
C238	C	1.111230	0.500036	-0.276930
C239	C	0.611742	0.000040	-0.726514
C240	C	1.111742	0.500040	-0.226514
C241	C	0.567917	0.000031	-0.695224
C242	C	1.067917	0.500031	-0.195224
C243	C	0.617477	0.000064	-0.161878
C244	C	1.117477	0.500064	0.338122
C245	C	0.617986	0.000071	-0.111461
C246	C	1.117986	0.500071	0.388539
C247	C	0.529825	0.000059	-0.099298
C248	C	1.029825	0.500059	0.400702
C249	C	0.529316	0.000055	-0.149710
C250	C	1.029316	0.500055	0.350290
C251	C	0.573147	0.000056	-0.180999
C252	C	1.073147	0.500056	0.319001
O253	O	0.491047	0.000057	-0.224296
O254	O	0.991047	0.500057	0.275704
O255	O	0.654156	0.000053	-0.246844
O256	O	1.154156	0.500053	0.253156
C257	C	0.614355	0.000041	-0.469397
C258	C	1.114355	0.500041	0.030603
C259	C	0.570021	0.000032	-0.488518
C260	C	1.070021	0.500032	0.011482
C261	C	0.526198	0.000027	-0.457228
C262	C	1.026198	0.500027	0.042772
C263	C	0.569508	0.000032	-0.538933
C264	C	1.069508	0.500032	-0.038933
C265	C	0.613330	0.000036	-0.570223
C266	C	1.113330	0.500036	-0.070223
C267	C	0.657665	0.000041	-0.551100
C268	C	1.157665	0.500041	-0.051100
C269	C	0.658177	0.000045	-0.500688
C270	C	1.158177	0.500045	-0.000688
C271	C	0.481863	0.000023	-0.476351
C272	C	0.981863	0.500023	0.023649
C273	C	0.481355	0.000019	-0.526764
C274	C	0.981355	0.500019	-0.026764
C275	C	0.525177	0.000023	-0.558054
C276	C	1.025177	0.500023	-0.058054
C277	C	0.566338	0.000039	0.150292
C278	C	1.066338	0.500039	0.650292
C279	C	0.566891	0.000031	0.203947
C280	C	1.066891	0.500031	0.703947
H281	H	0.412743	0.000021	0.145454
H282	H	0.912743	0.500021	0.645454
Br283	Br	-0.282067	0.000067	-0.045745
Br284	Br	0.217933	0.500067	0.454255
H285	H	0.663725	0.530995	-0.031269
H286	H	1.163725	1.030995	0.468731
Br287	Br	0.422705	0.000007	-0.401458
Br288	Br	0.922705	0.500007	0.098542
H289	H	0.663726	0.625730	-0.031271
H290	H	1.163726	1.125730	0.468729
H291	H	0.663722	0.469068	-0.031266
H292	H	1.163722	0.969068	0.468734
Br293	Br	0.459356	0.639923	0.172980
Br294	Br	0.959356	1.139923	0.672980
Br295	Br	-0.163250	0.000083	-0.044540
Br296	Br	0.336750	0.500083	0.455460
H297	H	0.693347	0.000047	-0.576585
H298	H	1.193347	0.500047	-0.076585
Br299	Br	0.492494	0.880133	0.139889
Br300	Br	0.992494	1.380133	0.639889
H301	H	0.486964	0.000028	-0.780325
H302	H	0.986964	0.500028	-0.280325
H303	H	0.057760	0.000083	-0.062462
H304	H	0.557760	0.500083	0.437538
H305	H	0.321291	0.000035	0.144530
H306	H	0.821291	0.500035	0.644530
Br307	Br	0.421176	0.000010	-0.552706
Br308	Br	0.921176	0.500010	-0.052706
Br309	Br	0.459350	0.516854	0.172985
Br310	Br	0.959350	1.016854	0.672985
Br311	Br	0.676962	0.000065	-0.204334
Br312	Br	1.176962	0.500065	0.295666
Br313	Br	0.492456	0.243072	0.139920
Br314	Br	0.992456	0.743072	0.639920
Br315	Br	-0.044068	0.000086	-0.087463
Br316	Br	0.455932	0.500086	0.412537
H317	H	0.510457	0.771232	0.121917
H318	H	1.010457	1.271232	0.621917
Br319	Br	0.423918	0.000007	-0.282641
Br320	Br	0.923918	0.500007	0.217359
Br321	Br	0.464098	0.000014	-0.671889
Br322	Br	0.964098	0.500014	-0.171889
H323	H	0.493213	0.000061	-0.165279
H324	H	0.993213	0.500061	0.334721
H325	H	0.646911	0.000040	-0.802415
H326	H	1.146911	0.500040	-0.302415
Br327	Br	0.719890	0.000058	-0.323510
Br328	Br	1.219890	0.500058	0.176490
Br329	Br	0.648577	0.243037	-0.016128
Br330	Br	1.148577	0.743037	0.483872
Br331	Br	0.718683	0.000060	-0.442321
Br332	Br	1.218683	0.500060	0.057679
Br333	Br	0.648610	0.757036	-0.016145
Br334	Br	1.148610	1.257036	0.483855
Br335	Br	0.671917	0.000054	-0.700570
Br336	Br	1.171917	0.500054	-0.200570
H337	H	0.174750	0.000029	0.187180
H338	H	0.674750	0.500029	0.687180
Br339	Br	0.470355	0.000053	-0.056822
Br340	Br	0.970355	0.500053	0.443178
H341	H	-0.293777	0.000051	0.138273
H342	H	0.206223	0.500051	0.638273
Br343	Br	0.066317	0.000033	0.210045
Br344	Br	0.566317	0.500033	0.710045
H345	H	-0.202311	0.000047	0.139207
H346	H	0.297689	0.500047	0.639207
Br347	Br	0.678163	0.000085	-0.085514
Br348	Br	1.178163	0.500085	0.414486
H349	H	0.117558	0.000088	-0.061861
H350	H	0.617558	0.500088	0.438139
H351	H	0.023514	0.000042	0.185643
H352	H	0.523514	0.500042	0.685643
H353	H	0.630630	0.865951	0.001820
H354	H	1.130630	1.365951	0.501820
Br355	Br	0.459328	0.360191	0.172985
Br356	Br	0.959328	0.860191	0.672985
H357	H	0.209009	0.000089	-0.060929
H358	H	0.709009	0.500089	0.439071
H359	H	0.343360	0.000049	-0.015426
H360	H	0.843360	0.500049	0.484574
Br361	Br	-0.084937	0.000041	0.208499
Br362	Br	0.415063	0.500041	0.708499
H363	H	0.630595	0.134142	0.001859
H364	H	1.130595	0.634142	0.501859
H365	H	0.663720	0.374345	-0.031258
H366	H	1.163720	0.874345	0.468742
H367	H	0.434827	0.000047	-0.014492
H368	H	0.934827	0.500047	0.485508
Br369	Br	0.492451	0.119984	0.139920
Br370	Br	0.992451	0.619984	0.639920
H371	H	0.477317	0.469089	0.155019
H372	H	0.977317	0.969089	0.655019
H373	H	0.694282	0.000053	-0.485125
H374	H	1.194282	0.500053	0.014875
H375	H	0.446177	0.000018	-0.450879
H376	H	0.946177	0.500018	0.049121
