data_functionalizedCrystal
_audit_creation_method	'MofGen! by Chris Wilmer'
_symmetry_space_group_name_H-M	'P1'
_symmetry_Int_Tables_number	1
_symmetry_cell_setting	triclinic
loop_
_symmetry_equiv_pos_as_xyz
  x,y,z
_cell_length_a	16.625546
_cell_length_b	12.827893
_cell_length_c	12.827885
_cell_angle_alpha	90.021189
_cell_angle_beta	89.964876
_cell_angle_gamma	89.979513
loop_
_atom_site_label
_atom_site_type_symbol
_atom_site_fract_x
_atom_site_fract_y
_atom_site_fract_z
Zn1	Zn	-0.321005	-1.597618	-0.590863
Zn2	Zn	-0.455859	-1.597491	-0.416107
Zn3	Zn	-0.321040	-1.422860	-0.416131
Zn4	Zn	-0.455795	-1.422823	-0.590801
O5	O	-0.388425	-1.510198	-0.503476
O6	O	-0.338906	-1.743837	-0.567697
O7	O	-0.438017	-1.574287	-0.269874
O8	O	-0.208203	-1.446110	-0.439346
O9	O	-0.437983	-1.743744	-0.439305
O10	O	-0.208177	-1.574505	-0.567721
O11	O	-0.338965	-1.445987	-0.269892
O12	O	-0.338903	-1.276619	-0.439286
O13	O	-0.437873	-1.446048	-0.737046
O14	O	-0.437907	-1.276592	-0.567615
O15	O	-0.338844	-1.574469	-0.737091
O16	O	-0.568683	-1.574252	-0.439245
O17	O	-0.568636	-1.445925	-0.567592
C18	C	-0.388402	-1.238688	-0.503447
C19	C	-0.388412	-1.122535	-0.503459
C20	C	-0.339366	-0.950692	-0.440083
C21	C	-0.339355	-1.070742	-0.440069
C22	C	-0.597916	-1.510099	-0.503432
C23	C	-0.687537	-1.510152	-0.503448
C24	C	-1.015712	-1.510335	-0.503557
C25	C	-0.924404	-1.510281	-0.503530
C26	C	-0.851627	-1.510243	-0.503502
C27	C	-0.760313	-1.510190	-0.503476
C28	C	-0.178116	-1.510326	-0.503543
C29	C	-0.088495	-1.510380	-0.503571
C30	C	-0.388347	-1.510269	-0.776046
C31	C	-0.388314	-1.510299	-0.892199
C32	C	-0.388442	-0.782768	-0.503497
C33	C	-0.388432	-0.898921	-0.503485
C34	C	-0.339302	-1.573853	-0.944007
C35	C	-0.339267	-1.573886	-1.064057
C36	C	-0.388444	-1.510187	-0.231966
C37	C	-0.388250	-1.510359	-0.115813
H38	H	-0.430426	-0.943475	-0.557760
H39	H	-0.297308	-1.628300	-1.108610
O40	O	-0.438644	-1.069485	-0.568114
C41	C	-0.519002	-1.096065	-0.545133
H42	H	-0.523019	-1.126093	-0.461663
H43	H	-0.540164	-1.159361	-0.601161
C44	C	-0.567833	-0.962151	-0.659619
C45	C	-0.572767	-0.999024	-0.557097
H46	H	-0.600999	-0.902294	-0.667003
H47	H	-0.513695	-0.944246	-0.675106
H48	H	-0.585467	-1.014907	-0.706297
H49	H	-0.555124	-0.946273	-0.510422
H50	H	-0.626904	-1.016918	-0.541603
O51	O	-0.289372	-0.897499	-0.375229
C52	C	-0.335262	-0.834290	-0.307711
H53	H	-0.398734	-0.867223	-0.301065
H54	H	-0.338135	-0.751628	-0.340107
C55	C	-0.217808	-0.791968	-0.207335
C56	C	-0.295764	-0.832423	-0.199166
H57	H	-0.193443	-0.790812	-0.140380
H58	H	-0.186890	-0.834550	-0.252825
H59	H	-0.220213	-0.723087	-0.234335
H60	H	-0.293357	-0.901307	-0.172178
H61	H	-0.326680	-0.789853	-0.153668
H62	H	-0.430244	-1.455906	-0.936722
H63	H	-0.297351	-1.115263	-0.385784
H64	H	-0.297364	-1.628236	-0.899484
O65	O	-0.438354	-1.445589	-1.062560
C66	C	-0.490423	-1.505100	-0.999436
H67	H	-0.461985	-1.584322	-0.983214
H68	H	-0.550195	-1.516517	-1.041420
C69	C	-0.539904	-1.350364	-0.915610
C70	C	-0.504972	-1.447664	-0.895678
H71	H	-0.548882	-1.314934	-0.851608
H72	H	-0.504827	-1.310270	-0.958140
H73	H	-0.589710	-1.359892	-0.950599
H74	H	-0.455163	-1.438134	-0.860702
H75	H	-0.540042	-1.487755	-0.853139
