data_functionalizedCrystal
_audit_creation_method	'MofGen! by Chris Wilmer'
_symmetry_space_group_name_H-M	'P1'
_symmetry_Int_Tables_number	1
_symmetry_cell_setting	triclinic
loop_
_symmetry_equiv_pos_as_xyz
  x,y,z
_cell_length_a	16.109302
_cell_length_b	27.731996
_cell_length_c	15.186229
_cell_angle_alpha	89.990305
_cell_angle_beta	89.994701
_cell_angle_gamma	83.041584
loop_
_atom_site_label
_atom_site_type_symbol
_atom_site_fract_x
_atom_site_fract_y
_atom_site_fract_z
O1	O	1.102341	0.062133	-0.073280
O2	O	0.860181	0.069865	-0.073274
O3	O	0.988804	-0.004368	-0.073258
O4	O	0.973717	0.136366	-0.073296
O5	O	0.988796	-0.004369	0.073199
O6	O	0.860172	0.069864	0.073183
O7	O	1.102332	0.062132	0.073177
Zn8	Zn	0.981251	0.065998	0.096433
Zn9	Zn	0.981262	0.065999	-0.096530
O10	O	0.973709	0.136365	0.073161
C11	C	0.829206	0.069551	-0.000045
C12	C	0.736922	0.068612	-0.000042
C13	C	0.524604	0.066440	0.079784
C14	C	0.437896	0.065552	0.079781
C15	C	0.437915	0.065556	-0.079895
C16	C	0.524623	0.066440	-0.079891
C17	C	0.567965	0.066885	-0.000049
C18	C	0.394548	0.065113	-0.000056
C19	C	0.300535	0.064150	-0.000059
C20	C	0.661985	0.067846	-0.000045
C21	C	0.988490	-0.022377	-0.000027
C22	C	0.987557	-0.076037	-0.000018
C23	C	0.981688	-0.408778	-0.079894
C24	C	0.978143	-0.610451	-0.079910
O25	O	0.977653	-0.636523	-0.147806
N26	N	0.977698	-0.635670	-0.000077
C27	C	0.978134	-0.610468	0.079766
O28	O	0.977666	-0.636546	0.147669
C29	C	0.981673	-0.408795	0.079781
C30	C	0.982127	-0.383579	-0.000058
C31	C	0.982141	-0.383561	-0.159726
C32	C	0.983031	-0.333146	-0.159722
C33	C	0.983470	-0.307948	-0.079885
C34	C	0.983017	-0.333164	-0.000053
C35	C	0.982103	-0.383594	0.159622
C36	C	0.982986	-0.333172	0.159619
C37	C	0.983439	-0.307956	0.079780
C38	C	0.984346	-0.257551	0.079788
N39	N	0.984791	-0.232331	-0.000045
C40	C	0.984353	-0.257530	-0.079882
C41	C	0.976278	-0.716349	0.079753
C42	C	0.975395	-0.766767	0.079749
C43	C	0.975402	-0.766746	-0.079927
C44	C	0.976292	-0.716328	-0.079922
C45	C	0.976723	-0.691130	-0.000080
C46	C	0.986224	-0.151655	-0.079866
C47	C	0.987118	-0.101236	-0.079854
C48	C	0.987106	-0.101261	0.079821
C49	C	0.986217	-0.151676	0.079810
C50	C	0.985773	-0.176871	-0.000040
O51	O	0.984828	-0.231447	0.147649
O52	O	0.984803	-0.231442	-0.147774
C53	C	0.980798	-0.459192	-0.079899
C54	C	0.980345	-0.484409	-0.000067
C55	C	0.980783	-0.459210	0.079769
C56	C	0.979462	-0.534827	-0.000071
C57	C	0.979024	-0.560025	-0.079907
C58	C	0.979468	-0.534806	-0.159740
C59	C	0.980359	-0.484391	-0.159735
C60	C	0.980339	-0.484430	0.159602
C61	C	0.979449	-0.534845	0.159591
C62	C	0.979010	-0.560043	0.079755
C63	C	1.133308	0.062446	-0.000054
C64	C	1.225591	0.063385	-0.000063
C65	C	0.974023	0.154374	-0.000072
C66	C	0.974957	0.208034	-0.000087
N67	N	0.981249	0.065997	0.228126
N68	N	0.981270	0.065997	-0.228223
C69	C	1.038223	0.033137	0.453856
C70	C	1.038226	0.033136	0.546046
C71	C	0.924291	0.098858	0.546041
C72	C	0.924285	0.098856	0.453853
C73	C	0.981256	0.065996	0.407763
C74	C	0.981264	0.065997	0.592140
C75	C	0.981267	0.065996	0.692096
C76	C	0.981252	0.065997	0.307800
H77	H	0.987489	-0.080707	-0.144871
C78	C	0.862406	0.134457	0.596199
C79	C	0.811874	0.108701	0.649162
C80	C	0.754865	0.141480	0.695387
H81	H	0.828394	0.154041	0.555645
H82	H	0.892030	0.154578	0.632198
H83	H	0.782253	0.088589	0.613166
H84	H	0.845863	0.089119	0.689732
H85	H	0.784488	0.161601	0.731387
H86	H	0.720858	0.161062	0.654827
H87	H	0.720577	0.124009	0.731334
H88	H	0.877891	0.125614	0.416321
C89	C	0.390692	0.065143	0.166392
C90	C	0.330989	0.106188	0.171037
C91	C	0.287482	0.105822	0.250807
H92	H	0.428823	0.065557	0.214015
H93	H	0.363532	0.036639	0.169720
H94	H	0.358148	0.134684	0.167718
H95	H	0.292841	0.105782	0.123432
H96	H	0.260322	0.077318	0.254136
H97	H	0.325619	0.106235	0.298425
H98	H	0.246964	0.133667	0.253967
H99	H	0.979086	-0.555372	0.224610
C100	C	0.985872	-0.179072	-0.166500
C101	C	1.056905	-0.213479	-0.171175
C102	C	1.056607	-0.238747	-0.250965
H103	H	0.986311	-0.156882	-0.214106
H104	H	0.937048	-0.195071	-0.169840
H105	H	1.105716	-0.197481	-0.167844
H106	H	1.056481	-0.235679	-0.123587
H107	H	1.007783	-0.254746	-0.254305
H108	H	1.057044	-0.216554	-0.298565
H109	H	1.104797	-0.262098	-0.254144
H110	H	0.979115	-0.555332	-0.224746
H111	H	0.983397	-0.312619	-0.224734
C112	C	0.981713	-0.410830	-0.246507
C113	C	0.982319	-0.377947	-0.316408
C114	C	0.981944	-0.403048	-0.396368
H115	H	0.932883	-0.426807	-0.249966
H116	H	1.029892	-0.434183	-0.249878
H117	H	0.934145	-0.354604	-0.313038
H118	H	1.031145	-0.361970	-0.312978
H119	H	1.030123	-0.426400	-0.399739
H120	H	0.933113	-0.419023	-0.399818
H121	H	0.982363	-0.380741	-0.443805
C122	C	0.980866	-0.457167	0.246380
C123	C	0.980310	-0.490052	0.316284
C124	C	0.980814	-0.464959	0.396242
H125	H	0.932729	-0.433799	0.249841
H126	H	1.029737	-0.441212	0.249745
H127	H	0.931443	-0.505999	0.312921
H128	H	1.028443	-0.513420	0.312853
H129	H	1.029686	-0.449004	0.399607
H130	H	0.932677	-0.441592	0.399694
H131	H	0.980445	-0.487268	0.443682
H132	H	1.084611	0.006381	0.416332
H133	H	0.976659	-0.695800	-0.144934
C134	C	0.974747	-0.794122	-0.166581
C135	C	0.902671	-0.817603	-0.171236
C136	C	0.902026	-0.842823	-0.251048
H137	H	1.022844	-0.817522	-0.169990
H138	H	0.975089	-0.771898	-0.214159
H139	H	0.902337	-0.839825	-0.123671
H140	H	0.854563	-0.794214	-0.167842
H141	H	0.902368	-0.820598	-0.298627
H142	H	0.950126	-0.866220	-0.254451
H143	H	0.853120	-0.858753	-0.254221
H144	H	0.975038	-0.787295	0.144762
C145	C	0.976584	-0.688959	0.166420
C146	C	0.905527	-0.654570	0.171118
C147	C	0.905781	-0.629338	0.250948
H148	H	1.025375	-0.672944	0.169829
H149	H	0.976151	-0.711186	0.213983
H150	H	0.905969	-0.632346	0.123569
H151	H	0.856725	-0.670572	0.167724
H152	H	0.905347	-0.651565	0.298510
H153	H	0.954574	-0.613326	0.254350
H154	H	0.857566	-0.606006	0.254150
C155	C	0.571520	0.066890	0.166558
C156	C	0.514986	0.066296	0.236471
C157	C	0.558173	0.066702	0.316423
H158	H	0.598638	0.095398	0.170003
H159	H	0.612040	0.039052	0.169929
H160	H	0.474481	0.094132	0.233102
H161	H	0.487866	0.037791	0.233055
H162	H	0.598694	0.038864	0.319793
H163	H	0.585290	0.095210	0.319858
H164	H	0.519823	0.066295	0.363868
C165	C	0.983485	-0.305904	0.246400
C166	C	0.982914	-0.338785	0.316310
C167	C	0.983382	-0.313685	0.396264
H168	H	0.935340	-0.282541	0.249838
H169	H	1.032349	-0.289944	0.249782
H170	H	0.934056	-0.354737	0.312930
H171	H	1.031055	-0.362149	0.312901
H172	H	1.032245	-0.297724	0.399645
H173	H	0.935236	-0.290323	0.399693
H174	H	0.983002	-0.335991	0.443707
H175	H	0.402616	0.065195	-0.144899
H176	H	1.084613	0.006379	0.583572
H177	H	0.559929	0.066801	-0.144904
C178	C	0.985690	-0.178967	0.166582
C179	C	0.986249	-0.146104	0.236500
C180	C	0.985744	-0.171221	0.316448
H181	H	1.033827	-0.202336	0.170027
H182	H	0.936819	-0.194922	0.169948
H183	H	1.035115	-0.130156	0.233136
H184	H	0.938115	-0.122734	0.233084
H185	H	0.936872	-0.187176	0.319813
H186	H	1.033882	-0.194589	0.319883
H187	H	0.986115	-0.148927	0.363896
H188	H	0.981735	-0.404116	0.224635
C189	C	0.987402	-0.073852	0.166466
C190	C	0.916340	-0.039465	0.171115
C191	C	0.916569	-0.014208	0.250922
H192	H	1.036189	-0.057835	0.169872
H193	H	0.986958	-0.096066	0.214049
H194	H	0.916792	-0.017255	0.123545
H195	H	0.867541	-0.055470	0.167724
H196	H	0.916125	-0.036422	0.298504
H197	H	0.965360	0.001807	0.254320
H198	H	0.868352	0.009123	0.254090
H199	H	0.980728	-0.463864	-0.224748
