data_functionalizedCrystal
_audit_creation_method	'MofGen! by Chris Wilmer'
_symmetry_space_group_name_H-M	'P1'
_symmetry_Int_Tables_number	1
_symmetry_cell_setting	triclinic
loop_
_symmetry_equiv_pos_as_xyz
  x,y,z
_cell_length_a	6.394989
_cell_length_b	11.026607
_cell_length_c	10.065875
_cell_angle_alpha	79.302338
_cell_angle_beta	80.951547
_cell_angle_gamma	82.458136
loop_
_atom_site_label
_atom_site_type_symbol
_atom_site_fract_x
_atom_site_fract_y
_atom_site_fract_z
O1	O	-0.855566	1.641000	-0.113474
O2	O	-0.755391	1.286163	-0.113478
O3	O	-0.503308	1.468618	-0.113477
O4	O	-1.107649	1.458545	-0.113475
O5	O	-0.551624	1.433830	0.113511
O6	O	-0.803707	1.251375	0.113510
O7	O	-0.903882	1.606212	0.113514
Zn8	Zn	-0.861465	1.423270	0.149552
Zn9	Zn	-0.797807	1.469105	-0.149516
O10	O	-1.155965	1.423757	0.113513
C11	C	-0.761068	1.223275	0.000015
C12	C	-0.705977	1.087719	0.000013
N13	N	-0.904912	1.391998	0.353657
C14	C	-0.858092	1.016240	0.000013
C15	C	-0.801156	0.876135	0.000011
C16	C	-0.448894	1.449233	0.000012
C17	C	-0.210370	1.443147	0.000011
C18	C	-0.898204	1.669100	0.000018
C19	C	-0.953293	1.804658	0.000011
N20	N	-0.754347	1.500386	-0.353621
C21	C	-0.812908	1.458216	0.421436
C22	C	-0.846365	1.434158	0.578603
H23	H	-0.628756	0.833618	-0.000024
H24	H	-1.125689	0.847177	0.000020
C25	C	-0.984099	1.334617	0.656285
C26	C	-0.898003	1.219349	0.621676
C27	C	-1.024804	1.127623	0.693224
H28	H	-1.124387	1.353623	0.632995
H29	H	-0.988196	1.331566	0.751597
H30	H	-0.893930	1.222402	0.526385
H31	H	-0.757731	1.200304	0.644969
H32	H	-1.028901	1.124572	0.788536
H33	H	-1.165086	1.146641	0.669928
H34	H	-0.966396	1.049402	0.669761
H35	H	-1.030475	1.058766	0.000021
C36	C	-0.674512	1.557411	0.343715
C37	C	-0.467936	1.528872	0.378310
C38	C	-0.340397	1.620218	0.306715
H39	H	-0.732337	1.635779	0.366976
H40	H	-0.670270	1.560350	0.248410
H41	H	-0.472186	1.525947	0.473594
H42	H	-0.410050	1.450520	0.355045
H43	H	-0.336155	1.623156	0.211410
H44	H	-0.398240	1.698579	0.329982
H45	H	-0.200217	1.600860	0.330168
H46	H	-0.650793	1.574890	0.588059
H47	H	-1.008441	1.317490	0.411983
H48	H	-0.533588	1.045197	-0.000022
