data_functionalizedCrystal
_audit_creation_method	'MofGen! by Chris Wilmer'
_symmetry_space_group_name_H-M	'P1'
_symmetry_Int_Tables_number	1
_symmetry_cell_setting	triclinic
loop_
_symmetry_equiv_pos_as_xyz
  x,y,z
_cell_length_a	17.077404
_cell_length_b	17.077402
_cell_length_c	17.077396
_cell_angle_alpha	89.970216
_cell_angle_beta	89.980499
_cell_angle_gamma	90.023108
loop_
_atom_site_label
_atom_site_type_symbol
_atom_site_fract_x
_atom_site_fract_y
_atom_site_fract_z
Zn1	Zn	1.200055	-0.312503	-0.443836
Zn2	Zn	1.700055	0.187497	0.056164
Zn3	Zn	1.199962	-0.443778	-0.312567
Zn4	Zn	1.699962	0.056222	0.187433
Zn5	Zn	1.068786	-0.312531	-0.312584
Zn6	Zn	1.568786	0.187469	0.187416
Zn7	Zn	1.068754	-0.443732	-0.443790
Zn8	Zn	1.568754	0.056268	0.056210
O9	O	1.134389	-0.378136	-0.378194
O10	O	1.634389	0.121864	0.121806
O11	O	1.309889	-0.329925	-0.426434
O12	O	1.809889	0.170075	0.073566
O13	O	1.182536	-0.426399	-0.202722
O14	O	1.682536	0.073601	0.297278
O15	O	1.086252	-0.202680	-0.330021
O16	O	1.586252	0.297320	0.169979
O17	O	1.309821	-0.426372	-0.329992
O18	O	1.809821	0.073628	0.170008
O19	O	1.182694	-0.202660	-0.426451
O20	O	1.682694	0.297340	0.073549
O21	O	1.086162	-0.329972	-0.202734
O22	O	1.586162	0.170028	0.297266
O23	O	0.958935	-0.329927	-0.329976
O24	O	1.458935	0.170073	0.170024
O25	O	1.086197	-0.426293	-0.553643
O26	O	1.586197	0.073707	-0.053643
O27	O	0.958912	-0.426320	-0.426373
O28	O	1.458912	0.073680	0.073627
O29	O	1.182663	-0.329880	-0.553677
O30	O	1.682663	0.170120	-0.053677
O31	O	1.182505	-0.553619	-0.329948
O32	O	1.682505	-0.053619	0.170052
O33	O	1.086107	-0.553585	-0.426357
O34	O	1.586107	-0.053585	0.073643
C35	C	0.930441	-0.378122	-0.378172
C36	C	1.430441	0.121878	0.121828
C37	C	0.843192	-0.378135	-0.378182
C38	C	1.343192	0.121865	0.121818
C39	C	0.802210	-0.428402	-0.428295
C40	C	1.302210	0.071598	0.071705
C41	C	0.720229	-0.428404	-0.428308
C42	C	1.220229	0.071596	0.071692
C43	C	0.679232	-0.378141	-0.378202
C44	C	1.179232	0.121859	0.121798
C45	C	0.720220	-0.327869	-0.328087
C46	C	1.220220	0.172131	0.171913
C47	C	0.802199	-0.327863	-0.328079
C48	C	1.302199	0.172137	0.171921
C49	C	0.549350	-0.327884	-0.328106
C50	C	1.049350	0.172116	0.171894
C51	C	0.467365	-0.327890	-0.328112
C52	C	0.967365	0.172110	0.171888
C53	C	0.467380	-0.428424	-0.428335
C54	C	0.967380	0.071576	0.071665
C55	C	0.549359	-0.428419	-0.428327
C56	C	1.049359	0.071581	0.071673
C57	C	0.590341	-0.378147	-0.378210
C58	C	1.090341	0.121853	0.121790
C59	C	1.134314	-0.582084	-0.378163
C60	C	1.634314	-0.082084	0.121837
C61	C	1.134353	-0.669334	-0.378176
C62	C	1.634353	-0.169334	0.121824
C63	C	1.184598	-0.710316	-0.328029
C64	C	1.684598	-0.210316	0.171971
C65	C	1.184637	-0.792296	-0.328049
C66	C	1.684637	-0.292296	0.171951
C67	C	1.134425	-0.833293	-0.378212
C68	C	1.634425	-0.333293	0.121788
C69	C	1.084178	-0.792305	-0.428364
C70	C	1.584178	-0.292305	0.071636
C71	C	1.084144	-0.710327	-0.428348
C72	C	1.584144	-0.210327	0.071652
C73	C	1.084250	-0.963175	-0.428394
C74	C	1.584250	-0.463175	0.071606
C75	C	1.084283	-1.045160	-0.428410
C76	C	1.584283	-0.545160	0.071590
C77	C	1.184743	-1.045145	-0.328096
C78	C	1.684743	-0.545145	0.171904
C79	C	1.184709	-0.963166	-0.328079
C80	C	1.684709	-0.463166	0.171921
C81	C	1.134461	-0.922184	-0.378230
C82	C	1.634461	-0.422184	0.121770
C83	C	1.339134	-0.378151	-0.378216
C84	C	1.839134	0.121849	0.121784
C85	C	1.426383	-0.378157	-0.378226
C86	C	1.926383	0.121843	0.121774
C87	C	1.134437	-0.378078	-0.582938
C88	C	1.634437	0.121922	-0.082938
C89	C	1.134457	-0.378054	-0.670188
C90	C	1.634457	0.121946	-0.170188
C91	C	1.134487	-0.173392	-0.378243
C92	C	1.634487	0.326608	0.121757
C93	C	1.134528	-0.086142	-0.378263
C94	C	1.634528	0.413858	0.121737
C95	C	1.184689	-0.327847	-0.711197
C96	C	1.684689	0.172153	-0.211197
C97	C	1.184698	-0.327821	-0.793178
C98	C	1.684698	0.172179	-0.293178
C99	C	1.134479	-0.378006	-0.834148
C100	C	1.634479	0.121994	-0.334148
C101	C	1.084242	-0.428214	-0.793133
C102	C	1.584242	0.071786	-0.293133
C103	C	1.084229	-0.428236	-0.711154
C104	C	1.584229	0.071764	-0.211154
C105	C	1.084274	-0.428167	-0.964003
C106	C	1.584274	0.071833	-0.464003
C107	C	1.084288	-0.428147	-1.045988
C108	C	1.584288	0.071853	-0.545988
C109	C	1.184742	-0.327752	-1.046027
C110	C	1.684742	0.172248	-0.546027
C111	C	1.184730	-0.327774	-0.964048
C112	C	1.684730	0.172226	-0.464048
C113	C	1.134493	-0.377984	-0.923039
C114	C	1.634493	0.122016	-0.423039
C115	C	1.134387	-0.378137	-0.174246
C116	C	1.634387	0.121863	0.325754
C117	C	1.134519	-0.377941	-0.086997
C118	C	1.634519	0.122059	0.413003
H119	H	0.582737	-0.469352	-0.469122
H120	H	1.082737	0.030648	0.030878
H121	H	0.686866	-0.469337	-0.469114
H122	H	1.186866	0.030663	0.030886
H123	H	0.835565	-0.286927	-0.287275
H124	H	1.335565	0.213073	0.212725
N125	N	1.238875	-0.273678	-0.837420
N126	N	1.738875	0.226322	-0.337420
H127	H	1.206994	-0.237291	-0.871434
H128	H	1.706994	0.262709	-0.371434
H129	H	1.270684	-0.241941	-0.798986
H130	H	1.770684	0.258059	-0.298986
H131	H	1.043318	-0.469111	-0.677766
H132	H	1.543318	0.030889	-0.177766
N133	N	0.846427	-0.482613	-0.482338
N134	N	1.346427	0.017387	0.017662
H135	H	0.880411	-0.518948	-0.450368
H136	H	1.380411	-0.018948	0.049632
H137	H	0.807973	-0.514403	-0.514077
H138	H	1.307973	-0.014403	-0.014077
N139	N	0.676009	-0.273661	-0.274035
N140	N	1.176009	0.226339	0.225965
H141	H	0.690258	-0.285787	-0.217931
H142	H	1.190258	0.214213	0.282069
H143	H	0.690317	-0.217610	-0.286389
H144	H	1.190317	0.282390	0.213611
N145	N	0.423185	-0.482649	-0.482389
N146	N	0.923185	0.017351	0.017611
H147	H	0.365030	-0.475025	-0.474795
H148	H	0.865030	0.024975	0.025205
H149	H	0.437545	-0.470507	-0.538471
H150	H	0.937545	0.029493	-0.038471
N151	N	1.029952	-0.666115	-0.482430
N152	N	1.529952	-0.166115	0.017570
H153	H	1.042116	-0.680332	-0.538531
H154	H	1.542116	-0.180332	-0.038531
H155	H	0.973899	-0.680451	-0.470125
H156	H	1.473899	-0.180451	0.029875
H157	H	0.433988	-0.286953	-0.287321
H158	H	0.933988	0.213047	0.212679
N159	N	1.030020	-0.836526	-0.482465
N160	N	1.530020	-0.336526	0.017535
H161	H	0.973936	-0.822310	-0.470219
H162	H	1.473936	-0.322310	0.029781
H163	H	1.042239	-0.822194	-0.538539
H164	H	1.542239	-0.322194	-0.038539
N165	N	1.238886	-0.273645	-0.919851
N166	N	1.738886	0.226355	-0.419851
H167	H	1.275240	-0.305558	-0.885834
H168	H	1.775240	0.194442	-0.385834
H169	H	1.270659	-0.241840	-0.958313
H170	H	1.770659	0.258160	-0.458313
H171	H	1.225645	-0.286868	-1.079420
H172	H	1.725645	0.213132	-0.579420
N173	N	0.593557	-0.273669	-0.274049
N174	N	1.093557	0.226331	0.225951
H175	H	0.627597	-0.237329	-0.306010
H176	H	1.127597	0.262671	0.193990
H177	H	0.555100	-0.241882	-0.242315
H178	H	1.055100	0.258118	0.257685
N179	N	1.030125	-0.482273	-1.090180
N180	N	1.530125	0.017727	-0.590180
H181	H	0.998295	-0.514080	-1.051764
H182	H	1.498295	-0.014080	-0.551764
H183	H	0.993825	-0.450304	-1.124198
H184	H	1.493825	0.049696	-0.624198
N185	N	1.030088	-0.482317	-0.919770
N186	N	1.530088	0.017683	-0.419770
H187	H	0.998278	-0.514108	-0.958162
H188	H	1.498278	-0.014108	-0.458162
H189	H	1.062019	-0.518654	-0.885752
H190	H	1.562019	-0.018654	-0.385752
N191	N	1.238753	-0.666100	-0.273921
N192	N	1.738753	-0.166100	0.226079
H193	H	1.270590	-0.704505	-0.242159
H194	H	1.770590	-0.204505	0.257841
H195	H	1.275047	-0.632034	-0.305902
H196	H	1.775047	-0.132034	0.194098
N197	N	1.030083	-0.482348	-0.837321
N198	N	1.530083	0.017652	-0.337321
H199	H	0.998259	-0.514156	-0.798900
H200	H	1.498259	-0.014156	-0.298900
H201	H	0.993777	-0.450386	-0.871339
H202	H	1.493777	0.049614	-0.371339
N203	N	1.238827	-0.836500	-0.273961
N204	N	1.738827	-0.336500	0.226039
H205	H	1.294900	-0.822175	-0.286196
H206	H	1.794900	-0.322175	0.213804
H207	H	1.226590	-0.822268	-0.217883
H208	H	1.726590	-0.322268	0.282117
N209	N	1.238866	-0.918945	-0.273978
N210	N	1.738866	-0.418945	0.226022
H211	H	1.270707	-0.957345	-0.242213
H212	H	1.770707	-0.457345	0.257787
H213	H	1.275156	-0.884882	-0.305965
H214	H	1.775156	-0.384882	0.194035
N215	N	1.030130	-1.089377	-0.482518
N216	N	1.530130	-0.589377	0.017482
H217	H	1.062029	-1.123342	-0.518923
H218	H	1.562029	-0.623342	-0.018923
H219	H	0.993794	-1.123396	-0.450535
H220	H	1.493794	-0.623396	0.049465
N221	N	1.238941	-1.089341	-0.274002
N222	N	1.738941	-0.589341	0.225998
H223	H	1.231349	-1.147495	-0.281626
H224	H	1.731349	-0.647495	0.218374
H225	H	1.294990	-1.074953	-0.286265
H226	H	1.794990	-0.574953	0.213735
H227	H	1.043335	-0.929811	-0.469235
H228	H	1.543335	-0.429811	0.030765
H229	H	1.225585	-0.286983	-0.677845
H230	H	1.725585	0.213017	-0.177845
