data_functionalizedCrystal
_audit_creation_method	'MofGen! by Chris Wilmer'
_symmetry_space_group_name_H-M	'P1'
_symmetry_Int_Tables_number	1
_symmetry_cell_setting	triclinic
loop_
_symmetry_equiv_pos_as_xyz
  x,y,z
_cell_length_a	19.077105
_cell_length_b	16.959454
_cell_length_c	16.959455
_cell_angle_alpha	90.005969
_cell_angle_beta	92.303322
_cell_angle_gamma	87.716588
loop_
_atom_site_label
_atom_site_type_symbol
_atom_site_fract_x
_atom_site_fract_y
_atom_site_fract_z
Zn1	Zn	1.075912	-0.363466	0.495441
Zn2	Zn	1.075861	-0.495608	0.363268
Zn3	Zn	0.958241	-0.358130	0.357973
Zn4	Zn	0.958192	-0.490285	0.490101
O5	O	1.017052	-0.426872	0.426696
O6	O	1.174396	-0.385456	0.482359
O7	O	1.060257	-0.477366	0.251955
O8	O	0.973893	-0.248229	0.376227
O9	O	1.174358	-0.482540	0.385252
O10	O	1.060345	-0.252149	0.477224
O11	O	0.973843	-0.376362	0.248064
O12	O	0.859744	-0.371200	0.371049
O13	O	0.973809	-0.473467	0.601420
O14	O	0.859708	-0.468293	0.468123
O15	O	1.060297	-0.380294	0.605343
O16	O	1.060210	-0.605511	0.380075
O17	O	0.973759	-0.601600	0.473258
C18	C	0.834189	-0.418591	0.418432
C19	C	0.755960	-0.415067	0.414916
C20	C	0.719207	-0.464039	0.463726
C21	C	0.645702	-0.460717	0.460426
C22	C	0.608951	-0.408427	0.408311
C23	C	0.645709	-0.359450	0.359499
C24	C	0.719212	-0.362768	0.362804
C25	C	0.389119	-0.393071	0.393020
C26	C	0.315610	-0.389758	0.389717
C27	C	0.315608	-0.491025	0.490645
C28	C	0.389113	-0.494341	0.493942
C29	C	0.425865	-0.445361	0.445133
N30	N	0.533817	-0.405033	0.404935
N31	N	0.500997	-0.448753	0.448514
C32	C	1.016993	-0.632236	0.426680
C33	C	1.017032	-0.720094	0.426702
C34	C	0.972102	-1.089567	0.475214
C35	C	1.062197	-1.093583	0.378267
C36	C	1.062173	-1.011036	0.378259
C37	C	1.017111	-0.967751	0.426728
C38	C	0.972075	-1.007012	0.475205
C39	C	1.107203	-0.971768	0.329776
C40	C	1.107180	-0.889216	0.329765
C41	C	1.062122	-0.845929	0.378239
C42	C	1.017084	-0.885196	0.426719
C43	C	0.972023	-0.841911	0.475188
C44	C	0.926988	-0.881176	0.523673
C45	C	0.927016	-0.963726	0.523679
C46	C	1.062093	-0.763380	0.378233
C47	C	0.971995	-0.759356	0.475180
C48	C	1.200628	-0.435187	0.434992
C49	C	1.278858	-0.438730	0.438527
C50	C	1.017054	-0.426882	0.632864
C51	C	1.017054	-0.426886	0.720721
C52	C	1.017130	-0.220708	0.426730
C53	C	1.017163	-0.132853	0.426745
C54	C	0.972025	-0.475399	0.759954
C55	C	1.062080	-0.378371	0.764041
C56	C	1.062080	-0.378369	0.846587
C57	C	1.017051	-0.426883	0.885820
C58	C	0.972022	-0.475398	0.842507
C59	C	1.107103	-0.329850	0.889906
C60	C	1.107104	-0.329846	0.972457
C61	C	1.062077	-0.378364	1.011691
C62	C	1.017047	-0.426882	0.968373
C63	C	0.972018	-0.475396	1.007606
C64	C	0.926991	-0.523918	0.964290
C65	C	0.926996	-0.523916	0.881742
C66	C	1.062073	-0.378366	1.094240
C67	C	0.972015	-0.475394	1.090160
C68	C	1.017044	-0.426881	1.221329
C69	C	1.017044	-0.426879	1.133473
H70	H	0.419031	-0.536923	0.536378
Cl71	Cl	1.163668	-0.268820	0.840579
Cl72	Cl	1.118658	-0.317353	1.148690
Cl73	Cl	0.915424	-0.536397	0.705502
H74	H	0.285690	-0.347168	0.347284
Cl75	Cl	0.599502	-0.522285	0.521790
Cl76	Cl	1.118661	-0.317357	0.714718
H77	H	0.285678	-0.530900	0.530384
Cl78	Cl	1.163800	-0.839862	0.268821
Cl79	Cl	1.163724	-0.268867	1.026905
H80	H	1.143884	-1.007017	0.290309
Cl81	Cl	0.435311	-0.331493	0.331662
Cl82	Cl	0.765401	-0.529782	0.529241
H83	H	0.615781	-0.316871	0.317070
H84	H	0.749136	-0.322886	0.323062
Cl85	Cl	0.870390	-0.584903	0.827282
Cl86	Cl	0.870381	-0.584899	1.013621
Cl87	Cl	0.915493	-1.138926	0.536167
H88	H	0.935303	-0.724118	0.514653
Cl89	Cl	1.118843	-1.148000	0.317338
H90	H	1.098756	-0.731414	0.338753
H91	H	0.890295	-0.845923	0.563134
Cl92	Cl	0.915407	-0.536391	1.139475
H93	H	0.890351	-0.995703	0.563152
