data_functionalizedCrystal
_audit_creation_method	'MofGen! by Chris Wilmer'
_symmetry_space_group_name_H-M	'P1'
_symmetry_Int_Tables_number	1
_symmetry_cell_setting	triclinic
loop_
_symmetry_equiv_pos_as_xyz
  x,y,z
_cell_length_a	10.723023
_cell_length_b	23.532357
_cell_length_c	9.198806
_cell_angle_alpha	89.991292
_cell_angle_beta	89.996191
_cell_angle_gamma	83.647920
loop_
_atom_site_label
_atom_site_type_symbol
_atom_site_fract_x
_atom_site_fract_y
_atom_site_fract_z
O1	O	1.654669	0.079870	-0.120908
O2	O	1.291275	0.087516	-0.120914
O3	O	1.483963	0.000831	-0.120881
O4	O	1.461981	0.166556	-0.120941
O5	O	1.483947	0.000831	0.120904
O6	O	1.291260	0.087516	0.120871
O7	O	1.654654	0.079870	0.120877
Cu8	Cu	1.472955	0.083693	0.142951
Cu9	Cu	1.472973	0.083693	-0.142988
O10	O	1.461966	0.166555	0.120844
C11	C	1.244785	0.086960	-0.000022
C12	C	1.106284	0.085295	-0.000022
C13	C	1.483405	-0.020389	0.000016
C14	C	1.481752	-0.083619	0.000030
C15	C	1.044543	0.084553	-0.125275
C16	C	0.901394	0.082833	-0.125278
C17	C	1.471383	-0.475697	-0.131846
C18	C	1.469811	-0.535107	-0.131854
O19	O	1.468963	-0.565829	-0.243942
N20	N	1.469024	-0.564823	-0.000059
C21	C	1.469795	-0.535126	0.131753
O22	O	1.468980	-0.565857	0.243854
C23	C	1.471357	-0.475717	0.131760
C24	C	1.472158	-0.446004	-0.000044
C25	C	1.472181	-0.445984	-0.263639
C26	C	1.473755	-0.386579	-0.263630
C27	C	1.474530	-0.356886	-0.131828
C28	C	1.473731	-0.386599	-0.000035
C29	C	1.472120	-0.446021	0.263571
C30	C	1.473681	-0.386607	0.263566
C31	C	1.474481	-0.356895	0.131762
C32	C	1.476080	-0.297501	0.131776
N33	N	1.476867	-0.267785	-0.000019
C34	C	1.476092	-0.297477	-0.131821
C35	C	1.466512	-0.659889	0.131729
C36	C	1.464958	-0.719297	0.131724
C37	C	1.464972	-0.719274	-0.131884
C38	C	1.466535	-0.659865	-0.131878
C39	C	1.467299	-0.630173	-0.000066
C40	C	1.479398	-0.172722	-0.131793
C41	C	1.480977	-0.113311	-0.131772
C42	C	1.480956	-0.113340	0.131835
C43	C	1.479384	-0.172745	0.131815
C44	C	1.478601	-0.202435	-0.000010
O45	O	1.476924	-0.266741	0.243807
O46	O	1.476891	-0.266738	-0.243904
C47	C	1.701143	0.080427	-0.000019
C48	C	1.839645	0.082091	-0.000027
C49	C	1.462524	0.187776	-0.000056
C50	C	1.464177	0.251005	-0.000079
N51	N	1.472952	0.083693	0.344065
N52	N	1.472987	0.083689	-0.344102
C53	C	1.553861	0.047135	0.416276
C54	C	1.553880	0.047133	0.583688
H55	H	0.848300	0.082194	-0.232511
O56	O	1.035700	0.084624	0.141901
H57	H	0.987825	0.045224	0.148320
H58	H	1.467184	-0.635677	-0.239204
O59	O	1.114902	0.085390	-0.267318
H60	H	1.162597	0.124845	-0.273550
H61	H	1.474285	-0.362434	0.370905
H62	H	0.892733	0.082726	0.107211
O63	O	1.381219	0.125154	0.573673
H64	H	1.283955	0.117629	0.602845
H65	H	1.481632	-0.089122	-0.239107
O66	O	1.478542	-0.204740	-0.273971
H67	H	1.479367	-0.174090	-0.365602
O68	O	1.474585	-0.354533	-0.405790
H69	H	1.473762	-0.385167	-0.497428
O70	O	1.381217	0.125160	0.426316
H71	H	1.320778	0.101000	0.495698
O72	O	1.471315	-0.478004	-0.405808
H73	H	1.472128	-0.447353	-0.497435
O74	O	1.481797	-0.081309	0.273990
H75	H	1.397449	-0.049498	0.280287
H76	H	1.623112	0.015836	0.354161
O77	O	1.464104	-0.751298	-0.274058
H78	H	1.548433	-0.783119	-0.280383
O79	O	1.464107	-0.751344	0.273882
H80	H	1.464901	-0.720709	0.365525
O81	O	1.645641	0.005676	0.665944
H82	H	1.742908	0.013207	0.636796
O83	O	1.467370	-0.627866	0.273904
H84	H	1.466576	-0.658516	0.365538
O85	O	1.471251	-0.478060	0.405731
H86	H	1.386480	-0.461911	0.468906
O87	O	1.478525	-0.204799	0.273969
H88	H	1.479323	-0.174168	0.365619
