data_functionalizedCrystal
_audit_creation_method	'MofGen! by Chris Wilmer'
_symmetry_space_group_name_H-M	'P1'
_symmetry_Int_Tables_number	1
_symmetry_cell_setting	triclinic
loop_
_symmetry_equiv_pos_as_xyz
  x,y,z
_cell_length_a	15.944499
_cell_length_b	15.944493
_cell_length_c	16.176319
_cell_angle_alpha	89.999072
_cell_angle_beta	89.989994
_cell_angle_gamma	83.476327
loop_
_atom_site_label
_atom_site_type_symbol
_atom_site_fract_x
_atom_site_fract_y
_atom_site_fract_z
O1	O	1.114532	0.108130	-0.068785
O2	O	0.869974	0.121532	-0.068775
O3	O	0.998957	-0.007448	-0.068787
O4	O	0.985549	0.237111	-0.068773
O5	O	0.998939	-0.007456	0.068706
O6	O	0.869956	0.121524	0.068719
O7	O	1.114514	0.108122	0.068708
Cu8	Cu	0.992233	0.114822	0.081268
Cu9	Cu	0.992254	0.114832	-0.081334
O10	O	0.985531	0.237102	0.068720
C11	C	0.838670	0.120979	-0.000027
C12	C	0.745422	0.119334	-0.000023
C13	C	0.453871	0.194269	-0.000031
C14	C	0.514917	0.155320	-0.067826
C15	C	0.409787	0.113358	-0.000043
C16	C	0.514885	0.155290	0.067731
C17	C	0.574695	0.116299	-0.000032
C18	C	0.469605	0.074387	-0.067894
C19	C	0.469567	0.074368	0.067724
C20	C	0.530595	0.035361	-0.000087
C21	C	0.314787	0.111666	-0.000050
C22	C	0.669694	0.117984	-0.000031
C23	C	0.998400	-0.038747	-0.000044
C24	C	0.996757	-0.131995	-0.000054
C25	C	1.072679	-0.367769	-0.000042
C26	C	1.031746	-0.418326	-0.067831
C27	C	0.993713	-0.302716	-0.000044
C28	C	1.031710	-0.418310	0.067726
C29	C	0.990778	-0.467625	-0.000031
C30	C	0.952801	-0.352044	-0.067889
C31	C	0.952776	-0.352025	0.067729
C32	C	0.911785	-0.402548	-0.000076
C33	C	0.995405	-0.207716	-0.000053
C34	C	0.989079	-0.562622	-0.000028
C35	C	1.145818	0.108675	-0.000042
C36	C	1.239066	0.110320	-0.000050
C37	C	0.986088	0.268401	-0.000024
C38	C	0.987731	0.361650	-0.000019
N39	N	0.992225	0.114815	0.195633
N40	N	0.992270	0.114833	-0.195699
C41	C	1.049356	0.057726	0.238891
C42	C	1.049360	0.057725	0.325438
C43	C	0.992237	0.114818	0.368725
C44	C	0.935100	0.171910	0.325461
C45	C	0.935092	0.171906	0.238915
C46	C	0.935129	0.171926	0.674489
C47	C	0.935142	0.171927	0.761040
C48	C	1.049396	0.057744	0.761012
C49	C	1.049389	0.057741	0.674467
C50	C	0.992249	0.114829	0.631210
C51	C	0.992244	0.114828	0.537365
C52	C	0.992245	0.114823	0.462568
H53	H	0.563787	-0.031847	-0.000127
Cl54	Cl	0.806689	-0.426412	-0.000126
H55	H	1.095880	0.011238	0.360659
H56	H	1.095920	0.011257	0.796241
H57	H	1.140699	-0.352153	-0.000113
H58	H	0.888569	0.218393	0.203695
Cl59	Cl	0.438788	0.021596	-0.156480
Cl60	Cl	0.901357	-0.307539	-0.156470
Cl61	Cl	0.402386	0.297937	-0.000123
Cl62	Cl	0.901339	-0.307284	0.156223
Cl63	Cl	0.863301	0.243695	0.620114
Cl64	Cl	1.121176	-0.014049	0.184483
Cl65	Cl	0.438503	0.021570	0.156212
Cl66	Cl	0.545938	0.208159	-0.156313
Cl67	Cl	0.545861	0.208141	0.156217
H68	H	1.065068	-0.447250	0.125033
Cl69	Cl	1.121205	-0.014033	0.620052
Cl70	Cl	0.863323	0.243705	0.815457
Cl71	Cl	1.083243	-0.463024	-0.156319
Cl72	Cl	0.863282	0.243681	0.379876
