data_functionalizedCrystal
_audit_creation_method	'MofGen! by Chris Wilmer'
_symmetry_space_group_name_H-M	'P1'
_symmetry_Int_Tables_number	1
_symmetry_cell_setting	triclinic
loop_
_symmetry_equiv_pos_as_xyz
  x,y,z
_cell_length_a	12.645331
_cell_length_b	12.759399
_cell_length_c	12.759393
_cell_angle_alpha	89.969094
_cell_angle_beta	90.022936
_cell_angle_gamma	89.985905
loop_
_atom_site_label
_atom_site_type_symbol
_atom_site_fract_x
_atom_site_fract_y
_atom_site_fract_z
Zn1	Zn	1.620753	0.418244	0.594073
Zn2	Zn	2.120753	0.918244	1.094073
Zn3	Zn	1.620642	0.593960	0.418392
Zn4	Zn	2.120642	1.093960	0.918392
Zn5	Zn	1.443467	0.418292	0.418402
Zn6	Zn	1.943467	0.918292	0.918402
Zn7	Zn	1.443457	0.593878	0.594023
Zn8	Zn	1.943457	1.093878	1.094023
O9	O	1.532080	0.506094	0.506223
O10	O	2.032080	1.006094	1.006223
O11	O	1.769085	0.441567	0.570785
O12	O	2.269085	0.941567	1.070785
O13	O	1.597097	0.570711	0.271372
O14	O	2.097097	1.070711	0.771372
O15	O	1.467035	0.271265	0.441730
O16	O	1.967035	0.771265	0.941730
O17	O	1.769004	0.570664	0.441713
O18	O	2.269004	1.070664	0.941713
O19	O	1.597286	0.271229	0.570795
O20	O	2.097286	0.771229	1.070795
O21	O	1.466927	0.441649	0.271380
O22	O	1.966927	0.941649	0.771380
O23	O	1.295118	0.441570	0.441682
O24	O	1.795118	0.941570	0.941682
O25	O	1.467018	0.570526	0.741051
O26	O	1.967018	1.070526	1.241051
O27	O	1.295111	0.570573	0.570710
O28	O	1.795111	1.070573	1.070710
O29	O	1.597277	0.441488	0.741088
O30	O	2.097277	0.941488	1.241088
O31	O	1.597087	0.740970	0.441665
O32	O	2.097087	1.240970	0.941665
O33	O	1.466911	0.740910	0.570700
O34	O	1.966911	1.240910	1.070700
C35	C	1.532015	0.779061	0.506199
C36	C	2.032015	1.279061	1.006199
C37	C	1.532084	0.895838	0.506224
C38	C	2.032084	1.395838	1.006224
C39	C	1.256650	0.506069	0.506192
C40	C	1.756650	1.006069	1.006192
C41	C	1.138820	0.506083	0.506204
C42	C	1.638820	1.006083	1.006204
C43	C	1.532159	0.505993	0.780256
C44	C	2.032159	1.005993	1.280256
C45	C	1.532193	0.505950	0.897033
C46	C	2.032193	1.005950	1.397033
C47	C	0.971225	0.424554	0.425480
C48	C	1.471225	0.924554	0.925480
C49	C	1.093785	0.424765	0.425125
C50	C	1.593785	0.924765	0.925125
C51	C	1.094305	0.616761	0.475958
C52	C	1.594305	1.116761	0.975958
C53	C	0.971706	0.616316	0.475408
C54	C	1.471706	1.116316	0.975408
C55	C	0.971670	0.477988	0.617485
C56	C	1.471670	0.977988	1.117485
C57	C	1.094275	0.475515	0.616867
C58	C	1.594275	0.975515	1.116867
C59	C	1.808585	0.506119	0.506254
C60	C	2.308585	1.006119	1.006254
C61	C	1.926415	0.506130	0.506267
C62	C	2.426415	1.006130	1.006267
C63	C	1.532174	0.232060	0.506270
C64	C	2.032174	0.732060	1.006270
C65	C	1.532214	0.115284	0.506290
C66	C	2.032214	0.615284	1.006290
C67	C	1.599944	0.950696	0.439111
C68	C	2.099944	1.450696	0.939111
C69	C	1.600012	1.060420	0.439146
C70	C	2.100012	1.560420	0.939146
C71	C	1.464351	1.060418	0.573409
C72	C	1.964351	1.560418	1.073409
C73	C	1.464289	0.950696	0.573379
C74	C	1.964289	1.450696	1.073379
C75	C	1.532062	0.506118	0.233255
C76	C	2.032062	1.006118	0.733255
C77	C	1.532233	0.505865	0.116479
C78	C	2.032233	1.005865	0.616479
C79	C	1.600023	0.438749	0.951916
C80	C	2.100023	0.938749	1.451916
C81	C	1.600041	0.438704	1.061640
C82	C	2.100041	0.938704	1.561640
C83	C	1.464395	0.573069	1.061589
C84	C	1.964395	1.073069	1.561589
C85	C	1.464373	0.573108	0.951866
C86	C	1.964373	1.073108	1.451866
H87	H	0.941757	0.342236	0.444235
H88	H	1.441757	0.842236	0.944235
H89	H	0.940377	0.442950	0.343548
H90	H	1.440377	0.942950	0.843548
N91	N	0.933763	0.647914	0.367705
N92	N	1.433763	1.147914	0.867705
H93	H	0.889921	0.589480	0.336699
H94	H	1.389921	1.089480	0.836699
H95	H	0.889319	0.713449	0.373299
H96	H	1.389319	1.213449	0.873299
H97	H	1.655273	1.105080	0.384498
H98	H	2.155273	1.605080	0.884498
N99	N	1.133664	0.316054	0.450223
N100	N	1.633664	0.816054	0.950223
H101	H	1.107270	0.294225	0.521673
H102	H	1.607270	0.794225	1.021673
H103	H	1.106889	0.265187	0.395713
H104	H	1.606889	0.765187	0.895713
H105	H	1.409152	1.105097	0.628083
H106	H	1.909152	1.605097	1.128083
N107	N	1.132580	0.449397	0.315956
N108	N	1.632580	0.949397	0.815956
H109	H	1.070040	0.460168	0.267878
H110	H	1.570040	0.960168	0.767878
H111	H	1.176790	0.515284	0.317686
H112	H	1.676790	1.015284	0.817686
H113	H	1.123376	0.394069	0.639674
H114	H	1.623376	0.894069	1.139674
N115	N	0.932431	0.699546	0.549948
N116	N	1.432431	1.199546	1.049948
H117	H	0.994762	0.736366	0.583014
H118	H	1.494762	1.236366	1.083014
H119	H	0.888123	0.752086	0.510181
H120	H	1.388123	1.252086	1.010181
N121	N	1.391085	0.891527	0.645767
N122	N	1.891085	1.391527	1.145767
H123	H	1.341958	0.846076	0.603011
H124	H	1.841958	1.346076	1.103011
H125	H	1.434191	0.845990	0.694467
H126	H	1.934191	1.345990	1.194467
N127	N	1.391215	0.645601	0.892666
N128	N	1.891215	1.145601	1.392666
H129	H	1.401491	0.635432	0.814837
H130	H	1.901491	1.135432	1.314837
H131	H	1.315513	0.629235	0.911831
H132	H	1.815513	1.129235	1.411831
H133	H	1.123477	0.679166	0.532953
H134	H	1.623477	1.179166	1.032953
H135	H	1.124961	0.641036	0.395525
H136	H	1.624961	1.141036	0.895525
N137	N	0.930740	0.372953	0.653931
N138	N	1.430740	0.872953	1.153931
H139	H	0.882440	0.342547	0.598709
H140	H	1.382440	0.842547	1.098709
H141	H	0.992242	0.323896	0.666024
H142	H	1.492242	0.823896	1.166024
H143	H	1.124936	0.530596	0.680279
H144	H	1.624936	1.030596	1.180279
H145	H	1.655149	0.906033	0.384431
H146	H	2.155149	1.406033	0.884431
N147	N	1.673167	0.366317	0.892771
N148	N	2.173167	0.866317	1.392771
H149	H	1.716138	0.323738	0.944193
H150	H	2.216138	0.823738	1.444193
H151	H	1.630024	0.317708	0.847246
H152	H	2.130024	0.817708	1.347246
H153	H	1.655274	0.383980	1.106320
H154	H	2.155274	0.883980	1.606320
H155	H	0.942694	0.537404	0.677678
H156	H	1.442694	1.037404	1.177678
N157	N	1.391233	0.645485	1.120731
N158	N	1.891233	1.145485	1.620731
H159	H	1.401535	0.635261	1.198568
H160	H	1.901535	1.135261	1.698568
H161	H	1.407683	0.720535	1.101549
H162	H	1.907683	1.220535	1.601549
