data_functionalizedCrystal
_audit_creation_method	'MofGen! by Chris Wilmer'
_symmetry_space_group_name_H-M	'P1'
_symmetry_Int_Tables_number	1
_symmetry_cell_setting	triclinic
loop_
_symmetry_equiv_pos_as_xyz
  x,y,z
_cell_length_a	16.992694
_cell_length_b	16.992695
_cell_length_c	7.540329
_cell_angle_alpha	89.996072
_cell_angle_beta	90.002664
_cell_angle_gamma	90.668223
loop_
_atom_site_label
_atom_site_type_symbol
_atom_site_fract_x
_atom_site_fract_y
_atom_site_fract_z
O1	O	1.050849	0.166915	-0.147262
O2	O	1.550849	0.666915	0.352738
O3	O	0.822449	0.165084	-0.147314
O4	O	1.322449	0.665084	0.352686
O5	O	0.935733	0.051800	-0.147274
O6	O	1.435733	0.551800	0.352726
O7	O	0.937564	0.280200	-0.147302
O8	O	1.437564	0.780200	0.352698
O9	O	0.935726	0.051798	0.147691
O10	O	1.435726	0.551798	0.647691
O11	O	0.822442	0.165082	0.147651
O12	O	1.322442	0.665082	0.647651
O13	O	1.050842	0.166913	0.147703
O14	O	1.550842	0.666913	0.647703
Cu15	Cu	0.936641	0.165998	0.174610
Cu16	Cu	1.436641	0.665998	0.674610
Cu17	Cu	0.936650	0.166000	-0.174221
Cu18	Cu	1.436650	0.666000	0.325779
O19	O	0.937557	0.280198	0.147663
O20	O	1.437557	0.780198	0.647663
C21	C	0.793085	0.162727	0.000162
C22	C	1.293085	0.662727	0.500162
C23	C	0.705600	0.155699	0.000142
C24	C	1.205600	0.655699	0.500142
C25	C	0.659610	0.223517	0.000135
C26	C	1.159610	0.723517	0.500135
C27	C	0.577409	0.216908	0.000161
C28	C	1.077409	0.716908	0.500161
C29	C	0.541201	0.142480	0.000180
C30	C	1.041201	0.642480	0.500180
C31	C	0.587198	0.074657	0.000192
C32	C	1.087198	0.574657	0.500192
C33	C	0.669397	0.081267	0.000180
C34	C	1.169397	0.581267	0.500180
C35	C	0.295886	0.115086	0.000231
C36	C	0.795886	0.615086	0.500231
C37	C	0.213681	0.108481	0.000238
C38	C	0.713681	0.608481	0.500238
C39	C	0.203898	0.250732	0.000210
C40	C	0.703898	0.750732	0.500210
C41	C	0.286099	0.257336	0.000187
C42	C	0.786099	0.757336	0.500187
C43	C	0.332089	0.189512	0.000208
C44	C	0.832089	0.689512	0.500208
N45	N	0.457178	0.135723	0.000200
N46	N	0.957178	0.635723	0.500200
N47	N	0.416110	0.196270	0.000201
N48	N	0.916110	0.696270	0.500201
C49	C	0.933374	0.022439	0.000208
C50	C	1.433374	0.522439	0.500208
C51	C	0.926345	-0.065046	0.000206
C52	C	1.426345	0.434954	0.500206
C53	C	0.994163	-0.111037	0.000223
C54	C	1.494163	0.388963	0.500223
C55	C	0.987554	-0.193238	0.000205
C56	C	1.487554	0.306762	0.500205
C57	C	0.913127	-0.229446	0.000182
C58	C	1.413127	0.270554	0.500182
C59	C	0.845303	-0.183449	0.000159
C60	C	1.345303	0.316551	0.500159
C61	C	0.851913	-0.101250	0.000165
C62	C	1.351913	0.398750	0.500165
C63	C	0.885732	-0.474760	0.000151
C64	C	1.385732	0.025240	0.500151
C65	C	0.879127	-0.556966	0.000151
C66	C	1.379127	-0.056966	0.500151
C67	C	1.021379	-0.566749	0.000193
C68	C	1.521379	-0.066749	0.500193
C69	C	1.027982	-0.484547	0.000209
C70	C	1.527982	0.015453	0.500209
C71	C	0.960159	-0.438558	0.000177
C72	C	1.460159	0.061442	0.500177
N73	N	0.906369	-0.313468	0.000169
N74	N	1.406369	0.186532	0.500169
N75	N	0.966917	-0.354537	0.000178
N76	N	1.466917	0.145463	0.500178
C77	C	1.080205	0.169270	0.000223
C78	C	1.580205	0.669270	0.500223
C79	C	1.167690	0.176299	0.000231
C80	C	1.667690	0.676299	0.500231
C81	C	0.939917	0.309559	0.000178
C82	C	1.439917	0.809559	0.500178
C83	C	0.946945	0.397044	0.000168
C84	C	1.446945	0.897044	0.500168
N85	N	0.936641	0.165996	0.419958
N86	N	1.436641	0.665996	0.919958
N87	N	0.936656	0.165996	-0.419569
N88	N	1.436656	0.665996	0.080431
H89	H	0.689084	0.284124	0.000118
H90	H	1.189084	0.784124	0.500118
H91	H	1.042779	-0.230680	0.000223
H92	H	1.542779	0.269320	0.500223
N93	N	1.074441	-0.071991	0.000259
N94	N	1.574441	0.428009	0.500259
H95	H	1.080360	-0.038097	-0.109075
H96	H	1.580360	0.461903	0.390925
H97	H	1.080298	-0.038154	0.109684
H98	H	1.580298	0.461846	0.609684
N99	N	0.798847	-0.596019	0.000108
N100	N	1.298847	-0.096019	0.500108
H101	H	0.804954	-0.655070	0.000119
H102	H	1.304954	-0.155070	0.500119
H103	H	0.768936	-0.579517	0.109442
H104	H	1.268936	-0.079517	0.609442
N105	N	0.325137	0.337617	0.000178
N106	N	0.825137	0.837617	0.500178
H107	H	0.359029	0.343534	0.109514
H108	H	0.859029	0.843534	0.609514
H109	H	0.358975	0.343485	-0.109245
H110	H	0.858975	0.843485	0.390755
N111	N	0.345472	0.041930	0.000228
N112	N	0.845472	0.541930	0.500228
H113	H	0.379791	0.041498	-0.109119
H114	H	0.879791	0.541498	0.390881
H115	H	0.379751	0.041534	0.109641
H116	H	0.879751	0.541534	0.609641
N117	N	0.548140	-0.005616	0.000234
N118	N	1.048140	0.494384	0.500234
H119	H	0.514249	-0.011531	-0.109104
H120	H	1.014249	0.488469	0.390896
H121	H	0.589793	-0.047530	0.000312
H122	H	1.089793	0.452470	0.500312
N123	N	0.765025	-0.222495	0.000147
N124	N	1.265025	0.277505	0.500147
H125	H	0.735083	-0.206048	-0.109204
H126	H	1.235083	0.293952	0.390796
H127	H	0.771191	-0.281537	0.000222
H128	H	1.271191	0.218463	0.500222
H129	H	0.706842	0.026042	0.000184
H130	H	1.206842	0.526042	0.500184
H131	H	1.076596	-0.604202	0.000216
H132	H	1.576596	-0.104202	0.500216
H133	H	0.539966	0.272133	0.000153
H134	H	1.039966	0.772133	0.500153
N135	N	0.154296	0.323881	0.000190
N136	N	0.654296	0.823881	0.500190
H137	H	0.096729	0.308403	0.000202
H138	H	0.596729	0.808403	0.500202
H139	H	0.166533	0.356094	0.109531
H140	H	0.666533	0.856094	0.609531
H141	H	1.088589	-0.455073	0.000228
H142	H	1.588589	0.044927	0.500228
N143	N	0.812583	-0.425163	0.000124
N144	N	1.312583	0.074837	0.500124
H145	H	0.764433	-0.460576	0.000118
H146	H	1.264433	0.039424	0.500118
H147	H	0.812223	-0.390848	0.109471
H148	H	1.312223	0.109152	0.609471
H149	H	0.184203	0.047870	0.000252
H150	H	0.684203	0.547870	0.500252
H151	H	0.796688	-0.063804	0.000150
H152	H	1.296688	0.436196	0.500150
