data_functionalizedCrystal
_audit_creation_method	'MofGen! by Chris Wilmer'
_symmetry_space_group_name_H-M	'P1'
_symmetry_Int_Tables_number	1
_symmetry_cell_setting	triclinic
loop_
_symmetry_equiv_pos_as_xyz
  x,y,z
_cell_length_a	12.759401
_cell_length_b	21.295417
_cell_length_c	12.759393
_cell_angle_alpha	89.961905
_cell_angle_beta	89.979062
_cell_angle_gamma	90.032032
loop_
_atom_site_label
_atom_site_type_symbol
_atom_site_fract_x
_atom_site_fract_y
_atom_site_fract_z
Zn1	Zn	1.606151	-0.250553	-0.593965
Zn2	Zn	1.939484	0.082780	-0.260631
Zn3	Zn	2.272818	0.416114	0.072702
Zn4	Zn	1.605994	-0.355835	-0.418261
Zn5	Zn	1.939327	-0.022502	-0.084928
Zn6	Zn	2.272660	0.310831	0.248405
Zn7	Zn	1.430450	-0.250587	-0.418300
Zn8	Zn	1.763783	0.082747	-0.084966
Zn9	Zn	2.097116	0.416080	0.248367
Zn10	Zn	1.430393	-0.355791	-0.593899
Zn11	Zn	1.763726	-0.022458	-0.260565
Zn12	Zn	2.097060	0.310875	0.072768
O13	O	1.518247	-0.303192	-0.506106
O14	O	1.851580	0.030142	-0.172773
O15	O	2.184914	0.363475	0.160561
O16	O	1.753151	-0.264523	-0.570669
O17	O	2.086484	0.068810	-0.237335
O18	O	2.419818	0.402143	0.095998
O19	O	1.582665	-0.341906	-0.271245
O20	O	1.915998	-0.008573	0.062088
O21	O	2.249332	0.324760	0.395421
O22	O	1.453846	-0.162493	-0.441646
O23	O	1.787180	0.170841	-0.108312
O24	O	2.120513	0.504174	0.225021
O25	O	1.753035	-0.341874	-0.441580
O26	O	2.086369	-0.008540	-0.108247
O27	O	2.419702	0.324793	0.225086
O28	O	1.582933	-0.162468	-0.570706
O29	O	1.916267	0.170865	-0.237373
O30	O	2.249600	0.504198	0.095961
O31	O	1.453694	-0.264581	-0.271274
O32	O	1.787027	0.068753	0.062060
O33	O	2.120360	0.402086	0.395393
O34	O	1.283421	-0.264538	-0.441582
O35	O	1.616755	0.068795	-0.108248
O36	O	1.950088	0.402129	0.225085
O37	O	1.453750	-0.341799	-0.740929
O38	O	1.787083	-0.008465	-0.407595
O39	O	2.120417	0.324868	-0.074262
O40	O	1.283380	-0.341831	-0.570594
O41	O	1.616713	-0.008498	-0.237260
O42	O	1.950046	0.324835	0.096073
O43	O	1.582879	-0.264481	-0.740977
O44	O	1.916212	0.068853	-0.407644
O45	O	2.249545	0.402186	-0.074310
O46	O	1.582610	-0.443919	-0.441516
O47	O	1.915944	-0.110585	-0.108183
O48	O	2.249277	0.222748	0.225150
O49	O	1.453597	-0.443886	-0.570556
O50	O	1.786931	-0.110553	-0.237223
O51	O	2.120264	0.222780	0.096110
C52	C	1.245279	-0.303184	-0.506085
C53	C	1.578613	0.030149	-0.172752
C54	C	1.911946	0.363483	0.160581
C55	C	1.128503	-0.303196	-0.506101
C56	C	1.461836	0.030138	-0.172768
C57	C	1.795170	0.363471	0.160565
C58	C	1.518109	-0.466743	-0.506048
C59	C	1.851442	-0.133410	-0.172715
C60	C	2.184776	0.199923	0.160619
C61	C	1.518146	-0.536711	-0.506058
C62	C	1.851480	-0.203378	-0.172725
C63	C	2.184813	0.129955	0.160608
C64	C	1.073647	-0.343504	-0.573172
C65	C	1.406980	-0.010170	-0.239839
C66	C	1.740313	0.323163	0.093495
C67	C	0.963923	-0.343506	-0.573193
C68	C	1.297256	-0.010173	-0.239859
C69	C	1.630589	0.323161	0.093474
C70	C	0.963921	-0.262891	-0.439063
C71	C	1.297254	0.070442	-0.105730
C72	C	1.630587	0.403776	0.227603
C73	C	1.073643	-0.262886	-0.439048
C74	C	1.406976	0.070448	-0.105715
C75	C	1.740309	0.403781	0.227618
C76	C	1.585383	-0.569574	-0.438936
C77	C	1.918716	-0.236241	-0.105603
C78	C	2.252050	0.097093	0.227731
C79	C	1.585432	-0.635316	-0.438960
C80	C	1.918766	-0.301983	-0.105626
C81	C	2.252099	0.031350	0.227707
C82	C	1.518226	-0.668194	-0.506094
C83	C	1.851559	-0.334860	-0.172761
C84	C	2.184893	-0.001527	0.160572
C85	C	1.450985	-0.635323	-0.573230
C86	C	1.784318	-0.301990	-0.239896
C87	C	2.117651	0.031343	0.093437
C88	C	1.450945	-0.569582	-0.573212
C89	C	1.784278	-0.236249	-0.239878
C90	C	2.117611	0.097085	0.093455
N91	N	1.426319	-0.771460	-0.514097
N92	N	1.759652	-0.438127	-0.180763
N93	N	2.092986	-0.104794	0.152570
N94	N	1.426360	-0.833912	-0.514108
N95	N	1.759693	-0.500579	-0.180775
N96	N	2.093027	-0.167245	0.152559
C97	C	1.518344	-0.866268	-0.506155
C98	C	1.851677	-0.532935	-0.172821
C99	C	2.185010	-0.199602	0.160512
N100	N	1.610287	-0.833814	-0.498169
N101	N	1.943621	-0.500481	-0.164836
N102	N	2.276954	-0.167148	0.168497
N103	N	1.610245	-0.771357	-0.498153
N104	N	1.943578	-0.438024	-0.164820
N105	N	2.276912	-0.104690	0.168514
C106	C	1.518262	-0.739479	-0.506122
C107	C	1.851596	-0.406146	-0.172789
C108	C	2.184929	-0.072812	0.160545
C109	C	1.585640	-0.970417	-0.439054
C110	C	1.918973	-0.637083	-0.105721
C111	C	2.252306	-0.303750	0.227612
C112	C	1.585691	-1.036160	-0.439085
C113	C	1.919024	-0.702827	-0.105752
C114	C	2.252357	-0.369494	0.227581
C115	C	1.451233	-1.036166	-0.573350
C116	C	1.784567	-0.702833	-0.240017
C117	C	2.117900	-0.369499	0.093317
C118	C	1.451192	-0.970423	-0.573325
C119	C	1.784525	-0.637090	-0.239991
C120	C	2.117859	-0.303757	0.093342
C121	C	1.518393	-0.937553	-0.506171
C122	C	1.851727	-0.604219	-0.172838
C123	C	2.185060	-0.270886	0.160496
C124	C	1.792280	-0.303200	-0.506128
C125	C	2.125613	0.030134	-0.172794
C126	C	2.458947	0.363467	0.160539
C127	C	1.909057	-0.303203	-0.506137
C128	C	2.242390	0.030130	-0.172804
C129	C	2.575723	0.363463	0.160530
C130	C	1.518325	-0.303131	-0.780140
C131	C	1.851659	0.030202	-0.446806
C132	C	2.184992	0.363536	-0.113473
C133	C	1.518359	-0.303105	-0.896916
C134	C	1.851692	0.030228	-0.563583
C135	C	2.185026	0.363561	-0.230250
C136	C	1.518414	-0.139001	-0.506188
C137	C	1.851747	0.194332	-0.172854
C138	C	2.185080	0.527665	0.160479
C139	C	1.518485	-0.069033	-0.506222
C140	C	1.851818	0.264300	-0.172889
C141	C	2.185152	0.597634	0.160444
C142	C	1.585601	-0.262839	-0.951805
C143	C	1.918935	0.070494	-0.618472
C144	C	2.252268	0.403827	-0.285139
C145	C	1.585619	-0.262812	-1.061529
C146	C	1.918952	0.070521	-0.728196
C147	C	2.252286	0.403854	-0.394863
C148	C	1.451149	-0.343322	-1.061466
C149	C	1.784483	-0.009989	-0.728133
C150	C	2.117816	0.323344	-0.394799
C151	C	1.451127	-0.343346	-0.951744
C152	C	1.784460	-0.010013	-0.618411
C153	C	2.117794	0.323321	-0.285077
C154	C	1.518229	-0.303206	-0.233139
C155	C	1.851562	0.030127	0.100195
C156	C	2.184896	0.363460	0.433528
C157	C	1.518399	-0.303055	-0.116363
C158	C	1.851732	0.030279	0.216971
C159	C	2.185066	0.363612	0.550304
H160	H	1.118311	-0.376325	-0.627773
H161	H	1.451644	-0.042992	-0.294440
H162	H	1.784977	0.290342	0.038893
F163	F	0.905546	-0.386406	-0.644581
F164	F	1.238879	-0.053073	-0.311247
F165	F	1.572212	0.280261	0.022086
H166	H	1.640188	-0.662078	-0.384301
H167	H	1.973522	-0.328745	-0.050968
H168	H	2.306855	0.004588	0.282366
H169	H	1.396363	-0.376135	-0.907052
H170	H	1.729696	-0.042801	-0.573719
H171	H	2.063030	0.290532	-0.240385
H172	H	1.118308	-0.230058	-0.384431
H173	H	1.451641	0.103275	-0.051098
H174	H	1.784974	0.436608	0.282235
F175	F	0.905525	-0.219993	-0.367704
F176	F	1.238858	0.113340	-0.034370
F177	F	1.572192	0.446673	0.298963
H178	H	1.640105	-0.542812	-0.384258
H179	H	1.973438	-0.209479	-0.050925
H180	H	2.306772	0.123854	0.282408
F181	F	1.379463	-0.670315	-0.644683
F182	F	1.712796	-0.336981	-0.311350
F183	F	2.046130	-0.003648	0.021983
F184	F	1.379713	-1.071152	-0.644807
F185	F	1.713046	-0.737819	-0.311473
F186	F	2.046380	-0.404485	0.021860
F187	F	1.379379	-0.534606	-0.644655
F188	F	1.712712	-0.201273	-0.311322
F189	F	2.046046	0.132060	0.022011
F190	F	1.657159	-0.935431	-0.367584
F191	F	1.990493	-0.602097	-0.034251
F192	F	2.323826	-0.268764	0.299082
H193	H	1.640449	-1.062916	-0.384429
H194	H	1.973783	-0.729582	-0.051095
H195	H	2.307116	-0.396249	0.282238
H196	H	1.640373	-0.230023	-1.106215
H197	H	1.973706	0.103311	-0.772882
H198	H	2.307039	0.436644	-0.439548
H199	H	1.396437	-0.943665	-0.627977
H200	H	1.729770	-0.610332	-0.294644
H201	H	2.063104	-0.276998	0.038689
F202	F	1.657153	-0.220010	-0.893457
F203	F	1.990486	0.113323	-0.560124
F204	F	2.323819	0.446656	-0.226791
F205	F	1.379604	-0.386149	-1.119827
F206	F	1.712938	-0.052816	-0.786493
F207	F	2.046271	0.280518	-0.453160
