data_functionalizedCrystal
_audit_creation_method	'MofGen! by Chris Wilmer'
_symmetry_space_group_name_H-M	'P1'
_symmetry_Int_Tables_number	1
_symmetry_cell_setting	triclinic
loop_
_symmetry_equiv_pos_as_xyz
  x,y,z
_cell_length_a	10.967829
_cell_length_b	11.026644
_cell_length_c	9.482900
_cell_angle_alpha	101.364536
_cell_angle_beta	87.494390
_cell_angle_gamma	83.620527
loop_
_atom_site_label
_atom_site_type_symbol
_atom_site_fract_x
_atom_site_fract_y
_atom_site_fract_z
O1	O	0.492531	-1.652484	-0.244314
O2	O	0.992531	-1.152484	0.255686
O3	O	0.434759	-1.296433	-0.229837
O4	O	0.934759	-0.796433	0.270163
O5	O	0.289360	-1.475832	-0.193407
O6	O	0.789360	-0.975832	0.306593
O7	O	0.637930	-1.473086	-0.280744
O8	O	1.137930	-0.973086	0.219256
O9	O	0.319046	-1.439399	0.040948
O10	O	0.819046	-0.939399	0.540948
O11	O	0.464444	-1.260001	0.004518
O12	O	0.964444	-0.760001	0.504518
O13	O	0.522216	-1.616052	-0.009960
O14	O	1.022216	-1.116052	0.490040
Cu15	Cu	0.496041	-1.434700	0.018678
Cu16	Cu	0.996041	-0.934700	0.518678
Cu17	Cu	0.460934	-1.477785	-0.258474
Cu18	Cu	0.960934	-0.977785	0.241526
O19	O	0.667615	-1.436654	-0.046389
O20	O	1.167615	-0.936654	0.453611
C21	C	0.438943	-1.232500	-0.109989
C22	C	0.938943	-0.732500	0.390011
C23	C	0.407171	-1.096276	-0.102027
C24	C	0.907171	-0.596276	0.397973
C25	C	0.462077	-0.885846	-0.115786
C26	C	0.962077	-0.385846	0.384214
C27	C	0.494918	-1.026640	-0.124014
C28	C	0.994918	-0.526640	0.375986
C29	C	0.258884	-1.454663	-0.064878
C30	C	0.758884	-0.954663	0.435122
C31	C	0.123847	-1.445851	-0.031052
C32	C	0.623847	-0.945851	0.468948
C33	C	0.048271	-1.460796	-0.137376
C34	C	0.548271	-0.960796	0.362624
C35	C	-0.091298	-1.451689	-0.102418
C36	C	0.408702	-0.951689	0.397582
C37	C	0.698091	-1.457823	-0.174922
C38	C	1.198091	-0.957823	0.325078
C39	C	0.833127	-1.466636	-0.208757
C40	C	1.333127	-0.966636	0.291243
N41	N	0.520734	-1.404404	0.213611
N42	N	1.020734	-0.904404	0.713611
C43	C	0.518034	-0.679985	-0.129808
C44	C	1.018034	-0.179985	0.370192
C45	C	0.549811	-0.816208	-0.137769
C46	C	1.049811	-0.316208	0.362231
N47	N	0.436234	-1.508090	-0.453405
N48	N	0.936234	-1.008090	0.046595
C49	C	0.468210	-1.468841	0.298970
C50	C	0.968210	-0.968841	0.798970
C51	C	0.488766	-1.443644	0.461237
C52	C	0.988766	-0.943644	0.961237
H53	H	0.362653	-0.841228	-0.090852
H54	H	0.862653	-0.341228	0.409148
H55	H	0.594351	-1.071248	-0.148919
H56	H	1.094351	-0.571248	0.351081
F57	F	0.679772	-0.874514	-0.170321
F58	F	1.179772	-0.374514	0.329679
F59	F	0.567433	-1.347142	0.522724
F60	F	1.067433	-0.847142	1.022724
H61	H	-0.129917	-1.432143	0.014498
H62	H	0.370083	-0.932143	0.514498
F63	F	0.073369	-1.420305	0.121759
F64	F	0.573369	-0.920305	0.621759
F65	F	0.098749	-1.486354	-0.290187
F66	F	0.598749	-0.986354	0.209813
H67	H	0.307726	-1.051683	-0.077207
H68	H	0.807726	-0.551683	0.422793
H69	H	0.376038	-1.581911	0.499552
H70	H	0.876038	-1.081911	0.999552
H71	H	0.580916	-1.330579	0.260662
H72	H	1.080916	-0.830579	0.760662
F73	F	-0.116408	-1.492136	-0.361575
F74	F	0.383592	-0.992136	0.138425
F75	F	0.389279	-1.565103	0.237544
F76	F	0.889279	-1.065103	0.737544
