data_functionalizedCrystal
_audit_creation_method	'MofGen! by Chris Wilmer'
_symmetry_space_group_name_H-M	'P1'
_symmetry_Int_Tables_number	1
_symmetry_cell_setting	triclinic
loop_
_symmetry_equiv_pos_as_xyz
  x,y,z
_cell_length_a	21.295418
_cell_length_b	16.994747
_cell_length_c	21.295411
_cell_angle_alpha	89.994024
_cell_angle_beta	90.043738
_cell_angle_gamma	90.026880
loop_
_atom_site_label
_atom_site_type_symbol
_atom_site_fract_x
_atom_site_fract_y
_atom_site_fract_z
Zn1	Zn	0.962441	-0.313785	0.356354
Zn2	Zn	0.962379	-0.445672	0.251131
Zn3	Zn	0.857164	-0.313822	0.251064
Zn4	Zn	0.857169	-0.445687	0.356327
O5	O	0.909788	-0.379741	0.303719
O6	O	1.050522	-0.331258	0.342435
O7	O	0.948394	-0.428190	0.163032
O8	O	0.871153	-0.203436	0.265015
O9	O	1.050477	-0.428155	0.265128
O10	O	0.948499	-0.203409	0.342371
O11	O	0.871093	-0.331321	0.162984
O12	O	0.769075	-0.331336	0.264988
O13	O	0.871162	-0.428181	0.444420
O14	O	0.769079	-0.428217	0.342324
O15	O	0.948504	-0.331273	0.444440
O16	O	0.948399	-0.556055	0.265101
O17	O	0.871102	-0.556066	0.342389
C18	C	0.746237	-0.379783	0.303647
C19	C	0.676268	-0.379820	0.303631
C20	C	0.909752	-0.584681	0.303747
C21	C	0.909756	-0.674003	0.303746
Zn22	Zn	0.857182	-0.944908	0.251047
Zn23	Zn	0.962469	-0.944850	0.356327
Zn24	Zn	0.857191	-0.813080	0.356316
Zn25	Zn	0.962390	-0.812927	0.251110
O26	O	0.909808	-0.878941	0.303700
O27	O	0.871178	-1.055282	0.264990
O28	O	0.948540	-0.927410	0.444415
O29	O	0.769100	-0.830655	0.342321
O30	O	0.948532	-1.055239	0.342339
O31	O	0.769094	-0.927510	0.264980
O32	O	0.871192	-0.830599	0.444407
O33	O	0.871116	-0.702678	0.342383
O34	O	0.948398	-0.830395	0.163012
O35	O	0.948406	-0.702566	0.265088
O36	O	0.871102	-0.927361	0.162966
O37	O	1.050548	-0.927262	0.342400
O38	O	1.050490	-0.830338	0.265098
C39	C	0.643420	-0.430332	0.343839
C40	C	0.577678	-0.430313	0.343868
C41	C	0.544786	-0.379789	0.303676
C42	C	0.577642	-0.329267	0.263464
C43	C	0.643383	-0.329282	0.263442
N44	N	0.441508	-0.373615	0.248616
N45	N	0.379057	-0.373605	0.248639
C46	C	0.346711	-0.379739	0.303743
N47	N	0.379176	-0.385898	0.358823
N48	N	0.441634	-0.385912	0.358799
C49	C	0.473501	-0.379767	0.303696
C50	C	0.242578	-0.430233	0.343985
C51	C	0.176834	-0.430208	0.344015
C52	C	0.176800	-0.329166	0.263606
C53	C	0.242542	-0.329187	0.263582
C54	C	0.275427	-0.379725	0.303771
C55	C	1.073979	-0.379700	0.303792
C56	C	1.143947	-0.379683	0.303823
C57	C	0.909840	-0.379725	0.467909
C58	C	0.909863	-0.379718	0.537878
C59	C	0.909828	-0.174001	0.303687
C60	C	0.909847	-0.084679	0.303674
C61	C	0.909772	-0.379701	0.140167
C62	C	0.909872	-0.379486	0.070200
C63	C	0.950133	-0.329255	0.570756
C64	C	0.950132	-0.329221	0.636498
C65	C	0.909868	-0.379663	0.669360
C66	C	0.869589	-0.430129	0.636474
C67	C	0.869587	-0.430156	0.570733
N68	N	0.905030	-0.448668	0.772600
N69	N	0.905036	-0.448640	0.835052
C70	C	0.909872	-0.379583	0.867435
N71	N	0.914714	-0.310554	0.835007
N72	N	0.914711	-0.310583	0.772550
C73	C	0.909866	-0.379639	0.740645
C74	C	0.950143	-0.329080	0.971599
C75	C	0.950138	-0.329044	1.037342
C76	C	0.869598	-0.429959	1.037317
C77	C	0.869600	-0.429988	0.971574
C78	C	0.909876	-0.379549	0.938719
C79	C	1.073360	-0.878779	0.303759
C80	C	1.143328	-0.878733	0.303802
C81	C	0.909740	-0.878868	0.139510
C82	C	0.909711	-0.878836	0.069541
C83	C	0.745618	-0.879106	0.303642
C84	C	0.675650	-0.879176	0.303618
C85	C	0.909831	-0.879059	0.467251
C86	C	0.909684	-0.879241	0.537219
C87	C	1.176197	-0.929221	0.344037
C88	C	1.241940	-0.929193	0.344079
C89	C	1.274812	-0.878672	0.303887
C90	C	1.241938	-0.828182	0.263648
C91	C	1.176196	-0.828214	0.263604
C92	C	0.869449	-0.929307	0.036656
C93	C	0.869409	-0.929278	-0.029087
C94	C	0.909636	-0.878781	-0.061942
C95	C	0.949900	-0.828305	-0.029052
C96	C	0.949936	-0.828331	0.036689
C97	C	0.642792	-0.828777	0.343874
C98	C	0.577049	-0.828827	0.343851
C99	C	0.544166	-0.879282	0.303575
C100	C	0.577028	-0.929684	0.263314
C101	C	0.642770	-0.929629	0.263334
C102	C	0.869633	-0.828557	0.570046
C103	C	0.869483	-0.828727	0.635788
C104	C	0.909387	-0.879579	0.668702
C105	C	0.949440	-0.930269	0.635871
C106	C	0.949587	-0.930102	0.570130
H107	H	0.670191	-0.471483	0.376565
N108	N	0.993564	-0.274600	1.072807
H109	H	1.019074	-0.242652	1.042015
H110	H	1.022688	-0.306682	1.100123
H111	H	0.982725	-0.787233	0.063459
N112	N	0.277974	-0.274717	0.220202
H113	H	0.324611	-0.282393	0.226286
H114	H	0.266524	-0.218396	0.230063
H115	H	0.836868	-0.787446	0.662510
H116	H	1.268696	-0.970308	0.376849
N117	N	0.825988	-0.983735	-0.064550
H118	H	0.832062	-0.976060	-0.111183
H119	H	0.781033	-0.971516	-0.053063
H120	H	0.836811	-0.471084	0.944805
N121	N	0.826163	-0.484360	1.072751
H122	H	0.832273	-0.476685	1.119387
H123	H	0.835947	-0.540698	1.061288
N124	N	0.826160	-0.484541	0.671907
H125	H	0.781186	-0.472302	0.660428
H126	H	0.832322	-0.476850	0.718533
N127	N	0.993587	-0.274694	0.936152
H128	H	0.968022	-0.238160	0.908833
H129	H	1.022735	-0.306833	0.908954
N130	N	1.140751	-0.983715	0.387389
H131	H	1.171557	-1.015693	0.412879
H132	H	1.113471	-1.020195	0.361715
H133	H	0.550928	-0.471446	0.376613
H134	H	1.328342	-0.878653	0.303930
N135	N	1.277396	-0.773693	0.220302
H136	H	1.324030	-0.781336	0.226442
H137	H	1.265910	-0.717379	0.230144
N138	N	0.541562	-0.984111	0.219880
H139	H	0.552973	-0.971839	0.174906
H140	H	0.494941	-0.976474	0.226035
N141	N	0.473259	-0.879330	0.303560
H142	H	0.457451	-0.893859	0.346738
H143	H	0.457456	-0.918931	0.271910
H144	H	0.150020	-0.288025	0.230884
N145	N	0.141404	-0.484697	0.387383
H146	H	0.114078	-0.521189	0.361766
H147	H	0.114214	-0.452637	0.416596
N148	N	0.826584	-0.773707	0.534560
H149	H	0.797296	-0.805457	0.507149
H150	H	0.852463	-0.737293	0.507453
H151	H	0.909601	-0.878769	-0.115473
N152	N	0.678200	-0.984003	0.219917
H153	H	0.705491	-1.020547	0.245501
H154	H	0.705423	-0.951867	0.190762
N155	N	0.278050	-0.484733	0.387335
H156	H	0.324682	-0.477084	0.381215
H157	H	0.266514	-0.541045	0.377478
N158	N	0.541613	-0.774459	0.387274
H159	H	0.572424	-0.742495	0.412792
H160	H	0.514351	-0.806598	0.416390
H161	H	0.982924	-0.288124	0.663273
H162	H	0.981928	-0.971673	0.662680
H163	H	1.149439	-0.787096	0.230842
N164	N	0.542171	-0.274782	0.220106
H165	H	0.495539	-0.282442	0.226217
H166	H	0.553613	-0.286990	0.175135
N167	N	0.909231	-0.879745	0.739609
H168	H	0.940588	-0.919648	0.755484
H169	H	0.865912	-0.893906	0.755244
H170	H	0.836691	-0.970430	0.063399
H171	H	0.670128	-0.288146	0.230699
H172	H	0.982651	-0.787192	-0.055813
N173	N	0.992789	-0.984770	0.534728
H174	H	1.018045	-1.017003	0.565560
H175	H	1.022160	-0.952828	0.507591
N176	N	0.678252	-0.774358	0.387320
H177	H	0.666798	-0.718006	0.377549
H178	H	0.724874	-0.782037	0.381209
N179	N	0.993571	-0.274846	0.535328
H180	H	0.983804	-0.218488	0.546748
H181	H	0.987445	-0.282579	0.488702
N182	N	0.826142	-0.484575	0.535267
H183	H	0.800628	-0.516520	0.566057
H184	H	0.851749	-0.521088	0.508018
