data_functionalizedCrystal
_audit_creation_method	'MofGen! by Chris Wilmer'
_symmetry_space_group_name_H-M	'P1'
_symmetry_Int_Tables_number	1
_symmetry_cell_setting	triclinic
loop_
_symmetry_equiv_pos_as_xyz
  x,y,z
_cell_length_a	26.809956
_cell_length_b	19.288864
_cell_length_c	19.288865
_cell_angle_alpha	83.136245
_cell_angle_beta	89.999100
_cell_angle_gamma	89.977356
loop_
_atom_site_label
_atom_site_type_symbol
_atom_site_fract_x
_atom_site_fract_y
_atom_site_fract_z
O1	O	0.041645	-0.921354	-0.086638
O2	O	0.041612	-0.719093	-0.098327
O3	O	0.041620	-0.826068	0.008648
O4	O	0.041637	-0.814379	-0.193613
O5	O	-0.041340	-0.826048	0.008632
O6	O	-0.041347	-0.719073	-0.098343
O7	O	-0.041314	-0.921334	-0.086654
Zn8	Zn	-0.054502	-0.820200	-0.092501
Zn9	Zn	0.054800	-0.820227	-0.092480
O10	O	-0.041322	-0.814359	-0.193629
C11	C	0.000128	-0.693207	-0.097959
C12	C	0.000115	-0.616103	-0.096830
N13	N	-0.129098	-0.820187	-0.092515
C14	C	0.000138	-0.825682	0.034516
C15	C	0.000134	-0.824553	0.111620
C16	C	-0.473721	-0.867589	-0.045123
C17	C	-0.682599	-0.867605	-0.045112
O18	O	-0.709599	-0.907880	-0.004822
N19	N	-0.708725	-0.820230	-0.092464
C20	C	-0.682630	-0.772845	-0.139819
O21	O	-0.709645	-0.732545	-0.180090
C22	C	-0.473753	-0.772826	-0.139826
C23	C	-0.447629	-0.820209	-0.092476
C24	C	-0.447597	-0.914967	0.002224
C25	C	-0.395380	-0.914965	0.002219
C26	C	-0.369288	-0.867585	-0.045134
C27	C	-0.395412	-0.820206	-0.092481
C28	C	-0.447658	-0.725437	-0.187177
C29	C	-0.395435	-0.725436	-0.187173
C30	C	-0.369311	-0.772818	-0.139823
C31	C	-0.317104	-0.772824	-0.139840
N32	N	-0.290977	-0.820199	-0.092488
C33	C	-0.317069	-0.867579	-0.045135
C34	C	-0.792293	-0.772859	-0.139813
C35	C	-0.844512	-0.772865	-0.139813
C36	C	-0.844477	-0.867625	-0.045105
C37	C	-0.792257	-0.867622	-0.045109
C38	C	-0.766166	-0.820234	-0.092461
C39	C	-0.207411	-0.867572	-0.045151
C40	C	-0.155190	-0.867567	-0.045163
C41	C	-0.155230	-0.772806	-0.139868
C42	C	-0.207446	-0.772812	-0.139859
C43	C	-0.233535	-0.820198	-0.092495
O44	O	-0.290071	-0.732565	-0.180104
O45	O	-0.290045	-0.907863	-0.004860
C46	C	-0.525937	-0.867591	-0.045117
C47	C	-0.552061	-0.820213	-0.092464
C48	C	-0.525969	-0.772832	-0.139817
C49	C	-0.604280	-0.820218	-0.092464
C50	C	-0.630372	-0.867599	-0.045111
C51	C	-0.604246	-0.914974	0.002241
C52	C	-0.552029	-0.914972	0.002235
C53	C	-0.552096	-0.725457	-0.187169
C54	C	-0.604312	-0.725464	-0.187160
C55	C	-0.630404	-0.772844	-0.139807
N56	N	0.129396	-0.820245	-0.092460
C57	C	0.000171	-0.947220	-0.087022
C58	C	0.000188	-1.024324	-0.088151
C59	C	0.000128	-0.571407	-0.159598
C60	C	0.000133	-0.498960	-0.158537
C61	C	0.000136	-0.471212	-0.094705
C62	C	0.000119	-0.515918	-0.031929
C63	C	0.000109	-0.588364	-0.032991
C64	C	0.029212	-0.362957	-0.044520
C65	C	0.029226	-0.290513	-0.043460
C66	C	0.000165	-0.247767	-0.091425
C67	C	-0.028902	-0.277472	-0.140462
C68	C	-0.028912	-0.349918	-0.141524
C69	C	0.000147	-0.392658	-0.093546
C70	C	0.000184	-0.124514	-0.153047
C71	C	0.000186	-0.052066	-0.151984
C72	C	0.000177	-0.069026	-0.025374
C73	C	0.000170	-0.141473	-0.026439
C74	C	0.000176	-0.169212	-0.090277
C75	C	0.000160	-0.814745	-0.219497
C76	C	0.000168	-0.815874	-0.296601
C77	C	0.000142	-0.887321	0.156316
C78	C	0.000150	-0.886260	0.228763
C79	C	0.000139	-0.822428	0.256511
C80	C	0.000134	-0.759652	0.211805
C81	C	0.000132	-0.760714	0.139359
C82	C	-0.028928	-0.772241	0.364793
C83	C	-0.028928	-0.771181	0.437237
C84	C	0.000150	-0.819148	0.479956
C85	C	0.029222	-0.868187	0.450224
C86	C	0.029219	-0.869249	0.377779
C87	C	0.000143	-0.821269	0.335065
C88	C	0.000167	-0.880770	0.603209
C89	C	0.000178	-0.879707	0.675657
C90	C	0.000157	-0.753097	0.658697
C91	C	0.000152	-0.754162	0.586250
C92	C	0.000154	-0.818001	0.558511
H93	H	-0.133922	-0.906155	-0.006604
Br94	Br	0.000200	0.008596	-0.237177
Br95	Br	-0.242899	-0.708514	-0.204131
Br96	Br	-0.242810	-0.931882	0.019130
H97	H	-0.468921	-0.686854	-0.225734
Br98	Br	0.000159	-0.973958	0.118673
Br99	Br	0.068688	-0.933290	0.508191
H100	H	-0.052581	-0.374101	-0.181450
Br101	Br	-0.756809	-0.931929	0.019154
H102	H	-0.052566	-0.242669	-0.179519
H103	H	-0.052597	-0.731248	0.461439
H104	H	0.052896	-0.266332	-0.003534
Br105	Br	0.000188	-0.162165	-0.239683
H106	H	0.000210	-0.046435	0.026600
H107	H	0.000162	-0.177866	0.024674
H108	H	-0.133977	-0.734231	-0.178424
Br109	Br	-0.359932	-0.979269	0.066485
Br110	Br	0.000149	-0.666466	0.696346
H111	H	0.052880	-0.397756	-0.005459
Br112	Br	0.000162	-0.971451	0.289435
Br113	Br	-0.639667	-0.979279	0.066502
Br114	Br	-0.068395	-0.707137	0.306823
H115	H	-0.374194	-0.686845	-0.225733
H116	H	0.000128	-0.493322	0.020044
Br117	Br	0.000090	-0.649028	0.052201
Br118	Br	-0.516692	-0.661149	-0.251439
H119	H	-0.530763	-0.953555	0.040793
Br120	Br	-0.482999	-0.979277	0.066498
H121	H	-0.865730	-0.906205	-0.006549
H122	H	0.000125	-0.709599	0.102967
H123	H	0.000134	-0.593987	-0.211580
Br124	Br	-0.639761	-0.661157	-0.251431
H125	H	0.052892	-0.909176	0.353574
Br126	Br	-0.879960	-0.708569	-0.204087
H127	H	0.000143	-0.462561	-0.209652
Br128	Br	0.000165	-0.967406	0.565558
Br129	Br	0.000140	-0.668972	0.525587
H130	H	-0.771053	-0.734270	-0.178375
Br131	Br	0.000127	-0.673021	0.249460
H132	H	0.000187	-0.930822	0.712049
