data_functionalizedCrystal
_audit_creation_method	'MofGen! by Chris Wilmer'
_symmetry_space_group_name_H-M	'P1'
_symmetry_Int_Tables_number	1
_symmetry_cell_setting	triclinic
loop_
_symmetry_equiv_pos_as_xyz
  x,y,z
_cell_length_a	14.971491
_cell_length_b	10.654554
_cell_length_c	14.048226
_cell_angle_alpha	89.994080
_cell_angle_beta	89.991693
_cell_angle_gamma	84.051490
loop_
_atom_site_label
_atom_site_type_symbol
_atom_site_fract_x
_atom_site_fract_y
_atom_site_fract_z
O1	O	1.187837	0.163689	-0.079200
O2	O	0.927544	0.183281	-0.079193
O3	O	1.063673	-0.009318	-0.079192
O4	O	1.051708	0.356288	-0.079202
O5	O	1.063656	-0.009329	0.079129
O6	O	0.927528	0.183270	0.079128
O7	O	1.187820	0.163678	0.079121
Zn8	Zn	1.057671	0.173472	0.104261
Zn9	Zn	1.057693	0.173487	-0.104334
O10	O	1.051691	0.356277	0.079119
C11	C	0.894206	0.182398	-0.000032
C12	C	0.794895	0.179769	-0.000029
C13	C	0.367137	0.168430	-0.086352
C14	C	0.460451	0.170897	-0.086348
C15	C	0.507094	0.172132	-0.000044
C16	C	0.460420	0.170888	0.086263
C17	C	0.367109	0.168413	0.086258
C18	C	0.654910	0.176051	0.086266
C19	C	0.748227	0.178529	0.086271
C20	C	0.748252	0.178535	-0.086340
C21	C	0.654940	0.176060	-0.086345
C22	C	0.608273	0.174818	-0.000038
C23	C	1.062785	-0.056112	-0.000032
C24	C	1.060154	-0.195527	-0.000034
C25	C	1.137836	-0.406866	-0.000048
C26	C	1.140309	-0.275871	-0.000039
C27	C	0.977522	-0.246182	-0.000029
C28	C	0.975050	-0.377175	-0.000032
C29	C	1.231820	-0.424006	-0.000058
C30	C	1.234292	-0.293011	-0.000048
C31	C	1.221158	0.164561	-0.000043
C32	C	1.320469	0.167190	-0.000052
C33	C	1.052579	0.403071	-0.000043
C34	C	1.055210	0.542486	-0.000047
N35	N	1.057663	0.173461	0.246622
N36	N	1.057708	0.173488	-0.246694
C37	C	1.117960	0.088214	0.296441
C38	C	1.117966	0.088213	0.396098
C39	C	1.057679	0.173467	0.445936
C40	C	0.997375	0.258718	0.396110
C41	C	0.997365	0.258712	0.296454
C42	C	0.997401	0.258727	0.603824
C43	C	0.997411	0.258736	0.703487
C44	C	1.118002	0.088228	0.703469
C45	C	1.117992	0.088222	0.603813
C46	C	1.057689	0.173476	0.553994
H47	H	0.786253	0.179548	-0.156614
H48	H	1.260222	-0.469943	-0.068419
C49	C	1.274721	-0.245322	0.092302
N50	N	1.305169	-0.209400	0.161861
C51	C	1.184311	-0.005561	0.548994
N52	N	1.234262	-0.076204	0.507704
C53	C	1.283946	-0.253850	-0.089559
N54	N	1.321341	-0.224353	-0.156979
C55	C	0.884156	-0.432882	-0.000018
N56	N	0.815690	-0.474840	-0.000008
H57	H	0.329112	0.167416	0.156532
H58	H	0.912259	-0.180755	-0.000016
H59	H	1.167064	0.018797	0.436660
C60	C	1.184282	-0.005574	0.241629
N61	N	1.234235	-0.076223	0.200348
C62	C	1.184332	-0.005556	0.758271
N63	N	1.234292	-0.076190	0.799553
H64	H	1.267230	-0.466147	0.066193
H65	H	0.948318	0.328157	0.744059
H66	H	0.948293	0.328146	0.563265
C67	C	0.931049	0.352487	0.450934
N68	N	0.881091	0.423115	0.492227
H69	H	0.786202	0.179541	0.156547
C70	C	0.931041	0.352501	0.241654
N71	N	0.881084	0.423146	0.200380
H72	H	0.329166	0.167433	-0.156631
H73	H	0.616965	0.175063	-0.156621
C74	C	0.603578	0.174687	0.181208
N75	N	0.564913	0.173667	0.252718
H76	H	0.498444	0.171899	-0.156622
H77	H	0.498405	0.171886	0.156533
