data_functionalizedCrystal
_audit_creation_method	'MofGen! by Chris Wilmer'
_symmetry_space_group_name_H-M	'P1'
_symmetry_Int_Tables_number	1
_symmetry_cell_setting	triclinic
loop_
_symmetry_equiv_pos_as_xyz
  x,y,z
_cell_length_a	19.077105
_cell_length_b	16.625546
_cell_length_c	19.077237
_cell_angle_alpha	92.269570
_cell_angle_beta	85.486555
_cell_angle_gamma	87.718759
loop_
_atom_site_label
_atom_site_type_symbol
_atom_site_fract_x
_atom_site_fract_y
_atom_site_fract_z
Zn1	Zn	1.093696	-0.391756	-0.441830
Zn2	Zn	1.088891	-0.520951	-0.323939
Zn3	Zn	0.971087	-0.380489	-0.319228
Zn4	Zn	0.975779	-0.520895	-0.437056
O5	O	1.032363	-0.453523	-0.380513
O6	O	1.191709	-0.413633	-0.430160
O7	O	1.069289	-0.497627	-0.224666
O8	O	0.987398	-0.269154	-0.335518
O9	O	1.188178	-0.508552	-0.343547
O10	O	1.077479	-0.277432	-0.425592
O11	O	0.982739	-0.394430	-0.221204
O12	O	0.873059	-0.394375	-0.330889
O13	O	0.995396	-0.508456	-0.536338
O14	O	0.876506	-0.497531	-0.417457
O15	O	1.082029	-0.413579	-0.539845
O16	O	1.073839	-0.633773	-0.338919
O17	O	0.990736	-0.633731	-0.422025
C18	C	0.849204	-0.444725	-0.373144
C19	C	0.770848	-0.440981	-0.370009
C20	C	0.735847	-0.493004	-0.413536
C21	C	0.662224	-0.489476	-0.410593
C22	C	0.623603	-0.433928	-0.364119
C23	C	0.658609	-0.381900	-0.320590
C24	C	0.732231	-0.385424	-0.323537
C25	C	0.403222	-0.417616	-0.350482
C26	C	0.329595	-0.414097	-0.347537
C27	C	0.333215	-0.521673	-0.437541
C28	C	0.406838	-0.525196	-0.440481
C29	C	0.441838	-0.473164	-0.396955
N30	N	0.548348	-0.430323	-0.361108
N31	N	0.517092	-0.476767	-0.399970
C32	C	1.032295	-0.663009	-0.380481
C33	C	1.032332	-0.752632	-0.380494
C34	C	1.032457	-1.080817	-0.380572
C35	C	1.032420	-0.989506	-0.380552
C36	C	1.032394	-0.916728	-0.380532
C37	C	1.032358	-0.825411	-0.380513
C38	C	1.216237	-0.462356	-0.387912
C39	C	1.294594	-0.466120	-0.391064
C40	C	1.039772	-0.462268	-0.564385
C41	C	1.042929	-0.465995	-0.642741
C42	C	1.032451	-0.243220	-0.380562
C43	C	1.032489	-0.153602	-0.380583
C44	C	1.065576	-0.492783	-1.083993
C45	C	1.062599	-0.489276	-1.010369
C46	C	1.016053	-0.433789	-0.971763
C47	C	0.972476	-0.381812	-1.006784
C48	C	0.975450	-0.385324	-1.080407
C49	C	1.002325	-0.417529	-0.751384
C50	C	0.999356	-0.414020	-0.677757
C51	C	1.089479	-0.521485	-0.681347
C52	C	1.092451	-0.524988	-0.754970
C53	C	1.048872	-0.473014	-0.789985
N54	N	1.013011	-0.430202	-0.896508
N55	N	1.051911	-0.476606	-0.865238
C56	C	1.025024	-0.444755	-0.197358
C57	C	1.022004	-0.440808	-0.119009
H58	H	0.760728	-0.343057	-0.288096
F59	F	1.135856	-0.576796	-0.644076
F60	F	0.929076	-0.330002	-1.117673
H61	H	0.934574	-0.336638	-0.975346
F62	F	0.624976	-0.544847	-0.456921
H63	H	0.767287	-0.538240	-0.451378
H64	H	0.438278	-0.570431	-0.478324
H65	H	0.961453	-0.368831	-0.646326
H66	H	1.103483	-0.537962	-1.115421
F67	F	0.440462	-0.362237	-0.304159
H68	H	0.304710	-0.564033	-0.472979
F69	F	0.288493	-0.354977	-0.298066
F70	F	0.617504	-0.322776	-0.271133
H71	H	1.098072	-0.531609	-0.981862
F72	F	0.955918	-0.362241	-0.788639
H73	H	1.130354	-0.570172	-0.786398
