data_functionalizedCrystal
_audit_creation_method	'MofGen! by Chris Wilmer'
_symmetry_space_group_name_H-M	'P1'
_symmetry_Int_Tables_number	1
_symmetry_cell_setting	triclinic
loop_
_symmetry_equiv_pos_as_xyz
  x,y,z
_cell_length_a	18.101398
_cell_length_b	29.839125
_cell_length_c	18.101395
_cell_angle_alpha	89.986738
_cell_angle_beta	90.026371
_cell_angle_gamma	89.982423
loop_
_atom_site_label
_atom_site_type_symbol
_atom_site_fract_x
_atom_site_fract_y
_atom_site_fract_z
Zn1	Zn	1.132072	-0.254086	-0.295027
Zn2	Zn	1.131982	-0.178962	-0.418845
Zn3	Zn	1.008245	-0.178961	-0.295012
Zn4	Zn	1.008181	-0.254056	-0.418821
O5	O	1.070120	-0.216516	-0.356926
O6	O	1.235693	-0.244134	-0.311468
O7	O	1.115557	-0.116095	-0.402422
O8	O	1.024735	-0.188939	-0.191381
O9	O	1.235627	-0.188940	-0.402437
O10	O	1.115710	-0.244133	-0.191392
O11	O	1.024648	-0.116094	-0.311442
O12	O	0.904604	-0.188910	-0.311419
O13	O	1.024626	-0.316927	-0.402396
O14	O	0.904557	-0.244082	-0.402381
O15	O	1.115648	-0.316949	-0.311445
O16	O	1.115495	-0.188911	-0.522475
O17	O	1.024540	-0.244082	-0.522457
C18	C	0.877710	-0.216493	-0.356896
C19	C	0.795395	-0.216494	-0.356901
C20	C	1.070140	-0.333695	-0.356919
C21	C	1.070149	-0.383629	-0.356917
C22	C	0.496304	-0.216531	-0.356947
C23	C	0.527634	-0.181988	-0.299430
C24	C	0.613253	-0.181841	-0.299584
C25	C	0.644687	-0.216513	-0.356924
C26	C	0.613571	-0.203578	-0.434930
C27	C	0.527926	-0.203338	-0.434611
C28	C	0.527910	-0.264091	-0.337136
C29	C	0.613561	-0.263831	-0.335398
C30	C	0.728546	-0.216503	-0.356915
C31	C	0.412445	-0.216540	-0.356961
C32	C	1.117593	-0.693287	-0.309434
C33	C	1.117630	-0.880960	-0.309371
O34	O	1.157914	-0.905238	-0.269070
N35	N	1.070247	-0.904415	-0.356718
C36	C	1.022847	-0.880948	-0.404081
O37	O	0.982540	-0.905203	-0.444346
C38	C	1.022808	-0.693275	-0.404140
C39	C	1.070199	-0.669824	-0.356795
C40	C	1.164981	-0.669835	-0.262093
C41	C	1.164974	-0.622920	-0.262112
C42	C	1.117580	-0.599456	-0.309473
C43	C	1.070193	-0.622908	-0.356814
C44	C	0.975405	-0.669809	-0.451498
C45	C	0.975398	-0.622888	-0.451507
C46	C	1.022790	-0.599436	-0.404163
C47	C	1.022792	-0.552529	-0.404194
N48	N	1.070175	-0.529075	-0.356847
C49	C	1.117569	-0.552538	-0.309486
C50	C	1.022873	-0.979478	-0.404048
C51	C	1.022884	-1.026396	-0.404034
C52	C	1.117666	-1.026406	-0.309323
C53	C	1.117658	-0.979487	-0.309341
C54	C	1.070256	-0.956024	-0.356701
C55	C	1.117552	-0.454013	-0.309530
C56	C	1.117543	-0.407093	-0.309556
C57	C	1.022758	-0.407087	-0.404264
C58	C	1.022770	-0.454003	-0.404241
C59	C	1.070169	-0.477464	-0.356869
O60	O	0.982523	-0.528223	-0.444468
O61	O	1.157858	-0.528275	-0.269216
C62	C	1.117600	-0.740203	-0.309415
C63	C	1.070213	-0.763654	-0.356757
C64	C	1.022819	-0.740191	-0.404117
C65	C	1.070224	-0.810572	-0.356743
C66	C	1.117618	-0.834036	-0.309383
C67	C	1.165001	-0.810582	-0.262036
C68	C	1.164994	-0.763666	-0.262055
C69	C	0.975435	-0.763645	-0.451464
C70	C	0.975447	-0.810560	-0.451442
C71	C	1.022841	-0.834024	-0.404081
C72	C	1.263282	-0.216540	-0.356957
C73	C	1.345596	-0.216550	-0.356970
C74	C	1.070021	-0.216503	-0.549337
C75	C	1.070046	-0.216513	-0.631651
C76	C	1.070143	-0.099794	-0.356879
C77	C	1.070278	-0.049860	-0.356674
C78	C	1.070209	-0.216537	-0.930742
C79	C	1.013115	-0.251335	-0.899436
C80	C	1.012843	-0.251226	-0.813818
C81	C	1.070128	-0.216525	-0.782359
C82	C	1.049008	-0.169177	-0.813490
C83	C	1.048640	-0.169385	-0.899135
C84	C	1.148548	-0.228670	-0.899097
C85	C	1.148087	-0.229708	-0.813446
C86	C	1.070084	-0.216516	-0.698500
C87	C	1.070251	-0.216543	-1.014601
C88	C	1.070240	-0.216540	-0.163764
C89	C	1.070291	-0.216549	-0.081450
H90	H	0.507063	-0.190007	-0.241408
H91	H	0.991375	-0.159107	-0.919169
H92	H	0.936841	-0.744546	-0.490033
H93	H	0.634292	-0.189948	-0.241739
C94	C	0.935144	-0.240614	-0.928582
C95	C	0.872392	-0.229765	-0.874022
C96	C	0.794424	-0.219041	-0.903169
C97	C	0.779207	-0.219166	-0.986877
C98	C	0.841961	-0.230016	-1.041442
C99	C	0.919930	-0.240739	-1.012294
H100	H	0.883655	-0.229672	-0.812052
H101	H	0.747970	-0.211009	-0.862776
H102	H	0.721491	-0.211228	-1.008453
H103	H	0.830698	-0.230109	-1.103411
H104	H	0.966384	-0.248771	-1.052687
H105	H	1.167805	-0.262608	-0.920660
H106	H	1.156247	-0.960396	-0.270788
C107	C	0.498531	-0.134656	-0.316912
C108	C	0.446492	-0.127265	-0.383129
C109	C	0.417388	-0.079933	-0.400614
C110	C	0.440324	-0.039992	-0.351882
C111	C	0.492367	-0.047381	-0.285660
C112	C	0.521470	-0.094713	-0.268175
H113	H	0.429511	-0.156833	-0.419208
H114	H	0.378863	-0.074463	-0.449636
H115	H	0.418780	-0.004954	-0.364825
H116	H	0.509348	-0.017813	-0.249582
H117	H	0.559996	-0.100183	-0.219154
C118	C	0.499916	-0.235838	-0.494466
C119	C	0.451155	-0.218331	-0.557960
C120	C	0.423147	-0.250829	-0.617817
C121	C	0.443898	-0.300833	-0.614180
C122	C	0.492661	-0.318343	-0.550684
C123	C	0.520670	-0.285846	-0.490827
H124	H	0.435791	-0.181312	-0.560654
H125	H	0.387049	-0.237866	-0.664821
H126	H	0.423165	-0.324890	-0.658490
H127	H	0.508026	-0.355362	-0.547990
H128	H	0.556768	-0.298808	-0.443823
C129	C	0.640901	-0.134235	-0.317286
C130	C	0.585050	-0.096234	-0.331331
C131	C	0.612698	-0.048626	-0.349038
C132	C	0.696197	-0.039020	-0.352701
C133	C	0.752053	-0.077021	-0.338657
C134	C	0.724405	-0.124629	-0.320949
H135	H	0.523235	-0.103344	-0.328619
H136	H	0.571350	-0.020495	-0.359435
H137	H	0.716664	-0.003778	-0.365810
H138	H	0.813869	-0.069911	-0.341368
H139	H	0.765754	-0.152761	-0.310553
H140	H	0.507921	-0.168569	-0.451414
H141	H	0.954776	-0.243189	-0.793387
H142	H	1.164014	-0.264554	-0.793098
H143	H	0.984301	-1.045486	-0.442595
C144	C	0.970637	-0.381267	-0.456363
C145	C	0.912520	-0.349000	-0.424274
C146	C	0.860400	-0.323176	-0.476373
C147	C	0.866398	-0.329620	-0.560561
C148	C	0.924518	-0.361888	-0.592655
C149	C	0.976638	-0.387712	-0.540556
H150	H	0.908077	-0.344228	-0.361949
H151	H	0.817375	-0.299288	-0.452614
H152	H	0.827816	-0.310503	-0.599128
H153	H	0.928961	-0.366660	-0.654980
H154	H	1.019663	-0.411600	-0.564315
H155	H	0.633931	-0.227950	-0.478932
C156	C	0.642501	-0.157114	-0.458027
C157	C	0.587753	-0.118744	-0.473605
C158	C	0.616680	-0.072279	-0.496697
C159	C	0.700355	-0.064184	-0.504212
C160	C	0.755109	-0.102555	-0.488634
C161	C	0.726181	-0.149020	-0.465542
H162	H	0.525806	-0.124735	-0.468042
H163	H	0.576147	-0.043874	-0.508228
H164	H	0.721769	-0.029788	-0.521306
H165	H	0.817055	-0.096564	-0.494197
H166	H	0.766714	-0.177425	-0.454011
H167	H	0.506336	-0.275851	-0.281244
H168	H	1.088422	-0.142573	-0.919845
C169	C	1.103414	-0.133191	-0.785962
C170	C	1.167806	-0.146413	-0.734773
C171	C	1.222213	-0.110428	-0.707244
C172	C	1.212226	-0.061222	-0.730903
C173	C	1.147831	-0.047998	-0.782095
C174	C	1.093424	-0.083983	-0.809624
H175	H	1.175201	-0.182840	-0.717256
H176	H	1.269883	-0.120217	-0.669348
H177	H	1.252501	-0.034584	-0.710525
H178	H	1.140436	-0.011570	-0.799612
H179	H	1.045755	-0.074193	-0.847520
H180	H	1.156256	-1.045518	-0.270761
C181	C	0.642479	-0.300464	-0.387867
C182	C	0.625928	-0.297680	-0.471196
C183	C	0.654853	-0.334310	-0.523670
C184	C	0.700329	-0.373724	-0.492814
C185	C	0.716882	-0.376509	-0.409480
C186	C	0.687957	-0.339879	-0.357006
H187	H	0.592263	-0.268502	-0.494042
H188	H	0.642600	-0.332248	-0.585360
H189	H	0.721741	-0.400839	-0.531659
H190	H	0.750547	-0.405687	-0.386635
H191	H	0.700210	-0.341941	-0.295317
C192	C	0.923258	-0.695591	-0.503574
C193	C	0.955280	-0.727848	-0.561732
C194	C	0.903123	-0.753625	-0.613809
C195	C	0.818943	-0.747146	-0.607728
C196	C	0.786915	-0.714888	-0.549568
C197	C	0.839073	-0.689110	-0.497491
H198	H	1.017600	-0.732645	-0.566235
H199	H	0.926832	-0.777505	-0.656863
H200	H	0.780333	-0.766228	-0.646279
H201	H	0.724596	-0.710090	-0.545065
H202	H	0.815364	-0.665231	-0.454437
C203	C	1.030686	-0.298655	-0.785376
C204	C	1.033927	-0.307847	-0.701721
C205	C	1.051766	-0.355279	-0.673284
C206	C	1.066362	-0.393519	-0.728501
C207	C	1.063121	-0.384328	-0.812161
C208	C	1.045283	-0.336896	-0.840598
H209	H	1.023122	-0.279539	-0.660842
H210	H	1.054165	-0.362082	-0.611353
H211	H	1.079568	-0.428630	-0.707450
H212	H	1.073927	-0.412636	-0.853040
H213	H	1.042883	-0.330093	-0.902529
C214	C	0.970726	-0.953677	-0.456153
C215	C	0.886545	-0.960132	-0.450094
C216	C	0.834397	-0.934336	-0.502202
C217	C	0.866431	-0.902085	-0.560369
C218	C	0.950616	-0.895628	-0.566431
C219	C	1.002763	-0.921425	-0.514322
H220	H	0.862828	-0.984008	-0.407033
H221	H	0.772078	-0.939116	-0.497715
H222	H	0.827828	-0.882989	-0.598943
H223	H	0.974333	-0.871753	-0.609491
H224	H	1.065083	-0.916645	-0.518810
H225	H	1.192875	-0.206211	-0.792028
H226	H	1.203585	-0.744576	-0.223501
H227	H	0.633903	-0.273584	-0.277994
C228	C	0.500543	-0.298863	-0.393730
C229	C	0.449773	-0.284204	-0.457606
C230	C	0.422405	-0.318971	-0.514204
C231	C	0.445808	-0.368397	-0.506926
C232	C	0.496581	-0.383058	-0.443046
C233	C	0.523949	-0.348291	-0.386448
H234	H	0.432447	-0.247614	-0.462997
H235	H	0.384820	-0.308117	-0.561492
H236	H	0.425548	-0.394133	-0.548823
H237	H	0.513907	-0.419648	-0.437655
H238	H	0.561534	-0.359144	-0.339160
C239	C	1.169675	-0.381297	-0.257471
C240	C	1.163681	-0.387749	-0.173280
C241	C	1.215810	-0.361955	-0.121196
C242	C	1.273933	-0.329709	-0.153303
C243	C	1.279928	-0.323256	-0.237499
C244	C	1.227799	-0.349050	-0.289583
H245	H	1.120654	-0.411620	-0.149508
H246	H	1.211372	-0.366732	-0.058868
H247	H	1.312521	-0.310615	-0.114747
H248	H	1.322956	-0.299385	-0.261271
H249	H	1.232238	-0.344273	-0.351911
H250	H	1.203564	-0.603830	-0.223558
H251	H	1.156146	-0.473109	-0.270953
C252	C	0.923258	-0.597078	-0.503608
C253	C	0.839074	-0.603519	-0.497548
C254	C	0.786938	-0.577709	-0.549649
C255	C	0.818986	-0.545458	-0.607810
C256	C	0.903174	-0.539016	-0.613872
C257	C	0.955310	-0.564826	-0.561771
H258	H	0.815347	-0.627394	-0.454492
H259	H	0.724616	-0.582478	-0.545161
H260	H	0.780391	-0.526352	-0.646378
H261	H	0.926901	-0.515141	-0.656928
H262	H	1.017632	-0.560057	-0.566258
H263	H	1.203575	-0.688935	-0.223522
H264	H	0.984186	-0.473098	-0.442800
H265	H	0.992349	-0.158715	-0.792096
H266	H	1.191085	-0.203325	-0.919340
H267	H	1.203594	-0.829694	-0.223475
C268	C	1.030783	-0.298919	-0.927218
C269	C	0.973341	-0.324879	-0.973115
C270	C	0.991013	-0.372463	-1.000904
C271	C	1.066127	-0.394087	-0.982797
C272	C	1.123573	-0.368127	-0.936898
C273	C	1.105901	-0.320543	-0.909109
H274	H	0.917733	-0.308872	-0.986521
H275	H	0.948487	-0.391681	-1.034881
H276	H	1.079208	-0.429312	-1.003368
H277	H	1.179181	-0.384134	-0.923492
H278	H	1.148428	-0.301325	-0.875132
H279	H	0.936856	-0.829651	-0.490003
