data_functionalizedCrystal
_audit_creation_method	'MofGen! by Chris Wilmer'
_symmetry_space_group_name_H-M	'P1'
_symmetry_Int_Tables_number	1
_symmetry_cell_setting	triclinic
loop_
_symmetry_equiv_pos_as_xyz
  x,y,z
_cell_length_a	11.026607
_cell_length_b	15.995362
_cell_length_c	10.066280
_cell_angle_alpha	80.166133
_cell_angle_beta	97.678523
_cell_angle_gamma	83.958302
loop_
_atom_site_label
_atom_site_type_symbol
_atom_site_fract_x
_atom_site_fract_y
_atom_site_fract_z
O1	O	1.594304	-0.337278	-0.113443
O2	O	2.094304	0.162722	0.386557
O3	O	1.240994	-0.297351	-0.113450
O4	O	1.740994	0.202649	0.386550
O5	O	1.427298	-0.196881	-0.113456
O6	O	1.927298	0.303119	0.386544
O7	O	1.408000	-0.437748	-0.113437
O8	O	1.908000	0.062252	0.386563
O9	O	1.459058	-0.223575	0.113520
O10	O	1.959058	0.276425	0.613520
O11	O	1.272754	-0.324045	0.113526
O12	O	1.772754	0.175955	0.613526
O13	O	1.626064	-0.363971	0.113533
O14	O	2.126064	0.136029	0.613533
Zn15	Zn	1.454452	-0.348247	0.149567
Zn16	Zn	1.954452	0.151753	0.649567
Zn17	Zn	1.412607	-0.313076	-0.149484
Zn18	Zn	1.912607	0.186924	0.350516
O19	O	1.439760	-0.464442	0.113539
O20	O	1.939760	0.035558	0.613539
C21	C	1.211663	-0.303333	0.000037
C22	C	1.711663	0.196667	0.500037
C23	C	1.076947	-0.281375	0.000033
C24	C	1.576947	0.218625	0.500033
C25	C	1.442377	-0.178912	0.000027
C26	C	1.942377	0.321088	0.500027
C27	C	1.439975	-0.085599	0.000010
C28	C	1.939975	0.414401	0.500010
C29	C	1.003146	-0.342003	0.000037
C30	C	1.503146	0.157997	0.500037
C31	C	0.863909	-0.319310	0.000034
C32	C	1.363909	0.180690	0.500034
C33	C	1.431352	0.253449	-0.000016
C34	C	1.931352	0.753449	0.499984
C35	C	1.298595	0.226074	-0.000523
C36	C	1.798595	0.726074	0.499477
C37	C	1.301069	0.128962	-0.000003
C38	C	1.801069	0.628962	0.499997
C39	C	1.435629	0.085244	-0.000003
C40	C	1.935629	0.585244	0.499997
C41	C	1.519209	0.101214	0.129607
C42	C	2.019209	0.601214	0.629607
C43	C	1.515883	0.198341	0.129707
C44	C	2.015883	0.698341	0.629707
C45	C	1.482507	0.228642	-0.128408
C46	C	1.982507	0.728642	0.371592
C47	C	1.482243	0.131901	-0.130113
C48	C	1.982243	0.631901	0.369887
C49	C	1.438054	-0.009820	0.000008
C50	C	1.938054	0.490180	0.500008
C51	C	1.428932	0.348511	-0.000018
C52	C	1.928932	0.848511	0.499982
C53	C	1.655395	-0.357990	0.000043
C54	C	2.155395	0.142010	0.500043
C55	C	1.790110	-0.379946	0.000038
C56	C	2.290110	0.120054	0.500038
C57	C	1.424662	0.517593	0.000031
C58	C	1.924662	1.017593	0.500031
C59	C	1.427006	0.424292	-0.000029
C60	C	1.927006	0.924292	0.499971
N61	N	1.483019	-0.372250	0.353662
N62	N	1.983019	0.127750	0.853662
N63	N	1.384049	-0.289067	-0.353579
N64	N	1.884049	0.210933	0.146421
C65	C	1.444538	-0.339897	0.578619
C66	C	1.944538	0.160103	1.078619
C67	C	1.422521	-0.321413	0.421460
C68	C	1.922521	0.178587	0.921460
H69	H	1.043043	-0.410708	0.000051
H70	H	1.543043	0.089292	0.500051
Br71	Br	1.458930	0.221847	0.291190
Br72	Br	1.958930	0.721847	0.791190
H73	H	1.425377	0.267274	-0.226650
H74	H	1.925377	0.767274	0.273350
H75	H	0.824014	-0.250597	-0.000007
H76	H	1.324014	0.249403	0.499993
H77	H	1.037045	-0.212667	-0.000007
H78	H	1.537045	0.287333	0.499993
Br79	Br	1.309021	-0.226072	0.324307
Br80	Br	1.809021	0.273928	0.824307
Br81	Br	1.685106	0.051894	0.137648
Br82	Br	2.185106	0.551894	0.637648
H83	H	1.236625	0.119220	-0.092913
H84	H	1.736625	0.619220	0.407087
Br85	Br	1.465950	0.046424	0.290383
Br86	Br	1.965950	0.546424	0.790383
H87	H	0.830000	-0.448657	0.000052
H88	H	1.330000	0.051343	0.500052
Br89	Br	1.188512	0.288502	-0.155451
Br90	Br	1.688512	0.788502	0.344549
Br91	Br	1.596503	-0.467601	0.450811
Br92	Br	2.096503	0.032399	0.950811
Br93	Br	1.380797	0.116664	-0.289951
Br94	Br	1.880797	0.616664	0.210049
H95	H	1.258728	0.242757	0.091903
H96	H	1.758728	0.742757	0.591903
H97	H	1.579275	0.102669	-0.137939
H98	H	2.079275	0.602669	0.362061
H99	H	1.315958	-0.231869	0.588120
H100	H	1.815958	0.268131	1.088120
H101	H	1.262302	0.097957	0.093068
H102	H	1.762302	0.597957	0.593068
H103	H	1.614121	0.215214	0.135583
H104	H	2.114121	0.715214	0.635583
H105	H	1.580213	0.245760	-0.129284
H106	H	2.080213	0.745760	0.370716
H107	H	1.512619	-0.397101	0.636921
H108	H	2.012619	0.102899	1.136921
