data_functionalizedCrystal
_audit_creation_method	'MofGen! by Chris Wilmer'
_symmetry_space_group_name_H-M	'P1'
_symmetry_Int_Tables_number	1
_symmetry_cell_setting	triclinic
loop_
_symmetry_equiv_pos_as_xyz
  x,y,z
_cell_length_a	27.440280
_cell_length_b	18.426585
_cell_length_c	18.426585
_cell_angle_alpha	90.003400
_cell_angle_beta	60.005992
_cell_angle_gamma	60.000626
loop_
_atom_site_label
_atom_site_type_symbol
_atom_site_fract_x
_atom_site_fract_y
_atom_site_fract_z
Zr1	Zr	0.533367	-0.095186	0.699243
O2	O	0.635029	-0.211067	0.583381
O3	O	0.431706	-0.059663	0.734747
O4	O	0.533363	-0.211060	0.734766
O5	O	0.533375	0.059756	0.583362
O6	O	0.533359	-0.211053	0.854197
O7	O	0.533371	-0.059670	0.583361
O8	O	0.351513	0.059768	0.854163
O9	O	0.715221	-0.211066	0.583396
O10	O	0.473518	-0.044507	0.839035
O11	O	0.473523	0.044614	0.749906
O12	O	0.593211	-0.133636	0.749928
O13	O	0.593216	-0.044515	0.660798
Zr14	Zr	0.533367	0.095295	0.889722
Zr15	Zr	0.533362	-0.095175	0.889721
Zr16	Zr	0.533373	0.095285	0.699243
Zr17	Zr	0.661265	-0.095184	0.699267
Zr18	Zr	0.405469	0.095293	0.889697
O19	O	0.635029	0.059773	0.854217
O20	O	0.635021	-0.211052	0.854217
O21	O	0.635036	0.059757	0.583381
O22	O	0.431706	0.211177	1.005583
O23	O	0.431698	-0.059648	1.005583
O24	O	0.431713	0.211161	0.734748
O25	O	0.533359	-0.059646	1.005602
O26	O	0.533371	0.211170	0.854198
O27	O	0.533375	0.211163	0.734767
O28	O	0.533363	0.059780	1.005603
O29	O	0.715217	-0.211057	0.734801
O30	O	0.351517	0.211167	0.854163
O31	O	0.351513	0.211175	1.005568
O32	O	0.351509	0.059777	1.005568
O33	O	0.715225	-0.059667	0.583396
O34	O	0.715221	-0.059658	0.734801
O35	O	0.473523	0.133746	0.839036
O36	O	0.473518	0.044624	0.928166
O37	O	0.593211	-0.044505	0.839058
O38	O	0.593216	0.044616	0.749929
C39	C	0.373387	0.000052	0.794451
C40	C	0.319091	0.000051	0.794441
C41	C	0.533374	0.000041	0.556222
C42	C	0.533376	0.000037	0.475359
C43	C	0.533374	0.238304	0.794483
C44	C	0.533376	0.319164	0.794483
C45	C	-0.017654	-0.046458	0.841032
C46	C	-0.068678	-0.046455	0.841040
O47	O	-0.095086	-0.085992	0.880634
N48	N	-0.094191	0.000063	0.794514
C49	C	-0.068683	0.046590	0.747985
O50	O	-0.095070	0.086158	0.708412
C51	C	-0.017664	0.046592	0.747982
C52	C	0.007852	0.000063	0.794504
C53	C	0.007861	-0.092982	0.887550
C54	C	0.058883	-0.092986	0.887540
C55	C	0.084389	-0.046465	0.841012
C56	C	0.058873	0.000059	0.794494
C57	C	0.007840	0.093123	0.701459
C58	C	0.058862	0.093122	0.701461
C59	C	0.084378	0.046593	0.747982
C60	C	0.135401	0.046577	0.747956
N61	N	0.160914	0.000058	0.794482
C62	C	0.135408	-0.046463	0.841010
C63	C	-0.175828	0.046583	0.747994
C64	C	-0.226843	0.046576	0.747991
C65	C	-0.226835	-0.046468	0.841048
C66	C	-0.175816	-0.046466	0.841045
C67	C	-0.150315	0.000064	0.794520
C68	C	0.242557	-0.046467	0.840986
C69	C	0.293585	-0.046470	0.840969
C70	C	0.293570	0.046578	0.747916
C71	C	0.242549	0.046577	0.747929
C72	C	0.217042	0.000052	0.794470
O73	O	0.161839	0.086096	0.708385
O74	O	0.161795	-0.086015	0.880585
C75	C	0.693348	0.000058	0.794513
C76	C	0.747644	0.000058	0.794523
C77	C	0.533360	-0.238195	0.794481
C78	C	0.533358	-0.319055	0.794481
C79	C	0.533356	0.615279	0.794484
C80	C	0.533358	0.532893	0.794486
C81	C	0.533366	0.467224	0.794484
C82	C	0.533369	0.384833	0.794485
C83	C	0.533379	0.000037	0.409689
C84	C	0.533376	0.000045	0.327307
C85	C	0.533369	0.000055	0.261649
C86	C	0.533365	0.000062	0.179263
C87	C	0.533360	0.000068	1.032742
C88	C	0.533358	0.000073	1.113605
C89	C	0.373380	0.000066	1.032711
C90	C	0.319082	0.000069	1.113564
C91	C	0.373393	0.238301	0.794452
C92	C	0.319100	0.319160	0.794442
C93	C	0.373387	0.238315	1.032711
C94	C	0.319091	0.319178	1.113564
C95	C	0.693348	-0.238206	0.556253
C96	C	0.747644	-0.319069	0.475400
C97	C	0.693354	0.000044	0.556253
C98	C	0.747653	0.000040	0.475400
C99	C	0.693341	-0.238192	0.794512
C100	C	0.747634	-0.319051	0.794522
C101	C	0.293583	-0.046463	1.105008
C102	C	0.242571	-0.046477	1.180970
C103	C	0.217055	0.000046	1.265488
C104	C	0.242559	0.046580	1.274042
C105	C	0.293574	0.046588	1.198080
C106	C	0.293603	0.403666	0.840962
C107	C	0.242595	0.479649	0.840949
C108	C	0.217082	0.471124	0.794420
C109	C	0.242584	0.386609	0.747894
C110	C	0.293594	0.310628	0.747903
C111	C	0.293590	0.310632	1.198067
C112	C	0.242580	0.386605	1.274044
C113	C	0.217069	0.471123	1.265517
C114	C	0.242574	0.479667	1.181006
C115	C	0.293587	0.403695	1.105030
C116	C	0.773150	-0.310523	0.390897
C117	C	0.824176	-0.386495	0.314920
C118	C	0.849690	-0.471013	0.323447
C119	C	0.824181	-0.479557	0.407958
C120	C	0.773160	-0.403586	0.483934
C121	C	0.773157	0.046564	0.483956
C122	C	0.824183	0.046558	0.407994
C123	C	0.849700	0.000032	0.323476
C124	C	0.824194	-0.046498	0.314922
C125	C	0.773172	-0.046496	0.390884
C126	C	0.773131	-0.310497	0.841060
C127	C	0.824139	-0.386465	0.841087
C128	C	0.849653	-0.470986	0.794571
C129	C	0.824151	-0.479538	0.748032
C130	C	0.773140	-0.403571	0.748010
H131	H	0.314359	-0.084362	0.878851
F132	F	0.746004	-0.220580	0.381802
F133	F	0.320724	0.096085	0.698400
F134	F	0.320703	0.096122	1.207200
F135	F	0.904002	0.000039	0.242638
H136	H	0.314370	0.410624	0.878851
H137	H	0.844978	-0.084378	0.246098
F138	F	0.215416	0.569624	1.171944
H139	H	0.221838	0.548457	0.878839
F140	F	0.162760	0.000030	1.346326
F141	F	0.746010	0.096085	0.573899
F142	F	0.162776	0.551972	1.346385
F143	F	0.851313	-0.377383	0.224986
H144	H	0.891235	-0.532867	0.261576
H145	H	0.221804	0.379681	0.710012
F146	F	0.215395	0.096092	1.363999
F147	F	0.745987	-0.220551	0.890573
H148	H	0.221819	0.379632	1.342849
F149	F	0.746015	-0.412688	0.698468
H150	H	0.175547	0.532999	0.794421
F151	F	0.320721	0.220693	0.698391
F152	F	0.903944	-0.551830	0.794599
H153	H	0.752393	-0.410555	0.552737
F154	F	0.320735	0.220690	1.207162
F155	F	0.851341	-0.569515	0.417020
F156	F	0.851318	0.096086	0.417116
H157	H	0.314343	0.410666	1.036228
H158	H	0.752408	-0.084379	0.383905
H159	H	0.844898	-0.379485	0.878983
H160	H	0.221794	-0.084350	0.878885
F161	F	0.086030	-0.142506	0.937058
H162	H	0.844932	-0.548365	0.710159
H163	H	0.314357	-0.084358	1.036197
H164	H	0.079624	0.131012	0.663572
H165	H	-0.155044	-0.084353	0.878927
F166	F	-0.019274	-0.142504	0.937072
H167	H	-0.247613	-0.084346	0.878935
H168	H	-0.155064	0.084468	0.710098
F169	F	-0.019306	0.142649	0.651946
F170	F	-0.253985	0.096085	0.698464
H171	H	0.221781	0.084452	0.710036
H172	H	0.221812	-0.084370	1.173988
