data_functionalizedCrystal
_audit_creation_method	'MofGen! by Chris Wilmer'
_symmetry_space_group_name_H-M	'P1'
_symmetry_Int_Tables_number	1
_symmetry_cell_setting	triclinic
loop_
_symmetry_equiv_pos_as_xyz
  x,y,z
_cell_length_a	10.489741
_cell_length_b	11.792241
_cell_length_c	10.268362
_cell_angle_alpha	90.005428
_cell_angle_beta	90.001881
_cell_angle_gamma	84.366295
loop_
_atom_site_label
_atom_site_type_symbol
_atom_site_fract_x
_atom_site_fract_y
_atom_site_fract_z
O1	O	-1.693508	-0.160138	-0.108220
O2	O	-1.193508	0.339862	0.391780
O3	O	-1.322261	-0.175169	-0.108241
O4	O	-0.822261	0.324831	0.391759
O5	O	-1.516894	-0.002507	-0.108221
O6	O	-1.016894	0.497493	0.391779
O7	O	-1.498876	-0.332799	-0.108240
O8	O	-0.998876	0.167201	0.391760
O9	O	-1.516877	-0.002500	0.108380
O10	O	-1.016877	0.497500	0.608380
O11	O	-1.322244	-0.175162	0.108360
O12	O	-0.822244	0.324838	0.608360
O13	O	-1.693491	-0.160130	0.108380
O14	O	-1.193491	0.339870	0.608380
Cu15	Cu	-1.507866	-0.167645	0.128148
Cu16	Cu	-1.007866	0.332355	0.628148
Cu17	Cu	-1.507886	-0.167654	-0.128008
Cu18	Cu	-1.007886	0.332346	0.371992
O19	O	-1.498858	-0.332792	0.108361
O20	O	-0.998858	0.167208	0.608361
C21	C	-1.274725	-0.174030	0.000057
C22	C	-0.774725	0.325970	0.500057
C23	C	-1.133107	-0.170633	0.000050
C24	C	-0.633107	0.329367	0.500050
C25	C	-1.515753	0.039791	0.000079
C26	C	-1.015753	0.539791	0.500079
C27	C	-1.512366	0.165813	0.000078
C28	C	-1.012366	0.665813	0.500078
C29	C	-1.741027	-0.161269	0.000080
C30	C	-1.241027	0.338731	0.500080
C31	C	-1.882645	-0.164666	0.000079
C32	C	-1.382645	0.335334	0.500079
C33	C	-1.065341	-0.060774	0.000068
C34	C	-0.565341	0.439226	0.500068
C35	C	-0.973046	-0.112674	-0.106727
C36	C	-0.473046	0.387326	0.393273
C37	C	-0.973063	-0.112693	0.106824
C38	C	-0.473063	0.387307	0.606824
C39	C	-1.042677	-0.222579	-0.106834
C40	C	-0.542677	0.277421	0.393166
C41	C	-1.042704	-0.222583	0.106813
C42	C	-0.542704	0.277417	0.606813
C43	C	-0.950436	-0.274563	-0.000009
C44	C	-0.450436	0.225437	0.499991
C45	C	-1.499999	-0.375090	0.000058
C46	C	-0.999999	0.124910	0.500058
C47	C	-1.503387	-0.501113	0.000051
C48	C	-1.003387	-0.001113	0.500051
N49	N	-1.507861	-0.167639	0.308313
N50	N	-1.007861	0.332361	0.808313
C51	C	-1.506136	0.396542	0.000055
C52	C	-1.006136	0.896542	0.500055
C53	C	-1.509598	0.268148	0.000067
C54	C	-1.009598	0.768148	0.500067
N55	N	-1.507901	-0.167652	-0.308174
N56	N	-1.007901	0.332348	0.191826
C57	C	-1.507880	-0.167652	0.573984
C58	C	-1.007880	0.332348	1.073984
C59	C	-1.507865	-0.167648	0.426146
C60	C	-1.007865	0.332352	0.926146
H61	H	-1.115339	0.029538	-0.000060
H62	H	-0.615339	0.529538	0.499940
H63	H	-1.073584	-0.269026	0.197101
H64	H	-0.573584	0.230974	0.697101
O65	O	-0.932235	-0.051107	0.226434
O66	O	-0.432235	0.448893	0.726434
H67	H	-0.978707	0.037610	0.226204
H68	H	-0.478707	0.537610	0.726204
O69	O	-1.083322	-0.284069	-0.226588
O70	O	-0.583322	0.215931	0.273412
H71	H	-1.131756	-0.359487	-0.196708
H72	H	-0.631756	0.140513	0.303292
H73	H	-0.900704	-0.364970	-0.000072
H74	H	-0.400704	0.135030	0.499928
O75	O	-0.932157	-0.051112	-0.226313
O76	O	-0.432157	0.448888	0.273687
H77	H	-0.978598	0.037615	-0.226089
H78	H	-0.478598	0.537615	0.273911
