data_functionalizedCrystal
_audit_creation_method	'MofGen! by Chris Wilmer'
_symmetry_space_group_name_H-M	'P1'
_symmetry_Int_Tables_number	1
_symmetry_cell_setting	triclinic
loop_
_symmetry_equiv_pos_as_xyz
  x,y,z
_cell_length_a	6.817900
_cell_length_b	10.992469
_cell_length_c	16.255661
_cell_angle_alpha	93.805911
_cell_angle_beta	103.488922
_cell_angle_gamma	108.765624
loop_
_atom_site_label
_atom_site_type_symbol
_atom_site_fract_x
_atom_site_fract_y
_atom_site_fract_z
V1	V	-4.053780	-0.178799	-0.263859
O2	O	-4.013051	0.007524	-0.258849
O3	O	-4.031779	-0.353500	-0.262042
O4	O	-4.004996	-0.176517	-0.378942
O5	O	-4.040020	-0.170685	-0.141139
V6	V	-4.534037	-0.156457	-0.249182
O7	O	-4.322203	-0.227807	-0.296054
O8	O	-4.715811	-0.107449	-0.216987
O9	O	-4.332831	0.018245	-0.250999
O10	O	-4.692162	-0.342779	-0.254193
O11	O	-4.665194	-0.164571	-0.371902
O12	O	-4.359613	-0.158739	-0.134099
C13	C	-3.883214	-0.396074	-0.257877
C14	C	-3.946511	-0.538898	-0.257159
C15	C	-3.749363	-0.585376	-0.251786
C16	C	-3.815313	-0.734011	-0.251371
C17	C	-4.192297	-0.765871	-0.339732
C18	C	-4.124994	-0.617228	-0.340502
C19	C	-4.038367	-0.578291	-0.178889
C20	C	-4.099540	-0.726504	-0.176993
C21	C	-3.849049	-0.170313	-0.406993
C22	C	-3.890621	-0.169603	-0.501075
C23	C	-3.799895	-0.161127	-0.723894
C24	C	-3.972871	-0.270520	-0.793362
C25	C	-3.966805	-0.168273	-0.673323
C26	C	-3.867929	-0.057628	-0.771492
C27	C	-4.040377	-0.166982	-0.839707
C28	C	-4.139278	-0.277763	-0.741562
C29	C	-4.034258	-0.064775	-0.719676
C30	C	-4.207376	-0.174198	-0.789125
C31	C	-3.924416	-0.169017	-0.577474
C32	C	-4.082784	-0.166247	-0.935556
C33	C	-4.144738	0.060812	-0.255162
C34	C	-4.060681	0.203635	-0.255886
C35	C	-4.178903	-0.164947	-0.106043
C36	C	-4.116568	-0.165650	-0.011961
H37	H	-3.777250	-0.780539	-0.307631
Cl38	Cl	-4.354285	-0.572078	-0.352565
Cl39	Cl	-3.540247	-0.503816	-0.159249
Cl40	Cl	-4.033575	-0.582017	-0.431877
Cl41	Cl	-4.470198	-0.830405	-0.349561
Cl42	Cl	-4.265266	-0.532691	-0.183753
Cl43	Cl	-3.533465	-0.152811	-0.679917
H44	H	-4.166594	-0.814944	-0.398329
Cl45	Cl	-4.315778	-0.421556	-0.720766
H46	H	-4.380090	-0.179754	-0.817472
H47	H	-3.679074	-0.558925	-0.308011
Cl48	Cl	-3.933500	-0.404817	-0.842894
H49	H	-3.712556	-0.753411	-0.191116
Cl50	Cl	-3.849928	-0.493667	-0.081785
Cl51	Cl	-3.947855	-0.754231	-0.081297
H52	H	-4.274607	-0.768148	-0.175397
H53	H	-4.059684	0.022215	-0.687573
H54	H	-3.753614	0.035381	-0.785108
