data_functionalizedCrystal
_audit_creation_method	'MofGen! by Chris Wilmer'
_symmetry_space_group_name_H-M	'P1'
_symmetry_Int_Tables_number	1
_symmetry_cell_setting	triclinic
loop_
_symmetry_equiv_pos_as_xyz
  x,y,z
_cell_length_a	23.532407
_cell_length_b	17.038272
_cell_length_c	15.500227
_cell_angle_alpha	86.966746
_cell_angle_beta	92.821287
_cell_angle_gamma	86.980117
loop_
_atom_site_label
_atom_site_type_symbol
_atom_site_fract_x
_atom_site_fract_y
_atom_site_fract_z
O1	O	-0.762716	-0.091231	-0.071836
O2	O	-0.597575	-0.104957	-0.071862
O3	O	-0.679164	0.015714	-0.071842
O4	O	-0.681127	-0.211902	-0.071856
O5	O	-0.674211	0.008420	0.072045
O6	O	-0.592623	-0.112251	0.072026
O7	O	-0.757763	-0.098525	0.072051
Cu8	Cu	-0.674741	-0.106054	0.085177
Cu9	Cu	-0.680598	-0.097428	-0.084987
O10	O	-0.676175	-0.219196	0.072032
C11	C	-0.573865	-0.108255	0.000079
C12	C	-0.510593	-0.107203	0.000069
C13	C	-0.674902	0.041182	0.000101
C14	C	-0.669576	0.127935	0.000100
C15	C	-0.781474	-0.095228	0.000109
C16	C	-0.844746	-0.096279	0.000113
C17	C	-0.114896	-0.172024	0.000105
C18	C	-0.055444	-0.171048	0.000110
O19	O	-0.021858	-0.231137	0.000138
N20	N	-0.029046	-0.099309	0.000113
C21	C	-0.062103	-0.028541	0.000119
O22	O	-0.034191	0.032568	0.000123
C23	C	-0.121554	-0.029518	0.000120
C24	C	-0.147949	-0.101262	0.000108
C25	C	-0.141291	-0.243762	0.000094
C26	C	-0.200739	-0.244737	0.000087
C27	C	-0.233791	-0.173975	0.000091
C28	C	-0.207396	-0.102238	0.000101
C29	C	-0.154610	0.041248	0.000132
C30	C	-0.214064	0.040264	0.000134
C31	C	-0.240458	-0.031479	0.000122
C32	C	-0.299897	-0.032451	0.000098
N33	N	-0.326294	-0.104190	0.000095
C34	C	-0.293242	-0.174952	0.000092
C35	C	0.062747	-0.026495	0.000119
C36	C	0.122196	-0.025516	0.000112
C37	C	0.128851	-0.168023	0.000104
C38	C	0.069401	-0.169000	0.000105
C39	C	0.036349	-0.098234	0.000116
C40	C	-0.418087	-0.176996	0.000076
C41	C	-0.477540	-0.177965	0.000066
C42	C	-0.484190	-0.035459	0.000078
C43	C	-0.424742	-0.034489	0.000084
C44	C	-0.391691	-0.105264	0.000086
O45	O	-0.333519	0.027606	0.000074
O46	O	-0.321162	-0.236052	0.000099
C47	C	-0.680436	-0.244664	0.000087
C48	C	-0.685763	-0.331417	0.000082
N49	N	-0.670626	-0.112121	0.204861
C50	C	-0.718480	0.178411	0.000109
C51	C	-0.713472	0.259925	0.000100
C52	C	-0.659559	0.290961	0.000088
C53	C	-0.610651	0.240479	0.000077
C54	C	-0.615660	0.158967	0.000080
C55	C	-0.641864	0.536589	0.000074
C56	C	-0.636859	0.618107	0.000074
C57	C	-0.739681	0.637548	0.000094
C58	C	-0.744684	0.556033	0.000102
C59	C	-0.695777	0.505558	0.000087
C60	C	-0.654438	0.374281	0.000082
C61	C	-0.700898	0.422240	0.000087
N62	N	-0.684717	-0.091355	-0.204671
C63	C	-0.705211	-0.061007	0.250146
C64	C	-0.702105	-0.065602	0.340718
C65	C	-0.664415	-0.121316	0.386003
C66	C	-0.629825	-0.172432	0.340712
C67	C	-0.632929	-0.167832	0.250142
C68	C	-0.653232	-0.137872	0.659467
C69	C	-0.650131	-0.142469	0.750044
C70	C	-0.722410	-0.035638	0.750044
C71	C	-0.725514	-0.031047	0.659471
C72	C	-0.690922	-0.082160	0.614188
C73	C	-0.661240	-0.126016	0.478582
C74	C	-0.694095	-0.077456	0.521611
H75	H	-0.391183	-0.234628	0.000081
H76	H	-0.788586	0.530770	0.000112
H77	H	-0.240972	0.097893	0.000143
C78	C	-0.144543	0.166777	-0.073802
C79	C	-0.125610	0.120114	0.000154
H80	H	-0.126643	0.215471	-0.073783
H81	H	-0.135144	0.140217	-0.123976
H82	H	-0.184682	0.176301	-0.073796
H83	H	-0.085471	0.110585	0.000144
H84	H	-0.135005	0.146680	0.050340
H85	H	-0.753295	0.301020	0.000108
H86	H	0.035839	0.031136	0.000120
H87	H	-0.222224	-0.303158	0.000077
C88	C	-0.771815	0.062094	0.000128
C89	C	-0.777743	0.144299	0.000123
H90	H	-0.808403	0.041038	0.000140
H91	H	-0.753243	0.047284	-0.050049
H92	H	-0.749785	0.042208	0.050305
H93	H	-0.799770	0.164186	-0.050059
H94	H	-0.796323	0.159115	0.050304
H95	H	-0.575836	0.117869	0.000073
H96	H	0.047914	-0.227420	0.000101
H97	H	-0.735905	-0.015643	0.213280
H98	H	-0.499027	-0.236390	0.000056
H99	H	-0.779498	0.678653	0.000105
H100	H	-0.592954	0.643372	0.000078
C101	C	-0.505634	0.081951	0.074054
C102	C	-0.520526	0.042323	0.000082
H103	H	-0.528065	0.129973	0.074055
H104	H	-0.512288	0.049968	0.124216
H105	H	-0.466449	0.092799	0.074048
H106	H	-0.559710	0.031470	0.000091
H107	H	-0.513877	0.074313	-0.050094
C108	C	-0.773876	0.040435	0.331620
C109	C	-0.740132	-0.009428	0.390495
H110	H	-0.797357	0.075110	0.362352
H111	H	-0.750033	0.070186	0.296310
H112	H	-0.797130	0.009822	0.296278
H113	H	-0.716875	0.021185	0.425832
H114	H	-0.763978	-0.039182	0.425819
H115	H	-0.602039	0.495501	0.000061
H116	H	-0.566754	0.265755	0.000063
C117	C	-0.140701	-0.384715	0.000071
C118	C	-0.104966	-0.321552	0.000083
H119	H	-0.118277	-0.432742	0.000053
H120	H	-0.162299	-0.384674	0.050248
H121	H	-0.165755	-0.379569	-0.050106
H122	H	-0.079914	-0.326695	0.050263
H123	H	-0.083358	-0.321594	-0.050100
H124	H	0.155774	-0.225642	0.000106
C125	C	-0.364279	0.053036	-0.073871
C126	C	-0.395724	0.044371	0.000089
H127	H	-0.346371	0.101723	-0.073862
H128	H	-0.336087	0.011037	-0.073861
H129	H	-0.389057	0.052237	-0.124047
H130	H	-0.370945	0.045164	0.050266
H131	H	-0.423919	0.086381	0.000087
H132	H	-0.625067	-0.179492	0.622605
H133	H	-0.744794	0.396968	0.000077
H134	H	-0.610542	0.399560	0.000075
H135	H	-0.756204	0.014319	0.622602
H136	H	-0.750573	0.005977	0.786922
C137	C	-0.549683	-0.195102	0.442588
C138	C	-0.588396	-0.233672	0.390492
H139	H	-0.524110	-0.232912	0.473322
H140	H	-0.528842	-0.160925	0.407266
H141	H	-0.569845	-0.165320	0.482516
H142	H	-0.568234	-0.263449	0.350560
H143	H	-0.609240	-0.267862	0.425817
C144	C	-0.578979	-0.247590	0.740953
C145	C	-0.608691	-0.203703	0.799824
H146	H	-0.553394	-0.285386	0.771687
H147	H	-0.605241	-0.273756	0.705621
H148	H	-0.558143	-0.213392	0.705633
H149	H	-0.629530	-0.237901	0.835140
H150	H	-0.582425	-0.177536	0.835171
H151	H	-0.604765	-0.209454	0.213271
H152	H	-0.724780	-0.032091	0.484736
H153	H	0.143681	0.032905	0.000108
C154	C	-0.581103	-0.148685	0.580461
C155	C	-0.619816	-0.187258	0.528370
H156	H	-0.555532	-0.186494	0.611204
H157	H	-0.560259	-0.114515	0.545136
H158	H	-0.601265	-0.118895	0.620382
H159	H	-0.599654	-0.217043	0.488444
H160	H	-0.640662	-0.221442	0.563698
