data_functionalizedCrystal
_audit_creation_method	'MofGen! by Chris Wilmer'
_symmetry_space_group_name_H-M	'P1'
_symmetry_Int_Tables_number	1
_symmetry_cell_setting	triclinic
loop_
_symmetry_equiv_pos_as_xyz
  x,y,z
_cell_length_a	6.817900
_cell_length_b	11.168121
_cell_length_c	16.255661
_cell_angle_alpha	93.883604
_cell_angle_beta	103.488922
_cell_angle_gamma	108.508496
loop_
_atom_site_label
_atom_site_type_symbol
_atom_site_fract_x
_atom_site_fract_y
_atom_site_fract_z
V1	V	-4.052428	-0.175725	-0.263878
O2	O	-4.013108	0.007395	-0.258848
O3	O	-4.029107	-0.347423	-0.262080
O4	O	-4.003662	-0.173482	-0.378961
O5	O	-4.038730	-0.167750	-0.141158
V6	V	-4.532854	-0.153767	-0.249199
O7	O	-4.320481	-0.223890	-0.296078
O8	O	-4.714999	-0.105601	-0.216999
O9	O	-4.332969	0.017931	-0.250997
O10	O	-4.689571	-0.336886	-0.254229
O11	O	-4.663950	-0.161741	-0.371919
O12	O	-4.358414	-0.156010	-0.134116
C13	C	-3.880221	-0.389265	-0.257919
C14	C	-3.942438	-0.529634	-0.257217
C15	C	-3.847762	-0.167385	-0.407012
C16	C	-3.889340	-0.166687	-0.501093
C17	C	-4.144141	-0.598340	-0.260917
C18	C	-4.208449	-0.743419	-0.260191
C19	C	-3.798677	-0.158357	-0.723911
C20	C	-3.970827	-0.265869	-0.793392
C21	C	-3.965533	-0.165380	-0.673341
C22	C	-3.867493	-0.056637	-0.771498
C23	C	-4.039115	-0.164111	-0.839725
C24	C	-4.137179	-0.272987	-0.741592
C25	C	-4.033769	-0.063661	-0.719683
C26	C	-4.206060	-0.171203	-0.789144
C27	C	-3.923139	-0.166112	-0.577492
C28	C	-4.081528	-0.163389	-0.935573
C29	C	-4.145198	0.059767	-0.255155
C30	C	-4.062220	0.200134	-0.255864
C31	C	-4.177657	-0.162111	-0.106061
C32	C	-4.115317	-0.162802	-0.011979
H33	H	-4.269220	-0.549758	-0.264628
O34	O	-3.592763	-0.151817	-0.689860
C35	C	-3.483982	-0.040631	-0.628556
H36	H	-3.567275	0.032496	-0.642342
H37	H	-3.310723	0.001322	-0.631877
H38	H	-3.485983	-0.065800	-0.561880
H39	H	-3.753881	0.034772	-0.785104
H40	H	-3.944665	-0.351359	-0.825481
O41	O	-4.414668	-0.813672	-0.263937
C42	C	-4.538152	-0.733014	-0.268125
H43	H	-4.428085	-0.630706	-0.240445
H44	H	-4.660191	-0.765963	-0.229607
H45	H	-4.626033	-0.737151	-0.337707
O46	O	-4.272495	-0.382148	-0.725389
C47	C	-4.231310	-0.381521	-0.636210
H48	H	-4.060413	-0.315195	-0.603370
H49	H	-4.250530	-0.482467	-0.621773
H50	H	-4.349679	-0.346397	-0.611374
O51	O	-3.856073	-0.729263	-0.251973
C52	C	-3.770670	-0.635191	-0.178456
H53	H	-3.907357	-0.615350	-0.157672
H54	H	-3.661410	-0.543580	-0.193696
H55	H	-3.674184	-0.670572	-0.124552
H56	H	-3.817364	-0.578218	-0.253515
O57	O	-4.412175	-0.177938	-0.822953
C58	C	-4.554032	-0.292059	-0.808001
H59	H	-4.468998	-0.364933	-0.797592
H60	H	-4.700614	-0.331847	-0.865670
H61	H	-4.607194	-0.271682	-0.748651
H62	H	-4.059852	0.021833	-0.687571
