data_functionalizedCrystal
_audit_creation_method	'MofGen! by Chris Wilmer'
_symmetry_space_group_name_H-M	'P1'
_symmetry_Int_Tables_number	1
_symmetry_cell_setting	triclinic
loop_
_symmetry_equiv_pos_as_xyz
  x,y,z
_cell_length_a	14.908571
_cell_length_b	18.101397
_cell_length_c	14.909241
_cell_angle_alpha	93.329944
_cell_angle_beta	96.789245
_cell_angle_gamma	86.716412
loop_
_atom_site_label
_atom_site_type_symbol
_atom_site_fract_x
_atom_site_fract_y
_atom_site_fract_z
Zn1	Zn	1.413360	-0.333842	0.591492
Zn2	Zn	1.913360	0.166158	1.091492
Zn3	Zn	1.404522	-0.464448	0.440111
Zn4	Zn	1.904522	0.035552	0.940111
Zn5	Zn	1.253256	-0.333860	0.431423
Zn6	Zn	1.753256	0.166140	0.931423
Zn7	Zn	1.261959	-0.450880	0.582714
Zn8	Zn	1.761959	0.049120	1.082714
O9	O	1.333274	-0.395758	0.511435
O10	O	1.833274	0.104242	1.011435
O11	O	1.538855	-0.356838	0.578720
O12	O	2.038855	0.143162	1.078720
O13	O	1.377115	-0.452811	0.312289
O14	O	1.877115	0.047189	0.812289
O15	O	1.274551	-0.230226	0.452694
O16	O	1.774551	0.269774	0.952694
O17	O	1.532361	-0.452794	0.467501
O18	O	2.032361	0.047206	0.967501
O19	O	1.392179	-0.230213	0.570296
O20	O	1.892179	0.269787	1.070296
O21	O	1.265981	-0.356869	0.305906
O22	O	1.765981	0.143131	0.805906
O23	O	1.127744	-0.343712	0.444183
O24	O	1.627744	0.156288	0.944183
O25	O	1.289383	-0.429669	0.710548
O26	O	1.789383	0.070331	1.210548
O27	O	1.134137	-0.429686	0.555336
O28	O	1.634137	0.070314	1.055336
O29	O	1.400617	-0.343682	0.716996
O30	O	1.900617	0.156318	1.216996
O31	O	1.385553	-0.566280	0.458990
O32	O	1.885553	-0.066280	0.958990
O33	O	1.280813	-0.556312	0.563760
O34	O	1.780813	-0.056312	1.063760
C35	C	1.098097	-0.385229	0.497864
C36	C	1.598097	0.114771	0.997864
C37	C	0.997488	-0.380742	0.492080
C38	C	1.497488	0.119258	0.992080
C39	C	0.815131	-0.461989	0.596799
C40	C	1.315131	0.038011	1.096799
C41	C	0.720601	-0.457775	0.591368
C42	C	1.220601	0.042225	1.091368
C43	C	0.713895	-0.368097	0.475791
C44	C	1.213895	0.131903	0.975791
C45	C	0.808426	-0.372311	0.481222
C46	C	1.308426	0.127689	0.981222
C47	C	0.859041	-0.419259	0.541728
C48	C	1.359041	0.080741	1.041728
C49	C	0.953573	-0.423477	0.547154
C50	C	1.453573	0.076523	1.047154
C51	C	0.946866	-0.333795	0.431582
C52	C	1.446866	0.166205	0.931582
C53	C	0.852335	-0.329582	0.426151
C54	C	1.352335	0.170418	0.926151
C55	C	1.333194	-0.588167	0.511387
C56	C	1.833194	-0.088167	1.011387
C57	C	1.333245	-0.670482	0.511401
C58	C	1.833245	-0.170482	1.011401
C59	C	1.333365	-0.969575	0.511490
C60	C	1.833365	-0.469575	1.011490
C61	C	1.399059	-0.944490	0.445373
C62	C	1.899059	-0.444490	0.945373
C63	C	1.399311	-0.858874	0.445569
C64	C	1.899311	-0.358874	0.945569
C65	C	1.333305	-0.821192	0.511445
C66	C	1.833305	-0.321192	1.011445
C67	C	1.364672	-0.849092	0.608346
C68	C	1.864672	-0.349092	1.108346
C69	C	1.365189	-0.934778	0.607995
C70	C	1.865189	-0.434778	1.107995
C71	C	1.236166	-0.934894	0.481522
C72	C	1.736166	-0.434894	0.981522
C73	C	1.236516	-0.849360	0.479419
C74	C	1.736516	-0.349360	0.979419
C75	C	1.333270	-0.737331	0.511425
C76	C	1.833270	-0.237331	1.011425
C77	C	1.333402	-1.053435	0.511516
C78	C	1.833402	-0.553435	1.011516
C79	C	1.569370	-0.406327	0.525059
C80	C	2.069370	0.093673	1.025059
C81	C	1.669980	-0.410832	0.530865
C82	C	2.169980	0.089168	1.030865
C83	C	1.346957	-0.385160	0.747534
C84	C	1.846957	0.114840	1.247534
C85	C	1.352788	-0.380644	0.848146
C86	C	1.852788	0.119356	1.348146
C87	C	1.333380	-0.202597	0.511505
C88	C	1.833380	0.297403	1.011505
C89	C	1.333425	-0.120284	0.511534
C90	C	1.833425	0.379716	1.011534
C91	C	1.319697	-0.406263	0.276257
C92	C	1.819697	0.093737	0.776257
C93	C	1.314041	-0.410579	0.175656
C94	C	1.814041	0.089421	0.675656
C95	C	1.247919	-0.461713	1.030492
C96	C	1.747919	0.038287	1.530492
C97	C	1.253394	-0.457472	1.125025
C98	C	1.753394	0.042528	1.625025
C99	C	1.369218	-0.367925	1.131748
C100	C	1.869218	0.132075	1.631748
C101	C	1.363743	-0.372166	1.037214
C102	C	1.863743	0.127834	1.537214
C103	C	1.303090	-0.419061	0.986590
C104	C	1.803090	0.080939	1.486590
C105	C	1.297611	-0.423297	0.892054
C106	C	1.797611	0.076703	1.392054
C107	C	1.413439	-0.333755	0.898779
C108	C	1.913439	0.166245	1.398779
C109	C	1.418914	-0.329514	0.993312
C110	C	1.918914	0.170486	1.493312
H111	H	1.379049	-0.840351	0.373891
H112	H	1.879049	-0.340351	0.873891
N113	N	0.659293	-0.317466	0.410536
N114	N	1.159293	0.182534	0.910536
H115	H	0.701452	-0.291035	0.376469
H116	H	1.201452	0.208965	0.876469
H117	H	0.622233	-0.279835	0.445209
H118	H	1.122233	0.220165	0.945209
N119	N	0.797734	-0.278964	0.360880
N120	N	1.297734	0.221036	0.860880
H121	H	0.760656	-0.241285	0.395472
H122	H	1.260656	0.258715	0.895472
H123	H	0.756124	-0.309218	0.316640
H124	H	1.256124	0.190782	0.816640
N125	N	0.994223	-0.287710	0.372172
N126	N	1.494223	0.212290	0.872172
H127	H	1.061789	-0.297504	0.384789
H128	H	1.561789	0.202496	0.884789
H129	H	0.978542	-0.233462	0.385423
H130	H	1.478542	0.266538	0.885423
H131	H	1.458359	-0.299021	0.863023
H132	H	1.958359	0.200979	1.363023
N133	N	1.459519	-0.964089	0.640752
N134	N	1.959519	-0.464089	1.140752
H135	H	1.457924	-0.992400	0.696907
H136	H	1.957924	-0.492400	1.196907
H137	H	1.500316	-0.921298	0.655232
H138	H	2.000316	-0.421298	1.155232
N139	N	0.869730	-0.512626	0.662049
N140	N	1.369730	-0.012626	1.162049
H141	H	0.906794	-0.550299	0.627433
H142	H	1.406794	-0.050299	1.127433
H143	H	0.827511	-0.539008	0.696094
H144	H	1.327511	-0.039008	1.196094
H145	H	1.435120	-0.829739	0.633396
H146	H	1.935120	-0.329739	1.133396
N147	N	0.673239	-0.503863	0.650764
N148	N	1.173239	-0.003863	1.150764
H149	H	0.719651	-0.534242	0.689915
H150	H	1.219651	-0.034242	1.189915
H151	H	0.631863	-0.537997	0.611586
H152	H	1.131863	-0.037997	1.111586
H153	H	1.378980	-0.967589	0.373495
H154	H	1.878980	-0.467589	0.873495
H155	H	1.468298	-0.291336	1.034543
H156	H	1.968298	0.208664	1.534543
H157	H	1.470548	-0.968399	0.465430
H158	H	1.970548	-0.468399	0.965430
H159	H	1.471199	-0.840781	0.465834
H160	H	1.971199	-0.340781	0.965834
H161	H	1.198516	-0.499882	0.989272
H162	H	1.698516	0.000118	1.489272
H163	H	1.208695	-0.958557	0.411799
H164	H	1.708695	-0.458557	0.911799
H165	H	1.319737	-0.950918	0.659253
H166	H	1.819737	-0.450918	1.159253
H167	H	1.208469	-0.492204	1.160767
H168	H	1.708469	0.007796	1.660767
H169	H	1.318525	-0.824133	0.659170
H170	H	1.818525	-0.324133	1.159170
N171	N	1.434640	-0.317357	1.186357
N172	N	1.934640	0.182643	1.686357
H173	H	1.429737	-0.321147	1.252905
H174	H	1.929737	0.178853	1.752905
H175	H	1.419622	-0.264575	1.169049
H176	H	1.919622	0.235425	1.669049
N177	N	1.205310	-0.825530	0.384925
N178	N	1.705310	-0.325530	0.884925
H179	H	1.253660	-0.796606	0.362946
H180	H	1.753660	-0.296606	0.862946
H181	H	1.147768	-0.793307	0.385475
H182	H	1.647768	-0.293307	0.885475
N183	N	1.232194	-0.473878	0.837460
N184	N	1.732194	0.026122	1.337460
H185	H	1.266689	-0.511602	0.800347
H186	H	1.766689	-0.011602	1.300347
H187	H	1.187999	-0.443616	0.795883
H188	H	1.687999	0.056384	1.295883
H189	H	1.184491	-0.823411	0.523606
H190	H	1.684491	-0.323411	1.023606
H191	H	0.994782	-0.461706	0.596419
H192	H	1.494782	0.038294	1.096419
H193	H	1.187151	-0.950554	0.529610
H194	H	1.687151	-0.450554	1.029610
