data_functionalizedCrystal
_audit_creation_method	'MofGen! by Chris Wilmer'
_symmetry_space_group_name_H-M	'P1'
_symmetry_Int_Tables_number	1
_symmetry_cell_setting	triclinic
loop_
_symmetry_equiv_pos_as_xyz
  x,y,z
_cell_length_a	16.109301
_cell_length_b	16.109304
_cell_length_c	14.586319
_cell_angle_alpha	89.999019
_cell_angle_beta	89.998857
_cell_angle_gamma	83.462111
loop_
_atom_site_label
_atom_site_type_symbol
_atom_site_fract_x
_atom_site_fract_y
_atom_site_fract_z
O1	O	1.103132	0.106867	-0.076184
O2	O	1.353132	0.356867	0.173816
O3	O	1.603132	0.606867	0.423816
O4	O	1.853132	0.856867	0.673816
O5	O	0.861070	0.120166	-0.076196
O6	O	1.111070	0.370166	0.173804
O7	O	1.361070	0.620166	0.423804
O8	O	1.611070	0.870166	0.673804
O9	O	0.988749	-0.007514	-0.076190
O10	O	1.238749	0.242486	0.173810
O11	O	1.488749	0.492486	0.423810
O12	O	1.738749	0.742486	0.673810
O13	O	0.975452	0.234547	-0.076190
O14	O	1.225452	0.484547	0.173810
O15	O	1.475452	0.734547	0.423810
O16	O	1.725452	0.984547	0.673810
O17	O	0.988740	-0.007516	0.076290
O18	O	1.238740	0.242484	0.326290
O19	O	1.488740	0.492484	0.576290
O20	O	1.738740	0.742484	0.826290
O21	O	0.861061	0.120164	0.076284
O22	O	1.111061	0.370164	0.326284
O23	O	1.361061	0.620164	0.576284
O24	O	1.611061	0.870164	0.826284
O25	O	1.103123	0.106865	0.076297
O26	O	1.353123	0.356865	0.326297
O27	O	1.603123	0.606865	0.576297
O28	O	1.853123	0.856865	0.826297
Cu29	Cu	0.982091	0.113514	0.090213
Cu30	Cu	1.232091	0.363514	0.340213
Cu31	Cu	1.482091	0.613514	0.590213
Cu32	Cu	1.732091	0.863514	0.840213
Cu33	Cu	0.982102	0.113517	-0.090113
Cu34	Cu	1.232102	0.363517	0.159887
Cu35	Cu	1.482102	0.613517	0.409887
Cu36	Cu	1.732102	0.863517	0.659887
O37	O	0.975444	0.234545	0.076291
O38	O	1.225444	0.484545	0.326291
O39	O	1.475444	0.734545	0.576291
O40	O	1.725444	0.984545	0.826291
C41	C	0.830091	0.119626	0.000042
C42	C	1.080091	0.369626	0.250042
C43	C	1.330091	0.619626	0.500042
C44	C	1.580091	0.869626	0.750042
C45	C	0.737795	0.118011	0.000038
C46	C	0.987795	0.368011	0.250038
C47	C	1.237795	0.618011	0.500038
C48	C	1.487795	0.868011	0.750038
C49	C	0.428798	0.188494	0.000054
C50	C	0.678798	0.438494	0.250054
C51	C	0.928798	0.688494	0.500054
C52	C	1.178798	0.938494	0.750054
C53	C	0.515518	0.190020	0.000048
C54	C	0.765518	0.440020	0.250048
C55	C	1.015518	0.690020	0.500048
C56	C	1.265518	0.940020	0.750048
C57	C	0.535390	0.038531	0.000036
C58	C	0.785390	0.288531	0.250036
C59	C	1.035390	0.538531	0.500036
C60	C	1.285390	0.788531	0.750036
C61	C	0.448671	0.037007	0.000035
C62	C	0.698671	0.287007	0.250035
C63	C	0.948671	0.537007	0.500035
C64	C	1.198671	0.787007	0.750035
C65	C	0.395377	0.111991	0.000048
C66	C	0.645377	0.361991	0.250048
C67	C	0.895377	0.611991	0.500048
C68	C	1.145377	0.861991	0.750048
C69	C	0.568816	0.115040	0.000044
C70	C	0.818816	0.365040	0.250044
C71	C	1.068816	0.615040	0.500044
C72	C	1.318816	0.865040	0.750044
C73	C	0.662842	0.116694	0.000038
C74	C	0.912842	0.366694	0.250038
C75	C	1.162842	0.616694	0.500038
C76	C	1.412842	0.866694	0.750038
C77	C	0.301345	0.110338	0.000052
C78	C	0.551345	0.360338	0.250052
C79	C	0.801345	0.610338	0.500052
C80	C	1.051345	0.860338	0.750052
C81	C	0.988206	-0.038490	0.000048
C82	C	1.238206	0.211510	0.250048
C83	C	1.488206	0.461510	0.500048
C84	C	1.738206	0.711510	0.750048
C85	C	0.986590	-0.130785	0.000042
C86	C	1.236590	0.119215	0.250042
C87	C	1.486590	0.369215	0.500042
C88	C	1.736590	0.619215	0.750042
C89	C	0.982861	-0.343122	-0.083073
C90	C	1.232861	-0.093122	0.166927
C91	C	1.482861	0.156878	0.416927
C92	C	1.732861	0.406878	0.666927
C93	C	0.981335	-0.429842	-0.083072
C94	C	1.231335	-0.179842	0.166928
C95	C	1.481335	0.070158	0.416928
C96	C	1.731335	0.320158	0.666928
C97	C	0.981329	-0.429841	0.083171
C98	C	1.231329	-0.179841	0.333171
C99	C	1.481329	0.070159	0.583171
C100	C	1.731329	0.320159	0.833171
C101	C	0.982850	-0.343122	0.083169
C102	C	1.232850	-0.093122	0.333169
C103	C	1.482850	0.156878	0.583169
C104	C	1.732850	0.406878	0.833169
C105	C	0.983620	-0.299765	0.000045
C106	C	1.233620	-0.049765	0.250045
C107	C	1.483620	0.200235	0.500045
C108	C	1.733620	0.450235	0.750045
C109	C	0.980573	-0.473204	0.000047
C110	C	1.230573	-0.223204	0.250047
C111	C	1.480573	0.026796	0.500047
C112	C	1.730573	0.276796	0.750047
C113	C	0.978919	-0.567230	0.000049
C114	C	1.228919	-0.317230	0.250049
C115	C	1.478919	-0.067230	0.500049
C116	C	1.728919	0.182770	0.750049
C117	C	0.985273	-0.205733	0.000043
C118	C	1.235273	0.044267	0.250043
C119	C	1.485273	0.294267	0.500043
C120	C	1.735273	0.544267	0.750043
C121	C	1.134102	0.107405	0.000056
C122	C	1.384102	0.357405	0.250056
C123	C	1.634102	0.607405	0.500056
C124	C	1.884102	0.857405	0.750056
C125	C	1.226398	0.109020	0.000055
C126	C	1.476398	0.359020	0.250055
C127	C	1.726398	0.609020	0.500055
C128	C	1.976398	0.859020	0.750055
C129	C	0.975987	0.265521	0.000050
C130	C	1.225987	0.515521	0.250050
C131	C	1.475987	0.765521	0.500050
C132	C	1.725987	1.015521	0.750050
C133	C	0.977603	0.357816	0.000051
C134	C	1.227603	0.607816	0.250051
C135	C	1.477603	0.857816	0.500051
C136	C	1.727603	1.107816	0.750051
N137	N	0.982090	0.113512	0.217045
N138	N	1.232090	0.363512	0.467045
N139	N	1.482090	0.613512	0.717045
N140	N	1.732090	0.863512	0.967045
N141	N	0.982110	0.113512	-0.216945
N142	N	1.232110	0.363512	0.033055
N143	N	1.482110	0.613512	0.283055
N144	N	1.732110	0.863512	0.533055
C145	C	1.038645	0.056994	0.452054
C146	C	1.288645	0.306994	0.702054
C147	C	1.538645	0.556994	0.952054
C148	C	1.788645	0.806994	1.202054
C149	C	1.038647	0.056992	0.548035
C150	C	1.288647	0.306992	0.798035
C151	C	1.538647	0.556992	1.048035
C152	C	1.788647	0.806992	1.298035
C153	C	0.925548	0.170033	0.548040
C154	C	1.175548	0.420033	0.798040
C155	C	1.425548	0.670033	1.048040
C156	C	1.675548	0.920033	1.298040
C157	C	0.925543	0.170030	0.452060
C158	C	1.175543	0.420030	0.702060
C159	C	1.425543	0.670030	0.952060
C160	C	1.675543	0.920030	1.202060
C161	C	0.982096	0.113512	0.404070
C162	C	1.232096	0.363512	0.654070
C163	C	1.482096	0.613512	0.904070
C164	C	1.732096	0.863512	1.154070
C165	C	0.982104	0.113513	0.596031
C166	C	1.232104	0.363513	0.846031
C167	C	1.482104	0.613513	1.096031
C168	C	1.732104	0.863513	1.346031
C169	C	0.982106	0.113511	0.700098
C170	C	1.232106	0.363511	0.950098
C171	C	1.482106	0.613511	1.200098
C172	C	1.732106	0.863511	1.450098
C173	C	0.982093	0.113512	0.299996
C174	C	1.232093	0.363512	0.549996
C175	C	1.482093	0.613512	0.799996
C176	C	1.732093	0.863512	1.049996
H177	H	0.578792	-0.022518	0.000027
H178	H	0.828792	0.227482	0.250027
H179	H	1.078792	0.477482	0.500027
H180	H	1.328792	0.727482	0.750027
F181	F	0.865349	0.230183	0.400988
F182	F	1.115349	0.480183	0.650988
F183	F	1.365349	0.730183	0.900988
F184	F	1.615349	0.980183	1.150988
F185	F	0.372081	0.268299	0.000065
F186	F	0.622081	0.518299	0.250065
F187	F	0.872081	0.768299	0.500065
F188	F	1.122081	1.018299	0.750065
H189	H	1.084693	0.010973	0.412983
H190	H	1.334693	0.260973	0.662983
H191	H	1.584693	0.510973	0.912983
H192	H	1.834693	0.760973	1.162983
H193	H	0.879505	0.216050	0.587123
H194	H	1.129505	0.466050	0.837123
H195	H	1.379505	0.716050	1.087123
H196	H	1.629505	0.966050	1.337123
H197	H	0.983462	-0.307819	0.150858
H198	H	1.233462	-0.057819	0.400858
H199	H	1.483462	0.192181	0.650858
H200	H	1.733462	0.442181	0.900858
F201	F	0.551083	0.271445	0.000051
F202	F	0.801083	0.521445	0.250051
F203	F	1.051083	0.771445	0.500051
F204	F	1.301083	1.021445	0.750051
H205	H	1.084694	0.010970	0.587102
H206	H	1.334694	0.260970	0.837102
H207	H	1.584694	0.510970	1.087102
H208	H	1.834694	0.760970	1.337102
H209	H	0.421460	-0.025296	0.000027
H210	H	0.671460	0.224704	0.250027
H211	H	0.921460	0.474704	0.500027
H212	H	1.171460	0.724704	0.750027
H213	H	0.983486	-0.307823	-0.150758
H214	H	1.233486	-0.057823	0.099242
H215	H	1.483486	0.192177	0.349242
H216	H	1.733486	0.442177	0.599242
H217	H	0.980715	-0.465139	-0.150754
H218	H	1.230715	-0.215139	0.099246
H219	H	1.480715	0.034861	0.349246
H220	H	1.730715	0.284861	0.599246
F221	F	0.980510	-0.475991	0.171633
F222	F	1.230510	-0.225991	0.421633
F223	F	1.480510	0.024009	0.671633
F224	F	1.730510	0.274009	0.921633
