data_functionalizedCrystal
_audit_creation_method	'MofGen! by Chris Wilmer'
_symmetry_space_group_name_H-M	'P1'
_symmetry_Int_Tables_number	1
_symmetry_cell_setting	triclinic
loop_
_symmetry_equiv_pos_as_xyz
  x,y,z
_cell_length_a	16.992694
_cell_length_b	11.792241
_cell_length_c	15.455313
_cell_angle_alpha	92.683265
_cell_angle_beta	87.142206
_cell_angle_gamma	87.430819
loop_
_atom_site_label
_atom_site_type_symbol
_atom_site_fract_x
_atom_site_fract_y
_atom_site_fract_z
O1	O	1.044827	0.236106	-0.072022
O2	O	0.816531	0.233463	-0.072048
O3	O	0.936219	0.070068	-0.072029
O4	O	0.925139	0.399501	-0.072042
O5	O	0.929374	0.079370	0.072232
O6	O	0.809687	0.242766	0.072213
O7	O	1.037982	0.245409	0.072239
Cu8	Cu	0.923210	0.244937	0.085398
Cu9	Cu	0.931304	0.233935	-0.085207
O10	O	0.918295	0.408804	0.072219
C11	C	0.783882	0.234716	0.000079
C12	C	0.696795	0.224578	0.000070
C13	C	0.932101	0.032371	0.000102
C14	C	0.930017	-0.093813	0.000101
C15	C	0.646971	0.322395	0.000066
C16	C	0.565143	0.312864	0.000079
C17	C	0.533142	0.205513	0.000088
C18	C	0.582973	0.107688	0.000094
C19	C	0.664799	0.117221	0.000088
C20	C	0.289375	0.166002	0.000113
C21	C	0.207543	0.156476	0.000117
C22	C	0.189719	0.361652	0.000103
C23	C	0.271548	0.371176	0.000091
C24	C	0.321371	0.273351	0.000102
N25	N	0.449501	0.195767	0.000098
N26	N	0.405010	0.283098	0.000098
C27	C	0.926187	-0.324840	0.000086
C28	C	0.928315	-0.196280	0.000094
C29	C	1.070631	0.244155	0.000109
C30	C	1.157718	0.254293	0.000113
C31	C	0.922413	0.446501	0.000087
C32	C	0.924497	0.572684	0.000082
N33	N	0.917522	0.252674	0.205393
N34	N	0.936998	0.226189	-0.205202
C35	C	0.968388	0.183287	0.250795
C36	C	0.964094	0.189150	0.341602
C37	C	0.908938	0.264406	0.387005
C38	C	0.858067	0.333796	0.341597
C39	C	0.862358	0.327927	0.250791
C40	C	0.890417	0.289710	0.658584
C41	C	0.886132	0.295576	0.749396
C42	C	0.992158	0.150928	0.749395
C43	C	0.996447	0.145070	0.658588
C44	C	0.945574	0.214455	0.613187
N45	N	0.904549	0.270403	0.479825
N46	N	0.949959	0.208452	0.520369
H47	H	0.673020	0.409812	0.000058
C48	C	1.020031	0.112789	0.391541
N49	N	1.062159	0.055259	0.429154
C50	C	0.344171	0.058390	0.000119
N51	N	0.385446	-0.022668	0.000122
C52	C	0.547768	-0.010399	0.000106
N53	N	0.521253	-0.099345	0.000112
C54	C	0.510339	0.420473	0.000091
N55	N	0.469060	0.501530	0.000106
H56	H	0.181491	0.069054	0.000123
C57	C	0.806408	0.404268	0.200849
N58	N	0.764265	0.461772	0.163234
H59	H	1.033576	0.094436	0.786369
H60	H	0.705366	0.037568	0.000090
C61	C	0.797387	0.416568	0.391543
N62	N	0.751682	0.478914	0.429162
H63	H	0.841215	0.356864	0.786359
H64	H	1.013305	0.122010	0.213834
H65	H	0.848996	0.346209	0.621625
C66	C	0.306742	0.489271	0.000095
N67	N	0.333249	0.578222	0.000099
C68	C	0.134907	0.469253	0.000102
N69	N	0.093621	0.550302	0.000106
C70	C	1.057119	0.062276	0.608651
N71	N	1.102819	-0.000086	0.571039
