data_functionalizedCrystal
_audit_creation_method	'MofGen! by Chris Wilmer'
_symmetry_space_group_name_H-M	'P1'
_symmetry_Int_Tables_number	1
_symmetry_cell_setting	triclinic
loop_
_symmetry_equiv_pos_as_xyz
  x,y,z
_cell_length_a	14.971491
_cell_length_b	13.448316
_cell_length_c	14.971486
_cell_angle_alpha	89.998233
_cell_angle_beta	96.384818
_cell_angle_gamma	90.003253
loop_
_atom_site_label
_atom_site_type_symbol
_atom_site_fract_x
_atom_site_fract_y
_atom_site_fract_z
O1	O	1.186937	0.082722	-0.116588
O2	O	0.926538	0.082713	-0.130542
O3	O	1.063717	0.082725	0.006635
O4	O	1.049758	0.082710	-0.253765
O5	O	1.063714	-0.082659	0.006646
O6	O	0.926535	-0.082671	-0.130531
O7	O	1.186934	-0.082662	-0.116577
Cu8	Cu	1.056734	-0.097767	-0.123553
Cu9	Cu	1.056738	0.097818	-0.123566
O10	O	1.049755	-0.082674	-0.253754
C11	C	0.893212	0.000020	-0.129912
C12	C	0.793915	0.000018	-0.128039
N13	N	1.056738	-0.235331	-0.123542
C14	C	0.366211	0.090192	-0.119965
C15	C	0.459511	0.090188	-0.121722
C16	C	0.506155	0.000034	-0.122600
C17	C	0.459496	-0.090123	-0.121712
C18	C	0.366198	-0.090118	-0.119949
C19	C	0.653957	-0.090126	-0.125389
C20	C	0.747261	-0.090132	-0.127154
C21	C	0.747271	0.090179	-0.127162
C22	C	0.653973	0.090184	-0.125399
C23	C	0.607319	0.000027	-0.124513
C24	C	1.220261	0.000033	-0.117207
C25	C	1.319557	0.000042	-0.119080
C26	C	1.050381	0.000016	-0.287084
C27	C	1.052252	0.000011	-0.386381
N28	N	1.056741	0.235383	-0.123570
C29	C	1.117597	0.287428	-0.062948
C30	C	1.117601	0.391532	-0.062945
C31	C	1.056744	0.443587	-0.123561
C32	C	0.995884	0.391534	-0.184190
C33	C	0.995886	0.287433	-0.184196
C34	C	0.995885	0.608514	-0.184171
C35	C	0.995882	0.712623	-0.184164
C36	C	1.117600	0.712613	-0.062921
C37	C	1.117601	0.608512	-0.062927
C38	C	1.056741	0.556466	-0.123554
C39	C	0.971663	0.000009	-0.443605
C40	C	0.973426	0.000023	-0.536905
C41	C	1.055779	0.000031	-0.572978
C42	C	1.136374	0.000036	-0.515747
C43	C	1.134610	0.000029	-0.422450
C44	C	1.140045	0.000046	-0.710210
C45	C	1.141810	0.000051	-0.803514
C46	C	0.978861	0.000040	-0.824665
C47	C	0.977097	0.000033	-0.731367
C48	C	1.057693	0.000036	-0.674142
C49	C	1.063091	0.000037	0.039965
C50	C	1.061221	0.000049	0.139262
H51	H	0.328239	0.163606	-0.119257
H52	H	0.907802	0.000024	-0.583493
H53	H	1.200234	0.000035	-0.375858
O54	O	0.504766	0.177787	-0.122741
C55	C	0.471909	0.232640	-0.199708
H56	H	0.439240	0.179888	-0.253326
H57	H	0.420024	0.288851	-0.181190
C58	C	0.590358	0.352678	-0.170515
C59	C	0.550241	0.287886	-0.236372
H60	H	0.638675	0.386760	-0.193130
H61	H	0.612493	0.315725	-0.118658
H62	H	0.547112	0.399512	-0.155089
H63	H	0.593484	0.241046	-0.251788
H64	H	0.528114	0.324832	-0.288232
O65	O	0.608577	0.177694	-0.124427
C66	C	0.564677	0.183098	-0.045991
H67	H	0.554052	0.104823	-0.019917
H68	H	0.607670	0.227592	0.007530
C69	C	0.486050	0.330772	-0.099857
C70	C	0.472993	0.234633	-0.067837
H71	H	0.429497	0.362565	-0.113330
H72	H	0.515629	0.327134	-0.152700
H73	H	0.521880	0.367838	-0.055251
H74	H	0.437174	0.197566	-0.112447
H75	H	0.443407	0.238266	-0.015002
O76	O	0.320762	-0.177626	-0.119208
C77	C	0.256757	-0.183033	-0.195603
H78	H	0.239436	-0.104759	-0.221151
H79	H	0.285670	-0.227528	-0.250484
C80	C	0.192457	-0.330707	-0.139031
C81	C	0.171177	-0.234569	-0.170404
H82	H	0.139669	-0.362500	-0.123489
H83	H	0.235580	-0.327067	-0.087563
H84	H	0.216553	-0.367773	-0.184770
H85	H	0.147093	-0.197500	-0.124661
H86	H	0.128048	-0.238204	-0.221864
H87	H	1.167151	0.245052	-0.013583
O88	O	1.176748	0.441934	-0.003968
C89	C	1.230472	0.373666	0.049521
H90	H	1.193809	0.299457	0.050656
H91	H	1.296878	0.362600	0.020239
C92	C	1.294013	0.505430	0.144579
C93	C	1.248979	0.414288	0.145978
H94	H	1.305433	0.530488	0.204077
H95	H	1.257821	0.551425	0.108541
H96	H	1.349345	0.496196	0.120173
H97	H	1.193643	0.423525	0.170373
H98	H	1.285162	0.368295	0.182023
O99	O	1.176490	0.763136	-0.003773
C100	C	1.128444	0.823130	0.051583
H101	H	1.058552	0.838860	0.015997
H102	H	1.122157	0.782765	0.117554
C103	C	1.264710	0.902623	0.114714
C104	C	1.178870	0.921950	0.071003
H105	H	1.295816	0.963578	0.126697
H106	H	1.297081	0.862201	0.077422
H107	H	1.259459	0.868983	0.169685
H108	H	1.184123	0.955578	0.016028
H109	H	1.146501	0.962379	0.108286
O110	O	0.936740	0.763038	-0.243139
C111	C	0.883014	0.694781	-0.296644
H112	H	0.919673	0.620574	-0.297787
H113	H	0.816605	0.683703	-0.267371
C114	C	0.819493	0.826567	-0.391684
C115	C	0.864521	0.735428	-0.393095
H116	H	0.808082	0.851641	-0.451179
H117	H	0.855686	0.872554	-0.355635
H118	H	0.764157	0.817323	-0.367286
H119	H	0.919861	0.744675	-0.417482
H120	H	0.828337	0.689443	-0.429150
O121	O	0.897077	0.000200	-0.696368
C122	C	0.847934	0.085840	-0.725615
H123	H	0.896088	0.145711	-0.745074
H124	H	0.798154	0.066475	-0.786364
C125	C	0.737304	0.051134	-0.625313
C126	C	0.796449	0.124673	-0.649206
H127	H	0.705542	0.075087	-0.578183
H128	H	0.770411	-0.006565	-0.605611
H129	H	0.695829	0.035004	-0.675944
H130	H	0.837929	0.140793	-0.598579
H131	H	0.763347	0.182376	-0.668898
H132	H	0.946328	0.566142	-0.233544
H133	H	1.167152	0.566128	-0.013564
O134	O	0.936856	0.442055	-0.243197
C135	C	0.951301	0.416612	-0.331814
H136	H	1.022895	0.388002	-0.332509
H137	H	0.901715	0.356185	-0.357920
C138	C	0.849419	0.544235	-0.391557
C139	C	0.937354	0.509104	-0.392412
H140	H	0.840812	0.601286	-0.428939
H141	H	0.839684	0.561374	-0.331855
H142	H	0.808107	0.493870	-0.413311
H143	H	0.978663	0.559464	-0.370649
H144	H	0.947095	0.491975	-0.452113
O145	O	0.936643	0.236915	-0.242991
C146	C	0.848136	0.262361	-0.228144
H147	H	0.847761	0.290972	-0.156512
H148	H	0.821825	0.322788	-0.277637
C149	C	0.787963	0.134738	-0.329813
C150	C	0.787502	0.169871	-0.241830
H151	H	0.750559	0.077688	-0.338258
H152	H	0.847592	0.117597	-0.339818
H153	H	0.766040	0.185103	-0.371046
H154	H	0.809436	0.119511	-0.200599
H155	H	0.727875	0.187001	-0.231818
H156	H	0.904601	-0.000009	-0.414242
H157	H	0.913237	0.000034	-0.871262
O158	O	1.221883	0.000122	-0.838409
C159	C	1.292641	0.000114	-0.767898
H160	H	1.267497	0.031407	-0.704489
H161	H	1.317525	-0.079221	-0.754729
C162	C	1.401167	0.026571	-0.872200
C163	C	1.370287	0.065013	-0.794321
H164	H	1.449064	0.066599	-0.888499
H165	H	1.353497	0.026572	-0.919705
H166	H	1.421897	-0.039542	-0.861215
H167	H	1.349547	0.131119	-0.805309
H168	H	1.417955	0.065024	-0.746817
O169	O	1.218277	-0.000085	-0.654531
C170	C	1.222138	-0.085756	-0.599950
H171	H	1.151135	-0.114313	-0.595158
H172	H	1.263020	-0.145731	-0.630690
C173	C	1.354253	-0.024671	-0.511164
C174	C	1.267045	-0.059740	-0.505272
H175	H	1.381957	-0.008626	-0.452763
H176	H	1.351654	0.033046	-0.547938
H177	H	1.388309	-0.074656	-0.536784
H178	H	1.232987	-0.009751	-0.479663
H179	H	1.269639	-0.117448	-0.468492
O180	O	0.792442	-0.177795	-0.127951
C181	C	0.731259	-0.257368	-0.126801
H182	H	0.668426	-0.230935	-0.097256
H183	H	0.712030	-0.285107	-0.198311
C184	C	0.852454	-0.374994	-0.105144
C185	C	0.775284	-0.342530	-0.068850
H186	H	0.879611	-0.427528	-0.069401
H187	H	0.893675	-0.321385	-0.105922
H188	H	0.836419	-0.398102	-0.164735
H189	H	0.791322	-0.319411	-0.009265
H190	H	0.734067	-0.396138	-0.068060
H191	H	0.785260	0.163588	-0.127885
O192	O	0.608524	-0.177641	-0.124648
C193	C	0.544523	-0.183041	-0.201047
H194	H	0.527203	-0.104764	-0.226588
H195	H	0.573440	-0.227529	-0.255930
C196	C	0.480221	-0.330723	-0.144493
C197	C	0.458942	-0.234581	-0.175858
H198	H	0.427431	-0.362519	-0.128957
H199	H	0.523341	-0.327088	-0.093022
H200	H	0.504319	-0.367783	-0.190234
H201	H	0.434854	-0.197519	-0.130114
H202	H	0.415815	-0.238211	-0.227320
O203	O	0.504785	-0.177724	-0.122402
C204	C	0.492016	-0.232578	-0.044574
H205	H	0.473398	-0.179826	0.010012
H206	H	0.435585	-0.288790	-0.061047
C207	C	0.602317	-0.352613	-0.078083
C208	C	0.579457	-0.287821	-0.011038
H209	H	0.656252	-0.386694	-0.057398
H210	H	0.610917	-0.315660	-0.130520
H211	H	0.555284	-0.399448	-0.091805
H212	H	0.626484	-0.240980	0.002674
H213	H	0.570866	-0.324767	0.041402
O214	O	1.216394	0.000224	-0.550746
C215	C	1.265535	0.085868	-0.521494
H216	H	1.217379	0.145729	-0.502034
H217	H	1.315314	0.066504	-0.460745
C218	C	1.376168	0.051194	-0.621795
C219	C	1.317021	0.124719	-0.597900
H220	H	1.407930	0.075157	-0.668923
H221	H	1.343063	-0.006509	-0.641500
H222	H	1.417642	0.035064	-0.571164
H223	H	1.275541	0.140839	-0.648528
H224	H	1.350120	0.182426	-0.578205
