data_functionalizedCrystal
_audit_creation_method	'MofGen! by Chris Wilmer'
_symmetry_space_group_name_H-M	'P1'
_symmetry_Int_Tables_number	1
_symmetry_cell_setting	triclinic
loop_
_symmetry_equiv_pos_as_xyz
  x,y,z
_cell_length_a	16.120297
_cell_length_b	16.120490
_cell_length_c	12.759399
_cell_angle_alpha	87.107608
_cell_angle_beta	92.874963
_cell_angle_gamma	90.129683
loop_
_atom_site_label
_atom_site_type_symbol
_atom_site_fract_x
_atom_site_fract_y
_atom_site_fract_z
Zn1	Zn	-0.534552	1.247508	-0.532365
Zn2	Zn	-0.395500	1.254478	-0.699619
Zn3	Zn	-0.388472	1.115495	-0.514602
Zn4	Zn	-0.527472	1.108433	-0.698641
O5	O	-0.461499	1.181479	-0.611307
O6	O	-0.522010	1.364800	-0.562394
O7	O	-0.278202	1.241914	-0.668051
O8	O	-0.407872	1.133046	-0.369941
O9	O	-0.419849	1.369921	-0.685275
O10	O	-0.515196	1.230035	-0.382992
O11	O	-0.273039	1.139804	-0.532120
O12	O	-0.401007	0.998191	-0.531173
O13	O	-0.644777	1.121009	-0.683609
O14	O	-0.503130	0.993002	-0.666385
O15	O	-0.649979	1.223187	-0.561447
O16	O	-0.412984	1.235066	-0.846506
O17	O	-0.509944	1.127768	-0.845788
C18	C	-0.450538	0.965424	-0.596746
C19	C	-0.445869	0.872993	-0.590543
C20	C	-0.485721	0.660038	-0.643473
C21	C	-0.437343	0.703767	-0.579229
C22	C	-0.442089	0.797934	-0.585526
C23	C	-0.480976	0.565863	-0.637177
C24	C	-0.678394	1.170533	-0.624400
C25	C	-0.770822	1.165868	-0.629980
C26	C	-0.940047	1.157322	-0.640141
C27	C	-0.983811	1.205799	-0.582169
C28	C	-1.077974	1.201044	-0.587822
C29	C	-0.845875	1.162076	-0.634489
C30	C	-0.245450	1.192430	-0.598192
C31	C	-0.153031	1.197255	-0.592327
C32	C	-0.461478	1.181429	-0.884270
C33	C	-0.461500	1.181482	-1.001051
C34	C	-0.472503	1.398377	-0.625925
C35	C	-0.477192	1.490806	-0.632155
C36	C	-0.411077	1.237410	-1.056260
C37	C	-0.411107	1.237462	-1.165989
C38	C	-0.511987	1.125651	-1.165291
C39	C	-0.511960	1.125603	-1.055564
C40	C	-0.461540	1.181551	-0.337281
C41	C	-0.461557	1.181581	-0.220507
H42	H	-0.950561	1.250872	-0.528289
O43	O	-0.383554	0.664178	-0.508025
C44	C	-0.301697	0.689497	-0.527250
H45	H	-0.303059	0.752674	-0.571672
H46	H	-0.271199	0.642044	-0.576314
C47	C	-0.249966	0.618319	-0.367406
C48	C	-0.251638	0.695917	-0.421958
H49	H	-0.219085	0.622276	-0.302458
H50	H	-0.305114	0.601258	-0.354455
H51	H	-0.224553	0.578783	-0.408304
H52	H	-0.277060	0.735449	-0.381066
H53	H	-0.196493	0.712985	-0.434900
O54	O	-0.979839	1.103627	-0.704400
C55	C	-1.066358	1.110771	-0.695795
H56	H	-1.081378	1.174371	-0.666395
H57	H	-1.088504	1.060238	-0.637979
C58	C	-1.092214	1.022808	-0.840321
C59	C	-1.110663	1.100925	-0.804219
H60	H	-1.119545	1.016731	-0.907200
H61	H	-1.033925	1.017992	-0.846116
H62	H	-1.110670	0.980706	-0.792131
H63	H	-1.092198	1.143025	-0.852402
H64	H	-1.168951	1.105748	-0.798435
H65	H	-0.369990	1.282910	-1.011878
H66	H	-0.370049	1.283005	-1.210935
O67	O	-0.539331	0.699646	-0.714871
C68	C	-0.519951	0.679428	-0.817054
H69	H	-0.484869	0.617938	-0.813102
H70	H	-0.479557	0.730439	-0.852968
C71	C	-0.643824	0.747020	-0.890354
C72	C	-0.600742	0.671494	-0.885501
H73	H	-0.693659	0.742130	-0.932578
H74	H	-0.656880	0.760644	-0.821512
H75	H	-0.610153	0.789522	-0.920279
H76	H	-0.634408	0.628996	-0.855564
H77	H	-0.587693	0.657862	-0.954340
H78	H	-0.553068	1.080155	-1.209689
H79	H	-0.553025	1.080060	-1.010610
