data_functionalizedCrystal
_audit_creation_method	'MofGen! by Chris Wilmer'
_symmetry_space_group_name_H-M	'P1'
_symmetry_Int_Tables_number	1
_symmetry_cell_setting	triclinic
loop_
_symmetry_equiv_pos_as_xyz
  x,y,z
_cell_length_a	18.050589
_cell_length_b	18.050591
_cell_length_c	18.050583
_cell_angle_alpha	90.011642
_cell_angle_beta	90.031910
_cell_angle_gamma	90.027061
loop_
_atom_site_label
_atom_site_type_symbol
_atom_site_fract_x
_atom_site_fract_y
_atom_site_fract_z
Zn1	Zn	-0.295629	1.135301	0.419848
Zn2	Zn	-0.045629	1.385301	0.669848
Zn3	Zn	0.204371	1.635301	0.919848
Zn4	Zn	0.454371	1.885301	1.169848
Zn5	Zn	-0.419842	1.135209	0.295668
Zn6	Zn	-0.169842	1.385209	0.545668
Zn7	Zn	0.080158	1.635209	0.795668
Zn8	Zn	0.330158	1.885209	1.045668
Zn9	Zn	-0.295668	1.011117	0.295682
Zn10	Zn	-0.045668	1.261117	0.545682
Zn11	Zn	0.204332	1.511117	0.795682
Zn12	Zn	0.454332	1.761117	1.045682
Zn13	Zn	-0.419779	1.011068	0.419826
Zn14	Zn	-0.169779	1.261068	0.669826
Zn15	Zn	0.080221	1.511068	0.919826
Zn16	Zn	0.330221	1.761068	1.169826
O17	O	-0.357730	1.073174	0.357756
O18	O	-0.107730	1.323174	0.607756
O19	O	0.142270	1.573174	0.857756
O20	O	0.392270	1.823174	1.107756
O21	O	-0.312116	1.239213	0.403379
O22	O	-0.062116	1.489213	0.653379
O23	O	0.187884	1.739213	0.903379
O24	O	0.437884	1.989213	1.153379
O25	O	-0.403413	1.118730	0.191745
O26	O	-0.153413	1.368730	0.441745
O27	O	0.096587	1.618730	0.691745
O28	O	0.346587	1.868730	0.941745
O29	O	-0.191738	1.027650	0.312168
O30	O	0.058262	1.277650	0.562168
O31	O	0.308262	1.527650	0.812168
O32	O	0.558262	1.777650	1.062168
O33	O	-0.403375	1.239146	0.312144
O34	O	-0.153375	1.489146	0.562144
O35	O	0.096625	1.739146	0.812144
O36	O	0.346625	1.989146	1.062144
O37	O	-0.191710	1.118887	0.403393
O38	O	0.058290	1.368887	0.653393
O39	O	0.308290	1.618887	0.903393
O40	O	0.558290	1.868887	1.153393
O41	O	-0.312183	1.027561	0.191755
O42	O	-0.062183	1.277561	0.441755
O43	O	0.187817	1.527561	0.691755
O44	O	0.437817	1.777561	0.941755
O45	O	-0.312122	0.907186	0.312146
O46	O	-0.062122	1.157186	0.562146
O47	O	0.187878	1.407186	0.812146
O48	O	0.437878	1.657186	1.062146
O49	O	-0.403268	1.027565	0.523753
O50	O	-0.153268	1.277565	0.773753
O51	O	0.096732	1.527565	1.023753
O52	O	0.346732	1.777565	1.273753
O53	O	-0.403306	0.907150	0.403354
O54	O	-0.153306	1.157150	0.653354
O55	O	0.096694	1.407150	0.903354
O56	O	0.346694	1.657150	1.153354
O57	O	-0.312055	1.118838	0.523770
O58	O	-0.062055	1.368838	0.773770
O59	O	0.187945	1.618838	1.023770
O60	O	0.437945	1.868838	1.273770
O61	O	-0.523758	1.118682	0.312122
O62	O	-0.273758	1.368682	0.562122
O63	O	-0.023758	1.618682	0.812122
O64	O	0.226242	1.868682	1.062122
O65	O	-0.523712	1.027476	0.403341
O66	O	-0.273712	1.277476	0.653341
O67	O	-0.023712	1.527476	0.903341
O68	O	0.226288	1.777476	1.153341
C69	C	-0.357712	0.880222	0.357750
C70	C	-0.107712	1.130222	0.607750
C71	C	0.142288	1.380222	0.857750
C72	C	0.392288	1.630222	1.107750
C73	C	-0.357722	0.797676	0.357765
C74	C	-0.107722	1.047676	0.607765
C75	C	0.142278	1.297676	0.857765
C76	C	0.392278	1.547676	1.107765
C77	C	-0.407410	0.548852	0.407296
C78	C	-0.157410	0.798852	0.657296
C79	C	0.092590	1.048852	0.907296
C80	C	0.342590	1.298852	1.157296
C81	C	-0.425497	0.598221	0.339512
C82	C	-0.175497	0.848221	0.589512
C83	C	0.074503	1.098221	0.839512
C84	C	0.324503	1.348221	1.089512
C85	C	-0.357745	0.500555	0.357764
C86	C	-0.107745	0.750555	0.607764
C87	C	0.142255	1.000555	0.857764
C88	C	0.392255	1.250555	1.107764
C89	C	-0.339681	0.598268	0.425545
C90	C	-0.089681	0.848268	0.675545
C91	C	0.160319	1.098268	0.925545
C92	C	0.410319	1.348268	1.175545
C93	C	-0.357735	0.646540	0.357768
C94	C	-0.107735	0.896540	0.607768
C95	C	0.142265	1.146540	0.857768
C96	C	0.392265	1.396540	1.107768
C97	C	-0.375867	0.548837	0.289943
C98	C	-0.125867	0.798837	0.539943
C99	C	0.124133	1.048837	0.789943
C100	C	0.374133	1.298837	1.039943
C101	C	-0.290020	0.548880	0.376022
C102	C	-0.040020	0.798880	0.626022
C103	C	0.209980	1.048880	0.876022
C104	C	0.459980	1.298880	1.126022
C105	C	-0.308081	0.598227	0.308191
C106	C	-0.058081	0.848227	0.558191
C107	C	0.191919	1.098227	0.808191
C108	C	0.441919	1.348227	1.058191
C109	C	-0.357752	0.416457	0.357762
C110	C	-0.107752	0.666457	0.607762
C111	C	0.142248	0.916457	0.857762
C112	C	0.392248	1.166457	1.107762
C113	C	-0.357728	0.730637	0.357762
C114	C	-0.107728	0.980637	0.607762
C115	C	0.142272	1.230637	0.857762
C116	C	0.392272	1.480637	1.107762
C117	C	-0.550682	1.073084	0.357744
C118	C	-0.300682	1.323084	0.607744
C119	C	-0.050682	1.573084	0.857744
C120	C	0.199318	1.823084	1.107744
C121	C	-0.633228	1.073114	0.357763
C122	C	-0.383228	1.323114	0.607763
C123	C	-0.133228	1.573114	0.857763
C124	C	0.116772	1.823114	1.107763
C125	C	-0.832680	1.023565	0.407350
C126	C	-0.582680	1.273565	0.657350
C127	C	-0.332680	1.523565	0.907350
C128	C	-0.082680	1.773565	1.157350
C129	C	-0.882130	1.005465	0.339584
C130	C	-0.632130	1.255465	0.589584
C131	C	-0.382130	1.505465	0.839584
C132	C	-0.132130	1.755465	1.089584
C133	C	-0.784358	1.073187	0.357773
C134	C	-0.534358	1.323187	0.607773
C135	C	-0.284358	1.573187	0.857773
C136	C	-0.034358	1.823187	1.107773
C137	C	-0.881990	1.091322	0.425547
C138	C	-0.631990	1.341322	0.675547
C139	C	-0.381990	1.591322	0.925547
C140	C	-0.131990	1.841322	1.175547
C141	C	-0.930343	1.073256	0.357788
C142	C	-0.680343	1.323256	0.607788
C143	C	-0.430343	1.573256	0.857788
C144	C	-0.180343	1.823256	1.107788
C145	C	-0.832721	1.055052	0.289971
C146	C	-0.582721	1.305052	0.539971
C147	C	-0.332721	1.555052	0.789971
C148	C	-0.082721	1.805052	1.039971
C149	C	-0.832576	1.140940	0.375979
C150	C	-0.582576	1.390940	0.625979
C151	C	-0.332576	1.640940	0.875979
C152	C	-0.082576	1.890940	1.125979
C153	C	-0.882004	1.122867	0.308166
C154	C	-0.632004	1.372867	0.558166
C155	C	-0.382004	1.622867	0.808166
C156	C	-0.132004	1.872867	1.058166
C157	C	-0.700260	1.073145	0.357765
C158	C	-0.450260	1.323145	0.607765
C159	C	-0.200260	1.573145	0.857765
C160	C	0.049740	1.823145	1.107765
C161	C	-1.014440	1.073297	0.357788
C162	C	-0.764440	1.323297	0.607788
C163	C	-0.514440	1.573297	0.857788
C164	C	-0.264440	1.823297	1.107788
C165	C	-0.164024	1.073284	0.357785
C166	C	0.085976	1.323284	0.607785
C167	C	0.335976	1.573284	0.857785
C168	C	0.585976	1.823284	1.107785
C169	C	-0.081478	1.073331	0.357797
C170	C	0.168522	1.323331	0.607797
C171	C	0.418522	1.573331	0.857797
C172	C	0.668522	1.823331	1.107797
C173	C	-0.357650	1.073206	0.551462
C174	C	-0.107650	1.323206	0.801462
C175	C	0.142350	1.573206	1.051462
C176	C	0.392350	1.823206	1.301462
C177	C	-0.357617	1.073220	0.634007
C178	C	-0.107617	1.323220	0.884007
C179	C	0.142383	1.573220	1.134007
C180	C	0.392383	1.823220	1.384007
C181	C	-0.357748	1.266879	0.357763
C182	C	-0.107748	1.516879	0.607763
C183	C	0.142252	1.766879	0.857763
C184	C	0.392252	2.016879	1.107763
C185	C	-0.357756	1.349425	0.357765
C186	C	-0.107756	1.599425	0.607765
C187	C	0.142244	1.849425	0.857765
C188	C	0.392244	2.099425	1.107765
C189	C	-0.357755	1.073184	0.164804
C190	C	-0.107755	1.323184	0.414804
C191	C	0.142245	1.573184	0.664804
C192	C	0.392245	1.823184	0.914804
C193	C	-0.357580	1.073314	0.082258
C194	C	-0.107580	1.323314	0.332258
C195	C	0.142420	1.573314	0.582258
C196	C	0.392420	1.823314	0.832258
C197	C	-0.307991	1.122905	0.833467
C198	C	-0.057991	1.372905	1.083467
C199	C	0.192009	1.622905	1.333467
C200	C	0.442009	1.872905	1.583467
C201	C	-0.289814	1.055171	0.882866
C202	C	-0.039814	1.305171	1.132866
C203	C	0.210186	1.555171	1.382866
C204	C	0.460186	1.805171	1.632866
C205	C	-0.357604	1.073250	0.785138
C206	C	-0.107604	1.323250	1.035138
C207	C	0.142396	1.573250	1.285138
C208	C	0.392396	1.823250	1.535138
C209	C	-0.375734	1.141011	0.882821
C210	C	-0.125734	1.391011	1.132821
C211	C	0.124266	1.641011	1.382821
C212	C	0.374266	1.891011	1.632821
C213	C	-0.357590	1.073285	0.931123
C214	C	-0.107590	1.323285	1.181123
C215	C	0.142410	1.573285	1.431123
C216	C	0.392410	1.823285	1.681123
C217	C	-0.339391	1.005481	0.833449
C218	C	-0.089391	1.255481	1.083449
C219	C	0.160609	1.505481	1.333449
C220	C	0.410609	1.755481	1.583449
C221	C	-0.425344	1.091367	0.833400
C222	C	-0.175344	1.341367	1.083400
C223	C	0.074656	1.591367	1.333400
C224	C	0.324656	1.841367	1.583400
C225	C	-0.407192	1.023586	0.882776
C226	C	-0.157192	1.273586	1.132776
C227	C	0.092808	1.523586	1.382776
C228	C	0.342808	1.773586	1.632776
C229	C	-0.357610	1.073231	0.701040
C230	C	-0.107610	1.323231	0.951040
C231	C	0.142390	1.573231	1.201040
C232	C	0.392390	1.823231	1.451040
C233	C	-0.357584	1.073296	1.015220
C234	C	-0.107584	1.323296	1.265220
C235	C	0.142416	1.573296	1.515220
C236	C	0.392416	1.823296	1.765220
H237	H	-0.266077	0.619769	0.266256
H238	H	-0.016077	0.869769	0.516256
H239	H	0.233923	1.119769	0.766256
H240	H	0.483923	1.369769	1.016256
H241	H	-0.482619	1.106699	0.811658
H242	H	-0.232619	1.356699	1.061658
H243	H	0.017381	1.606699	1.311658
H244	H	0.267381	1.856699	1.561658
H245	H	-0.391074	1.198301	0.904511
H246	H	-0.141074	1.448301	1.154511
H247	H	0.108926	1.698301	1.404511
H248	H	0.358926	1.948301	1.654511
F249	F	-0.215185	0.520527	0.396237
F250	F	0.034815	0.770527	0.646237
F251	F	0.284815	1.020527	0.896237
F252	F	0.534815	1.270527	1.146237
H253	H	-0.323984	0.948174	0.811853
H254	H	-0.073984	1.198174	1.061853
H255	H	0.176016	1.448174	1.311853
H256	H	0.426016	1.698174	1.561853
F257	F	-0.804370	0.968637	0.462074
F258	F	-0.554370	1.218637	0.712074
F259	F	-0.304370	1.468637	0.962074
F260	F	-0.054370	1.718637	1.212074
H261	H	-0.449447	0.527173	0.449130
H262	H	-0.199447	0.777173	0.699130
H263	H	0.050553	1.027173	0.949130
H264	H	0.300553	1.277173	1.199130
H265	H	-0.482767	0.619893	0.324065
H266	H	-0.232767	0.869893	0.574065
H267	H	0.017233	1.119893	0.824065
H268	H	0.267233	1.369893	1.074065
F269	F	-0.214931	1.035156	0.911268
F270	F	0.035069	1.285156	1.161268
F271	F	0.285069	1.535156	1.411268
F272	F	0.535069	1.785156	1.661268
F273	F	-0.462017	0.968657	0.910910
F274	F	-0.212017	1.218657	1.160910
F275	F	0.037983	1.468657	1.410910
F276	F	0.287983	1.718657	1.660910
H277	H	-0.266009	1.164827	0.811814
H278	H	-0.016009	1.414827	1.061814
H279	H	0.233991	1.664827	1.311814
H280	H	0.483991	1.914827	1.561814
H281	H	-0.391211	0.527215	0.232607
H282	H	-0.141211	0.777215	0.482607
H283	H	0.108789	1.027215	0.732607
H284	H	0.358789	1.277215	0.982607
H285	H	-0.903913	0.948201	0.324200
H286	H	-0.653913	1.198201	0.574200
H287	H	-0.403913	1.448201	0.824200
H288	H	-0.153913	1.698201	1.074200
F289	F	-0.319716	0.626650	0.500465
F290	F	-0.069716	0.876650	0.750465
F291	F	0.180284	1.126650	1.000465
F292	F	0.430284	1.376650	1.250465
H293	H	-0.811168	1.039674	0.232646
H294	H	-0.561168	1.289674	0.482646
H295	H	-0.311168	1.539674	0.732646
H296	H	-0.061168	1.789674	0.982646
H297	H	-0.810795	1.198192	0.391396
H298	H	-0.560795	1.448192	0.641396
H299	H	-0.310795	1.698192	0.891396
H300	H	-0.060795	1.948192	1.141396
F301	F	-0.910133	1.177757	0.253314
F302	F	-0.660133	1.427757	0.503314
F303	F	-0.410133	1.677757	0.753314
F304	F	-0.160133	1.927757	1.003314
H305	H	-0.903632	1.106634	0.482856
H306	H	-0.653632	1.356634	0.732856
H307	H	-0.403632	1.606634	0.982856
H308	H	-0.153632	1.856634	1.232856
