data_functionalizedCrystal
_audit_creation_method	'MofGen! by Chris Wilmer'
_symmetry_space_group_name_H-M	'P1'
_symmetry_Int_Tables_number	1
_symmetry_cell_setting	triclinic
loop_
_symmetry_equiv_pos_as_xyz
  x,y,z
_cell_length_a	12.594517
_cell_length_b	12.594516
_cell_length_c	16.625548
_cell_angle_alpha	90.008008
_cell_angle_beta	90.009454
_cell_angle_gamma	90.011248
loop_
_atom_site_label
_atom_site_type_symbol
_atom_site_fract_x
_atom_site_fract_y
_atom_site_fract_z
Zn1	Zn	1.627164	-0.423935	0.455954
Zn2	Zn	1.627108	-0.601883	0.321129
Zn3	Zn	1.449208	-0.423917	0.321132
Zn4	Zn	1.449163	-0.601870	0.455916
O5	O	1.538161	-0.512901	0.388532
O6	O	1.776103	-0.447553	0.438084
O7	O	1.603504	-0.578274	0.208297
O8	O	1.472856	-0.274974	0.339033
O9	O	1.776061	-0.578291	0.339028
O10	O	1.603600	-0.274987	0.438086
O11	O	1.472802	-0.447523	0.208299
O12	O	1.300256	-0.447510	0.338996
O13	O	1.472781	-0.578268	0.568753
O14	O	1.300224	-0.578251	0.438022
O15	O	1.603557	-0.447540	0.568781
O16	O	1.603461	-0.750827	0.338992
O17	O	1.472726	-0.750817	0.438019
C18	C	1.261620	-0.512878	0.388505
C19	C	1.143314	-0.512894	0.388513
C20	C	1.003285	-0.441706	0.334776
C21	C	1.074120	-0.415806	0.408353
C22	C	1.074051	-0.538746	0.314944
C23	C	1.003364	-0.486986	0.462188
C24	C	1.003289	-0.609971	0.368729
C25	C	1.074092	-0.584108	0.442357
C26	C	1.538112	-0.789442	0.388518
C27	C	1.538188	-0.907748	0.388539
C28	C	1.609377	-0.976968	0.334736
C29	C	1.635366	-1.047698	0.408331
C30	C	1.512332	-1.047816	0.314991
C31	C	1.564226	-0.976920	0.462173
C32	C	1.441147	-0.977032	0.368784
C33	C	1.467099	-1.047730	0.442430
C34	C	1.815782	-0.512925	0.388560
C35	C	1.934087	-0.512936	0.388572
C36	C	1.538170	-0.512904	0.598841
C37	C	1.538174	-0.512906	0.688462
C38	C	1.538239	-0.235281	0.388564
C39	C	1.538273	-0.116975	0.388578
C40	C	1.538130	-0.512915	1.016638
C41	C	1.538139	-0.512916	0.925330
C42	C	1.538153	-0.512911	0.852553
C43	C	1.538161	-0.512910	0.761239
C44	C	1.538141	-0.512920	1.179042
C45	C	1.538131	-0.512912	1.089421
H46	H	1.105104	-0.560593	0.252703
Br47	Br	1.125963	-0.279004	0.436303
Br48	Br	1.304337	-0.925259	0.340866
H49	H	0.972197	-0.381442	0.289364
Br50	Br	0.951835	-0.450412	0.565959
Br51	Br	1.125584	-0.684483	0.518222
H52	H	1.669589	-0.945896	0.289277
Br53	Br	0.951387	-0.746735	0.340754
Br54	Br	1.772211	-1.099410	0.436235
H55	H	1.586049	-0.945910	0.524441
H56	H	1.406933	-1.078605	0.487998
H57	H	1.490428	-1.078958	0.252777
