data_functionalizedCrystal
_audit_creation_method	'MofGen! by Chris Wilmer'
_symmetry_space_group_name_H-M	'P1'
_symmetry_Int_Tables_number	1
_symmetry_cell_setting	triclinic
loop_
_symmetry_equiv_pos_as_xyz
  x,y,z
_cell_length_a	12.759395
_cell_length_b	12.594516
_cell_length_c	12.759387
_cell_angle_alpha	90.029359
_cell_angle_beta	90.020509
_cell_angle_gamma	90.019709
loop_
_atom_site_label
_atom_site_type_symbol
_atom_site_fract_x
_atom_site_fract_y
_atom_site_fract_z
Zn1	Zn	1.606243	-0.423642	0.594016
Zn2	Zn	1.606123	-0.601660	0.418340
Zn3	Zn	1.430542	-0.423700	0.418352
Zn4	Zn	1.430523	-0.601584	0.593980
O5	O	1.518358	-0.512647	0.506172
O6	O	1.753249	-0.447264	0.570722
O7	O	1.582789	-0.578109	0.271321
O8	O	1.453907	-0.274747	0.441675
O9	O	1.753160	-0.578053	0.441654
O10	O	1.582994	-0.274704	0.570734
O11	O	1.453790	-0.447363	0.271330
O12	O	1.283518	-0.447290	0.441640
O13	O	1.453875	-0.577924	0.741006
O14	O	1.283505	-0.577980	0.570672
O15	O	1.582976	-0.447191	0.741032
O16	O	1.582772	-0.750595	0.441619
O17	O	1.453759	-0.750540	0.570661
C18	C	1.245390	-0.512634	0.506154
C19	C	1.128614	-0.512654	0.506171
C20	C	1.518279	-0.789188	0.506158
C21	C	1.518341	-0.907493	0.506187
C22	C	1.128638	-0.648962	0.640315
C23	C	1.073790	-0.717124	0.707390
C24	C	0.964068	-0.717137	0.707403
C25	C	0.909193	-0.648978	0.640336
C26	C	0.964041	-0.580816	0.573261
C27	C	1.073765	-0.580812	0.573253
C28	C	0.964016	-0.444504	0.439124
C29	C	1.073738	-0.444495	0.439104
C30	C	0.909141	-0.376345	0.372057
C31	C	0.963989	-0.308186	0.304975
C32	C	1.073718	-0.308177	0.304964
C33	C	1.128587	-0.376332	0.372029
C34	C	1.448228	-1.047518	0.576337
C35	C	1.544010	-0.976603	0.602109
C36	C	1.422569	-0.976836	0.480461
C37	C	1.614345	-1.047363	0.532048
C38	C	1.492839	-1.047603	0.410355
C39	C	1.588687	-0.976720	0.436091
C40	C	1.792391	-0.512660	0.506191
C41	C	1.909168	-0.512666	0.506199
C42	C	1.518437	-0.512542	0.780206
C43	C	1.518471	-0.512498	0.896982
C44	C	1.518466	-0.235026	0.506210
C45	C	1.518512	-0.116720	0.506225
C46	C	1.518339	-0.512674	0.233205
C47	C	1.518509	-0.512418	0.116428
C48	C	1.652913	-0.376375	0.897030
C49	C	1.720148	-0.308297	0.951914
C50	C	1.720174	-0.308258	1.061636
C51	C	1.652954	-0.376302	1.116476
C52	C	1.585719	-0.444380	1.061591
C53	C	1.585703	-0.444413	0.951867
C54	C	1.451273	-0.580496	1.061544
C55	C	1.451252	-0.580542	0.951822
C56	C	1.384054	-0.648540	1.116384
C57	C	1.316822	-0.716624	1.061499
C58	C	1.316800	-0.716661	0.951771
C59	C	1.384016	-0.648619	0.896938
H60	H	1.217979	-0.648966	0.640304
N61	N	1.132975	-0.790639	0.779722
H62	H	1.210806	-0.780296	0.769535
H63	H	1.113764	-0.866633	0.763229
N64	N	1.572682	-0.935282	0.709474
H65	H	1.638555	-0.891083	0.704504
H66	H	1.585041	-0.997069	0.758361
N67	N	0.904902	-0.790648	0.779750
H68	H	0.956310	-0.833823	0.822236
H69	H	0.859347	-0.839851	0.736897
H70	H	0.919301	-0.252692	0.250379
N71	N	1.652890	-0.376384	0.778688
H72	H	1.580822	-0.356805	0.752259
H73	H	1.672203	-0.449418	0.752306
N74	N	0.790799	-0.376364	0.372062
H75	H	0.764361	-0.322846	0.319399
H76	H	0.764484	-0.356932	0.444206
N77	N	1.792661	-0.234918	0.892774
H78	H	1.867717	-0.251467	0.911894
H79	H	1.776303	-0.158888	0.911905
N80	N	1.667407	-0.935785	0.357539
H81	H	1.630225	-0.891709	0.302872
H82	H	1.703473	-0.997742	0.322550
H83	H	0.819851	-0.648985	0.640362
N84	N	1.246928	-0.376329	0.372025
H85	H	1.273387	-0.303338	0.391467
H86	H	1.273241	-0.395843	0.299902
H87	H	1.471163	-1.078810	0.329320
H88	H	1.341503	-0.945850	0.458686
N89	N	1.384074	-0.648473	1.234725
H90	H	1.456140	-0.668038	1.261170
H91	H	1.331243	-0.701890	1.261062
H92	H	1.262092	-0.772014	1.106158
H93	H	1.262037	-0.772087	0.907090
H94	H	1.384009	-0.648647	0.807596
H95	H	1.774916	-0.252817	1.106323
H96	H	1.695435	-1.078217	0.553917
H97	H	1.118369	-0.252663	0.250350
N98	N	1.369681	-1.088689	0.654943
H99	H	1.389150	-1.062854	0.727330
H100	H	1.369852	-1.168872	0.653847
H101	H	1.652972	-0.376255	1.205817
