data_functionalizedCrystal
_audit_creation_method	'MofGen! by Chris Wilmer'
_symmetry_space_group_name_H-M	'P1'
_symmetry_Int_Tables_number	1
_symmetry_cell_setting	triclinic
loop_
_symmetry_equiv_pos_as_xyz
  x,y,z
_cell_length_a	12.759401
_cell_length_b	18.050589
_cell_length_c	12.759393
_cell_angle_alpha	89.969883
_cell_angle_beta	89.980718
_cell_angle_gamma	90.029746
loop_
_atom_site_label
_atom_site_type_symbol
_atom_site_fract_x
_atom_site_fract_y
_atom_site_fract_z
Zn1	Zn	1.606151	-0.295589	-0.594027
Zn2	Zn	1.606005	-0.419798	-0.418350
Zn3	Zn	1.430454	-0.295630	-0.418362
Zn4	Zn	1.430400	-0.419745	-0.593987
O5	O	1.518252	-0.357691	-0.506182
O6	O	1.753152	-0.312071	-0.570735
O7	O	1.582680	-0.403366	-0.271331
O8	O	1.453844	-0.191700	-0.441686
O9	O	1.753046	-0.403327	-0.441666
O10	O	1.582928	-0.191670	-0.570746
O11	O	1.453704	-0.312140	-0.271339
O12	O	1.283426	-0.312089	-0.441648
O13	O	1.453751	-0.403236	-0.741014
O14	O	1.283386	-0.403276	-0.570679
O15	O	1.582875	-0.312019	-0.741043
O16	O	1.582627	-0.523716	-0.441627
O17	O	1.453610	-0.523677	-0.570667
C18	C	1.245285	-0.357682	-0.506161
C19	C	1.128508	-0.357696	-0.506177
C20	C	1.073653	-0.405249	-0.573257
C21	C	0.963929	-0.405252	-0.573278
C22	C	0.963925	-0.310146	-0.439129
C23	C	1.073647	-0.310140	-0.439114
C24	C	0.814021	-0.431899	-0.697139
C25	C	0.759161	-0.479464	-0.764211
C26	C	0.794735	-0.551939	-0.780160
C27	C	0.885165	-0.576865	-0.729023
C28	C	0.940018	-0.529304	-0.661944
C29	C	0.904447	-0.456818	-0.646014
C30	C	1.223558	-0.283500	-0.315251
C31	C	1.278413	-0.235943	-0.248166
C32	C	1.242842	-0.163466	-0.232206
C33	C	1.152408	-0.138543	-0.283325
C34	C	1.097553	-0.186100	-0.350410
C35	C	1.133132	-0.258577	-0.366372
C36	C	1.518126	-0.550643	-0.506164
C37	C	1.518167	-0.633189	-0.506192
C38	C	1.448077	-0.832645	-0.576339
C39	C	1.422464	-0.882093	-0.480470
C40	C	1.518271	-0.784319	-0.506206
C41	C	1.543935	-0.881952	-0.602085
C42	C	1.518368	-0.930304	-0.506227
C43	C	1.492607	-0.832680	-0.410286
C44	C	1.614123	-0.832534	-0.531966
C45	C	1.588546	-0.881961	-0.436031
C46	C	1.518212	-0.700221	-0.506194
C47	C	1.518428	-1.014400	-0.506228
C48	C	1.792286	-0.357700	-0.506203
C49	C	1.909062	-0.357704	-0.506212
C50	C	1.518323	-0.357617	-0.780215
C51	C	1.518353	-0.357586	-0.896992
C52	C	1.518408	-0.163985	-0.506222
C53	C	1.518475	-0.081439	-0.506239
C54	C	1.451249	-0.310050	-1.061589
C55	C	1.451220	-0.310075	-0.951865
C56	C	1.585527	-0.405070	-0.951849
C57	C	1.585561	-0.405041	-1.061571
C58	C	1.413709	-0.222528	-0.801931
C59	C	1.346526	-0.175053	-0.747078
C60	C	1.244032	-0.163636	-0.782689
C61	C	1.208700	-0.199707	-0.873150
C62	C	1.275877	-0.247188	-0.927997
C63	C	1.378386	-0.258590	-0.892389
C64	C	1.623061	-0.492589	-1.211506
C65	C	1.690234	-0.540074	-1.266356
C66	C	1.792730	-0.551498	-1.230748
C67	C	1.828058	-0.515441	-1.140283
C68	C	1.760885	-0.467955	-1.085433
C69	C	1.658391	-0.456530	-1.121049
C70	C	1.518242	-0.357710	-0.233214
C71	C	1.518416	-0.357532	-0.116438
H72	H	1.388630	-0.810990	-0.635565
N73	N	1.796978	-0.431107	-0.993040
N74	N	1.798022	-0.361914	-0.989287
H75	H	1.823511	-0.335888	-0.924036
H76	H	1.640193	-0.443752	-0.907163
H77	H	1.911518	-0.524744	-1.111288
H78	H	0.785055	-0.372881	-0.684170
H79	H	1.341450	-0.903878	-0.458702
H80	H	1.647949	-0.903478	-0.376662
N81	N	1.370817	-0.261378	-0.195973
N82	N	1.419797	-0.218904	-0.136098
H83	H	1.485066	-0.236862	-0.099248
H84	H	1.189331	-0.124980	-0.738020
H85	H	1.847419	-0.590169	-1.275413
H86	H	1.013644	-0.549598	-0.620308
N87	N	0.907899	-0.261566	-0.370624
N88	N	0.920201	-0.193044	-0.377759
H89	H	0.880635	-0.158733	-0.329375
H90	H	1.470845	-0.811126	-0.329188
N91	N	1.571112	-0.909118	-0.703787
N92	N	1.508575	-0.949644	-0.752757
H93	H	1.527760	-0.968831	-0.824586
H94	H	1.125234	-0.190414	-0.902130
N95	N	1.005188	-0.160628	-0.402636
N96	N	0.973440	-0.095911	-0.388389
H97	H	0.908213	-0.077919	-0.425279
H98	H	1.695118	-0.810752	-0.553780
N99	N	1.654126	-0.576913	-1.358751
N100	N	1.562609	-0.566709	-1.390538
H101	H	1.537106	-0.592727	-1.455790
N102	N	1.259892	-0.357541	-0.331531
N103	N	1.267247	-0.401119	-0.255727
H104	H	1.292905	-0.453412	-0.267217
H105	H	1.396579	-0.271362	-1.106258
H106	H	1.375303	-0.145684	-0.673424
N107	N	1.239780	-0.284031	-1.020387
N108	N	1.148257	-0.273840	-1.052169
H109	H	1.122760	-0.299858	-1.117423
H110	H	1.497171	-0.231812	-0.772936
N111	N	1.518367	-0.480919	-1.247903
N112	N	1.486837	-0.513122	-1.328671
H113	H	1.412897	-0.504882	-1.354379
H114	H	0.750061	-0.590667	-0.834773
N115	N	1.129694	-0.453830	-0.641748
N116	N	1.117391	-0.522352	-0.634613
H117	H	1.156968	-0.556664	-0.682987
N118	N	0.921474	-0.650907	-0.745311
N119	N	0.872486	-0.693365	-0.805202
H120	H	0.898131	-0.745659	-0.816707
H121	H	1.287511	-0.124747	-0.177570
N122	N	0.666793	-0.453994	-0.816435
N123	N	0.635045	-0.389276	-0.802199
H124	H	0.569808	-0.371291	-0.839078
H125	H	1.123434	-0.079530	-0.270313
