data_functionalizedCrystal
_audit_creation_method	'MofGen! by Chris Wilmer'
_symmetry_space_group_name_H-M	'P1'
_symmetry_Int_Tables_number	1
_symmetry_cell_setting	triclinic
loop_
_symmetry_equiv_pos_as_xyz
  x,y,z
_cell_length_a	15.944551
_cell_length_b	23.532407
_cell_length_c	14.421503
_cell_angle_alpha	89.999621
_cell_angle_beta	89.996859
_cell_angle_gamma	83.173708
loop_
_atom_site_label
_atom_site_type_symbol
_atom_site_fract_x
_atom_site_fract_y
_atom_site_fract_z
O1	O	1.113910	0.073442	-0.077025
O2	O	0.869284	0.082498	-0.077049
O3	O	0.998974	-0.004933	-0.077019
O4	O	0.984221	0.160873	-0.077055
O5	O	0.998953	-0.004920	0.077204
O6	O	0.869263	0.082511	0.077174
O7	O	1.113889	0.073455	0.077199
Cu8	Cu	0.991574	0.077984	0.091268
Cu9	Cu	0.991599	0.077969	-0.091119
O10	O	0.984199	0.160886	0.077169
C11	C	0.837983	0.082128	0.000060
C12	C	0.744746	0.081001	0.000051
C13	C	0.530369	0.024113	0.000081
C14	C	0.469137	0.050524	-0.075964
C15	C	0.574038	0.078962	0.000063
C16	C	0.469138	0.050550	0.076088
C17	C	0.409142	0.076989	0.000078
C18	C	0.514034	0.105388	-0.076046
C19	C	0.514041	0.105406	0.076075
C20	C	0.452826	0.131856	0.000010
C21	C	0.669030	0.080097	0.000053
C22	C	0.314150	0.075858	0.000081
C23	C	0.998588	-0.026144	0.000095
C24	C	0.997458	-0.089366	0.000102
C25	C	1.067121	-0.488199	0.000058
C26	C	1.066072	-0.547603	0.000051
O27	O	1.130650	-0.584098	0.000023
N28	N	0.988971	-0.570528	0.000044
C29	C	0.912915	-0.534045	0.000035
O30	O	0.847239	-0.558999	0.000027
C31	C	0.913965	-0.474642	0.000035
C32	C	0.991071	-0.451721	0.000052
C33	C	1.144220	-0.465277	0.000073
C34	C	1.145269	-0.405877	0.000082
C35	C	1.069219	-0.369399	0.000076
C36	C	0.992120	-0.392320	0.000060
C37	C	0.837910	-0.438160	0.000019
C38	C	0.838967	-0.378754	0.000019
C39	C	0.916072	-0.355832	0.000035
C40	C	0.917118	-0.296442	0.000063
N41	N	0.994219	-0.273517	0.000070
C42	C	1.070269	-0.309995	0.000076
C43	C	0.910716	-0.658796	0.000032
C44	C	0.909664	-0.718198	0.000038
C45	C	1.062821	-0.731752	0.000053
C46	C	1.063872	-0.672349	0.000053
C47	C	0.987816	-0.635871	0.000039
C48	C	1.072466	-0.185250	0.000096
C49	C	1.073508	-0.125844	0.000108
C50	C	0.920352	-0.112295	0.000089
C51	C	0.919309	-0.171696	0.000081
C52	C	0.995373	-0.208173	0.000081
O53	O	0.852574	-0.259913	0.000087
O54	O	1.135935	-0.285033	0.000072
C55	C	1.145190	0.073824	0.000088
C56	C	1.238427	0.074951	0.000090
C57	C	0.984586	0.182097	0.000053
C58	C	0.985715	0.245318	0.000040
N59	N	0.991562	0.077994	0.219550
N60	N	0.991618	0.077954	-0.219400
C61	C	0.931583	0.118404	0.469190
C62	C	1.007390	0.129461	0.530997
C63	C	0.991583	0.077981	0.408711
C64	C	0.915795	0.066938	0.530998
C65	C	0.991596	0.077969	0.591433
C66	C	1.067428	0.089063	0.469158
C67	C	0.975783	0.026517	0.469153
C68	C	1.051645	0.037552	0.530932
C69	C	0.991574	0.077989	0.303450
C70	C	0.991613	0.077960	0.696691
H71	H	0.419284	0.177423	-0.000042
H72	H	0.856524	-0.190359	0.000094
C73	C	1.156134	-0.225366	0.000104
H74	H	1.202196	-0.203199	0.000123
H75	H	1.158928	-0.248821	-0.053677
H76	H	1.158901	-0.248820	0.053892
H77	H	0.533968	0.128591	0.140359
H78	H	0.858434	-0.082584	0.000087
H79	H	1.131539	0.098450	0.442108
H80	H	1.020766	0.172977	0.558161
H81	H	0.846878	-0.736855	0.000041
H82	H	1.102445	0.003360	0.557872
H83	H	0.449238	0.027346	0.140377
C84	C	1.230084	-0.380668	0.000095
H85	H	1.219828	-0.340065	0.000104
H86	H	1.261382	-0.393191	-0.053683
H87	H	1.261363	-0.393193	0.053886
C88	C	0.957681	-0.032248	0.432416
H89	H	0.903777	-0.040032	0.453551
H90	H	0.999755	-0.061043	0.454474
H91	H	0.958322	-0.031916	0.366549
C92	C	0.863110	0.164616	0.432554
H93	H	0.823580	0.147082	0.396311
H94	H	0.888683	0.191108	0.395401
H95	H	0.834813	0.184163	0.483354
C96	C	1.158328	-0.100634	0.000121
H97	H	1.203468	-0.130870	0.000113
H98	H	1.161918	-0.077745	0.053904
H99	H	1.161928	-0.077742	-0.053665
H100	H	0.851698	0.057603	0.558164
H101	H	0.564086	-0.021407	-0.000003
H102	H	0.449231	0.027320	-0.140246
C103	C	1.227881	-0.505397	0.000078
H104	H	1.216228	-0.544062	0.000069
H105	H	1.259507	-0.498442	0.053863
H106	H	1.259520	-0.498442	-0.053706
H107	H	0.533835	0.128563	-0.140407
H108	H	1.126658	-0.653691	0.000066
H109	H	0.848778	-0.629098	0.000028
C110	C	1.146476	-0.771886	0.000042
H111	H	1.134802	-0.810546	0.000027
H112	H	1.178116	-0.764944	0.053822
H113	H	1.178111	-0.764934	-0.053747
H114	H	0.777032	-0.349056	0.000006
C115	C	0.753093	-0.463361	-0.000007
H116	H	0.707958	-0.433120	-0.000023
H117	H	0.749476	-0.486254	0.053769
H118	H	0.749509	-0.486248	-0.053800
