data_functionalizedCrystal
_audit_creation_method	'MofGen! by Chris Wilmer'
_symmetry_space_group_name_H-M	'P1'
_symmetry_Int_Tables_number	1
_symmetry_cell_setting	triclinic
loop_
_symmetry_equiv_pos_as_xyz
  x,y,z
_cell_length_a	14.044220
_cell_length_b	12.837942
_cell_length_c	11.295483
_cell_angle_alpha	85.469583
_cell_angle_beta	94.474773
_cell_angle_gamma	94.008909
loop_
_atom_site_label
_atom_site_type_symbol
_atom_site_fract_x
_atom_site_fract_y
_atom_site_fract_z
O1	O	-1.286265	-0.245585	-0.098895
O2	O	-0.786265	0.254415	0.401105
O3	O	-1.009476	-0.236489	-0.098925
O4	O	-0.509476	0.263511	0.401075
O5	O	-1.141733	-0.089567	-0.098903
O6	O	-0.641733	0.410433	0.401097
O7	O	-1.154009	-0.392507	-0.098916
O8	O	-0.654009	0.107493	0.401084
O9	O	-1.130114	-0.102450	0.099146
O10	O	-0.630114	0.397550	0.599146
O11	O	-0.997858	-0.249372	0.099124
O12	O	-0.497858	0.250628	0.599124
O13	O	-1.274647	-0.258468	0.099154
O14	O	-0.774647	0.241532	0.599154
Cu15	Cu	-1.135192	-0.255096	0.117222
Cu16	Cu	-0.635192	0.244904	0.617222
Cu17	Cu	-1.148932	-0.239861	-0.116993
Cu18	Cu	-0.648932	0.260139	0.383007
O19	O	-1.142390	-0.405390	0.099132
O20	O	-0.642390	0.094610	0.599132
C21	C	-1.131777	-0.057005	0.000120
C22	C	-0.631777	0.442995	0.500120
C23	C	-1.119410	0.059216	0.000117
C24	C	-0.619410	0.559216	0.500117
C25	C	-0.967993	-0.238949	0.000096
C26	C	-0.467993	0.261051	0.500096
C27	C	-0.861696	-0.227074	0.000084
C28	C	-0.361696	0.272926	0.500084
C29	C	-1.316130	-0.256008	0.000131
C30	C	-0.816130	0.243992	0.500131
C31	C	-1.422428	-0.267882	0.000135
C32	C	-0.922428	0.232118	0.500135
C33	C	-0.667072	-0.205367	0.000109
C34	C	-0.167072	0.294633	0.500109
C35	C	-0.617046	-0.289584	0.000110
C36	C	-0.117046	0.210416	0.500110
C37	C	-0.508750	-0.277506	0.000124
C38	C	-0.008750	0.222494	0.500124
C39	C	-0.775377	-0.217444	0.000095
C40	C	-0.275377	0.282556	0.500095
C41	C	-1.152346	-0.437952	0.000106
C42	C	-0.652346	0.062048	0.500106
C43	C	-1.164714	-0.554173	0.000102
C44	C	-0.664714	-0.054173	0.500102
N45	N	-1.125534	-0.265812	0.281957
N46	N	-0.625534	0.234188	0.781957
C47	C	-1.268089	0.286427	0.000108
C48	C	-0.768089	0.786427	0.500108
C49	C	-1.256474	0.395627	0.000105
C50	C	-0.756474	0.895627	0.500105
C51	C	-1.084564	0.386819	0.000099
C52	C	-0.584564	0.886819	0.500099
C53	C	-1.096180	0.277619	0.000102
C54	C	-0.596180	0.777619	0.500102
C55	C	-1.187945	0.227427	0.000108
C56	C	-0.687945	0.727427	0.500108
C57	C	-1.199560	0.118224	0.000120
C58	C	-0.699560	0.618224	0.500120
C59	C	-1.027651	0.109419	0.000105
C60	C	-0.527651	0.609419	0.500105
C61	C	-1.016036	0.218619	0.000102
C62	C	-0.516036	0.718619	0.500102
N63	N	-1.158595	-0.229138	-0.281728
N64	N	-0.658595	0.270862	0.218272
C65	C	-1.228107	-0.151941	0.531264
C66	C	-0.728107	0.348059	1.031264
C67	C	-1.220817	-0.160047	0.655926
C68	C	-0.720817	0.339953	1.155926
C69	C	-1.103658	-0.290124	0.655947
C70	C	-0.603658	0.209876	1.155947
C71	C	-1.110949	-0.282018	0.531284
C72	C	-0.610949	0.217982	1.031284
C73	C	-1.173176	-0.212926	0.468947
C74	C	-0.673176	0.287074	0.968947
C75	C	-1.180471	-0.204826	0.344282
C76	C	-0.680471	0.295174	0.844282
C77	C	-1.063309	-0.334896	0.344305
C78	C	-0.563309	0.165104	0.844305
C79	C	-1.056018	-0.343002	0.468968
C80	C	-0.556018	0.156998	0.968968
H81	H	-0.655549	-0.370756	0.000101
H82	H	-0.155549	0.129244	0.500101
H83	H	-0.962391	0.061368	0.000115
H84	H	-0.462391	0.561368	0.500115
H85	H	-0.941323	0.259501	0.000092
H86	H	-0.441323	0.759501	0.500092
N87	N	-1.036556	-0.364639	0.723211
N88	N	-0.536556	0.135361	1.223211
H89	H	-1.055537	-0.438447	0.701523
H90	H	-0.555537	0.061553	1.201523
H91	H	-0.968915	-0.344797	0.701511
H92	H	-0.468915	0.155203	1.201511
H93	H	-1.005351	-0.399253	0.519737
H94	H	-0.505351	0.100747	1.019737
N95	N	-1.298531	0.064087	0.000127
N96	N	-0.798531	0.564087	0.500127
H97	H	-1.293732	-0.014044	0.000135
H98	H	-0.793732	0.485956	0.500135
H99	H	-1.329727	0.080332	0.073548
H100	H	-0.829727	0.580332	0.573548
N101	N	-0.616071	-0.097856	0.000122
N102	N	-0.116071	0.402144	0.500122
H103	H	-0.579044	-0.084331	-0.073290
H104	H	-0.079044	0.415669	0.426710
H105	H	-0.664594	-0.043392	0.000163
H106	H	-0.164594	0.456608	0.500163
H107	H	-1.342808	0.245559	0.000125
H108	H	-0.842808	0.745559	0.500125
N109	N	-1.295201	-0.077416	0.464002
N110	N	-0.795201	0.422584	0.964002
H111	H	-1.344154	-0.117931	0.412262
H112	H	-0.844154	0.382069	0.912262
H113	H	-1.328832	-0.040019	0.522459
H114	H	-0.828832	0.459981	1.022459
N115	N	-1.247588	-0.130313	0.277042
N116	N	-0.747588	0.369687	0.777042
H117	H	-1.281278	-0.092909	0.335441
H118	H	-0.781278	0.407091	0.835441
H119	H	-1.209844	-0.077332	0.225324
H120	H	-0.709844	0.422668	0.725324
N121	N	-1.342914	0.459266	0.000102
N122	N	-0.842914	0.959266	0.500102
H123	H	-1.402806	0.410895	0.000107
H124	H	-0.902806	0.910895	0.500107
H125	H	-1.337535	0.499993	0.073521
H126	H	-0.837535	0.999993	0.573521
N127	N	-1.004054	-0.400684	0.277105
N128	N	-0.504054	0.099316	0.777105
H129	H	-1.047788	-0.447006	0.225379
H130	H	-0.547788	0.052994	0.725379
H131	H	-0.961150	-0.353374	0.225455
H132	H	-0.461150	0.146626	0.725455
N133	N	-1.280074	-0.094281	0.723137
N134	N	-0.780074	0.405719	1.223137
H135	H	-1.266016	-0.109899	0.811570
H136	H	-0.766016	0.390101	1.311570
H137	H	-1.263609	-0.017678	0.701351
H138	H	-0.763609	0.482322	1.201351
N139	N	-0.985596	0.440963	0.000083
N140	N	-0.485596	0.940963	0.500083
H141	H	-0.981257	0.490842	-0.073340
H142	H	-0.481257	0.990842	0.426660
H143	H	-0.972702	0.481247	0.073543
H144	H	-0.472702	0.981247	0.573543
