data_functionalizedCrystal
_audit_creation_method	'MofGen! by Chris Wilmer'
_symmetry_space_group_name_H-M	'P1'
_symmetry_Int_Tables_number	1
_symmetry_cell_setting	triclinic
loop_
_symmetry_equiv_pos_as_xyz
  x,y,z
_cell_length_a	16.109295
_cell_length_b	12.996460
_cell_length_c	16.109301
_cell_angle_alpha	90.007568
_cell_angle_beta	96.539666
_cell_angle_gamma	89.997345
loop_
_atom_site_label
_atom_site_type_symbol
_atom_site_fract_x
_atom_site_fract_y
_atom_site_fract_z
O1	O	-1.103136	0.085500	0.106846
O2	O	-0.769803	0.418833	0.440180
O3	O	-0.436469	0.752167	0.773513
O4	O	-0.861073	0.085518	0.120151
O5	O	-0.527740	0.418851	0.453484
O6	O	-0.194407	0.752185	0.786817
O7	O	-0.988754	0.085498	-0.007533
O8	O	-0.655421	0.418831	0.325801
O9	O	-0.322088	0.752165	0.659134
O10	O	-0.975455	0.085520	0.234530
O11	O	-0.642122	0.418853	0.567863
O12	O	-0.308788	0.752187	0.901196
O13	O	-0.988741	-0.085636	-0.007540
O14	O	-0.655408	0.247698	0.325794
O15	O	-0.322074	0.581031	0.659127
O16	O	-0.861060	-0.085616	0.120144
O17	O	-0.527727	0.247717	0.453477
O18	O	-0.194393	0.581051	0.786810
O19	O	-1.103123	-0.085634	0.106839
O20	O	-0.769789	0.247700	0.440173
O21	O	-0.436456	0.581033	0.773506
Cu22	Cu	-0.982090	-0.101251	0.113491
Cu23	Cu	-0.648757	0.232083	0.446824
Cu24	Cu	-0.315423	0.565416	0.780158
Cu25	Cu	-0.982106	0.101135	0.113499
Cu26	Cu	-0.648772	0.434468	0.446833
Cu27	Cu	-0.315439	0.767802	0.780166
O28	O	-0.975442	-0.085614	0.234523
O29	O	-0.642108	0.247719	0.567856
O30	O	-0.308775	0.581053	0.901189
C31	C	-0.830092	-0.000047	0.119609
C32	C	-0.496758	0.333287	0.452942
C33	C	-0.163425	0.666620	0.786276
C34	C	-0.737796	-0.000040	0.117996
C35	C	-0.404463	0.333293	0.451329
C36	C	-0.071129	0.666626	0.784662
C37	C	-0.515523	-0.000045	0.190008
C38	C	-0.182190	0.333289	0.523341
C39	C	0.151143	0.666622	0.856675
C40	C	-0.428803	-0.000051	0.188486
C41	C	-0.095469	0.333282	0.521819
C42	C	0.237864	0.666616	0.855152
C43	C	-0.448677	-0.000061	0.036996
C44	C	-0.115344	0.333273	0.370330
C45	C	0.217990	0.666606	0.703663
C46	C	-0.535396	-0.000062	0.038520
C47	C	-0.202063	0.333272	0.371853
C48	C	0.131271	0.666605	0.705186
C49	C	-0.568816	-0.000048	0.115028
C50	C	-0.235483	0.333285	0.448361
C51	C	0.097850	0.666618	0.781695
C52	C	-0.395377	-0.000054	0.111982
C53	C	-0.062044	0.333280	0.445316
C54	C	0.271290	0.666613	0.778649
C55	C	-0.301351	-0.000061	0.110331
C56	C	0.031983	0.333273	0.443665
C57	C	0.365316	0.666606	0.776998
C58	C	-0.662849	-0.000044	0.116679
C59	C	-0.329515	0.333290	0.450013
C60	C	0.003818	0.666623	0.783346
N61	N	-0.982085	-0.243598	0.113484
N62	N	-0.648752	0.089736	0.446818
N63	N	-0.315418	0.423069	0.780151
C64	C	-0.982105	-0.663412	0.113500
C65	C	-0.648771	-0.330079	0.446833
C66	C	-0.315438	0.003255	0.780167
C67	C	-0.982097	-0.546607	0.113499
C68	C	-0.648763	-0.213274	0.446832
C69	C	-0.315430	0.120060	0.780165
C70	C	-0.982095	-0.453509	0.113493
C71	C	-0.648762	-0.120175	0.446826
C72	C	-0.315429	0.213158	0.780160
C73	C	-0.982087	-0.336696	0.113490
C74	C	-0.648753	-0.003363	0.446823
C75	C	-0.315420	0.329971	0.780157
C76	C	-0.134104	-0.000066	0.107386
C77	C	0.199230	0.333268	0.440719
C78	C	0.532563	0.666601	0.774053
C79	C	-0.226397	-0.000062	0.109014
C80	C	0.106936	0.333271	0.442348
C81	C	0.440270	0.666605	0.775681
C82	C	-0.988209	-0.000069	-0.038511
C83	C	-0.654876	0.333264	0.294822
C84	C	-0.321542	0.666597	0.628156
C85	C	-0.986594	-0.000071	-0.130806
C86	C	-0.653260	0.333263	0.202527
C87	C	-0.319927	0.666596	0.535860
N88	N	-0.982117	0.243482	0.113499
N89	N	-0.648784	0.576815	0.446832
N90	N	-0.315451	0.910149	0.780166
C91	C	-1.058602	-0.000060	-0.353080
C92	C	-0.725268	0.333274	-0.019747
C93	C	-0.391935	0.666607	0.313587
C94	C	-1.057078	-0.000051	-0.439800
C95	C	-0.723744	0.333282	-0.106467
C96	C	-0.390411	0.666616	0.226866
C97	C	-0.905588	-0.000044	-0.419923
C98	C	-0.572255	0.333289	-0.086590
C99	C	-0.238922	0.666623	0.246744
C100	C	-0.907113	-0.000045	-0.333204
C101	C	-0.573780	0.333288	0.000129
C102	C	-0.240447	0.666621	0.333462
C103	C	-0.983622	-0.000058	-0.299785
C104	C	-0.650289	0.333275	0.033548
C105	C	-0.316956	0.666608	0.366881
C106	C	-0.980573	-0.000049	-0.473225
C107	C	-0.647240	0.333285	-0.139891
C108	C	-0.313907	0.666618	0.193442
C109	C	-0.978920	-0.000039	-0.567251
C110	C	-0.645587	0.333294	-0.233917
C111	C	-0.312254	0.666627	0.099416
C112	C	-0.985276	-0.000066	-0.205754
C113	C	-0.651943	0.333268	0.127580
C114	C	-0.318609	0.666601	0.460913
C115	C	-0.975987	-0.000044	0.265501
C116	C	-0.642654	0.333289	0.598834
C117	C	-0.309320	0.666622	0.932168
C118	C	-0.977602	-0.000036	0.357796
C119	C	-0.644269	0.333297	0.691130
C120	C	-0.310935	0.666631	1.024463
H121	H	-0.542731	-0.000042	0.252306
H122	H	-0.209398	0.333292	0.585639
H123	H	0.123936	0.666625	0.918972
O124	O	-1.129968	0.000081	-0.491485
O125	O	-0.796635	0.333415	-0.158152
O126	O	-0.463301	0.666748	0.175181
C127	C	-1.176416	0.088721	-0.476340
C128	C	-0.843083	0.422054	-0.143007
C129	C	-0.509749	0.755387	0.190326
H130	H	-1.155986	0.118267	-0.410547
H131	H	-0.822652	0.451600	-0.077214
H132	H	-0.489319	0.784934	0.256119
H133	H	-1.245758	0.068781	-0.482465
H134	H	-0.912425	0.402114	-0.149131
H135	H	-0.579092	0.735448	0.184202
H136	H	-1.165065	0.150788	-0.523761
H137	H	-0.831732	0.484122	-0.190428
H138	H	-0.498398	0.817455	0.142906
O139	O	-0.376950	0.000096	0.261267
O140	O	-0.043617	0.333429	0.594601
O141	O	0.289716	0.666763	0.927934
C142	C	-0.326210	0.088740	0.264932
C143	C	0.007123	0.422073	0.598265
C144	C	0.340456	0.755407	0.931599
H145	H	-0.321844	0.118280	0.198942
H146	H	0.011489	0.451613	0.532275
H147	H	0.344823	0.784946	0.865609
H148	H	-0.261024	0.068809	0.295921
H149	H	0.072309	0.402143	0.629254
H150	H	0.405642	0.735476	0.962587
H151	H	-0.354731	0.150809	0.302897
H152	H	-0.021398	0.484143	0.636230
H153	H	0.311936	0.817476	0.969563
H154	H	-1.120900	-0.000068	-0.325874
H155	H	-0.787567	0.333265	0.007460
H156	H	-0.454234	0.666598	0.340793
H157	H	-0.843297	-0.000035	-0.447144
H158	H	-0.509964	0.333298	-0.113810
H159	H	-0.176631	0.666631	0.219523
O160	O	-0.834219	0.000092	-0.281513
O161	O	-0.500885	0.333426	0.051821
O162	O	-0.167552	0.666759	0.385154
C163	C	-0.787781	0.088739	-0.296632
C164	C	-0.454448	0.422073	0.036701
C165	C	-0.121115	0.755406	0.370034
H166	H	-0.808210	0.118286	-0.362420
H167	H	-0.474877	0.451619	-0.029087
H168	H	-0.141543	0.784953	0.304247
H169	H	-0.718436	0.068810	-0.290506
H170	H	-0.385103	0.402143	0.042828
H171	H	-0.051770	0.735476	0.376161
H172	H	-0.799146	0.150803	-0.249199
H173	H	-0.465813	0.484136	0.084134
H174	H	-0.132480	0.817469	0.417468
O175	O	-0.416072	-0.000019	-0.037247
O176	O	-0.082739	0.333314	0.296086
O177	O	0.250595	0.666647	0.629420
C178	C	-0.328103	-0.000041	-0.022516
C179	C	0.005230	0.333293	0.310818
C180	C	0.338563	0.666626	0.644151
H181	H	-0.307721	0.032362	0.042374
H182	H	0.025613	0.365695	0.375707
H183	H	0.358946	0.699028	0.709041
H184	H	-0.301495	0.049643	-0.071464
H185	H	0.031839	0.382977	0.261869
H186	H	0.365172	0.716310	0.595203
H187	H	-0.303961	-0.082141	-0.026545
H188	H	0.029373	0.251192	0.306789
H189	H	0.362706	0.584525	0.640122
H190	H	-0.578790	-0.000068	-0.022542
H191	H	-0.245457	0.333266	0.310791
H192	H	0.087877	0.666599	0.644125
