data_functionalizedCrystal
_audit_creation_method	'MofGen! by Chris Wilmer'
_symmetry_space_group_name_H-M	'P1'
_symmetry_Int_Tables_number	1
_symmetry_cell_setting	triclinic
loop_
_symmetry_equiv_pos_as_xyz
  x,y,z
_cell_length_a	10.686220
_cell_length_b	10.685194
_cell_length_c	10.686551
_cell_angle_alpha	98.415440
_cell_angle_beta	89.691918
_cell_angle_gamma	99.069756
loop_
_atom_site_label
_atom_site_type_symbol
_atom_site_fract_x
_atom_site_fract_y
_atom_site_fract_z
Zn1	Zn	1.946781	-0.311311	0.540461
Zn2	Zn	1.911615	-0.542431	0.314426
Zn3	Zn	1.718223	-0.343976	0.344478
Zn4	Zn	1.718258	-0.539843	0.540385
O5	O	1.823719	-0.434390	0.434938
O6	O	2.118689	-0.329382	0.497932
O7	O	1.871230	-0.530859	0.141828
O8	O	1.763244	-0.160946	0.383085
O9	O	2.092853	-0.499185	0.331864
O10	O	1.931165	-0.136948	0.527073
O11	O	1.729146	-0.385055	0.163907
O12	O	1.541655	-0.382545	0.383011
O13	O	1.763303	-0.494775	0.716980
O14	O	1.541680	-0.526449	0.526943
O15	O	1.931198	-0.326873	0.717036
O16	O	1.871264	-0.720784	0.331791
O17	O	1.729204	-0.718883	0.497802
C18	C	1.495884	-0.457762	0.458231
C19	C	1.355634	-0.467788	0.468224
C20	C	1.796458	-0.766163	0.411552
C21	C	1.784915	-0.908084	0.401582
C22	C	2.152835	-0.410928	0.411554
C23	C	2.293085	-0.400930	0.401589
C24	C	1.851177	-0.406891	0.764075
C25	C	1.862878	-0.395173	0.904333
C26	C	1.851123	-0.101318	0.458440
C27	C	1.862801	0.040618	0.468455
C28	C	1.796448	-0.461685	0.107083
C29	C	1.785022	-0.473026	-0.033167
H30	H	1.346828	-0.336021	0.336895
O31	O	1.284454	-0.553781	0.553927
H32	H	1.181771	-0.548425	0.548599
H33	H	1.709385	-0.972749	0.336703
O34	O	1.962847	-0.873750	0.554397
H35	H	1.956534	-0.771978	0.548997
H36	H	1.709417	-0.548648	0.913039
O37	O	1.963022	-0.294976	0.975582
H38	H	1.956796	-0.301166	1.078264
