data_functionalizedCrystal
_audit_creation_method	'MofGen! by Chris Wilmer'
_symmetry_space_group_name_H-M	'P1'
_symmetry_Int_Tables_number	1
_symmetry_cell_setting	triclinic
loop_
_symmetry_equiv_pos_as_xyz
  x,y,z
_cell_length_a	10.654546
_cell_length_b	9.130313
_cell_length_c	10.654551
_cell_angle_alpha	89.998448
_cell_angle_beta	95.515557
_cell_angle_gamma	89.992522
loop_
_atom_site_label
_atom_site_type_symbol
_atom_site_fract_x
_atom_site_fract_y
_atom_site_fract_z
O1	O	-1.667837	0.122035	0.176373
O2	O	-1.302358	0.121984	0.193183
O3	O	-1.493500	0.122011	0.002039
O4	O	-1.476695	0.122008	0.367517
O5	O	-1.493498	-0.121587	0.002044
O6	O	-1.302356	-0.121615	0.193188
O7	O	-1.667835	-0.121563	0.176378
Cu8	Cu	-1.485095	-0.143832	0.184784
Cu9	Cu	-1.485098	0.144252	0.184778
O10	O	-1.476693	-0.121591	0.367522
C11	C	-1.255559	0.000178	0.191953
C12	C	-1.116116	0.000158	0.188262
C13	C	-1.492265	0.000215	-0.044757
C14	C	-1.488572	0.000225	-0.184200
C15	C	-1.036630	0.000173	0.300805
C16	C	-0.905609	0.000188	0.297330
C17	C	-0.933572	0.000181	0.068760
C18	C	-1.064590	0.000155	0.072236
C19	C	-1.088156	0.000176	0.416831
C20	C	-1.008669	0.000192	0.529382
C21	C	-0.877648	0.000208	0.525907
C22	C	-0.826114	0.000207	0.409881
N23	N	-1.485102	-0.346454	0.184787
C24	C	-0.714634	0.000227	0.177612
C25	C	-0.854076	0.000200	0.181311
C26	C	-1.569762	-0.423094	0.100177
C27	C	-1.569758	-0.576431	0.100162
C28	C	-1.400432	-0.576475	0.269378
C29	C	-1.400430	-0.423141	0.269386
C30	C	-1.654434	-0.346408	0.015579
C31	C	-1.739101	-0.423047	-0.069037
C32	C	-1.739098	-0.576384	-0.069052
C33	C	-1.654427	-0.653081	0.015549
N34	N	-1.485101	0.346875	0.184764
C35	C	-1.486841	0.133007	-0.249714
C36	C	-1.483361	0.133000	-0.380735
C37	C	-1.483348	-0.132585	-0.380715
C38	C	-1.486819	-0.132576	-0.249696
C39	C	-1.488594	0.265808	-0.184219
C40	C	-1.486865	0.398602	-0.249734
C41	C	-1.483385	0.398594	-0.380754
C42	C	-1.481634	0.265793	-0.446259
C43	C	-1.477928	0.000208	0.414318
C44	C	-1.481621	0.000209	0.553761
H45	H	-1.194838	0.000170	0.419673
H46	H	-1.050637	0.000181	0.623847
O47	O	-1.318369	-0.348520	0.351629
C48	C	-1.386295	-0.259846	0.429760
H49	H	-1.484136	-0.236864	0.380656
H50	H	-1.395622	-0.318939	0.522665
C51	C	-1.195553	-0.142429	0.516248
C52	C	-1.315721	-0.114192	0.455933
H53	H	-1.152018	-0.052585	0.532399
H54	H	-1.149789	-0.202174	0.463614
H55	H	-1.203343	-0.191677	0.593662
H56	H	-1.307929	-0.064961	0.378514
H57	H	-1.361482	-0.054435	0.508556
H58	H	-1.654447	-0.221553	0.015586
H59	H	-0.719426	0.000197	0.407060
H60	H	-1.478782	0.265798	-0.552943
O61	O	-1.488379	0.527509	-0.185955
C62	C	-1.381788	0.535454	-0.096917
H63	H	-1.346122	0.420154	-0.072844
H64	H	-1.304413	0.600949	-0.138126
C65	C	-1.461858	0.753025	-0.006073
C66	C	-1.418059	0.611410	0.023502
H67	H	-1.484229	0.799884	0.068206
H68	H	-1.533669	0.747677	-0.066062
H69	H	-1.397371	0.807585	-0.040416
H70	H	-1.482551	0.556847	0.057829
H71	H	-1.346260	0.616751	0.083501
H72	H	-0.812933	0.000206	0.617552
H73	H	-1.808029	-0.638783	-0.137957
H74	H	-0.891601	0.000204	-0.025704
H75	H	-1.129310	0.000147	-0.019406
H76	H	-1.654423	-0.777938	0.015521
H77	H	-1.808031	-0.360593	-0.137923
H78	H	-1.491432	0.265829	-0.077536
H79	H	-1.331498	-0.638932	0.338258
H80	H	-1.481963	0.506721	-0.434091
H81	H	-1.481924	-0.240705	-0.434060
H82	H	-1.488202	-0.240699	-0.196349
