data_functionalizedCrystal
_audit_creation_method	'MofGen! by Chris Wilmer'
_symmetry_space_group_name_H-M	'P1'
_symmetry_Int_Tables_number	1
_symmetry_cell_setting	triclinic
loop_
_symmetry_equiv_pos_as_xyz
  x,y,z
_cell_length_a	14.853558
_cell_length_b	14.044220
_cell_length_c	13.101039
_cell_angle_alpha	86.332523
_cell_angle_beta	93.361725
_cell_angle_gamma	88.410006
loop_
_atom_site_label
_atom_site_type_symbol
_atom_site_fract_x
_atom_site_fract_y
_atom_site_fract_z
O1	O	1.210711	0.118500	0.085205
O2	O	0.949420	0.133252	0.085210
O3	O	1.076143	-0.012113	0.085197
O4	O	1.083988	0.263865	0.085217
O5	O	1.067052	-0.001666	-0.085232
O6	O	0.940329	0.143700	-0.085219
O7	O	1.201620	0.128947	-0.085224
Zn8	Zn	1.069531	0.137982	-0.112281
Zn9	Zn	1.081509	0.124218	0.112267
O10	O	1.074897	0.274312	-0.085212
C11	C	0.911233	0.137809	-0.000004
C12	C	0.810990	0.135811	-0.000002
C13	C	0.768851	0.129179	0.092902
C14	C	0.758938	0.140557	-0.092906
C15	C	0.664755	0.138675	-0.092908
C16	C	0.622616	0.132042	-0.000003
C17	C	0.674660	0.127293	0.092903
C18	C	0.612704	0.143414	-0.185813
C19	C	0.518515	0.141531	-0.185818
C20	C	0.476375	0.134905	-0.092912
C21	C	0.528425	0.130157	-0.000002
C22	C	0.486286	0.123524	0.092902
C23	C	0.538334	0.118783	0.185814
C24	C	0.632519	0.120667	0.185809
C25	C	0.382189	0.133020	-0.092908
C26	C	0.392094	0.121639	0.092904
C27	C	1.068164	-0.042208	-0.000018
C28	C	1.057922	-0.147447	-0.000019
C29	C	1.039199	-0.340133	-0.000004
C30	C	1.111838	-0.397673	-0.000002
C31	C	1.101420	-0.504891	0.000007
C32	C	1.049615	-0.232906	-0.000012
C33	C	1.239808	0.124390	-0.000008
C34	C	1.340050	0.126388	-0.000003
C35	C	1.082876	0.304407	0.000006
C36	C	1.093118	0.409646	0.000013
N37	N	1.061363	0.147375	-0.265529
C38	C	1.050251	0.160164	-0.474570
C39	C	1.100793	0.102031	-0.525451
C40	C	1.094610	0.109147	-0.641769
C41	C	1.056433	0.153049	-0.358242
N42	N	1.089683	0.114817	0.265514
H43	H	0.339815	0.136890	-0.168554
H44	H	1.148706	0.046919	-0.481653
O45	O	1.195393	-0.360445	0.000164
C46	C	1.247229	-0.396756	0.088412
H47	H	1.200388	-0.421244	0.150118
H48	H	1.291898	-0.338543	0.118024
H49	H	1.291317	-0.459841	0.068455
O50	O	0.955742	-0.377573	-0.000051
C51	C	0.963791	-0.477842	-0.000021
H52	H	1.030602	-0.498875	-0.032278
H53	H	0.905672	-0.505344	-0.049506
H54	H	0.961606	-0.510389	0.081743
H55	H	0.357792	0.116244	0.168559
H56	H	1.002342	0.215274	-0.518362
H57	H	0.504012	0.113377	0.261457
H58	H	0.674905	0.116805	0.261452
O59	O	0.799758	0.147124	-0.183215
C60	C	0.770132	0.232173	-0.239722
H61	H	0.701951	0.256543	-0.213305
H62	H	0.763189	0.218862	-0.324713
H63	H	0.821299	0.289887	-0.226845
O64	O	0.819496	0.124705	0.183086
C65	C	0.870634	0.207506	0.188656
H66	H	0.879235	0.240078	0.107993
H67	H	0.939777	0.187978	0.227977
H68	H	0.834242	0.261415	0.234502
O69	O	0.653748	0.149727	-0.275986
C70	C	0.711540	0.069114	-0.281549
H71	H	0.731151	0.037108	-0.200884
H72	H	0.774865	0.091302	-0.320859
H73	H	0.675339	0.013747	-0.327400
O74	O	0.468093	0.146195	-0.276159
C75	C	0.525485	0.152428	-0.358156
H76	H	0.592757	0.182085	-0.330918
H77	H	0.492782	0.201854	-0.423131
H78	H	0.537325	0.078386	-0.386726
