data_functionalizedCrystal
_audit_creation_method	'MofGen! by Chris Wilmer'
_symmetry_space_group_name_H-M	'P1'
_symmetry_Int_Tables_number	1
_symmetry_cell_setting	triclinic
loop_
_symmetry_equiv_pos_as_xyz
  x,y,z
_cell_length_a	12.645330
_cell_length_b	12.645331
_cell_length_c	10.685880
_cell_angle_alpha	94.401341
_cell_angle_beta	94.340937
_cell_angle_gamma	89.985762
loop_
_atom_site_label
_atom_site_type_symbol
_atom_site_fract_x
_atom_site_fract_y
_atom_site_fract_z
Zn1	Zn	-0.468027	-1.666714	-0.713687
Zn2	Zn	-0.631745	-1.653002	-0.502694
Zn3	Zn	-0.454485	-1.475834	-0.502681
Zn4	Zn	-0.645233	-1.489406	-0.713616
O5	O	-0.549873	-1.571239	-0.608169
O6	O	-0.489767	-1.813245	-0.685733
O7	O	-0.596919	-1.618081	-0.326114
O8	O	-0.307936	-1.501213	-0.530696
O9	O	-0.610050	-1.803170	-0.530718
O10	O	-0.317885	-1.641452	-0.685721
O11	O	-0.466687	-1.487917	-0.326105
O12	O	-0.479766	-1.329285	-0.530627
O13	O	-0.633038	-1.524345	-0.890203
O14	O	-0.619908	-1.339256	-0.685600
O15	O	-0.502845	-1.654613	-0.890255
O16	O	-0.781880	-1.631242	-0.530649
O17	O	-0.791790	-1.511049	-0.685612
C18	C	-0.549832	-1.295805	-0.608105
C19	C	-0.549841	-1.177975	-0.608107
C20	C	-0.461558	-1.126795	-0.510768
C21	C	-0.461267	-1.004256	-0.511090
C22	C	-0.528604	-1.018727	-0.741294
C23	C	-0.527960	-1.141287	-0.740698
C24	C	-0.659670	-1.130530	-0.573490
C25	C	-0.658891	-1.007735	-0.570591
C26	C	-0.825301	-1.571160	-0.608152
C27	C	-0.943133	-1.571227	-0.608186
C28	C	-1.116995	-1.495970	-0.705974
C29	C	-0.994415	-1.495533	-0.705660
C30	C	-0.979173	-1.532413	-0.475201
C31	C	-1.101810	-1.531953	-0.475794
C32	C	-1.112424	-1.685726	-0.642306
C33	C	-0.990004	-1.685225	-0.645214
C34	C	-0.273370	-1.571348	-0.608215
C35	C	-0.155541	-1.571395	-0.608234
C36	C	-0.570957	-1.592523	-0.937294
C37	C	-0.579942	-1.601592	-1.077547
C38	C	-0.549897	-0.847747	-0.608210
C39	C	-0.549862	-0.965574	-0.608164
C40	C	-0.528794	-1.550099	-0.280325
C41	C	-0.519510	-1.541235	-0.140073
H42	H	-0.473583	-1.149817	-0.411741
H43	H	-0.725335	-1.164137	-0.644387
H44	H	-0.380456	-1.159083	-0.533456
H45	H	-0.946667	-1.449402	-0.445817
C46	C	-0.477813	-0.954938	-0.377758
H47	H	-0.484769	-1.009786	-0.322906
H48	H	-0.540300	-0.913200	-0.380041
H49	H	-0.418556	-0.911416	-0.348055
C50	C	-0.351106	-0.966654	-0.542144
H51	H	-0.306360	-1.026298	-0.554624
H52	H	-0.321080	-0.920535	-0.474375
H53	H	-0.357915	-0.929945	-0.616617
H54	H	-0.638556	-1.660210	-1.131314
C55	C	-0.440322	-1.462041	-1.067440
H56	H	-0.444459	-1.466127	-0.979540
H57	H	-0.457186	-1.392185	-1.088965
H58	H	-0.370458	-1.478972	-1.088994
C59	C	-0.419869	-1.182499	-0.780215
H60	H	-0.376762	-1.124329	-0.796475
H61	H	-0.430278	-1.229149	-0.854157
H62	H	-0.385870	-1.219429	-0.714372
H63	H	-0.955113	-1.745066	-0.579210
C64	C	-0.611702	-1.187966	-0.842065
H65	H	-0.645958	-1.132011	-0.883433
H66	H	-0.662680	-1.227203	-0.803590
H67	H	-0.578116	-1.233467	-0.901730
H68	H	-0.591318	-0.994430	-0.815828
H69	H	-0.680764	-1.155245	-0.478032
C70	C	-0.421779	-0.979885	-0.781524
H71	H	-0.390001	-0.931301	-0.717377
H72	H	-0.433288	-0.945661	-0.857429
H73	H	-0.376131	-1.038739	-0.794556
C74	C	-0.680777	-0.959839	-0.438238
H75	H	-0.623718	-0.914332	-0.406004
H76	H	-0.687410	-1.015236	-0.384073
H77	H	-0.744702	-0.920377	-0.442990
C78	C	-1.138062	-1.418706	-0.436817
H79	H	-1.077849	-1.373412	-0.420777
H80	H	-1.175180	-1.419371	-0.362847
H81	H	-1.183507	-1.393459	-0.502805
H82	H	-0.727466	-0.981369	-0.636273
H83	H	-1.152770	-1.521094	-0.804906
C84	C	-1.162364	-1.731300	-0.771082
H85	H	-1.135283	-1.800319	-0.789847
H86	H	-1.145434	-1.686556	-0.834264
H87	H	-1.237193	-1.735152	-0.768574
C88	C	-0.962243	-1.529642	-0.838877
H89	H	-1.024144	-1.543889	-0.893676
H90	H	-0.920133	-1.591769	-0.836313
H91	H	-0.922619	-1.474283	-0.868843
C92	C	-1.156782	-1.382425	-0.675868
H93	H	-1.196779	-1.380784	-0.603989
H94	H	-1.200269	-1.360893	-0.745700
H95	H	-1.097833	-1.335548	-0.659313
H96	H	-0.963724	-1.410946	-0.683086
H97	H	-1.126627	-1.584041	-0.400486
H98	H	-0.967149	-1.714340	-0.743084
C99	C	-0.933288	-1.603747	-0.374121
H100	H	-0.956067	-1.578868	-0.294458
H101	H	-0.858032	-1.601854	-0.370978
H102	H	-0.957476	-1.674533	-0.394561
C103	C	-1.145293	-1.761754	-0.546055
H104	H	-1.185113	-1.724064	-0.485408
H105	H	-1.083641	-1.790348	-0.505123
H106	H	-1.187394	-1.817731	-0.588231
