data_functionalizedCrystal
_audit_creation_method	'MofGen! by Chris Wilmer'
_symmetry_space_group_name_H-M	'P1'
_symmetry_Int_Tables_number	1
_symmetry_cell_setting	triclinic
loop_
_symmetry_equiv_pos_as_xyz
  x,y,z
_cell_length_a	16.120530
_cell_length_b	13.032721
_cell_length_c	13.034296
_cell_angle_alpha	89.133654
_cell_angle_beta	79.563197
_cell_angle_gamma	85.323259
loop_
_atom_site_label
_atom_site_type_symbol
_atom_site_fract_x
_atom_site_fract_y
_atom_site_fract_z
Zn1	Zn	1.306904	0.406996	-0.725549
Zn2	Zn	1.806904	0.906996	-0.225549
Zn3	Zn	1.271886	0.598932	-0.572940
Zn4	Zn	1.771886	1.098932	-0.072940
Zn5	Zn	1.147575	0.420176	-0.542368
Zn6	Zn	1.647575	0.920176	-0.042368
Zn7	Zn	1.151997	0.570459	-0.736414
Zn8	Zn	1.651997	1.070459	-0.236414
O9	O	1.219591	0.499141	-0.644318
O10	O	1.719591	0.999141	-0.144318
O11	O	1.419113	0.438857	-0.713552
O12	O	1.919113	0.938857	-0.213552
O13	O	1.238890	0.592651	-0.423808
O14	O	1.738890	1.092651	0.076192
O15	O	1.181515	0.275208	-0.549326
O16	O	1.681515	0.775208	-0.049326
O17	O	1.393386	0.579871	-0.601431
O18	O	1.893386	1.079871	-0.101431
O19	O	1.298574	0.265525	-0.683908
O20	O	1.798574	0.765525	-0.183908
O21	O	1.147559	0.461320	-0.401347
O22	O	1.647559	0.961320	0.098653
O23	O	1.031308	0.433711	-0.559862
O24	O	1.531308	0.933711	-0.059862
O25	O	1.189052	0.531344	-0.880049
O26	O	1.689052	1.031344	-0.380049
O27	O	1.034557	0.544124	-0.702426
O28	O	1.534557	1.044124	-0.202426
O29	O	1.302862	0.411249	-0.872066
O30	O	1.802862	0.911249	-0.372066
O31	O	1.243178	0.738375	-0.611967
O32	O	1.743178	1.238375	-0.111967
O33	O	1.155096	0.717456	-0.732070
O34	O	1.655096	1.217456	-0.232070
C35	C	1.195842	0.765049	-0.676539
C36	C	1.695842	1.265049	-0.176539
C37	C	1.185763	0.878806	-0.690364
C38	C	1.685763	1.378806	-0.190364
C39	C	1.002633	0.487259	-0.629006
C40	C	1.502633	0.987259	-0.129006
C41	C	0.909819	0.482197	-0.622483
C42	C	1.409819	0.982197	-0.122483
C43	C	1.250356	0.466650	-0.914726
C44	C	1.750356	0.966650	-0.414726
C45	C	1.263467	0.452805	-1.029958
C46	C	1.763467	0.952805	-0.529958
C47	C	0.739888	0.472931	-0.610580
C48	C	1.239888	0.972931	-0.110580
C49	C	0.700136	0.525417	-0.678140
C50	C	1.200136	1.025417	-0.178140
C51	C	0.605581	0.520261	-0.671517
C52	C	1.105581	1.020261	-0.171517
C53	C	0.834452	0.478085	-0.617202
C54	C	1.334452	0.978085	-0.117202
C55	C	1.437395	0.511070	-0.659690
C56	C	1.937395	1.011070	-0.159690
C57	C	1.530211	0.516154	-0.666241
C58	C	2.030211	1.016154	-0.166241
C59	C	1.243457	0.232193	-0.611995
C60	C	1.743457	0.732193	-0.111995
C61	C	1.253628	0.118435	-0.598221
C62	C	1.753628	0.618435	-0.098221
C63	C	1.224901	0.939834	-0.637152
C64	C	1.724901	1.439834	-0.137152
C65	C	1.214484	1.057408	-0.651439
C66	C	1.714484	1.557408	-0.151439
C67	C	1.213001	0.506053	-1.085281
C68	C	1.713001	1.006053	-0.585281
C69	C	1.226550	0.491744	-1.204380
C70	C	1.726550	0.991744	-0.704380
C71	C	1.189000	0.531434	-0.374956
C72	C	1.689000	1.031434	0.125044
C73	C	1.176077	0.545000	-0.259701
C74	C	1.676077	1.045000	0.240299
H75	H	0.737116	0.574223	-0.740954
H76	H	1.237116	1.074223	-0.240954
Br77	Br	1.087347	0.638660	-1.191707
Br78	Br	1.587347	1.138660	-0.691707
Br79	Br	0.678257	0.391587	-0.505893
Br80	Br	1.178257	0.891587	-0.005893
H81	H	1.294853	1.083646	-0.542088
H82	H	1.794853	1.583646	-0.042088
H83	H	1.144548	0.913600	-0.746501
H84	H	1.644548	1.413600	-0.246501
Br85	Br	1.145786	1.115384	-0.745016
Br86	Br	1.645786	1.615384	-0.245016
Br87	Br	1.124270	0.599700	-1.017279
Br88	Br	1.624270	1.099700	-0.517279
H89	H	1.266124	0.905042	-0.581023
H90	H	1.766124	1.405042	-0.081023
H91	H	1.279792	0.435563	-1.245183
H92	H	1.779792	0.935563	-0.745183
H93	H	1.316705	0.396628	-1.070766
H94	H	1.816705	0.896628	-0.570766
