data_functionalizedCrystal
_audit_creation_method	'MofGen! by Chris Wilmer'
_symmetry_space_group_name_H-M	'P1'
_symmetry_Int_Tables_number	1
_symmetry_cell_setting	triclinic
loop_
_symmetry_equiv_pos_as_xyz
  x,y,z
_cell_length_a	10.540539
_cell_length_b	10.489741
_cell_length_c	9.616153
_cell_angle_alpha	89.998052
_cell_angle_beta	89.995174
_cell_angle_gamma	84.532333
loop_
_atom_site_label
_atom_site_type_symbol
_atom_site_fract_x
_atom_site_fract_y
_atom_site_fract_z
O1	O	1.685914	0.179760	-0.115579
O2	O	1.316503	0.196697	-0.115596
O3	O	1.509614	0.002629	-0.115579
O4	O	1.492802	0.373827	-0.115596
O5	O	1.509587	0.002633	0.115712
O6	O	1.316476	0.196701	0.115695
O7	O	1.685887	0.179764	0.115712
Zn8	Zn	1.501177	0.188233	0.152426
Zn9	Zn	1.501212	0.188228	-0.152310
O10	O	1.492776	0.373831	0.115695
C11	C	1.269186	0.195429	0.000047
C12	C	1.128238	0.191629	0.000041
C13	C	1.508331	-0.044900	0.000066
C14	C	1.504532	-0.186529	0.000063
C15	C	0.944793	0.046011	0.000588
C16	C	1.091412	0.049864	0.000052
C17	C	1.066588	0.259850	-0.132036
C18	C	0.920043	0.255011	-0.132132
C19	C	0.919525	0.257900	0.130890
C20	C	1.066507	0.259206	0.132621
C21	C	1.381661	-0.254654	0.000047
C22	C	1.439691	-0.346782	0.114088
C23	C	1.439746	-0.346760	-0.113947
C24	C	1.562613	-0.276791	0.114199
C25	C	1.562651	-0.276760	-0.113939
C26	C	1.620770	-0.368860	0.000130
C27	C	1.733203	0.181032	0.000066
C28	C	1.874152	0.184832	0.000063
C29	C	1.494059	0.421361	0.000047
C30	C	1.497858	0.562990	0.000041
N31	N	1.501163	0.188236	0.360401
N32	N	1.501237	0.188215	-0.360285
C33	C	1.397545	0.291701	0.580761
C34	C	1.397773	0.292088	0.419594
C35	C	1.633890	0.218515	0.418855
C36	C	1.633325	0.219248	0.580073
C37	C	1.473374	0.054153	0.580317
C38	C	1.470328	0.055022	0.419090
H39	H	1.134009	-0.003815	0.094731
O40	O	1.631399	-0.235975	0.242062
H41	H	1.633634	-0.130404	0.241096
O42	O	1.631523	-0.235639	-0.241614
H43	H	1.566536	-0.167927	-0.303219
H44	H	1.090745	0.362562	0.140590
O45	O	1.738600	0.121403	0.368065
H46	H	1.831342	0.144959	0.410843
H47	H	1.657691	0.317055	0.617657
H48	H	0.916190	-0.009992	0.095308
H49	H	1.299154	0.273870	0.380075
O50	O	1.340986	0.024625	0.368494
H51	H	1.351394	-0.065556	0.307429
O52	O	1.370877	-0.387808	-0.241652
H53	H	1.420993	-0.358416	-0.336217
H54	H	1.721885	-0.418297	0.000198
O55	O	0.904777	-0.027881	-0.124156
H56	H	0.929471	0.022152	-0.220752
O57	O	0.856989	0.393535	0.132080
H58	H	0.799726	0.409712	0.228433
O59	O	1.247853	-0.188850	0.000183
H60	H	1.197145	-0.216714	0.094992
H61	H	1.133162	-0.004197	-0.094786
H62	H	1.415224	0.390600	0.621256
H63	H	1.298618	0.273762	0.619569
H64	H	1.415684	0.391551	0.381010
H65	H	1.712959	0.146910	0.619068
O66	O	1.370827	-0.387853	0.241802
H67	H	1.271594	-0.341695	0.241569
H68	H	1.658799	0.315218	0.378461
H69	H	0.891838	0.204586	-0.230856
O70	O	1.347853	0.015995	0.634211
H71	H	1.303922	0.092167	0.703943
H72	H	0.872087	0.356966	-0.138131
O73	O	1.096216	0.397751	-0.138578
H74	H	1.155342	0.419177	-0.047547
H75	H	1.540845	-0.025687	0.378802
O76	O	1.573465	-0.047922	0.630827
H77	H	1.668793	-0.025094	0.594924
O78	O	1.122983	0.197070	-0.262243
H79	H	1.194902	0.117293	-0.233223
H80	H	0.887962	0.212023	0.231003
H81	H	1.107452	0.209368	0.230331
