data_functionalizedCrystal
_audit_creation_method	'MofGen! by Chris Wilmer'
_symmetry_space_group_name_H-M	'P1'
_symmetry_Int_Tables_number	1
_symmetry_cell_setting	triclinic
loop_
_symmetry_equiv_pos_as_xyz
  x,y,z
_cell_length_a	14.044220
_cell_length_b	10.540539
_cell_length_c	13.101039
_cell_angle_alpha	93.398267
_cell_angle_beta	86.340132
_cell_angle_gamma	88.857185
loop_
_atom_site_label
_atom_site_type_symbol
_atom_site_fract_x
_atom_site_fract_y
_atom_site_fract_z
O1	O	1.264944	0.299850	-0.085096
O2	O	0.988901	0.288796	-0.085123
O3	O	1.133220	0.110253	-0.085108
O4	O	1.120625	0.478393	-0.085111
O5	O	1.122866	0.123087	0.085321
O6	O	0.978547	0.301630	0.085306
O7	O	1.254589	0.312683	0.085332
Zn8	Zn	1.114924	0.309194	0.112379
Zn9	Zn	1.128566	0.292285	-0.112169
O10	O	1.110270	0.491226	0.085317
C11	C	0.948377	0.290375	0.000088
C12	C	0.843054	0.275945	0.000078
C13	C	1.127098	0.069271	0.000105
C14	C	1.124273	-0.071963	0.000099
C15	C	0.650213	0.249565	0.000099
C16	C	0.593272	0.351908	0.000102
C17	C	0.485969	0.337230	0.000114
C18	C	0.757526	0.264241	0.000087
C19	C	1.016007	-0.266367	-0.000294
C20	C	1.018849	-0.119430	0.000090
C21	C	1.169094	-0.121162	0.097427
C22	C	1.165492	-0.268064	0.097509
C23	C	1.179411	-0.282960	-0.096300
C24	C	1.180460	-0.135977	-0.097587
C25	C	1.295114	0.311104	0.000119
C26	C	1.400437	0.325534	0.000123
C27	C	1.116392	0.532208	0.000103
C28	C	1.119218	0.673442	0.000102
N29	N	1.105620	0.320734	0.265626
N30	N	1.137878	0.280737	-0.265416
C31	C	1.092962	0.336445	0.474667
C32	C	1.150533	0.265029	0.525549
C33	C	1.143490	0.273771	0.641867
C34	C	1.100004	0.327705	0.358339
H35	H	0.625112	0.450550	0.000096
H36	H	1.205111	0.197322	0.481752
C37	C	1.019234	0.427907	0.533832
N38	N	0.963703	0.496797	0.578406
H39	H	0.618376	0.150932	0.000105
C40	C	1.115534	-0.061070	0.195267
N41	N	1.075185	-0.015812	0.268958
C42	C	0.970636	-0.074421	-0.094160
N43	N	0.934314	-0.040526	-0.165150
C44	C	0.965466	-0.317806	-0.094578
N45	N	0.927397	-0.356563	-0.165594
H46	H	0.970315	-0.295542	0.069103
H47	H	1.123576	-0.294577	0.170256
C48	C	0.958807	-0.061396	0.094495
N49	N	0.913582	-0.017686	0.165606
C50	C	1.267554	-0.322065	0.103499
N51	N	1.344426	-0.362732	0.108018
C52	C	1.284784	-0.093364	-0.105514
N53	N	1.363365	-0.061272	-0.111475
C54	C	1.273382	-0.079995	0.102342
N55	N	1.351930	-0.048976	0.106047
C56	C	1.139367	-0.337745	-0.195958
N57	N	1.109194	-0.379007	-0.271016
C58	C	1.136267	-0.093096	-0.194861
N59	N	1.102972	-0.060802	-0.268126
H60	H	1.255598	-0.322536	-0.096948
