data_functionalizedCrystal
_audit_creation_method	'MofGen! by Chris Wilmer'
_symmetry_space_group_name_H-M	'P1'
_symmetry_Int_Tables_number	1
_symmetry_cell_setting	triclinic
loop_
_symmetry_equiv_pos_as_xyz
  x,y,z
_cell_length_a	14.044191
_cell_length_b	27.731996
_cell_length_c	12.503572
_cell_angle_alpha	93.487301
_cell_angle_beta	86.162165
_cell_angle_gamma	87.906582
loop_
_atom_site_label
_atom_site_type_symbol
_atom_site_fract_x
_atom_site_fract_y
_atom_site_fract_z
O1	O	1.261462	0.113918	-0.089295
O2	O	0.985557	0.109712	-0.089307
O3	O	1.132103	0.041821	-0.089277
O4	O	1.114916	0.181809	-0.089325
O5	O	1.121082	0.046936	0.089362
O6	O	0.974535	0.114827	0.089332
O7	O	1.250441	0.119033	0.089345
Cu8	Cu	1.111482	0.117397	0.105650
Cu9	Cu	1.124516	0.111348	-0.105612
O10	O	1.103895	0.186924	0.089315
C11	C	0.944759	0.110429	0.000011
C12	C	0.839616	0.104941	0.000008
C13	C	0.588896	0.133832	0.000009
C14	C	0.647108	0.094915	0.000020
C15	C	0.754229	0.100494	0.000013
C16	C	0.481765	0.128253	0.000015
C17	C	1.126239	0.026354	0.000046
C18	C	1.125175	-0.027352	0.000057
C19	C	1.124494	-0.363172	-0.097372
C20	C	1.120456	-0.565020	-0.097391
O21	O	1.125003	-0.593489	-0.180207
N22	N	1.113947	-0.587473	-0.000016
C23	C	1.108441	-0.559460	0.097372
O24	O	1.102802	-0.583188	0.180195
C25	C	1.112472	-0.357612	0.097390
C26	C	1.118991	-0.335163	0.000008
C27	C	1.131012	-0.340722	-0.194746
C28	C	1.132026	-0.290263	-0.194740
C29	C	1.126523	-0.262254	-0.097361
C30	C	1.120005	-0.284704	0.000013
C31	C	1.106958	-0.329600	0.194776
C32	C	1.107964	-0.279135	0.194771
C33	C	1.114483	-0.256685	0.097390
C34	C	1.115517	-0.206235	0.097399
N35	N	1.122026	-0.183783	0.000023
C36	C	1.127529	-0.211792	-0.097356
C37	C	1.106327	-0.665433	0.097355
C38	C	1.105321	-0.715894	0.097351
C39	C	1.117335	-0.721451	-0.097412
C40	C	1.118347	-0.670989	-0.097407
C41	C	1.112836	-0.642980	-0.000020
C42	C	1.129660	-0.105824	-0.097337
C43	C	1.130678	-0.055361	-0.097323
C44	C	1.118659	-0.049808	0.097440
C45	C	1.117646	-0.100267	0.097426
C46	C	1.123144	-0.128275	0.000029
O47	O	1.110963	-0.177737	0.180171
O48	O	1.133146	-0.188054	-0.180168
C49	C	1.123480	-0.413631	-0.097378
C50	C	1.116962	-0.436081	-0.000004
C51	C	1.111459	-0.408071	0.097376
C52	C	1.115956	-0.486542	-0.000008
C53	C	1.121459	-0.514551	-0.097388
C54	C	1.127968	-0.492099	-0.194763
C55	C	1.128983	-0.441640	-0.194758
C56	C	1.104949	-0.430524	0.194751
C57	C	1.103936	-0.480983	0.194738
C58	C	1.109440	-0.508992	0.097358
C59	C	1.291239	0.118316	0.000024
C60	C	1.396382	0.123804	0.000021
C61	C	1.109759	0.202391	-0.000011
C62	C	1.110824	0.256096	-0.000029
N63	N	1.102322	0.121652	0.254240
N64	N	1.133684	0.107090	-0.254203
C65	C	1.088846	0.127915	0.473353
C66	C	1.147156	0.100828	0.526692
C67	C	1.139658	0.104313	0.648614
C68	C	1.096343	0.124430	0.351420
H69	H	0.619507	0.171338	-0.000007
Cl70	Cl	1.233284	0.061186	0.455830
Cl71	Cl	1.003085	0.167757	0.544215
H72	H	0.616500	0.057403	-0.000043
Cl73	Cl	1.138876	-0.027142	-0.219755
H74	H	1.134132	-0.128622	-0.176647
H75	H	1.137331	-0.271989	-0.274039
Cl76	Cl	1.095745	-0.509199	0.317174
H77	H	1.135490	-0.363522	-0.274049
H78	H	1.123655	-0.652714	-0.176704
H79	H	1.121816	-0.744265	-0.176703
Cl80	Cl	1.099392	-0.630228	0.219797
Cl81	Cl	1.097143	-0.744111	0.219779
H82	H	1.101651	-0.347869	0.274075
H83	H	1.103462	-0.256332	0.274077
H84	H	1.112346	-0.118547	0.176722
H85	H	1.114183	-0.026994	0.176724
Cl86	Cl	1.134891	-0.527320	-0.317182
Cl87	Cl	1.137177	-0.413425	-0.317188
H88	H	1.100469	-0.407723	0.274051
