data_functionalizedCrystal
_audit_creation_method	'MofGen! by Chris Wilmer'
_symmetry_space_group_name_H-M	'P1'
_symmetry_Int_Tables_number	1
_symmetry_cell_setting	triclinic
loop_
_symmetry_equiv_pos_as_xyz
  x,y,z
_cell_length_a	27.732048
_cell_length_b	26.210047
_cell_length_c	11.792241
_cell_angle_alpha	90.004667
_cell_angle_beta	83.418035
_cell_angle_gamma	90.010925
loop_
_atom_site_label
_atom_site_type_symbol
_atom_site_fract_x
_atom_site_fract_y
_atom_site_fract_z
O1	O	0.641719	0.042364	0.135038
O2	O	0.501045	0.042379	0.155570
O3	O	0.574796	0.042367	-0.019976
O4	O	0.567968	0.042375	0.310584
O5	O	0.574772	-0.042491	-0.019976
O6	O	0.501021	-0.042479	0.155571
O7	O	0.641696	-0.042494	0.135038
Cu8	Cu	0.571356	-0.050235	0.145304
Cu9	Cu	0.571384	0.050120	0.145304
O10	O	0.567945	-0.042483	0.310584
C11	C	0.483024	-0.000048	0.155140
C12	C	0.429361	-0.000042	0.153842
N13	N	0.571341	-0.120819	0.145303
C14	C	0.091101	-0.000062	0.249407
C15	C	-0.110587	-0.000067	0.244592
O16	O	-0.141336	-0.000087	0.331980
N17	N	-0.130315	-0.000068	0.140500
C18	C	-0.099617	-0.000072	0.037605
O19	O	-0.121024	-0.000079	-0.051042
C20	C	0.102070	-0.000071	0.042422
C21	C	0.121794	-0.000064	0.146520
C22	C	0.110826	-0.000056	0.353497
C23	C	0.161245	-0.000052	0.354700
C24	C	0.191939	-0.000054	0.251813
C25	C	0.172213	-0.000060	0.147723
C26	C	0.132766	-0.000078	-0.060472
C27	C	0.183191	-0.000080	-0.059259
C28	C	0.202915	-0.000073	0.044840
C29	C	0.253326	-0.000059	0.046038
N30	N	0.273054	-0.000057	0.150130
C31	C	0.242360	-0.000055	0.253017
C32	C	-0.205506	-0.000072	0.035084
C33	C	-0.255927	-0.000071	0.033879
C34	C	-0.266894	-0.000067	0.240867
C35	C	-0.216471	-0.000064	0.242070
C36	C	-0.185778	-0.000070	0.139175
C37	C	0.348244	-0.000046	0.255535
C38	C	0.398668	-0.000040	0.256729
C39	C	0.409630	-0.000047	0.049742
C40	C	0.359210	-0.000050	0.048548
C41	C	0.328518	-0.000052	0.151454
O42	O	0.284103	-0.000044	-0.041303
O43	O	0.263777	-0.000059	0.341651
C44	C	0.040682	-0.000066	0.248205
C45	C	0.020957	-0.000072	0.144115
C46	C	0.051650	-0.000074	0.041227
C47	C	-0.029465	-0.000072	0.142910
C48	C	-0.060159	-0.000069	0.245797
C49	C	-0.040431	-0.000068	0.349889
C50	C	0.009988	-0.000064	0.351092
C51	C	0.031923	-0.000076	-0.062864
C52	C	-0.018497	-0.000079	-0.064058
C53	C	-0.049191	-0.000077	0.038829
C54	C	0.600873	-0.473335	0.213651
C55	C	0.600887	-0.686993	0.213650
O56	O	0.625985	-0.714617	0.271750
N57	N	0.571396	-0.713713	0.145292
C58	C	0.541901	-0.687014	0.076924
O59	O	0.516821	-0.714644	0.018773
C60	C	0.541889	-0.473357	0.076920
C61	C	0.571379	-0.446640	0.145291
C62	C	0.630360	-0.446618	0.282016
C63	C	0.630354	-0.393206	0.282020
C64	C	0.600861	-0.366512	0.213660
C65	C	0.571373	-0.393229	0.145295
C66	C	0.512398	-0.446659	0.008547
C67	C	0.512398	-0.393242	0.008549
C68	C	0.541888	-0.366525	0.076920
C69	C	0.541874	-0.313123	0.076939
N70	N	0.571365	-0.286403	0.145297
C71	C	0.600859	-0.313098	0.213657
C72	C	0.541908	-0.799188	0.076933
C73	C	0.541910	-0.852602	0.076935
C74	C	0.600897	-0.852577	0.213660
C75	C	0.600892	-0.799162	0.213663
C76	C	0.571400	-0.772468	0.145291
C77	C	0.600844	-0.200930	0.213662
C78	C	0.600834	-0.147514	0.213664
C79	C	0.541849	-0.147543	0.076935
C80	C	0.541857	-0.200955	0.076937
C81	C	0.571358	-0.227647	0.145304
O82	O	0.516793	-0.285466	0.018861
O83	O	0.625943	-0.285459	0.271781
C84	C	0.600878	-0.526746	0.213647
C85	C	0.571391	-0.553463	0.145283
C86	C	0.541897	-0.526768	0.076922
C87	C	0.571393	-0.606877	0.145285
C88	C	0.600886	-0.633572	0.213645
C89	C	0.630378	-0.606852	0.282003
C90	C	0.630372	-0.553441	0.282007
C91	C	0.512406	-0.553488	0.008565
C92	C	0.512414	-0.606899	0.008567
C93	C	0.541907	-0.633594	0.076927
C94	C	0.659717	-0.000066	0.135469
C95	C	0.713379	-0.000069	0.136766
C96	C	0.574355	-0.000061	-0.062253
C97	C	0.573071	-0.000061	-0.188226
N98	N	0.571404	0.120703	0.145296
C99	C	0.570711	-0.000052	-0.418862
C100	C	0.572023	-0.000057	-0.290519
C101	C	0.568385	-0.000053	0.352861
C102	C	0.569669	-0.000050	0.478834
H103	H	0.323260	-0.000049	0.339331
H104	H	0.654370	-0.371458	0.337690
H105	H	0.177300	-0.000046	0.439467
H106	H	-0.180519	-0.000077	-0.048710
H107	H	0.488389	-0.531758	-0.047106
O108	O	-0.070183	-0.000043	0.449939
C109	C	-0.075755	-0.000073	0.655370
C110	C	-0.042004	-0.000085	0.542157
H111	H	-0.052987	-0.000118	0.729958
H112	H	-0.099622	0.035447	0.660055
H113	H	-0.099649	-0.035579	0.659905
H114	H	-0.018080	0.035397	0.537547
H115	H	-0.018170	-0.035628	0.537520
O116	O	0.029204	-0.000124	0.452139
C117	C	0.079731	-0.044088	0.573678
C118	C	0.058013	-0.044079	0.459186
H119	H	0.103020	-0.079627	0.579423
H120	H	0.103098	-0.008596	0.579431
H121	H	0.049120	-0.044060	0.646983
H122	H	0.088593	-0.044124	0.385816
H123	H	0.034634	-0.079567	0.453533
H124	H	0.085839	-0.000056	0.437285
O125	O	-0.037574	-0.000108	-0.165288
C126	C	-0.021361	-0.000092	-0.370462
C127	C	0.000306	-0.000066	-0.255906
H128	H	0.009254	-0.000047	-0.443756
H129	H	-0.044677	-0.035617	-0.376276
H130	H	-0.044706	0.035409	-0.376153
H131	H	0.023673	-0.035542	-0.250138
H132	H	0.023594	0.035483	-0.250141
O133	O	0.061783	-0.000006	-0.162741
C134	C	0.125049	0.043982	-0.281555
C135	C	0.091271	0.043956	-0.168382
H136	H	0.148892	0.079527	-0.286163
H137	H	0.148962	0.008496	-0.286202
H138	H	0.102272	0.043956	-0.356128
H139	H	0.114010	0.044000	-0.093745
H140	H	0.067357	0.079438	-0.163835
H141	H	0.517891	-0.874350	0.021275
O142	O	0.513130	-0.121628	0.010662
C143	C	0.431679	-0.105317	-0.032418
C144	C	0.464141	-0.134690	0.042742
H145	H	0.392066	-0.115874	-0.006525
H146	H	0.436705	-0.062546	-0.020655
H147	H	0.442243	-0.115811	-0.125781
H148	H	0.453598	-0.124239	0.136133
H149	H	0.459111	-0.177453	0.030881
H150	H	-0.200415	-0.000061	0.326836
O151	O	-0.296763	0.000002	0.340740
C152	C	-0.360035	0.043975	0.459533
C153	C	-0.326242	0.043959	0.346382
H154	H	-0.383870	0.079516	0.464142
H155	H	-0.383954	0.008485	0.464142
H156	H	-0.337269	0.043949	0.534126
H157	H	-0.348970	0.044004	0.271724
H158	H	-0.302321	0.079446	0.341872
O159	O	-0.275005	-0.000094	-0.067342
C160	C	-0.258792	-0.000070	-0.272516
C161	C	-0.237125	-0.000053	-0.157960
H162	H	-0.228177	-0.000026	-0.345810
H163	H	-0.282112	-0.035592	-0.278338
H164	H	-0.282133	0.035434	-0.278200
H165	H	-0.213762	-0.035533	-0.152199
H166	H	-0.213833	0.035493	-0.152187
H167	H	0.208179	-0.000085	-0.143050
O168	O	0.340127	-0.000073	-0.052671
C169	C	0.356332	-0.000043	-0.257845
C170	C	0.378003	-0.000025	-0.143296
H171	H	0.386944	0.000007	-0.331146
H172	H	0.333015	-0.035567	-0.263667
H173	H	0.332985	0.035459	-0.263519
H174	H	0.401371	-0.035502	-0.137545
H175	H	0.401291	0.035523	-0.137523
O176	O	0.483741	-0.472527	-0.057980
C177	C	0.425224	-0.466898	-0.193565
C178	C	0.457662	-0.437540	-0.118291
H179	H	0.404123	-0.438624	-0.242328
H180	H	0.448814	-0.491884	-0.256705
H181	H	0.398693	-0.491926	-0.137315
H182	H	0.484198	-0.412484	-0.174450
H183	H	0.434041	-0.412585	-0.055143
O184	O	0.659025	-0.472465	0.348535
C185	C	0.717545	-0.466785	0.484110
C186	C	0.685099	-0.437455	0.408837
H187	H	0.738642	-0.438492	0.532865
H188	H	0.693960	-0.491779	0.547257
H189	H	0.744079	-0.491804	0.427861
H190	H	0.658560	-0.412409	0.464994
H191	H	0.708714	-0.412494	0.345681
O192	O	0.417768	0.000034	0.357929
C193	C	0.423838	0.044019	0.535181
C194	C	0.402169	0.043993	0.420629
H195	H	0.411242	0.079562	0.585896
H196	H	0.411199	0.008531	0.586056
H197	H	0.465147	0.043998	0.518355
H198	H	0.360859	0.044033	0.437350
H199	H	0.414845	0.079478	0.369789
H200	H	0.488395	-0.628648	-0.047106
O201	O	0.439501	0.000017	-0.050122
C202	C	0.502789	0.043986	-0.168908
C203	C	0.468995	0.043975	-0.055760
H204	H	0.526637	0.079527	-0.173514
H205	H	0.526696	0.008497	-0.173516
H206	H	0.480025	0.043955	-0.243505
H207	H	0.491721	0.044024	0.018900
H208	H	0.445086	0.079462	-0.051252
H209	H	0.624905	-0.777413	0.269338
H210	H	0.624910	-0.874321	0.269326
O211	O	0.629456	-0.121619	0.280243
C212	C	0.648806	-0.105249	0.470963
C213	C	0.616368	-0.134612	0.395698
H214	H	0.638230	-0.115735	0.564324
H215	H	0.688434	-0.115751	0.445107
H216	H	0.643748	-0.062489	0.459172
H217	H	0.621384	-0.177379	0.407450
H218	H	0.576753	-0.124067	0.421571
H219	H	0.116716	-0.000084	-0.145240
H220	H	0.624867	-0.222656	0.269332
H221	H	0.517890	-0.777459	0.021253
H222	H	0.488382	-0.371510	-0.047130
H223	H	0.517838	-0.222708	0.021279
H224	H	0.654385	-0.531693	0.337682
H225	H	0.654390	-0.628596	0.337670
