data_functionalizedCrystal
_audit_creation_method	'MofGen! by Chris Wilmer'
_symmetry_space_group_name_H-M	'P1'
_symmetry_Int_Tables_number	1
_symmetry_cell_setting	triclinic
loop_
_symmetry_equiv_pos_as_xyz
  x,y,z
_cell_length_a	12.759395
_cell_length_b	15.299816
_cell_length_c	15.296720
_cell_angle_alpha	110.757046
_cell_angle_beta	99.664719
_cell_angle_gamma	80.350115
loop_
_atom_site_label
_atom_site_type_symbol
_atom_site_fract_x
_atom_site_fract_y
_atom_site_fract_z
Zn1	Zn	1.580133	-0.461101	-0.589873
Zn2	Zn	2.080133	0.038899	-0.089873
Zn3	Zn	1.631853	-0.589690	-0.461298
Zn4	Zn	2.131853	-0.089690	0.038702
Zn5	Zn	1.430385	-0.434236	-0.434391
Zn6	Zn	1.930385	0.065764	0.065609
Zn7	Zn	1.430298	-0.616527	-0.616760
Zn8	Zn	1.930298	-0.116527	-0.116760
O9	O	1.518167	-0.525389	-0.525581
O10	O	2.018167	-0.025389	-0.025581
O11	O	1.734016	-0.478170	-0.572825
O12	O	2.234016	0.021830	-0.072825
O13	O	1.626809	-0.546595	-0.327598
O14	O	2.126809	-0.046595	0.172402
O15	O	1.428641	-0.307695	-0.432503
O16	O	1.928641	0.192305	0.067497
O17	O	1.772014	-0.572644	-0.478362
O18	O	2.272014	-0.072644	0.021638
O19	O	1.538660	-0.327432	-0.546735
O20	O	2.038660	0.172568	-0.046735
O21	O	1.478791	-0.432383	-0.307829
O22	O	1.978791	0.067617	0.192171
O23	O	1.283352	-0.458406	-0.458575
O24	O	1.783352	0.041594	0.041425
O25	O	1.428493	-0.618384	-0.743325
O26	O	1.928493	-0.118384	-0.243325
O27	O	1.283288	-0.592335	-0.592560
O28	O	1.783288	-0.092335	-0.092560
O29	O	1.538576	-0.504193	-0.723571
O30	O	2.038576	-0.004193	-0.223571
O31	O	1.626725	-0.723355	-0.504434
O32	O	2.126725	-0.223355	-0.004434
O33	O	1.478643	-0.743072	-0.618651
O34	O	1.978643	-0.243072	-0.118651
C35	C	1.245199	-0.525368	-0.525566
C36	C	1.745199	-0.025368	-0.025566
C37	C	1.128421	-0.525386	-0.525586
C38	C	1.628421	-0.025386	-0.025586
C39	C	1.088835	-0.427235	-0.624176
C40	C	1.588835	0.072765	-0.124176
C41	C	1.014181	-0.378172	-0.673480
C42	C	1.514181	0.121828	-0.173480
C43	C	0.904460	-0.378191	-0.673494
C44	C	1.404460	0.121809	-0.173494
C45	C	0.869393	-0.427275	-0.624197
C46	C	1.369393	0.072725	-0.124197
C47	C	0.944046	-0.476338	-0.574892
C48	C	1.444046	0.023662	-0.074892
C49	C	1.053767	-0.476316	-0.574886
C50	C	1.553767	0.023684	-0.074886
C51	C	0.983633	-0.574482	-0.476298
C52	C	1.483633	-0.074482	0.023702
C53	C	1.093354	-0.574470	-0.476288
C54	C	1.593354	-0.074470	0.023712
C55	C	0.948565	-0.623566	-0.427001
C56	C	1.448565	-0.123566	0.072999
C57	C	1.023219	-0.672635	-0.377701
C58	C	1.523219	-0.172635	0.122299
C59	C	1.132946	-0.672616	-0.377689
C60	C	1.632946	-0.172616	0.122311
C61	C	1.168007	-0.623533	-0.426984
C62	C	1.668007	-0.123533	0.073016
C63	C	1.558312	-0.766952	-0.567400
C64	C	2.058312	-0.266952	-0.067400
C65	C	1.575577	-0.870299	-0.585322
C66	C	2.075577	-0.370299	-0.085322
C67	C	1.395408	-1.120788	-0.397807
C68	C	1.895408	-0.620788	0.102193
C69	C	1.379181	-1.023689	-0.380971
C70	C	1.879181	-0.523689	0.119029
C71	C	1.428279	-0.985336	-0.432057
C72	C	1.928279	-0.485336	0.067943
C73	C	1.493606	-1.044093	-0.499983
C74	C	1.993606	-0.544093	0.000017
C75	C	1.509828	-1.141203	-0.516826
C76	C	2.009828	-0.641203	-0.016826
C77	C	1.542699	-1.005751	-0.551075
C78	C	2.042699	-0.505751	-0.051075
C79	C	1.608026	-1.064508	-0.619001
C80	C	2.108026	-0.564508	-0.119001
C81	C	1.624245	-1.161608	-0.635840
C82	C	2.124245	-0.661608	-0.135840
C83	C	1.575148	-1.199960	-0.584754
C84	C	2.075148	-0.699960	-0.084754
C85	C	1.526477	-0.908641	-0.534232
C86	C	2.026477	-0.408641	-0.034232
C87	C	1.640897	-0.929056	-0.653251
C88	C	2.140897	-0.429056	-0.153251
C89	C	1.657124	-1.026156	-0.670087
C90	C	2.157124	-0.526156	-0.170087
C91	C	1.792202	-0.525410	-0.525596
C92	C	2.292202	-0.025410	-0.025596
C93	C	1.908979	-0.525419	-0.525603
C94	C	2.408979	-0.025419	-0.025603
C95	C	1.477756	-0.567278	-0.768133
C96	C	1.977756	-0.067278	-0.268133
C97	C	1.460535	-0.585129	-0.871494
C98	C	1.960535	-0.085129	-0.371494
C99	C	1.477891	-0.282886	-0.483618
C100	C	1.977891	0.217114	0.016382
C101	C	1.460728	-0.179545	-0.465736
C102	C	1.960728	0.320455	0.034264
C103	C	1.641260	-0.397642	-1.121713
C104	C	2.141260	0.102358	-0.621713
C105	C	1.657447	-0.380872	-1.024601
C106	C	2.157447	0.119128	-0.524601
C107	C	1.608220	-0.431934	-0.986319
C108	C	2.108220	0.068066	-0.486319
C109	C	1.542804	-0.499771	-1.045160
C110	C	2.042804	0.000229	-0.545160
C111	C	1.526622	-0.516548	-1.142283
C112	C	2.026622	-0.016548	-0.642283
C113	C	1.493582	-0.550840	-1.006889
C114	C	1.993582	-0.050840	-0.506889
C115	C	1.428166	-0.618677	-1.065729
C116	C	1.928166	-0.118677	-0.565729
C117	C	1.411987	-0.635450	-1.162843
C118	C	1.911987	-0.135450	-0.662843
C119	C	1.461214	-0.584388	-1.201124
C120	C	1.961214	-0.084388	-0.701124
C121	C	1.509764	-0.534063	-0.909765
C122	C	2.009764	-0.034063	-0.409765
C123	C	1.395126	-0.652969	-0.930335
C124	C	1.895126	-0.152969	-0.430335
C125	C	1.378940	-0.669740	-1.027448
C126	C	1.878940	-0.169740	-0.527448
C127	C	1.558471	-0.483595	-0.283961
C128	C	2.058471	0.016405	0.216039
C129	C	1.575852	-0.465482	-0.180555
C130	C	2.075852	0.034518	0.319445
H131	H	0.994657	-0.712591	-0.337562
H132	H	1.494657	-0.212591	0.162438
H133	H	1.325677	-0.724972	-1.075369
H134	H	1.825677	-0.224972	-0.575369
H135	H	1.563026	-0.478829	-0.861866
H136	H	2.063026	0.021171	-0.361866
F137	F	1.342738	-0.707322	-0.889599
F138	F	1.842738	-0.207322	-0.389599
H139	H	1.355434	-1.152025	-0.356225
H140	H	1.855434	-0.652025	0.143775
F141	F	1.693152	-0.888245	-0.707626
F142	F	2.193152	-0.388245	-0.207626
H143	H	0.843676	-0.338233	-0.713636
H144	H	1.343676	0.161767	-0.213636
H145	H	1.621404	-0.418276	-0.907245
H146	H	2.121404	0.081724	-0.407245
F147	F	1.212391	-0.724832	-0.325207
F148	F	1.712391	-0.224832	0.174793
F149	F	1.051511	-0.325935	-0.725942
F150	F	1.551511	0.174065	-0.225942
F151	F	0.831789	-0.623580	-0.427012
F152	F	1.331789	-0.123580	0.072988
F153	F	1.592614	-1.303279	-0.602516
F154	F	2.092614	-0.803279	-0.102516
F155	F	1.284780	-0.623512	-0.426980
F156	F	1.784780	-0.123512	0.073020
F157	F	1.693753	-1.224142	-0.708148
F158	F	2.193753	-0.724142	-0.208148
H159	H	1.710313	-1.074009	-0.725393
H160	H	2.210313	-0.574009	-0.225393
F161	F	1.693652	-0.343313	-1.162463
F162	F	2.193652	0.156687	-0.662463
F163	F	1.727065	-0.308679	-0.961985
F164	F	2.227065	0.191321	-0.461985
H165	H	1.448038	-0.598039	-1.280201
H166	H	1.948038	-0.098039	-0.780201
H167	H	1.178173	-0.427210	-0.624164
H168	H	1.678173	0.072790	-0.124164
F169	F	0.752617	-0.427280	-0.624203
F170	F	1.252617	0.072720	-0.124203
F171	F	1.456953	-0.846119	-0.461943
F172	F	1.956953	-0.346119	0.038057
H173	H	1.415064	-0.906273	-0.418344
H174	H	1.915064	-0.406273	0.081656
H175	H	1.325991	-0.975853	-0.325668
H176	H	1.825991	-0.475853	0.174332
F177	F	1.342383	-0.707662	-1.225466
F178	F	1.842383	-0.207662	-0.725466
