data_functionalizedCrystal
_audit_creation_method	'MofGen! by Chris Wilmer'
_symmetry_space_group_name_H-M	'P1'
_symmetry_Int_Tables_number	1
_symmetry_cell_setting	triclinic
loop_
_symmetry_equiv_pos_as_xyz
  x,y,z
_cell_length_a	16.109301
_cell_length_b	15.500227
_cell_length_c	16.109302
_cell_angle_alpha	87.172562
_cell_angle_beta	83.461772
_cell_angle_gamma	92.840942
loop_
_atom_site_label
_atom_site_type_symbol
_atom_site_fract_x
_atom_site_fract_y
_atom_site_fract_z
O1	O	1.106998	0.071889	0.103009
O2	O	0.864937	0.071903	0.116308
O3	O	0.992616	0.071890	-0.011372
O4	O	0.979319	0.071902	0.230689
O5	O	0.984868	-0.071998	-0.003655
O6	O	0.857189	-0.071985	0.124025
O7	O	1.099250	-0.071999	0.110727
Cu8	Cu	0.977512	-0.085130	0.118081
Cu9	Cu	0.986675	0.085034	0.108954
O10	O	0.971571	-0.071986	0.238407
C11	C	0.830088	-0.000040	0.119628
C12	C	0.737793	-0.000034	0.118012
N13	N	0.971073	-0.204814	0.124500
C14	C	0.515521	-0.000041	0.190020
C15	C	0.428800	-0.000047	0.188497
C16	C	0.448673	-0.000050	0.037008
C17	C	0.535392	-0.000051	0.038533
C18	C	0.568813	-0.000042	0.115041
C19	C	0.395374	-0.000047	0.111993
C20	C	0.301347	-0.000053	0.110340
C21	C	0.662845	-0.000037	0.116695
C22	C	1.025194	-0.250096	0.070417
C23	C	1.020333	-0.340669	0.075279
C24	C	0.961353	-0.385958	0.134228
C25	C	0.907227	-0.340669	0.188313
C26	C	0.912085	-0.250099	0.183447
C27	C	0.943852	-0.659423	0.151747
C28	C	0.938999	-0.750000	0.156611
C29	C	1.052104	-0.749993	0.043575
C30	C	1.056961	-0.659421	0.038717
C31	C	1.002831	-0.614140	0.092799
C32	C	0.956384	-0.478537	0.139202
C33	C	1.007797	-0.521562	0.087821
C34	C	1.134099	-0.000055	0.107407
C35	C	1.226394	-0.000054	0.109022
C36	C	0.988203	-0.000053	-0.038488
C37	C	0.986588	-0.000052	-0.130783
N38	N	0.993120	0.204718	0.102528
C39	C	0.975984	-0.000041	0.265523
C40	C	0.977599	-0.000037	0.357818
C41	C	0.985557	0.078391	0.565952
C42	C	0.987084	0.078389	0.652672
C43	C	0.978632	-0.078486	0.661076
C44	C	0.977112	-0.078483	0.574357
C45	C	0.980570	-0.000042	0.526797
C46	C	0.983617	-0.000047	0.700237
C47	C	0.985272	-0.000049	0.794263
C48	C	0.978917	-0.000039	0.432765
H49	H	0.542729	-0.000040	0.252319
H50	H	0.991146	0.142257	0.684548
F51	F	0.886246	-0.611239	0.209306
H52	H	0.578785	-0.000054	-0.022527
H53	H	1.055815	-0.484686	0.039822
F54	F	0.893616	-0.526742	0.201941
F55	F	0.971808	-0.161966	0.532682
F56	F	0.372085	-0.000047	0.268300
F57	F	0.413096	-0.000056	-0.044413
F58	F	0.876222	-0.798194	0.219358
F59	F	1.109707	-0.798189	-0.013981
H60	H	1.073225	-0.213228	0.022418
F61	F	1.077933	-0.388862	0.017718
H62	H	0.975815	-0.142349	0.699809
F63	F	1.119734	-0.611222	-0.024022
H64	H	0.859200	-0.377548	0.236309
F65	F	0.854479	-0.201907	0.241007
H66	H	0.988372	0.142262	0.527232
