data_functionalizedCrystal
_audit_creation_method	'MofGen! by Chris Wilmer'
_symmetry_space_group_name_H-M	'P1'
_symmetry_Int_Tables_number	1
_symmetry_cell_setting	triclinic
loop_
_symmetry_equiv_pos_as_xyz
  x,y,z
_cell_length_a	21.606444
_cell_length_b	12.970454
_cell_length_c	12.970454
_cell_angle_alpha	89.998717
_cell_angle_beta	59.998167
_cell_angle_gamma	60.001467
loop_
_atom_site_label
_atom_site_type_symbol
_atom_site_fract_x
_atom_site_fract_y
_atom_site_fract_z
Zr1	Zr	0.677445	-0.135279	0.993209
O2	O	0.806564	-0.299894	0.828583
O3	O	0.548326	-0.084820	1.043678
O4	O	0.677445	-0.299904	1.043676
O5	O	0.677445	0.084858	0.828585
O6	O	0.677445	-0.299907	1.213343
O7	O	0.677445	-0.084810	0.828585
O8	O	0.446474	0.084839	1.213347
O9	O	0.908415	-0.299888	0.828581
O10	O	0.601434	-0.063296	1.191821
O11	O	0.601434	0.063327	1.065200
O12	O	0.753455	-0.189907	1.065198
O13	O	0.753455	-0.063284	0.938577
Zr14	Zr	0.677443	0.135317	1.263809
Zr15	Zr	0.677444	-0.135283	1.263809
Zr16	Zr	0.677444	0.135321	0.993209
Zr17	Zr	0.839885	-0.135270	0.993207
Zr18	Zr	0.515003	0.135308	1.263812
O19	O	0.806562	0.084859	1.213341
O20	O	0.806563	-0.299900	1.213341
O21	O	0.806563	0.084865	0.828582
O22	O	0.548324	0.299932	1.428436
O23	O	0.548325	-0.084826	1.428436
O24	O	0.548325	0.299938	1.043677
O25	O	0.677443	-0.084819	1.428434
O26	O	0.677443	0.299942	1.213342
O27	O	0.677443	0.299945	1.043675
O28	O	0.677443	0.084848	1.428434
O29	O	0.908414	-0.299892	1.043672
O30	O	0.446474	0.299930	1.213347
O31	O	0.446473	0.299927	1.428437
O32	O	0.446474	0.084836	1.428438
O33	O	0.908414	-0.084797	0.828581
O34	O	0.908414	-0.084801	1.043672
O35	O	0.601433	0.189945	1.191821
O36	O	0.601433	0.063323	1.318442
O37	O	0.753454	-0.063288	1.191818
O38	O	0.753454	0.063335	1.065197
C39	C	0.474256	0.000008	1.128513
C40	C	0.405296	0.000004	1.128514
C41	C	0.677445	0.000024	0.790030
C42	C	0.677445	0.000026	0.675153
C43	C	0.677443	0.338498	1.128509
C44	C	0.677443	0.453375	1.128509
C45	C	0.372898	-0.066093	1.194606
C46	C	0.308098	-0.066085	1.194611
C47	C	0.275701	0.000015	1.128515
C48	C	0.308102	0.066121	1.062421
C49	C	0.372896	0.066119	1.062424
C50	C	0.046792	0.066131	1.062406
C51	C	-0.018005	0.066125	1.062404
C52	C	-0.018005	-0.066072	1.194592
C53	C	0.046789	-0.066074	1.194596
C54	C	0.079180	0.000037	1.128508
C55	C	0.149443	0.000029	1.128505
C56	C	0.205445	0.000016	1.128509
C57	C	0.880632	0.000030	1.128506
C58	C	0.949592	0.000034	1.128504
C59	C	0.677445	-0.338460	1.128510
C60	C	0.677445	-0.453337	1.128510
C61	C	0.677443	0.000014	1.466989
C62	C	0.677443	0.000012	1.581865
C63	C	0.474255	0.000003	1.466992
C64	C	0.405294	-0.000003	1.581870
C65	C	0.474255	0.338488	1.128512
C66	C	0.405294	0.453361	1.128513
C67	C	0.474254	0.338482	1.466992
C68	C	0.405293	0.453354	1.581869
C69	C	0.880634	-0.338444	0.790027
C70	C	0.949595	-0.453315	0.675149
C71	C	0.880633	0.000035	0.790026
C72	C	0.949594	0.000041	0.675148
C73	C	0.880633	-0.338449	1.128506
C74	C	0.949594	-0.453322	1.128505
C75	C	0.372910	-0.066110	1.569723
C76	C	0.308123	-0.066141	1.677653
C77	C	0.275718	-0.000055	1.797728
C78	C	0.308108	0.066054	1.809873
C79	C	0.372898	0.066077	1.701944
C80	C	0.372909	0.573411	1.194608
C81	C	0.308123	0.681357	1.194605
C82	C	0.275718	0.669249	1.128512
C83	C	0.308109	0.549186	1.062409
C84	C	0.372899	0.441243	1.062406
C85	C	0.372908	0.441203	1.701923
C86	C	0.308121	0.549126	1.809874
C87	C	0.275716	0.669199	1.797767
C88	C	0.308107	0.681348	1.677700
C89	C	0.372897	0.573426	1.569753
C90	C	0.981988	-0.441164	0.555095
C91	C	1.046795	-0.549088	0.447145
C92	C	1.079204	-0.669161	0.459251
C93	C	1.046808	-0.681309	0.579318
C94	C	0.982007	-0.573387	0.687266
C95	C	0.981985	0.066137	0.687295
C96	C	1.046789	0.066138	0.579365
C97	C	1.079197	0.000049	0.459290
C98	C	1.046804	-0.066056	0.447146
C99	C	0.982005	-0.066063	0.555074
C100	C	0.981978	-0.441174	1.194610
C101	C	1.046765	-0.549099	1.194634
C102	C	1.079171	-0.669171	1.128545
C103	C	1.046780	-0.681317	1.062437
C104	C	0.981990	-0.573393	1.062422
H105	H	0.399275	-0.119925	1.248422
F106	F	0.206761	0.784145	1.128527
H107	H	0.281715	0.539346	1.008598
F108	F	0.947507	0.136480	0.815078
F109	F	1.148129	-0.784023	1.128570
H110	H	0.281714	0.119858	1.907652
F111	F	1.081308	-0.809111	0.592183
H112	H	0.399258	0.343496	1.008588
F113	F	0.407389	0.313421	1.714837
F114	F	0.947534	-0.136409	0.542127
F115	F	0.206758	0.784050	1.912667
H116	H	0.955604	-0.343404	0.545213
F117	F	1.148162	0.000069	0.344433
H118	H	1.073160	-0.539171	0.349392
F119	F	0.947534	-0.586339	0.815033
H120	H	0.955603	-0.343415	1.248428
F121	F	0.407374	0.136472	0.992083
H122	H	0.281757	0.779107	1.248438
H123	H	1.073131	-0.539185	1.248465
H124	H	1.073200	-0.119864	0.349366
H125	H	1.073175	-0.779094	1.008629
F126	F	-0.052487	-0.136429	1.264935
F127	F	0.407383	0.586326	1.264962
H128	H	1.131969	-0.757028	0.371343
H129	H	0.281755	0.539212	1.907627
F130	F	0.273635	-0.136457	1.264932
F131	F	0.947537	-0.586342	0.992048
H132	H	1.073153	0.119973	0.589278
H133	H	0.073167	-0.119904	1.248412
H134	H	0.281713	0.779126	1.667862
H135	H	0.399256	0.583337	1.472003
H136	H	0.073155	0.119968	1.008598
F137	F	0.273611	0.136486	0.992094
F138	F	0.407389	-0.136456	1.441940
F139	F	-0.052483	0.136482	0.992054
F140	F	0.206761	-0.000089	1.912586
F141	F	0.407352	0.136450	1.714891
F142	F	0.273660	-0.136502	1.664702
