data_functionalizedCrystal
_audit_creation_method	'MofGen! by Chris Wilmer'
_symmetry_space_group_name_H-M	'P1'
_symmetry_Int_Tables_number	1
_symmetry_cell_setting	triclinic
loop_
_symmetry_equiv_pos_as_xyz
  x,y,z
_cell_length_a	17.038272
_cell_length_b	17.038272
_cell_length_c	16.098538
_cell_angle_alpha	92.920305
_cell_angle_beta	87.069734
_cell_angle_gamma	91.111556
loop_
_atom_site_label
_atom_site_type_symbol
_atom_site_fract_x
_atom_site_fract_y
_atom_site_fract_z
O1	O	1.052033	0.167266	-0.069152
O2	O	1.385366	0.500599	0.264181
O3	O	1.718699	0.833933	0.597514
O4	O	0.824222	0.164557	-0.069177
O5	O	1.157556	0.497890	0.264156
O6	O	1.490889	0.831224	0.597490
O7	O	0.936773	0.052006	-0.069158
O8	O	1.270106	0.385339	0.264175
O9	O	1.603440	0.718673	0.597508
O10	O	0.939482	0.279817	-0.069171
O11	O	1.272815	0.613150	0.264162
O12	O	1.606148	0.946484	0.597496
O13	O	0.930197	0.058553	0.069354
O14	O	1.263530	0.391886	0.402687
O15	O	1.596863	0.725220	0.736020
O16	O	0.817646	0.171104	0.069335
O17	O	1.150979	0.504437	0.402668
O18	O	1.484312	0.837771	0.736002
O19	O	1.045456	0.173813	0.069359
O20	O	1.378789	0.507146	0.402693
O21	O	1.712123	0.840480	0.736026
Zn22	Zn	0.930507	0.173498	0.091339
Zn23	Zn	1.263840	0.506831	0.424672
Zn24	Zn	1.597173	0.840165	0.758006
Zn25	Zn	0.939172	0.164872	-0.091156
Zn26	Zn	1.272505	0.498205	0.242177
Zn27	Zn	1.605838	0.831539	0.575510
O28	O	0.932905	0.286364	0.069341
O29	O	1.266238	0.619697	0.402674
O30	O	1.599572	0.953031	0.736007
C31	C	0.791641	0.165367	0.000076
C32	C	1.124975	0.498701	0.333409
C33	C	1.458308	0.832034	0.666743
C34	C	0.704358	0.158019	0.000067
C35	C	1.037692	0.491352	0.333400
C36	C	1.371025	0.824686	0.666733
C37	C	0.931022	0.025987	0.000097
C38	C	1.264355	0.359320	0.333431
C39	C	1.597689	0.692653	0.666764
C40	C	0.923674	-0.061297	0.000096
C41	C	1.257007	0.272036	0.333430
C42	C	1.590341	0.605370	0.666763
C43	C	0.658749	0.225482	0.000064
C44	C	0.992082	0.558816	0.333397
C45	C	1.325416	0.892149	0.666730
C46	C	0.576737	0.218574	0.000075
C47	C	0.910070	0.551907	0.333409
C48	C	1.243403	0.885241	0.666742
C49	C	0.540335	0.144201	0.000085
C50	C	0.873668	0.477534	0.333418
C51	C	1.207002	0.810868	0.666751
C52	C	0.585950	0.076733	0.000090
C53	C	0.919284	0.410066	0.333424
C54	C	1.252617	0.743399	0.666757
C55	C	0.667961	0.083642	0.000084
C56	C	1.001294	0.416975	0.333418
C57	C	1.334627	0.750309	0.666751
C58	C	0.292946	0.119792	0.000108
C59	C	0.626279	0.453125	0.333442
C60	C	0.959613	0.786458	0.666775
C61	C	0.210929	0.112887	0.000112
C62	C	0.544263	0.446220	0.333445
C63	C	0.877596	0.779554	0.666778
C64	C	0.201722	0.254729	0.000098
C65	C	0.535055	0.588063	0.333432
C66	C	0.868388	0.921396	0.666765
C67	C	0.283734	0.261632	0.000088
C68	C	0.617068	0.594965	0.333421
C69	C	0.950401	0.928299	0.666754
C70	C	0.329342	0.194164	0.000098
C71	C	0.662675	0.527497	0.333431
C72	C	0.996009	0.860830	0.666764
C73	C	0.456505	0.137138	0.000094
C74	C	0.789839	0.470471	0.333427
C75	C	1.123172	0.803804	0.666761
C76	C	0.413170	0.201228	0.000094
C77	C	0.746503	0.534561	0.333427
C78	C	1.079837	0.867895	0.666761
C79	C	0.991137	-0.106906	0.000104
C80	C	1.324471	0.226428	0.333438
C81	C	1.657804	0.559761	0.666771
C82	C	0.984229	-0.188918	0.000096
C83	C	1.317562	0.144415	0.333429
C84	C	1.650895	0.477749	0.666762
C85	C	0.909856	-0.225320	0.000085
C86	C	1.243189	0.108014	0.333418
C87	C	1.576523	0.441347	0.666752
C88	C	0.842388	-0.179705	0.000074
C89	C	1.175721	0.153628	0.333408
C90	C	1.509054	0.486962	0.666741
C91	C	0.849297	-0.097694	0.000077
C92	C	1.182631	0.235639	0.333410
C93	C	1.515964	0.568972	0.666744
C94	C	0.885446	-0.472708	0.000071
C95	C	1.218779	-0.139375	0.333404
C96	C	1.552113	0.193958	0.666738
C97	C	0.878541	-0.554725	0.000071
C98	C	1.211875	-0.221391	0.333404
C99	C	1.545208	0.111942	0.666737
C100	C	1.020383	-0.563932	0.000091
C101	C	1.353716	-0.230599	0.333424
C102	C	1.687050	0.102734	0.666757
C103	C	1.027286	-0.481920	0.000098
C104	C	1.360619	-0.148586	0.333432
C105	C	1.693953	0.184747	0.666765
C106	C	0.959818	-0.436312	0.000083
C107	C	1.293151	-0.102979	0.333417
C108	C	1.626485	0.230354	0.666750
C109	C	0.902792	-0.309149	0.000079
C110	C	1.236126	0.024184	0.333412
C111	C	1.569459	0.357517	0.666745
C112	C	0.966882	-0.352485	0.000084
C113	C	1.300216	-0.019151	0.333417
C114	C	1.633549	0.314182	0.666750
C115	C	1.078037	0.173002	0.000105
C116	C	1.411370	0.506336	0.333438
C117	C	1.744704	0.839669	0.666771
C118	C	1.165320	0.180351	0.000108
C119	C	1.498654	0.513684	0.333442
C120	C	1.831987	0.847017	0.666775
C121	C	0.938656	0.312383	0.000083
C122	C	1.271990	0.645716	0.333417
C123	C	1.605323	0.979050	0.666750
C124	C	0.946005	0.399666	0.000079
C125	C	1.279338	0.733000	0.333412
C126	C	1.612671	1.066333	0.666746
N127	N	0.924599	0.179385	0.215887
N128	N	1.257932	0.512718	0.549220
N129	N	1.591266	0.846052	0.882554
N130	N	0.945085	0.158979	-0.215705
N131	N	1.278419	0.492312	0.117629
N132	N	1.611752	0.825646	0.450962
C133	C	0.972390	0.131633	0.259480
C134	C	1.305723	0.464966	0.592813
C135	C	1.639057	0.798300	0.926147
C136	C	0.968265	0.135759	0.346668
C137	C	1.301598	0.469093	0.680002
C138	C	1.634932	0.802426	1.013335
C139	C	0.916352	0.187642	0.390262
C140	C	1.249686	0.520975	0.723595
C141	C	1.583019	0.854308	1.056929
C142	C	0.868556	0.235395	0.346663
C143	C	1.201889	0.568729	0.679996
C144	C	1.535223	0.902062	1.013330
C145	C	0.872678	0.231265	0.259476
C146	C	1.206011	0.564598	0.592810
C147	C	1.539344	0.897931	0.926143
C148	C	0.901410	0.202602	0.653510
C149	C	1.234744	0.535935	0.986843
C150	C	1.568077	0.869269	1.320176
C151	C	0.897294	0.206731	0.740702
C152	C	1.230628	0.540064	1.074036
C153	C	1.563961	0.873398	1.407369
C154	C	0.997003	0.107093	0.740702
C155	C	1.330336	0.440427	1.074035
C156	C	1.663669	0.773760	1.407368
C157	C	1.001123	0.102971	0.653513
C158	C	1.334456	0.436304	0.986847
C159	C	1.667789	0.769637	1.320180
C160	C	0.953324	0.150721	0.609922
C161	C	1.286657	0.484055	0.943255
C162	C	1.619990	0.817388	1.276589
C163	C	0.912136	0.191862	0.479383
C164	C	1.245470	0.525196	0.812716
C165	C	1.578803	0.858529	1.146049
C166	C	0.957536	0.146496	0.520803
C167	C	1.290869	0.479830	0.854136
C168	C	1.624203	0.813163	1.187470
H169	H	0.688381	0.286045	0.000056
H170	H	1.021714	0.619378	0.333389
H171	H	1.355048	0.952711	0.666722
H172	H	0.999800	0.104250	0.485307
H173	H	1.333134	0.437584	0.818640
H174	H	1.666467	0.770917	1.151973
H175	H	0.855019	0.248983	0.776192
H176	H	1.188352	0.582316	1.109526
H177	H	1.521685	0.915650	1.442859
H178	H	0.862492	0.241484	0.618024
H179	H	1.195825	0.574818	0.951358
H180	H	1.529158	0.908151	1.284691
H181	H	0.817975	-0.584359	0.000075
H182	H	1.151308	-0.251026	0.333409
H183	H	1.484641	0.082307	0.666742
H184	H	1.007180	0.096876	0.382161
H185	H	1.340513	0.430209	0.715495
H186	H	1.673846	0.763542	1.048828
H187	H	0.539605	0.273510	0.000072
H188	H	0.872938	0.606844	0.333405
H189	H	1.206272	0.940177	0.666739
H190	H	1.014666	0.089389	0.223992
H191	H	1.347999	0.422722	0.557325
H192	H	1.681333	0.756055	0.890659
H193	H	0.869870	0.234107	0.514884
H194	H	1.203203	0.567441	0.848217
H195	H	1.536536	0.900774	1.181550
H196	H	0.426857	0.076584	0.000125
H197	H	0.760190	0.409917	0.333458
H198	H	1.093524	0.743251	0.666792
H199	H	1.051699	-0.077274	0.000118
H200	H	1.385033	0.256060	0.333452
H201	H	1.718366	0.589393	0.666785
H202	H	1.043394	0.060724	0.618021
H203	H	1.376727	0.394057	0.951354
H204	H	1.710061	0.727391	1.284688
H205	H	1.035918	0.068216	0.776202
H206	H	1.369251	0.401549	1.109535
H207	H	1.702584	0.734883	1.442869
H208	H	0.164579	0.309658	0.000092
H209	H	0.497912	0.642991	0.333425
H210	H	0.831246	0.976324	0.666759
H211	H	0.181294	0.052321	0.000118
H212	H	0.514628	0.385654	0.333452
H213	H	0.847961	0.718988	0.666785
H214	H	0.830508	-0.435584	0.000059
H215	H	1.163842	-0.102251	0.333392
H216	H	1.497175	0.231082	0.666726
H217	H	0.826283	0.277636	0.382162
H218	H	1.159617	0.610970	0.715495
H219	H	1.492950	0.944303	1.048829
H220	H	1.075312	-0.601075	0.000101
H221	H	1.408645	-0.267741	0.333435
H222	H	1.741978	0.065592	0.666768
H223	H	0.781832	-0.209350	0.000060
H224	H	1.115165	0.123984	0.333394
H225	H	1.448499	0.457317	0.666727
H226	H	0.313367	0.322194	0.000070
H227	H	0.646700	0.655527	0.333404
H228	H	0.980034	0.988860	0.666737
H229	H	0.330070	0.064854	0.000117
H230	H	0.663404	0.398187	0.333450
H231	H	0.996737	0.731520	0.666784
H232	H	0.794361	-0.060560	0.000070
H233	H	1.127695	0.272773	0.333404
H234	H	1.461028	0.606106	0.666737
H235	H	1.039165	-0.226050	0.000104
H236	H	1.372498	0.107284	0.333438
H237	H	1.705831	0.440617	0.666771
H238	H	0.833760	0.270148	0.223984
H239	H	1.167093	0.603481	0.557317
H240	H	1.500427	0.936815	0.890650
H241	H	0.705095	0.028706	0.000086
H242	H	1.038429	0.362039	0.333420
H243	H	1.371762	0.695373	0.666753
H244	H	1.087848	-0.452287	0.000107
H245	H	1.421181	-0.118954	0.333441
H246	H	1.754515	0.214379	0.666774
H247	H	0.842238	-0.338796	0.000072
H248	H	1.175571	-0.005463	0.333405
H249	H	1.508904	0.327870	0.666738
H250	H	0.556305	0.016177	0.000110
H251	H	0.889638	0.349510	0.333443
H252	H	1.222972	0.682844	0.666776
H253	H	0.442811	0.261782	0.000091
H254	H	0.776145	0.595116	0.333425
H255	H	1.109478	0.928449	0.666758
H256	H	1.027437	-0.322844	0.000074
H257	H	1.360771	0.010490	0.333407
H258	H	1.694104	0.343823	0.666741
