data_functionalizedCrystal
_audit_creation_method	'MofGen! by Chris Wilmer'
_symmetry_space_group_name_H-M	'P1'
_symmetry_Int_Tables_number	1
_symmetry_cell_setting	triclinic
loop_
_symmetry_equiv_pos_as_xyz
  x,y,z
_cell_length_a	14.519709
_cell_length_b	13.339070
_cell_length_c	12.376457
_cell_angle_alpha	104.398083
_cell_angle_beta	78.691279
_cell_angle_gamma	99.654720
loop_
_atom_site_label
_atom_site_type_symbol
_atom_site_fract_x
_atom_site_fract_y
_atom_site_fract_z
O1	O	1.270325	0.113336	-0.093849
O2	O	1.770325	0.613336	0.406151
O3	O	1.005827	0.128953	-0.093882
O4	O	1.505827	0.628953	0.406118
O5	O	1.107720	-0.026174	-0.093866
O6	O	1.607720	0.473826	0.406134
O7	O	1.168433	0.268463	-0.093865
O8	O	1.668433	0.768463	0.406135
O9	O	1.082246	0.012555	0.094142
O10	O	1.582246	0.512555	0.594142
O11	O	0.980353	0.167681	0.094126
O12	O	1.480353	0.667681	0.594126
O13	O	1.244851	0.152065	0.094159
O14	O	1.744851	0.652065	0.594159
Zn15	Zn	1.108558	0.166022	0.123993
Zn16	Zn	1.608558	0.666022	0.623993
Zn17	Zn	1.142121	0.114995	-0.123716
Zn18	Zn	1.642121	0.614995	0.376284
O19	O	1.142959	0.307192	0.094143
O20	O	1.642959	0.807192	0.594143
C21	C	0.958546	0.147588	0.000117
C22	C	1.458546	0.647588	0.500117
C23	C	0.855611	0.145403	0.000104
C24	C	1.355611	0.645403	0.500104
C25	C	1.084728	-0.044518	0.000135
C26	C	1.584728	0.455482	0.500135
C27	C	1.054160	-0.156877	0.000127
C28	C	1.554160	0.343123	0.500127
C29	C	1.291847	-0.521234	0.000157
C30	C	1.791847	-0.021234	0.500157
C31	C	1.320569	-0.415666	0.000172
C32	C	1.820569	0.084334	0.500172
C33	C	1.253969	-0.350964	0.000160
C34	C	1.753969	0.149036	0.500160
C35	C	1.158642	-0.391839	0.000135
C36	C	1.658642	0.108161	0.500135
C37	C	1.129915	-0.497415	0.000129
C38	C	1.629915	0.002585	0.500129
C39	C	1.092038	-0.327146	0.000132
C40	C	1.592038	0.172854	0.500132
C41	C	0.996711	-0.368021	0.000107
C42	C	1.496711	0.131979	0.500107
C43	C	0.967989	-0.473587	0.000101
C44	C	1.467989	0.026413	0.500101
C45	C	1.034589	-0.538289	0.000112
C46	C	1.534589	-0.038289	0.500112
C47	C	1.120764	-0.221569	0.000137
C48	C	1.620764	0.278431	0.500137
C49	C	0.958833	-0.197751	0.000109
C50	C	1.458833	0.302249	0.500109
C51	C	0.930111	-0.303319	0.000095
C52	C	1.430111	0.196681	0.500095
C53	C	0.478665	0.137381	0.000155
C54	C	0.978665	0.637381	0.500155
C55	C	0.583543	0.139609	0.000141
C56	C	1.083543	0.639609	0.500141
C57	C	0.667135	0.141392	0.000129
C58	C	1.167135	0.641392	0.500129
C59	C	0.772019	0.143620	0.000116
C60	C	1.272019	0.643620	0.500116
C61	C	1.292133	0.133429	0.000157
C62	C	1.792133	0.633429	0.500157
C63	C	1.395069	0.135612	0.000163
C64	C	1.895069	0.635612	0.500163
C65	C	1.165951	0.325535	0.000139
C66	C	1.665951	0.825535	0.500139
C67	C	1.196520	0.437892	0.000140
C68	C	1.696520	0.937892	0.500140
N69	N	1.085658	0.200846	0.293047
N70	N	1.585658	0.700846	0.793047
N71	N	1.165026	0.080163	-0.292771
N72	N	1.665026	0.580163	0.207229
C73	C	1.218177	-0.000694	0.648054
C74	C	1.718177	0.499306	1.148054
C75	C	1.234200	-0.025068	0.529716
C76	C	1.734200	0.474932	1.029716
C77	C	1.197065	0.031408	0.470543
C78	C	1.697065	0.531408	0.970543
C79	C	1.143907	0.112263	0.529719
C80	C	1.643907	0.612263	1.029719
C81	C	1.127889	0.136644	0.648068
C82	C	1.627889	0.636644	1.148068
C83	C	1.106777	0.168747	0.470558
C84	C	1.606777	0.668747	0.970558
C85	C	1.053619	0.249601	0.529734
C86	C	1.553619	0.749601	1.029734
C87	C	1.037603	0.273977	0.648071
C88	C	1.537603	0.773977	1.148071
C89	C	1.074737	0.217501	0.707244
C90	C	1.574737	0.717501	1.207244
C91	C	1.122795	0.144365	0.352209
C92	C	1.622795	0.644365	0.852209
C93	C	1.032506	0.281703	0.352223
C94	C	1.532506	0.781703	0.852223
C95	C	1.016484	0.306077	0.470560
C96	C	1.516484	0.806077	0.970560
H97	H	1.198380	-0.188299	0.000158
H98	H	1.698380	0.311701	0.500158
H99	H	1.277361	-0.265007	0.000172
H100	H	1.777361	0.234993	0.500172
H101	H	1.398184	-0.382393	0.000194
H102	H	1.898184	0.117607	0.500194
Cl103	Cl	0.998502	-0.671037	-0.000040
Cl104	Cl	1.498502	-0.171037	0.499960
Cl105	Cl	1.375557	-0.602572	0.000193
Cl106	Cl	1.875557	-0.102572	0.500193
Cl107	Cl	0.848147	-0.524967	0.000085
Cl108	Cl	1.348147	-0.024967	0.500085
H109	H	1.061689	0.237343	0.803604
H110	H	1.561689	0.737343	1.303604
Cl111	Cl	1.301024	-0.126706	0.455327
Cl112	Cl	1.801024	0.373294	0.955327
H113	H	0.852493	-0.336615	0.000075
H114	H	1.352493	0.163385	0.500075
H115	H	1.248414	-0.046665	0.696240
H116	H	1.748414	0.453335	1.196240
Cl117	Cl	0.970789	0.375633	0.722465
Cl118	Cl	1.470789	0.875633	1.222465
Cl119	Cl	0.875101	-0.116417	0.000103
Cl120	Cl	1.375101	0.383583	0.500103
Cl121	Cl	1.189619	0.042723	0.277831
Cl122	Cl	1.689619	0.542723	0.777831
H123	H	1.210113	0.011560	0.374188
H124	H	1.710113	0.511560	0.874188
H125	H	0.973202	0.371911	0.518756
H126	H	1.473202	0.871911	1.018756
H127	H	1.002270	0.327693	0.304045
H128	H	1.502270	0.827693	0.804045
