data_functionalizedCrystal
_audit_creation_method	'MofGen! by Chris Wilmer'
_symmetry_space_group_name_H-M	'P1'
_symmetry_Int_Tables_number	1
_symmetry_cell_setting	triclinic
loop_
_symmetry_equiv_pos_as_xyz
  x,y,z
_cell_length_a	12.759401
_cell_length_b	17.637651
_cell_length_c	12.759393
_cell_angle_alpha	78.749777
_cell_angle_beta	89.981298
_cell_angle_gamma	101.218439
loop_
_atom_site_label
_atom_site_type_symbol
_atom_site_fract_x
_atom_site_fract_y
_atom_site_fract_z
Zn1	Zn	1.521684	-0.314741	-0.509311
Zn2	Zn	2.021684	0.185259	-0.009311
Zn3	Zn	1.486046	-0.446979	-0.298054
Zn4	Zn	1.986046	0.053021	0.201946
Zn5	Zn	1.345976	-0.314780	-0.333639
Zn6	Zn	1.845976	0.185220	0.166361
Zn7	Zn	1.310459	-0.446916	-0.473712
Zn8	Zn	1.810459	0.053084	0.026288
O9	O	1.416041	-0.380854	-0.403679
O10	O	1.916041	0.119146	0.096321
O11	O	1.663975	-0.332293	-0.481293
O12	O	2.163975	0.167707	0.018707
O13	O	1.467415	-0.429485	-0.155742
O14	O	1.967415	0.070515	0.344258
O15	O	1.399062	-0.204133	-0.386733
O16	O	1.899062	0.295867	0.113267
O17	O	1.637792	-0.429448	-0.326084
O18	O	2.137792	0.070552	0.173916
O19	O	1.528154	-0.204105	-0.515799
O20	O	2.028154	0.295895	-0.015799
O21	O	1.364506	-0.332359	-0.181886
O22	O	1.864506	0.167641	0.318114
O23	O	1.194246	-0.332298	-0.352214
O24	O	1.694246	0.167702	0.147786
O25	O	1.338530	-0.429339	-0.625467
O26	O	1.838530	0.070661	-0.125467
O27	O	1.168153	-0.429377	-0.455125
O28	O	1.668153	0.070623	0.044875
O29	O	1.493716	-0.332231	-0.651621
O30	O	1.993716	0.167769	-0.151621
O31	O	1.432976	-0.557612	-0.291564
O32	O	1.932976	-0.057612	0.208436
O33	O	1.303973	-0.557565	-0.420619
O34	O	1.803973	-0.057565	0.079381
C35	C	1.143079	-0.380835	-0.403668
C36	C	1.643079	0.119165	0.096332
C37	C	1.026299	-0.380847	-0.403684
C38	C	1.526299	0.119153	0.096316
C39	C	1.360782	-0.586277	-0.348390
C40	C	1.860782	-0.086277	0.151610
C41	C	1.337238	-0.674158	-0.324773
C42	C	1.837238	-0.174158	0.175227
C43	C	0.875305	-0.330368	-0.484583
C44	C	1.375305	0.169632	0.015417
C45	C	0.985033	-0.330352	-0.484580
C46	C	1.485033	0.169648	0.015420
C47	C	0.957829	-0.431365	-0.322791
C48	C	1.457829	0.068635	0.177209
C49	C	0.848102	-0.431384	-0.322799
C50	C	1.348102	0.068616	0.177201
C51	C	1.595586	-0.962818	-0.583430
C52	C	2.095586	-0.462818	-0.083430
C53	C	1.573430	-1.045395	-0.561219
C54	C	2.073430	-0.545395	-0.061219
C55	C	1.439095	-1.045532	-0.426694
C56	C	1.939095	-0.545532	0.073306
C57	C	1.461245	-0.962953	-0.448889
C58	C	1.961245	-0.462953	0.051111
C59	C	1.539490	-0.921602	-0.527259
C60	C	2.039490	-0.421602	-0.027259
C61	C	1.405148	-0.921738	-0.392719
C62	C	1.905148	-0.421738	0.107281
C63	C	1.427292	-0.839166	-0.414917
C64	C	1.927292	-0.339166	0.085083
C65	C	1.505532	-0.797809	-0.493286
C66	C	2.005532	-0.297809	0.006714
C67	C	1.561634	-0.839030	-0.549458
C68	C	2.061634	-0.339030	-0.049458
C69	C	1.326898	-0.963090	-0.314355
C70	C	1.826898	-0.463090	0.185645
C71	C	1.270802	-0.921875	-0.258184
C72	C	1.770802	-0.421875	0.241816
C73	C	1.292950	-0.839302	-0.280377
C74	C	1.792950	-0.339302	0.219623
C75	C	1.371190	-0.797945	-0.358745
C76	C	1.871190	-0.297945	0.141255
C77	C	1.236848	-0.798080	-0.224205
C78	C	1.736848	-0.298080	0.275795
C79	C	1.258992	-0.715509	-0.246403
C80	C	1.758992	-0.215509	0.253597
C81	C	1.393334	-0.715373	-0.380943
C82	C	1.893334	-0.215373	0.119057
C83	C	1.690070	-0.380873	-0.403690
C84	C	2.190070	0.119127	0.096310
C85	C	1.806844	-0.380881	-0.403695
C86	C	2.306844	0.119119	0.096305
C87	C	1.416136	-0.380774	-0.677734
C88	C	1.916136	0.119226	-0.177734
C89	C	1.416177	-0.380740	-0.794520
C90	C	1.916177	0.119260	-0.294520
C91	C	1.471545	-0.174629	-0.459206
C92	C	1.971545	0.325371	0.040794
C93	C	1.495198	-0.086748	-0.482869
C94	C	1.995198	0.413252	0.017131
C95	C	1.362619	-0.330157	-0.862997
C96	C	1.862619	0.169843	-0.362997
C97	C	1.362650	-0.330133	-0.972728
C98	C	1.862650	0.169867	-0.472728
C99	C	1.469805	-0.431276	-0.945494
C100	C	1.969805	0.068724	-0.445494
C101	C	1.469767	-0.431304	-0.835764
C102	C	1.969767	0.068696	-0.335764
C103	C	1.416023	-0.380876	-0.130705
C104	C	1.916023	0.119124	0.369295
C105	C	1.416246	-0.380688	-0.013980
C106	C	1.916246	0.119312	0.486020
H107	H	1.040770	-0.289220	-0.550448
H108	H	1.540770	0.210780	-0.050448
H109	H	0.991436	-0.472482	-0.256927
H110	H	1.491436	0.027518	0.243073
O111	O	1.529430	-0.708749	-0.517225
O112	O	2.029430	-0.208749	-0.017225
H113	H	1.456009	-0.686996	-0.544227
H114	H	1.956009	-0.186996	-0.044227
O115	O	0.774250	-0.485863	-0.235546
O116	O	1.274250	0.014137	0.264454
H117	H	0.821375	-0.520968	-0.179282
H118	H	1.321375	-0.020968	0.320718
H119	H	1.457057	-0.681704	-0.444752
H120	H	1.957057	-0.181704	0.055248
H121	H	1.625358	-0.805361	-0.613267
H122	H	2.125358	-0.305361	-0.113267
H123	H	1.659310	-0.929148	-0.647239
H124	H	2.159310	-0.429148	-0.147239
O125	O	1.152452	-0.842689	-0.139689
O126	O	1.652452	-0.342689	0.360311
H127	H	1.117157	-0.800156	-0.104363
H128	H	1.617157	-0.300156	0.395637
O129	O	1.633943	-1.089853	-0.621800
O130	O	2.133943	-0.589853	-0.121800
H131	H	1.692076	-1.047224	-0.680016
H132	H	2.192076	-0.547224	-0.180016
H133	H	1.319036	-0.288944	-1.028478
H134	H	1.819036	0.211056	-0.528478
O135	O	1.527618	-0.485805	-0.989979
O136	O	2.027618	0.014195	-0.489979
H137	H	1.518658	-0.477282	-1.077787
H138	H	2.018658	0.022718	-0.577787
H139	H	1.513383	-0.472498	-0.780006
H140	H	2.013383	0.027502	-0.280006
H141	H	1.207091	-0.955554	-0.194378
H142	H	1.707091	-0.455554	0.305622
O143	O	0.830797	-0.275906	-0.571836
O144	O	1.330797	0.224094	-0.071836
H145	H	0.896840	-0.240784	-0.628088
H146	H	1.396840	0.259216	-0.128088
O147	O	1.354720	-1.090132	-0.342152
O148	O	1.854720	-0.590132	0.157848
H149	H	1.348754	-1.154475	-0.336142
H150	H	1.848754	-0.654475	0.163858
O151	O	1.198501	-0.671046	-0.185816
O152	O	1.698501	-0.171046	0.314184
H153	H	1.140382	-0.713671	-0.127583
H154	H	1.640382	-0.213671	0.372417
O155	O	1.304816	-0.275626	-0.818505
O156	O	1.804816	0.224374	-0.318505
H157	H	1.267573	-0.240453	-0.884560
H158	H	1.767573	0.259547	-0.384560
H159	H	1.308861	-1.030326	-0.296294
H160	H	1.808861	-0.530326	0.203706
