data_functionalizedCrystal
_audit_creation_method	'MofGen! by Chris Wilmer'
_symmetry_space_group_name_H-M	'P1'
_symmetry_Int_Tables_number	1
_symmetry_cell_setting	triclinic
loop_
_symmetry_equiv_pos_as_xyz
  x,y,z
_cell_length_a	13.897449
_cell_length_b	12.594516
_cell_length_c	13.897441
_cell_angle_alpha	89.971947
_cell_angle_beta	89.979267
_cell_angle_gamma	90.013095
loop_
_atom_site_label
_atom_site_type_symbol
_atom_site_fract_x
_atom_site_fract_y
_atom_site_fract_z
Zn1	Zn	1.474742	-0.423672	-0.545398
Zn2	Zn	1.974742	0.076328	-0.045398
Zn3	Zn	1.474653	-0.601683	-0.384107
Zn4	Zn	1.974653	-0.101683	0.115893
Zn5	Zn	1.313431	-0.423722	-0.384117
Zn6	Zn	1.813431	0.076278	0.115883
Zn7	Zn	1.313429	-0.601613	-0.545359
Zn8	Zn	1.813429	-0.101613	-0.045359
O9	O	1.394064	-0.512672	-0.464745
O10	O	1.894064	-0.012672	0.035255
O11	O	1.609712	-0.447293	-0.524015
O12	O	2.109712	0.052707	-0.024015
O13	O	1.453229	-0.578126	-0.249126
O14	O	1.953229	-0.078126	0.250874
O15	O	1.334868	-0.274770	-0.405531
O16	O	1.834868	0.225230	0.094469
O17	O	1.609646	-0.578077	-0.405515
O18	O	2.109646	-0.078077	0.094485
O19	O	1.453382	-0.274733	-0.524024
O20	O	1.953382	0.225267	-0.024024
O21	O	1.334781	-0.447380	-0.249134
O22	O	1.834781	0.052620	0.250866
O23	O	1.178449	-0.447312	-0.405494
O24	O	1.678449	0.052688	0.094506
O25	O	1.334865	-0.577958	-0.680346
O26	O	1.834865	-0.077958	-0.180346
O27	O	1.178448	-0.578007	-0.523958
O28	O	1.678448	-0.078007	-0.023958
O29	O	1.453380	-0.447226	-0.680375
O30	O	1.953380	0.052774	-0.180375
O31	O	1.453228	-0.750619	-0.405477
O32	O	1.953228	-0.250619	0.094523
O33	O	1.334778	-0.750568	-0.523949
O34	O	1.834778	-0.250568	-0.023949
C35	C	1.143449	-0.512658	-0.464723
C36	C	1.643449	-0.012658	0.035277
C37	C	1.036236	-0.512678	-0.464737
C38	C	1.536236	-0.012678	0.035263
C39	C	1.394019	-0.789213	-0.464729
C40	C	1.894019	-0.289213	0.035271
C41	C	1.394088	-0.907519	-0.464754
C42	C	1.894088	-0.407519	0.035246
C43	C	0.839940	-0.512681	-0.464762
C44	C	1.339940	-0.012681	0.035238
C45	C	0.949173	-0.512676	-0.464745
C46	C	1.449173	-0.012676	0.035255
C47	C	1.458588	-0.976761	-0.400386
C48	C	1.958588	-0.476761	0.099614
C49	C	1.482161	-1.047457	-0.488426
C50	C	1.982161	-0.547457	0.011574
C51	C	1.370635	-1.047622	-0.376769
C52	C	1.870635	-0.547622	0.123231
C53	C	1.417707	-0.976656	-0.552841
C54	C	1.917707	-0.476656	-0.052841
C55	C	1.306140	-0.976815	-0.441124
C56	C	1.806140	-0.476815	0.058876
C57	C	1.329680	-1.047479	-0.529225
C58	C	1.829680	-0.547479	-0.029225
C59	C	1.645657	-0.512687	-0.464768
C60	C	2.145657	-0.012687	0.035232
C61	C	1.752871	-0.512694	-0.464778
C62	C	2.252871	-0.012694	0.035222
C63	C	1.394132	-0.512578	-0.716338
C64	C	1.894132	-0.012578	-0.216338
C65	C	1.394161	-0.512538	-0.823552
C66	C	1.894161	-0.012538	-0.323552
C67	C	1.394135	-0.235052	-0.464783
C68	C	1.894135	0.264948	0.035217
C69	C	1.394165	-0.116746	-0.464799
C70	C	1.894165	0.383254	0.035201
C71	C	1.394188	-0.512466	-1.019848
C72	C	1.894188	-0.012466	-0.519848
C73	C	1.394170	-0.512509	-0.910615
C74	C	1.894170	-0.012509	-0.410615
C75	C	1.394051	-0.512689	-0.214131
C76	C	1.894051	-0.012689	0.285869
C77	C	1.394209	-0.512430	-0.106918
C78	C	1.894209	-0.012430	0.393082
H79	H	1.513142	-0.945709	-0.346001
H80	H	2.013142	-0.445709	0.153999
H81	H	1.556570	-1.078490	-0.508439
H82	H	2.056570	-0.578490	-0.008439
C83	C	1.444135	-0.935340	-0.652180
C84	C	1.944135	-0.435340	-0.152180
C85	C	1.376919	-0.971985	-0.719445
C86	C	1.876919	-0.471985	-0.219445
C87	C	1.401230	-0.933933	-0.810960
C88	C	1.901230	-0.433933	-0.310960
H89	H	1.506410	-0.960091	-0.669217
H90	H	2.006410	-0.460091	-0.169217
H91	H	1.443930	-0.859909	-0.651596
H92	H	1.943930	-0.359909	-0.151596
H93	H	1.377134	-1.047400	-0.720032
H94	H	1.877134	-0.547400	-0.220032
H95	H	1.314640	-0.947237	-0.702439
H96	H	1.814640	-0.447237	-0.202439
H97	H	1.401025	-0.858502	-0.810376
H98	H	1.901025	-0.358502	-0.310376
H99	H	1.463505	-0.958686	-0.827987
H100	H	1.963505	-0.458686	-0.327987
H101	H	1.355624	-0.958783	-0.856609
H102	H	1.855624	-0.458783	-0.356609
C103	C	1.257008	-1.088841	-0.601828
C104	C	1.757008	-0.588841	-0.101828
C105	C	1.257257	-1.200001	-0.600511
C106	C	1.757257	-0.700001	-0.100511
C107	C	1.190321	-1.238143	-0.667372
C108	C	1.690321	-0.738143	-0.167372
H109	H	1.273767	-1.064521	-0.664337
H110	H	1.773767	-0.564521	-0.164337
H111	H	1.194664	-1.063642	-0.585553
H112	H	1.694664	-0.563642	-0.085553
H113	H	1.319587	-1.225190	-0.616792
H114	H	1.819587	-0.725190	-0.116792
H115	H	1.240487	-1.224349	-0.538018
H116	H	1.740487	-0.724349	-0.038018
H117	H	1.127977	-1.212944	-0.651098
H118	H	1.627977	-0.712944	-0.151098
H119	H	1.207086	-1.213816	-0.729877
H120	H	1.707086	-0.713816	-0.229877
H121	H	1.190475	-1.313568	-0.666482
H122	H	1.690475	-0.813568	-0.166482
H123	H	1.231752	-0.945760	-0.421085
H124	H	1.731752	-0.445760	0.078915
C125	C	1.344267	-1.089037	-0.277446
C126	C	1.844267	-0.589037	0.222554
C127	C	1.411983	-1.053181	-0.210333
C128	C	1.911983	-0.553181	0.289667
C129	C	1.387726	-1.091296	-0.118825
C130	C	1.887726	-0.591296	0.381175
H131	H	1.343926	-1.164452	-0.278188
H132	H	1.843926	-0.664452	0.221812
H133	H	1.282219	-1.063779	-0.260149
H134	H	1.782219	-0.563779	0.239851
H135	H	1.474015	-1.078445	-0.227626
H136	H	1.974015	-0.578445	0.272374
H137	H	1.412334	-0.977771	-0.209561
H138	H	1.912334	-0.477771	0.290439
H139	H	1.325678	-1.066038	-0.101528
H140	H	1.825678	-0.566038	0.398472
H141	H	1.387385	-1.166710	-0.119576
H142	H	1.887385	-0.666710	0.380424
H143	H	1.433662	-1.066966	-0.073276
H144	H	1.933662	-0.566966	0.426724
