data_functionalizedCrystal
_audit_creation_method	'MofGen! by Chris Wilmer'
_symmetry_space_group_name_H-M	'P1'
_symmetry_Int_Tables_number	1
_symmetry_cell_setting	triclinic
loop_
_symmetry_equiv_pos_as_xyz
  x,y,z
_cell_length_a	10.654550
_cell_length_b	10.723024
_cell_length_c	9.730223
_cell_angle_alpha	89.999810
_cell_angle_beta	89.996251
_cell_angle_gamma	84.476386
loop_
_atom_site_label
_atom_site_type_symbol
_atom_site_fract_x
_atom_site_fract_y
_atom_site_fract_z
O1	O	1.667808	0.175269	-0.114399
O2	O	1.302327	0.191968	-0.114377
O3	O	1.493497	0.002044	-0.114383
O4	O	1.476637	0.365194	-0.114393
O5	O	1.493495	0.002049	0.114197
O6	O	1.302324	0.191973	0.114203
O7	O	1.667805	0.175274	0.114181
Zn8	Zn	1.485065	0.183624	0.150484
Zn9	Zn	1.485067	0.183618	-0.150680
O10	O	1.476635	0.365199	0.114187
C11	C	1.255528	0.190745	-0.000084
C12	C	1.116085	0.187076	-0.000075
C13	C	1.036583	0.298901	-0.000098
C14	C	0.905562	0.295446	-0.000122
C15	C	0.933560	0.068333	-0.000106
C16	C	1.064578	0.071789	-0.000072
C17	C	1.020417	0.430023	-0.000114
C18	C	0.889397	0.426568	-0.000137
C19	C	1.492269	-0.044454	-0.000095
C20	C	1.488598	-0.183008	-0.000100
C21	C	1.595568	-0.257975	-0.000108
C22	C	1.591776	-0.401179	-0.000113
C23	C	1.714604	0.176498	-0.000115
C24	C	1.854047	0.180166	-0.000133
C25	C	1.477863	0.411696	-0.000104
C26	C	1.481534	0.550251	-0.000108
N27	N	1.485072	0.183628	0.356020
N28	N	1.485070	0.183605	-0.356216
C29	C	1.569744	0.099558	0.427943
C30	C	1.569741	0.099543	0.571826
C31	C	1.400389	0.267678	0.571850
C32	C	1.400387	0.267687	0.427970
C33	C	1.667522	0.002490	0.427931
C34	C	1.667519	0.002475	0.571814
H35	H	0.891606	-0.025530	-0.000124
N36	N	1.309060	0.358346	0.649450
H37	H	1.219807	0.343146	0.624412
H38	H	1.322013	0.345540	0.751488
N39	N	1.788293	0.042740	0.368787
H40	H	1.800025	0.130456	0.400816
H41	H	1.861815	-0.016624	0.400819
N42	N	1.059273	0.497963	0.126589
H43	H	0.982112	0.525781	0.183114
H44	H	1.119136	0.439883	0.183047
H45	H	0.847658	0.475971	-0.095806
N46	N	1.795349	0.030796	0.623541
H47	H	1.814391	0.115772	0.588985
H48	H	1.795311	0.030724	0.727337
N49	N	1.627155	-0.117601	0.630923
H50	H	1.538897	-0.129358	0.598901
H51	H	1.686982	-0.190579	0.598853
N52	N	1.150329	-0.048820	-0.000012
H53	H	1.097815	-0.122374	-0.000014
H54	H	1.205331	-0.052354	-0.084730
N55	N	1.360228	-0.364427	-0.000080
H56	H	1.356631	-0.309788	-0.084808
H57	H	1.286202	-0.416601	-0.000021
N58	N	1.067642	0.485322	-0.130837
H59	H	1.027462	0.573946	-0.142109
H60	H	1.162285	0.485758	-0.125966
N61	N	0.828891	0.479054	0.130580
H62	H	0.847033	0.569219	0.141829
H63	H	0.734754	0.474511	0.125714
H64	H	1.394211	-0.224844	-0.000103
N65	N	1.720603	-0.202576	-0.000099
H66	H	1.705588	-0.108128	-0.000088
H67	H	1.769921	-0.231342	0.084643
H68	H	1.646094	-0.093427	0.388881
N69	N	1.309040	0.358338	0.350393
H70	H	1.255395	0.411583	0.417808
H71	H	1.357572	0.413967	0.290689
H72	H	1.683350	-0.465598	-0.000114
