data_functionalizedCrystal
_audit_creation_method	'MofGen! by Chris Wilmer'
_symmetry_space_group_name_H-M	'P1'
_symmetry_Int_Tables_number	1
_symmetry_cell_setting	triclinic
loop_
_symmetry_equiv_pos_as_xyz
  x,y,z
_cell_length_a	13.185408
_cell_length_b	11.792241
_cell_length_c	11.804365
_cell_angle_alpha	101.912841
_cell_angle_beta	82.233045
_cell_angle_gamma	68.083458
loop_
_atom_site_label
_atom_site_type_symbol
_atom_site_fract_x
_atom_site_fract_y
_atom_site_fract_z
O1	O	1.467057	-0.324709	-0.098930
O2	O	1.150244	-0.209878	-0.098953
O3	O	1.316337	-0.434859	-0.098933
O4	O	1.300964	-0.099728	-0.098950
O5	O	1.272611	-0.375676	0.099118
O6	O	1.106518	-0.150696	0.099097
O7	O	1.423331	-0.265526	0.099121
Cu8	Cu	1.260932	-0.202707	0.117193
Cu9	Cu	1.312643	-0.272697	-0.117025
O10	O	1.257238	-0.040545	0.099100
C11	C	1.087822	-0.168646	0.000069
C12	C	0.966969	-0.133973	0.000060
C13	C	0.897831	-0.010511	0.000051
C14	C	0.784279	0.022075	0.000060
C15	C	0.739856	-0.068799	0.000069
C16	C	0.808996	-0.192266	0.000069
C17	C	0.922557	-0.224853	0.000070
C18	C	0.764582	-0.283141	0.000088
C19	C	0.833722	-0.406608	0.000088
C20	C	0.947272	-0.439189	0.000088
C21	C	0.991695	-0.348315	0.000079
C22	C	0.651021	-0.250555	0.000087
C23	C	0.675747	-0.464897	0.000106
C24	C	0.789299	-0.497483	0.000097
C25	C	1.293508	-0.447258	0.000092
C26	C	1.290618	-0.572370	0.000091
C27	C	1.285306	-0.801431	0.000071
C28	C	1.288257	-0.673963	0.000082
C29	C	1.485754	-0.306759	0.000096
C30	C	1.606609	-0.341435	0.000097
C31	C	1.280068	-0.028148	0.000073
C32	C	1.282960	0.096963	0.000066
N33	N	1.224569	-0.153483	0.281929
N34	N	1.349015	-0.321933	-0.281761
C35	C	1.436336	-0.440161	0.655904
C36	C	1.463843	-0.477403	0.531245
C37	C	1.404026	-0.396427	0.468910
C38	C	1.316699	-0.278200	0.531245
C39	C	1.289194	-0.240950	0.655916
C40	C	1.256885	-0.197216	0.468922
C41	C	1.169558	-0.078990	0.531257
C42	C	1.142057	-0.041746	0.655916
C43	C	1.201874	-0.122722	0.718251
C44	C	1.284390	-0.234466	0.344252
C45	C	1.137248	-0.035255	0.344264
C46	C	1.109741	0.001987	0.468922
H47	H	0.647396	-0.042260	0.000078
Br48	Br	1.023558	0.118714	0.740517
Br49	Br	1.402903	-0.394909	0.259669
H50	H	1.426427	-0.426755	0.367408
Br51	Br	0.690455	0.189628	0.000056
Br52	Br	0.615466	-0.588231	0.000130
Br53	Br	1.164532	-0.072180	0.887438
Br54	Br	1.517520	-0.550038	0.740501
Br55	Br	0.991226	0.162432	0.553531
Br56	Br	1.056071	0.074654	0.259675
H57	H	0.594737	-0.150026	0.000089
H58	H	1.003560	-0.539720	0.000103
H59	H	0.934010	0.063468	0.000053
Br60	Br	1.145810	-0.392539	0.000054
H61	H	1.534945	-0.573661	0.480497
H62	H	0.845609	-0.598011	0.000097
