data_functionalizedCrystal
_audit_creation_method	'MofGen! by Chris Wilmer'
_symmetry_space_group_name_H-M	'P1'
_symmetry_Int_Tables_number	1
_symmetry_cell_setting	triclinic
loop_
_symmetry_equiv_pos_as_xyz
  x,y,z
_cell_length_a	33.428889
_cell_length_b	33.428139
_cell_length_c	33.424847
_cell_angle_alpha	60.004234
_cell_angle_beta	60.008465
_cell_angle_gamma	59.994972
loop_
_atom_site_label
_atom_site_type_symbol
_atom_site_fract_x
_atom_site_fract_y
_atom_site_fract_z
O1	O	0.055565	-0.584504	0.488714
O2	O	0.555565	-0.084504	0.988714
O3	O	0.020982	-0.455083	0.393778
O4	O	0.520982	0.044917	0.893778
O5	O	0.102943	-0.536959	0.393689
O6	O	0.602943	-0.036959	0.893689
O7	O	-0.026396	-0.502628	0.488803
O8	O	0.473604	-0.002628	0.988803
O9	O	0.130140	-0.509767	0.420792
O10	O	0.630140	-0.009767	0.920792
O11	O	0.048179	-0.427891	0.420881
O12	O	0.548179	0.072109	0.920881
O13	O	0.082762	-0.557312	0.515817
O14	O	0.582762	-0.057312	1.015817
Cu15	Cu	0.067954	-0.490119	0.470823
Cu16	Cu	0.567954	0.009881	0.970823
Cu17	Cu	0.035790	-0.522276	0.438771
Cu18	Cu	0.535790	-0.022276	0.938771
O19	O	0.000801	-0.475436	0.515906
O20	O	0.500801	0.024564	1.015906
N21	N	0.090577	-0.467504	0.493370
N22	N	0.590577	0.032496	0.993370
N23	N	0.013171	-0.544895	0.416225
N24	N	0.513171	-0.044895	0.916225
C25	C	0.143377	-0.280390	0.546067
C26	C	0.643377	0.219610	1.046067
C27	C	0.143515	-0.414755	0.680369
C28	C	0.643515	0.085245	1.180369
C29	C	0.143392	-0.414735	0.546069
C30	C	0.643392	0.085265	1.046069
C31	C	0.277766	-0.414702	0.545966
C32	C	0.777766	0.085298	1.045966
C33	C	0.158177	-0.324719	0.560828
C34	C	0.658177	0.175281	1.060828
C35	C	0.158255	-0.399967	0.636038
C36	C	0.658255	0.100033	1.136038
C37	C	0.233434	-0.399936	0.560773
C38	C	0.733434	0.100064	1.060773
C39	C	0.158186	-0.399955	0.560829
C40	C	0.658186	0.100045	1.060829
C41	C	0.124540	-0.223964	0.527278
C42	C	0.624540	0.276036	1.027278
C43	C	0.124565	-0.433545	0.527281
C44	C	0.624565	0.066455	1.027281
C45	C	0.177014	-0.381145	0.579617
C46	C	0.677014	0.118855	1.079617
C47	C	0.359814	-0.400540	0.502735
C48	C	0.859814	0.099460	1.002735
C49	C	0.411105	-0.417624	0.485606
C50	C	0.911105	0.082376	0.985606
C51	C	0.411136	-0.500620	0.517255
C52	C	0.911136	-0.000620	1.017255
C53	C	0.359845	-0.483534	0.534385
C54	C	0.859845	0.016466	1.034385
C55	C	0.136887	-0.198305	0.476855
C56	C	0.636887	0.301695	0.976855
C57	C	0.119761	-0.147011	0.459777
C58	C	0.619761	0.352989	0.959777
C59	C	0.077945	-0.147038	0.543547
C60	C	0.577945	0.352962	1.043547
C61	C	0.095072	-0.198332	0.560625
C62	C	0.595072	0.301668	1.060625
C63	C	0.074134	-0.421169	0.539710
C64	C	0.574134	0.078831	1.039710
C65	C	0.057023	-0.438269	0.522625
C66	C	0.557023	0.061731	1.022625
C67	C	0.140770	-0.480120	0.480694
C68	C	0.640770	0.019880	0.980694
C69	C	0.157883	-0.463020	0.497773
C70	C	0.657883	0.036980	0.997773
C71	C	0.074339	-0.421208	0.762475
C72	C	0.574339	0.078792	1.262475
C73	C	0.057288	-0.438323	0.813768
C74	C	0.557288	0.061677	1.313768
C75	C	0.141075	-0.480183	0.813699
C76	C	0.641075	0.019817	1.313699
C77	C	0.158125	-0.463069	0.762404
C78	C	0.658125	0.036931	1.262404
C79	C	0.124756	-0.433580	0.736794
C80	C	0.624756	0.066420	1.236794
C81	C	0.334186	-0.433494	0.527123
C82	C	0.834186	0.066506	1.027123
C83	C	-0.173769	-0.597444	0.363037
C84	C	0.326231	-0.097444	0.863037
C85	C	-0.039302	-0.597595	0.228856
C86	C	0.460698	-0.097595	0.728856
C87	C	-0.039496	-0.597587	0.363300
C88	C	0.460504	-0.097587	0.863300
C89	C	-0.039512	-0.731889	0.363237
C90	C	0.460488	-0.231889	0.863237
C91	C	-0.129442	-0.612265	0.348329
C92	C	0.370558	-0.112265	0.848329
C93	C	-0.054138	-0.612351	0.273187
C94	C	0.445862	-0.112351	0.773187
C95	C	-0.054257	-0.687554	0.348440
C96	C	0.445743	-0.187554	0.848440
C97	C	-0.054247	-0.612346	0.348477
C98	C	0.445753	-0.112346	0.848477
C99	C	-0.230191	-0.578579	0.381758
C100	C	0.269809	-0.078579	0.881758
C101	C	-0.020722	-0.578803	0.382168
C102	C	0.479278	-0.078803	0.882168
C103	C	-0.073020	-0.631130	0.329609
C104	C	0.426980	-0.131130	0.829609
C105	C	-0.053713	-0.813916	0.406386
C106	C	0.446287	-0.313916	0.906386
C107	C	-0.036654	-0.865210	0.423504
C108	C	0.463346	-0.365210	0.923504
C109	C	0.046338	-0.865293	0.391984
C110	C	0.546338	-0.365293	0.891984
C111	C	0.029278	-0.813999	0.374865
C112	C	0.529278	-0.313999	0.874865
C113	C	-0.255900	-0.590938	0.432169
C114	C	0.244100	-0.090938	0.932169
C115	C	-0.307191	-0.573786	0.449185
C116	C	0.192809	-0.073786	0.949185
C117	C	-0.307060	-0.531922	0.365377
C118	C	0.192940	-0.031922	0.865377
C119	C	-0.255769	-0.549074	0.348360
C120	C	0.244231	-0.049074	0.848360
C121	C	-0.033081	-0.528377	0.369764
C122	C	0.466919	-0.028377	0.869764
C123	C	-0.016014	-0.511306	0.386922
C124	C	0.483986	-0.011306	0.886922
C125	C	0.025770	-0.595083	0.428877
C126	C	0.525770	-0.095083	0.928877
C127	C	0.008703	-0.612156	0.411725
C128	C	0.508703	-0.112156	0.911725
C129	C	-0.032755	-0.528393	0.146761
C130	C	0.467245	-0.028393	0.646761
C131	C	-0.015585	-0.511324	0.095468
C132	C	0.484415	-0.011324	0.595468
C133	C	0.026262	-0.595106	0.095516
C134	C	0.526262	-0.095106	0.595516
C135	C	0.009094	-0.612174	0.146811
C136	C	0.509094	-0.112174	0.646811
C137	C	-0.020417	-0.578816	0.172432
C138	C	0.479583	-0.078816	0.672432
C139	C	-0.020748	-0.788312	0.382068
C140	C	0.479252	-0.288312	0.882068
N141	N	0.436037	-0.467415	0.493101
N142	N	0.936037	0.032585	0.993101
O143	O	0.592642	-0.471896	0.376066
O144	O	1.092642	0.028104	0.876066
O145	O	0.592838	-0.567146	0.505347
O146	O	1.092838	-0.067146	1.005347
O147	O	0.592754	-0.566928	0.423360
O148	O	1.092754	-0.066928	0.923360
O149	O	0.592727	-0.472113	0.458053
O150	O	1.092727	0.027887	0.958053
O151	O	0.511269	-0.539835	0.450606
O152	O	1.011269	-0.039835	0.950606
O153	O	0.511353	-0.540052	0.532594
O154	O	1.011353	-0.040052	1.032594
O155	O	0.511157	-0.444802	0.403312
O156	O	1.011157	0.055198	0.903312
Cu157	Cu	0.503815	-0.489954	0.470441
Cu158	Cu	1.003815	0.010046	0.970441
Cu159	Cu	0.600180	-0.521995	0.438219
Cu160	Cu	1.100180	-0.021995	0.938219
O161	O	0.511242	-0.445020	0.485300
O162	O	1.011242	0.054980	0.985300
N163	N	0.667959	-0.544533	0.415554
N164	N	1.167959	-0.044533	0.915554
N165	N	0.090544	-0.122107	0.493359
N166	N	0.590544	0.377893	0.993359
O167	O	-0.026406	0.034587	0.488773
O168	O	0.473594	0.534587	0.988773
O169	O	0.102877	0.034627	0.393499
O170	O	0.602877	0.534627	0.893499
O171	O	0.020848	0.034591	0.393771
O172	O	0.520848	0.534591	0.893771
O173	O	0.055623	0.034623	0.488500
O174	O	0.555623	0.534623	0.988500
O175	O	0.048051	-0.046899	0.420925
O176	O	0.548051	0.453101	0.920925
O177	O	0.130080	-0.046864	0.420653
O178	O	0.630080	0.453136	0.920653
O179	O	0.000796	-0.046903	0.515927
O180	O	0.500796	0.453097	1.015927
Cu181	Cu	0.067922	-0.054324	0.470769
Cu182	Cu	0.567922	0.445676	0.970769
Cu183	Cu	0.035752	0.042048	0.438656
Cu184	Cu	0.535752	0.542048	0.938656
O185	O	0.082825	-0.046867	0.515655
O186	O	0.582825	0.453133	1.015655
N187	N	0.013123	0.109830	0.416068
N188	N	0.513123	0.609830	0.916068
N189	N	0.090892	-0.467554	0.838649
N190	N	0.590892	0.032446	1.338649
O191	O	0.086330	-0.584488	0.995334
O192	O	0.586330	-0.084488	1.495334
O193	O	-0.008902	-0.455160	0.995379
O194	O	0.491098	0.044840	1.495379
O195	O	-0.008679	-0.537172	0.995355
O196	O	0.491321	-0.037172	1.495355
O197	O	0.086107	-0.502475	0.995358
O198	O	0.586107	-0.002475	1.495358
O199	O	0.018452	-0.509990	0.913868
O200	O	0.518452	-0.009990	1.413868
O201	O	0.018230	-0.427978	0.913891
O202	O	0.518230	0.072022	1.413891
O203	O	0.113461	-0.557306	0.913847
O204	O	0.613461	-0.057306	1.413847
Cu205	Cu	0.068323	-0.490160	0.906429
Cu206	Cu	0.568323	0.009840	1.406429
Cu207	Cu	0.036237	-0.522306	1.002797
Cu208	Cu	0.536237	-0.022306	1.502797
O209	O	0.113239	-0.475293	0.913870
O210	O	0.613239	0.024707	1.413870
N211	N	0.013667	-0.544916	1.070577
N212	N	0.513667	-0.044916	1.570577
C213	C	0.031339	-0.425179	0.394250
C214	C	0.531339	0.074821	0.894250
C215	C	0.132837	-0.526572	0.394139
C216	C	0.632837	-0.026572	0.894139
C217	C	0.072405	-0.587216	0.515344
C218	C	0.572405	-0.087216	1.015344
C219	C	-0.029093	-0.485823	0.515455
C220	C	0.470907	0.014177	1.015455
C221	C	0.552119	-0.566716	0.535258
C222	C	1.052119	-0.066716	1.035258
C223	C	0.552016	-0.566447	0.433726
C224	C	1.052016	-0.066447	0.933726
C225	C	0.551873	-0.445232	0.373402
C226	C	1.051873	0.054768	0.873402
C227	C	0.551980	-0.445502	0.474933
C228	C	1.051980	0.054498	0.974933
C229	C	0.132731	-0.006013	0.393923
C230	C	0.632731	0.493987	0.893923
C231	C	0.031182	-0.006158	0.394293
C232	C	0.531182	0.493842	0.894293
C233	C	-0.029092	-0.006163	0.515469
C234	C	0.470908	0.493837	1.015469
C235	C	0.072491	-0.006119	0.515133
C236	C	0.572491	0.493881	1.015133
C237	C	-0.008451	-0.425276	0.954641
C238	C	0.491549	0.074724	1.454641
C239	C	-0.008170	-0.526833	0.954596
C240	C	0.491830	-0.026833	1.454596
C241	C	0.113010	-0.587190	0.954585
C242	C	0.613010	-0.087190	1.454585
C243	C	0.112735	-0.485627	0.954611
C244	C	0.612735	0.014373	1.454611
H245	H	0.047163	-0.397193	0.741627
H246	H	0.547163	0.102807	1.241627
H247	H	-0.038348	-0.388133	0.954654
H248	H	0.461652	0.111867	1.454654
O249	O	0.551964	-0.602000	0.424954
O250	O	1.051964	-0.102000	0.924954
C251	C	0.509785	-0.655479	0.448532
C252	C	1.009785	-0.155479	0.948532
C253	C	0.509790	-0.615226	0.458526
C254	C	1.009790	-0.115226	0.958526
H255	H	0.475686	-0.666178	0.475662
H256	H	0.975686	-0.166178	0.975662
H257	H	0.543893	-0.688927	0.452902
H258	H	1.043893	-0.188927	0.952902
H259	H	0.509760	-0.641107	0.409601
H260	H	1.009760	-0.141107	0.909601
H261	H	0.509798	-0.629553	0.497454
H262	H	1.009798	-0.129553	0.997454
H263	H	0.475685	-0.581786	0.454123
H264	H	0.975685	-0.081786	0.954123
O265	O	-0.043699	-0.535592	0.954489
O266	O	0.456301	-0.035592	1.454489
C267	C	-0.097098	-0.512014	0.912205
C268	C	0.402902	-0.012014	1.412205
C269	C	-0.056871	-0.502034	0.912270
C270	C	0.443129	-0.002034	1.412270
H271	H	-0.107752	-0.484895	0.878069
H272	H	0.392248	0.015105	1.378069
H273	H	-0.130572	-0.507611	0.946278
H274	H	0.369428	-0.007611	1.446278
H275	H	-0.082723	-0.550953	0.912206
H276	H	0.417277	-0.050953	1.412206
H277	H	-0.071199	-0.463097	0.912252
H278	H	0.428801	0.036903	1.412252
H279	H	-0.023405	-0.506470	0.878199
H280	H	0.476595	-0.006470	1.378199
O281	O	0.148311	-0.476860	0.954625
O282	O	0.648311	0.023140	1.454625
C283	C	0.230885	-0.508900	0.954567
C284	C	0.730885	-0.008900	1.454567
C285	C	0.190636	-0.518898	0.954563
C286	C	0.690636	-0.018898	1.454563
H287	H	0.265118	-0.542878	0.954506
H288	H	0.765118	-0.042878	1.454506
H289	H	0.217352	-0.499598	0.988681
H290	H	0.717352	0.000402	1.488681
H291	H	0.239991	-0.476805	0.920477
H292	H	0.739991	0.023195	1.420477
H293	H	0.181512	-0.550999	0.988630
H294	H	0.681512	-0.050999	1.488630
H295	H	0.204190	-0.528171	0.920426
H296	H	0.704190	-0.028171	1.420426
O297	O	0.551992	-0.409920	0.483696
O298	O	1.051992	0.090080	0.983696
C299	C	0.551883	-0.327332	0.451664
C300	C	1.051883	0.172668	0.951664
C301	C	0.551879	-0.367587	0.441672
C302	C	1.051879	0.132413	0.941672
H303	H	0.551781	-0.293093	0.417698
H304	H	1.051781	0.206907	0.917698
H305	H	0.586017	-0.340856	0.460929
H306	H	1.086017	0.159144	0.960929
H307	H	0.517814	-0.318235	0.483780
H308	H	1.017814	0.181765	0.983780
H309	H	0.585924	-0.376702	0.409549
H310	H	1.085924	0.123298	0.909549
H311	H	0.517722	-0.354041	0.432435
H312	H	1.017722	0.145959	0.932435
O313	O	0.054932	-0.627577	0.070704
O314	O	0.554932	-0.127577	0.570704
C315	C	0.094592	-0.712478	0.076166
C316	C	0.594592	-0.212478	0.576166
C317	C	0.062128	-0.675761	0.104326
C318	C	0.562128	-0.175761	0.604326
H319	H	0.100412	-0.751443	0.103337
H320	H	0.600412	-0.251443	0.603337
H321	H	0.131527	-0.706652	0.052221
H322	H	0.631527	-0.206652	0.552221
H323	H	0.075840	-0.706518	0.052085
H324	H	0.575840	-0.206518	0.552085
H325	H	0.080837	-0.681699	0.128433
H326	H	0.580837	-0.181699	0.628433
H327	H	0.025195	-0.681596	0.128240
H328	H	0.525195	-0.181596	0.628240
O329	O	0.081335	-0.006179	0.550704
O330	O	0.581335	0.493821	1.050704
C331	C	0.086012	-0.048412	0.632264
C332	C	0.586012	0.451588	1.132264
C333	C	0.075975	-0.048399	0.592025
C334	C	0.575975	0.451601	1.092025
H335	H	0.081693	-0.082549	0.665678
H336	H	0.581693	0.417451	1.165678
H337	H	0.058877	-0.014337	0.643022
H338	H	0.558877	0.485663	1.143022
H339	H	0.124937	-0.048375	0.617862
H340	H	0.624937	0.451625	1.117862
H341	H	0.037065	-0.048454	0.606392
H342	H	0.537065	0.451546	1.106392
H343	H	0.103141	-0.082471	0.581272
H344	H	0.603141	0.417529	1.081272
H345	H	0.142910	-0.624330	0.954565
H346	H	0.642910	-0.124330	1.454565
H347	H	0.019144	-0.653235	0.167709
H348	H	0.519144	-0.153235	0.667709
H349	H	0.169783	-0.005775	0.363939
H350	H	0.669783	0.494225	0.863939
O351	O	0.022316	-0.006265	0.358830
O352	O	0.522316	0.493735	0.858830
C353	C	0.000722	-0.048513	0.335506
C354	C	0.500722	0.451487	0.835506
C355	C	0.010756	-0.048452	0.375706
C356	C	0.510756	0.451548	0.875706
H357	H	-0.008637	-0.082613	0.349139
H358	H	0.491363	0.417387	0.849139
H359	H	0.034692	-0.048541	0.301275
H360	H	0.534692	0.451459	0.801275
H361	H	-0.031352	-0.014407	0.326354
H362	H	0.468648	0.485593	0.826354
H363	H	0.042814	-0.082552	0.384900
H364	H	0.542814	0.417448	0.884900
H365	H	-0.023239	-0.048399	0.409912
H366	H	0.476761	0.451601	0.909912
H367	H	0.079796	-0.624394	0.545162
H368	H	0.579796	-0.124394	1.045162
O369	O	0.552205	-0.602345	0.579573
O370	O	1.052205	-0.102345	1.079573
C371	C	0.552265	-0.625117	0.660276
C372	C	1.052265	-0.125117	1.160276
C373	C	0.552179	-0.584728	0.610108
C374	C	1.052179	-0.084728	1.110108
H375	H	0.552234	-0.610884	0.684980
H376	H	1.052234	-0.110884	1.184980
H377	H	0.586395	-0.658517	0.655126
H378	H	1.086395	-0.158517	1.155126
H379	H	0.518192	-0.635841	0.677873
H380	H	1.018192	-0.135841	1.177873
H381	H	0.586229	-0.573962	0.592483
H382	H	1.086229	-0.073962	1.092483
H383	H	0.518027	-0.551354	0.615290
H384	H	1.018027	-0.051354	1.115290
O385	O	0.022437	-0.380808	0.358721
O386	O	0.522437	0.119192	0.858721
C387	C	-0.035705	-0.300144	0.336208
C388	C	0.464295	0.199856	0.836208
C389	C	-0.025694	-0.350374	0.376484
C390	C	0.474306	0.149626	0.876484
H391	H	-0.074615	-0.275521	0.350558
H392	H	0.425385	0.224479	0.850558
H393	H	-0.031358	-0.305210	0.302791
H394	H	0.468642	0.194790	0.802791
H395	H	-0.008536	-0.282502	0.325469
H396	H	0.491464	0.217498	0.825469
H397	H	-0.052855	-0.368044	0.387265
H398	H	0.447145	0.131956	0.887265
H399	H	-0.030025	-0.345276	0.409875
H400	H	0.469975	0.154724	0.909875
O401	O	-0.073428	-0.477011	0.551042
O402	O	0.426572	0.022989	1.051042
C403	C	-0.154123	-0.418978	0.573707
C404	C	0.345877	0.081022	1.073707
C405	C	-0.103933	-0.428889	0.533365
C406	C	0.396067	0.071111	1.033365
H407	H	-0.178804	-0.380076	0.559427
H408	H	0.321196	0.119924	1.059427
H409	H	-0.149009	-0.423362	0.607113
H410	H	0.350991	0.076638	1.107113
H411	H	-0.171726	-0.446179	0.584439
H412	H	0.328274	0.053821	1.084439
H413	H	-0.086304	-0.401698	0.522592
H414	H	0.413696	0.098302	1.022592
H415	H	-0.109080	-0.424522	0.499986
H416	H	0.390920	0.075478	0.999986
O417	O	0.551821	-0.409614	0.329076
O418	O	1.051821	0.090386	0.829076
C419	C	0.551684	-0.386816	0.248399
C420	C	1.051684	0.113184	0.748399
C421	C	0.551756	-0.427201	0.298572
C422	C	1.051756	0.072799	0.798572
H423	H	0.551620	-0.401017	0.223727
H424	H	1.051620	0.098983	0.723727
H425	H	0.585771	-0.376097	0.230739
H426	H	1.085771	0.123903	0.730739
H427	H	0.517568	-0.353420	0.253604
H428	H	1.017568	0.146580	0.753604
H429	H	0.585848	-0.460623	0.293410
H430	H	1.085848	0.039377	0.793410
H431	H	0.517646	-0.437878	0.316215
H432	H	1.017646	0.062122	0.816215
H433	H	0.016234	-0.428240	0.834672
H434	H	0.516234	0.071760	1.334672
H435	H	-0.066220	-0.006175	0.545378
H436	H	0.433780	0.493825	1.045378
H437	H	0.199181	-0.473148	0.741498
H438	H	0.699181	0.026852	1.241498
O439	O	0.173557	-0.508839	0.838501
O440	O	0.673557	-0.008839	1.338501
C441	C	0.258462	-0.548534	0.833019
C442	C	0.758462	-0.048534	1.333019
C443	C	0.221731	-0.516080	0.804870
C444	C	0.721731	-0.016080	1.304870
H445	H	0.297419	-0.554390	0.805840
H446	H	0.797419	-0.054390	1.305840
H447	H	0.252611	-0.585456	0.857014
H448	H	0.752611	-0.085456	1.357014
H449	H	0.252543	-0.529749	0.857049
H450	H	0.752543	-0.029749	1.357049
H451	H	0.227629	-0.534821	0.780814
H452	H	0.727629	-0.034821	1.280814
H453	H	0.227591	-0.479159	0.780906
H454	H	0.727591	0.020841	1.280906
H455	H	0.047002	-0.397168	0.563734
H456	H	0.547002	0.102832	1.063734
H457	H	0.167905	-0.504126	0.456671
H458	H	0.667905	-0.004126	0.956671
O459	O	0.008019	-0.426226	0.534763
O460	O	0.508019	0.073774	1.034763
C461	C	-0.073245	-0.382903	0.578147
C462	C	0.426755	0.117097	1.078147
C463	C	-0.017762	-0.396512	0.564445
C464	C	0.482238	0.103488	1.064445
H465	H	-0.094104	-0.358868	0.602138
H466	H	0.405896	0.141132	1.102138
H467	H	-0.083341	-0.417705	0.599058
H468	H	0.416659	0.082295	1.099058
H469	H	-0.083363	-0.362032	0.543353
H470	H	0.416637	0.137968	1.043353
H471	H	-0.007604	-0.417370	0.599213
H472	H	0.492396	0.082630	1.099213
H473	H	-0.007695	-0.361692	0.543515
H474	H	0.492305	0.138308	1.043515
H475	H	0.338981	-0.510371	0.554246
H476	H	0.838981	-0.010371	1.054246
O477	O	0.206882	-0.475012	0.485613
O478	O	0.706882	0.024988	0.985613
C479	C	0.283651	-0.471026	0.420535
C480	C	0.783651	0.028974	0.920535
C481	C	0.228169	-0.457427	0.434239
C482	C	0.728169	0.042573	0.934239
H483	H	0.300876	-0.456806	0.379000
H484	H	0.800876	0.043194	0.879000
H485	H	0.301002	-0.512558	0.434632
H486	H	0.801002	-0.012558	0.934632
H487	H	0.290142	-0.453752	0.437837
H488	H	0.790142	0.046248	0.937837
H489	H	0.221634	-0.474669	0.416943
H490	H	0.721634	0.025331	0.916943
H491	H	0.210846	-0.415891	0.420151
H492	H	0.710846	0.084109	0.920151
O493	O	0.435986	-0.549246	0.524366
O494	O	0.935986	-0.049246	1.024366
C495	C	0.430607	-0.629761	0.557536
C496	C	0.930607	-0.129761	1.057536
C497	C	0.402401	-0.574706	0.549527
C498	C	0.902401	-0.074706	1.049527
H499	H	0.403466	-0.650360	0.577870
H500	H	0.903466	-0.150360	1.077870
H501	H	0.454635	-0.644229	0.580091
H502	H	0.954635	-0.144229	1.080091
H503	H	0.454608	-0.635447	0.520539
H504	H	0.954608	-0.135447	1.020539
H505	H	0.378374	-0.568978	0.586501
H506	H	0.878374	-0.068978	1.086501
H507	H	0.378404	-0.560264	0.526950
H508	H	0.878404	-0.060264	1.026950
H509	H	0.338923	-0.359792	0.496821
H510	H	0.838923	0.140208	0.996821
O511	O	0.435928	-0.385544	0.461903
O512	O	0.935928	0.114456	0.961903
C513	C	0.430490	-0.301425	0.432335
C514	C	0.930490	0.198575	0.932335
C515	C	0.402317	-0.337700	0.459180
C516	C	0.902317	0.162300	0.959180
H517	H	0.403328	-0.262736	0.430134
H518	H	0.903328	0.237264	0.930134
H519	H	0.454461	-0.302950	0.393751
H520	H	0.954461	0.197050	0.893751
H521	H	0.454545	-0.311743	0.453280
H522	H	0.954545	0.188257	0.953280
H523	H	0.378236	-0.327406	0.438276
H524	H	0.878236	0.172594	0.938276
H525	H	0.378377	-0.336168	0.497766
H526	H	0.878377	0.163832	0.997766
H527	H	0.160882	-0.219171	0.449698
H528	H	0.660882	0.280829	0.949698
H529	H	0.129813	-0.126117	0.418717
H530	H	0.629813	0.373883	0.918717
O531	O	0.177117	-0.535222	0.358444
O532	O	0.677117	-0.035222	0.858444
C533	C	0.227376	-0.502944	0.275845
C534	C	0.727376	-0.002944	0.775845
C535	C	0.177203	-0.493087	0.316222
C536	C	0.677203	0.006913	0.816222
H537	H	0.227465	-0.468881	0.241701
H538	H	0.727465	0.031119	0.741701
H539	H	0.234535	-0.534977	0.266607
H540	H	0.734535	-0.034977	0.766607
H541	H	0.257286	-0.512263	0.289350
H542	H	0.757286	-0.012263	0.789350
H543	H	0.147262	-0.483746	0.302749
H544	H	0.647262	0.016254	0.802749
H545	H	0.170086	-0.461067	0.325453
H546	H	0.670086	0.038933	0.825453
O547	O	0.083051	-0.223181	0.609623
O548	O	0.583051	0.276819	1.109623
C549	C	0.039740	-0.217792	0.690909
C550	C	0.539740	0.282208	1.190909
C551	C	0.053328	-0.189589	0.635431
C552	C	0.553328	0.310411	1.135431
H553	H	0.015699	-0.190646	0.711792
H554	H	0.515699	0.309354	1.211792
H555	H	0.074547	-0.241785	0.701008
H556	H	0.574547	0.258215	1.201008
H557	H	0.018886	-0.241829	0.700999
H558	H	0.518886	0.258171	1.200999
H559	H	0.074170	-0.165526	0.625302
H560	H	0.574170	0.334474	1.125302
H561	H	0.018503	-0.165627	0.625362
H562	H	0.518503	0.334373	1.125362
O563	O	-0.027644	-0.462325	0.070611
O564	O	0.472356	0.037675	0.570611
C565	C	-0.070951	-0.381028	0.075983
C566	C	0.429049	0.118972	0.575983
C567	C	-0.057343	-0.436507	0.104194
C568	C	0.442657	0.063493	0.604194
H569	H	-0.094956	-0.360138	0.103123
H570	H	0.405044	0.139862	0.603123
H571	H	-0.091816	-0.370889	0.051927
H572	H	0.408184	0.129111	0.551927
H573	H	-0.036121	-0.370987	0.052010
H574	H	0.463879	0.129013	0.552010
H575	H	-0.092148	-0.446588	0.128194
H576	H	0.407852	0.053412	0.628194
H577	H	-0.036459	-0.446616	0.128219
H578	H	0.463541	0.053384	0.628219
H579	H	0.053957	-0.126168	0.570702
H580	H	0.553957	0.373832	1.070702
H581	H	-0.057039	-0.501216	0.345698
H582	H	0.442961	-0.001216	0.845698
O583	O	-0.061374	-0.496034	0.171700
O584	O	0.438626	0.003966	0.671700
C585	C	-0.070582	-0.466688	0.229622
C586	C	0.429418	0.033312	0.729622
C587	C	-0.038133	-0.503369	0.201420
C588	C	0.461867	-0.003369	0.701420
H589	H	-0.051800	-0.472598	0.253650
H590	H	0.448200	0.027402	0.753650
H591	H	-0.107493	-0.472559	0.253613
H592	H	0.392507	0.027441	0.753613
H593	H	-0.076463	-0.427722	0.202452
H594	H	0.423537	0.072278	0.702452
H595	H	-0.032213	-0.542348	0.228555
H596	H	0.467787	-0.042348	0.728555
H597	H	-0.001242	-0.497455	0.177422
H598	H	0.498758	0.002545	0.677422
H599	H	-0.026079	-0.470245	0.376824
H600	H	0.473921	0.029755	0.876824
H601	H	0.018765	-0.653217	0.421828
H602	H	0.518765	-0.153217	0.921828
O603	O	0.054409	-0.627533	0.457528
O604	O	0.554409	-0.127533	0.957528
C605	C	0.129866	-0.693930	0.464192
C606	C	0.629866	-0.193930	0.964192
C607	C	0.097477	-0.657219	0.431698
C608	C	0.597477	-0.157219	0.931698
H609	H	0.164698	-0.717934	0.443317
H610	H	0.664698	-0.217934	0.943317
H611	H	0.108974	-0.717950	0.498970
H612	H	0.608974	-0.217950	0.998970
H613	H	0.139915	-0.673055	0.474336
H614	H	0.639915	-0.173055	0.974336
H615	H	0.087418	-0.678054	0.421517
H616	H	0.587418	-0.178054	0.921517
H617	H	0.118386	-0.633199	0.396943
H618	H	0.618386	-0.133199	0.896943
O619	O	0.061365	-0.789206	0.351272
O620	O	0.561365	-0.289206	0.851272
C621	C	0.145488	-0.794709	0.321796
C622	C	0.645488	-0.294709	0.821796
C623	C	0.109199	-0.822848	0.348531
C624	C	0.609199	-0.322848	0.848531
H625	H	0.184171	-0.821897	0.319562
H626	H	0.684171	-0.321897	0.819562
H627	H	0.135209	-0.770705	0.342777
H628	H	0.635209	-0.270705	0.842777
H629	H	0.143949	-0.770688	0.283221
H630	H	0.643949	-0.270688	0.783221
H631	H	0.110719	-0.846896	0.387106
H632	H	0.610719	-0.346896	0.887106
H633	H	0.119490	-0.846821	0.327513
H634	H	0.619490	-0.346821	0.827513
O635	O	-0.230873	-0.537040	0.299375
O636	O	0.269127	-0.037040	0.799375
C637	C	-0.236159	-0.493676	0.218044
C638	C	0.263841	0.006324	0.718044
C639	C	-0.264416	-0.507279	0.273509
C640	C	0.235584	-0.007279	0.773509
H641	H	-0.263266	-0.469604	0.197115
H642	H	0.236734	0.030396	0.697115
H643	H	-0.212160	-0.528478	0.207937
H644	H	0.287840	-0.028478	0.707937
H645	H	-0.212125	-0.472847	0.208018
H646	H	0.287875	0.027153	0.708018
H647	H	-0.288477	-0.528096	0.283574
H648	H	0.211523	-0.028096	0.783574
H649	H	-0.288383	-0.472460	0.283585
H650	H	0.211617	0.027540	0.783585
H651	H	-0.063498	-0.886058	0.443304
H652	H	0.436502	-0.386058	0.943304
O653	O	0.094917	-0.890268	0.385076
O654	O	0.594917	-0.390268	0.885076
C655	C	0.156891	-0.948249	0.422980
C656	C	0.656891	-0.448249	0.922980
C657	C	0.101863	-0.919984	0.430872
C658	C	0.601863	-0.419984	0.930872
H659	H	0.162524	-0.972288	0.459998
H660	H	0.662524	-0.472288	0.959998
H661	H	0.177545	-0.921160	0.402686
H662	H	0.677545	-0.421160	0.902686
H663	H	0.171342	-0.972248	0.400404
H664	H	0.671342	-0.472248	0.900404
H665	H	0.087368	-0.895983	0.453459
H666	H	0.587368	-0.395983	0.953459
H667	H	0.081243	-0.947099	0.451145
H668	H	0.581243	-0.447099	0.951145
H669	H	-0.094449	-0.793002	0.412253
H670	H	0.405551	-0.293002	0.912253
H671	H	-0.328125	-0.583847	0.490235
H672	H	0.171875	-0.083847	0.990235
O673	O	-0.231130	-0.619575	0.464677
O674	O	0.268870	-0.119575	0.964677
C675	C	-0.236673	-0.659306	0.549601
C676	C	0.263327	-0.159306	1.049601
C677	C	-0.264788	-0.626861	0.512840
C678	C	0.235212	-0.126861	1.012840
H679	H	-0.263873	-0.665216	0.588549
H680	H	0.236127	-0.165216	1.088549
H681	H	-0.212670	-0.640551	0.543776
H682	H	0.287330	-0.140551	1.043776
H683	H	-0.212656	-0.696204	0.543689
H684	H	0.287344	-0.196204	1.043689
H685	H	-0.288831	-0.589958	0.518730
H686	H	0.211169	-0.089958	1.018730
H687	H	-0.288760	-0.645655	0.518675
H688	H	0.211240	-0.145655	1.018675
H689	H	-0.327887	-0.507903	0.338181
H690	H	0.172113	-0.007903	0.838181
