data_functionalizedCrystal
_audit_creation_method	'MofGen! by Chris Wilmer'
_symmetry_space_group_name_H-M	'P1'
_symmetry_Int_Tables_number	1
_symmetry_cell_setting	triclinic
loop_
_symmetry_equiv_pos_as_xyz
  x,y,z
_cell_length_a	19.288867
_cell_length_b	12.811415
_cell_length_c	17.766277
_cell_angle_alpha	84.562803
_cell_angle_beta	89.992126
_cell_angle_gamma	83.592416
loop_
_atom_site_label
_atom_site_type_symbol
_atom_site_fract_x
_atom_site_fract_y
_atom_site_fract_z
O1	O	0.922003	0.130944	-0.071505
O2	O	0.719830	0.148605	-0.072717
O3	O	0.826001	-0.013043	-0.061676
O4	O	0.815831	0.292591	-0.082546
O5	O	0.825983	-0.013051	0.063513
O6	O	0.719811	0.148596	0.052472
O7	O	0.921984	0.130936	0.053684
Cu8	Cu	0.820896	0.139765	0.064509
Cu9	Cu	0.820918	0.139775	-0.083542
O10	O	0.815812	0.292583	0.042643
C11	C	0.693941	0.148032	-0.010085
C12	C	0.616829	0.146325	-0.009971
C13	C	0.825422	-0.052148	0.003587
C14	C	0.823714	-0.168659	0.011537
C15	C	0.061213	0.134035	-0.077363
C16	C	0.133669	0.135632	-0.077475
C17	C	0.169891	0.136432	-0.009290
C18	C	0.133654	0.135606	0.059015
C19	C	0.061201	0.133998	0.059125
C20	C	0.279528	0.200449	0.038620
C21	C	0.351980	0.202064	0.038506
C22	C	0.393361	0.141387	-0.009628
C23	C	0.362281	0.079108	-0.057661
C24	C	0.289828	0.077500	-0.057551
C25	C	0.248454	0.138175	-0.009402
C26	C	0.508154	0.143937	-0.078049
C27	C	0.580612	0.145528	-0.078157
C28	C	0.580595	0.145512	0.058334
C29	C	0.508140	0.143910	0.058441
C30	C	0.471924	0.143128	-0.009753
C31	C	0.820513	-0.387574	-0.110019
C32	C	0.818908	-0.497046	-0.102553
C33	C	0.818895	-0.497076	0.033937
C34	C	0.820499	-0.387604	0.026470
C35	C	0.821309	-0.332857	-0.045510
C36	C	0.822919	-0.223384	-0.052976
C37	C	0.822901	-0.223415	0.083512
C38	C	0.821296	-0.332887	0.090979
C39	C	0.947873	0.131509	-0.008950
C40	C	1.024985	0.133215	-0.009068
C41	C	0.816392	0.331689	-0.022621
C42	C	0.818100	0.448199	-0.030577
N43	N	0.820885	0.139758	0.168640
N44	N	0.820934	0.139774	-0.187672
C45	C	0.867913	0.068216	0.212913
C46	C	0.867917	0.068211	0.291715
C47	C	0.820900	0.139766	0.326240
C48	C	0.773863	0.211314	0.281956
C49	C	0.773856	0.211310	0.203156
C50	C	0.812076	0.235400	0.444547
C51	C	0.812088	0.235405	0.523346
C52	C	0.820919	0.139779	0.569285
C53	C	0.829751	0.044143	0.536417
C54	C	0.829744	0.044139	0.457617
C55	C	0.820902	0.139778	0.411685
C56	C	0.867954	0.068225	0.699005
C57	C	0.867953	0.068219	0.777809
C58	C	0.773902	0.211332	0.768048
C59	C	0.773899	0.211329	0.689246
C60	C	0.820929	0.139777	0.654730
H61	H	0.031731	0.133393	-0.132892
H62	H	0.735616	0.269590	0.796157
H63	H	0.610109	0.146187	-0.133773
F64	F	0.619142	0.146349	0.130904
F65	F	0.385050	0.268354	0.089621
F66	F	0.821384	-0.329308	-0.186625
F67	F	0.172206	0.136453	0.131583
H68	H	0.823552	-0.178853	0.136040
H69	H	0.823581	-0.178811	-0.111587
H70	H	0.818230	-0.541668	0.092540
F71	F	0.839138	-0.057641	0.422638
H72	H	0.906215	0.009950	0.327769
F73	F	0.918005	-0.007935	0.824931
H74	H	0.820634	-0.377476	0.149583
F75	F	0.172234	0.136506	-0.150167
H76	H	0.906206	0.009951	0.184813
H77	H	0.818256	-0.541592	-0.155083
F78	F	0.839154	-0.057638	0.585303
F79	F	0.723800	0.287459	0.156035
F80	F	0.918004	-0.007931	0.662270
F81	F	0.469580	0.143052	0.131130
F82	F	0.723848	0.287479	0.642123
F83	F	0.256753	0.011218	-0.108667
F84	F	0.802693	0.337188	0.558320
F85	F	0.235495	0.265025	0.089861
F86	F	0.723821	0.287466	0.318700
F87	F	0.406316	0.014529	-0.108895
F88	F	0.469608	0.143098	-0.150625
H89	H	0.804874	0.313275	0.407149
H90	H	0.031704	0.133335	0.114741
