data_functionalizedCrystal
_audit_creation_method	'MofGen! by Chris Wilmer'
_symmetry_space_group_name_H-M	'P1'
_symmetry_Int_Tables_number	1
_symmetry_cell_setting	triclinic
loop_
_symmetry_equiv_pos_as_xyz
  x,y,z
_cell_length_a	11.169417
_cell_length_b	16.625545
_cell_length_c	11.169409
_cell_angle_alpha	90.036076
_cell_angle_beta	90.020564
_cell_angle_gamma	90.026437
loop_
_atom_site_label
_atom_site_type_symbol
_atom_site_fract_x
_atom_site_fract_y
_atom_site_fract_z
Zn1	Zn	1.834844	-0.320918	0.678511
Zn2	Zn	2.168178	0.012415	1.011844
Zn3	Zn	2.501511	0.345749	1.345178
Zn4	Zn	1.834678	-0.455780	0.477815
Zn5	Zn	2.168011	-0.122446	0.811148
Zn6	Zn	2.501344	0.210887	1.144481
Zn7	Zn	1.634127	-0.320967	0.477845
Zn8	Zn	1.967461	0.012366	0.811179
Zn9	Zn	2.300794	0.345700	1.144512
Zn10	Zn	1.634084	-0.455714	0.678460
Zn11	Zn	1.967418	-0.122381	1.011793
Zn12	Zn	2.300751	0.210952	1.345126
O13	O	1.734433	-0.388345	0.578158
O14	O	2.067767	-0.055011	0.911491
O15	O	2.401100	0.278322	1.244824
O16	O	2.002772	-0.338815	0.651897
O17	O	2.336105	-0.005481	0.985230
O18	O	2.669438	0.327852	1.318564
O19	O	1.808023	-0.437944	0.309869
O20	O	2.141356	-0.104611	0.643202
O21	O	2.474689	0.228722	0.976536
O22	O	1.660841	-0.208128	0.504499
O23	O	1.994174	0.125205	0.837832
O24	O	2.327507	0.458539	1.171165
O25	O	2.002649	-0.437897	0.504446
O26	O	2.335983	-0.104564	0.837779
O27	O	2.669316	0.228770	1.171113
O28	O	1.808306	-0.208092	0.651927
O29	O	2.141640	0.125241	0.985260
O30	O	2.474973	0.458575	1.318593
O31	O	1.660679	-0.338898	0.309892
O32	O	1.994013	-0.005565	0.643225
O33	O	2.327346	0.327769	0.976558
O34	O	1.466172	-0.338835	0.504449
O35	O	1.799505	-0.005501	0.837782
O36	O	2.132839	0.327832	1.171115
O37	O	1.660767	-0.437785	0.846416
O38	O	1.994100	-0.104452	1.179750
O39	O	2.327434	0.228881	1.513083
O40	O	1.466140	-0.437833	0.651839
O41	O	1.799474	-0.104500	0.985172
O42	O	2.132807	0.228834	1.318506
O43	O	1.808265	-0.338751	0.846454
O44	O	2.141598	-0.005418	1.179787
O45	O	2.474931	0.327916	1.513121
O46	O	1.807981	-0.568604	0.504396
O47	O	2.141314	-0.235270	0.837730
O48	O	2.474647	0.098063	1.171063
O49	O	1.660606	-0.568555	0.651809
O50	O	1.993939	-0.235222	0.985142
O51	O	2.327272	0.098111	1.318476
C52	C	1.422609	-0.388333	0.578142
C53	C	1.755942	-0.054999	0.911476
C54	C	2.089275	0.278334	1.244809
C55	C	1.289209	-0.388347	0.578164
C56	C	1.622542	-0.055013	0.911497
C57	C	1.955875	0.278320	1.244831
C58	C	1.734303	-0.597836	0.578120
C59	C	2.067636	-0.264502	0.911453
C60	C	2.400970	0.068831	1.244787
C61	C	1.734357	-0.687457	0.578144
C62	C	2.067690	-0.354123	0.911477
C63	C	2.401024	-0.020790	1.244811
C64	C	1.734404	-0.760239	0.578168
C65	C	2.067737	-0.426906	0.911501
C66	C	2.401070	-0.093572	1.244834
C67	C	1.734473	-0.851548	0.578194
C68	C	2.067807	-0.518214	0.911528
C69	C	2.401140	-0.184881	1.244861
C70	C	1.734536	-0.924324	0.578209
C71	C	2.067869	-0.590991	0.911543
C72	C	2.401202	-0.257657	1.244876
C73	C	1.734604	-1.015638	0.578234
C74	C	2.067938	-0.682305	0.911567
C75	C	2.401271	-0.348972	1.244901
C76	C	2.047476	-0.388358	0.578174
C77	C	2.380809	-0.055024	0.911507
C78	C	2.714142	0.278309	1.244841
C79	C	2.180876	-0.388363	0.578181
C80	C	2.514209	-0.055030	0.911514
C81	C	2.847542	0.278304	1.244847
C82	C	1.734530	-0.388255	0.891200
C83	C	2.067863	-0.054922	1.224534
C84	C	2.401196	0.278411	1.557867
C85	C	1.734571	-0.388217	1.024600
C86	C	2.067904	-0.054884	1.357934
C87	C	2.401237	0.278449	1.691267
C88	C	1.734597	-0.178036	0.578222
C89	C	2.067930	0.155298	0.911555
C90	C	2.401264	0.488631	1.244889
C91	C	1.734667	-0.088415	0.578249
C92	C	2.068000	0.244919	0.911583
C93	C	2.401333	0.578252	1.244916
C94	C	1.734407	-0.388376	0.266333
C95	C	2.067740	-0.055042	0.599666
C96	C	2.401073	0.278291	0.933000
C97	C	1.734598	-0.388186	0.132934
C98	C	2.067932	-0.054853	0.466267
C99	C	2.401265	0.278480	0.799600
