data_functionalizedCrystal
_audit_creation_method	'MofGen! by Chris Wilmer'
_symmetry_space_group_name_H-M	'P1'
_symmetry_Int_Tables_number	1
_symmetry_cell_setting	triclinic
loop_
_symmetry_equiv_pos_as_xyz
  x,y,z
_cell_length_a	10.654550
_cell_length_b	15.995350
_cell_length_c	9.730223
_cell_angle_alpha	90.000899
_cell_angle_beta	89.996251
_cell_angle_gamma	83.988639
loop_
_atom_site_label
_atom_site_type_symbol
_atom_site_fract_x
_atom_site_fract_y
_atom_site_fract_z
O1	O	1.666298	0.117599	-0.114395
O2	O	1.300673	0.128803	-0.114373
O3	O	1.493480	0.001371	-0.114383
O4	O	1.473491	0.245031	-0.114385
O5	O	1.493478	0.001375	0.114197
O6	O	1.300671	0.128806	0.114207
O7	O	1.666295	0.117602	0.114185
Zn8	Zn	1.483483	0.123205	0.150488
Zn9	Zn	1.483486	0.123200	-0.150676
O10	O	1.473488	0.245034	0.114195
C11	C	1.253885	0.127982	-0.000080
C12	C	1.114473	0.125521	-0.000071
C13	C	1.034008	0.200551	-0.000092
C14	C	0.903017	0.198233	-0.000116
C15	C	0.932971	0.045849	-0.000104
C16	C	1.063959	0.048168	-0.000071
C17	C	1.084522	0.277904	-0.000093
C18	C	1.004055	0.352940	-0.000115
C19	C	0.873064	0.350622	-0.000138
C20	C	0.822541	0.273268	-0.000140
C21	C	1.492652	-0.029827	-0.000096
C22	C	1.490175	-0.122791	-0.000104
C23	C	1.481278	-0.460591	-0.000098
C24	C	1.343964	-0.413954	-0.000603
C25	C	1.346442	-0.317249	-0.000087
C26	C	1.485691	-0.293004	-0.000102
C27	C	1.553417	-0.333687	0.130422
C28	C	1.549968	-0.430342	0.130531
C29	C	1.552807	-0.430688	-0.129407
C30	C	1.552775	-0.333743	-0.131132
C31	C	1.488192	-0.198292	-0.000099
C32	C	1.478780	-0.555303	-0.000092
C33	C	1.713084	0.118423	-0.000111
C34	C	1.852495	0.120884	-0.000129
C35	C	1.474316	0.276232	-0.000095
C36	C	1.476793	0.369197	-0.000097
N37	N	1.483490	0.123207	0.356024
N38	N	1.483488	0.123191	-0.356212
C39	C	1.568886	0.066800	0.427946
C40	C	1.568883	0.066789	0.571829
C41	C	1.398083	0.179602	0.571856
C42	C	1.398081	0.179607	0.427976
C43	C	1.654295	0.010400	0.355994
C44	C	1.739700	-0.046012	0.427915
C45	C	1.739697	-0.046022	0.571798
C46	C	1.654289	0.010379	0.643760
H47	H	1.045200	0.415918	-0.000102
C48	C	1.687774	-0.472294	-0.130892
C49	C	1.708287	-0.519892	-0.251089
C50	C	1.832602	-0.558226	-0.252502
H51	H	1.701420	-0.507985	-0.053124
H52	H	1.744545	-0.430312	-0.128107
H53	H	1.651534	-0.561868	-0.253861
H54	H	1.694668	-0.484220	-0.328877
H55	H	1.889373	-0.516244	-0.249718
H56	H	1.846237	-0.593913	-0.174729
H57	H	1.846540	-0.590519	-0.334060
H58	H	0.715878	0.271387	-0.000138
C59	C	1.832474	-0.107134	0.650063
C60	C	1.909314	-0.062057	0.732697
C61	C	1.994790	-0.118325	0.804824
H62	H	1.883458	-0.140744	0.586759
H63	H	1.787340	-0.142264	0.706265
H64	H	1.954444	-0.026942	0.676500
H65	H	1.858365	-0.028450	0.796027
H66	H	1.949657	-0.153454	0.861026
H67	H	2.045765	-0.151932	0.741510
H68	H	2.046929	-0.087748	0.860909
H69	H	1.507914	-0.451490	-0.228337
H70	H	1.500580	-0.448929	0.228110
H71	H	1.809230	-0.091937	0.369317
C72	C	1.654042	0.010468	0.799978
C73	C	1.560956	0.071923	0.847598
C74	C	1.560685	0.072024	0.991494
H75	H	1.734223	0.022456	0.832699
H76	H	1.636796	-0.043141	0.832565
H77	H	1.578210	0.125520	0.815025
H78	H	1.480762	0.059949	0.814915
H79	H	1.543439	0.018415	1.024082
H80	H	1.640870	0.084010	1.024201
H81	H	1.497520	0.113715	1.023823
H82	H	1.503258	-0.306783	-0.227690
C83	C	1.688169	-0.312423	-0.141382
C84	C	1.714739	-0.261936	-0.029734
C85	C	1.839462	-0.242292	-0.039108
H86	H	1.698949	-0.282974	-0.224614
H87	H	1.743976	-0.362799	-0.140219
H88	H	1.658949	-0.211569	-0.030910
H89	H	1.703988	-0.291369	0.053514
H90	H	1.895269	-0.292668	-0.037945
H91	H	1.850231	-0.212846	-0.122345
H92	H	1.857510	-0.208042	0.036648
C93	C	1.305307	0.240704	0.650160
C94	C	1.228467	0.195620	0.732792
C95	C	1.143001	0.251882	0.804958
H96	H	1.254322	0.274324	0.586879
H97	H	1.350448	0.275824	0.706367
H98	H	1.183329	0.160515	0.676590
H99	H	1.279417	0.162003	0.796099
H100	H	1.188142	0.287003	0.861164
H101	H	1.092025	0.285500	0.741666
H102	H	1.090862	0.221302	0.861041
C103	C	1.305314	0.240946	0.350127
C104	C	1.230548	0.290358	0.443931
C105	C	1.145085	0.346879	0.372268
H106	H	1.252926	0.210599	0.293994
H107	H	1.350454	0.276129	0.294030
H108	H	1.185411	0.255180	0.500005
H109	H	1.282901	0.320723	0.500068
H110	H	1.190225	0.382061	0.316171
H111	H	1.092705	0.316525	0.316137
H112	H	1.094353	0.380417	0.435902
C113	C	1.151483	-0.033226	-0.000268
C114	C	1.227615	-0.036335	-0.117829
C115	C	1.308270	-0.111298	-0.118042
H116	H	1.102802	-0.079697	-0.000353
H117	H	1.203255	-0.035489	0.079416
H118	H	1.175849	-0.034081	-0.197492
H119	H	1.276323	0.010118	-0.117769
H120	H	1.360042	-0.113560	-0.038358
H121	H	1.259579	-0.157762	-0.118123
H122	H	1.359943	-0.113413	-0.197799
H123	H	1.289082	-0.432806	-0.094203
H124	H	0.807551	0.411720	-0.000142
H125	H	1.293204	-0.289138	-0.093652
H126	H	1.289324	-0.433864	0.092484
H127	H	1.654308	0.010404	0.238837
C128	C	1.275001	-0.280666	0.125019
C129	C	1.229431	-0.345649	0.200437
C130	C	1.163632	-0.311983	0.315713
H131	H	1.206197	-0.242107	0.096102
H132	H	1.330096	-0.252317	0.180991
H133	H	1.174338	-0.373985	0.144476
H134	H	1.298208	-0.384213	0.229389
H135	H	1.218728	-0.283634	0.371685
H136	H	1.094834	-0.273425	0.286783
H137	H	1.132715	-0.356069	0.366905
C138	C	1.684472	-0.472410	0.138509
C139	C	1.768482	-0.410767	0.143206
C140	C	1.892392	-0.449483	0.150582
H141	H	1.701969	-0.506822	0.059831
H142	H	1.694047	-0.506068	0.219030
H143	H	1.758913	-0.377123	0.062694
H144	H	1.751026	-0.376351	0.221881
H145	H	1.901967	-0.483141	0.231102
H146	H	1.909876	-0.483895	0.071901
H147	H	1.949408	-0.407665	0.153782
C148	C	1.490691	-0.296383	0.260070
C149	C	1.444548	-0.360365	0.337380
C150	C	1.386764	-0.326036	0.456824
H151	H	1.422835	-0.255763	0.235789
H152	H	1.550665	-0.270323	0.312948
H153	H	1.384579	-0.386411	0.284512
H154	H	1.512379	-0.400989	0.361696
H155	H	1.446738	-0.299977	0.509702
H156	H	1.318913	-0.285417	0.432530
H157	H	1.355459	-0.369444	0.509300
H158	H	0.891824	-0.017129	-0.000128
H159	H	1.191179	0.279800	-0.000080
H160	H	1.655720	-0.318967	0.135266
