data_functionalizedCrystal
_audit_creation_method	'MofGen! by Chris Wilmer'
_symmetry_space_group_name_H-M	'P1'
_symmetry_Int_Tables_number	1
_symmetry_cell_setting	triclinic
loop_
_symmetry_equiv_pos_as_xyz
  x,y,z
_cell_length_a	18.050590
_cell_length_b	14.909042
_cell_length_c	14.908308
_cell_angle_alpha	89.837538
_cell_angle_beta	86.705717
_cell_angle_gamma	86.709204
loop_
_atom_site_label
_atom_site_type_symbol
_atom_site_fract_x
_atom_site_fract_y
_atom_site_fract_z
Zn1	Zn	1.130630	-0.387521	0.487383
Zn2	Zn	1.144842	-0.529221	0.328356
Zn3	Zn	1.013170	-0.378857	0.337080
Zn4	Zn	1.013972	-0.537809	0.478713
O5	O	1.075653	-0.458352	0.407883
O6	O	1.236442	-0.406350	0.466265
O7	O	1.132988	-0.502055	0.203687
O8	O	1.022468	-0.254182	0.364297
O9	O	1.246884	-0.510457	0.349429
O10	O	1.108765	-0.260548	0.474724
O11	O	1.036249	-0.391583	0.210096
O12	O	0.909349	-0.399910	0.355890
O13	O	1.023834	-0.525093	0.605690
O14	O	0.909938	-0.516691	0.459948
O15	O	1.109542	-0.414677	0.612060
O16	O	1.133766	-0.656184	0.341023
O17	O	1.037616	-0.662493	0.451489
C18	C	1.087339	-0.691965	0.394388
C19	C	1.092405	-0.791907	0.388645
C20	C	0.882697	-0.458293	0.407925
C21	C	0.800149	-0.458290	0.407963
C22	C	1.001716	-0.986337	0.492782
C23	C	1.006473	-1.080242	0.487389
C24	C	1.106673	-1.073623	0.372462
C25	C	1.101915	-0.979718	0.377855
C26	C	1.049436	-0.936079	0.438018
C27	C	1.044683	-0.842172	0.443415
C28	C	1.144878	-0.835554	0.328484
C29	C	1.149635	-0.929459	0.323091
C30	C	0.601055	-0.521960	0.464397
C31	C	0.546540	-0.441248	0.491248
C32	C	0.649023	-0.458338	0.407917
C33	C	0.556458	-0.539097	0.381062
C34	C	0.503042	-0.458391	0.407873
C35	C	0.595592	-0.377585	0.434813
C36	C	0.605518	-0.475487	0.324585
C37	C	0.551024	-0.394717	0.351409
C38	C	0.733119	-0.458309	0.407944
C39	C	0.418948	-0.458412	0.407846
C40	C	1.269364	-0.458412	0.407841
C41	C	1.351912	-0.458438	0.407823
C42	C	1.065192	-0.471810	0.642413
C43	C	1.060734	-0.477544	0.742355
C44	C	1.063942	-0.223828	0.421450
C45	C	1.058951	-0.123888	0.427232
C46	C	1.086114	-0.444882	0.174269
C47	C	1.090703	-0.438894	0.074342
C48	C	1.141602	-0.373324	0.936794
C49	C	1.137416	-0.378709	1.030699
C50	C	1.048171	-0.493695	1.024073
C51	C	1.052358	-0.488310	0.930168
C52	C	1.099076	-0.428123	0.886531
C53	C	1.103266	-0.422743	0.792624
C54	C	1.014018	-0.537724	0.786000
C55	C	1.009831	-0.543109	0.879906
H56	H	1.001953	-0.806642	0.492405
H57	H	1.183737	-0.794623	0.283894
H58	H	1.141307	-0.373737	0.757097
C59	C	0.533004	-0.631323	0.350395
H60	H	0.506220	-0.624139	0.297578
H61	H	0.576001	-0.670067	0.338110
H62	H	0.502308	-0.656654	0.396583
C63	C	0.630719	-0.594527	0.528996
H64	H	0.663242	-0.636684	0.496388
H65	H	0.656949	-0.567137	0.574050
H66	H	0.590263	-0.624537	0.556395
H67	H	1.149392	-1.109170	0.323472
C68	C	0.953986	-1.135528	0.547631
H69	H	0.964330	-1.197705	0.535800
H70	H	0.961333	-1.123571	0.608940
H71	H	0.903906	-1.119425	0.535304
H72	H	1.179645	-0.324322	0.901264
C73	C	1.207362	-0.977467	0.256922
H74	H	1.203365	-1.040592	0.261557
H75	H	1.198461	-0.958644	0.197378
H76	H	1.255880	-0.962792	0.271024
C77	C	0.944000	-0.938332	0.558965
H78	H	0.916260	-0.981714	0.590810
H79	H	0.968781	-0.903912	0.600268
H80	H	0.911342	-0.899763	0.526644
H81	H	0.529203	-0.340878	0.303629
C82	C	0.511739	-0.421685	0.586416
H83	H	0.528874	-0.466927	0.626490
H84	H	0.525729	-0.364772	0.605878
H85	H	0.459136	-0.421312	0.585591
C86	C	0.640332	-0.495087	0.229437
H87	H	0.667889	-0.445739	0.209289
H88	H	0.672489	-0.547745	0.230619
H89	H	0.602088	-0.503862	0.189694
C90	C	0.618909	-0.285336	0.465592
H91	H	0.671571	-0.285890	0.465452
H92	H	0.601363	-0.240141	0.425729
H93	H	0.598185	-0.273075	0.524602
H94	H	1.172043	-0.334084	1.071619
C95	C	0.996780	-0.559884	1.072084
H96	H	1.000380	-0.555240	1.135209
H97	H	0.946911	-0.545827	1.057464
H98	H	1.011355	-0.619424	1.053208
H99	H	0.971794	-0.592109	0.915447
H100	H	0.979392	-0.582348	0.745067
