data_functionalizedCrystal
_audit_creation_method	'MofGen! by Chris Wilmer'
_symmetry_space_group_name_H-M	'P1'
_symmetry_Int_Tables_number	1
_symmetry_cell_setting	triclinic
loop_
_symmetry_equiv_pos_as_xyz
  x,y,z
_cell_length_a	14.044220
_cell_length_b	19.188930
_cell_length_c	12.503572
_cell_angle_alpha	93.506241
_cell_angle_beta	86.164750
_cell_angle_gamma	88.166830
loop_
_atom_site_label
_atom_site_type_symbol
_atom_site_fract_x
_atom_site_fract_y
_atom_site_fract_z
O1	O	1.262485	0.164589	-0.089229
O2	O	0.986542	0.158515	-0.089255
O3	O	1.132475	0.060411	-0.089220
O4	O	1.116552	0.262693	-0.089264
O5	O	1.121500	0.067803	0.089419
O6	O	0.975567	0.165907	0.089384
O7	O	1.251510	0.171980	0.089411
Cu8	Cu	1.112536	0.169618	0.105709
Cu9	Cu	1.125516	0.160877	-0.105553
O10	O	1.105577	0.270084	0.089376
C11	C	0.945752	0.159553	0.000061
C12	C	0.840559	0.151624	0.000052
C13	C	0.647956	0.137129	0.000077
C14	C	0.590090	0.193363	0.000069
C15	C	0.482920	0.185298	0.000083
C16	C	0.755137	0.145193	0.000063
C17	C	1.126472	0.038063	0.000102
C18	C	1.124923	-0.039541	0.000112
C19	C	1.210552	-0.078939	0.000125
C20	C	1.209099	-0.151857	0.000108
C21	C	1.122010	-0.185374	0.000098
C22	C	1.036370	-0.145968	0.000079
C23	C	1.037826	-0.073051	0.000086
N24	N	1.051706	-0.295160	0.060886
N25	N	1.050328	-0.364427	0.060882
C26	C	1.117616	-0.405067	0.000076
N27	N	1.186348	-0.373823	-0.060712
N28	N	1.187729	-0.304548	-0.060704
C29	C	1.120421	-0.264440	0.000091
C30	C	1.201676	-0.523532	0.000069
C31	C	1.200219	-0.596451	0.000045
C32	C	1.027487	-0.590560	0.000028
C33	C	1.028947	-0.517642	0.000041
C34	C	1.116043	-0.484132	0.000067
C35	C	1.292301	0.170943	0.000092
C36	C	1.397493	0.178872	0.000094
C37	C	1.111580	0.292433	0.000051
C38	C	1.113129	0.370037	0.000034
N39	N	1.103414	0.175766	0.254299
N40	N	1.134645	0.154724	-0.254143
C41	C	1.089995	0.184816	0.473411
C42	C	1.148061	0.145676	0.526752
C43	C	1.140595	0.150712	0.648673
C44	C	1.097461	0.179782	0.351478
H45	H	1.281473	-0.051660	0.000142
O46	O	0.626842	0.258079	0.000087
C47	C	0.551933	0.308779	0.000048
H48	H	0.482740	0.286515	0.033889
H49	H	0.569331	0.357038	0.051888
H50	H	0.543156	0.323783	-0.085661
O51	O	0.610891	0.072520	0.000041
C52	C	0.510585	0.078751	0.000075
H53	H	0.489344	0.130407	-0.033747
H54	H	0.483483	0.033655	-0.051784
H55	H	0.477819	0.077231	0.085780
O56	O	1.292367	-0.190031	0.000171
C57	C	1.369553	-0.144820	0.000164
H58	H	1.343197	-0.090582	0.033981
H59	H	1.426340	-0.165809	0.052040
H60	H	1.401536	-0.141509	-0.085532
H61	H	1.203381	0.108386	0.480852
H62	H	0.965462	-0.173262	0.000069
O63	O	0.954552	-0.034879	0.000126
C64	C	0.877371	-0.080095	0.000081
H65	H	0.899571	-0.131543	0.033895
H66	H	0.814204	-0.054829	0.051940
H67	H	0.855929	-0.090476	-0.085626
O68	O	1.023879	0.229224	0.528112
C69	C	0.931726	0.211018	0.500722
H70	H	0.933228	0.153847	0.469727
H71	H	0.879689	0.219133	0.574746
H72	H	0.907744	0.245349	0.435549
H73	H	1.269952	-0.628529	0.000050
O74	O	1.286364	-0.491088	0.000028
C75	C	1.361633	-0.541502	0.000047
H76	H	1.337351	-0.594011	-0.033778
H77	H	1.425637	-0.524633	-0.051816
H78	H	1.382776	-0.546628	0.085748
O79	O	0.942955	-0.623193	-0.000128
C80	C	0.942620	-0.668995	-0.092668
H81	H	1.019281	-0.683749	-0.123504
H82	H	0.903764	-0.718166	-0.071874
H83	H	0.904547	-0.642110	-0.157455
O84	O	0.945674	-0.479470	0.000089
C85	C	0.868495	-0.524686	0.000051
H86	H	0.890697	-0.576133	0.033867
H87	H	0.805329	-0.499420	0.051912
H88	H	0.847049	-0.535070	-0.085655
