data_functionalizedCrystal
_audit_creation_method	'MofGen! by Chris Wilmer'
_symmetry_space_group_name_H-M	'P1'
_symmetry_Int_Tables_number	1
_symmetry_cell_setting	triclinic
loop_
_symmetry_equiv_pos_as_xyz
  x,y,z
_cell_length_a	12.594516
_cell_length_b	12.594517
_cell_length_c	12.759393
_cell_angle_alpha	89.976057
_cell_angle_beta	89.971950
_cell_angle_gamma	90.015485
loop_
_atom_site_label
_atom_site_type_symbol
_atom_site_fract_x
_atom_site_fract_y
_atom_site_fract_z
Zn1	Zn	-0.423707	1.627285	-0.594122
Zn2	Zn	-0.601723	1.627171	-0.418450
Zn3	Zn	-0.423757	1.449284	-0.418448
Zn4	Zn	-0.601642	1.449271	-0.594078
O5	O	-0.512707	1.538253	-0.506274
O6	O	-0.447334	1.776216	-0.570838
O7	O	-0.578170	1.603531	-0.271428
O8	O	-0.274804	1.472949	-0.441770
O9	O	-0.578121	1.776132	-0.441772
O10	O	-0.274768	1.603726	-0.570837
O11	O	-0.447419	1.472838	-0.271427
O12	O	-0.447341	1.300336	-0.441727
O13	O	-0.577984	1.472928	-0.741105
O14	O	-0.578032	1.300327	-0.570761
O15	O	-0.447255	1.603714	-0.741137
O16	O	-0.750658	1.603519	-0.441729
O17	O	-0.750598	1.472817	-0.570762
C18	C	-0.512684	1.261712	-0.506239
C19	C	-0.512700	1.143406	-0.506249
C20	C	-0.441539	1.003364	-0.436228
C21	C	-0.415602	1.074225	-0.532098
C22	C	-0.538588	1.074116	-0.410390
C23	C	-0.486755	1.003482	-0.602247
C24	C	-0.609786	1.003367	-0.480474
C25	C	-0.583887	1.074197	-0.576410
C26	C	-0.789248	1.538183	-0.506264
C27	C	-0.907553	1.538250	-0.506295
C28	C	-0.976813	1.467155	-0.576427
C29	C	-1.047681	1.441218	-0.480558
C30	C	-1.047484	1.564284	-0.602180
C31	C	-0.976863	1.512263	-0.410376
C32	C	-0.976660	1.635373	-0.532062
C33	C	-1.047496	1.609474	-0.436127
C34	C	-0.235086	1.538352	-0.506308
C35	C	-0.116781	1.538394	-0.506322
C36	C	-0.512605	1.538332	-0.780308
C37	C	-0.512561	1.538366	-0.897085
C38	C	-0.512731	1.815873	-0.506310
C39	C	-0.512741	1.934179	-0.506326
C40	C	-0.444480	1.606472	-0.951965
C41	C	-0.444434	1.606490	-1.061689
C42	C	-0.580560	1.470294	-1.061643
C43	C	-0.580599	1.470271	-0.951921
C44	C	-0.318856	1.644597	-1.211664
C45	C	-0.250785	1.712719	-1.266549
C46	C	-0.234467	1.816574	-1.230962
C47	C	-0.286237	1.852329	-1.140493
C48	C	-0.354316	1.784212	-1.085614
C49	C	-0.370614	1.680342	-1.121199
C50	C	-0.706179	1.432175	-0.801944
C51	C	-0.774265	1.364063	-0.747063
C52	C	-0.790593	1.260206	-0.782648
C53	C	-0.738842	1.224456	-0.873120
C54	C	-0.670757	1.292567	-0.928001
C55	C	-0.654426	1.396423	-0.892409
C56	C	-0.512732	1.538235	-0.233307
C57	C	-0.512476	1.538407	-0.116531
H58	H	-0.333512	1.105331	-0.553950
F59	F	-1.088036	1.592988	-0.708152
F60	F	-0.615677	1.254515	-1.024291
F61	F	-0.458031	0.963100	-0.708282
H62	H	-0.644083	1.105100	-0.635725
F63	F	-0.717048	0.962650	-0.451890
H64	H	-0.389076	1.661916	-0.907321
F65	F	-0.829352	1.402119	-0.650779
F66	F	-0.268879	1.962873	-1.102634
F67	F	-0.195690	1.674664	-1.362830
H68	H	-0.560467	1.105147	-0.329290
H69	H	-0.945776	1.406924	-0.635649
F70	F	-0.362802	0.962711	-0.358885
H71	H	-0.396470	1.813325	-1.011959
F72	F	-0.652971	1.397831	-1.120012
H73	H	-0.179041	1.872040	-1.275656
F74	F	-0.688777	1.542703	-0.764045
F75	F	-1.088454	1.333944	-0.452076
F76	F	-0.936488	1.483437	-0.304370
H77	H	-0.332128	1.560027	-1.240642
F78	F	-1.087808	1.688142	-0.358536
F79	F	-0.935855	1.742619	-0.560579
F80	F	-0.756222	1.113920	-0.910998
F81	F	-0.863076	1.187725	-0.724246
