data_functionalizedCrystal
_audit_creation_method	'MofGen! by Chris Wilmer'
_symmetry_space_group_name_H-M	'P1'
_symmetry_Int_Tables_number	1
_symmetry_cell_setting	triclinic
loop_
_symmetry_equiv_pos_as_xyz
  x,y,z
_cell_length_a	21.295418
_cell_length_b	17.640280
_cell_length_c	17.640968
_cell_angle_alpha	65.682561
_cell_angle_beta	101.240429
_cell_angle_gamma	101.187999
loop_
_atom_site_label
_atom_site_type_symbol
_atom_site_fract_x
_atom_site_fract_y
_atom_site_fract_z
Zn1	Zn	1.064429	0.233368	0.400276
Zn2	Zn	1.064378	0.399037	0.234637
Zn3	Zn	0.941462	0.261311	0.262411
Zn4	Zn	0.976850	0.371174	0.372369
O5	O	1.011780	0.316223	0.317423
O6	O	1.152516	0.255311	0.378360
O7	O	1.033242	0.404122	0.122983
O8	O	0.942986	0.142294	0.304001
O9	O	1.152478	0.377027	0.256666
O10	O	1.033329	0.121764	0.405290
O11	O	0.942936	0.302936	0.143388
O12	O	0.858063	0.275918	0.276941
O13	O	1.003299	0.329538	0.491410
O14	O	0.884063	0.356634	0.357727
O15	O	1.067643	0.228293	0.511913
O16	O	1.067555	0.510652	0.229606
O17	O	1.003249	0.490181	0.330796
C18	C	0.848222	0.316285	0.317320
C19	C	0.778256	0.316328	0.317291
C20	C	1.039256	0.530311	0.274177
C21	C	1.051071	0.621894	0.255704
C22	C	1.039424	0.272691	0.532403
C23	C	1.051204	0.254140	0.624015
C24	C	0.758942	0.358442	0.359263
C25	C	0.693202	0.358414	0.359305
C26	C	0.646777	0.316284	0.317357
C27	C	0.666096	0.274160	0.275383
C28	C	0.731836	0.274182	0.275350
N29	N	0.533417	0.324426	0.246570
N30	N	0.470968	0.324410	0.246603
C31	C	0.448707	0.316214	0.317455
N32	N	0.491255	0.308050	0.388271
N33	N	0.553710	0.308071	0.388236
C34	C	0.575492	0.316255	0.317388
C35	C	0.358111	0.358300	0.359476
C36	C	0.292369	0.358266	0.359519
C37	C	0.265264	0.274017	0.275589
C38	C	0.331005	0.274045	0.275554
C39	C	0.377425	0.316191	0.317495
C40	C	1.175977	0.316160	0.317528
C41	C	1.245948	0.316134	0.317572
C42	C	0.984216	0.101294	0.360857
C43	C	0.972470	0.009705	0.379365
C44	C	0.922316	0.870005	0.458064
C45	C	0.933416	0.956066	0.440679
C46	C	1.000442	0.977296	0.335415
C47	C	0.989350	0.891234	0.352794
C48	C	0.950285	0.837596	0.414119
C49	C	1.017320	0.858825	0.308849
C50	C	1.006226	0.772771	0.326224
C51	C	0.967161	0.719128	0.387543
C52	C	0.939191	0.751542	0.431493
C53	C	1.056380	0.912466	0.247521
C54	C	1.084350	0.880056	0.203576
C55	C	1.073260	0.794000	0.220954
C56	C	1.034196	0.740357	0.282274
C57	C	1.101230	0.761586	0.177004
C58	C	1.090136	0.675532	0.194379
C59	C	1.023102	0.654303	0.299649
C60	C	0.984272	0.359525	0.103292
C61	C	0.972584	0.377844	0.011727
C62	C	0.922470	0.456701	0.871938
C63	C	0.933551	0.439260	0.958024
C64	C	1.000547	0.333842	0.979361
C65	C	0.989469	0.351272	0.893277
C66	C	0.950430	0.412703	0.839571
C67	C	1.017430	0.307274	0.860910
C68	C	1.006355	0.324706	0.774832
C69	C	0.967320	0.386136	0.721121
C70	C	0.939356	0.430135	0.753494
C71	C	1.056472	0.245847	0.914616
C72	C	1.084432	0.201849	0.882249
C73	C	1.073354	0.219277	0.796170
C74	C	1.034319	0.280706	0.742460
C75	C	1.101318	0.175277	0.763798
C76	C	1.090243	0.192709	0.677720
C77	C	1.023244	0.298138	0.656382
H78	H	0.677473	0.392708	0.393487
H79	H	0.276647	0.392558	0.393704
H80	H	1.116220	0.151834	0.925986
O81	O	0.956675	0.403075	0.637504
C82	C	1.003838	0.449291	0.509717
C83	C	1.015987	0.430119	0.604409
H84	H	1.051781	0.471176	0.482928
H85	H	0.979618	0.390224	0.499188
H86	H	0.971108	0.500726	0.476919
H87	H	1.048731	0.378710	0.637269
H88	H	1.040175	0.489226	0.614876
O89	O	1.122293	0.932277	0.144050
C90	C	1.169038	1.074267	0.070567
C91	C	1.126072	1.015220	0.138020
H92	H	1.172097	1.141342	0.065657
H93	H	1.219495	1.054401	0.088532
H94	H	1.147293	1.070774	0.007525
H95	H	1.147760	1.018685	0.201086
H96	H	1.075620	1.035105	0.119983
H97	H	0.395908	0.392612	0.393632
O98	O	0.220242	0.233156	0.234709
C99	C	0.176877	0.221355	0.102687
C100	C	0.227907	0.267691	0.148887
H101	H	0.183049	0.249270	0.033290
H102	H	0.183195	0.151988	0.130612
H103	H	0.126575	0.228541	0.109955
H104	H	0.278232	0.260572	0.141637
H105	H	0.221534	0.337039	0.120953
O106	O	1.139084	0.813679	0.117321
C107	C	1.155112	0.868320	-0.028134
C108	C	1.112178	0.809311	0.039373
H109	H	1.133382	0.864795	-0.091166
H110	H	1.158225	0.935419	-0.033085
H111	H	1.205548	0.848386	-0.010106
H112	H	1.061721	0.829168	0.021396
H113	H	1.109119	0.742225	0.044312
O114	O	0.956272	0.635549	0.404352
C115	C	0.877285	0.516443	0.408051
C116	C	0.889527	0.611104	0.388965
H117	H	0.823322	0.496646	0.395635
H118	H	0.903938	0.502445	0.366093
H119	H	0.895535	0.480145	0.476621
H120	H	0.871274	0.647465	0.320416
H121	H	0.862885	0.625037	0.430978
H122	H	1.112911	0.649145	0.158593
H123	H	1.133108	0.125266	0.807536
H124	H	0.910780	0.475093	0.984372
O125	O	1.117323	0.149847	0.646331
C126	C	1.126542	0.015005	0.648350
C127	C	1.095815	0.063440	0.683957
H128	H	1.109176	-0.054866	0.678768
H129	H	1.111908	0.037952	0.577608
H130	H	1.181336	0.026072	0.662356
H131	H	1.041018	0.052394	0.670013
H132	H	1.110501	0.040483	0.754690
O133	O	0.804007	0.399262	0.400148
C134	C	0.847336	0.411143	0.532142
C135	C	0.796277	0.364834	0.485945
H136	H	0.841096	0.383338	0.601514
H137	H	0.897659	0.403911	0.524986
H138	H	0.841026	0.480516	0.504106
H139	H	0.802527	0.295447	0.513950
H140	H	0.745973	0.372136	0.493098
H141	H	0.991437	0.348142	0.612655
O142	O	0.750632	0.233164	0.234706
C143	C	0.809245	0.124172	0.246223
C144	C	0.787990	0.170538	0.292362
H145	H	0.839464	0.073541	0.292815
H146	H	0.764796	0.093988	0.216276
H147	H	0.839248	0.170710	0.195399
H148	H	0.758000	0.124054	0.343223
H149	H	0.832465	0.200736	0.322251
H150	H	0.628293	0.239855	0.241230
O151	O	0.349848	0.233267	0.234708
C152	C	0.408220	0.244576	0.125647
C153	C	0.386940	0.290863	0.171847
H154	H	0.438201	0.291126	0.074802
H155	H	0.438428	0.193904	0.172184
H156	H	0.363738	0.214434	0.095713
H157	H	0.431384	0.321056	0.201782
H158	H	0.356709	0.341490	0.125273
O159	O	0.906167	0.987607	0.483249
C160	C	0.835146	1.082693	0.474552
C161	C	0.865950	1.047031	0.426244
H162	H	0.802634	1.130757	0.428483
H163	H	0.805278	1.029610	0.521341
H164	H	0.874764	1.114157	0.509599
H165	H	0.826374	1.015576	0.391148
H166	H	0.895833	1.100147	0.379504
H167	H	0.991297	0.610627	0.349591
O168	O	0.901214	0.699550	0.491076
C169	C	0.835951	0.687551	0.593721
C170	C	0.878926	0.746529	0.526251
H171	H	0.817929	0.725507	0.622192
H172	H	0.792962	0.654996	0.563997
H173	H	0.865187	0.638471	0.644969
H174	H	0.849745	0.795656	0.474983
H175	H	0.921916	0.779022	0.556037
O176	O	0.884339	0.818013	0.517647
C177	C	0.819075	0.806014	0.620292
C178	C	0.862050	0.864992	0.552822
H179	H	0.801054	0.843970	0.648762
H180	H	0.776086	0.773459	0.590567
H181	H	0.848311	0.756934	0.671539
H182	H	0.832869	0.914119	0.501554
H183	H	0.905041	0.897485	0.582608
O184	O	0.901424	0.489755	0.701206
C185	C	0.854702	0.563360	0.559131
C186	C	0.897658	0.495811	0.618254
H187	H	0.851655	0.568291	0.492050
H188	H	0.804241	0.545490	0.578889
H189	H	0.876450	0.626356	0.562684
H190	H	0.875967	0.432791	0.614731
H191	H	0.948115	0.513753	0.598478
O192	O	1.038384	1.029517	0.275889
C193	C	1.085130	1.171507	0.202406
C194	C	1.042164	1.112460	0.269860
H195	H	1.088189	1.238582	0.197497
H196	H	1.135587	1.151641	0.220372
H197	H	1.063385	1.168014	0.139364
H198	H	1.063852	1.115924	0.332926
H199	H	0.991712	1.132345	0.251822
H200	H	0.890663	0.506705	0.828212
H201	H	1.065414	0.982535	0.233379
H202	H	1.032335	0.283827	1.023099
H203	H	1.065489	0.231658	0.984705
