data_functionalizedCrystal
_audit_creation_method	'MofGen! by Chris Wilmer'
_symmetry_space_group_name_H-M	'P1'
_symmetry_Int_Tables_number	1
_symmetry_cell_setting	triclinic
loop_
_symmetry_equiv_pos_as_xyz
  x,y,z
_cell_length_a	12.759401
_cell_length_b	19.077068
_cell_length_c	12.759393
_cell_angle_alpha	92.262964
_cell_angle_beta	89.979541
_cell_angle_gamma	92.328499
loop_
_atom_site_label
_atom_site_type_symbol
_atom_site_fract_x
_atom_site_fract_y
_atom_site_fract_z
Zn1	Zn	1.589368	-0.280142	-0.610771
Zn2	Zn	1.582163	-0.397855	-0.442129
Zn3	Zn	1.413666	-0.280179	-0.435108
Zn4	Zn	1.406564	-0.397807	-0.617764
O5	O	1.497940	-0.338996	-0.526443
O6	O	1.735433	-0.295762	-0.588412
O7	O	1.559768	-0.382280	-0.294179
O8	O	1.442962	-0.181683	-0.452545
O9	O	1.730139	-0.382245	-0.464512
O10	O	1.572049	-0.181656	-0.581604
O11	O	1.435975	-0.295824	-0.289020
O12	O	1.265703	-0.295777	-0.459326
O13	O	1.430856	-0.382163	-0.763855
O14	O	1.260485	-0.382198	-0.593522
O15	O	1.565162	-0.295716	-0.758717
O16	O	1.552881	-0.496339	-0.471293
O17	O	1.423869	-0.496304	-0.600330
C18	C	1.224973	-0.338987	-0.526422
C19	C	1.108196	-0.339000	-0.526438
C20	C	1.050640	-0.384068	-0.596213
C21	C	0.940916	-0.384071	-0.596234
C22	C	0.946313	-0.293936	-0.456697
C23	C	1.056036	-0.293930	-0.456682
C24	C	1.486851	-0.521859	-0.537355
C25	C	1.482203	-0.600089	-0.542058
C26	C	1.547241	-0.636837	-0.477141
C27	C	1.542876	-0.710342	-0.481571
C28	C	1.473466	-0.747098	-0.550914
C29	C	1.408425	-0.710345	-0.615838
C30	C	1.412797	-0.636842	-0.611413
C31	C	1.453189	-0.966932	-0.571352
C32	C	1.448820	-1.040441	-0.575770
C33	C	1.583272	-1.040432	-0.441504
C34	C	1.587633	-0.966927	-0.437080
C35	C	1.522596	-0.930180	-0.502008
N36	N	1.469000	-0.822232	-0.555441
N37	N	1.527068	-0.855048	-0.497486
C38	C	1.771973	-0.339005	-0.526465
C39	C	1.888749	-0.339009	-0.526474
C40	C	1.498021	-0.338930	-0.800473
C41	C	1.498055	-0.338902	-0.917248
C42	C	1.509102	-0.155418	-0.515511
C43	C	1.513858	-0.077188	-0.510853
C44	C	1.562545	-0.383868	-1.084528
C45	C	1.562517	-0.383901	-0.974806
C46	C	1.433608	-0.293872	-0.969417
C47	C	1.433630	-0.293843	-1.079138
C48	C	1.497924	-0.339010	-0.253476
C49	C	1.498105	-0.338840	-0.136690
H50	H	0.894059	-0.420769	-0.653052
O51	O	1.111901	-0.250224	-0.388751
C52	C	1.147429	-0.215882	-0.208075
C53	C	1.084113	-0.265433	-0.284880
H54	H	1.124970	-0.228151	-0.124080
H55	H	1.234822	-0.223622	-0.219960
H56	H	1.129317	-0.159151	-0.223337
H57	H	1.102136	-0.322183	-0.269665
H58	H	0.996738	-0.257632	-0.272978
O59	O	0.895476	-0.250224	-0.388975
C60	C	0.728837	-0.210251	-0.327205
C61	C	0.786273	-0.259803	-0.403940
H62	H	0.640538	-0.217968	-0.339292
H63	H	0.749544	-0.222538	-0.243164
H64	H	0.753923	-0.153522	-0.342402
H65	H	0.761219	-0.316549	-0.388839
H66	H	0.765564	-0.247456	-0.487956
H67	H	1.603757	-0.606914	-0.420670
H68	H	1.595836	-0.740258	-0.428707
O69	O	1.655160	-0.931332	-0.369702
C70	C	1.788027	-0.939083	-0.236965
C71	C	1.711619	-0.979481	-0.313240
H72	H	1.833679	-0.977994	-0.191279
H73	H	1.845052	-0.904636	-0.283133
H74	H	1.741854	-0.904705	-0.179961
H75	H	1.757705	-1.013897	-0.370261
H76	H	1.654593	-1.013884	-0.267004
O77	O	1.625019	-0.427617	-0.923972
C78	C	1.682161	-0.467537	-0.757331
C79	C	1.611308	-0.418001	-0.814767
H80	H	1.671117	-0.459769	-0.669029
H81	H	1.660266	-0.524298	-0.782211
H82	H	1.767621	-0.455180	-0.778243
H83	H	1.525827	-0.430295	-0.793884
H84	H	1.633293	-0.361255	-0.789882
H85	H	1.636223	-1.070359	-0.388644
O86	O	1.349516	-0.601252	-0.674517
C87	C	1.215755	-0.609013	-0.808216
C88	C	1.287337	-0.649405	-0.736782
H89	H	1.165481	-0.647927	-0.858591
H90	H	1.162814	-0.574672	-0.757924
H91	H	1.266039	-0.574529	-0.861069
H92	H	1.237136	-0.683927	-0.683916
H93	H	1.340284	-0.683701	-0.787136
H94	H	1.392311	-1.070366	-0.632256
H95	H	1.615043	-0.420508	-1.131384
H96	H	1.351915	-0.740278	-0.672304
H97	H	1.381116	-0.257237	-0.922545
H98	H	1.381151	-0.257175	-1.121609
O99	O	1.101268	-0.427767	-0.664125
C100	C	1.132795	-0.462098	-0.844797
C101	C	1.075420	-0.412556	-0.767999
H102	H	1.111900	-0.449827	-0.928795
H103	H	1.221116	-0.454352	-0.832894
H104	H	1.107785	-0.518832	-0.829545
H105	H	1.100343	-0.355803	-0.783204
H106	H	0.987109	-0.420362	-0.779919
H107	H	1.400231	-0.937019	-0.624218
