data_functionalizedCrystal
_audit_creation_method	'MofGen! by Chris Wilmer'
_symmetry_space_group_name_H-M	'P1'
_symmetry_Int_Tables_number	1
_symmetry_cell_setting	triclinic
loop_
_symmetry_equiv_pos_as_xyz
  x,y,z
_cell_length_a	17.699091
_cell_length_b	10.654550
_cell_length_c	9.130313
_cell_angle_alpha	90.002180
_cell_angle_beta	89.997242
_cell_angle_gamma	96.114497
loop_
_atom_site_label
_atom_site_type_symbol
_atom_site_fract_x
_atom_site_fract_y
_atom_site_fract_z
O1	O	-0.106302	1.665982	0.121776
O2	O	-0.116429	1.300327	0.121783
O3	O	-0.001242	1.493480	0.121774
O4	O	-0.221489	1.472829	0.121785
O5	O	-0.001240	1.493470	-0.121825
O6	O	-0.116427	1.300316	-0.121816
O7	O	-0.106299	1.665972	-0.121823
Cu8	Cu	-0.111363	1.483143	-0.144062
Cu9	Cu	-0.111366	1.483156	0.144022
O10	O	-0.221487	1.472818	-0.121814
C11	C	0.026960	1.492733	-0.000024
C12	C	0.110992	1.490509	-0.000019
C13	C	-0.107044	1.712762	-0.000021
C14	C	-0.109269	1.852166	-0.000014
C15	C	-0.115685	1.253537	-0.000016
C16	C	-0.113460	1.114132	-0.000013
C17	C	0.150465	1.489472	0.132768
C18	C	0.229421	1.487374	0.132768
C19	C	0.268904	1.486321	-0.000020
C20	C	0.229425	1.487354	-0.132817
C21	C	0.150470	1.489443	-0.132816
C22	C	0.547844	1.478925	-0.132825
C23	C	0.626806	1.476840	-0.132816
C24	C	0.626796	1.476856	0.132759
C25	C	0.547840	1.478946	0.132760
C26	C	0.508368	1.479972	-0.000036
C27	C	0.422754	1.482245	-0.000035
C28	C	0.354517	1.484057	-0.000023
C29	C	0.750311	1.473566	-0.000018
C30	C	0.666279	1.475794	-0.000028
N31	N	-0.111361	1.483143	-0.346685
C32	C	-0.041449	1.932836	-0.000012
C33	C	-0.043544	2.063820	-0.000017
C34	C	-0.181285	2.033452	-0.000020
C35	C	-0.179190	1.902470	-0.000025
C36	C	-0.060375	1.568706	-0.576687
C37	C	-0.060376	1.568698	-0.423351
C38	C	-0.162353	1.397599	-0.423364
C39	C	-0.162355	1.397613	-0.576698
N40	N	-0.111362	1.483165	0.346644
H41	H	0.118325	1.490336	0.240899
H42	H	-0.238212	2.074426	-0.000025
H43	H	0.015485	1.891883	-0.000006
H44	H	-0.234420	1.836785	-0.000032
H45	H	0.261557	1.486535	0.240896
H46	H	0.515698	1.479809	0.240890
H47	H	-0.018859	1.638354	-0.360931
H48	H	0.658943	1.476014	0.240888
H49	H	-0.203878	1.327955	-0.639125
C50	C	-0.218437	1.303487	-0.339026
N51	N	-0.260678	1.232595	-0.275504
C52	C	0.670234	1.475669	-0.278900
N53	N	0.702944	1.474785	-0.388925
C54	C	0.504435	1.480060	-0.278904
N55	N	0.471737	1.480915	-0.388939
H56	H	-0.018855	1.638369	-0.639099
C57	C	0.272859	1.486186	-0.278885
N58	N	0.305572	1.485310	-0.388907
H59	H	0.118331	1.490269	-0.240944
C60	C	0.031064	2.152552	-0.000011
N61	N	0.087262	2.219385	-0.000007
