data_functionalizedCrystal
_audit_creation_method	'MofGen! by Chris Wilmer'
_symmetry_space_group_name_H-M	'P1'
_symmetry_Int_Tables_number	1
_symmetry_cell_setting	triclinic
loop_
_symmetry_equiv_pos_as_xyz
  x,y,z
_cell_length_a	17.917603
_cell_length_b	23.196402
_cell_length_c	23.196402
_cell_angle_alpha	60.002465
_cell_angle_beta	90.001595
_cell_angle_gamma	57.012000
loop_
_atom_site_label
_atom_site_type_symbol
_atom_site_fract_x
_atom_site_fract_y
_atom_site_fract_z
Zr1	Zr	0.754926	0.577924	-0.049089
O2	O	0.629803	0.706986	-0.145533
O3	O	0.793280	0.454962	-0.019528
O4	O	0.793280	0.575227	-0.139792
O5	O	0.629806	0.586720	0.069602
O6	O	0.922237	0.566161	-0.135259
O7	O	0.629803	0.586720	-0.025269
O8	O	0.922237	0.351028	0.079872
O9	O	0.629807	0.801853	-0.145529
O10	O	0.905880	0.496512	-0.003532
O11	O	0.809644	0.503278	0.063886
O12	O	0.809644	0.644875	-0.077710
O13	O	0.713407	0.651641	-0.010292
Zr14	Zr	0.960603	0.563464	0.109449
Zr15	Zr	0.960598	0.563464	-0.041859
Zr16	Zr	0.754931	0.577923	0.102219
Zr17	Zr	0.754932	0.729226	-0.049082
Zr18	Zr	0.960597	0.412162	0.109442
O19	O	0.922249	0.686425	0.079887
O20	O	0.922242	0.686426	-0.135253
O21	O	0.629811	0.706985	0.069607
O22	O	1.085726	0.434402	0.205893
O23	O	1.085718	0.434402	-0.009248
O24	O	0.793287	0.454961	0.195613
O25	O	1.085723	0.554667	-0.009242
O26	O	0.922249	0.566160	0.200151
O27	O	0.793292	0.575226	0.195618
O28	O	1.085726	0.554667	0.085629
O29	O	0.793288	0.790359	-0.139782
O30	O	0.922241	0.351028	0.200142
O31	O	1.085722	0.339535	0.205889
O32	O	1.085718	0.339535	0.085619
O33	O	0.629811	0.801852	-0.025259
O34	O	0.793292	0.790359	-0.019513
O35	O	0.905885	0.496512	0.138070
O36	O	1.002122	0.489746	0.070652
O37	O	0.905886	0.638109	-0.003526
O38	O	0.809649	0.644875	0.063892
C39	C	0.857757	0.381438	0.030171
C40	C	0.857755	0.317206	0.030169
C41	C	0.600501	0.588780	0.021136
C42	C	0.513188	0.594919	0.018067
C43	C	0.907983	0.283505	-0.005026
C44	C	0.907992	0.223143	-0.005020
C45	C	0.857755	0.196498	0.030170
C46	C	0.807525	0.230204	0.065373
C47	C	0.807525	0.290558	0.065372
C48	C	0.773608	0.140385	0.021938
C49	C	0.773606	0.080035	0.021934
C50	C	0.857756	0.010343	0.030178
C51	C	0.941909	0.001015	0.038411
C52	C	0.941909	0.061369	0.038410
C53	C	0.857750	0.131054	0.030176
C54	C	0.907999	-0.088811	-0.005012
C55	C	0.908011	-0.149177	-0.005001
C56	C	0.807534	-0.142109	0.065387
C57	C	0.807531	-0.081750	0.065381
C58	C	0.857761	-0.055102	0.030177
C59	C	0.353344	0.606131	0.012462
C60	C	0.362178	0.535259	0.047896
C61	C	0.273236	0.541498	0.044777
C62	C	0.442293	0.599894	0.015580
C63	C	1.115028	0.552607	0.039223
C64	C	1.202341	0.546468	0.042293
C65	C	0.857758	0.570694	-0.159083
C66	C	0.857756	0.570694	-0.223318
C67	C	0.857772	0.759949	0.030188
C68	C	0.857774	0.824181	0.030191
C69	C	0.786723	0.575698	-0.688655
C70	C	0.786723	0.575692	-0.628297
C71	C	0.857766	0.570698	-0.595618
C72	C	0.928828	0.565688	-0.623291
C73	C	0.928832	0.565685	-0.683643
C74	C	0.879906	0.616647	-0.522972
C75	C	0.879896	0.616655	-0.462624
C76	C	0.857760	0.570703	-0.409470
C77	C	0.835613	0.524754	-0.416677
C78	C	0.835617	0.524751	-0.477030
C79	C	0.857770	0.570700	-0.530176
C80	C	0.786705	0.575701	-0.316355
C81	C	0.786711	0.575690	-0.255993
C82	C	0.928813	0.565694	-0.250992
C83	C	0.928811	0.565697	-0.311348
C84	C	0.857752	0.570704	-0.344028
C85	C	0.857771	0.570693	0.219443
C86	C	0.857773	0.570693	0.283677
C87	C	1.115021	0.363351	0.039215
C88	C	1.202332	0.292981	0.042281
C89	C	0.857764	0.381437	0.219435
C90	C	0.857764	0.317205	0.283666
C91	C	1.115028	0.363351	0.228478
C92	C	1.202340	0.292980	0.295779
C93	C	0.600501	0.778037	-0.168119
C94	C	0.513189	0.848407	-0.235419
C95	C	0.600508	0.778036	0.021145
C96	C	0.513197	0.848406	0.018078
C97	C	0.857765	0.759950	-0.159075
C98	C	0.857765	0.824182	-0.223306
C99	C	1.193097	0.263466	0.004992
C100	C	1.275126	0.197355	0.007859
C101	C	1.366390	0.160755	0.048020
C102	C	1.375623	0.190276	0.085310
C103	C	1.293595	0.256390	0.082439
C104	C	0.908001	0.283509	0.352559
C105	C	0.907997	0.223165	0.412917
C106	C	0.857761	0.196514	0.404380
C107	C	0.807518	0.230216	0.335480
C108	C	0.807517	0.290564	0.275123
C109	C	1.293587	0.256401	0.292193
C110	C	1.375634	0.190289	0.355423
C111	C	1.366433	0.160752	0.422239
C112	C	1.275177	0.197338	0.425824
C113	C	1.193132	0.263453	0.362594
C114	C	0.421942	0.884993	-0.231833
C115	C	0.339895	0.951124	-0.295064
C116	C	0.349096	0.980664	-0.361880
C117	C	0.440352	0.944075	-0.365464
C118	C	0.522397	0.877949	-0.302234
C119	C	0.522432	0.877927	0.055362
C120	C	0.440403	0.944055	0.052478
C121	C	0.349139	0.980657	0.012315
C122	C	0.339906	0.951133	-0.024973
C123	C	0.421934	0.885010	-0.022093
C124	C	0.908011	0.850813	-0.214747
C125	C	0.908030	0.911157	-0.275092
C126	C	0.857797	0.944872	-0.343997
C127	C	0.807550	0.918234	-0.352556
C128	C	0.807537	0.857888	-0.292211
H129	H	0.948886	0.305197	-0.033688
H130	H	0.766652	0.945695	-0.408667
Cl131	Cl	0.245942	1.063794	-0.441363
Cl132	Cl	0.476983	0.434346	0.098337
Cl133	Cl	0.971152	-0.055314	-0.049260
H134	H	1.301096	0.280440	0.237794
Cl135	Cl	0.246025	1.063781	0.008704
Cl136	Cl	0.744354	0.824424	-0.302985
H137	H	0.278988	0.671487	-0.020215
H138	H	0.447832	0.968135	-0.419873
H139	H	1.267590	0.173328	-0.022508
H140	H	0.728865	0.579772	-0.715260
Cl141	Cl	0.452032	0.981153	0.099362
Cl142	Cl	0.637154	0.831931	0.105854
H143	H	0.948914	0.195732	0.469013
H144	H	1.449931	0.160507	0.352492
H145	H	0.728863	0.579767	-0.605766
Cl146	Cl	0.744361	0.332912	0.188517
H147	H	1.433248	0.106916	0.473720
Cl148	Cl	0.971165	0.316999	0.363311
H149	H	0.766621	0.317999	0.094031
Cl150	Cl	0.857774	0.120645	0.480266
Cl151	Cl	0.667814	0.091770	0.011579
Cl152	Cl	0.637103	0.831956	-0.306755
H153	H	1.267700	0.173279	0.480234
Cl154	Cl	1.078426	0.309426	0.367115
Cl155	Cl	0.971151	0.180759	-0.049260
H156	H	0.766617	0.208507	0.328539
Cl157	Cl	0.225166	0.997152	-0.075457
H158	H	1.433175	0.106921	0.050352
Cl159	Cl	0.225186	0.997106	-0.290541
Cl160	Cl	0.410350	0.847872	-0.147844
Cl161	Cl	0.410307	0.847901	-0.068964
H162	H	0.817587	0.487336	-0.482894
Cl163	Cl	0.971170	0.808440	-0.128130
Cl164	Cl	0.807779	0.466983	-0.349861
Cl165	Cl	0.697379	0.581989	-0.357436
Cl166	Cl	0.971196	0.944636	-0.264317
H167	H	0.986661	0.561623	-0.224383
H168	H	1.449941	0.160467	0.118008
Cl169	Cl	1.018131	0.559411	-0.346137
Cl170	Cl	1.047696	0.049640	0.048765
Cl171	Cl	1.047704	-0.086592	0.048772
Cl172	Cl	0.971156	-0.191542	-0.049253
Cl173	Cl	0.857819	1.020740	-0.419854
Cl174	Cl	0.697389	0.581974	-0.221205
H175	H	0.766630	-0.163803	0.094040
Cl176	Cl	0.907717	0.674434	-0.453576
Cl177	Cl	1.018143	0.559405	-0.582207
H178	H	0.766626	-0.054306	0.094037
H179	H	0.986691	0.561609	-0.706170
Cl180	Cl	0.744377	0.196701	0.109618
Cl181	Cl	0.667808	0.227997	0.011572
H182	H	0.897930	0.654073	-0.566251
Cl183	Cl	1.305222	0.293481	0.129329
H184	H	1.118792	0.293265	-0.027720
