data_functionalizedCrystal
_audit_creation_method	'MofGen! by Chris Wilmer'
_symmetry_space_group_name_H-M	'P1'
_symmetry_Int_Tables_number	1
_symmetry_cell_setting	triclinic
loop_
_symmetry_equiv_pos_as_xyz
  x,y,z
_cell_length_a	22.610064
_cell_length_b	16.109301
_cell_length_c	16.109301
_cell_angle_alpha	96.538519
_cell_angle_beta	89.994133
_cell_angle_gamma	90.012563
loop_
_atom_site_label
_atom_site_type_symbol
_atom_site_fract_x
_atom_site_fract_y
_atom_site_fract_z
O1	O	-0.049149	-1.103145	0.106865
O2	O	0.450851	-0.603145	0.606865
O3	O	-0.049159	-0.861083	0.120165
O4	O	0.450841	-0.361083	0.620165
O5	O	-0.049148	-0.988764	-0.007516
O6	O	0.450852	-0.488764	0.492484
O7	O	-0.049160	-0.975464	0.234546
O8	O	0.450840	-0.475464	0.734546
O9	O	0.049222	-0.988726	-0.007516
O10	O	0.549222	-0.488726	0.492484
O11	O	0.049211	-0.861046	0.120164
O12	O	0.549211	-0.361046	0.620164
O13	O	0.049220	-1.103108	0.106865
O14	O	0.549220	-0.603108	0.606865
Zn15	Zn	0.064834	-0.982071	0.113515
Zn16	Zn	0.564834	-0.482071	0.613515
Zn17	Zn	-0.064772	-0.982120	0.113515
Zn18	Zn	0.435228	-0.482120	0.613515
O19	O	0.049209	-0.975427	0.234546
O20	O	0.549209	-0.475427	0.734546
C21	C	0.000025	-0.830090	0.119626
C22	C	0.500025	-0.330090	0.619626
C23	C	0.000021	-0.737794	0.118011
C24	C	0.500021	-0.237794	0.618011
N25	N	0.153286	-0.982043	0.113514
N26	N	0.653286	-0.482043	0.613514
N27	N	-0.153225	-0.982154	0.113509
N28	N	0.346775	-0.482154	0.613509
C29	C	0.561927	-1.032529	0.163947
C30	C	1.061927	-0.532529	0.663947
C31	C	0.623847	-1.032540	0.163945
C32	C	1.123847	-0.532540	0.663945
O33	O	0.655865	-1.075432	0.206820
O34	O	1.155865	-0.575432	0.706820
N35	N	0.654823	-0.982136	0.113505
N36	N	1.154823	-0.482136	0.613505
C37	C	0.623876	-0.931725	0.063058
C38	C	1.123876	-0.431725	0.563058
O39	O	0.655910	-0.888854	0.020155
O40	O	1.155910	-0.388854	0.520155
C41	C	0.561958	-0.931719	0.063056
C42	C	1.061958	-0.431719	0.563056
C43	C	0.530984	-0.982120	0.113506
C44	C	1.030984	-0.482120	0.613506
C45	C	0.530954	-1.082927	0.214392
C46	C	1.030954	-0.582927	0.714392
C47	C	0.469038	-1.082915	0.214395
C48	C	0.969038	-0.582915	0.714395
C49	C	0.438096	-1.032506	0.163953
C50	C	0.938096	-0.532506	0.663953
C51	C	0.469069	-0.982108	0.113509
C52	C	0.969069	-0.482108	0.613509
C53	C	0.531012	-0.881313	0.012605
C54	C	1.031012	-0.381313	0.512605
C55	C	0.469089	-0.881313	0.012607
C56	C	0.969089	-0.381313	0.512607
C57	C	0.438116	-0.931713	0.063057
C58	C	0.938116	-0.431713	0.563057
C59	C	0.376211	-0.931687	0.063070
C60	C	0.876211	-0.431687	0.563070
N61	N	0.345234	-0.982091	0.113510
N62	N	0.845234	-0.482091	0.613510
C63	C	0.376177	-1.032500	0.163951
C64	C	0.876177	-0.532500	0.663951
C65	C	0.753910	-0.931741	0.063065
C66	C	1.253910	-0.431741	0.563065
C67	C	0.815828	-0.931741	0.063070
C68	C	1.315828	-0.431741	0.563070
C69	C	0.815794	-1.032558	0.163956
C70	C	1.315794	-0.532558	0.663956
C71	C	0.753875	-1.032552	0.163955
C72	C	1.253875	-0.532552	0.663955
C73	C	0.722934	-0.982145	0.113504
C74	C	1.222934	-0.482145	0.613504
C75	C	0.246149	-1.032471	0.163954
C76	C	0.746149	-0.532471	0.663954
C77	C	0.184228	-1.032452	0.163955
C78	C	0.684228	-0.532452	0.663955
C79	C	0.184268	-0.931640	0.063067
C80	C	0.684268	-0.431640	0.563067
C81	C	0.246183	-0.931655	0.063068
C82	C	0.746183	-0.431655	0.563068
C83	C	0.277123	-0.982077	0.113515
C84	C	0.777123	-0.482077	0.613515
O85	O	0.344153	-0.888820	0.020215
O86	O	0.844153	-0.388820	0.520215
O87	O	0.344136	-1.075372	0.206840
O88	O	0.844136	-0.575372	0.706840
C89	C	0.000037	-0.988206	-0.038491
C90	C	0.500037	-0.488206	0.461509
C91	C	0.000038	-0.986591	-0.130786
C92	C	0.500038	-0.486591	0.369214
C93	C	0.000035	-1.134101	0.107404
C94	C	0.500035	-0.634101	0.607404
C95	C	0.000035	-1.226397	0.109019
C96	C	0.500035	-0.726397	0.609019
C97	C	0.000024	-0.515522	0.190018
C98	C	0.500024	-0.015522	0.690018
C99	C	0.000028	-0.428801	0.188494
C100	C	0.500028	0.071199	0.688494
C101	C	0.000034	-0.448676	0.037006
C102	C	0.500034	0.051324	0.537006
C103	C	0.000034	-0.535394	0.038530
C104	C	0.500034	-0.035394	0.538530
C105	C	0.000026	-0.568815	0.115039
C106	C	0.500026	-0.068815	0.615039
C107	C	0.000030	-0.395376	0.111990
C108	C	0.500030	0.104624	0.611990
C109	C	0.000034	-0.301350	0.110337
C110	C	0.500034	0.198650	0.610337
C111	C	0.000023	-0.662847	0.116693
C112	C	0.500023	-0.162847	0.616693
C113	C	0.000032	-1.058599	-0.353059
C114	C	0.500032	-0.558599	0.146941
C115	C	0.000027	-1.057075	-0.439779
C116	C	0.500027	-0.557075	0.060221
C117	C	0.000023	-0.905586	-0.419905
C118	C	0.500023	-0.405586	0.080095
C119	C	0.000024	-0.907111	-0.333186
C120	C	0.500024	-0.407111	0.166814
C121	C	0.000031	-0.983620	-0.299766
C122	C	0.500031	-0.483620	0.200234
C123	C	0.000025	-0.980571	-0.473205
C124	C	0.500025	-0.480571	0.026795
C125	C	0.000020	-0.978918	-0.567231
C126	C	0.500020	-0.478918	-0.067231
C127	C	0.000035	-0.985273	-0.205734
C128	C	0.500035	-0.485273	0.294266
C129	C	0.000023	-0.975984	0.265521
C130	C	0.500023	-0.475984	0.765521
C131	C	0.000018	-0.977600	0.357816
C132	C	0.500018	-0.477600	0.857816
H133	H	0.159013	-1.073494	0.205041
H134	H	0.659013	-0.573494	0.705041
H135	H	0.000026	-1.118130	-0.483168
H136	H	0.500026	-0.618130	0.016832
C137	C	0.684237	-1.037708	0.275789
C138	C	1.184237	-0.537708	0.775789
C139	C	0.719833	-1.087957	0.219407
C140	C	1.219833	-0.587957	0.719407
H141	H	0.663227	-1.071917	0.310026
H142	H	1.163227	-0.571917	0.810026
H143	H	0.656944	-1.007700	0.245747
H144	H	1.156944	-0.507700	0.745747
H145	H	0.708402	-0.999438	0.309840
H146	H	1.208402	-0.499438	0.809840
H147	H	0.695668	-1.126224	0.185352
H148	H	1.195668	-0.626224	0.685352
H149	H	0.747129	-1.117979	0.249451
H150	H	1.247129	-0.617979	0.749451
H151	H	0.159063	-0.890595	0.022001
H152	H	0.659063	-0.390595	0.522001
C153	C	0.885400	-1.144388	0.169167
C154	C	1.385400	-0.644388	0.669167
C155	C	0.849811	-1.087981	0.219396
C156	C	1.349811	-0.587981	0.719396
H157	H	0.906399	-1.178605	0.203392
H158	H	1.406399	-0.678605	0.703392
H159	H	0.912704	-1.114366	0.139134
H160	H	1.412704	-0.614366	0.639134
H161	H	0.861232	-1.178458	0.130919
H162	H	1.361232	-0.678458	0.630919
H163	H	0.873981	-1.053907	0.257640
H164	H	1.373981	-0.553907	0.757640
H165	H	0.822505	-1.118005	0.249443
H166	H	1.322505	-0.618005	0.749443
C167	C	0.885480	-0.819925	0.057833
C168	C	1.385480	-0.319925	0.557833
C169	C	0.849869	-0.876332	0.007622
C170	C	1.349869	-0.376332	0.507622
H171	H	0.906490	-0.785716	0.023596
H172	H	1.406490	-0.285716	0.523596
H173	H	0.912772	-0.849947	0.087861
H174	H	1.412772	-0.349947	0.587861
H175	H	0.861325	-0.785847	0.096086
H176	H	1.361325	-0.285847	0.596086
H177	H	0.874025	-0.910414	-0.030626
H178	H	1.374025	-0.410414	0.469374
H179	H	0.822573	-0.846307	-0.022420
H180	H	1.322573	-0.346307	0.477580
C181	C	0.315845	-0.819844	0.057825
C182	C	0.815845	-0.319844	0.557825
C183	C	0.280230	-0.876247	0.007619
C184	C	0.780230	-0.376247	0.507619
H185	H	0.336857	-0.785638	0.023586
H186	H	0.836857	-0.285638	0.523586
H187	H	0.343137	-0.849868	0.087852
H188	H	0.843137	-0.349868	0.587852
H189	H	0.291693	-0.785762	0.096079
H190	H	0.791693	-0.285762	0.596079
H191	H	0.304382	-0.910333	-0.030632
H192	H	0.804382	-0.410333	0.469368
H193	H	0.252935	-0.846220	-0.022422
H194	H	0.752935	-0.346220	0.477578
C195	C	0.600551	-1.194766	0.219642
C196	C	1.100551	-0.694766	0.719642
C197	C	0.564957	-1.138343	0.269845
C198	C	1.064957	-0.638343	0.769845
H199	H	0.621536	-1.228980	0.253883
H200	H	1.121536	-0.728980	0.753883
H201	H	0.627866	-1.164756	0.189615
H202	H	1.127866	-0.664756	0.689615
H203	H	0.576388	-1.228837	0.181388
H204	H	1.076388	-0.728837	0.681388
H205	H	0.589121	-1.104268	0.308095
H206	H	1.089121	-0.604268	0.808095
H207	H	0.537639	-1.168356	0.299885
H208	H	1.037639	-0.668356	0.799885
C209	C	0.000039	-0.677155	-0.026395
C210	C	0.500039	-0.177155	0.473605
C211	C	0.000036	-0.593983	-0.043892
C212	C	0.500036	-0.093983	0.456108
H213	H	0.000045	-0.713323	-0.077277
H214	H	0.500045	-0.213323	0.422723
H215	H	-0.034264	-0.687289	0.004973
H216	H	0.465736	-0.187289	0.504973
H217	H	0.034344	-0.687262	0.004977
H218	H	0.534344	-0.187262	0.504977
H219	H	-0.034272	-0.583875	-0.075259
H220	H	0.465728	-0.083875	0.424741
H221	H	0.034342	-0.583845	-0.075273
H222	H	0.534342	-0.083845	0.424727
C223	C	0.000028	-0.835984	-0.544015
C224	C	0.500028	-0.335984	-0.044015
C225	C	0.000024	-0.821490	-0.456644
C226	C	0.500024	-0.321490	0.043356
H227	H	0.000033	-0.784064	-0.566692
H228	H	0.500033	-0.284064	-0.066692
H229	H	-0.034274	-0.866858	-0.562302
H230	H	0.465726	-0.366858	-0.062302
H231	H	0.034333	-0.866847	-0.562303
H232	H	0.534333	-0.366847	-0.062303
H233	H	-0.034285	-0.790632	-0.438355
H234	H	0.465715	-0.290632	0.061645
H235	H	0.034329	-0.790603	-0.438350
H236	H	0.534329	-0.290603	0.061650
H237	H	0.000036	-1.120897	-0.325851
H238	H	0.500036	-0.620897	0.174149
C239	C	0.760173	-0.832077	-0.036646
C240	C	1.260173	-0.332077	0.463354
C241	C	0.719902	-0.876315	0.007617
C242	C	1.219902	-0.376315	0.507617
H243	H	0.739179	-0.797857	-0.070872
H244	H	1.239179	-0.297857	0.429128
H245	H	0.784315	-0.870352	-0.070701
H246	H	1.284315	-0.370352	0.429299
H247	H	0.784329	-0.798009	0.001620
H248	H	1.284329	-0.298009	0.501620
H249	H	0.695748	-0.910388	-0.030649
H250	H	1.195748	-0.410388	0.469351
H251	H	0.695750	-0.838035	0.041676
H252	H	1.195750	-0.338035	0.541676
C253	C	-0.050544	-0.778471	-0.289541
C254	C	0.449456	-0.278471	0.210459
C255	C	0.000023	-0.824686	-0.274601
C256	C	0.500023	-0.324686	0.225399
H257	H	-0.050543	-0.727586	-0.253376
H258	H	0.449457	-0.227586	0.246624
H259	H	-0.084840	-0.809854	-0.279405
H260	H	0.415160	-0.309854	0.220595
H261	H	-0.050538	-0.766618	-0.345972
H262	H	0.449462	-0.266618	0.154028
H263	H	0.000014	-0.836544	-0.218171
H264	H	0.500014	-0.336544	0.281829
H265	H	0.034329	-0.793296	-0.284730
H266	H	0.534329	-0.293296	0.215270
C267	C	0.239879	-1.132114	0.263685
C268	C	0.739879	-0.632114	0.763685
C269	C	0.280152	-1.087890	0.219411
C270	C	0.780152	-0.587890	0.719411
H271	H	0.260872	-1.166320	0.297927
H272	H	0.760872	-0.666320	0.797927
H273	H	0.215726	-1.166187	0.225432
H274	H	0.715726	-0.666187	0.725432
H275	H	0.215734	-1.093824	0.297734
H276	H	0.715734	-0.593824	0.797734
H277	H	0.304294	-1.126180	0.185357
H278	H	0.804294	-0.626180	0.685357
H279	H	0.304315	-1.053814	0.257668
H280	H	0.804315	-0.553814	0.757668
H281	H	0.000043	-0.421454	-0.025285
H282	H	0.500043	0.078546	0.474715
H283	H	0.443825	-1.123960	0.255472
H284	H	0.943825	-0.623960	0.755472
H285	H	0.556220	-0.840273	-0.028477
H286	H	1.056220	-0.340273	0.471523
H287	H	0.000023	-0.542730	0.252317
H288	H	0.500023	-0.042730	0.752317
C289	C	0.475347	-0.781664	-0.087119
C290	C	0.975347	-0.281664	0.412881
C291	C	0.435079	-0.825897	-0.042846
C292	C	0.935079	-0.325897	0.457154
H293	H	0.454350	-0.747448	-0.121347
H294	H	0.954350	-0.247448	0.378653
H295	H	0.499488	-0.819941	-0.121174
H296	H	0.999488	-0.319941	0.378826
H297	H	0.499505	-0.747591	-0.048859
H298	H	0.999505	-0.247591	0.451141
H299	H	0.410924	-0.859974	-0.081107
H300	H	0.910924	-0.359974	0.418893
H301	H	0.410928	-0.787615	-0.008789
H302	H	0.910928	-0.287615	0.491211
H303	H	0.000028	-0.385413	0.249550
H304	H	0.500028	0.114587	0.749550
