data_functionalizedCrystal
_audit_creation_method	'MofGen! by Chris Wilmer'
_symmetry_space_group_name_H-M	'P1'
_symmetry_Int_Tables_number	1
_symmetry_cell_setting	triclinic
loop_
_symmetry_equiv_pos_as_xyz
  x,y,z
_cell_length_a	14.044190
_cell_length_b	14.044220
_cell_length_c	13.101039
_cell_angle_alpha	93.659868
_cell_angle_beta	93.663707
_cell_angle_gamma	86.809672
loop_
_atom_site_label
_atom_site_type_symbol
_atom_site_fract_x
_atom_site_fract_y
_atom_site_fract_z
O1	O	0.225348	-1.281975	-0.085126
O2	O	0.558681	-0.948642	0.248208
O3	O	0.892015	-0.615308	0.581541
O4	O	0.217041	-1.005305	-0.085151
O5	O	0.550374	-0.671972	0.248183
O6	O	0.883708	-0.338638	0.581516
O7	O	0.082859	-1.139483	-0.085118
O8	O	0.416193	-0.806149	0.248215
O9	O	0.749526	-0.472816	0.581548
O10	O	0.359530	-1.147797	-0.085158
O11	O	0.692863	-0.814464	0.248175
O12	O	1.026196	-0.481131	0.581509
O13	O	0.092504	-1.129857	0.085309
O14	O	0.425838	-0.796524	0.418643
O15	O	0.759171	-0.463190	0.751976
O16	O	0.226686	-0.995679	0.085277
O17	O	0.560019	-0.662346	0.418610
O18	O	0.893352	-0.329013	0.751944
O19	O	0.234993	-1.272349	0.085302
O20	O	0.568326	-0.939016	0.418635
O21	O	0.901660	-0.605683	0.751969
Zn22	Zn	0.232371	-1.132486	0.112348
Zn23	Zn	0.565704	-0.799153	0.445682
Zn24	Zn	0.899037	-0.465819	0.779015
Zn25	Zn	0.219663	-1.145168	-0.112197
Zn26	Zn	0.552997	-0.811835	0.221136
Zn27	Zn	0.886330	-0.478502	0.554470
O28	O	0.369174	-1.138172	0.085270
O29	O	0.702508	-0.804838	0.418603
O30	O	1.035841	-0.471505	0.751936
C31	C	0.052060	-1.131033	0.000098
C32	C	0.385393	-0.797700	0.333431
C33	C	0.718727	-0.464366	0.666765
C34	C	-0.054083	-1.120185	0.000106
C35	C	0.279251	-0.786852	0.333439
C36	C	0.612584	-0.453519	0.666773
C37	C	0.218228	-0.964870	0.000060
C38	C	0.551561	-0.631537	0.333393
C39	C	0.884894	-0.298204	0.666727
C40	C	0.207382	-0.858728	0.000051
C41	C	0.540716	-0.525394	0.333385
C42	C	0.874049	-0.192061	0.666718
C43	C	0.233806	-1.312784	0.000089
C44	C	0.567140	-0.979451	0.333422
C45	C	0.900473	-0.646118	0.666756
C46	C	0.244651	-1.418927	0.000091
C47	C	0.577984	-1.085594	0.333424
C48	C	0.911318	-0.752260	0.666758
C49	C	-0.299543	-1.177288	0.000071
C50	C	0.033790	-0.843954	0.333404
C51	C	0.367124	-0.510621	0.666738
C52	C	-0.248418	-1.100371	0.000071
C53	C	0.084916	-0.767038	0.333405
C54	C	0.418249	-0.433705	0.666738
C55	C	-0.140280	-1.111398	0.000091
C56	C	0.193054	-0.778065	0.333424
C57	C	0.526387	-0.444732	0.666757
C58	C	-0.407691	-1.166262	0.000052
C59	C	-0.074358	-0.832929	0.333385
C60	C	0.258976	-0.499595	0.666718
C61	C	0.399974	-1.146621	0.000051
C62	C	0.733307	-0.813288	0.333384
C63	C	1.066640	-0.479955	0.666718
C64	C	0.506116	-1.157470	0.000036
C65	C	0.839449	-0.824136	0.333370
C66	C	1.172783	-0.490803	0.666703
N67	N	0.241043	-1.123838	0.265595
N68	N	0.574376	-0.790504	0.598928
N69	N	0.907710	-0.457171	0.932262
C70	C	0.187557	-0.664388	0.000075
C71	C	0.520891	-0.331055	0.333408
C72	C	0.854224	0.002278	0.666741
C73	C	0.264472	-0.613261	0.000068
C74	C	0.597805	-0.279927	0.333401
C75	C	0.931138	0.053406	0.666735
C76	C	0.253441	-0.505123	0.000081
C77	C	0.586774	-0.171790	0.333414
C78	C	0.920107	0.161543	0.666747
C79	C	0.198587	-0.772535	0.000062
C80	C	0.531920	-0.439202	0.333395
C81	C	0.865254	-0.105869	0.666728
N82	N	0.210984	-1.153824	-0.265444
N83	N	0.544317	-0.820490	0.067890
N84	N	0.877651	-0.487157	0.401223
C85	C	0.252851	-1.112072	0.474635
C86	C	0.586184	-0.778739	0.807968
C87	C	0.919518	-0.445405	1.141301
C88	C	0.199179	-1.165586	0.525523
C89	C	0.532512	-0.832253	0.858857
C90	C	0.865845	-0.498920	1.192190
C91	C	0.205749	-1.159040	0.641840
C92	C	0.539082	-0.825706	0.975173
C93	C	0.872416	-0.492373	1.308507
C94	C	0.246282	-1.118618	0.358307
C95	C	0.579615	-0.785284	0.691641
C96	C	0.912949	-0.451951	1.024974
H97	H	-0.285862	-1.026240	0.000059
H98	H	0.047472	-0.692906	0.333392
H99	H	0.380805	-0.359573	0.666725
H100	H	0.338605	-0.650703	0.000052
H101	H	0.671938	-0.317369	0.333386
H102	H	1.005271	0.015964	0.666719
H103	H	-0.262101	-1.251413	0.000088
H104	H	0.071232	-0.918080	0.333422
H105	H	0.404566	-0.584747	0.666755
H106	H	0.113431	-0.626948	0.000091
H107	H	0.446764	-0.293615	0.333424
H108	H	0.780097	0.039718	0.666757
H109	H	0.148295	-1.216319	0.481733
H110	H	0.481628	-0.882985	0.815067
H111	H	0.814962	-0.549652	1.148400
H112	H	0.303733	-1.061345	0.518419
H113	H	0.637066	-0.728011	0.851753
H114	H	0.970400	-0.394678	1.185086
