data_functionalizedCrystal
_audit_creation_method	'MofGen! by Chris Wilmer'
_symmetry_space_group_name_H-M	'P1'
_symmetry_Int_Tables_number	1
_symmetry_cell_setting	triclinic
loop_
_symmetry_equiv_pos_as_xyz
  x,y,z
_cell_length_a	16.120490
_cell_length_b	16.120484
_cell_length_c	13.032268
_cell_angle_alpha	99.642751
_cell_angle_beta	94.644414
_cell_angle_gamma	90.164100
loop_
_atom_site_label
_atom_site_type_symbol
_atom_site_fract_x
_atom_site_fract_y
_atom_site_fract_z
Zn1	Zn	1.180629	-0.462311	-0.695115
Zn2	Zn	1.513963	-0.128978	-0.361781
Zn3	Zn	1.847296	0.204356	-0.028448
Zn4	Zn	1.191135	-0.585432	-0.528856
Zn5	Zn	1.524468	-0.252099	-0.195522
Zn6	Zn	1.857802	0.081234	0.137811
Zn7	Zn	1.061103	-0.437644	-0.511240
Zn8	Zn	1.394436	-0.104310	-0.177907
Zn9	Zn	1.727769	0.229023	0.155427
Zn10	Zn	1.034582	-0.594165	-0.694163
Zn11	Zn	1.367916	-0.260831	-0.360830
Zn12	Zn	1.701249	0.072502	-0.027496
O13	O	1.116862	-0.519888	-0.607343
O14	O	1.450196	-0.186555	-0.274010
O15	O	1.783529	0.146779	0.059323
O16	O	1.297563	-0.485312	-0.680830
O17	O	1.630896	-0.151979	-0.347497
O18	O	1.964230	0.181355	-0.014164
O19	O	1.189382	-0.551850	-0.380385
O20	O	1.522715	-0.218517	-0.047052
O21	O	1.856048	0.114817	0.286282
O22	O	1.083660	-0.323885	-0.528657
O23	O	1.416994	0.009449	-0.195324
O24	O	1.750327	0.342782	0.138009
O25	O	1.305282	-0.575769	-0.558681
O26	O	1.638615	-0.242436	-0.225347
O27	O	1.971948	0.090898	0.107986
O28	O	1.171476	-0.342007	-0.663749
O29	O	1.504809	-0.008674	-0.330416
O30	O	1.838143	0.324659	0.002917
O31	O	1.093847	-0.443270	-0.367443
O32	O	1.427181	-0.109937	-0.034109
O33	O	1.760514	0.223396	0.299224
O34	O	0.942045	-0.451738	-0.527735
O35	O	1.275378	-0.118405	-0.194401
O36	O	1.608711	0.214929	0.138932
O37	O	1.038460	-0.590652	-0.840423
O38	O	1.371794	-0.257319	-0.507090
O39	O	1.705127	0.076015	-0.173757
O40	O	0.922560	-0.566733	-0.662128
O41	O	1.255894	-0.233400	-0.328794
O42	O	1.589227	0.099934	0.004539
O43	O	1.145760	-0.493779	-0.841122
O44	O	1.479094	-0.160446	-0.507789
O45	O	1.812427	0.172887	-0.174456
O46	O	1.163666	-0.703622	-0.557758
O47	O	1.496999	-0.370289	-0.224425
O48	O	1.830333	-0.036955	0.108909
O49	O	1.048647	-0.710038	-0.679209
O50	O	1.381981	-0.376704	-0.345875
O51	O	1.715314	-0.043371	-0.012542
C52	C	0.902344	-0.507507	-0.592917
C53	C	1.235677	-0.174174	-0.259584
C54	C	1.569011	0.159160	0.073750
C55	C	0.810568	-0.502233	-0.586771
C56	C	1.143902	-0.168900	-0.253438
C57	C	1.477235	0.164434	0.079895
C58	C	0.592026	-0.547239	-0.639223
C59	C	0.925360	-0.213906	-0.305890
C60	C	1.258693	0.119427	0.027443
C61	C	0.642537	-0.492611	-0.575550
C62	C	0.975870	-0.159278	-0.242217
C63	C	1.309204	0.174055	0.091117
C64	C	0.736038	-0.497966	-0.581795
C65	C	1.069371	-0.164633	-0.248462
C66	C	1.402705	0.168700	0.084871
C67	C	0.498516	-0.541885	-0.632979
C68	C	0.831850	-0.208552	-0.299646
C69	C	1.165183	0.124781	0.033687
C70	C	1.104439	-0.737178	-0.620316
C71	C	1.437772	-0.403845	-0.286983
C72	C	1.771105	-0.070512	0.046351
C73	C	1.099196	-0.830144	-0.625906
C74	C	1.432529	-0.496810	-0.292572
C75	C	1.765862	-0.163477	0.040761
C76	C	1.089626	-1.000355	-0.636133
C77	C	1.422959	-0.667021	-0.302799
C78	C	1.756293	-0.333688	0.030534
C79	C	1.144245	-1.038591	-0.578581
C80	C	1.477578	-0.705258	-0.245248
C81	C	1.810912	-0.371924	0.088086
C82	C	1.138920	-1.133302	-0.584271
C83	C	1.472254	-0.799969	-0.250938
C84	C	1.805587	-0.466635	0.082395
C85	C	1.094949	-0.905635	-0.630444
C86	C	1.428283	-0.572302	-0.297110
C87	C	1.761616	-0.238968	0.036223
C88	C	1.332218	-0.532318	-0.621827
C89	C	1.665552	-0.198985	-0.288493
C90	C	1.998885	0.134349	0.044840
C91	C	1.423990	-0.537615	-0.627999
C92	C	1.757323	-0.204281	-0.294665
C93	C	2.090657	0.129052	0.038668
C94	C	1.087980	-0.545941	-0.879723
C95	C	1.421313	-0.212608	-0.546390
C96	C	1.754647	0.120725	-0.213056
C97	C	1.075672	-0.557044	-0.995795
C98	C	1.409005	-0.223710	-0.662462
C99	C	1.742339	0.109623	-0.329129
C100	C	1.129354	-0.301753	-0.594344
C101	C	1.462688	0.031581	-0.261011
C102	C	1.796021	0.364914	0.072322
C103	C	1.134678	-0.208796	-0.588805
C104	C	1.468011	0.124537	-0.255472
C105	C	1.801345	0.457870	0.077862
C106	C	1.123275	-0.514063	-1.047890
C107	C	1.456608	-0.180729	-0.714556
C108	C	1.789941	0.152604	-0.381223
C109	C	1.110555	-0.525537	-1.167856
C110	C	1.443888	-0.192203	-0.834523
C111	C	1.777222	0.141130	-0.501190
C112	C	1.145683	-0.493878	-0.336023
C113	C	1.479017	-0.160545	-0.002689
C114	C	1.812350	0.172788	0.330644
C115	C	1.158164	-0.482550	-0.219948
C116	C	1.491498	-0.149216	0.113385
C117	C	1.824831	0.184117	0.446719
H118	H	1.195004	-1.000195	-0.525035
H119	H	1.528337	-0.666862	-0.191702
H120	H	1.861671	-0.333529	0.141632
H121	H	0.619003	-0.598026	-0.698421
H122	H	0.952336	-0.264693	-0.365088
H123	H	1.285669	0.068641	-0.031754
C124	C	0.606103	-0.424000	-0.495563
C125	C	0.939436	-0.090667	-0.162230
C126	C	1.272769	0.242666	0.171103
H127	H	0.650092	-0.390427	-0.456437
H128	H	0.983425	-0.057094	-0.123104
H129	H	1.316758	0.276239	0.210230
H130	H	0.575455	-0.449692	-0.449705
H131	H	0.908788	-0.116359	-0.116372
H132	H	1.242121	0.216974	0.216962
H133	H	0.570290	-0.389544	-0.531210
H134	H	0.903623	-0.056210	-0.197877
H135	H	1.236956	0.277123	0.135456
H136	H	1.173443	-0.468768	-1.003675
H137	H	1.506776	-0.135435	-0.670341
H138	H	1.840110	0.197899	-0.337008
H139	H	1.038870	-1.038747	-0.689673
H140	H	1.372203	-0.705414	-0.356340
H141	H	1.705536	-0.372081	-0.023006
H142	H	1.060376	-0.570826	-1.212066
H143	H	1.393709	-0.237492	-0.878733
H144	H	1.727042	0.095841	-0.545400
C145	C	1.225946	-0.421359	-1.160234
C146	C	1.559280	-0.088026	-0.826901
C147	C	1.892613	0.245307	-0.493568
H148	H	1.225609	-0.421677	-1.087437
H149	H	1.558942	-0.088344	-0.754104
H150	H	1.892275	0.244989	-0.420771
H151	H	1.215206	-0.366164	-1.173899
H152	H	1.548540	-0.032830	-0.840565
H153	H	1.881873	0.300503	-0.507232
H154	H	1.278847	-0.438500	-1.182518
H155	H	1.612180	-0.105167	-0.849184
H156	H	1.945514	0.228166	-0.515851
H157	H	1.025496	-0.602330	-1.040009
H158	H	1.358829	-0.268996	-0.706676
H159	H	1.692163	0.064337	-0.373343
