data_functionalizedCrystal
_audit_creation_method	'MofGen! by Chris Wilmer'
_symmetry_space_group_name_H-M	'P1'
_symmetry_Int_Tables_number	1
_symmetry_cell_setting	triclinic
loop_
_symmetry_equiv_pos_as_xyz
  x,y,z
_cell_length_a	19.805405
_cell_length_b	19.805407
_cell_length_c	19.805398
_cell_angle_alpha	90.012745
_cell_angle_beta	89.969674
_cell_angle_gamma	89.977440
loop_
_atom_site_label
_atom_site_type_symbol
_atom_site_fract_x
_atom_site_fract_y
_atom_site_fract_z
Zn1	Zn	-0.269542	-1.034693	-0.382705
Zn2	Zn	-0.382732	-1.034620	-0.269513
Zn3	Zn	-0.269555	-0.921520	-0.269530
Zn4	Zn	-0.382686	-0.921471	-0.382661
O5	O	-0.326129	-0.978076	-0.326102
O6	O	-0.284570	-1.129399	-0.367701
O7	O	-0.367743	-1.019607	-0.174799
O8	O	-0.174836	-0.936583	-0.284569
O9	O	-0.367731	-1.129346	-0.284540
O10	O	-0.174827	-1.019731	-0.367717
O11	O	-0.284592	-0.936513	-0.174811
O12	O	-0.284548	-0.826797	-0.284526
O13	O	-0.367653	-0.936500	-0.477383
O14	O	-0.367666	-0.826761	-0.367642
O15	O	-0.284526	-1.019683	-0.477415
O16	O	-0.477442	-1.019560	-0.284497
O17	O	-0.477409	-0.936429	-0.367626
C18	C	-0.326104	-0.802220	-0.326081
C19	C	-0.326110	-0.726988	-0.326089
C20	C	-0.501985	-0.978000	-0.326069
C21	C	-0.577217	-0.978029	-0.326078
C22	C	-0.282884	-0.691672	-0.369456
C23	C	-0.282886	-0.620984	-0.369457
C24	C	-0.326118	-0.585612	-0.326093
C25	C	-0.369345	-0.620933	-0.282721
C26	C	-0.369339	-0.691620	-0.282718
C27	C	-0.369370	-0.335860	-0.282735
C28	C	-0.369374	-0.265168	-0.282744
C29	C	-0.282917	-0.265223	-0.369474
C30	C	-0.282911	-0.335910	-0.369470
C31	C	-0.326135	-0.371225	-0.326096
C32	C	-0.326132	-0.447873	-0.326095
C33	C	-0.326125	-0.508965	-0.326098
C34	C	-0.612556	-1.021357	-0.282838
C35	C	-0.683244	-1.021386	-0.282853
C36	C	-0.718592	-0.978083	-0.326105
C37	C	-0.683248	-0.934753	-0.369350
C38	C	-0.612561	-0.934728	-0.369338
C39	C	-0.968321	-0.934852	-0.369400
C40	C	-1.039013	-0.934879	-0.369407
C41	C	-1.039005	-1.021510	-0.282915
C42	C	-0.968317	-1.021486	-0.282903
C43	C	-0.932980	-0.978159	-0.326150
C44	C	-0.856331	-0.978129	-0.326134
C45	C	-0.795239	-0.978108	-0.326118
C46	C	-0.149586	-0.978171	-0.326150
C47	C	-0.074354	-0.978211	-0.326170
C48	C	-0.326083	-0.978094	-0.502645
C49	C	-0.326063	-0.978102	-0.577877
C50	C	-0.326149	-0.154619	-0.326117
C51	C	-0.326144	-0.229851	-0.326108
C52	C	-0.369252	-1.021476	-1.039659
C53	C	-0.369271	-1.021457	-0.968971
C54	C	-0.325987	-0.978186	-0.933639
C55	C	-0.282687	-0.934926	-0.968999
C56	C	-0.282673	-0.934941	-1.039686
C57	C	-0.282745	-0.934860	-0.683926
C58	C	-0.282761	-0.934849	-0.613234
C59	C	-0.369343	-1.021376	-0.613210
C60	C	-0.369329	-1.021391	-0.683897
C61	C	-0.326031	-0.978129	-0.719251
C62	C	-0.326013	-0.978149	-0.795900
C63	C	-0.326002	-0.978169	-0.856992
C64	C	-0.326125	-0.978097	-0.150246
C65	C	-0.325954	-0.978220	-0.075015
H66	H	-0.247681	-0.720466	-0.404769
F67	F	-0.236910	-0.227633	-0.415636
F68	F	-0.236880	-0.583401	-0.415615
F69	F	-0.236614	-0.888880	-0.931394
H70	H	-0.404567	-0.364604	-0.247418
H71	H	-0.404537	-1.056671	-0.940188
F72	F	-0.930701	-1.067574	-0.236868
F73	F	-0.236688	-0.888793	-0.721543
F74	F	-0.415353	-0.583286	-0.236567
H75	H	-0.404496	-1.056715	-1.068421
H76	H	-0.404538	-0.720373	-0.247403
H77	H	-0.247709	-0.364706	-0.404784
F78	F	-0.415396	-1.067448	-0.721496
H79	H	-0.247512	-0.899610	-0.584468
H80	H	-0.404580	-0.236370	-0.247430
F81	F	-1.076619	-1.067627	-0.236891
H82	H	-0.939555	-0.899573	-0.404612
H83	H	-0.583780	-1.056616	-0.247614
H84	H	-0.247414	-0.899719	-1.068472
H85	H	-0.712014	-1.056667	-0.247642
H86	H	-0.404600	-1.056600	-0.584416
F87	F	-0.720870	-0.888670	-0.415386
F88	F	-1.076632	-0.888789	-0.415445
H89	H	-0.583789	-0.899447	-0.404549
