data_functionalizedCrystal
_audit_creation_method	'MofGen! by Chris Wilmer'
_symmetry_space_group_name_H-M	'P1'
_symmetry_Int_Tables_number	1
_symmetry_cell_setting	triclinic
loop_
_symmetry_equiv_pos_as_xyz
  x,y,z
_cell_length_a	12.827893
_cell_length_b	12.827892
_cell_length_c	12.827893
_cell_angle_alpha	89.992737
_cell_angle_beta	90.000833
_cell_angle_gamma	89.981825
loop_
_atom_site_label
_atom_site_type_symbol
_atom_site_fract_x
_atom_site_fract_y
_atom_site_fract_z
Zn1	Zn	1.597510	0.416137	0.590766
Zn2	Zn	1.597451	0.590846	0.416026
Zn3	Zn	1.422798	0.416128	0.416049
Zn4	Zn	1.422737	0.590845	0.590735
O5	O	1.510124	0.503489	0.503394
O6	O	1.743738	0.439317	0.567590
O7	O	1.574285	0.567665	0.269793
O8	O	1.446025	0.269893	0.439247
O9	O	1.743695	0.567674	0.439209
O10	O	1.574384	0.269900	0.567611
O11	O	1.445968	0.439301	0.269810
O12	O	1.276554	0.439300	0.439218
O13	O	1.445919	0.567674	0.736975
O14	O	1.276509	0.567665	0.567559
O15	O	1.574324	0.439316	0.736998
O16	O	1.574224	0.737082	0.439180
O17	O	1.445862	0.737081	0.567537
C18	C	1.238614	0.503482	0.503388
C19	C	1.122461	0.503504	0.503410
C20	C	1.510059	0.774999	0.503376
C21	C	1.510126	0.891152	0.503403
C22	C	1.510121	0.503496	0.775964
C23	C	1.510120	0.503499	0.892117
C24	C	1.782694	0.503497	0.503401
C25	C	1.898847	0.503500	0.503403
C26	C	1.950653	0.439992	0.566925
C27	C	2.070704	0.439994	0.566929
C28	C	1.510218	0.230919	0.503435
C29	C	1.510258	0.114766	0.503453
C30	C	1.573719	0.942902	0.439958
C31	C	1.573791	1.062953	0.439984
C32	C	1.573652	0.439991	0.943913
C33	C	1.573653	0.439993	1.063963
C34	C	1.510119	0.503506	1.231884
C35	C	1.510120	0.503503	1.115731
H36	H	1.906130	0.385624	0.621308
H37	H	1.628048	0.385625	1.108507
H38	H	1.455722	0.557864	0.936650
C39	C	1.436631	0.576962	1.055573
C40	C	1.354671	0.531609	0.980517
C41	C	1.281182	0.605068	0.920350
C42	C	1.289654	0.723881	0.935239
C43	C	1.371618	0.769240	1.010298
C44	C	1.445107	0.695781	1.070465
H45	H	1.348396	0.443651	0.969492
H46	H	1.220507	0.571489	0.864786
H47	H	1.235254	0.778259	0.890699
H48	H	1.377893	0.857198	1.021323
H49	H	1.505782	0.729359	1.126029
C50	C	1.647205	0.882704	0.366546
C51	C	1.766019	0.897501	0.375164
C52	C	1.839508	0.837307	0.301749
C53	C	1.794184	0.762316	0.219717
C54	C	1.675365	0.747515	0.211095
C55	C	1.601876	0.807709	0.284510
H56	H	1.799575	0.953017	0.435893
H57	H	1.927466	0.848264	0.308132
H58	H	1.848586	0.717756	0.165371
H59	H	1.641808	0.691999	0.150367
H60	H	1.513917	0.796752	0.278127
C61	C	2.130881	0.366537	0.640402
C62	C	2.250926	0.366644	0.640302
C63	C	2.311105	0.293185	0.713777
C64	C	2.251239	0.219618	0.787353
C65	C	2.131187	0.219509	0.787456
C66	C	2.071008	0.292969	0.713981
H67	H	2.295249	0.421105	0.585834
H68	H	2.399976	0.293266	0.713700
H69	H	2.295787	0.165239	0.841744
H70	H	2.086864	0.165048	0.841924
H71	H	1.982137	0.292887	0.714058
H72	H	1.628040	0.385616	0.899381
H73	H	2.077916	0.557876	0.449022
H74	H	1.943371	0.557878	0.449029
H75	H	1.628232	1.107457	0.385664
H76	H	1.455739	0.935723	0.557744
C77	C	1.436699	1.054660	0.576841
C78	C	1.354716	0.979689	0.531406
C79	C	1.281157	0.919574	0.604793
C80	C	1.289582	0.934431	0.723615
C81	C	1.371568	1.009405	0.769056
C82	C	1.445127	1.069520	0.695669
H83	H	1.348477	0.968688	0.443441
H84	H	1.220465	0.864073	0.571154
H85	H	1.235129	0.889930	0.777941
H86	H	1.377808	1.020406	0.857021
H87	H	1.505819	1.125021	0.729308
