data_functionalizedCrystal
_audit_creation_method	'MofGen! by Chris Wilmer'
_symmetry_space_group_name_H-M	'P1'
_symmetry_Int_Tables_number	1
_symmetry_cell_setting	triclinic
loop_
_symmetry_equiv_pos_as_xyz
  x,y,z
_cell_length_a	12.594517
_cell_length_b	12.594516
_cell_length_c	16.625539
_cell_angle_alpha	89.976673
_cell_angle_beta	89.979100
_cell_angle_gamma	90.015853
loop_
_atom_site_label
_atom_site_type_symbol
_atom_site_fract_x
_atom_site_fract_y
_atom_site_fract_z
Zn1	Zn	1.627262	-0.423746	-0.455944
Zn2	Zn	1.627155	-0.601747	-0.321123
Zn3	Zn	1.449268	-0.423782	-0.321124
Zn4	Zn	1.449249	-0.601682	-0.455912
O5	O	1.538233	-0.512739	-0.388526
O6	O	1.776194	-0.447370	-0.438073
O7	O	1.603520	-0.578182	-0.208291
O8	O	1.472932	-0.274832	-0.339022
O9	O	1.776115	-0.578147	-0.339021
O10	O	1.603704	-0.274805	-0.438074
O11	O	1.472828	-0.447432	-0.208292
O12	O	1.300319	-0.447369	-0.338991
O13	O	1.472900	-0.578036	-0.568749
O14	O	1.300305	-0.578071	-0.438019
O15	O	1.603686	-0.447307	-0.568773
O16	O	1.603502	-0.750684	-0.338990
O17	O	1.472795	-0.750637	-0.438019
C18	C	1.261692	-0.512718	-0.388502
C19	C	1.143387	-0.512735	-0.388511
C20	C	1.074111	-0.441549	-0.334752
C21	C	1.003300	-0.538636	-0.314923
C22	C	1.003399	-0.415695	-0.408355
C23	C	1.074134	-0.609873	-0.368643
C24	C	1.074240	-0.486866	-0.462109
C25	C	1.003461	-0.584021	-0.442308
C26	C	1.538164	-0.789280	-0.388518
C27	C	1.538231	-0.907586	-0.388542
C28	C	1.467133	-0.976852	-0.442366
C29	C	1.441200	-1.047712	-0.368791
C30	C	1.564261	-1.047524	-0.462129
C31	C	1.512247	-0.976888	-0.314928
C32	C	1.635353	-0.976694	-0.408316
C33	C	1.609457	-1.047523	-0.334690
C34	C	1.815854	-0.512762	-0.388550
C35	C	1.934160	-0.512771	-0.388561
C36	C	1.538303	-0.512660	-0.598835
C37	C	1.538332	-0.512626	-0.688456
C38	C	1.538332	-0.235119	-0.388552
C39	C	1.538375	-0.116813	-0.388563
C40	C	1.538381	-0.512507	-1.016632
C41	C	1.538364	-0.512544	-0.925324
C42	C	1.538357	-0.512568	-0.852547
C43	C	1.538339	-0.512602	-0.761233
C44	C	1.538226	-0.512742	-0.179035
C45	C	1.538402	-0.512476	-0.089415
H46	H	0.972141	-0.560539	-0.252703
H47	H	1.105132	-0.381408	-0.289234
C48	C	0.961803	-0.665454	-0.503752
C49	C	0.891955	-0.628544	-0.574433
C50	C	0.850294	-0.709980	-0.635872
C51	C	0.878481	-0.828326	-0.626631
C52	C	0.948333	-0.865242	-0.555947
C53	C	0.989994	-0.783806	-0.494508
H54	H	0.871085	-0.540933	-0.581276
H55	H	0.798585	-0.682652	-0.688197
H56	H	0.847641	-0.888610	-0.672112
H57	H	0.969202	-0.952853	-0.549104
H58	H	1.041703	-0.811134	-0.442183
H59	H	1.105423	-0.464934	-0.524310
H60	H	1.105076	-0.691978	-0.351811
C61	C	0.961424	-0.304812	-0.431009
C62	C	0.891564	-0.290611	-0.506244
C63	C	0.849595	-0.179727	-0.528891
C64	C	0.877484	-0.083044	-0.476302
C65	C	0.947348	-0.097242	-0.401062
C66	C	0.989318	-0.208126	-0.378416
H67	H	0.870915	-0.362184	-0.545177
H68	H	0.797877	-0.169217	-0.584588
H69	H	0.846416	-0.000961	-0.493067
H70	H	0.967997	-0.025668	-0.362129
H71	H	1.041035	-0.218636	-0.322718
C72	C	1.482458	-0.935161	-0.230841
C73	C	1.560774	-0.864425	-0.184087
C74	C	1.530986	-0.822698	-0.100001
C75	C	1.422881	-0.851707	-0.062668
C76	C	1.344558	-0.922446	-0.109422
C77	C	1.374347	-0.964173	-0.193508
H78	H	1.640806	-0.842948	-0.211723
H79	H	1.588966	-0.770332	-0.065391
H80	H	1.400830	-0.820818	-0.000423
H81	H	1.264527	-0.943923	-0.081786
H82	H	1.316366	-1.016539	-0.228118
C83	C	1.690756	-1.089206	-0.273144
C84	C	1.678805	-1.061083	-0.183465
C85	C	1.760093	-1.102776	-0.121916
C86	C	1.853332	-1.172592	-0.150047
C87	C	1.865288	-1.200718	-0.239730
C88	C	1.784000	-1.159025	-0.301279
H89	H	1.609780	-1.009398	-0.162637
H90	H	1.751242	-1.081955	-0.055526
H91	H	1.913507	-1.203455	-0.104485
H92	H	1.934313	-1.252403	-0.260558
H93	H	1.792850	-1.179846	-0.367669
H94	H	1.406900	-0.945820	-0.487817
C95	C	1.593934	-1.089444	-0.546186
C96	C	1.515911	-1.161000	-0.592502
C97	C	1.545574	-1.202916	-0.676560
C98	C	1.653260	-1.173275	-0.714301
C99	C	1.731289	-1.101715	-0.667984
C100	C	1.701626	-1.059799	-0.583926
H101	H	1.436190	-1.182946	-0.564564
H102	H	1.487811	-1.255890	-0.710846
H103	H	1.675218	-1.204304	-0.776525
H104	H	1.811011	-1.079770	-0.695922
H105	H	1.759389	-1.006825	-0.549640
H106	H	1.359133	-1.078930	-0.352083
H107	H	1.717402	-0.945479	-0.425059
