data_functionalizedCrystal
_audit_creation_method	'MofGen! by Chris Wilmer'
_symmetry_space_group_name_H-M	'P1'
_symmetry_Int_Tables_number	1
_symmetry_cell_setting	triclinic
loop_
_symmetry_equiv_pos_as_xyz
  x,y,z
_cell_length_a	16.109302
_cell_length_b	17.038272
_cell_length_c	16.098557
_cell_angle_alpha	92.932876
_cell_angle_beta	87.273622
_cell_angle_gamma	87.286668
loop_
_atom_site_label
_atom_site_type_symbol
_atom_site_fract_x
_atom_site_fract_y
_atom_site_fract_z
O1	O	1.113731	0.096988	-0.069295
O2	O	1.613731	0.596988	0.430705
O3	O	0.872557	0.109494	-0.069288
O4	O	1.372557	0.609494	0.430712
O5	O	0.991710	-0.010574	-0.069285
O6	O	1.491710	0.489426	0.430715
O7	O	0.994577	0.217056	-0.069298
O8	O	1.494577	0.717056	0.430702
O9	O	0.984779	-0.003560	0.069228
O10	O	1.484779	0.496440	0.569228
O11	O	0.865625	0.116508	0.069224
O12	O	1.365625	0.616508	0.569224
O13	O	1.106799	0.104002	0.069218
O14	O	1.606799	0.604002	0.569218
Zn15	Zn	0.985112	0.111368	0.091213
Zn16	Zn	1.485112	0.611368	0.591213
Zn17	Zn	0.994244	0.102128	-0.091283
Zn18	Zn	1.494244	0.602128	0.408717
O19	O	0.987646	0.224070	0.069214
O20	O	1.487646	0.724070	0.569214
C21	C	0.838080	0.112494	-0.000031
C22	C	1.338080	0.612494	0.499969
C23	C	0.745677	0.110975	-0.000029
C24	C	1.245677	0.610975	0.499971
C25	C	0.529309	0.111286	0.075467
C26	C	1.029309	0.611286	0.575467
C27	C	0.442487	0.109850	0.075464
C28	C	0.942487	0.609850	0.575464
C29	C	0.450054	0.102207	-0.075550
C30	C	0.950054	0.602207	0.424450
C31	C	0.536875	0.103638	-0.075547
C32	C	1.036875	0.603638	0.424453
C33	C	0.576499	0.108181	-0.000036
C34	C	1.076499	0.608181	0.499964
C35	C	0.402857	0.105315	-0.000042
C36	C	0.902857	0.605315	0.499958
C37	C	0.308721	0.103758	-0.000046
C38	C	0.808721	0.603758	0.499954
C39	C	0.670642	0.109736	-0.000032
C40	C	1.170642	0.609736	0.499968
C41	C	0.985637	-0.036195	-0.000029
C42	C	1.485637	0.463805	0.499971
C43	C	0.977858	-0.122988	-0.000029
C44	C	1.477858	0.377012	0.499971
C45	C	1.049279	-0.173103	-0.000030
C46	C	1.549279	0.326897	0.499970
C47	C	1.041965	-0.254654	-0.000037
C48	C	1.541965	0.245346	0.499963
C49	C	0.963229	-0.286088	-0.000038
C50	C	1.463229	0.213912	0.499962
C51	C	0.891803	-0.235967	-0.000040
C52	C	1.391803	0.264033	0.499960
C53	C	0.899118	-0.154418	-0.000038
C54	C	1.399118	0.345582	0.499962
C55	C	0.937387	-0.531846	-0.000049
C56	C	1.437387	-0.031846	0.499951
C57	C	0.930078	-0.613402	-0.000048
C58	C	1.430078	-0.113402	0.499952
C59	C	1.080240	-0.632083	-0.000048
C60	C	1.580240	-0.132083	0.499952
C61	C	1.087548	-0.550531	-0.000041
C62	C	1.587548	-0.050531	0.499959
C63	C	1.016122	-0.500418	-0.000047
C64	C	1.516122	-0.000418	0.499953
C65	C	0.955751	-0.369446	-0.000043
C66	C	1.455751	0.130554	0.499957
C67	C	1.023601	-0.417062	-0.000047
C68	C	1.523601	0.082938	0.499953
C69	C	1.141276	0.101001	-0.000041
C70	C	1.641276	0.601001	0.499959
C71	C	1.233680	0.102520	-0.000049
C72	C	1.733680	0.602520	0.499951
C73	C	0.993719	0.249691	-0.000044
C74	C	1.493719	0.749691	0.499956
C75	C	1.001499	0.336484	-0.000049
C76	C	1.501499	0.836484	0.499951
N77	N	0.978885	0.117674	0.215762
N78	N	1.478885	0.617674	0.715762
C79	C	0.949893	0.146780	0.740580
C80	C	1.449893	0.646780	1.240580
C81	C	0.954268	0.142383	0.653391
C82	C	1.454268	0.642383	1.153391
C83	C	1.009235	0.087041	0.609792
C84	C	1.509235	0.587041	1.109792
C85	C	1.059825	0.036087	0.653386
C86	C	1.559825	0.536087	1.153386
C87	C	1.055445	0.040480	0.740573
C88	C	1.555445	0.540480	1.240573
C89	C	1.025095	0.071114	0.346543
C90	C	1.525095	0.571114	0.846543
C91	C	1.029473	0.066726	0.259349
C92	C	1.529473	0.566726	0.759349
C93	C	0.923915	0.173021	0.259361
C94	C	1.423915	0.673021	0.759361
C95	C	0.919543	0.177413	0.346550
C96	C	1.419543	0.677413	0.846550
C97	C	0.970130	0.126456	0.390136
C98	C	1.470130	0.626456	0.890136
C99	C	1.013710	0.082547	0.520671
C100	C	1.513710	0.582547	1.020671
C101	C	0.965650	0.130947	0.479255
C102	C	1.465650	0.630947	0.979255
N103	N	1.000481	0.095831	0.784168
N104	N	1.500481	0.595831	1.284168
H105	H	0.404067	0.112378	0.136945
H106	H	0.904067	0.612378	0.636945
O107	O	1.110010	-0.014473	0.787585
O108	O	1.610010	0.485527	1.287585
H109	H	1.097725	-0.002127	0.855536
H110	H	1.597725	0.497873	1.355536
H111	H	0.913075	0.183869	0.617902
H112	H	1.413075	0.683869	1.117902
H113	H	0.905137	0.191848	0.776073
H114	H	1.405137	0.691848	1.276073
O115	O	0.869333	0.227961	0.212353
O116	O	1.369333	0.727961	0.712353
H117	H	0.881599	0.215602	0.144401
H118	H	1.381599	0.715602	0.644401
O119	O	0.407317	0.097319	-0.156993
O120	O	0.907317	0.597319	0.343007
H121	H	0.339016	0.096855	-0.144313
H122	H	0.839016	0.596855	0.355687
H123	H	0.575299	0.101107	-0.137033
H124	H	1.075299	0.601107	0.362967
H125	H	1.074237	0.021657	0.223855
H126	H	1.574237	0.521657	0.723855
O127	O	0.860305	0.237145	0.393576
O128	O	1.360305	0.737145	0.893576
H129	H	0.825876	0.271848	0.348618
H130	H	1.325876	0.771848	0.848618
O131	O	0.860345	-0.477809	-0.000044
O132	O	1.360345	0.022191	0.499956
H133	H	0.862898	-0.443069	-0.056503
H134	H	1.362898	0.056931	0.443497
O135	O	0.572044	0.116182	0.156910
O136	O	1.072044	0.616182	0.656910
H137	H	0.640344	0.116664	0.144231
H138	H	1.140344	0.616664	0.644231
O139	O	1.134201	-0.139200	-0.000037
O140	O	1.634201	0.360800	0.499963
H141	H	1.182636	-0.187752	-0.000050
H142	H	1.682636	0.312248	0.499950
H143	H	0.920892	0.176004	0.514756
H144	H	1.420892	0.676004	1.014756
O145	O	1.118995	-0.308708	-0.000025
O146	O	1.618995	0.191292	0.499975
H147	H	1.174973	-0.273149	-0.000009
H148	H	1.674973	0.226851	0.499991
O149	O	1.172471	-0.516627	-0.000060
O150	O	1.672471	-0.016627	0.499940
H151	H	1.220908	-0.565177	-0.000075
H152	H	1.720908	-0.065177	0.499925
O153	O	0.845152	-0.647311	-0.000043
O154	O	1.345152	-0.147311	0.499957
H155	H	0.841061	-0.686884	-0.056491
H156	H	1.341061	-0.186884	0.443509
H157	H	1.066287	0.029624	0.382024
H158	H	1.566287	0.529624	0.882024
H159	H	1.138391	-0.672894	-0.000044
H160	H	1.638391	-0.172894	0.499956
H161	H	0.827695	-0.261568	-0.000046
H162	H	1.327695	0.238432	0.499954
O163	O	1.119088	-0.023628	0.606367
O164	O	1.619088	0.476372	1.106367
H165	H	1.113633	-0.018127	0.538417
H166	H	1.613633	0.481873	1.038417
O167	O	1.072970	0.022844	0.473630
O168	O	1.572970	0.522844	0.973630
H169	H	1.117696	0.053756	0.433910
H170	H	1.617696	0.553756	0.933910
O171	O	0.822085	-0.100362	-0.000036
O172	O	1.322085	0.399638	0.499964
H173	H	0.819005	-0.059902	0.056417
H174	H	1.319005	0.440098	0.556417
O175	O	1.108524	-0.383166	-0.000050
O176	O	1.608524	0.116834	0.499950
H177	H	1.112620	-0.343607	0.056409
H178	H	1.612620	0.156393	0.556409
H179	H	0.891644	-0.395049	-0.000042
H180	H	1.391644	0.104951	0.499958
