data_functionalizedCrystal
_audit_creation_method	'MofGen! by Chris Wilmer'
_symmetry_space_group_name_H-M	'P1'
_symmetry_Int_Tables_number	1
_symmetry_cell_setting	triclinic
loop_
_symmetry_equiv_pos_as_xyz
  x,y,z
_cell_length_a	19.288864
_cell_length_b	15.021413
_cell_length_c	19.288857
_cell_angle_alpha	89.998145
_cell_angle_beta	83.134677
_cell_angle_gamma	90.021132
loop_
_atom_site_label
_atom_site_type_symbol
_atom_site_fract_x
_atom_site_fract_y
_atom_site_fract_z
O1	O	0.921350	0.074322	0.086639
O2	O	1.421350	0.574322	0.586639
O3	O	0.719089	0.074261	0.098327
O4	O	1.219089	0.574261	0.598327
O5	O	0.826067	0.074283	-0.008648
O6	O	1.326067	0.574283	0.491352
O7	O	0.814372	0.074300	0.193614
O8	O	1.314372	0.574300	0.693614
O9	O	0.826049	-0.073782	-0.008632
O10	O	1.326049	0.426218	0.491368
O11	O	0.719072	-0.073803	0.098343
O12	O	1.219072	0.426197	0.598343
O13	O	0.921333	-0.073743	0.086654
O14	O	1.421333	0.426257	0.586654
Zn15	Zn	0.820200	-0.097281	0.092501
Zn16	Zn	1.320200	0.402719	0.592501
Zn17	Zn	0.820222	0.097800	0.092481
Zn18	Zn	1.320222	0.597800	0.592481
O19	O	0.814355	-0.073764	0.193629
O20	O	1.314355	0.426236	0.693629
C21	C	0.693204	0.000221	0.097959
C22	C	1.193204	0.500221	0.597959
C23	C	0.616100	0.000198	0.096830
C24	C	1.116100	0.500198	0.596830
N25	N	0.820189	-0.230419	0.092514
N26	N	1.320189	0.269581	0.592514
C27	C	0.571402	0.000218	0.159598
C28	C	1.071402	0.500218	0.659598
C29	C	0.498955	0.000227	0.158537
C30	C	0.998955	0.500227	0.658537
C31	C	0.471210	0.000235	0.094705
C32	C	0.971210	0.500235	0.594705
C33	C	0.515917	0.000211	0.031929
C34	C	1.015917	0.500211	0.531929
C35	C	0.588363	0.000192	0.032991
C36	C	1.088363	0.500192	0.532991
C37	C	0.362955	0.052134	0.044520
C38	C	0.862955	0.552134	0.544520
C39	C	0.290510	0.052158	0.043461
C40	C	0.790510	0.552158	0.543461
C41	C	0.247764	0.000289	0.091425
C42	C	0.747764	0.500289	0.591425
C43	C	0.277469	-0.051593	0.140462
C44	C	0.777469	0.448407	0.640462
C45	C	0.349915	-0.051612	0.141524
C46	C	0.849915	0.448388	0.641524
C47	C	0.392656	0.000255	0.093546
C48	C	0.892656	0.500255	0.593546
C49	C	0.124510	0.000318	0.153048
C50	C	0.624510	0.500318	0.653048
C51	C	0.052062	0.000322	0.151984
C52	C	0.552062	0.500322	0.651984
C53	C	0.069026	0.000315	0.025374
C54	C	0.569026	0.500315	0.525374
C55	C	0.141472	0.000301	0.026439
C56	C	0.641472	0.500301	0.526439
C57	C	0.169210	0.000307	0.090278
C58	C	0.669210	0.500307	0.590278
C59	C	0.770715	-0.470112	0.141956
C60	C	1.270715	0.029888	0.641956
C61	C	0.833436	-0.529426	0.155241
C62	C	1.333436	-0.029426	0.655241
C63	C	0.820207	-0.412026	0.092497
C64	C	1.320207	0.087974	0.592497
C65	C	0.757503	-0.529453	0.079227
C66	C	1.257503	-0.029453	0.579227
C67	C	0.820219	-0.587450	0.092481
C68	C	1.320219	-0.087450	0.592481
C69	C	0.882960	-0.470033	0.105813
C70	C	1.382960	0.029967	0.605813
C71	C	0.806985	-0.470055	0.029772
C72	C	1.306985	0.029945	0.529772
C73	C	0.869752	-0.529343	0.043030
C74	C	1.369752	-0.029343	0.543030
C75	C	0.820200	-0.310968	0.092507
C76	C	1.320200	0.189032	0.592507
C77	C	0.820234	-0.688505	0.092470
C78	C	1.320234	-0.188505	0.592470
C79	C	0.947218	0.000299	0.087022
C80	C	1.447218	0.500299	0.587022
C81	C	1.024321	0.000329	0.088151
C82	C	1.524321	0.500329	0.588151
C83	C	0.825683	0.000250	-0.034517
C84	C	1.325683	0.500250	0.465483
C85	C	0.824556	0.000247	-0.111620
C86	C	1.324556	0.500247	0.388380
N87	N	0.820238	0.230938	0.092462
N88	N	1.320238	0.730938	0.592462
C89	C	0.824039	0.080956	-0.147839
C90	C	1.324039	0.580956	0.352161
C91	C	0.822970	0.080963	-0.220285
C92	C	1.322970	0.580963	0.279715
C93	C	0.822432	0.000255	-0.256512
C94	C	1.322432	0.500255	0.243488
C95	C	0.822945	-0.080466	-0.220283
C96	C	1.322945	0.419534	0.279717
C97	C	0.824007	-0.080470	-0.147838
C98	C	1.324007	0.419530	0.352162
C99	C	0.861427	-0.061561	-0.376737
C100	C	1.361427	0.438439	0.123263
C101	C	0.860369	-0.061553	-0.449181
C102	C	1.360369	0.438447	0.050819
C103	C	0.819155	0.000264	-0.479957
C104	C	1.319155	0.500264	0.020043
C105	C	0.779006	0.062089	-0.438281
C106	C	1.279006	0.562089	0.061719
C107	C	0.780068	0.062085	-0.365835
C108	C	1.280068	0.562085	0.134165
C109	C	0.821281	0.000250	-0.335067
C110	C	1.321281	0.500250	0.164933
C111	C	0.817478	0.080986	-0.594730
C112	C	1.317478	0.580986	-0.094730
C113	C	0.816405	0.080989	-0.667177
C114	C	1.316405	0.580989	-0.167177
C115	C	0.816387	-0.080442	-0.667175
C116	C	1.316387	0.419558	-0.167175
C117	C	0.817453	-0.080443	-0.594728
C118	C	1.317453	0.419557	-0.094728
C119	C	0.818002	0.000274	-0.558511
C120	C	1.318002	0.500274	-0.058511
C121	C	0.814739	0.000271	0.219498
C122	C	1.314739	0.500271	0.719498
C123	C	0.815866	0.000280	0.296602
C124	C	1.315866	0.500280	0.796602
H125	H	0.593981	0.000224	0.211581
H126	H	1.093981	0.500224	0.711581
H127	H	0.397754	0.094378	0.005460
H128	H	0.897754	0.594378	0.505460
N129	N	0.485997	0.000209	-0.036920
N130	N	0.985997	0.500209	0.463080
H131	H	0.433320	0.000225	-0.028069
H132	H	0.933320	0.500225	0.471931
H133	H	0.502389	0.055090	-0.064388
H134	H	1.002389	0.555090	0.435612
H135	H	0.266330	0.094408	0.003535
H136	H	0.766330	0.594408	0.503535
N137	N	0.792138	-0.435469	-0.040459
N138	N	1.292138	0.064531	0.459541
H139	H	0.829026	-0.457954	-0.077933
H140	H	1.329026	0.042046	0.422067
H141	H	0.744714	-0.457051	-0.050372
H142	H	1.244714	0.042949	0.449628
N143	N	0.848258	-0.563977	0.225495
N144	N	1.348258	-0.063977	0.725495
H145	H	0.848603	-0.631208	0.224825
H146	H	1.348603	-0.131208	0.724825
H147	H	0.895250	-0.541371	0.235860
H148	H	1.395250	-0.041371	0.735860
N149	N	0.815906	0.168044	-0.706254
N150	N	1.315906	0.668044	-0.206254
H151	H	0.816437	0.219173	-0.672317
H152	H	1.316437	0.719173	-0.172317
H153	H	0.858535	0.171512	-0.742058
H154	H	1.358535	0.671512	-0.242058
N155	N	0.903674	-0.128227	-0.494130
N156	N	1.403674	0.371773	0.005870
H157	H	0.929938	-0.167396	-0.463641
H158	H	1.429938	0.332604	0.036359
H159	H	0.872020	-0.166204	-0.520009
H160	H	1.372020	0.333796	-0.020009
H161	H	0.704471	-0.555556	0.068011
H162	H	1.204471	-0.055556	0.568011
N163	N	0.715331	-0.435665	0.197404
N164	N	1.215331	0.064335	0.697404
H165	H	0.737875	-0.397730	0.231701
H166	H	1.237875	0.102270	0.731701
H167	H	0.680521	-0.398717	0.174760
H168	H	1.180521	0.101283	0.674760
N169	N	0.953226	-0.435617	0.120751
N170	N	1.453226	0.064383	0.620751
H171	H	0.952782	-0.368383	0.120685
H172	H	1.452782	0.131617	0.620685
H173	H	0.963291	-0.457802	0.167953
H174	H	1.463291	0.042198	0.667953
N175	N	0.925252	-0.563585	-0.012387
N176	N	1.425252	-0.063585	0.487613
H177	H	0.972573	-0.541852	-0.002277
H178	H	1.472573	-0.041852	0.497723
H179	H	0.924623	-0.630815	-0.012334
H180	H	1.424623	-0.130815	0.487666
N181	N	0.636578	0.000167	-0.034711
N182	N	1.136578	0.500167	0.465289
H183	H	0.608012	0.000169	-0.075312
H184	H	1.108012	0.500169	0.424688
H185	H	0.667030	0.055049	-0.037036
H186	H	1.167030	0.555049	0.462964
H187	H	0.824484	0.146682	-0.118355
H188	H	1.324484	0.646682	0.381645
N189	N	0.822408	0.168017	-0.259361
N190	N	1.322408	0.668017	0.240639
H191	H	0.822915	0.219148	-0.225424
H192	H	1.322915	0.719148	0.274576
H193	H	0.865018	0.171541	-0.295187
H194	H	1.365018	0.671541	0.204813
H195	H	0.462555	0.000241	0.209652
H196	H	0.962555	0.500241	0.709652
H197	H	0.374098	-0.093859	0.181450
H198	H	0.874098	0.406141	0.681450
N199	N	0.736768	0.128758	-0.320883
N200	N	1.236768	0.628758	0.179117
H201	H	0.710495	0.167923	-0.351367
H202	H	1.210495	0.667923	0.148633
H203	H	0.702455	0.096154	-0.286171
H204	H	1.202455	0.596154	0.213829
N205	N	0.734552	0.128773	-0.471463
N206	N	1.234552	0.628773	0.028537
H207	H	0.739967	0.119395	-0.523680
H208	H	1.239967	0.619395	-0.023680
H209	H	0.683990	0.120479	-0.451998
H210	H	1.183990	0.620479	0.048002
H211	H	0.817921	0.146710	-0.565240
H212	H	1.317921	0.646710	-0.065240
N213	N	0.815810	-0.167496	-0.706234
N214	N	1.315810	0.332504	-0.206234
H215	H	0.772943	-0.202795	-0.687858
H216	H	1.272943	0.297205	-0.187858
H217	H	0.815085	-0.155178	-0.757616
H218	H	1.315085	0.344822	-0.257616
H219	H	0.817879	-0.146165	-0.565239
H220	H	1.317879	0.353835	-0.065239
N221	N	0.905881	-0.128241	-0.343546
N222	N	1.405881	0.371759	0.156454
H223	H	0.931157	-0.167399	-0.380939
H224	H	1.431157	0.332601	0.119061
H225	H	0.941075	-0.095642	-0.318143
H226	H	1.441075	0.404358	0.181857
H227	H	0.242666	-0.093831	0.179519
H228	H	0.742666	0.406169	0.679519
N229	N	0.154428	0.000312	0.221901
N230	N	0.654428	0.500312	0.721901
H231	H	0.184086	-0.054580	0.225168
H232	H	0.684086	0.445420	0.725168
H233	H	0.184095	0.055231	0.225119
H234	H	0.684095	0.555231	0.725119
N235	N	0.003869	0.000290	0.219702
N236	N	0.503869	0.500290	0.719702
H237	H	0.012786	0.055165	0.247572
H238	H	0.512786	0.555165	0.747572
H239	H	-0.046221	0.000246	0.209309
H240	H	0.453779	0.500246	0.709309
N241	N	0.822371	-0.167517	-0.259351
N242	N	1.322371	0.332483	0.240649
H243	H	0.778886	-0.171128	-0.283647
H244	H	1.278886	0.328872	0.216353
H245	H	0.865012	-0.171044	-0.295135
H246	H	1.365012	0.328956	0.204865
N247	N	0.039111	0.000313	-0.043476
N248	N	0.539111	0.500313	0.456524
H249	H	-0.013566	0.000325	-0.034626
H250	H	0.486434	0.500325	0.465374
H251	H	0.055501	0.055196	-0.070941
H252	H	0.555501	0.555196	0.429059
N253	N	0.189688	0.000280	-0.041261
N254	N	0.689688	0.500280	0.458739
H255	H	0.161120	0.000285	-0.081861
H256	H	0.661120	0.500285	0.418139
H257	H	0.220142	0.055160	-0.043586
H258	H	0.720142	0.555160	0.456414
N259	N	0.824566	-0.167524	-0.108768
N260	N	1.324566	0.332476	0.391232
H261	H	0.824061	-0.218654	-0.142707
H262	H	1.324061	0.281346	0.357293
H263	H	0.868058	-0.171028	-0.084480
H264	H	1.368058	0.328972	0.415520
