data_functionalizedCrystal
_audit_creation_method	'MofGen! by Chris Wilmer'
_symmetry_space_group_name_H-M	'P1'
_symmetry_Int_Tables_number	1
_symmetry_cell_setting	triclinic
loop_
_symmetry_equiv_pos_as_xyz
  x,y,z
_cell_length_a	27.732048
_cell_length_b	19.188930
_cell_length_c	17.666332
_cell_angle_alpha	89.980296
_cell_angle_beta	90.009510
_cell_angle_gamma	97.106284
loop_
_atom_site_label
_atom_site_type_symbol
_atom_site_fract_x
_atom_site_fract_y
_atom_site_fract_z
O1	O	0.060347	-0.925761	0.063200
O2	O	0.068471	-0.722398	0.063149
O3	O	-0.005969	-0.830396	0.063161
O4	O	0.134786	-0.817764	0.063187
O5	O	-0.005970	-0.830384	-0.062735
O6	O	0.068469	-0.722386	-0.062748
O7	O	0.060345	-0.925749	-0.062697
Cu8	Cu	0.064407	-0.824067	-0.074218
Cu9	Cu	0.064409	-0.824081	0.074670
O10	O	0.134784	-0.817752	-0.062710
C11	C	-0.023977	-0.830125	0.000211
C12	C	-0.077635	-0.829326	0.000204
C13	C	0.068207	-0.696383	0.000194
C14	C	0.067417	-0.618883	0.000174
C15	C	0.060609	-0.951765	0.000260
C16	C	0.061399	-1.029264	0.000285
C17	C	-0.416270	-0.888119	0.000258
C18	C	-0.617939	-0.885157	0.000268
O19	O	-0.649030	-0.938918	0.000314
N20	N	-0.637258	-0.821118	0.000251
C21	C	-0.606157	-0.757816	0.000237
O22	O	-0.627217	-0.703280	0.000231
C23	C	-0.404489	-0.760780	0.000233
C24	C	-0.385173	-0.824822	0.000242
C25	C	-0.396953	-0.952156	0.000268
C26	C	-0.346539	-0.952896	0.000261
C27	C	-0.315441	-0.889599	0.000245
C28	C	-0.334759	-0.825562	0.000235
C29	C	-0.373389	-0.697478	0.000224
C30	C	-0.322969	-0.698225	0.000225
C31	C	-0.303653	-0.762267	0.000234
C32	C	-0.253247	-0.763005	0.000212
N33	N	-0.233928	-0.827043	0.000229
C34	C	-0.265025	-0.890340	0.000245
C35	C	-0.712036	-0.756265	0.000238
C36	C	-0.762452	-0.755524	0.000238
C37	C	-0.774231	-0.882865	0.000270
C38	C	-0.723813	-0.883605	0.000265
C39	C	-0.692716	-0.820303	0.000254
C40	C	-0.159151	-0.891889	0.000231
C41	C	-0.108732	-0.892623	0.000221
C42	C	-0.096958	-0.765283	0.000193
C43	C	-0.147373	-0.764549	0.000198
C44	C	-0.178468	-0.827857	0.000220
O45	O	-0.222127	-0.709272	0.000174
O46	O	-0.243956	-0.944868	0.000268
C47	C	-0.466684	-0.887379	0.000265
C48	C	-0.486001	-0.823342	0.000255
C49	C	-0.454904	-0.760045	0.000238
C50	C	-0.536418	-0.822601	0.000254
C51	C	-0.567515	-0.885898	0.000271
C52	C	-0.548195	-0.949936	0.000288
C53	C	-0.497781	-0.950676	0.000281
C54	C	-0.474224	-0.696007	0.000222
C55	C	-0.524638	-0.695272	0.000227
C56	C	-0.555735	-0.758569	0.000244
C57	C	0.152793	-0.818023	0.000243
C58	C	0.206450	-0.818821	0.000254
N59	N	0.064405	-0.824062	-0.178937
C60	C	0.111096	-0.573681	0.000194
C61	C	0.110354	-0.500862	0.000202
C62	C	0.065931	-0.473249	0.000205
C63	C	0.022246	-0.518461	0.000181
C64	C	0.022990	-0.591278	0.000165
N65	N	0.031975	-0.365489	0.043078
N66	N	0.031272	-0.296315	0.043094
C67	C	0.063689	-0.253854	0.000251
N68	N	0.096842	-0.283179	-0.042600
N69	N	0.097547	-0.352360	-0.042613
C70	C	0.065120	-0.394291	0.000222
C71	C	0.106566	-0.129692	0.000279
C72	C	0.105822	-0.056872	0.000282
C73	C	0.017714	-0.074473	0.000269
C74	C	0.018459	-0.147292	0.000258
C75	C	0.062886	-0.174896	0.000267
C76	C	0.031454	-0.871914	-0.780982
C77	C	0.031455	-0.871915	-0.701734
C78	C	0.064405	-0.824082	-0.662119
C79	C	0.097363	-0.776255	-0.701757
C80	C	0.097365	-0.776260	-0.781004
N81	N	0.070669	-0.762230	-0.537721
N82	N	0.070665	-0.762227	-0.462440
C83	C	0.064404	-0.824065	-0.423355
N84	N	0.058137	-0.885907	-0.462393
N85	N	0.058139	-0.885909	-0.537681
C86	C	0.064407	-0.824071	-0.576190
C87	C	0.031450	-0.871893	-0.297796
C88	C	0.031455	-0.871895	-0.218547
C89	C	0.097361	-0.776229	-0.218572
C90	C	0.097359	-0.776233	-0.297820
C91	C	0.064401	-0.824064	-0.337427
N92	N	0.064407	-0.824091	0.179389
H93	H	-0.184464	-0.943441	0.000251
O94	O	0.129436	-0.729858	-0.663313
C95	C	0.177267	-0.740682	-0.682669
H96	H	0.177406	-0.796579	-0.704427
H97	H	0.201539	-0.732386	-0.630549
H98	H	0.191534	-0.701834	-0.728682
O99	O	-0.292832	-0.636668	0.000181
C100	C	-0.320697	-0.579990	0.000194
H101	H	-0.358365	-0.598128	-0.023635
H102	H	-0.302017	-0.535667	-0.036365
H103	H	-0.324241	-0.560346	0.060591
H104	H	-0.012580	-0.628083	0.000150
O105	O	0.149678	-0.156630	0.000307
C106	C	0.140968	-0.230594	0.000273
H107	H	0.103213	-0.248113	0.024107
H108	H	0.169389	-0.252667	0.036817
H109	H	0.143261	-0.250812	-0.060131
H110	H	-0.686720	-0.704714	0.000229
O111	O	-0.025397	-0.047542	0.000308
C112	C	-0.016688	0.026422	0.000305
H113	H	0.021071	0.043919	0.024146
H114	H	-0.045103	0.048459	0.036859
H115	H	-0.018990	0.046698	-0.060090
H116	H	0.004619	-0.910862	-0.813228
O117	O	-0.020948	-0.491757	0.000155
C118	C	-0.059343	-0.547274	0.000155
H119	H	-0.045899	-0.596588	-0.023693
H120	H	-0.090369	-0.532368	-0.036395
H121	H	-0.072807	-0.557756	0.060550
O122	O	0.129391	-0.729861	-0.180018
C123	C	0.159155	-0.766929	-0.134172
H124	H	0.139806	-0.821768	-0.122280
H125	H	0.166856	-0.737703	-0.078457
H126	H	0.194870	-0.771292	-0.164705
H127	H	0.004616	-0.910842	-0.330046
H128	H	-0.093007	-0.944776	0.000226
H129	H	0.124199	-0.737317	-0.813270
H130	H	0.004622	-0.910841	-0.186281
O131	O	0.148299	-0.013059	0.000333
C132	C	0.187668	-0.053043	0.000319
H133	H	0.175282	-0.107540	0.024143
H134	H	0.218262	-0.025866	0.036882
H135	H	0.201294	-0.058055	-0.060077
H136	H	0.124190	-0.737289	-0.330088
O137	O	-0.392170	-0.635286	0.000089
C138	C	-0.420999	-0.631029	-0.065099
H139	H	-0.409160	-0.667372	-0.110674
H140	H	-0.416358	-0.574702	-0.086986
H141	H	-0.460790	-0.647568	-0.050350
O142	O	-0.327859	-1.015169	0.000310
C143	C	-0.366125	-1.070870	0.000308
H144	H	-0.400331	-1.051668	0.024138
H145	H	-0.355679	-1.115619	0.036872
H146	H	-0.373307	-1.090363	-0.060085
O147	O	0.154218	-0.600586	0.000107
C148	C	0.157295	-0.642139	-0.065108
H149	H	0.119161	-0.660670	-0.086869
H150	H	0.176455	-0.689631	-0.050437
H151	H	0.178758	-0.609718	-0.110750
O152	O	-0.543422	-0.633074	0.000085
C153	C	-0.572255	-0.628823	-0.065101
H154	H	-0.560415	-0.665169	-0.110675
H155	H	-0.567617	-0.572498	-0.086992
H156	H	-0.612045	-0.645365	-0.050348
O157	O	-0.578428	-1.011406	0.000440
C158	C	-0.607941	-1.014774	0.065638
H159	H	-0.589394	-0.978872	0.111198
H160	H	-0.613726	-1.071078	0.087543
H161	H	-0.644568	-0.997098	0.050897
H162	H	0.004620	-0.910859	-0.669462
O163	O	-0.427176	-1.013630	0.000417
C164	C	-0.456696	-1.017026	0.065609
H165	H	-0.438162	-0.981121	0.111178
H166	H	-0.462466	-1.073333	0.087504
H167	H	-0.493328	-0.999371	0.050862
O168	O	-0.804462	-0.944335	0.000426
C169	C	-0.833976	-0.947698	0.065624
H170	H	-0.815430	-0.911790	0.111180
H171	H	-0.839760	-1.003999	0.087535
H172	H	-0.870604	-0.930025	0.050878
O173	O	-0.781133	-0.693252	0.000254
C174	C	-0.742869	-0.637548	0.000222
H175	H	-0.708656	-0.656751	0.024059
H176	H	-0.753308	-0.592807	0.036764
H177	H	-0.735701	-0.618044	-0.060181
H178	H	-0.017109	-0.184097	0.000246
H179	H	0.145923	-0.464051	0.000216
H180	H	-0.163101	-0.712400	0.000170
O181	O	-0.066725	-0.703819	0.000313
C182	C	-0.037195	-0.700466	0.065505
H183	H	-0.055731	-0.736378	0.111083
H184	H	-0.031404	-0.644167	0.087386
H185	H	-0.000572	-0.718139	0.050765
O186	O	-0.479101	-1.012949	0.000329
C187	C	-0.517367	-1.068650	0.000326
H188	H	-0.551574	-1.049449	0.024157
H189	H	-0.506922	-1.113400	0.036889
H190	H	-0.524550	-1.088142	-0.060068
O191	O	-0.444069	-0.634470	0.000302
C192	C	-0.452790	-0.595568	0.065504
H193	H	-0.491066	-0.613144	0.087255
H194	H	-0.449137	-0.537297	0.050820
H195	H	-0.425221	-0.604803	0.111159
H196	H	-0.708089	-0.935754	0.000273
