data_functionalizedCrystal
_audit_creation_method	'MofGen! by Chris Wilmer'
_symmetry_space_group_name_H-M	'P1'
_symmetry_Int_Tables_number	1
_symmetry_cell_setting	triclinic
loop_
_symmetry_equiv_pos_as_xyz
  x,y,z
_cell_length_a	16.625548
_cell_length_b	13.897449
_cell_length_c	13.897441
_cell_angle_alpha	89.978378
_cell_angle_beta	89.978130
_cell_angle_gamma	90.003688
loop_
_atom_site_label
_atom_site_type_symbol
_atom_site_fract_x
_atom_site_fract_y
_atom_site_fract_z
Zn1	Zn	1.232802	-0.383957	-0.545471
Zn2	Zn	1.566135	-0.050623	-0.212137
Zn3	Zn	1.899469	0.282710	0.121196
Zn4	Zn	1.232749	-0.545278	-0.384197
Zn5	Zn	1.566082	-0.211945	-0.050864
Zn6	Zn	1.899416	0.121388	0.282469
Zn7	Zn	1.097961	-0.384002	-0.384186
Zn8	Zn	1.431294	-0.050669	-0.050852
Zn9	Zn	1.764627	0.282665	0.282481
Zn10	Zn	1.097981	-0.545214	-0.545447
Zn11	Zn	1.431314	-0.211881	-0.212113
Zn12	Zn	1.764648	0.121452	0.121220
O13	O	1.165373	-0.464613	-0.464825
O14	O	1.498707	-0.131279	-0.131492
O15	O	1.832040	0.202054	0.201842
O16	O	1.345627	-0.405364	-0.524092
O17	O	1.678961	-0.072031	-0.190759
O18	O	2.012294	0.261303	0.142574
O19	O	1.214838	-0.523930	-0.249214
O20	O	1.548172	-0.190597	0.084119
O21	O	1.881505	0.142736	0.417453
O22	O	1.115862	-0.249014	-0.405586
O23	O	1.449195	0.084319	-0.072252
O24	O	1.782528	0.417652	0.261081
O25	O	1.345588	-0.523886	-0.405605
O26	O	1.678922	-0.190553	-0.072272
O27	O	2.012255	0.142780	0.261061
O28	O	1.214929	-0.248981	-0.524081
O29	O	1.548262	0.084352	-0.190748
O30	O	1.881596	0.417686	0.142586
O31	O	1.115810	-0.405441	-0.249206
O32	O	1.449143	-0.072108	0.084128
O33	O	1.782477	0.261225	0.417461
O34	O	0.985131	-0.405379	-0.405563
O35	O	1.318464	-0.072046	-0.072229
O36	O	1.651798	0.261287	0.261104
O37	O	1.115896	-0.523777	-0.680432
O38	O	1.449229	-0.190444	-0.347098
O39	O	1.782563	0.142889	-0.013765
O40	O	0.985146	-0.523821	-0.524040
O41	O	1.318479	-0.190488	-0.190707
O42	O	1.651813	0.142845	0.142626
O43	O	1.214948	-0.405302	-0.680449
O44	O	1.548282	-0.071969	-0.347116
O45	O	1.881615	0.261365	-0.013783
O46	O	1.214858	-0.680251	-0.405582
O47	O	1.548191	-0.346918	-0.072249
O48	O	1.881525	-0.013585	0.261084
O49	O	1.115844	-0.680204	-0.524051
O50	O	1.449178	-0.346871	-0.190718
O51	O	1.782511	-0.013538	0.142615
C52	C	0.955882	-0.464599	-0.464798
C53	C	1.289216	-0.131266	-0.131465
C54	C	1.622549	0.202068	0.201869
C55	C	0.866261	-0.464616	-0.464810
C56	C	1.199595	-0.131283	-0.131476
C57	C	1.532928	0.202050	0.201857
C58	C	1.165369	-0.715227	-0.464837
C59	C	1.498703	-0.381894	-0.131503
C60	C	1.832036	-0.048560	0.201830
C61	C	1.165442	-0.822441	-0.464874
C62	C	1.498775	-0.489108	-0.131540
C63	C	1.832108	-0.155774	0.201793
C64	C	1.165430	-0.464527	-0.716418
C65	C	1.498764	-0.131194	-0.383085
C66	C	1.832097	0.202139	-0.049752
C67	C	1.165455	-0.464491	-0.823632
C68	C	1.498788	-0.131158	-0.490299
C69	C	1.832121	0.202176	-0.156966
C70	C	0.538086	-0.464623	-0.464851
C71	C	0.871419	-0.131289	-0.131517
C72	C	1.204752	0.202044	0.201816
C73	C	0.629394	-0.464618	-0.464836
C74	C	0.962727	-0.131285	-0.131503
C75	C	1.296061	0.202048	0.201830
C76	C	0.702170	-0.464620	-0.464829
C77	C	1.035504	-0.131287	-0.131496
C78	C	1.368837	0.202047	0.201837
C79	C	0.793485	-0.464615	-0.464816
C80	C	1.126818	-0.131281	-0.131483
C81	C	1.460151	0.202052	0.201850
C82	C	1.375682	-0.464627	-0.464853
C83	C	1.709015	-0.131294	-0.131519
C84	C	2.042349	0.202039	0.201814
C85	C	1.465303	-0.464633	-0.464865
C86	C	1.798636	-0.131300	-0.131531
C87	C	2.131970	0.202033	0.201802
C88	C	1.165399	-0.213020	-0.464835
C89	C	1.498732	0.120314	-0.131501
C90	C	1.832066	0.453647	0.201832
C91	C	1.165410	-0.105806	-0.464839
C92	C	1.498743	0.227527	-0.131506
C93	C	1.832077	0.560861	0.201828
C94	C	1.165434	0.090489	-0.464870
C95	C	1.498768	0.423823	-0.131536
C96	C	1.832101	0.757156	0.201797
C97	C	1.165423	-0.018743	-0.464856
C98	C	1.498756	0.314590	-0.131522
C99	C	1.832090	0.647923	0.201811
C100	C	1.165477	-0.464426	-1.019927
C101	C	1.498810	-0.131093	-0.686594
C102	C	1.832143	0.202241	-0.353261
C103	C	1.165462	-0.464465	-0.910695
C104	C	1.498795	-0.131132	-0.577362
C105	C	1.832129	0.202202	-0.244028
C106	C	1.165363	-0.464628	-0.214211
C107	C	1.498696	-0.131295	0.119123
C108	C	1.832029	0.202039	0.452456
C109	C	1.165494	-0.464393	-0.106997
C110	C	1.498828	-0.131059	0.226336
C111	C	1.832161	0.202274	0.559669
