data_functionalizedCrystal
_audit_creation_method	'MofGen! by Chris Wilmer'
_symmetry_space_group_name_H-M	'P1'
_symmetry_Int_Tables_number	1
_symmetry_cell_setting	triclinic
loop_
_symmetry_equiv_pos_as_xyz
  x,y,z
_cell_length_a	11.792241
_cell_length_b	10.654562
_cell_length_c	9.730223
_cell_angle_alpha	89.996961
_cell_angle_beta	89.998500
_cell_angle_gamma	84.341760
loop_
_atom_site_label
_atom_site_type_symbol
_atom_site_fract_x
_atom_site_fract_y
_atom_site_fract_z
O1	O	0.159484	1.667374	-0.114381
O2	O	0.659484	2.167374	0.385619
O3	O	0.174657	1.301854	-0.114364
O4	O	0.674657	1.801854	0.385636
O5	O	0.001921	1.493484	-0.114363
O6	O	0.501921	1.993484	0.385637
O7	O	0.332220	1.475744	-0.114382
O8	O	0.832220	1.975744	0.385618
O9	O	0.001925	1.493482	0.114217
O10	O	0.501925	1.993482	0.614217
O11	O	0.174661	1.301852	0.114216
O12	O	0.674661	1.801852	0.614216
O13	O	0.159488	1.667371	0.114199
O14	O	0.659488	2.167371	0.614199
Zn15	Zn	0.167075	1.484611	0.150499
Zn16	Zn	0.667075	1.984611	0.650499
Zn17	Zn	0.167070	1.484614	-0.150664
Zn18	Zn	0.667070	1.984614	0.349336
O19	O	0.332224	1.475742	0.114198
O20	O	0.832224	1.975742	0.614198
C21	C	0.173542	1.255059	-0.000072
C22	C	0.673542	1.755059	0.499928
C23	C	0.170200	1.115626	-0.000065
C24	C	0.670200	1.615626	0.499935
C25	C	0.168643	1.050098	0.124523
C26	C	0.668643	1.550098	0.624523
C27	C	0.165512	0.919085	0.124500
C28	C	0.665512	1.419085	0.624500
C29	C	0.165498	0.919137	-0.124710
C30	C	0.665498	1.419137	0.375290
C31	C	0.168622	1.050149	-0.124686
C32	C	0.668622	1.550149	0.375314
C33	C	0.168656	1.050066	0.268403
C34	C	0.668656	1.550066	0.768403
C35	C	0.165524	0.919053	0.268380
C36	C	0.665524	1.419053	0.768380
C37	C	-0.040371	1.492369	-0.000074
C38	C	0.459629	1.992369	0.499926
C39	C	-0.166392	1.489033	-0.000075
C40	C	0.333608	1.989033	0.499925
C41	C	-0.397119	1.482900	-0.000098
C42	C	0.102881	1.982900	0.499902
C43	C	-0.268726	1.486308	-0.000085
C44	C	0.231274	1.986308	0.499915
C45	C	0.374516	1.476857	-0.000094
C46	C	0.874516	1.976857	0.499906
C47	C	0.500537	1.480192	-0.000102
C48	C	1.000537	1.980192	0.499898
C49	C	0.160603	1.714167	-0.000096
C50	C	0.660603	2.214167	0.499904
C51	C	0.163945	1.853600	-0.000112
C52	C	0.663945	2.353600	0.499888
N53	N	0.167079	1.484619	0.356036
N54	N	0.667079	1.984619	0.856036
N55	N	0.167057	1.484617	-0.356201
N56	N	0.667057	1.984617	0.143799
C57	C	0.090617	1.569494	0.427962
C58	C	0.590617	2.069494	0.927962
C59	C	0.090603	1.569491	0.571845
C60	C	0.590603	2.069491	1.071845
C61	C	0.243522	1.399732	0.571863
C62	C	0.743522	1.899732	1.071863
C63	C	0.243530	1.399731	0.427982
C64	C	0.743530	1.899731	0.927982
C65	C	0.002333	1.667507	0.427953
C66	C	0.502333	2.167507	0.927953
C67	C	0.002320	1.667503	0.571836
C68	C	0.502320	2.167503	1.071836
H69	H	0.082747	0.889698	0.313031
H70	H	0.582747	1.389698	0.813031
H71	H	0.305766	1.330618	0.630457
H72	H	0.805766	1.830618	1.130457
C73	C	0.163768	0.847100	-0.261785
C74	C	0.663768	1.347100	0.238215
N75	N	0.162467	0.792843	-0.365034
N76	N	0.662467	1.292843	0.134966
C77	C	-0.109049	1.626582	0.632125
C78	C	0.390951	2.126582	1.132125
N79	N	-0.192927	1.595752	0.677537
N80	N	0.307073	2.095752	1.177537
H81	H	0.169872	1.103499	-0.226137
H82	H	0.669872	1.603499	0.273863
C83	C	0.062687	1.112866	0.343045
C84	C	0.562687	1.612866	0.843045
N85	N	-0.017128	1.160167	0.399261
N86	N	0.482872	1.660167	0.899261
H87	H	0.021771	1.763959	0.610881
H88	H	0.521771	2.263959	1.110881
C89	C	0.280480	1.089710	0.328724
C90	C	0.780480	1.589710	0.828724
N91	N	0.364707	1.119571	0.374159
N92	N	0.864707	1.619571	0.874159
C93	C	0.271660	0.856194	0.342646
C94	C	0.771660	1.356194	0.842646
N95	N	0.351658	0.808841	0.398457
N96	N	0.851658	1.308841	0.898457
C97	C	0.327731	1.306458	0.348868
C98	C	0.827731	1.806458	0.848868
N99	N	0.391189	1.236239	0.289280
N100	N	0.891189	1.736239	0.789280
C101	C	-0.115521	1.638863	0.375195
C102	C	0.384479	2.138863	0.875195
N103	N	-0.204287	1.617285	0.335457
N104	N	0.295713	2.117285	0.835457
H105	H	0.029981	1.758612	0.383321
H106	H	0.529981	2.258612	0.883321
