data_functionalizedCrystal
_audit_creation_method	'MofGen! by Chris Wilmer'
_symmetry_space_group_name_H-M	'P1'
_symmetry_Int_Tables_number	1
_symmetry_cell_setting	triclinic
loop_
_symmetry_equiv_pos_as_xyz
  x,y,z
_cell_length_a	23.532407
_cell_length_b	17.038272
_cell_length_c	22.010155
_cell_angle_alpha	89.997018
_cell_angle_beta	90.009453
_cell_angle_gamma	86.980117
loop_
_atom_site_label
_atom_site_type_symbol
_atom_site_fract_x
_atom_site_fract_y
_atom_site_fract_z
O1	O	-0.760256	-0.094865	-0.050450
O2	O	-0.595114	-0.108592	-0.050467
O3	O	-0.676704	0.012080	-0.050454
O4	O	-0.678667	-0.215537	-0.050463
O5	O	-0.676678	0.012064	0.050597
O6	O	-0.595089	-0.108608	0.050583
O7	O	-0.760231	-0.094881	0.050601
Cu8	Cu	-0.677657	-0.101746	0.059819
Cu9	Cu	-0.677688	-0.101727	-0.059685
O10	O	-0.678641	-0.215552	0.050587
C11	C	-0.573867	-0.108251	0.000055
C12	C	-0.510595	-0.107200	0.000049
C13	C	-0.781478	-0.095222	0.000076
C14	C	-0.844750	-0.096273	0.000079
N15	N	-0.677640	-0.101758	0.143871
C16	C	-0.114900	-0.172019	0.000074
C17	C	-0.055448	-0.171042	0.000077
O18	O	-0.021862	-0.231130	0.000097
N19	N	-0.029050	-0.099303	0.000079
C20	C	-0.062108	-0.028535	0.000084
O21	O	-0.034195	0.032574	0.000086
C22	C	-0.121558	-0.029512	0.000084
C23	C	-0.147952	-0.101256	0.000076
C24	C	-0.141294	-0.243757	0.000066
C25	C	-0.200742	-0.244733	0.000061
C26	C	-0.233794	-0.173971	0.000064
C27	C	-0.207400	-0.102232	0.000071
C28	C	-0.154614	0.041254	0.000093
C29	C	-0.214068	0.040271	0.000094
C30	C	-0.240463	-0.031473	0.000086
C31	C	-0.299900	-0.032446	0.000069
N32	N	-0.326298	-0.104186	0.000067
C33	C	-0.293245	-0.174948	0.000064
C34	C	0.062743	-0.026489	0.000083
C35	C	0.122192	-0.025511	0.000079
C36	C	0.128847	-0.168018	0.000073
C37	C	0.069397	-0.168995	0.000074
C38	C	0.036345	-0.098228	0.000082
C39	C	-0.418089	-0.176992	0.000054
C40	C	-0.477542	-0.177962	0.000046
C41	C	-0.484192	-0.035455	0.000055
C42	C	-0.424745	-0.034485	0.000059
C43	C	-0.391694	-0.105260	0.000060
O44	O	-0.333522	0.027610	0.000052
O45	O	-0.321165	-0.236047	0.000070
C46	C	-0.674906	0.041187	0.000071
C47	C	-0.669579	0.127940	0.000070
C48	C	-0.680439	-0.244660	0.000061
C49	C	-0.685766	-0.331413	0.000058
C50	C	-0.718484	0.178417	0.000076
C51	C	-0.713475	0.259930	0.000070
C52	C	-0.659562	0.290965	0.000062
C53	C	-0.610654	0.240483	0.000054
C54	C	-0.615662	0.158971	0.000056
C55	C	-0.641866	0.536592	0.000052
C56	C	-0.636861	0.618111	0.000052
C57	C	-0.739684	0.637552	0.000066
C58	C	-0.744688	0.556038	0.000072
C59	C	-0.695779	0.505562	0.000061
C60	C	-0.654441	0.374285	0.000058
C61	C	-0.700901	0.422244	0.000061
C62	C	-0.640848	-0.054567	0.436474
C63	C	-0.640843	-0.054570	0.372866
O64	O	-0.609541	-0.014443	0.339967
N65	N	-0.677660	-0.101737	0.341055
C66	C	-0.714488	-0.148899	0.372855
O67	O	-0.745803	-0.189018	0.339956
C68	C	-0.714495	-0.148892	0.436461
C69	C	-0.677671	-0.101727	0.468269
C70	C	-0.604028	-0.007406	0.468282
C71	C	-0.604032	-0.007404	0.531885
C72	C	-0.640855	-0.054565	0.563680
C73	C	-0.677675	-0.101726	0.531872
C74	C	-0.751325	-0.196049	0.468260
C75	C	-0.751329	-0.196037	0.531870
C76	C	-0.714505	-0.148873	0.563678
C77	C	-0.714503	-0.148885	0.627271
N78	N	-0.677686	-0.101717	0.659082
C79	C	-0.640862	-0.054557	0.627287
C80	C	-0.714471	-0.148910	0.239277
C81	C	-0.714462	-0.148922	0.175672
C82	C	-0.640818	-0.054591	0.175688
C83	C	-0.640825	-0.054584	0.239294
C84	C	-0.677655	-0.101742	0.271088
C85	C	-0.640872	-0.054559	0.760858
C86	C	-0.640878	-0.054564	0.824467
C87	C	-0.714524	-0.148891	0.824446
C88	C	-0.714516	-0.148889	0.760842
C89	C	-0.677689	-0.101717	0.729050
O90	O	-0.745790	-0.188988	0.660210
O91	O	-0.609557	-0.014437	0.660193
N92	N	-0.677701	-0.101724	0.856262
H93	H	-0.499029	-0.236387	0.000039
H94	H	-0.511115	0.022158	0.000054
H95	H	-0.222226	-0.303154	0.000054
O96	O	-0.776634	0.144943	0.000079
H97	H	-0.809798	0.193740	0.000074
O98	O	0.040930	-0.246375	0.000069
H99	H	0.014010	-0.250235	0.041255
H100	H	-0.574048	0.031005	0.557778
O101	O	-0.552502	0.273950	0.000052
H102	H	-0.557233	0.339111	0.000061
O103	O	-0.562915	0.104525	0.000051
H104	H	-0.562729	0.066916	0.041235
H105	H	0.143677	0.032911	0.000076
H106	H	-0.781321	-0.234439	0.557754
O107	O	-0.126161	0.118641	0.000109
H108	H	-0.099244	0.122525	-0.041077
H109	H	-0.753299	0.301025	0.000076
O110	O	-0.578711	0.651594	0.000042
H111	H	-0.555033	0.631304	-0.041153
H112	H	-0.781311	-0.234454	0.442373
H113	H	-0.240977	0.097900	0.000101
H114	H	-0.610834	-0.016191	0.149789
H115	H	-0.744797	0.396972	0.000054
H116	H	-0.744493	-0.187306	0.734943
O117	O	-0.589113	0.482165	0.000048
H118	H	-0.588937	0.444571	-0.041141
O119	O	0.164502	-0.244345	0.000081
H120	H	0.210275	-0.231606	0.000090
H121	H	-0.610889	-0.016157	0.850362
O122	O	-0.596291	0.407758	0.000052
H123	H	-0.572590	0.387447	0.041236
H124	H	-0.403253	0.023935	0.000057
H125	H	-0.574041	0.031002	0.442401
O126	O	-0.802836	0.522560	0.000080
H127	H	-0.807583	0.485884	-0.041102
H128	H	-0.610884	-0.016146	0.734981
H129	H	-0.779502	0.678658	0.000074
O130	O	-0.754246	-0.199741	0.858750
H131	H	-0.728995	-0.241929	0.887748
O132	O	-0.754189	-0.199788	0.273569
H133	H	-0.779782	-0.232590	0.240758
O134	O	-0.382445	-0.253325	0.000050
H135	H	-0.410795	-0.303367	0.000038
O136	O	0.027094	0.049843	0.000083
H137	H	0.055442	0.099886	0.000079
H138	H	-0.610840	-0.016178	0.265188
H139	H	-0.744441	-0.187338	0.149779
O140	O	-0.105648	-0.320085	0.000061
H141	H	-0.133999	-0.370125	0.000052
