data_functionalizedCrystal
_audit_creation_method	'MofGen! by Chris Wilmer'
_symmetry_space_group_name_H-M	'P1'
_symmetry_Int_Tables_number	1
_symmetry_cell_setting	triclinic
loop_
_symmetry_equiv_pos_as_xyz
  x,y,z
_cell_length_a	11.026660
_cell_length_b	12.837942
_cell_length_c	10.065875
_cell_angle_alpha	99.723749
_cell_angle_beta	79.302288
_cell_angle_gamma	101.706887
loop_
_atom_site_label
_atom_site_type_symbol
_atom_site_fract_x
_atom_site_fract_y
_atom_site_fract_z
O1	O	1.677802	0.431456	-0.113505
O2	O	1.318657	0.380940	-0.113505
O3	O	1.490265	0.253810	-0.113497
O4	O	1.506194	0.558586	-0.113513
O5	O	1.457556	0.278176	0.113491
O6	O	1.285948	0.405306	0.113482
O7	O	1.645093	0.455822	0.113482
Zn8	Zn	1.460327	0.434433	0.149521
Zn9	Zn	1.503423	0.402329	-0.149544
O10	O	1.473485	0.582952	0.113474
C11	C	1.256014	0.383803	-0.000011
C12	C	1.118088	0.356022	-0.000011
C13	C	0.910601	0.404028	-0.000018
C14	C	1.053154	0.432744	-0.000017
C15	C	1.468530	0.226368	-0.000004
C16	C	1.452483	0.108297	-0.000006
C17	C	1.645403	-0.096667	-0.000034
C18	C	1.630332	-0.207605	-0.000037
C19	C	1.407270	-0.224522	-0.000023
C20	C	1.422342	-0.113583	-0.000020
C21	C	1.541412	-0.049659	-0.000024
C22	C	1.556481	0.061282	-0.000012
C23	C	1.333422	0.044363	-0.000008
C24	C	1.318351	-0.066576	-0.000010
C25	C	1.707736	0.452958	-0.000014
C26	C	1.845663	0.480739	-0.000023
C27	C	1.495221	0.610393	-0.000022
C28	C	1.511269	0.728464	-0.000029
N29	N	1.430925	0.456344	0.353625
N30	N	1.532834	0.380411	-0.353648
C31	C	1.493184	0.409944	0.421407
C32	C	1.470566	0.426818	0.578573
H33	H	1.103089	0.519685	-0.000013
H34	H	1.360872	0.508555	0.411948
Cl35	Cl	1.795081	-0.016298	-0.000005
Cl36	Cl	1.761070	-0.266697	-0.000054
Cl37	Cl	0.922756	0.614965	-0.000019
Cl38	Cl	1.257601	-0.304905	-0.000058
H39	H	1.221408	-0.118638	-0.000012
H40	H	0.860656	0.317096	0.000007
H41	H	1.400508	0.479033	0.636891
H42	H	1.248743	0.082649	0.000011
H43	H	1.602881	0.328187	0.588034
Cl44	Cl	1.601028	0.329035	0.331372
H45	H	1.068167	0.269071	-0.000097
H46	H	1.653433	0.113329	-0.000010
