data_functionalizedCrystal
_audit_creation_method	'MofGen! by Chris Wilmer'
_symmetry_space_group_name_H-M	'P1'
_symmetry_Int_Tables_number	1
_symmetry_cell_setting	triclinic
loop_
_symmetry_equiv_pos_as_xyz
  x,y,z
_cell_length_a	21.395364
_cell_length_b	18.050589
_cell_length_c	21.395355
_cell_angle_alpha	89.987098
_cell_angle_beta	89.975273
_cell_angle_gamma	90.026554
loop_
_atom_site_label
_atom_site_type_symbol
_atom_site_fract_x
_atom_site_fract_y
_atom_site_fract_z
Zn1	Zn	0.957870	-0.295779	-0.354289
Zn2	Zn	0.957777	-0.419950	-0.249522
Zn3	Zn	0.853085	-0.295775	-0.249525
Zn4	Zn	0.853059	-0.419928	-0.354261
O5	O	0.905448	-0.357858	-0.301899
O6	O	1.045535	-0.312261	-0.340401
O7	O	0.943861	-0.403486	-0.161844
O8	O	0.867035	-0.191851	-0.263435
O9	O	1.045467	-0.403490	-0.263429
O10	O	0.944020	-0.191853	-0.340405
O11	O	0.866945	-0.312255	-0.161847
O12	O	0.765403	-0.312233	-0.263409
O13	O	0.866990	-0.403451	-0.441943
O14	O	0.765384	-0.403448	-0.340358
O15	O	0.943994	-0.312239	-0.441963
O16	O	0.943836	-0.523872	-0.263403
O17	O	0.866900	-0.523855	-0.340354
C18	C	0.742660	-0.357838	-0.301881
C19	C	0.673019	-0.357847	-0.301888
C20	C	0.171229	-0.405440	-0.341928
C21	C	0.236664	-0.405440	-0.341921
C22	C	0.269380	-0.357874	-0.301919
C23	C	0.236656	-0.310318	-0.261909
C24	C	0.171221	-0.310324	-0.261912
C25	C	0.373067	-0.290946	-0.297062
C26	C	0.438500	-0.290938	-0.297063
C27	C	0.471201	-0.357855	-0.301905
C28	C	0.438462	-0.424781	-0.306759
C29	C	0.373027	-0.424787	-0.306763
C30	C	0.340333	-0.357862	-0.301911
C31	C	0.574871	-0.405412	-0.341903
C32	C	0.640307	-0.405413	-0.341892
C33	C	0.640297	-0.310284	-0.261883
C34	C	0.574862	-0.310289	-0.261890
C35	C	0.542152	-0.357852	-0.301904
C36	C	0.905372	-0.550810	-0.301889
C37	C	0.905397	-0.633356	-0.301905
C38	C	0.863600	-0.832824	-0.343737
C39	C	0.848322	-0.882251	-0.286564
C40	C	0.905458	-0.784486	-0.301913
C41	C	0.920767	-0.882141	-0.359093
C42	C	0.905517	-0.930471	-0.301926
C43	C	0.890150	-0.832826	-0.244710
C44	C	0.962622	-0.832711	-0.317278
C45	C	0.947366	-0.882116	-0.260065
C46	C	0.905423	-0.700388	-0.301907
C47	C	0.905552	-1.014568	-0.301927
C48	C	1.068871	-0.357878	-0.301918
C49	C	1.138512	-0.357887	-0.301926
C50	C	0.905500	-0.357843	-0.465323
C51	C	0.905522	-0.357836	-0.534964
C52	C	0.905541	-0.164152	-0.301923
C53	C	0.905580	-0.081606	-0.301934
C54	C	0.945616	-0.310340	-0.567688
C55	C	0.945615	-0.310309	-0.633124
C56	C	0.905527	-0.357786	-0.665832
C57	C	0.865424	-0.405285	-0.633100
C58	C	0.865422	-0.405310	-0.567666
C59	C	0.900553	-0.424655	-0.769503
C60	C	0.900560	-0.424631	-0.834936
C61	C	0.905530	-0.357707	-0.867653
C62	C	0.910507	-0.290806	-0.834929
C63	C	0.910505	-0.290831	-0.769495
C64	C	0.905525	-0.357763	-0.736785
C65	C	0.945626	-0.310173	-0.971330
C66	C	0.945621	-0.310140	-1.036767
C67	C	0.865433	-0.405123	-1.036742
C68	C	0.865435	-0.405149	-0.971306
C69	C	0.905535	-0.357675	-0.938604
C70	C	0.905432	-0.357819	-0.139112
C71	C	0.905531	-0.357616	-0.069471
H72	H	0.144584	-0.271599	-0.229337
C73	C	0.821330	-0.457403	-0.935308
N74	N	0.788107	-0.496760	-0.908194
C75	C	0.895097	-0.498282	-0.733521
N76	N	0.890992	-0.553736	-0.706421
H77	H	0.832782	-0.443939	-0.659735
H78	H	0.978264	-0.271628	-0.659773
H79	H	0.832786	-0.443772	-1.063372
H80	H	0.828150	-0.811180	-0.379056
H81	H	1.010926	-0.810936	-0.330289
H82	H	0.933693	-0.903802	-0.407444
H83	H	0.877169	-0.811254	-0.196346
H84	H	0.978270	-0.271458	-1.063410
H85	H	0.832769	-0.443986	-0.541022
C86	C	0.915974	-0.217184	-0.870912
N87	N	0.920092	-0.161734	-0.898018
H88	H	0.896511	-0.479106	-0.861575
C89	C	0.995219	-0.911177	-0.212237
N90	N	1.031259	-0.933069	-0.176210
H91	H	0.144601	-0.444172	-0.374508
C92	C	0.989731	-0.257944	-0.935356
N93	N	1.022950	-0.218604	-0.908262
H94	H	0.914556	-0.236358	-0.742853
C95	C	0.989719	-0.258108	-0.531720
N96	N	1.022935	-0.218762	-0.504628
C97	C	0.783048	-0.911649	-0.269010
N98	N	0.733883	-0.933790	-0.255793
H99	H	0.346373	-0.479281	-0.310713
C100	C	0.272660	-0.457749	-0.385933
N101	N	0.299770	-0.497147	-0.419085
H102	H	0.666934	-0.271557	-0.229310
C103	C	0.538888	-0.457737	-0.385913
N104	N	0.511788	-0.497149	-0.419062
C105	C	0.474428	-0.498395	-0.312085
N106	N	0.501521	-0.553839	-0.316098
C107	C	0.474507	-0.217318	-0.291725
N108	N	0.501626	-0.161866	-0.287702
C109	C	0.676296	-0.457732	-0.385897
N110	N	0.703402	-0.497140	-0.419042
H111	H	0.548224	-0.271564	-0.229318
H112	H	0.346447	-0.236452	-0.293109
H113	H	0.263297	-0.271590	-0.229338
