data_functionalizedCrystal
_audit_creation_method	'MofGen! by Chris Wilmer'
_symmetry_space_group_name_H-M	'P1'
_symmetry_Int_Tables_number	1
_symmetry_cell_setting	triclinic
loop_
_symmetry_equiv_pos_as_xyz
  x,y,z
_cell_length_a	6.394989
_cell_length_b	16.109301
_cell_length_c	14.586319
_cell_angle_alpha	90.000787
_cell_angle_beta	90.000822
_cell_angle_gamma	84.979596
loop_
_atom_site_label
_atom_site_type_symbol
_atom_site_fract_x
_atom_site_fract_y
_atom_site_fract_z
O1	O	-0.268480	-1.105973	-0.076176
O2	O	-0.301892	-0.864265	-0.076190
O3	O	0.018881	-0.988550	-0.076184
O4	O	-0.589253	-0.981688	-0.076183
O5	O	0.018885	-0.988541	0.076297
O6	O	-0.301887	-0.864256	0.076291
O7	O	-0.268475	-1.105964	0.076305
Cu8	Cu	-0.285181	-0.985109	0.090220
Cu9	Cu	-0.285186	-0.985120	-0.090106
O10	O	-0.589248	-0.981679	0.076298
C11	C	-0.300536	-0.833271	0.000048
C12	C	-0.296479	-0.740933	0.000043
C13	C	-0.269831	-1.136958	0.000064
C14	C	-0.273889	-1.229296	0.000063
N15	N	-0.285176	-0.985108	0.217052
C16	C	0.096703	-0.987189	0.000053
C17	C	0.332935	-0.983042	0.000052
N18	N	-0.285175	-0.985127	-0.216938
C19	C	-0.477384	-0.520575	0.000054
C20	C	-0.473555	-0.433814	0.000060
C21	C	-0.092969	-0.449660	0.000055
C22	C	-0.096800	-0.536419	0.000056
C23	C	-0.289014	-0.571874	0.000051
C24	C	-0.281354	-0.398354	0.000056
C25	C	-0.277201	-0.304284	0.000062
C26	C	-0.293168	-0.665950	0.000046
C27	C	-0.143185	-1.040160	0.452061
C28	C	-0.143180	-1.040163	0.548043
C29	C	-0.427172	-0.930069	0.548046
C30	C	-0.427166	-0.930063	0.452067
C31	C	-0.285175	-0.985113	0.404077
C32	C	-0.285176	-0.985122	0.596038
C33	C	-0.285172	-0.985124	0.700105
C34	C	-0.285176	-0.985110	0.300003
H35	H	-0.633896	-0.549440	0.000056
C36	C	0.013026	-1.100710	0.399276
N37	N	0.130695	-1.146316	0.359520
C38	C	0.110433	-0.592852	0.000053
N39	N	0.266514	-0.635357	0.000053
C40	C	-0.680778	-0.377389	0.000068
N41	N	-0.836867	-0.334889	0.000076
C42	C	0.013037	-1.100712	0.600821
N43	N	0.130714	-1.146317	0.640574
C44	C	-0.583350	-0.869515	0.600844
N45	N	-0.700986	-0.823904	0.640611
C46	C	-0.583468	-0.869543	0.399281
N47	N	-0.701221	-0.823974	0.359522
H48	H	0.063525	-0.420781	0.000065
