data_functionalizedCrystal
_audit_creation_method	'MofGen! by Chris Wilmer'
_symmetry_space_group_name_H-M	'P1'
_symmetry_Int_Tables_number	1
_symmetry_cell_setting	triclinic
loop_
_symmetry_equiv_pos_as_xyz
  x,y,z
_cell_length_a	10.540539
_cell_length_b	9.016244
_cell_length_c	10.540539
_cell_angle_alpha	89.999933
_cell_angle_beta	95.474508
_cell_angle_gamma	90.005301
loop_
_atom_site_label
_atom_site_type_symbol
_atom_site_fract_x
_atom_site_fract_y
_atom_site_fract_z
O1	O	1.685893	0.123263	-0.178895
O2	O	1.316480	0.123280	-0.195751
O3	O	1.509614	0.123269	-0.002617
O4	O	1.492759	0.123274	-0.372030
O5	O	1.509586	-0.123411	-0.002621
O6	O	1.316452	-0.123400	-0.195755
O7	O	1.685865	-0.123418	-0.178900
Cu8	Cu	1.501156	-0.145933	-0.187328
Cu9	Cu	1.501189	0.145795	-0.187323
O10	O	1.492730	-0.123407	-0.372034
C11	C	1.269163	-0.000058	-0.194489
C12	C	1.128215	-0.000051	-0.190707
N13	N	1.501141	-0.351119	-0.187331
C14	C	0.944788	-0.000628	-0.045790
C15	C	1.091406	-0.000057	-0.049624
C16	C	1.066558	0.140811	-0.258600
C17	C	0.920014	0.140914	-0.253785
C18	C	0.919493	-0.139608	-0.256660
C19	C	1.066475	-0.141455	-0.257960
C20	C	1.397510	-0.586146	-0.290298
C21	C	1.397739	-0.414255	-0.290684
C22	C	1.633864	-0.413464	-0.217464
C23	C	1.633298	-0.585409	-0.218193
C24	C	1.473367	-0.585663	-0.053892
C25	C	1.470322	-0.413709	-0.054757
C26	C	1.733182	-0.000077	-0.180161
C27	C	1.874130	-0.000074	-0.183943
C28	C	1.508336	-0.000068	0.044684
C29	C	1.504554	-0.000060	0.185632
N30	N	1.501213	0.350982	-0.187310
C31	C	1.494008	-0.000066	-0.419335
C32	C	1.497790	-0.000064	-0.560283
C33	C	1.359637	0.000500	0.369059
C34	C	1.363471	-0.000055	0.222441
C35	C	1.572434	-0.140930	0.247287
C36	C	1.567619	-0.141049	0.393832
C37	C	1.570520	0.139473	0.394355
C38	C	1.571820	0.141336	0.247373
H39	H	1.134008	-0.101034	0.003797
H40	H	1.415639	-0.373108	-0.389668
C41	C	1.291322	0.136357	0.164877
H42	H	1.293580	0.136204	0.074989
H43	H	1.205294	0.132884	0.184593
H44	H	1.330599	0.224153	0.199529
C45	C	1.099181	-0.152949	-0.396919
H46	H	1.060667	-0.239330	-0.435159
H47	H	1.068046	-0.067767	-0.442923
H48	H	1.189013	-0.158859	-0.398403
C49	C	1.421374	-0.644480	-0.423263
H50	H	1.494265	-0.706980	-0.416286
H51	H	1.349232	-0.699219	-0.457948
H52	H	1.435375	-0.563218	-0.477581
H53	H	1.299123	-0.372106	-0.272553
H54	H	0.891816	0.246209	-0.203602
H55	H	0.872045	0.147309	-0.355250
H56	H	1.548979	-0.626319	0.022762
C57	C	1.704677	-0.149728	0.458646
H58	H	1.702665	-0.149855	0.548563
H59	H	1.743998	-0.238239	0.433122
H60	H	1.751916	-0.066429	0.434247
H61	H	1.298584	-0.627535	-0.272446
H62	H	0.916191	-0.101649	0.009944
C63	C	1.508851	0.283712	0.436971
H64	H	1.438162	0.260177	0.482831
H65	H	1.569618	0.338713	0.490201
H66	H	1.480693	0.341216	0.364158
H67	H	1.304121	-0.099949	0.399265
C68	C	1.290798	-0.136702	0.166023
H69	H	1.258825	-0.192098	0.232726
H70	H	1.221866	-0.105295	0.107567
H71	H	1.346887	-0.197040	0.122985
H72	H	1.658762	-0.370386	-0.313702
C73	C	1.712394	-0.148029	0.217085
H74	H	1.730715	-0.064949	0.166479
H75	H	1.766733	-0.146728	0.294344
H76	H	1.726070	-0.236788	0.171771
C77	C	0.904003	0.135068	0.029202
H78	H	0.947130	0.133878	0.112560
H79	H	0.925101	0.223283	-0.013364
H80	H	0.814609	0.131743	0.034690
C81	C	1.508695	-0.282545	0.189760
H82	H	1.440728	-0.256123	0.128184
H83	H	1.569667	-0.339546	0.150186
H84	H	1.476338	-0.339320	0.255429
H85	H	1.378630	-0.629106	-0.025213
H86	H	0.872266	-0.140559	-0.358564
C87	C	1.504826	0.282125	0.192072
H88	H	1.436153	0.254865	0.131603
H89	H	1.473050	0.337438	0.258915
H90	H	1.563949	0.340917	0.151552
H91	H	1.657653	-0.625498	-0.315531
C92	C	1.710780	0.152824	0.214664
H93	H	1.729679	0.071167	0.162702
H94	H	1.721948	0.242730	0.170078
H95	H	1.766450	0.151624	0.291046
H96	H	1.672424	0.140416	0.441581
H97	H	1.712941	-0.626995	-0.146204
C98	C	1.096761	0.147911	-0.398561
H99	H	1.147368	0.064836	-0.416874
H100	H	1.019502	0.146600	-0.452900
H101	H	1.142074	0.236675	-0.412245
H102	H	1.133163	0.101092	0.004177
H103	H	1.712919	-0.372564	-0.144501
H104	H	1.109159	0.245643	-0.211434
H105	H	0.887935	-0.246381	-0.211004
H106	H	1.107425	-0.245664	-0.208362
H107	H	1.372684	-0.372962	-0.031916
C108	C	1.284350	0.136954	0.407708
H109	H	1.336490	0.194802	0.467288
H110	H	1.259496	0.194967	0.334294
H111	H	1.210620	0.105269	0.445420
H112	H	1.517429	-0.246347	0.422030
H113	H	1.540849	-0.370737	0.025564
