data_functionalizedCrystal
_audit_creation_method	'MofGen! by Chris Wilmer'
_symmetry_space_group_name_H-M	'P1'
_symmetry_Int_Tables_number	1
_symmetry_cell_setting	triclinic
loop_
_symmetry_equiv_pos_as_xyz
  x,y,z
_cell_length_a	18.101398
_cell_length_b	18.101395
_cell_length_c	19.076919
_cell_angle_alpha	92.272317
_cell_angle_beta	92.285692
_cell_angle_gamma	90.029256
loop_
_atom_site_label
_atom_site_type_symbol
_atom_site_fract_x
_atom_site_fract_y
_atom_site_fract_z
Zn1	Zn	1.115284	-0.311701	-0.397871
Zn2	Zn	1.615284	0.188299	0.102129
Zn3	Zn	1.120161	-0.430570	-0.280179
Zn4	Zn	1.620161	0.069430	0.219821
Zn5	Zn	0.996423	-0.306743	-0.280199
Zn6	Zn	1.496423	0.193257	0.219801
Zn7	Zn	0.991395	-0.435500	-0.397845
Zn8	Zn	1.491395	0.064500	0.102155
O9	O	1.055816	-0.371128	-0.339024
O10	O	1.555816	0.128872	0.160976
O11	O	1.219564	-0.327480	-0.382262
O12	O	1.719564	0.172520	0.117738
O13	O	1.107891	-0.410006	-0.181693
O14	O	1.607891	0.089994	0.318307
O15	O	1.012253	-0.203769	-0.295828
O16	O	1.512253	0.296231	0.204172
O17	O	1.223146	-0.414813	-0.295794
O18	O	1.723146	0.085187	0.204206
O19	O	1.099581	-0.207411	-0.382281
O20	O	1.599581	0.292589	0.117719
O21	O	1.016982	-0.319031	-0.181707
O22	O	1.516982	0.180969	0.318293
O23	O	0.892123	-0.323812	-0.295802
O24	O	1.392123	0.176188	0.204198
O25	O	1.003685	-0.423216	-0.496338
O26	O	1.503685	0.076784	0.003662
O27	O	0.888429	-0.418409	-0.382236
O28	O	1.388429	0.081591	0.117764
O29	O	1.094705	-0.332261	-0.496357
O30	O	1.594705	0.167739	0.003643
O31	O	1.103016	-0.534856	-0.295769
O32	O	1.603016	-0.034856	0.204231
O33	O	1.008413	-0.538478	-0.382217
O34	O	1.508413	-0.038478	0.117783
C35	C	0.863405	-0.371108	-0.339019
C36	C	1.363405	0.128892	0.160981
C37	C	0.781091	-0.371118	-0.339033
C38	C	1.281091	0.128882	0.160967
C39	C	0.630382	-0.371131	-0.339032
C40	C	1.130382	0.128869	0.160968
C41	C	0.596733	-0.430734	-0.393330
C42	C	1.096733	0.069266	0.106670
C43	C	0.511121	-0.430959	-0.393169
C44	C	1.011121	0.069041	0.106831
C45	C	0.482000	-0.371145	-0.339032
C46	C	0.982000	0.128855	0.160968
C47	C	0.516195	-0.388830	-0.264769
C48	C	1.016195	0.111170	0.235231
C49	C	0.601827	-0.389252	-0.265083
C50	C	1.101827	0.110748	0.234917
C51	C	0.598044	-0.293674	-0.358349
C52	C	1.098044	0.206326	0.141651
C53	C	0.512324	-0.294172	-0.359985
C54	C	1.012324	0.205828	0.140015
C55	C	0.398140	-0.371151	-0.339028
C56	C	0.898140	0.128849	0.160972
C57	C	0.714242	-0.371127	-0.339032
C58	C	1.214242	0.128873	0.160968
C59	C	1.055718	-0.563538	-0.339003
C60	C	1.555718	-0.063538	0.160997
C61	C	1.055742	-0.645853	-0.339018
C62	C	1.555742	-0.145853	0.160982
C63	C	1.055903	-0.944945	-0.339056
C64	C	1.555903	-0.444945	0.160944
C65	C	0.996508	-0.915936	-0.393581
C66	C	1.496508	-0.415936	0.106419
C67	C	0.996244	-0.830311	-0.393411
C68	C	1.496244	-0.330311	0.106589
C69	C	1.055823	-0.796562	-0.339037
C70	C	1.555823	-0.296562	0.160963
C71	C	1.037833	-0.824575	-0.264863
C72	C	1.537833	-0.324575	0.235137
C73	C	1.037451	-0.910234	-0.265190
C74	C	1.537451	-0.410234	0.234810
C75	C	1.133441	-0.914095	-0.358051
C76	C	1.633441	-0.414095	0.141949
C77	C	1.132912	-0.828513	-0.359678
C78	C	1.632912	-0.328513	0.140322
C79	C	1.055780	-0.712702	-0.339023
C80	C	1.555780	-0.212702	0.160977
C81	C	1.055945	-1.028805	-0.339065
C82	C	1.555945	-0.528805	0.160935
C83	C	1.248977	-0.371150	-0.339029
C84	C	1.748977	0.128850	0.160971
C85	C	1.331291	-0.371159	-0.339031
C86	C	1.831291	0.128841	0.160969
C87	C	1.048090	-0.378841	-0.522599
C88	C	1.548090	0.121159	-0.022599
C89	C	1.044798	-0.382128	-0.600827
C90	C	1.544798	0.117872	-0.100827
C91	C	1.055934	-0.177968	-0.339060
C92	C	1.555934	0.322032	0.160940
C93	C	1.055984	-0.095655	-0.339075
C94	C	1.555984	0.404345	0.160925
C95	C	1.090639	-0.336319	-0.637591
C96	C	1.590639	0.163681	-0.137591
C97	C	1.087536	-0.339405	-0.711095
C98	C	1.587536	0.160595	-0.211095
C99	C	1.038597	-0.388303	-0.747834
C100	C	1.538597	0.111697	-0.247834
C101	C	0.992751	-0.434114	-0.711066
C102	C	1.492751	0.065886	-0.211066
C103	C	0.995850	-0.431024	-0.637563
C104	C	1.495850	0.068976	-0.137563
C105	C	1.024243	-0.402618	-0.967663
C106	C	1.524243	0.097382	-0.467663
C107	C	1.021149	-0.405706	-1.041171
C108	C	1.521149	0.094294	-0.541171
C109	C	1.115934	-0.310995	-1.041195
C110	C	1.615934	0.189005	-0.541195
C111	C	1.119031	-0.307913	-0.967691
C112	C	1.619031	0.192087	-0.467691
C113	C	1.073183	-0.353721	-0.930929
C114	C	1.573183	0.146279	-0.430929
N115	N	1.035426	-0.391460	-0.822968
N116	N	1.535426	0.108540	-0.322968
N117	N	1.076351	-0.350560	-0.855797
N118	N	1.576351	0.149440	-0.355797
C119	C	1.063554	-0.363392	-0.156163
C120	C	1.563554	0.136608	0.343837
C121	C	1.066989	-0.359897	-0.077935
C122	C	1.566989	0.140103	0.422065
H123	H	0.624337	-0.347527	-0.223240
H124	H	1.124337	0.152473	0.276760
Br125	Br	0.479263	-0.216664	-0.298936
Br126	Br	0.979263	0.283336	0.201064
Br127	Br	0.901189	-0.951055	-0.372894
Br128	Br	1.401189	-0.451055	0.127106
H129	H	1.079005	-0.929175	-0.223179
H130	H	1.579005	-0.429175	0.276821
H131	H	0.617417	-0.276898	-0.411589
H132	H	1.117417	0.223102	0.088411
H133	H	0.619994	-0.249309	-0.318806
H134	H	1.119994	0.250691	0.181194
Br135	Br	1.157066	-0.269959	-0.587737
Br136	Br	1.657066	0.230041	-0.087737
H137	H	1.150455	-0.937893	-0.411217
H138	H	1.650455	-0.437893	0.088783
H139	H	0.622460	-0.445768	-0.248757
H140	H	1.122460	0.054232	0.251243
Br141	Br	0.474650	-0.271835	-0.451079
Br142	Br	0.974650	0.228165	0.048921
Br143	Br	0.627230	-0.413247	-0.485378
Br144	Br	1.127230	0.086753	0.014622
H145	H	0.981294	-0.445527	-1.071083
H146	H	1.481294	0.054473	-0.571083
Br147	Br	1.185455	-0.241550	-0.917835
Br148	Br	1.685455	0.258450	-0.417835
Br149	Br	0.633442	-0.525967	-0.372235
Br150	Br	1.133442	-0.025967	0.127765
Br151	Br	0.485219	-0.318467	-0.195484
Br152	Br	0.985219	0.181533	0.304516
Br153	Br	1.107897	-0.787687	-0.195301
Br154	Br	1.607897	-0.287687	0.304699
Br155	Br	0.477813	-0.526742	-0.371832
Br156	Br	0.977813	-0.026742	0.128168
H157	H	0.952901	-0.473926	-0.740985
H158	H	1.452901	0.026074	-0.240985
Br159	Br	0.944548	-0.787779	-0.237559
Br160	Br	1.444548	-0.287779	0.262441
Br161	Br	0.481563	-0.481966	-0.237086
Br162	Br	0.981563	0.018034	0.262914
H163	H	1.007136	-0.811574	-0.448410
H164	H	1.507136	-0.311574	0.051590
Br165	Br	1.149786	-0.277267	-0.760986
Br166	Br	1.649786	0.222733	-0.260986
H167	H	1.177654	-0.932666	-0.318338
H168	H	1.677654	-0.432666	0.181662
H169	H	1.153260	-0.273700	-1.071135
H170	H	1.653260	0.226300	-0.571135
H171	H	1.146535	-0.810460	-0.414266
H172	H	1.646535	-0.310460	0.085734
Br173	Br	1.210156	-0.790224	-0.298316
Br174	Br	1.710156	-0.290224	0.201684
H175	H	0.986921	-0.439929	-0.937740
H176	H	1.486921	0.060071	-0.437740
H177	H	0.958514	-0.468319	-0.607631
H178	H	1.458514	0.031681	-0.107631
H179	H	0.487797	-0.420296	-0.448225
H180	H	0.987797	0.079704	0.051775
Br181	Br	0.900344	-0.795373	-0.372446
Br182	Br	1.400344	-0.295373	0.127554
Br183	Br	1.014425	-0.954076	-0.485552
Br184	Br	1.514425	-0.454076	0.014448
Br185	Br	0.943138	-0.942506	-0.238368
Br186	Br	1.443138	-0.442506	0.261632
