data_functionalizedCrystal
_audit_creation_method	'MofGen! by Chris Wilmer'
_symmetry_space_group_name_H-M	'P1'
_symmetry_Int_Tables_number	1
_symmetry_cell_setting	triclinic
loop_
_symmetry_equiv_pos_as_xyz
  x,y,z
_cell_length_a	6.817900
_cell_length_b	11.102288
_cell_length_c	15.301140
_cell_angle_alpha	93.594860
_cell_angle_beta	104.177739
_cell_angle_gamma	108.605689
loop_
_atom_site_label
_atom_site_type_symbol
_atom_site_fract_x
_atom_site_fract_y
_atom_site_fract_z
V1	V	-4.060643	-0.176699	-0.281145
O2	O	-4.020645	0.007606	-0.275793
O3	O	-4.037769	-0.349514	-0.279222
O4	O	-4.015231	-0.174370	-0.403762
O5	O	-4.043338	-0.168751	-0.150391
V6	V	-4.540577	-0.154608	-0.265506
O7	O	-4.329776	-0.225158	-0.315451
O8	O	-4.721642	-0.106150	-0.231200
O9	O	-4.340245	0.018206	-0.267429
O10	O	-4.697973	-0.338914	-0.270858
O11	O	-4.675279	-0.162557	-0.396260
O12	O	-4.362783	-0.156938	-0.142889
C13	C	-3.888882	-0.391630	-0.274787
C14	C	-3.951486	-0.532911	-0.274032
C15	C	-4.164091	-0.605772	-0.278176
C16	C	-4.222906	-0.738521	-0.277474
C17	C	-3.856488	-0.725535	-0.268480
C18	C	-3.797679	-0.592790	-0.269189
C19	C	-3.860132	-0.168215	-0.433649
C20	C	-3.904455	-0.167454	-0.533889
C21	C	-4.108458	-0.173459	-0.585576
C22	C	-4.150092	-0.172743	-0.679761
C23	C	-3.987724	-0.166031	-0.722260
C24	C	-3.783701	-0.160021	-0.670566
C25	C	-3.742066	-0.160728	-0.576381
C26	C	-3.870497	-0.158551	-0.866878
C27	C	-3.912136	-0.157846	-0.961070
C28	C	-4.278523	-0.170566	-0.970259
C29	C	-4.236888	-0.171273	-0.876073
C30	C	-4.032868	-0.165266	-0.824386
C31	C	-4.152474	0.060316	-0.271861
C32	C	-4.069109	0.201595	-0.272622
C33	C	-4.181224	-0.163097	-0.112997
C34	C	-4.116139	-0.163852	-0.012756
H35	H	-4.396025	-0.797839	-0.280851
Cl36	Cl	-4.312601	-0.181907	-0.532160
H37	H	-3.731271	-0.774305	-0.264535
Cl38	Cl	-3.614005	-0.150983	-0.801899
Cl39	Cl	-3.485588	-0.153166	-0.511401
Cl40	Cl	-4.441018	-0.179724	-0.822649
H41	H	-3.624547	-0.533465	-0.265817
Cl42	Cl	-4.535004	-0.178118	-1.035236
Cl43	Cl	-4.406571	-0.180311	-0.744737
Cl44	Cl	-3.579580	-0.151583	-0.723993
Cl45	Cl	-4.357453	-0.530501	-0.284274
Cl46	Cl	-3.708008	-0.149399	-1.014494
