data_functionalizedCrystal
_audit_creation_method	'MofGen! by Chris Wilmer'
_symmetry_space_group_name_H-M	'P1'
_symmetry_Int_Tables_number	1
_symmetry_cell_setting	triclinic
loop_
_symmetry_equiv_pos_as_xyz
  x,y,z
_cell_length_a	16.109301
_cell_length_b	15.995350
_cell_length_c	15.186229
_cell_angle_alpha	89.998487
_cell_angle_beta	89.999362
_cell_angle_gamma	83.476928
loop_
_atom_site_label
_atom_site_type_symbol
_atom_site_fract_x
_atom_site_fract_y
_atom_site_fract_z
O1	O	1.103160	0.107624	-0.073168
O2	O	0.861101	0.121018	-0.073182
O3	O	0.988747	-0.007569	-0.073174
O4	O	0.975514	0.236210	-0.073176
O5	O	0.988739	-0.007570	0.073283
O6	O	0.861093	0.121016	0.073275
O7	O	1.103151	0.107622	0.073289
Zn8	Zn	0.982121	0.114319	0.096535
Zn9	Zn	0.982132	0.114321	-0.096428
O10	O	0.975505	0.236208	0.073281
C11	C	0.830122	0.120474	0.000045
C12	C	0.737826	0.118848	0.000040
C13	C	0.515573	0.191366	0.000049
C14	C	0.428853	0.189831	0.000055
C15	C	0.448686	0.037268	0.000053
C16	C	0.535405	0.038804	0.000053
C17	C	0.568846	0.115855	0.000047
C18	C	0.395406	0.112785	0.000052
C19	C	0.301380	0.111120	0.000058
C20	C	0.662879	0.117520	0.000043
C21	C	0.988196	-0.038764	0.000053
C22	C	0.986556	-0.131714	0.000048
C23	C	0.980665	-0.469460	0.000050
C24	C	0.889758	-0.422001	-0.000283
C25	C	0.891399	-0.325311	0.000047
C26	C	0.983587	-0.301900	0.000049
C27	C	1.028421	-0.342991	0.083684
C28	C	1.026137	-0.439626	0.083754
C29	C	1.028025	-0.439983	-0.082795
C30	C	1.028003	-0.343037	-0.083901
C31	C	0.985243	-0.207203	0.000051
C32	C	0.979012	-0.564157	0.000054
C33	C	1.134130	0.108166	0.000060
C34	C	1.226426	0.109792	0.000059
C35	C	0.976056	0.267404	0.000052
C36	C	0.977697	0.360354	0.000051
N37	N	0.982119	0.114317	0.228228
N38	N	0.982140	0.114317	-0.228121
C39	C	1.038660	0.057398	0.453954
C40	C	1.038662	0.057396	0.546144
C41	C	0.925593	0.171238	0.546146
C42	C	0.925587	0.171236	0.453958
C43	C	0.982125	0.114316	0.407865
C44	C	0.982134	0.114317	0.592242
C45	C	0.982136	0.114315	0.692198
C46	C	0.982122	0.114317	0.307902
H47	H	0.421447	-0.025465	0.000063
H48	H	0.578782	-0.022690	0.000054
C49	C	1.100854	-0.005211	0.596839
H50	H	1.134526	-0.039104	0.556181
H51	H	1.070954	-0.040077	0.632806
H52	H	1.135464	0.024926	0.632796
H53	H	0.993437	-0.457919	0.146271
H54	H	0.855912	-0.297438	0.060099
H55	H	0.879562	0.217582	0.583685
C56	C	0.843778	-0.286895	-0.080934
H57	H	0.823251	-0.330378	-0.114329
H58	H	0.880414	-0.258614	-0.116321
H59	H	0.798273	-0.248005	-0.062107
C60	C	0.863403	0.233853	0.403252
H61	H	0.871494	0.225694	0.341747
H62	H	0.872434	0.289737	0.418355
H63	H	0.807914	0.224744	0.418362
C64	C	0.552357	0.276119	0.000052
H65	H	0.508206	0.320869	0.000062
H66	H	0.585774	0.279895	-0.051020
H67	H	0.585772	0.279884	0.051132
C68	C	1.119916	-0.323942	0.087896
H69	H	1.145846	-0.349376	0.138953
H70	H	1.121510	-0.264805	0.090401
H71	H	1.148846	-0.345910	0.036930
H72	H	0.853427	-0.440522	-0.060260
C73	C	0.370256	0.272893	0.000051
H74	H	0.402596	0.318999	0.000041
H75	H	0.336013	0.275468	0.051123
H76	H	0.336016	0.275464	-0.051029
H77	H	0.853581	-0.441586	0.059355
H78	H	1.092880	-0.471892	0.087550
H79	H	0.997275	-0.314602	0.145921
C80	C	0.987877	-0.467710	-0.168431
H81	H	0.941851	-0.497525	-0.154457
H82	H	1.027992	-0.503195	-0.201087
H83	H	0.968999	-0.419506	-0.202572
H84	H	0.995224	-0.315779	-0.145772
H85	H	1.095231	-0.327694	-0.088949
H86	H	1.095050	-0.471762	-0.083356
H87	H	1.084695	0.011050	0.416427
