data_functionalizedCrystal
_audit_creation_method	'MofGen! by Chris Wilmer'
_symmetry_space_group_name_H-M	'P1'
_symmetry_Int_Tables_number	1
_symmetry_cell_setting	triclinic
loop_
_symmetry_equiv_pos_as_xyz
  x,y,z
_cell_length_a	21.295419
_cell_length_b	21.295417
_cell_length_c	13.897441
_cell_angle_alpha	89.964625
_cell_angle_beta	89.978117
_cell_angle_gamma	90.044503
loop_
_atom_site_label
_atom_site_type_symbol
_atom_site_fract_x
_atom_site_fract_y
_atom_site_fract_z
Zn1	Zn	0.962343	-0.250341	-0.545379
Zn2	Zn	0.962251	-0.355620	-0.384067
Zn3	Zn	0.857071	-0.250395	-0.384094
Zn4	Zn	0.857037	-0.355603	-0.545316
O5	O	0.909675	-0.302990	-0.464714
O6	O	1.050420	-0.264290	-0.523995
O7	O	0.948275	-0.341691	-0.249089
O8	O	0.871088	-0.162299	-0.405526
O9	O	1.050353	-0.341638	-0.405480
O10	O	0.948430	-0.162258	-0.524022
O11	O	0.870999	-0.264383	-0.249109
O12	O	0.768977	-0.264367	-0.405466
O13	O	0.871030	-0.341610	-0.680306
O14	O	0.768952	-0.341663	-0.523915
O15	O	0.948398	-0.264274	-0.680352
O16	O	0.948242	-0.443707	-0.405419
O17	O	0.870941	-0.443695	-0.523889
C18	C	0.746124	-0.303020	-0.464687
C19	C	0.676156	-0.303048	-0.464698
C20	C	0.909595	-0.466541	-0.464665
C21	C	0.909618	-0.536509	-0.464677
C22	C	0.643346	-0.262839	-0.526505
C23	C	0.577604	-0.262822	-0.526508
C24	C	0.544673	-0.303025	-0.464716
C25	C	0.577490	-0.343237	-0.402898
C26	C	0.643232	-0.343249	-0.402889
N27	N	0.441399	-0.358104	-0.457179
N28	N	0.378947	-0.358091	-0.457193
C29	C	0.346598	-0.302993	-0.464737
N30	N	0.379060	-0.247906	-0.472286
N31	N	0.441517	-0.247919	-0.472277
C32	C	0.473388	-0.303017	-0.464718
C33	C	0.242504	-0.262762	-0.526551
C34	C	0.176760	-0.262744	-0.526548
C35	C	0.176648	-0.343165	-0.402942
C36	C	0.242390	-0.343177	-0.402940
C37	C	0.275314	-0.302977	-0.464750
C38	C	0.949868	-0.569298	-0.526421
C39	C	0.949890	-0.635040	-0.526445
C40	C	0.909669	-0.667992	-0.464707
C41	C	0.869412	-0.635195	-0.402958
C42	C	0.869387	-0.569454	-0.402943
N43	N	0.904912	-0.771260	-0.380290
N44	N	0.904940	-0.833711	-0.380307
C45	C	0.909743	-0.866066	-0.464751
N46	N	0.914529	-0.833611	-0.549178
N47	N	0.914504	-0.771154	-0.549160
C48	C	0.909692	-0.739277	-0.464717
C49	C	0.950019	-0.970141	-0.526526
C50	C	0.950036	-1.035884	-0.526552
C51	C	0.869562	-1.036038	-0.403056
C52	C	0.869541	-0.970296	-0.403039
C53	C	0.909772	-0.937351	-0.464773
C54	C	1.073866	-0.302960	-0.464742
C55	C	1.143834	-0.302947	-0.464754
C56	C	0.909720	-0.302934	-0.716307
C57	C	0.909739	-0.302910	-0.823521
C58	C	0.909773	-0.138799	-0.464784
C59	C	0.909815	-0.068831	-0.464814
C60	C	0.909756	-0.302868	-1.019816
C61	C	0.909745	-0.302893	-0.910584
C62	C	0.909667	-0.303000	-0.214100
C63	C	0.909770	-0.302846	-0.106886
H64	H	0.670149	-0.230103	-0.576834
C65	C	0.833864	-1.136879	-0.348252
C66	C	0.825346	-1.072251	-0.335197
H67	H	0.806566	-1.159236	-0.306356
H68	H	0.824635	-1.147624	-0.413046
H69	H	0.876169	-1.147608	-0.334190
H70	H	0.783042	-1.061521	-0.349266
H71	H	0.834571	-1.061501	-0.270389
H72	H	0.836769	-0.943597	-0.352757
H73	H	0.550885	-0.230075	-0.576837
H74	H	0.836663	-0.662029	-0.352693
H75	H	0.550674	-0.375971	-0.352585
C76	C	0.958543	-0.495297	-0.656171
C77	C	0.994084	-0.533086	-0.594287
H78	H	0.985841	-0.472939	-0.698065
H79	H	0.931119	-0.520959	-0.693029
H80	H	0.934572	-0.466359	-0.619384
H81	H	1.018051	-0.562028	-0.631074
H82	H	1.021519	-0.507422	-0.557425
C83	C	0.636516	-0.422741	-0.280714
C84	C	0.679300	-0.387455	-0.334954
H85	H	0.658785	-0.450036	-0.238781
H86	H	0.610894	-0.395281	-0.243896
H87	H	0.610860	-0.446846	-0.322685
H88	H	0.704953	-0.363347	-0.292984
H89	H	0.704932	-0.414919	-0.371776
H90	H	0.269312	-0.230024	-0.576874
H91	H	0.150048	-0.229997	-0.576876
H92	H	0.269104	-0.375923	-0.352615
C93	C	0.075825	-0.378862	-0.348080
C94	C	0.140458	-0.387361	-0.335021
H95	H	0.053482	-0.406150	-0.306150
H96	H	0.065090	-0.336559	-0.334077
H97	H	0.065069	-0.388122	-0.412870
H98	H	0.151215	-0.378096	-0.270233
H99	H	0.151197	-0.429673	-0.349018
C100	C	1.029431	-0.628292	-0.648516
C101	C	0.994129	-0.671092	-0.594328
H102	H	1.056742	-0.650548	-0.690422
H103	H	1.001982	-0.602662	-0.685361
H104	H	1.053520	-0.602645	-0.606510
H105	H	0.970037	-0.696735	-0.636334
H106	H	1.021582	-0.696732	-0.557480
C107	C	0.789844	-0.576211	-0.280876
C108	C	0.825145	-0.533409	-0.335062
H109	H	0.762535	-0.553956	-0.238965
H110	H	0.765760	-0.601855	-0.322875
H111	H	0.817299	-0.601843	-0.244027
H112	H	0.797691	-0.507780	-0.371916
H113	H	0.849231	-0.507754	-0.293057
C114	C	1.029554	-0.976589	-0.648615
C115	C	0.994228	-0.933922	-0.594400
H116	H	1.056842	-0.954230	-0.690524
H117	H	1.053661	-1.002221	-0.606635
H118	H	1.002113	-1.002246	-0.685469
H119	H	1.021668	-0.908268	-0.557540
H120	H	0.970118	-0.908280	-0.636385
H121	H	0.982812	-1.062580	-0.576836
