data_functionalizedCrystal
_audit_creation_method	'MofGen! by Chris Wilmer'
_symmetry_space_group_name_H-M	'P1'
_symmetry_Int_Tables_number	1
_symmetry_cell_setting	triclinic
loop_
_symmetry_equiv_pos_as_xyz
  x,y,z
_cell_length_a	6.817900
_cell_length_b	11.102188
_cell_length_c	10.773894
_cell_angle_alpha	95.423105
_cell_angle_beta	96.645922
_cell_angle_gamma	108.603875
loop_
_atom_site_label
_atom_site_type_symbol
_atom_site_fract_x
_atom_site_fract_y
_atom_site_fract_z
V1	V	-3.974351	-0.171169	-0.388944
O2	O	-3.936005	0.013031	-0.381540
O3	O	-3.952057	-0.344021	-0.386284
O4	O	-3.891308	-0.166427	-0.558576
O5	O	-3.997174	-0.165792	-0.208056
V6	V	-4.459085	-0.149385	-0.367308
O7	O	-4.232953	-0.218952	-0.436404
O8	O	-4.650681	-0.101602	-0.319849
O9	O	-4.258173	0.023467	-0.369968
O10	O	-4.614828	-0.333585	-0.374713
O11	O	-4.553659	-0.154762	-0.548197
O12	O	-4.318922	-0.154127	-0.197677
C13	C	-3.804529	-0.386224	-0.380149
C14	C	-3.867357	-0.527519	-0.379104
C15	C	-3.876993	-0.577122	-0.264377
C16	C	-3.936049	-0.709886	-0.263401
C17	C	-3.975821	-0.743432	-0.491889
C18	C	-3.916780	-0.610671	-0.492865
C19	C	-4.109707	-0.875279	-0.128819
C20	C	-4.119309	-0.924884	-0.014084
C21	C	-3.965713	-0.862878	0.090465
C22	C	-3.802466	-0.751266	0.080285
C23	C	-3.792849	-0.701667	-0.034451
C24	C	-3.946490	-0.763672	-0.138996
C25	C	-3.743103	-0.445274	-0.627439
C26	C	-3.733471	-0.395672	-0.742175
C27	C	-3.887055	-0.457677	-0.846734
C28	C	-4.050276	-0.569294	-0.836566
C29	C	-4.059909	-0.618896	-0.721829
C30	C	-3.906324	-0.556882	-0.617270
C31	C	-3.727037	-0.159684	-0.599922
C32	C	-3.740597	-0.156951	-0.738597
C33	C	-3.919387	-0.161688	-0.806460
C34	C	-3.933405	-0.158863	-0.949788
C35	C	-4.069044	0.065663	-0.376101
C36	C	-3.985453	0.206957	-0.377153
C37	C	-4.146537	-0.160874	-0.156324
C38	C	-4.112215	-0.163601	-0.017648
H39	H	-3.659931	-0.610798	-0.042741
H40	H	-4.234805	-0.925766	-0.213938
H41	H	-3.836752	-0.509423	-0.171746
H42	H	-3.790697	-0.152708	-0.997792
C43	C	-4.305007	-0.171912	-0.952811
H44	H	-4.270305	-0.172732	-0.864986
H45	H	-4.347366	-0.099754	-0.965319
H46	H	-4.416284	-0.248401	-0.988119
C47	C	-3.976308	-0.917423	0.216677
H48	H	-4.095536	-0.992763	0.207770
H49	H	-3.853188	-0.937849	0.239941
H50	H	-3.986794	-0.855305	0.280187
C51	C	-3.547879	-0.148777	-0.803457
H52	H	-3.433904	-0.146203	-0.742299
H53	H	-3.580011	-0.221881	-0.865396
H54	H	-3.510817	-0.073221	-0.842676
H55	H	-3.677388	-0.700796	0.165419
H56	H	-4.252239	-1.015761	-0.005804
H57	H	-4.016064	-0.811150	-0.584509
H58	H	-4.192819	-0.709784	-0.713557
C59	C	-4.219231	-0.637502	-0.951575
H60	H	-4.190130	-0.591969	-1.021360
H61	H	-4.219092	-0.722559	-0.972304
H62	H	-4.352707	-0.640035	-0.932021
C63	C	-4.112159	-0.169993	-0.741615
H64	H	-4.077452	-0.170811	-0.653790
H65	H	-4.154514	-0.097833	-0.754122
H66	H	-4.223442	-0.246482	-0.776919
H67	H	-3.600543	-0.304795	-0.750452
C68	C	-3.876459	-0.403124	-0.972948
H69	H	-3.991307	-0.456047	-1.033761
H70	H	-3.882570	-0.318580	-0.961345
H71	H	-3.748968	-0.401118	-1.001614
C72	C	-3.574132	-0.377085	-0.512427
H73	H	-3.603250	-0.422608	-0.442638
H74	H	-3.440679	-0.374566	-0.531994
H75	H	-3.574244	-0.292017	-0.491687
