data_functionalizedCrystal
_audit_creation_method	'MofGen! by Chris Wilmer'
_symmetry_space_group_name_H-M	'P1'
_symmetry_Int_Tables_number	1
_symmetry_cell_setting	triclinic
loop_
_symmetry_equiv_pos_as_xyz
  x,y,z
_cell_length_a	27.732048
_cell_length_b	10.654541
_cell_length_c	9.130307
_cell_angle_alpha	90.002621
_cell_angle_beta	89.996154
_cell_angle_gamma	83.563292
loop_
_atom_site_label
_atom_site_type_symbol
_atom_site_fract_x
_atom_site_fract_y
_atom_site_fract_z
O1	O	-0.641855	-0.149414	-0.121610
O2	O	-0.501203	-0.172133	-0.121655
O3	O	-0.574764	0.022102	-0.121623
O4	O	-0.568295	-0.343649	-0.121642
O5	O	-0.574761	0.022102	0.121976
O6	O	-0.501201	-0.172133	0.121944
O7	O	-0.641853	-0.149414	0.121989
Cu8	Cu	-0.571526	-0.160773	0.144209
Cu9	Cu	-0.571529	-0.160773	-0.143875
O10	O	-0.568292	-0.343649	0.121957
C11	C	-0.483192	-0.171656	0.000139
C12	C	-0.429528	-0.170220	0.000123
C13	C	-0.659864	-0.149891	0.000191
C14	C	-0.713528	-0.151327	0.000199
C15	C	-0.574288	0.068880	0.000176
C16	C	-0.572867	0.208264	0.000173
C17	C	-0.091371	-0.275959	0.000180
C18	C	0.110322	-0.270631	0.000194
O19	O	0.140975	-0.367323	0.000252
N20	N	0.130162	-0.155458	0.000197
C21	C	0.099576	-0.041609	0.000207
O22	O	0.121080	0.056476	0.000226
C23	C	-0.102116	-0.046938	0.000204
C24	C	-0.121953	-0.162119	0.000186
C25	C	-0.111209	-0.391131	0.000164
C26	C	-0.161630	-0.392462	0.000152
C27	C	-0.192212	-0.278621	0.000158
C28	C	-0.172374	-0.163450	0.000175
C29	C	-0.132701	0.066910	0.000225
C30	C	-0.183126	0.065567	0.000228
C31	C	-0.202964	-0.049613	0.000209
C32	C	-0.253376	-0.050940	0.000169
N33	N	-0.273217	-0.166113	0.000165
C34	C	-0.242634	-0.279954	0.000160
C35	C	0.205468	-0.038819	0.000206
C36	C	0.255890	-0.037486	0.000204
C37	C	0.266632	-0.266509	0.000193
C38	C	0.216209	-0.267841	0.000185
C39	C	0.185627	-0.153992	0.000202
C40	C	-0.348521	-0.282740	0.000135
C41	C	-0.398946	-0.284060	0.000117
C42	C	-0.409684	-0.055038	0.000136
C43	C	-0.359263	-0.053716	0.000145
C44	C	-0.328682	-0.167578	0.000150
O45	O	-0.284058	0.045700	0.000127
O46	O	-0.264147	-0.378023	0.000174
C47	C	-0.040951	-0.274629	0.000192
C48	C	-0.021113	-0.159457	0.000209
C49	C	-0.051695	-0.045617	0.000214
C50	C	0.029310	-0.158124	0.000207
C51	C	0.059892	-0.271965	0.000201
C52	C	0.040051	-0.387138	0.000197
C53	C	-0.010369	-0.388469	0.000186
C54	C	-0.031854	0.069557	0.000218
C55	C	0.018566	0.070878	0.000227
C56	C	0.049148	-0.042962	0.000222
C57	C	-0.568768	-0.390427	0.000155
C58	C	-0.570189	-0.529811	0.000148
N59	N	-0.571528	-0.160772	0.346832
C60	C	-0.660829	0.239933	0.000219
C61	C	-0.704140	0.321248	0.000245
C62	C	-0.702803	0.452210	0.000240
C63	C	-0.658149	0.501858	0.000205
C64	C	-0.614838	0.420543	0.000179
C65	C	-0.616180	0.289580	0.000188
C66	C	-0.526877	0.388874	0.000122
C67	C	-0.528213	0.257912	0.000138
C68	C	-0.482223	0.438522	0.000087
C69	C	-0.438911	0.357207	0.000072
C70	C	-0.440250	0.226238	0.000078
C71	C	-0.484902	0.176597	0.000112
C72	C	-0.636692	0.011174	0.346850
C73	C	-0.669278	0.097143	0.423526
C74	C	-0.669282	0.097143	0.576860
C75	C	-0.636697	0.011167	0.653521
C76	C	-0.604112	-0.074802	0.576845
C77	C	-0.604111	-0.074795	0.423508
C78	C	-0.538945	-0.246740	0.576826
C79	C	-0.538942	-0.246748	0.423493
C80	C	-0.506360	-0.332717	0.653487
C81	C	-0.473776	-0.418694	0.576811
C82	C	-0.473773	-0.418691	0.423469
C83	C	-0.506357	-0.332718	0.346817
N84	N	-0.571531	-0.160771	0.653502
H85	H	-0.415095	-0.377858	0.000101
H86	H	-0.434593	0.037648	0.000135
F87	F	-0.031475	-0.511061	0.000167
F88	F	-0.506363	-0.332711	0.816679
F89	F	-0.748899	0.538753	0.000256
F90	F	-0.439098	-0.510179	0.658405
F91	F	-0.486331	0.037218	0.000129
H92	H	-0.657064	0.608495	0.000183
F93	F	-0.703961	0.188647	0.658464
H94	H	-0.481137	0.545160	0.000074
H95	H	-0.056750	0.162262	0.000226
H96	H	-0.636699	0.011183	0.778373
H97	H	-0.402557	0.397642	0.000034
F98	F	-0.439088	-0.510187	0.341877
F99	F	-0.078668	-0.512307	0.000158
H100	H	-0.177776	-0.486253	0.000137
H101	H	-0.323628	-0.375456	0.000143
F102	F	-0.662256	0.100553	0.000253
H103	H	0.064960	-0.479831	0.000187
H104	H	0.200061	-0.361631	0.000178
F105	F	-0.111599	0.189503	0.000224
F106	F	-0.394151	0.139705	0.000041
F107	F	-0.506359	-0.332712	0.183625
F108	F	0.276997	0.085105	0.000191
H109	H	0.291541	-0.359203	0.000189
F110	F	-0.636696	0.011169	0.183659
F111	F	0.039673	0.193478	0.000228
H112	H	0.180572	0.053896	0.000220
F113	F	-0.338149	0.068871	0.000166
F114	F	-0.215671	0.186745	0.000250
H115	H	-0.740497	0.280810	0.000287
F116	F	-0.703955	0.188646	0.341931
