data_functionalizedCrystal
_audit_creation_method	'MofGen! by Chris Wilmer'
_symmetry_space_group_name_H-M	'P1'
_symmetry_Int_Tables_number	1
_symmetry_cell_setting	triclinic
loop_
_symmetry_equiv_pos_as_xyz
  x,y,z
_cell_length_a	19.188931
_cell_length_b	18.266242
_cell_length_c	14.044190
_cell_angle_alpha	90.010750
_cell_angle_beta	91.831540
_cell_angle_gamma	89.992421
loop_
_atom_site_label
_atom_site_type_symbol
_atom_site_fract_x
_atom_site_fract_y
_atom_site_fract_z
O1	O	-0.933786	0.060864	0.118314
O2	O	-0.683786	0.310864	0.368314
O3	O	-0.433786	0.560864	0.618314
O4	O	-0.183786	0.810864	0.868314
O5	O	-0.731503	0.060872	0.134239
O6	O	-0.481503	0.310872	0.384239
O7	O	-0.231503	0.560872	0.634239
O8	O	0.018497	0.810872	0.884239
O9	O	-0.829605	0.060854	-0.011696
O10	O	-0.579605	0.310854	0.238304
O11	O	-0.329605	0.560854	0.488304
O12	O	-0.079605	0.810854	0.738304
O13	O	-0.835683	0.060882	0.264249
O14	O	-0.585683	0.310882	0.514249
O15	O	-0.335683	0.560882	0.764249
O16	O	-0.085683	0.810882	1.014249
O17	O	-0.829587	-0.060908	-0.011703
O18	O	-0.579587	0.189092	0.238297
O19	O	-0.329587	0.439092	0.488297
O20	O	-0.079587	0.689092	0.738297
O21	O	-0.731484	-0.060890	0.134232
O22	O	-0.481484	0.189110	0.384232
O23	O	-0.231484	0.439110	0.634232
O24	O	0.018516	0.689110	0.884232
O25	O	-0.933767	-0.060898	0.118306
O26	O	-0.683767	0.189102	0.368306
O27	O	-0.433767	0.439102	0.618306
O28	O	-0.183767	0.689102	0.868306
Zn29	Zn	-0.832623	-0.080227	0.126268
Zn30	Zn	-0.582623	0.169773	0.376268
Zn31	Zn	-0.332623	0.419773	0.626268
Zn32	Zn	-0.082623	0.669773	0.876268
Zn33	Zn	-0.832647	0.080200	0.126278
Zn34	Zn	-0.582647	0.330200	0.376278
Zn35	Zn	-0.332647	0.580200	0.626278
Zn36	Zn	-0.082647	0.830200	0.876278
O37	O	-0.835664	-0.060880	0.264241
O38	O	-0.585664	0.189120	0.514241
O39	O	-0.335664	0.439120	0.764241
O40	O	-0.085664	0.689120	1.014241
C41	C	-0.705449	-0.000008	0.133720
C42	C	-0.455449	0.249992	0.383720
C43	C	-0.205449	0.499992	0.633720
C44	C	0.044551	0.749992	0.883720
C45	C	-0.627845	-0.000006	0.132171
C46	C	-0.377845	0.249994	0.382171
C47	C	-0.127845	0.499994	0.632171
C48	C	0.122155	0.749994	0.882171
C49	C	-0.073886	0.066358	0.121123
C50	C	0.176114	0.316358	0.371123
C51	C	0.426114	0.566358	0.621123
C52	C	0.676114	0.816358	0.871123
C53	C	-0.146804	0.066361	0.122572
C54	C	0.103196	0.316361	0.372572
C55	C	0.353196	0.566361	0.622572
C56	C	0.603196	0.816361	0.872572
C57	C	-0.183257	-0.000011	0.123297
C58	C	0.066743	0.249989	0.373297
C59	C	0.316743	0.499989	0.623297
C60	C	0.566743	0.749989	0.873297
C61	C	-0.146788	-0.066391	0.122548
C62	C	0.103212	0.183609	0.372548
C63	C	0.353212	0.433609	0.622548
C64	C	0.603212	0.683609	0.872548
C65	C	-0.073872	-0.066392	0.121090
C66	C	0.176128	0.183608	0.371090
C67	C	0.426128	0.433608	0.621090
C68	C	0.676128	0.683608	0.871090
N69	N	-0.295898	-0.049409	0.179509
N70	N	-0.045898	0.200591	0.429509
N71	N	0.204102	0.450591	0.679509
N72	N	0.454102	0.700591	0.929509
N73	N	-0.365166	-0.049404	0.180897
N74	N	-0.115166	0.200596	0.430897
N75	N	0.134834	0.450596	0.680897
N76	N	0.384834	0.700596	0.930897
C77	C	-0.402950	-0.000012	0.127691
C78	C	-0.152950	0.249988	0.377691
C79	C	0.097050	0.499988	0.627691
C80	C	0.347050	0.749988	0.877691
N81	N	-0.368849	0.049385	0.073056
N82	N	-0.118849	0.299385	0.323056
N83	N	0.131151	0.549385	0.573056
N84	N	0.381151	0.799385	0.823056
N85	N	-0.299576	0.049382	0.071672
N86	N	-0.049576	0.299382	0.321672
N87	N	0.200424	0.549382	0.571672
N88	N	0.450424	0.799382	0.821672
C89	C	-0.262323	-0.000018	0.124879
C90	C	-0.012323	0.249982	0.374879
C91	C	0.237677	0.499982	0.624879
C92	C	0.487677	0.749982	0.874879
C93	C	-0.518476	0.066367	0.130004
C94	C	-0.268476	0.316367	0.380004
C95	C	-0.018476	0.566367	0.630004
C96	C	0.231524	0.816367	0.880004
C97	C	-0.591396	0.066367	0.131448
C98	C	-0.341396	0.316367	0.381448
C99	C	-0.091396	0.566367	0.631448
C100	C	0.158604	0.816367	0.881448
C101	C	-0.591379	-0.066387	0.131434
C102	C	-0.341379	0.183613	0.381434
C103	C	-0.091379	0.433613	0.631434
C104	C	0.158621	0.683613	0.881434
C105	C	-0.518461	-0.066385	0.129981
C106	C	-0.268461	0.183615	0.379981
C107	C	-0.018461	0.433615	0.629981
C108	C	0.231539	0.683615	0.879981
C109	C	-0.482014	-0.000006	0.129270
C110	C	-0.232014	0.249994	0.379270
C111	C	0.017986	0.499994	0.629270
C112	C	0.267986	0.749994	0.879270
N113	N	-0.832611	-0.189713	0.126261
N114	N	-0.582611	0.060287	0.376261
N115	N	-0.332611	0.310287	0.626261
N116	N	-0.082611	0.560287	0.876261
C117	C	-0.876068	-0.228030	0.061672
C118	C	-0.626068	0.021970	0.311672
C119	C	-0.376068	0.271970	0.561672
C120	C	-0.126068	0.521970	0.811672
C121	C	-0.876073	-0.304675	0.061668
C122	C	-0.626073	-0.054675	0.311668
C123	C	-0.376073	0.195325	0.561668
C124	C	-0.126073	0.445325	0.811668
C125	C	-0.832627	-0.343000	0.126268
C126	C	-0.582627	-0.093000	0.376268
C127	C	-0.332627	0.157000	0.626268
C128	C	-0.082627	0.407000	0.876268
C129	C	-0.789161	-0.304674	0.190861
C130	C	-0.539161	-0.054674	0.440861
C131	C	-0.289161	0.195326	0.690861
C132	C	-0.039161	0.445326	0.940861
C133	C	-0.789153	-0.228031	0.190858
C134	C	-0.539153	0.021969	0.440858
C135	C	-0.289153	0.271969	0.690858
C136	C	-0.039153	0.521969	0.940858
N137	N	-0.828966	-0.463324	0.210156
N138	N	-0.578966	-0.213324	0.460156
N139	N	-0.328966	0.036676	0.710156
N140	N	-0.078966	0.286676	0.960156
N141	N	-0.828978	-0.536132	0.210157
N142	N	-0.578978	-0.286132	0.460157
N143	N	-0.328978	-0.036132	0.710157
N144	N	-0.078978	0.213868	0.960157
C145	C	-0.832647	-0.573923	0.126282
C146	C	-0.582647	-0.323923	0.376282
C147	C	-0.332647	-0.073923	0.626282
C148	C	-0.082647	0.176077	0.876282
N149	N	-0.836318	-0.536155	0.042403
N150	N	-0.586318	-0.286155	0.292403
N151	N	-0.336318	-0.036155	0.542403
N152	N	-0.086318	0.213845	0.792403
N153	N	-0.836310	-0.463340	0.042404
N154	N	-0.586310	-0.213340	0.292404
N155	N	-0.336310	0.036660	0.542404
N156	N	-0.086310	0.286660	0.792404
C157	C	-0.832630	-0.426107	0.126279
C158	C	-0.582630	-0.176107	0.376279
C159	C	-0.332630	0.073893	0.626279
C160	C	-0.082630	0.323893	0.876279
C161	C	-0.876112	-0.695347	0.061683
C162	C	-0.626112	-0.445347	0.311683
C163	C	-0.376112	-0.195347	0.561683
C164	C	-0.126112	0.054653	0.811683
C165	C	-0.876111	-0.771993	0.061678
C166	C	-0.626111	-0.521993	0.311678
C167	C	-0.376111	-0.271993	0.561678
C168	C	-0.126111	-0.021993	0.811678
C169	C	-0.789203	-0.771991	0.190879
C170	C	-0.539203	-0.521991	0.440879
C171	C	-0.289203	-0.271991	0.690879
C172	C	-0.039203	-0.021991	0.940879
C173	C	-0.789200	-0.695346	0.190877
C174	C	-0.539200	-0.445346	0.440877
C175	C	-0.289200	-0.195346	0.690877
C176	C	-0.039200	0.054654	0.940877
C177	C	-0.832658	-0.657028	0.126280
C178	C	-0.582658	-0.407028	0.376280
C179	C	-0.332658	-0.157028	0.626280
C180	C	-0.082658	0.092972	0.876280
C181	C	0.040179	-0.000016	0.118827
C182	C	0.290179	0.249984	0.368827
C183	C	0.540179	0.499984	0.618827
C184	C	0.790179	0.749984	0.868827
C185	C	-0.037425	-0.000013	0.120380
C186	C	0.212575	0.249987	0.370380
C187	C	0.462575	0.499987	0.620380
C188	C	0.712575	0.749987	0.870380
C189	C	-0.826937	-0.000029	-0.047003
C190	C	-0.576937	0.249971	0.202997
C191	C	-0.326937	0.499971	0.452997
C192	C	-0.076937	0.749971	0.702997
C193	C	-0.819006	-0.000036	-0.152196
C194	C	-0.569006	0.249964	0.097804
C195	C	-0.319006	0.499964	0.347804
C196	C	-0.069006	0.749964	0.597804
N197	N	-0.832664	0.189687	0.126277
N198	N	-0.582664	0.439687	0.376277
N199	N	-0.332664	0.689687	0.626277
N200	N	-0.082664	0.939687	0.876277
C201	C	-0.860754	-0.000009	-0.402655
C202	C	-0.610754	0.249991	-0.152655
C203	C	-0.360754	0.499991	0.097345
C204	C	-0.110754	0.749991	0.347345
C205	C	-0.804519	-0.000011	-0.344793
C206	C	-0.554519	0.249989	-0.094793
C207	C	-0.304519	0.499989	0.155207
C208	C	-0.054519	0.749989	0.405207
C209	C	-0.812582	-0.000025	-0.237622
C210	C	-0.562582	0.249975	0.012378
C211	C	-0.312582	0.499975	0.262378
C212	C	-0.062582	0.749975	0.512378
C213	C	-0.852692	0.000005	-0.509836
C214	C	-0.602692	0.250005	-0.259836
C215	C	-0.352692	0.500005	-0.009836
C216	C	-0.102692	0.750005	0.240164
C217	C	-0.838333	0.000005	0.299549
C218	C	-0.588333	0.250005	0.549549
C219	C	-0.338333	0.500005	0.799549
C220	C	-0.088333	0.750005	1.049549
C221	C	-0.846263	0.000016	0.404742
C222	C	-0.596263	0.250016	0.654742
C223	C	-0.346263	0.500016	0.904742
C224	C	-0.096263	0.750016	1.154742
H225	H	-0.044186	-0.120441	0.120488
H226	H	0.205814	0.129559	0.370488
H227	H	0.455814	0.379559	0.620488
H228	H	0.705814	0.629559	0.870488
H229	H	-0.911496	-0.664148	0.009081
H230	H	-0.661496	-0.414148	0.259081
H231	H	-0.411496	-0.164148	0.509081
H232	H	-0.161496	0.085852	0.759081
H233	H	-0.488800	0.120417	0.129423
H234	H	-0.238800	0.370417	0.379423
H235	H	0.011200	0.620417	0.629423
H236	H	0.261200	0.870417	0.879423
H237	H	-0.621081	0.120417	0.132046
H238	H	-0.371081	0.370417	0.382046
H239	H	-0.121081	0.620417	0.632046
H240	H	0.128919	0.870417	0.882046
H241	H	-0.753826	-0.803194	0.243475
H242	H	-0.503826	-0.553194	0.493475
H243	H	-0.253826	-0.303194	0.743475
H244	H	-0.003826	-0.053194	0.993475
H245	H	-0.753786	-0.335882	0.243459
H246	H	-0.503786	-0.085882	0.493459
H247	H	-0.253786	0.164118	0.743459
H248	H	-0.003786	0.414118	0.993459
H249	H	-0.753764	-0.196832	0.243454
H250	H	-0.503764	0.053168	0.493454
H251	H	-0.253764	0.303168	0.743454
H252	H	-0.003764	0.553168	0.993454
H253	H	-0.914951	-0.000018	-0.371706
H254	H	-0.664951	0.249982	-0.121706
H255	H	-0.414951	0.499982	0.128294
H256	H	-0.164951	0.749982	0.378294
H257	H	-0.911453	-0.196835	0.009071
H258	H	-0.661453	0.053165	0.259071
H259	H	-0.411453	0.303165	0.509071
H260	H	-0.161453	0.553165	0.759071
H261	H	-0.488774	-0.120432	0.129379
H262	H	-0.238774	0.129568	0.379379
H263	H	0.011226	0.379568	0.629379
H264	H	0.261226	0.629568	0.879379
H265	H	-0.044215	0.120409	0.120541
H266	H	0.205785	0.370409	0.370541
H267	H	0.455785	0.620409	0.620541
H268	H	0.705785	0.870409	0.870541
H269	H	-0.911497	-0.803191	0.009077
H270	H	-0.661497	-0.553191	0.259077
H271	H	-0.411497	-0.303191	0.509077
H272	H	-0.161497	-0.053191	0.759077
H273	H	-0.176495	0.120410	0.123183
H274	H	0.073505	0.370410	0.373183
H275	H	0.323505	0.620410	0.623183
H276	H	0.573505	0.870410	0.873183
H277	H	-0.753816	-0.664146	0.243475
H278	H	-0.503816	-0.414146	0.493475
H279	H	-0.253816	-0.164146	0.743475
H280	H	-0.003816	0.085854	0.993475
H281	H	-0.750318	-0.000005	-0.375744
H282	H	-0.500318	0.249995	-0.125744
H283	H	-0.250318	0.499995	0.124256
H284	H	-0.000318	0.749995	0.374256
H285	H	-0.621059	-0.120429	0.132020
H286	H	-0.371059	0.129571	0.382020
H287	H	-0.121059	0.379571	0.632020
H288	H	0.128941	0.629571	0.882020
H289	H	-0.911462	-0.335879	0.009070
H290	H	-0.661462	-0.085879	0.259070
H291	H	-0.411462	0.164121	0.509070
H292	H	-0.161462	0.414121	0.759070
H293	H	-0.176474	-0.120432	0.123137
H294	H	0.073526	0.129568	0.373137
H295	H	0.323526	0.379568	0.623137
H296	H	0.573526	0.629568	0.873137
