data_functionalizedCrystal
_audit_creation_method	'MofGen! by Chris Wilmer'
_symmetry_space_group_name_H-M	'P1'
_symmetry_Int_Tables_number	1
_symmetry_cell_setting	triclinic
loop_
_symmetry_equiv_pos_as_xyz
  x,y,z
_cell_length_a	10.654550
_cell_length_b	10.540539
_cell_length_c	9.730223
_cell_angle_alpha	90.000839
_cell_angle_beta	90.000242
_cell_angle_gamma	84.505211
loop_
_atom_site_label
_atom_site_type_symbol
_atom_site_fract_x
_atom_site_fract_y
_atom_site_fract_z
O1	O	1.667902	0.178298	0.114180
O2	O	1.302430	0.195285	0.114205
O3	O	1.493504	0.002082	0.114190
O4	O	1.476828	0.371501	0.114195
O5	O	1.493491	0.002082	-0.114390
O6	O	1.302416	0.195285	-0.114375
O7	O	1.667889	0.178298	-0.114400
Zn8	Zn	1.485150	0.186792	-0.150679
Zn9	Zn	1.485168	0.186791	0.150484
O10	O	1.476814	0.371501	-0.114385
C11	C	1.255625	0.194038	-0.000082
C12	C	1.116180	0.190306	-0.000072
C13	C	1.492247	-0.045221	-0.000097
C14	C	1.488505	-0.186167	-0.000090
C15	C	1.036735	0.304061	-0.000075
C16	C	0.905712	0.300547	-0.000099
C17	C	0.933594	0.069513	-0.000112
C18	C	1.064614	0.073029	-0.000098
C19	C	1.345134	-0.369543	0.000433
C20	C	1.348927	-0.222926	-0.000082
C21	C	1.555669	-0.247849	-0.130624
C22	C	1.550905	-0.394392	-0.130734
C23	C	1.553759	-0.394911	0.129204
C24	C	1.555045	-0.247930	0.130930
C25	C	1.714694	0.179545	-0.000110
C26	C	1.854139	0.183277	-0.000110
C27	C	1.478072	0.418804	-0.000095
C28	C	1.481813	0.559750	-0.000093
N29	N	1.485147	0.186791	-0.356216
C30	C	1.562006	0.264502	-0.428141
C31	C	1.562027	0.264495	-0.572024
C32	C	1.408319	0.109062	-0.572044
C33	C	1.408306	0.109064	-0.428163
N34	N	1.485181	0.186782	0.356021
H35	H	1.078715	0.399556	-0.000064
H36	H	0.841032	0.393178	-0.000104
H37	H	1.345717	0.045776	-0.369600
H38	H	1.651288	-0.442396	-0.136663
H39	H	0.891593	-0.025970	-0.000141
H40	H	1.129302	-0.019610	-0.000100
H41	H	1.290216	-0.399730	-0.092644
H42	H	1.296078	-0.180304	0.093491
H43	H	1.290003	-0.398123	0.094042
H44	H	1.509002	-0.205233	-0.227758
H45	H	1.345757	0.045781	-0.630641
H46	H	1.295697	-0.181151	-0.093803
H47	H	1.501257	-0.422573	-0.228305
H48	H	1.508591	-0.426448	0.228141
H49	H	1.624575	0.327792	-0.369566
H50	H	1.624615	0.327773	-0.630579
H51	H	1.658171	-0.225532	-0.135484
H52	H	1.505902	-0.207054	0.227496
H53	H	1.656809	-0.223745	0.138805
H54	H	1.654576	-0.442173	0.130075
